=
 OpenBabel11112417383D

 28 32  0  0  1  0  0  0  0  0999 V2000
  186.2130  178.4440  144.2560 C   0  0  0  0  0  0  0  0  0  0  0  0
  190.0940  178.3900  144.4410 O   0  0  0  0  0  0  0  0  0  0  0  0
  188.2770  174.9530  139.3900 O   0  0  0  0  0  0  0  0  0  0  0  0
  185.3280  176.9820  146.4800 C   0  0  0  0  0  3  0  0  0  0  0  0
  188.4790  173.9060  141.4890 N   0  0  0  0  0  0  0  0  0  0  0  0
  186.5900  179.2220  143.0380 C   0  0  0  0  0  2  0  0  0  0  0  0
  190.1810  177.1300  146.5480 O   0  0  0  0  0  0  0  0  0  0  0  0
  190.2540  177.0260  145.0520 S   0  0  0  0  0  0  0  0  0  0  0  0
  191.8460  175.4350  143.5170 C   0  0  0  0  0  0  0  0  0  0  0  0
  188.9610  175.9190  144.4850 C   0  0  2  0  0  3  0  0  0  0  0  0
  185.0900  177.5620  140.1420 O   0  0  0  0  0  0  0  0  0  0  0  0
  187.3070  175.5780  142.7290 C   0  0  2  0  0  3  0  0  0  0  0  0
  190.6210  175.1260  142.7210 C   0  0  0  0  0  2  0  0  0  0  0  0
  191.7810  176.3650  144.5940 N   0  0  0  0  0  2  0  0  0  0  0  0
  185.9850  177.9240  140.9490 C   0  0  0  0  0  0  0  0  0  0  0  0
  186.8030  177.1980  144.5540 C   0  0  0  0  0  0  0  0  0  0  0  0
  188.0570  174.9400  140.6300 C   0  0  0  0  0  0  0  0  0  0  0  0
  192.9890  174.9720  143.1380 N   0  0  0  0  0  2  0  0  0  0  0  0
  187.3590  177.3520  140.8250 C   0  0  0  0  0  2  0  0  0  0  0  0
  186.3390  176.4710  145.6650 C   0  0  0  0  0  3  0  0  0  0  0  0
  185.1950  178.9470  145.0760 C   0  0  0  0  0  3  0  0  0  0  0  0
  184.7590  178.2220  146.1880 C   0  0  0  0  0  3  0  0  0  0  0  0
  185.6780  178.8940  141.9520 N   0  0  0  0  0  2  0  0  0  0  0  0
  188.1900  174.3120  142.8610 C   0  0  2  0  0  3  0  0  0  0  0  0
  187.3960  175.9810  141.3200 N   0  0  0  0  0  0  0  0  0  0  0  0
  189.4470  174.7410  143.6400 C   0  0  2  0  0  3  0  0  0  0  0  0
  189.1740  172.6930  141.0890 C   0  0  0  0  0  1  0  0  0  0  0  0
  187.8850  176.6270  143.6740 C   0  0  1  0  0  3  0  0  0  0  0  0
  1 16  2  0  0  0  0
  1 21  1  0  0  0  0
  2  8  2  0  0  0  0
  3 17  2  0  0  0  0
  6  1  1  0  0  0  0
  8  7  2  0  0  0  0
  9 14  1  0  0  0  0
 10  8  1  6  0  0  0
 11 15  2  0  0  0  0
 12 25  1  6  0  0  0
 12 24  1  0  0  0  0
 12 28  1  0  0  0  0
 13  9  1  0  0  0  0
 14  8  1  0  0  0  0
 15 23  1  0  0  0  0
 16 20  1  0  0  0  0
 17 25  1  0  0  0  0
 17  5  1  0  0  0  0
 18  9  2  0  0  0  0
 19 15  1  0  0  0  0
 19 25  1  0  0  0  0
 20  4  2  0  0  0  0
 21 22  2  0  0  0  0
 22  4  1  0  0  0  0
 23  6  1  0  0  0  0
 24  5  1  6  0  0  0
 24 26  1  0  0  0  0
 26 13  1  6  0  0  0
 26 10  1  0  0  0  0
 27  5  1  0  0  0  0
 28 10  1  0  0  0  0
 28 16  1  1  0  0  0
M  END
>  <MODEL>
1

>  <REMARK>
 VINA RESULT:      -8.7      0.000      0.000
  Name = 
  0 active torsions:
  status: ('A' for Active; 'I' for Inactive)
                            x       y       z     vdW  Elec       q    Type
                         _______ _______ _______ _____ _____    ______ ____

>  <TORSDO>
F 0

$$$$
=
 OpenBabel11112417383D

 28 32  0  0  1  0  0  0  0  0999 V2000
  192.7920  174.4950  145.1910 C   0  0  0  0  0  0  0  0  0  0  0  0
  189.6280  175.4350  147.2430 O   0  0  0  0  0  0  0  0  0  0  0  0
  187.9860  175.0220  141.0980 O   0  0  0  0  0  0  0  0  0  0  0  0
  194.4820  176.7270  145.3380 C   0  0  0  0  0  3  0  0  0  0  0  0
  188.7610  177.0740  141.9520 N   0  0  0  0  0  0  0  0  0  0  0  0
  191.9530  173.2670  145.0430 C   0  0  0  0  0  2  0  0  0  0  0  0
  190.4730  177.6400  147.9220 O   0  0  0  0  0  0  0  0  0  0  0  0
  189.6110  176.9060  146.9350 S   0  0  0  0  0  0  0  0  0  0  0  0
  187.2330  177.6600  145.8390 C   0  0  0  0  0  0  0  0  0  0  0  0
  190.2310  177.2170  145.2800 C   0  0  2  0  0  3  0  0  0  0  0  0
  191.4420  172.6860  141.4660 O   0  0  0  0  0  0  0  0  0  0  0  0
  190.6450  176.1770  143.1170 C   0  0  2  0  0  3  0  0  0  0  0  0
  187.7960  177.2160  144.5290 C   0  0  0  0  0  2  0  0  0  0  0  0
  187.9920  177.4960  147.0330 N   0  0  0  0  0  2  0  0  0  0  0  0
  191.1690  173.0270  142.6470 C   0  0  0  0  0  0  0  0  0  0  0  0
  192.2670  175.7850  144.9670 C   0  0  0  0  0  0  0  0  0  0  0  0
  188.8190  175.6770  141.7780 C   0  0  0  0  0  0  0  0  0  0  0  0
  186.0070  178.0560  145.9070 N   0  0  0  0  0  2  0  0  0  0  0  0
  189.8670  173.7000  142.9340 C   0  0  0  0  0  2  0  0  0  0  0  0
  193.1300  176.8930  145.0310 C   0  0  0  0  0  3  0  0  0  0  0  0
  194.1500  174.3380  145.4930 C   0  0  0  0  0  3  0  0  0  0  0  0
  194.9910  175.4500  145.5730 C   0  0  0  0  0  3  0  0  0  0  0  0
  192.0980  172.7400  143.6940 N   0  0  0  0  0  2  0  0  0  0  0  0
  189.7850  177.4510  142.9220 C   0  0  2  0  0  3  0  0  0  0  0  0
  189.8910  175.0870  142.4860 N   0  0  0  0  0  0  0  0  0  0  0  0
  189.2040  177.7960  144.3060 C   0  0  2  0  0  3  0  0  0  0  0  0
  187.7880  177.9710  141.3500 C   0  0  0  0  0  1  0  0  0  0  0  0
  190.8130  175.9760  144.6200 C   0  0  1  0  0  3  0  0  0  0  0  0
  1 21  1  0  0  0  0
  3 17  2  0  0  0  0
  4 22  1  0  0  0  0
  6  1  1  0  0  0  0
  8 14  1  0  0  0  0
  8  2  2  0  0  0  0
  8  7  2  0  0  0  0
  9 18  2  0  0  0  0
  9 14  1  0  0  0  0
 10  8  1  1  0  0  0
 11 15  2  0  0  0  0
 12 25  1  1  0  0  0
 12 28  1  0  0  0  0
 13  9  1  0  0  0  0
 15 19  1  0  0  0  0
 15 23  1  0  0  0  0
 16 20  1  0  0  0  0
 16  1  2  0  0  0  0
 17  5  1  0  0  0  0
 17 25  1  0  0  0  0
 20  4  2  0  0  0  0
 21 22  2  0  0  0  0
 23  6  1  0  0  0  0
 24  5  1  6  0  0  0
 24 12  1  0  0  0  0
 24 26  1  0  0  0  0
 25 19  1  0  0  0  0
 26 13  1  1  0  0  0
 26 10  1  0  0  0  0
 27  5  1  0  0  0  0
 28 16  1  6  0  0  0
 28 10  1  0  0  0  0
M  END
>  <MODEL>
2

>  <REMARK>
 VINA RESULT:      -8.1      2.462      5.951
  Name = 
  0 active torsions:
  status: ('A' for Active; 'I' for Inactive)
                            x       y       z     vdW  Elec       q    Type
                         _______ _______ _______ _____ _____    ______ ____

>  <TORSDO>
F 0

$$$$
=
 OpenBabel11112417383D

 28 32  0  0  1  0  0  0  0  0999 V2000
  190.7150  175.0490  142.3570 C   0  0  0  0  0  0  0  0  0  0  0  0
  188.6210  178.1970  141.4570 O   0  0  0  0  0  0  0  0  0  0  0  0
  189.2010  177.9160  147.7980 O   0  0  0  0  0  0  0  0  0  0  0  0
  189.1090  172.8520  141.6810 C   0  0  0  0  0  3  0  0  0  0  0  0
  187.4040  176.8130  146.7520 N   0  0  0  0  0  0  0  0  0  0  0  0
  191.6330  176.1560  142.7620 C   0  0  0  0  0  2  0  0  0  0  0  0
  186.7210  176.9280  140.5540 O   0  0  0  0  0  0  0  0  0  0  0  0
  187.2610  177.6360  141.7630 S   0  0  0  0  0  0  0  0  0  0  0  0
  185.9410  179.1780  143.5810 C   0  0  0  0  0  0  0  0  0  0  0  0
  187.3450  176.4720  143.1270 C   0  0  2  0  0  3  0  0  0  0  0  0
  192.4290  175.7060  146.3060 O   0  0  0  0  0  0  0  0  0  0  0  0
  188.6990  175.7810  145.0290 C   0  0  2  0  0  3  0  0  0  0  0  0
  186.6820  178.4190  144.6320 C   0  0  0  0  0  2  0  0  0  0  0  0
  186.1940  178.9190  142.2040 N   0  0  0  0  0  2  0  0  0  0  0  0
  191.8900  176.2000  145.2810 C   0  0  0  0  0  0  0  0  0  0  0  0
  189.3600  175.0270  142.7480 C   0  0  0  0  0  0  0  0  0  0  0  0
  188.7620  177.1650  146.8880 C   0  0  0  0  0  0  0  0  0  0  0  0
  185.1820  180.1650  143.9200 N   0  0  0  0  0  2  0  0  0  0  0  0
  190.8210  177.2310  145.4400 C   0  0  0  0  0  2  0  0  0  0  0  0
  188.5720  173.9120  142.4140 C   0  0  0  0  0  3  0  0  0  0  0  0
  191.2470  173.9790  141.6270 C   0  0  0  0  0  3  0  0  0  0  0  0
  190.4460  172.8880  141.2840 C   0  0  0  0  0  3  0  0  0  0  0  0
  192.3280  175.7850  143.9860 N   0  0  0  0  0  2  0  0  0  0  0  0
  187.2530  176.0720  145.5030 C   0  0  2  0  0  3  0  0  0  0  0  0
  189.5690  176.6180  145.8650 N   0  0  0  0  0  0  0  0  0  0  0  0
  186.5920  176.9020  144.3870 C   0  0  2  0  0  3  0  0  0  0  0  0
  186.3260  177.2040  147.6440 C   0  0  0  0  0  1  0  0  0  0  0  0
  188.7710  176.1570  143.5530 C   0  0  1  0  0  3  0  0  0  0  0  0
  1 16  1  0  0  0  0
  1  6  1  0  0  0  0
  2  8  2  0  0  0  0
  4 20  1  0  0  0  0
  5 17  1  0  0  0  0
  5 27  1  0  0  0  0
  6 23  1  0  0  0  0
  7  8  2  0  0  0  0
  8 14  1  0  0  0  0
  9 18  2  0  0  0  0
  9 13  1  0  0  0  0
 10  8  1  6  0  0  0
 10 28  1  0  0  0  0
 10 26  1  0  0  0  0
 12 24  1  0  0  0  0
 12 25  1  1  0  0  0
 14  9  1  0  0  0  0
 15 19  1  0  0  0  0
 15 11  2  0  0  0  0
 17  3  2  0  0  0  0
 19 25  1  0  0  0  0
 20 16  2  0  0  0  0
 21  1  2  0  0  0  0
 22 21  1  0  0  0  0
 22  4  2  0  0  0  0
 23 15  1  0  0  0  0
 24  5  1  1  0  0  0
 25 17  1  0  0  0  0
 26 13  1  1  0  0  0
 26 24  1  0  0  0  0
 28 16  1  6  0  0  0
 28 12  1  0  0  0  0
M  END
>  <MODEL>
3

>  <REMARK>
 VINA RESULT:      -8.0      2.078      6.407
  Name = 
  0 active torsions:
  status: ('A' for Active; 'I' for Inactive)
                            x       y       z     vdW  Elec       q    Type
                         _______ _______ _______ _____ _____    ______ ____

>  <TORSDO>
F 0

$$$$
=
 OpenBabel11112417383D

 28 32  0  0  1  0  0  0  0  0999 V2000
  188.5840  175.7590  146.0040 C   0  0  0  0  0  0  0  0  0  0  0  0
  189.2220  172.5030  143.9810 O   0  0  0  0  0  0  0  0  0  0  0  0
  194.7910  175.5040  144.7660 O   0  0  0  0  0  0  0  0  0  0  0  0
  187.0980  177.4260  144.3090 C   0  0  0  0  0  3  0  0  0  0  0  0
  193.4510  176.0220  142.9010 N   0  0  0  0  0  0  0  0  0  0  0  0
  189.3860  174.9490  146.9700 C   0  0  0  0  0  2  0  0  0  0  0  0
  187.9450  173.2320  142.0130 O   0  0  0  0  0  0  0  0  0  0  0  0
  189.3160  173.1230  142.6150 S   0  0  0  0  0  0  0  0  0  0  0  0
  191.6770  172.5000  141.4060 C   0  0  0  0  0  0  0  0  0  0  0  0
  190.0400  174.7630  142.7080 C   0  0  2  0  0  3  0  0  0  0  0  0
  192.3510  176.8950  147.8710 O   0  0  0  0  0  0  0  0  0  0  0  0
  191.3960  176.2260  144.1040 C   0  0  2  0  0  3  0  0  0  0  0  0
  192.2650  173.6480  142.1580 C   0  0  0  0  0  2  0  0  0  0  0  0
  190.3130  172.1420  141.6040 N   0  0  0  0  0  2  0  0  0  0  0  0
  191.6650  176.0000  147.3130 C   0  0  0  0  0  0  0  0  0  0  0  0
  188.9870  175.9300  144.6640 C   0  0  0  0  0  0  0  0  0  0  0  0
  193.6660  175.7810  144.2730 C   0  0  0  0  0  0  0  0  0  0  0  0
  192.4410  171.7460  140.6900 N   0  0  0  0  0  2  0  0  0  0  0  0
  192.2990  175.1250  146.2830 C   0  0  0  0  0  2  0  0  0  0  0  0
  188.2390  176.7800  143.8300 C   0  0  0  0  0  3  0  0  0  0  0  0
  187.4420  176.4150  146.4780 C   0  0  0  0  0  3  0  0  0  0  0  0
  186.6970  177.2410  145.6320 C   0  0  0  0  0  3  0  0  0  0  0  0
  190.2990  175.8210  147.6940 N   0  0  0  0  0  2  0  0  0  0  0  0
  192.0120  176.1480  142.6850 C   0  0  2  0  0  3  0  0  0  0  0  0
  192.4720  175.8440  145.0270 N   0  0  0  0  0  0  0  0  0  0  0  0
  191.3930  174.9090  142.0130 C   0  0  2  0  0  3  0  0  0  0  0  0
  194.4710  176.0410  141.8660 C   0  0  0  0  0  1  0  0  0  0  0  0
  190.2250  175.2500  144.1380 C   0  0  1  0  0  3  0  0  0  0  0  0
  1 21  1  0  0  0  0
  1  6  1  0  0  0  0
  4 22  1  0  0  0  0
  5 17  1  0  0  0  0
  6 23  1  0  0  0  0
  7  8  2  0  0  0  0
  8  2  2  0  0  0  0
  9 14  1  0  0  0  0
  9 13  1  0  0  0  0
 10  8  1  1  0  0  0
 10 28  1  0  0  0  0
 12 28  1  0  0  0  0
 12 25  1  1  0  0  0
 14  8  1  0  0  0  0
 15 23  1  0  0  0  0
 15 11  2  0  0  0  0
 16  1  2  0  0  0  0
 17  3  2  0  0  0  0
 17 25  1  0  0  0  0
 18  9  2  0  0  0  0
 19 15  1  0  0  0  0
 20  4  2  0  0  0  0
 20 16  1  0  0  0  0
 22 21  2  0  0  0  0
 24  5  1  1  0  0  0
 24 12  1  0  0  0  0
 25 19  1  0  0  0  0
 26 13  1  1  0  0  0
 26 24  1  0  0  0  0
 26 10  1  0  0  0  0
 27  5  1  0  0  0  0
 28 16  1  6  0  0  0
M  END
>  <MODEL>
4

>  <REMARK>
 VINA RESULT:      -7.5      3.004      5.531
  Name = 
  0 active torsions:
  status: ('A' for Active; 'I' for Inactive)
                            x       y       z     vdW  Elec       q    Type
                         _______ _______ _______ _____ _____    ______ ____

>  <TORSDO>
F 0

$$$$
=
 OpenBabel11112417383D

 28 32  0  0  1  0  0  0  0  0999 V2000
  187.7520  177.0690  144.5230 C   0  0  0  0  0  0  0  0  0  0  0  0
  188.9420  173.5120  143.5050 O   0  0  0  0  0  0  0  0  0  0  0  0
  193.5770  176.2880  146.8880 O   0  0  0  0  0  0  0  0  0  0  0  0
  187.6220  178.5370  142.1370 C   0  0  0  0  0  3  0  0  0  0  0  0
  193.5110  176.5880  144.5530 N   0  0  0  0  0  0  0  0  0  0  0  0
  187.8080  176.3730  145.8440 C   0  0  0  0  0  2  0  0  0  0  0  0
  189.0100  174.0000  141.0980 O   0  0  0  0  0  0  0  0  0  0  0  0
  189.8250  173.9100  142.3560 S   0  0  0  0  0  0  0  0  0  0  0  0
  192.3640  172.9810  142.6920 C   0  0  0  0  0  0  0  0  0  0  0  0
  190.5930  175.5020  142.6640 C   0  0  2  0  0  3  0  0  0  0  0  0
  190.0640  178.2700  148.0130 O   0  0  0  0  0  0  0  0  0  0  0  0
  191.1770  177.0860  144.4200 C   0  0  2  0  0  3  0  0  0  0  0  0
  192.6060  174.1970  143.5250 C   0  0  0  0  0  2  0  0  0  0  0  0
  191.0710  172.7320  142.1520 N   0  0  0  0  0  2  0  0  0  0  0  0
  189.6700  177.3380  147.2630 C   0  0  0  0  0  0  0  0  0  0  0  0
  188.8230  177.0110  143.6070 C   0  0  0  0  0  0  0  0  0  0  0  0
  192.9320  176.5480  145.8380 C   0  0  0  0  0  0  0  0  0  0  0  0
  193.2880  172.0860  142.5850 N   0  0  0  0  0  2  0  0  0  0  0  0
  190.6350  176.2820  146.8360 C   0  0  0  0  0  2  0  0  0  0  0  0
  188.7490  177.7630  142.4210 C   0  0  0  0  0  3  0  0  0  0  0  0
  186.6280  177.8520  144.2320 C   0  0  0  0  0  3  0  0  0  0  0  0
  186.5600  178.5780  143.0400 C   0  0  0  0  0  3  0  0  0  0  0  0
  188.3010  177.2950  146.8570 N   0  0  0  0  0  2  0  0  0  0  0  0
  192.4360  176.7580  143.5800 C   0  0  2  0  0  3  0  0  0  0  0  0
  191.5400  176.7910  145.8120 N   0  0  0  0  0  0  0  0  0  0  0  0
  192.1150  175.4660  142.8060 C   0  0  2  0  0  3  0  0  0  0  0  0
  194.9170  176.3920  144.2430 C   0  0  0  0  0  1  0  0  0  0  0  0
  190.0520  176.1920  143.9080 C   0  0  1  0  0  3  0  0  0  0  0  0
  1  6  1  0  0  0  0
  4 20  2  0  0  0  0
  4 22  1  0  0  0  0
  5 17  1  0  0  0  0
  6 23  1  0  0  0  0
  7  8  2  0  0  0  0
  8  2  2  0  0  0  0
  9 13  1  0  0  0  0
 10  8  1  1  0  0  0
 10 26  1  0  0  0  0
 10 28  1  0  0  0  0
 12 25  1  1  0  0  0
 14  8  1  0  0  0  0
 14  9  1  0  0  0  0
 15 11  2  0  0  0  0
 16  1  2  0  0  0  0
 17  3  2  0  0  0  0
 18  9  2  0  0  0  0
 19 15  1  0  0  0  0
 20 16  1  0  0  0  0
 21  1  1  0  0  0  0
 22 21  2  0  0  0  0
 23 15  1  0  0  0  0
 24 12  1  0  0  0  0
 24  5  1  1  0  0  0
 25 17  1  0  0  0  0
 25 19  1  0  0  0  0
 26 13  1  1  0  0  0
 26 24  1  0  0  0  0
 27  5  1  0  0  0  0
 28 16  1  6  0  0  0
 28 12  1  0  0  0  0
M  END
>  <MODEL>
5

>  <REMARK>
 VINA RESULT:      -7.5      2.747      5.265
  Name = 
  0 active torsions:
  status: ('A' for Active; 'I' for Inactive)
                            x       y       z     vdW  Elec       q    Type
                         _______ _______ _______ _____ _____    ______ ____

>  <TORSDO>
F 0

$$$$
=
 OpenBabel11112417383D

 28 32  0  0  1  0  0  0  0  0999 V2000
  188.8830  176.6090  145.3560 C   0  0  0  0  0  0  0  0  0  0  0  0
  192.3840  176.7970  143.6800 O   0  0  0  0  0  0  0  0  0  0  0  0
  188.1910  174.7260  139.3480 O   0  0  0  0  0  0  0  0  0  0  0  0
  189.0540  174.5410  147.2410 C   0  0  0  0  0  3  0  0  0  0  0  0
  189.2880  173.1690  140.7320 N   0  0  0  0  0  0  0  0  0  0  0  0
  188.6920  177.7140  144.3680 C   0  0  0  0  0  2  0  0  0  0  0  0
  193.3700  175.0240  145.0670 O   0  0  0  0  0  0  0  0  0  0  0  0
  192.7240  175.3340  143.7470 S   0  0  0  0  0  0  0  0  0  0  0  0
  193.3030  174.3390  141.2770 C   0  0  0  0  0  0  0  0  0  0  0  0
  191.2480  174.3280  143.5730 C   0  0  2  0  0  3  0  0  0  0  0  0
  185.9050  176.7910  142.1830 O   0  0  0  0  0  0  0  0  0  0  0  0
  188.9460  174.3520  142.7790 C   0  0  2  0  0  3  0  0  0  0  0  0
  191.8310  174.1660  141.0980 C   0  0  0  0  0  2  0  0  0  0  0  0
  193.8110  174.9360  142.4660 N   0  0  0  0  0  2  0  0  0  0  0  0
  187.0960  176.9860  142.5410 C   0  0  0  0  0  0  0  0  0  0  0  0
  189.4630  175.3770  144.9910 C   0  0  0  0  0  0  0  0  0  0  0  0
  188.5790  174.3620  140.4900 C   0  0  0  0  0  0  0  0  0  0  0  0
  194.1020  174.0810  140.2970 N   0  0  0  0  0  2  0  0  0  0  0  0
  188.2100  176.5730  141.6380 C   0  0  0  0  0  2  0  0  0  0  0  0
  189.5290  174.3450  145.9430 C   0  0  0  0  0  3  0  0  0  0  0  0
  188.4040  176.7950  146.6590 C   0  0  0  0  0  3  0  0  0  0  0  0
  188.4950  175.7670  147.6000 C   0  0  0  0  0  3  0  0  0  0  0  0
  187.3580  177.6250  143.7920 N   0  0  0  0  0  2  0  0  0  0  0  0
  189.7040  173.1670  142.1310 C   0  0  2  0  0  3  0  0  0  0  0  0
  188.3880  175.1260  141.6630 N   0  0  0  0  0  0  0  0  0  0  0  0
  191.2040  173.4620  142.3140 C   0  0  2  0  0  3  0  0  0  0  0  0
  189.6350  172.1640  139.7400 C   0  0  0  0  0  1  0  0  0  0  0  0
  189.9660  175.1470  143.5890 C   0  0  1  0  0  3  0  0  0  0  0  0
  1 21  1  0  0  0  0
  2  8  2  0  0  0  0
  3 17  2  0  0  0  0
  4 22  1  0  0  0  0
  6  1  1  0  0  0  0
  8  7  2  0  0  0  0
  9 14  1  0  0  0  0
 10 28  1  0  0  0  0
 10  8  1  6  0  0  0
 11 15  2  0  0  0  0
 12 25  1  6  0  0  0
 12 28  1  0  0  0  0
 13  9  1  0  0  0  0
 14  8  1  0  0  0  0
 15 23  1  0  0  0  0
 16  1  2  0  0  0  0
 16 20  1  0  0  0  0
 17  5  1  0  0  0  0
 17 25  1  0  0  0  0
 18  9  2  0  0  0  0
 19 25  1  0  0  0  0
 19 15  1  0  0  0  0
 20  4  2  0  0  0  0
 21 22  2  0  0  0  0
 23  6  1  0  0  0  0
 24  5  1  6  0  0  0
 24 26  1  0  0  0  0
 24 12  1  0  0  0  0
 26 13  1  6  0  0  0
 26 10  1  0  0  0  0
 27  5  1  0  0  0  0
 28 16  1  1  0  0  0
M  END
>  <MODEL>
6

>  <REMARK>
 VINA RESULT:      -7.4      2.218      2.877
  Name = 
  0 active torsions:
  status: ('A' for Active; 'I' for Inactive)
                            x       y       z     vdW  Elec       q    Type
                         _______ _______ _______ _____ _____    ______ ____

>  <TORSDO>
F 0

$$$$
=
 OpenBabel11112417383D

 28 32  0  0  1  0  0  0  0  0999 V2000
  189.1250  176.0910  144.6340 C   0  0  0  0  0  0  0  0  0  0  0  0
  192.8550  177.1810  144.6380 O   0  0  0  0  0  0  0  0  0  0  0  0
  192.3190  171.8690  141.1560 O   0  0  0  0  0  0  0  0  0  0  0  0
  188.5670  175.2910  147.2630 C   0  0  0  0  0  3  0  0  0  0  0  0
  192.6960  171.6990  143.4740 N   0  0  0  0  0  0  0  0  0  0  0  0
  189.3340  176.4800  143.2070 C   0  0  0  0  0  2  0  0  0  0  0  0
  193.1800  176.7910  147.0420 O   0  0  0  0  0  0  0  0  0  0  0  0
  193.3550  176.2070  145.6690 S   0  0  0  0  0  0  0  0  0  0  0  0
  195.4010  174.6960  144.6940 C   0  0  0  0  0  0  0  0  0  0  0  0
  192.4480  174.6610  145.5770 C   0  0  2  0  0  3  0  0  0  0  0  0
  188.5010  173.5860  141.1270 O   0  0  0  0  0  0  0  0  0  0  0  0
  191.0450  173.2990  144.1250 C   0  0  2  0  0  3  0  0  0  0  0  0
  194.3510  173.8070  144.1120 C   0  0  0  0  0  2  0  0  0  0  0  0
  195.0260  175.8800  145.3910 N   0  0  0  0  0  2  0  0  0  0  0  0
  189.2190  174.4340  141.7180 C   0  0  0  0  0  0  0  0  0  0  0  0
  190.0210  175.2370  145.3100 C   0  0  0  0  0  0  0  0  0  0  0  0
  192.0480  172.2180  142.3350 C   0  0  0  0  0  0  0  0  0  0  0  0
  196.6450  174.4670  144.4410 N   0  0  0  0  0  2  0  0  0  0  0  0
  190.7010  174.2580  141.7300 C   0  0  0  0  0  2  0  0  0  0  0  0
  189.7200  174.8340  146.6230 C   0  0  0  0  0  3  0  0  0  0  0  0
  187.9680  176.5410  145.2820 C   0  0  0  0  0  3  0  0  0  0  0  0
  187.6930  176.1470  146.5940 C   0  0  0  0  0  3  0  0  0  0  0  0
  188.6050  175.5630  142.3430 N   0  0  0  0  0  2  0  0  0  0  0  0
  192.2360  172.4510  144.6380 C   0  0  2  0  0  3  0  0  0  0  0  0
  191.0910  173.2060  142.6610 N   0  0  0  0  0  0  0  0  0  0  0  0
  193.2840  173.4500  145.1620 C   0  0  2  0  0  3  0  0  0  0  0  0
  193.7180  170.6650  143.4790 C   0  0  0  0  0  1  0  0  0  0  0  0
  191.2620  174.7240  144.6260 C   0  0  1  0  0  3  0  0  0  0  0  0
  1 21  2  0  0  0  0
  1 16  1  0  0  0  0
  2  8  2  0  0  0  0
  3 17  2  0  0  0  0
  5 27  1  0  0  0  0
  6  1  1  0  0  0  0
  8  7  2  0  0  0  0
  9 14  1  0  0  0  0
 10  8  1  6  0  0  0
 11 15  2  0  0  0  0
 12 25  1  6  0  0  0
 12 28  1  0  0  0  0
 12 24  1  0  0  0  0
 13  9  1  0  0  0  0
 14  8  1  0  0  0  0
 15 19  1  0  0  0  0
 15 23  1  0  0  0  0
 16 20  2  0  0  0  0
 17 25  1  0  0  0  0
 17  5  1  0  0  0  0
 18  9  2  0  0  0  0
 19 25  1  0  0  0  0
 20  4  1  0  0  0  0
 21 22  1  0  0  0  0
 22  4  2  0  0  0  0
 23  6  1  0  0  0  0
 24  5  1  6  0  0  0
 24 26  1  0  0  0  0
 26 13  1  6  0  0  0
 26 10  1  0  0  0  0
 28 16  1  1  0  0  0
 28 10  1  0  0  0  0
M  END
>  <MODEL>
7

>  <REMARK>
 VINA RESULT:      -7.3      2.855      4.267
  Name = 
  0 active torsions:
  status: ('A' for Active; 'I' for Inactive)
                            x       y       z     vdW  Elec       q    Type
                         _______ _______ _______ _____ _____    ______ ____

>  <TORSDO>
F 0

$$$$
=
 OpenBabel11112417383D

 28 32  0  0  1  0  0  0  0  0999 V2000
  186.9080  176.7930  143.4830 C   0  0  0  0  0  0  0  0  0  0  0  0
  188.5850  173.3040  143.1380 O   0  0  0  0  0  0  0  0  0  0  0  0
  191.0360  176.2140  148.2530 O   0  0  0  0  0  0  0  0  0  0  0  0
  187.8180  178.2910  141.2940 C   0  0  0  0  0  3  0  0  0  0  0  0
  192.0300  176.5490  146.1450 N   0  0  0  0  0  0  0  0  0  0  0  0
  186.3840  176.0790  144.6860 C   0  0  0  0  0  2  0  0  0  0  0  0
  189.7250  173.8330  141.0260 O   0  0  0  0  0  0  0  0  0  0  0  0
  189.8780  173.7560  142.5180 S   0  0  0  0  0  0  0  0  0  0  0  0
  192.0210  172.9270  143.9830 C   0  0  0  0  0  0  0  0  0  0  0  0
  190.3490  175.3740  143.1360 C   0  0  2  0  0  3  0  0  0  0  0  0
  187.3140  178.0320  147.6380 O   0  0  0  0  0  0  0  0  0  0  0  0
  189.9960  176.9520  144.9570 C   0  0  2  0  0  3  0  0  0  0  0  0
  191.8010  174.1390  144.8280 C   0  0  0  0  0  2  0  0  0  0  0  0
  191.1300  172.6340  142.9120 N   0  0  0  0  0  2  0  0  0  0  0  0
  187.3470  177.0970  146.7950 C   0  0  0  0  0  0  0  0  0  0  0  0
  188.2800  176.7930  143.1580 C   0  0  0  0  0  0  0  0  0  0  0  0
  190.9310  176.4650  147.0230 C   0  0  0  0  0  0  0  0  0  0  0  0
  192.9290  172.0730  144.3140 N   0  0  0  0  0  2  0  0  0  0  0  0
  188.4460  176.0890  146.8620 C   0  0  0  0  0  2  0  0  0  0  0  0
  188.7230  177.5600  142.0660 C   0  0  0  0  0  3  0  0  0  0  0  0
  186.0080  177.5330  142.7060 C   0  0  0  0  0  3  0  0  0  0  0  0
  186.4600  178.2740  141.6120 C   0  0  0  0  0  3  0  0  0  0  0  0
  186.3180  177.0030  145.8080 N   0  0  0  0  0  2  0  0  0  0  0  0
  191.5140  176.6900  144.7870 C   0  0  2  0  0  3  0  0  0  0  0  0
  189.6960  176.6500  146.3620 N   0  0  0  0  0  0  0  0  0  0  0  0
  191.6380  175.3980  143.9580 C   0  0  2  0  0  3  0  0  0  0  0  0
  193.4300  176.4160  146.5130 C   0  0  0  0  0  1  0  0  0  0  0  0
  189.2700  176.0210  143.9920 C   0  0  1  0  0  3  0  0  0  0  0  0
  1  6  1  0  0  0  0
  4 22  2  0  0  0  0
  4 20  1  0  0  0  0
  5 27  1  0  0  0  0
  5 17  1  0  0  0  0
  6 23  1  0  0  0  0
  7  8  2  0  0  0  0
  8 14  1  0  0  0  0
  8  2  2  0  0  0  0
  9 18  2  0  0  0  0
  9 13  1  0  0  0  0
 10  8  1  1  0  0  0
 10 26  1  0  0  0  0
 10 28  1  0  0  0  0
 12 25  1  1  0  0  0
 14  9  1  0  0  0  0
 15 19  1  0  0  0  0
 15 11  2  0  0  0  0
 16  1  1  0  0  0  0
 17  3  2  0  0  0  0
 20 16  2  0  0  0  0
 21  1  2  0  0  0  0
 22 21  1  0  0  0  0
 23 15  1  0  0  0  0
 24 12  1  0  0  0  0
 24  5  1  1  0  0  0
 25 19  1  0  0  0  0
 25 17  1  0  0  0  0
 26 24  1  0  0  0  0
 26 13  1  1  0  0  0
 28 16  1  6  0  0  0
 28 12  1  0  0  0  0
M  END
>  <MODEL>
8

>  <REMARK>
 VINA RESULT:      -7.3      2.735      5.042
  Name = 
  0 active torsions:
  status: ('A' for Active; 'I' for Inactive)
                            x       y       z     vdW  Elec       q    Type
                         _______ _______ _______ _____ _____    ______ ____

>  <TORSDO>
F 0

$$$$
=
 OpenBabel11112417383D

 28 32  0  0  1  0  0  0  0  0999 V2000
  188.5430  177.1050  144.4000 C   0  0  0  0  0  0  0  0  0  0  0  0
  192.3850  177.2860  144.9530 O   0  0  0  0  0  0  0  0  0  0  0  0
  191.1330  172.3080  141.1740 O   0  0  0  0  0  0  0  0  0  0  0  0
  187.4500  176.4160  146.8880 C   0  0  0  0  0  3  0  0  0  0  0  0
  191.1300  172.0160  143.5100 N   0  0  0  0  0  0  0  0  0  0  0  0
  189.0340  177.4580  143.0330 C   0  0  0  0  0  2  0  0  0  0  0  0
  192.2690  176.7910  147.3560 O   0  0  0  0  0  0  0  0  0  0  0  0
  192.4960  176.2060  145.9920 S   0  0  0  0  0  0  0  0  0  0  0  0
  194.2540  174.2710  145.2240 C   0  0  0  0  0  0  0  0  0  0  0  0
  191.2800  174.9180  145.7040 C   0  0  2  0  0  3  0  0  0  0  0  0
  187.8570  174.8760  140.7220 O   0  0  0  0  0  0  0  0  0  0  0  0
  189.8190  173.9490  144.0140 C   0  0  2  0  0  3  0  0  0  0  0  0
  193.1210  173.6650  144.4650 C   0  0  0  0  0  2  0  0  0  0  0  0
  194.0690  175.4980  145.9220 N   0  0  0  0  0  2  0  0  0  0  0  0
  188.6610  175.5210  141.4430 C   0  0  0  0  0  0  0  0  0  0  0  0
  189.1130  176.0530  145.1460 C   0  0  0  0  0  0  0  0  0  0  0  0
  190.7860  172.6920  142.3220 C   0  0  0  0  0  0  0  0  0  0  0  0
  195.4350  173.7600  145.1280 N   0  0  0  0  0  2  0  0  0  0  0  0
  190.0460  175.0010  141.6440 C   0  0  0  0  0  2  0  0  0  0  0  0
  188.5460  175.7100  146.3860 C   0  0  0  0  0  3  0  0  0  0  0  0
  187.4410  177.8040  144.9090 C   0  0  0  0  0  3  0  0  0  0  0  0
  186.9010  177.4650  146.1520 C   0  0  0  0  0  3  0  0  0  0  0  0
  188.2420  176.7520  142.0360 N   0  0  0  0  0  2  0  0  0  0  0  0
  190.6970  172.8360  144.6380 C   0  0  2  0  0  3  0  0  0  0  0  0
  190.0470  173.8720  142.5660 N   0  0  0  0  0  0  0  0  0  0  0  0
  191.8630  173.5510  145.3450 C   0  0  2  0  0  3  0  0  0  0  0  0
  191.8740  170.7700  143.6010 C   0  0  0  0  0  1  0  0  0  0  0  0
  190.2860  175.2740  144.6080 C   0  0  1  0  0  3  0  0  0  0  0  0
  1 21  2  0  0  0  0
  1 16  1  0  0  0  0
  2  8  2  0  0  0  0
  3 17  2  0  0  0  0
  5 27  1  0  0  0  0
  6  1  1  0  0  0  0
  8  7  2  0  0  0  0
  9 14  1  0  0  0  0
 10  8  1  6  0  0  0
 11 15  2  0  0  0  0
 12 25  1  6  0  0  0
 12 28  1  0  0  0  0
 12 24  1  0  0  0  0
 13  9  1  0  0  0  0
 14  8  1  0  0  0  0
 15 19  1  0  0  0  0
 15 23  1  0  0  0  0
 16 20  2  0  0  0  0
 17 25  1  0  0  0  0
 17  5  1  0  0  0  0
 18  9  2  0  0  0  0
 19 25  1  0  0  0  0
 20  4  1  0  0  0  0
 21 22  1  0  0  0  0
 22  4  2  0  0  0  0
 23  6  1  0  0  0  0
 24  5  1  6  0  0  0
 24 26  1  0  0  0  0
 26 13  1  6  0  0  0
 26 10  1  0  0  0  0
 28 16  1  1  0  0  0
 28 10  1  0  0  0  0
M  END
>  <MODEL>
9

>  <REMARK>
 VINA RESULT:      -7.2      2.315      3.192
  Name = 
  0 active torsions:
  status: ('A' for Active; 'I' for Inactive)
                            x       y       z     vdW  Elec       q    Type
                         _______ _______ _______ _____ _____    ______ ____

>  <TORSDO>
F 0

$$$$
