=
 OpenBabel11112416523D

 31 36  0  0  1  0  0  0  0  0999 V2000
  185.4110  178.2900  147.3820 C   0  0  0  0  0  0  0  0  0  0  0  0
  187.7860  175.7350  145.8810 C   0  0  2  0  0  3  0  0  0  0  0  0
  187.7620  175.9560  144.3370 C   0  0  1  0  0  3  0  0  0  0  0  0
  187.3710  177.4380  142.3590 C   0  0  1  0  0  3  0  0  0  0  0  0
  187.2750  176.9070  146.6780 C   0  0  0  0  0  0  0  0  0  0  0  0
  186.2960  179.1570  148.0270 C   0  0  0  0  0  3  0  0  0  0  0  0
  187.5870  177.4070  143.8720 C   0  0  0  0  0  2  0  0  0  0  0  0
  190.1340  176.4250  146.4350 C   0  0  2  0  0  3  0  0  0  0  0  0
  184.0800  178.5390  147.4050 F   0  0  0  0  0  0  0  0  0  0  0  0
  189.2560  173.9620  144.1580 C   0  0  0  0  0  2  0  0  0  0  0  0
  187.2470  178.7580  141.9340 O   0  0  0  0  0  1  0  0  0  0  0  0
  189.6440  177.4970  147.4160 C   0  0  0  0  0  2  0  0  0  0  0  0
  189.1470  175.2450  146.4150 C   0  0  2  0  0  3  0  0  0  0  0  0
  185.9000  177.1690  146.7070 C   0  0  0  0  0  3  0  0  0  0  0  0
  188.5390  176.7730  141.6280 C   0  0  0  0  0  2  0  0  0  0  0  0
  188.1700  177.7890  147.3240 C   0  0  0  0  0  0  0  0  0  0  0  0
  187.6690  178.9040  148.0030 C   0  0  0  0  0  3  0  0  0  0  0  0
  189.6640  174.0180  145.6360 C   0  0  0  0  0  2  0  0  0  0  0  0
  188.9800  175.3550  143.6260 C   0  0  1  0  0  3  0  0  0  0  0  0
  188.7430  175.3410  142.1220 C   0  0  0  0  0  2  0  0  0  0  0  0
  192.4150  177.0840  146.5560 O   0  0  0  0  0  0  0  0  0  0  0  0
  192.4470  175.9970  145.6640 C   0  0  2  0  0  3  0  0  0  0  0  0
  191.5460  176.0140  146.8400 C   0  0  2  0  0  3  0  0  0  0  0  0
  195.4490  175.7090  143.7850 C   0  0  1  0  0  3  0  0  0  0  0  0
  194.9310  176.1430  145.9570 C   0  0  0  0  0  2  0  0  0  0  0  0
  192.8770  173.3670  144.8040 O   0  0  0  0  0  1  0  0  0  0  0  0
  195.7790  176.3150  142.4380 C   0  0  0  0  0  1  0  0  0  0  0  0
  195.1090  176.7360  144.6890 O   0  0  0  0  0  0  0  0  0  0  0  0
  193.9810  174.1410  144.9350 N   0  0  0  0  0  0  0  0  0  0  0  0
  193.7260  175.1940  145.9350 C   0  0  2  0  0  3  0  0  0  0  0  0
  194.2780  174.7360  143.6310 C   0  0  0  0  0  2  0  0  0  0  0  0
  1  9  1  0  0  0  0
  1  6  1  0  0  0  0
  2 13  1  0  0  0  0
  2  5  1  1  0  0  0
  3  7  1  1  0  0  0
  3  2  1  0  0  0  0
  4 11  1  6  0  0  0
  4  7  1  0  0  0  0
  5 14  1  0  0  0  0
  5 16  2  0  0  0  0
  8 23  1  0  0  0  0
  8 12  1  1  0  0  0
 10 18  1  0  0  0  0
 13 18  1  6  0  0  0
 13  8  1  0  0  0  0
 14  1  2  0  0  0  0
 15 20  1  0  0  0  0
 15  4  1  0  0  0  0
 16 12  1  0  0  0  0
 16 17  1  0  0  0  0
 17  6  2  0  0  0  0
 19 20  1  6  0  0  0
 19 10  1  0  0  0  0
 19  3  1  0  0  0  0
 22 30  1  0  0  0  0
 22 21  1  1  0  0  0
 22 23  1  0  0  0  0
 23 21  1  1  0  0  0
 24 27  1  6  0  0  0
 24 28  1  0  0  0  0
 26 29  1  0  0  0  0
 28 25  1  0  0  0  0
 29 30  1  0  0  0  0
 30 25  1  6  0  0  0
 31 24  1  0  0  0  0
 31 29  1  0  0  0  0
M  END
>  <MODEL>
1

>  <REMARK>
 VINA RESULT:      -8.0      0.000      0.000
  Name = 
  2 active torsions:
  status: ('A' for Active; 'I' for Inactive)
    1  A    between atoms: C_5  and  C_30
    2  A    between atoms: C_10  and  C_16
                            x       y       z     vdW  Elec       q    Type
                         _______ _______ _______ _____ _____    ______ ____

>  <TORSDO>
F 2

$$$$
=
 OpenBabel11112416523D

 31 36  0  0  1  0  0  0  0  0999 V2000
  185.6240  177.5620  142.4210 C   0  0  0  0  0  0  0  0  0  0  0  0
  188.1110  175.1520  143.9790 C   0  0  2  0  0  3  0  0  0  0  0  0
  188.5370  174.1610  142.8530 C   0  0  1  0  0  3  0  0  0  0  0  0
  188.8360  173.6250  140.4270 C   0  0  1  0  0  3  0  0  0  0  0  0
  187.4930  176.4300  143.4730 C   0  0  0  0  0  0  0  0  0  0  0  0
  186.3580  178.7500  142.3880 C   0  0  0  0  0  3  0  0  0  0  0  0
  188.6160  174.7500  141.4390 C   0  0  0  0  0  2  0  0  0  0  0  0
  190.2560  176.3880  144.3790 C   0  0  2  0  0  3  0  0  0  0  0  0
  184.3640  177.5320  141.9250 F   0  0  0  0  0  0  0  0  0  0  0  0
  189.8560  172.9520  144.5950 C   0  0  0  0  0  2  0  0  0  0  0  0
  188.9420  174.1660  139.1470 O   0  0  0  0  0  1  0  0  0  0  0  0
  189.6000  177.7380  144.0660 C   0  0  0  0  0  2  0  0  0  0  0  0
  189.2230  175.4370  145.0070 C   0  0  2  0  0  3  0  0  0  0  0  0
  186.1900  176.4050  142.9600 C   0  0  0  0  0  3  0  0  0  0  0  0
  190.1040  172.8360  140.7560 C   0  0  0  0  0  2  0  0  0  0  0  0
  188.2390  177.6290  143.4320 C   0  0  0  0  0  0  0  0  0  0  0  0
  187.6590  178.7830  142.8970 C   0  0  0  0  0  3  0  0  0  0  0  0
  189.8370  174.1380  145.5680 C   0  0  0  0  0  2  0  0  0  0  0  0
  189.8530  173.4360  143.1580 C   0  0  1  0  0  3  0  0  0  0  0  0
  190.0460  172.2850  142.1810 C   0  0  0  0  0  2  0  0  0  0  0  0
  192.3370  177.5150  144.6120 O   0  0  0  0  0  0  0  0  0  0  0  0
  192.7070  176.1580  144.6400 C   0  0  2  0  0  3  0  0  0  0  0  0
  191.4610  176.6400  145.2810 C   0  0  2  0  0  3  0  0  0  0  0  0
  196.1740  175.5460  144.1610 C   0  0  1  0  0  3  0  0  0  0  0  0
  194.9410  177.0280  145.3670 C   0  0  0  0  0  2  0  0  0  0  0  0
  193.4880  173.7140  145.7630 O   0  0  0  0  0  1  0  0  0  0  0  0
  196.9190  175.3070  142.8650 C   0  0  0  0  0  1  0  0  0  0  0  0
  195.5170  176.7910  144.1010 O   0  0  0  0  0  0  0  0  0  0  0  0
  194.4570  174.6530  145.6410 N   0  0  0  0  0  0  0  0  0  0  0  0
  193.8460  175.9940  145.6550 C   0  0  2  0  0  3  0  0  0  0  0  0
  195.1560  174.4240  144.3750 C   0  0  0  0  0  2  0  0  0  0  0  0
  1 14  1  0  0  0  0
  2  5  1  6  0  0  0
  2 13  1  0  0  0  0
  3  7  1  6  0  0  0
  3 19  1  0  0  0  0
  3  2  1  0  0  0  0
  4 11  1  6  0  0  0
  4 15  1  0  0  0  0
  4  7  1  0  0  0  0
  6  1  2  0  0  0  0
  6 17  1  0  0  0  0
  8 12  1  1  0  0  0
  8 13  1  0  0  0  0
  8 23  1  0  0  0  0
  9  1  1  0  0  0  0
 10 18  1  0  0  0  0
 13 18  1  6  0  0  0
 14  5  2  0  0  0  0
 15 20  1  0  0  0  0
 16  5  1  0  0  0  0
 16 12  1  0  0  0  0
 17 16  2  0  0  0  0
 19 20  1  6  0  0  0
 19 10  1  0  0  0  0
 22 21  1  6  0  0  0
 22 23  1  0  0  0  0
 22 30  1  0  0  0  0
 23 21  1  6  0  0  0
 24 27  1  6  0  0  0
 24 31  1  0  0  0  0
 28 24  1  0  0  0  0
 28 25  1  0  0  0  0
 29 30  1  0  0  0  0
 29 26  1  0  0  0  0
 30 25  1  6  0  0  0
 31 29  1  0  0  0  0
M  END
>  <MODEL>
2

>  <REMARK>
 VINA RESULT:      -7.9      2.621      3.121
  Name = 
  2 active torsions:
  status: ('A' for Active; 'I' for Inactive)
    1  A    between atoms: C_5  and  C_30
    2  A    between atoms: C_10  and  C_16
                            x       y       z     vdW  Elec       q    Type
                         _______ _______ _______ _____ _____    ______ ____

>  <TORSDO>
F 2

$$$$
=
 OpenBabel11112416523D

 31 36  0  0  1  0  0  0  0  0999 V2000
  185.9510  178.1050  146.9420 C   0  0  0  0  0  0  0  0  0  0  0  0
  189.0240  177.8900  144.7210 C   0  0  2  0  0  3  0  0  0  0  0  0
  190.1710  177.3080  145.6020 C   0  0  1  0  0  3  0  0  0  0  0  0
  190.9330  175.9630  147.5690 C   0  0  1  0  0  3  0  0  0  0  0  0
  187.6420  177.6400  145.2660 C   0  0  0  0  0  0  0  0  0  0  0  0
  185.1380  177.1050  146.4030 C   0  0  0  0  0  3  0  0  0  0  0  0
  189.7480  176.2790  146.6570 C   0  0  0  0  0  2  0  0  0  0  0  0
  188.6760  176.0270  143.0780 C   0  0  2  0  0  3  0  0  0  0  0  0
  185.5310  178.8130  148.0170 F   0  0  0  0  0  0  0  0  0  0  0  0
  191.6800  177.6630  143.6430 C   0  0  0  0  0  2  0  0  0  0  0  0
  190.5550  175.0030  148.5050 O   0  0  0  0  0  1  0  0  0  0  0  0
  187.2000  175.8850  143.4700 C   0  0  0  0  0  2  0  0  0  0  0  0
  189.1200  177.4910  143.2350 C   0  0  2  0  0  3  0  0  0  0  0  0
  187.2010  178.3700  146.3770 C   0  0  0  0  0  3  0  0  0  0  0  0
  192.1240  175.4480  146.7590 C   0  0  0  0  0  2  0  0  0  0  0  0
  186.8230  176.6240  144.7260 C   0  0  0  0  0  0  0  0  0  0  0  0
  185.5700  176.3720  145.2950 C   0  0  0  0  0  3  0  0  0  0  0  0
  190.5170  177.7820  142.6490 C   0  0  0  0  0  2  0  0  0  0  0  0
  191.3230  176.7210  144.7760 C   0  0  1  0  0  3  0  0  0  0  0  0
  192.5190  176.4530  145.6780 C   0  0  0  0  0  2  0  0  0  0  0  0
  188.1330  174.2940  141.5440 O   0  0  0  0  0  0  0  0  0  0  0  0
  189.5300  174.1870  141.6600 C   0  0  2  0  0  3  0  0  0  0  0  0
  188.8460  175.5010  141.6560 C   0  0  2  0  0  3  0  0  0  0  0  0
  190.9800  171.1790  140.4450 C   0  0  1  0  0  3  0  0  0  0  0  0
  189.3650  172.6080  139.7220 C   0  0  0  0  0  2  0  0  0  0  0  0
  192.2010  174.5610  140.9030 O   0  0  0  0  0  1  0  0  0  0  0  0
  191.2640  169.8980  141.1990 C   0  0  0  0  0  1  0  0  0  0  0  0
  189.6070  171.4820  140.5370 O   0  0  0  0  0  0  0  0  0  0  0  0
  191.5440  173.5440  140.2940 N   0  0  0  0  0  0  0  0  0  0  0  0
  190.0990  173.8340  140.2780 C   0  0  2  0  0  3  0  0  0  0  0  0
  191.8100  172.3160  141.0450 C   0  0  0  0  0  2  0  0  0  0  0  0
  1  9  1  0  0  0  0
  2  5  1  1  0  0  0
  2  3  1  0  0  0  0
  3  7  1  1  0  0  0
  4 11  1  1  0  0  0
  5 14  1  0  0  0  0
  6  1  1  0  0  0  0
  7  4  1  0  0  0  0
  8 13  1  0  0  0  0
  8 12  1  6  0  0  0
 12 16  1  0  0  0  0
 13 18  1  1  0  0  0
 13  2  1  0  0  0  0
 14  1  2  0  0  0  0
 15  4  1  0  0  0  0
 16  5  2  0  0  0  0
 16 17  1  0  0  0  0
 17  6  2  0  0  0  0
 18 10  1  0  0  0  0
 19 10  1  6  0  0  0
 19  3  1  0  0  0  0
 19 20  1  0  0  0  0
 20 15  1  0  0  0  0
 22 21  1  6  0  0  0
 23 21  1  1  0  0  0
 23 22  1  0  0  0  0
 23  8  1  0  0  0  0
 24 28  1  0  0  0  0
 24 31  1  0  0  0  0
 24 27  1  1  0  0  0
 25 28  1  0  0  0  0
 29 26  1  0  0  0  0
 29 31  1  0  0  0  0
 30 25  1  1  0  0  0
 30 29  1  0  0  0  0
 30 22  1  0  0  0  0
M  END
>  <MODEL>
3

>  <REMARK>
 VINA RESULT:      -7.6      2.812      5.256
  Name = 
  2 active torsions:
  status: ('A' for Active; 'I' for Inactive)
    1  A    between atoms: C_5  and  C_30
    2  A    between atoms: C_10  and  C_16
                            x       y       z     vdW  Elec       q    Type
                         _______ _______ _______ _____ _____    ______ ____

>  <TORSDO>
F 2

$$$$
=
 OpenBabel11112416523D

 31 36  0  0  1  0  0  0  0  0999 V2000
  196.7750  170.7990  145.7550 C   0  0  0  0  0  0  0  0  0  0  0  0
  195.8130  174.4620  145.4730 C   0  0  2  0  0  3  0  0  0  0  0  0
  196.2120  174.9190  144.0360 C   0  0  1  0  0  3  0  0  0  0  0  0
  196.6900  174.3840  141.6390 C   0  0  1  0  0  3  0  0  0  0  0  0
  195.6970  172.9690  145.6340 C   0  0  0  0  0  0  0  0  0  0  0  0
  195.5250  170.1770  145.7850 C   0  0  0  0  0  3  0  0  0  0  0  0
  196.0690  173.8620  142.9340 C   0  0  0  0  0  2  0  0  0  0  0  0
  193.3120  174.6100  145.3540 C   0  0  2  0  0  3  0  0  0  0  0  0
  197.9040  170.0530  145.7950 F   0  0  0  0  0  0  0  0  0  0  0  0
  195.5030  177.2170  144.7100 C   0  0  0  0  0  2  0  0  0  0  0  0
  196.5280  173.4360  140.6310 O   0  0  0  0  0  1  0  0  0  0  0  0
  193.1530  173.1290  145.7200 C   0  0  0  0  0  2  0  0  0  0  0  0
  194.5690  175.1840  146.0290 C   0  0  2  0  0  3  0  0  0  0  0  0
  196.8610  172.1910  145.6770 C   0  0  0  0  0  3  0  0  0  0  0  0
  196.0370  175.7000  141.2130 C   0  0  0  0  0  2  0  0  0  0  0  0
  194.4330  172.3390  145.6560 C   0  0  0  0  0  0  0  0  0  0  0  0
  194.3590  170.9450  145.7420 C   0  0  0  0  0  3  0  0  0  0  0  0
  194.6910  176.7170  145.9110 C   0  0  0  0  0  2  0  0  0  0  0  0
  195.4890  176.1960  143.5900 C   0  0  1  0  0  3  0  0  0  0  0  0
  196.1400  176.7420  142.3270 C   0  0  0  0  0  2  0  0  0  0  0  0
  190.9350  174.5550  145.3620 O   0  0  0  0  0  0  0  0  0  0  0  0
  191.2230  175.6750  144.5610 C   0  0  2  0  0  3  0  0  0  0  0  0
  192.0340  175.3410  145.7550 C   0  0  2  0  0  3  0  0  0  0  0  0
  188.3840  176.7440  142.7110 C   0  0  1  0  0  3  0  0  0  0  0  0
  188.7790  176.1350  144.8660 C   0  0  0  0  0  2  0  0  0  0  0  0
  191.4520  178.3540  143.7770 O   0  0  0  0  0  1  0  0  0  0  0  0
  187.9150  176.2780  141.3500 C   0  0  0  0  0  1  0  0  0  0  0  0
  188.4610  175.6410  143.5840 O   0  0  0  0  0  0  0  0  0  0  0  0
  190.1910  177.8710  143.8940 N   0  0  0  0  0  0  0  0  0  0  0  0
  190.1800  176.7600  144.8620 C   0  0  2  0  0  3  0  0  0  0  0  0
  189.7580  177.4040  142.5760 C   0  0  0  0  0  2  0  0  0  0  0  0
  1  6  1  0  0  0  0
  1  9  1  0  0  0  0
  2  5  1  6  0  0  0
  2 13  1  0  0  0  0
  3  7  1  6  0  0  0
  3  2  1  0  0  0  0
  4 11  1  6  0  0  0
  4  7  1  0  0  0  0
  5 16  2  0  0  0  0
  5 14  1  0  0  0  0
  8 12  1  1  0  0  0
  8 23  1  0  0  0  0
  8 13  1  0  0  0  0
 10 18  1  0  0  0  0
 13 18  1  6  0  0  0
 14  1  2  0  0  0  0
 15  4  1  0  0  0  0
 15 20  1  0  0  0  0
 16 12  1  0  0  0  0
 16 17  1  0  0  0  0
 17  6  2  0  0  0  0
 19 20  1  6  0  0  0
 19  3  1  0  0  0  0
 19 10  1  0  0  0  0
 22 30  1  0  0  0  0
 22 21  1  1  0  0  0
 22 23  1  0  0  0  0
 23 21  1  1  0  0  0
 24 27  1  6  0  0  0
 24 28  1  0  0  0  0
 26 29  1  0  0  0  0
 28 25  1  0  0  0  0
 29 30  1  0  0  0  0
 30 25  1  6  0  0  0
 31 24  1  0  0  0  0
 31 29  1  0  0  0  0
M  END
>  <MODEL>
4

>  <REMARK>
 VINA RESULT:      -7.5      4.015      8.261
  Name = 
  2 active torsions:
  status: ('A' for Active; 'I' for Inactive)
    1  A    between atoms: C_5  and  C_30
    2  A    between atoms: C_10  and  C_16
                            x       y       z     vdW  Elec       q    Type
                         _______ _______ _______ _____ _____    ______ ____

>  <TORSDO>
F 2

$$$$
=
 OpenBabel11112416523D

 31 36  0  0  1  0  0  0  0  0999 V2000
  187.9620  176.2970  146.7580 C   0  0  0  0  0  0  0  0  0  0  0  0
  190.6720  174.0380  145.3530 C   0  0  2  0  0  3  0  0  0  0  0  0
  190.2770  173.7330  143.8760 C   0  0  1  0  0  3  0  0  0  0  0  0
  189.0630  174.3530  141.7780 C   0  0  1  0  0  3  0  0  0  0  0  0
  189.9880  175.2470  145.9360 C   0  0  0  0  0  0  0  0  0  0  0  0
  188.6400  177.5110  146.8850 C   0  0  0  0  0  3  0  0  0  0  0  0
  189.5710  174.8670  143.1250 C   0  0  0  0  0  2  0  0  0  0  0  0
  192.7480  175.4090  145.0300 C   0  0  2  0  0  3  0  0  0  0  0  0
  186.6520  176.2140  147.0910 F   0  0  0  0  0  0  0  0  0  0  0  0
  192.2530  172.2070  143.7990 C   0  0  0  0  0  2  0  0  0  0  0  0
  188.4520  175.3940  141.0830 O   0  0  0  0  0  1  0  0  0  0  0  0
  192.1510  176.5920  145.8020 C   0  0  0  0  0  2  0  0  0  0  0  0
  192.1950  174.0870  145.5900 C   0  0  2  0  0  3  0  0  0  0  0  0
  188.6340  175.1680  146.2830 C   0  0  0  0  0  3  0  0  0  0  0  0
  190.2130  173.7860  140.9420 C   0  0  0  0  0  2  0  0  0  0  0  0
  190.6710  176.4780  146.0570 C   0  0  0  0  0  0  0  0  0  0  0  0
  189.9910  177.5990  146.5420 C   0  0  0  0  0  3  0  0  0  0  0  0
  192.9060  172.8340  145.0370 C   0  0  0  0  0  2  0  0  0  0  0  0
  191.4580  173.2420  143.0280 C   0  0  1  0  0  3  0  0  0  0  0  0
  190.9460  172.6840  141.7080 C   0  0  0  0  0  2  0  0  0  0  0  0
  194.6660  176.7280  144.5480 O   0  0  0  0  0  0  0  0  0  0  0  0
  194.8650  175.5810  143.7590 C   0  0  2  0  0  3  0  0  0  0  0  0
  194.2680  175.5020  145.1130 C   0  0  2  0  0  3  0  0  0  0  0  0
  197.2300  175.4060  141.1130 C   0  0  1  0  0  3  0  0  0  0  0  0
  197.1530  176.4040  143.1550 C   0  0  0  0  0  2  0  0  0  0  0  0
  195.9100  172.9980  143.4780 O   0  0  0  0  0  1  0  0  0  0  0  0
  196.9980  175.5860  139.6280 C   0  0  0  0  0  1  0  0  0  0  0  0
  196.8060  176.5630  141.7970 O   0  0  0  0  0  0  0  0  0  0  0  0
  196.6930  174.0110  143.0370 N   0  0  0  0  0  0  0  0  0  0  0  0
  196.3620  175.2440  143.7730 C   0  0  2  0  0  3  0  0  0  0  0  0
  196.4450  174.1880  141.6050 C   0  0  0  0  0  2  0  0  0  0  0  0
  1  6  1  0  0  0  0
  1  9  1  0  0  0  0
  2 13  1  0  0  0  0
  2  5  1  6  0  0  0
  3  7  1  6  0  0  0
  3  2  1  0  0  0  0
  4 11  1  6  0  0  0
  4  7  1  0  0  0  0
  5 16  2  0  0  0  0
  5 14  1  0  0  0  0
  8 23  1  0  0  0  0
  8 13  1  0  0  0  0
  8 12  1  1  0  0  0
 10 18  1  0  0  0  0
 12 16  1  0  0  0  0
 13 18  1  6  0  0  0
 14  1  2  0  0  0  0
 15 20  1  0  0  0  0
 15  4  1  0  0  0  0
 16 17  1  0  0  0  0
 17  6  2  0  0  0  0
 19 20  1  6  0  0  0
 19 10  1  0  0  0  0
 19  3  1  0  0  0  0
 22 30  1  0  0  0  0
 22 21  1  1  0  0  0
 22 23  1  0  0  0  0
 23 21  1  1  0  0  0
 24 27  1  6  0  0  0
 24 31  1  0  0  0  0
 24 28  1  0  0  0  0
 28 25  1  0  0  0  0
 29 26  1  0  0  0  0
 29 30  1  0  0  0  0
 30 25  1  6  0  0  0
 31 29  1  0  0  0  0
M  END
>  <MODEL>
5

>  <REMARK>
 VINA RESULT:      -7.4      2.111      3.317
  Name = 
  2 active torsions:
  status: ('A' for Active; 'I' for Inactive)
    1  A    between atoms: C_5  and  C_30
    2  A    between atoms: C_10  and  C_16
                            x       y       z     vdW  Elec       q    Type
                         _______ _______ _______ _____ _____    ______ ____

>  <TORSDO>
F 2

$$$$
=
 OpenBabel11112416523D

 31 36  0  0  1  0  0  0  0  0999 V2000
  187.7870  176.5650  146.1140 C   0  0  0  0  0  0  0  0  0  0  0  0
  191.0620  174.6700  145.7980 C   0  0  2  0  0  3  0  0  0  0  0  0
  190.7560  173.3840  144.9720 C   0  0  1  0  0  3  0  0  0  0  0  0
  189.3510  172.1520  143.3070 C   0  0  1  0  0  3  0  0  0  0  0  0
  190.0260  175.7540  145.6560 C   0  0  0  0  0  0  0  0  0  0  0  0
  188.0190  177.6750  145.2990 C   0  0  0  0  0  3  0  0  0  0  0  0
  189.6890  173.5290  143.8800 C   0  0  0  0  0  2  0  0  0  0  0  0
  192.5460  175.9260  144.2130 C   0  0  2  0  0  3  0  0  0  0  0  0
  186.5900  176.4150  146.7300 F   0  0  0  0  0  0  0  0  0  0  0  0
  193.1270  172.7130  145.3780 C   0  0  0  0  0  2  0  0  0  0  0  0
  188.4070  172.2910  142.2920 O   0  0  0  0  0  1  0  0  0  0  0  0
  191.6060  177.1370  144.2070 C   0  0  0  0  0  2  0  0  0  0  0  0
  192.4850  175.2220  145.5790 C   0  0  2  0  0  3  0  0  0  0  0  0
  188.7870  175.6060  146.2900 C   0  0  0  0  0  3  0  0  0  0  0  0
  190.6020  171.4690  142.7530 C   0  0  0  0  0  2  0  0  0  0  0  0
  190.2580  176.8730  144.8250 C   0  0  0  0  0  0  0  0  0  0  0  0
  189.2530  177.8310  144.6630 C   0  0  0  0  0  3  0  0  0  0  0  0
  193.5610  174.1330  145.7640 C   0  0  0  0  0  2  0  0  0  0  0  0
  192.0100  172.7540  144.3540 C   0  0  1  0  0  3  0  0  0  0  0  0
  191.6830  171.3630  143.8290 C   0  0  0  0  0  2  0  0  0  0  0  0
  193.9470  176.7900  142.4980 O   0  0  0  0  0  0  0  0  0  0  0  0
  194.5430  175.5520  142.7980 C   0  0  2  0  0  3  0  0  0  0  0  0
  193.9480  176.4070  143.8520 C   0  0  2  0  0  3  0  0  0  0  0  0
  196.8690  174.4740  140.3390 C   0  0  1  0  0  3  0  0  0  0  0  0
  196.4320  176.4330  141.4080 C   0  0  0  0  0  2  0  0  0  0  0  0
  196.3960  173.7390  143.8560 O   0  0  0  0  0  1  0  0  0  0  0  0
  196.6120  173.6470  139.0970 C   0  0  0  0  0  1  0  0  0  0  0  0
  196.0720  175.6350  140.3000 O   0  0  0  0  0  0  0  0  0  0  0  0
  196.8020  174.4450  142.7730 N   0  0  0  0  0  0  0  0  0  0  0  0
  196.0660  175.7210  142.7160 C   0  0  2  0  0  3  0  0  0  0  0  0
  196.5300  173.6440  141.5790 C   0  0  0  0  0  2  0  0  0  0  0  0
  1 14  1  0  0  0  0
  1  9  1  0  0  0  0
  2  5  1  6  0  0  0
  3  7  1  6  0  0  0
  3  2  1  0  0  0  0
  4 11  1  6  0  0  0
  4  7  1  0  0  0  0
  5 14  2  0  0  0  0
  6  1  2  0  0  0  0
  8 12  1  1  0  0  0
  8 13  1  0  0  0  0
 10 18  1  0  0  0  0
 12 16  1  0  0  0  0
 13 18  1  6  0  0  0
 13  2  1  0  0  0  0
 15  4  1  0  0  0  0
 15 20  1  0  0  0  0
 16  5  1  0  0  0  0
 17 16  2  0  0  0  0
 17  6  1  0  0  0  0
 19 20  1  1  0  0  0
 19  3  1  0  0  0  0
 19 10  1  0  0  0  0
 22 21  1  6  0  0  0
 22 23  1  0  0  0  0
 23 21  1  6  0  0  0
 23  8  1  0  0  0  0
 24 27  1  6  0  0  0
 24 31  1  0  0  0  0
 28 24  1  0  0  0  0
 28 25  1  0  0  0  0
 29 26  1  0  0  0  0
 30 25  1  6  0  0  0
 30 29  1  0  0  0  0
 30 22  1  0  0  0  0
 31 29  1  0  0  0  0
M  END
>  <MODEL>
6

>  <REMARK>
 VINA RESULT:      -7.4      2.580      4.137
  Name = 
  2 active torsions:
  status: ('A' for Active; 'I' for Inactive)
    1  A    between atoms: C_5  and  C_30
    2  A    between atoms: C_10  and  C_16
                            x       y       z     vdW  Elec       q    Type
                         _______ _______ _______ _____ _____    ______ ____

>  <TORSDO>
F 2

$$$$
=
 OpenBabel11112416523D

 31 36  0  0  1  0  0  0  0  0999 V2000
  186.1200  177.2400  142.2920 C   0  0  0  0  0  0  0  0  0  0  0  0
  188.5560  174.6300  143.5860 C   0  0  2  0  0  3  0  0  0  0  0  0
  188.7910  173.6210  142.4200 C   0  0  1  0  0  3  0  0  0  0  0  0
  188.8050  173.0900  139.9760 C   0  0  1  0  0  3  0  0  0  0  0  0
  187.9910  175.9560  143.1490 C   0  0  0  0  0  0  0  0  0  0  0  0
  186.9380  178.3670  142.1900 C   0  0  0  0  0  3  0  0  0  0  0  0
  188.7740  174.2170  141.0080 C   0  0  0  0  0  2  0  0  0  0  0  0
  190.8200  175.6930  143.7750 C   0  0  2  0  0  3  0  0  0  0  0  0
  184.8190  177.3110  141.9250 F   0  0  0  0  0  0  0  0  0  0  0  0
  190.1780  172.2950  144.0190 C   0  0  0  0  0  2  0  0  0  0  0  0
  188.8250  173.6340  138.6940 O   0  0  0  0  0  1  0  0  0  0  0  0
  190.2420  177.0920  143.5330 C   0  0  0  0  0  2  0  0  0  0  0  0
  189.7840  174.8170  144.5000 C   0  0  2  0  0  3  0  0  0  0  0  0
  186.6460  176.0370  142.7680 C   0  0  0  0  0  3  0  0  0  0  0  0
  190.0350  172.2020  140.1740 C   0  0  0  0  0  2  0  0  0  0  0  0
  188.8200  177.0940  143.0370 C   0  0  0  0  0  0  0  0  0  0  0  0
  188.2810  178.2960  142.5670 C   0  0  0  0  0  3  0  0  0  0  0  0
  190.3480  173.4690  144.9920 C   0  0  0  0  0  2  0  0  0  0  0  0
  190.0700  172.7940  142.5910 C   0  0  1  0  0  3  0  0  0  0  0  0
  190.0760  171.6420  141.5960 C   0  0  0  0  0  2  0  0  0  0  0  0
  192.8700  176.8820  143.9670 O   0  0  0  0  0  0  0  0  0  0  0  0
  193.2900  175.5700  143.6800 C   0  0  2  0  0  3  0  0  0  0  0  0
  192.1240  175.8420  144.5520 C   0  0  2  0  0  3  0  0  0  0  0  0
  196.6810  175.2690  142.6630 C   0  0  1  0  0  3  0  0  0  0  0  0
  195.5700  176.4210  144.2790 C   0  0  0  0  0  2  0  0  0  0  0  0
  194.2990  173.0100  144.1990 O   0  0  0  0  0  1  0  0  0  0  0  0
  197.2540  175.3250  141.2630 C   0  0  0  0  0  1  0  0  0  0  0  0
  195.9790  176.4610  142.9290 O   0  0  0  0  0  0  0  0  0  0  0  0
  195.2100  174.0110  144.1420 N   0  0  0  0  0  0  0  0  0  0  0  0
  194.5600  175.2860  144.4940 C   0  0  2  0  0  3  0  0  0  0  0  0
  195.7410  174.0680  142.7790 C   0  0  0  0  0  2  0  0  0  0  0  0
  1 14  1  0  0  0  0
  2  5  1  6  0  0  0
  2 13  1  0  0  0  0
  3  7  1  6  0  0  0
  3 19  1  0  0  0  0
  3  2  1  0  0  0  0
  4 11  1  6  0  0  0
  4 15  1  0  0  0  0
  4  7  1  0  0  0  0
  6  1  2  0  0  0  0
  6 17  1  0  0  0  0
  8 12  1  1  0  0  0
  8 13  1  0  0  0  0
  8 23  1  0  0  0  0
  9  1  1  0  0  0  0
 10 18  1  0  0  0  0
 13 18  1  6  0  0  0
 14  5  2  0  0  0  0
 15 20  1  0  0  0  0
 16  5  1  0  0  0  0
 16 12  1  0  0  0  0
 17 16  2  0  0  0  0
 19 20  1  6  0  0  0
 19 10  1  0  0  0  0
 22 21  1  6  0  0  0
 22 30  1  0  0  0  0
 22 23  1  0  0  0  0
 23 21  1  6  0  0  0
 24 27  1  6  0  0  0
 24 31  1  0  0  0  0
 24 28  1  0  0  0  0
 28 25  1  0  0  0  0
 29 26  1  0  0  0  0
 29 30  1  0  0  0  0
 30 25  1  6  0  0  0
 31 29  1  0  0  0  0
M  END
>  <MODEL>
7

>  <REMARK>
 VINA RESULT:      -7.3      3.060      3.610
  Name = 
  2 active torsions:
  status: ('A' for Active; 'I' for Inactive)
    1  A    between atoms: C_5  and  C_30
    2  A    between atoms: C_10  and  C_16
                            x       y       z     vdW  Elec       q    Type
                         _______ _______ _______ _____ _____    ______ ____

>  <TORSDO>
F 2

$$$$
=
 OpenBabel11112416523D

 31 36  0  0  1  0  0  0  0  0999 V2000
  186.0160  177.4600  142.2190 C   0  0  0  0  0  0  0  0  0  0  0  0
  188.5950  176.0040  144.5960 C   0  0  2  0  0  3  0  0  0  0  0  0
  188.7320  174.4940  144.2340 C   0  0  1  0  0  3  0  0  0  0  0  0
  188.5240  172.6260  142.5830 C   0  0  1  0  0  3  0  0  0  0  0  0
  187.9750  176.8430  143.5090 C   0  0  0  0  0  0  0  0  0  0  0  0
  186.8050  178.2740  141.4040 C   0  0  0  0  0  3  0  0  0  0  0  0
  188.5760  174.1440  142.7500 C   0  0  0  0  0  2  0  0  0  0  0  0
  190.8530  176.8720  143.9320 C   0  0  2  0  0  3  0  0  0  0  0  0
  184.6850  177.3600  141.9900 F   0  0  0  0  0  0  0  0  0  0  0  0
  190.2800  174.3000  146.1850 C   0  0  0  0  0  2  0  0  0  0  0  0
  188.4170  172.3110  141.2300 O   0  0  0  0  0  1  0  0  0  0  0  0
  190.2360  177.8860  142.9600 C   0  0  0  0  0  2  0  0  0  0  0  0
  189.9000  176.6380  145.1170 C   0  0  2  0  0  3  0  0  0  0  0  0
  186.5990  176.7450  143.2680 C   0  0  0  0  0  3  0  0  0  0  0  0
  189.7790  171.9700  143.1630 C   0  0  0  0  0  2  0  0  0  0  0  0
  188.7750  177.6600  142.6790 C   0  0  0  0  0  0  0  0  0  0  0  0
  188.1790  178.3780  141.6380 C   0  0  0  0  0  3  0  0  0  0  0  0
  190.5250  175.8130  146.2610 C   0  0  0  0  0  2  0  0  0  0  0  0
  190.0330  173.8680  144.7530 C   0  0  1  0  0  3  0  0  0  0  0  0
  189.9600  172.3530  144.6320 C   0  0  0  0  0  2  0  0  0  0  0  0
  193.0940  177.2940  143.2600 O   0  0  0  0  0  0  0  0  0  0  0  0
  193.2430  176.3210  144.2650 C   0  0  2  0  0  3  0  0  0  0  0  0
  192.2220  177.3910  144.3600 C   0  0  2  0  0  3  0  0  0  0  0  0
  196.3500  174.6200  144.5430 C   0  0  1  0  0  3  0  0  0  0  0  0
  195.7060  176.7620  144.1290 C   0  0  0  0  0  2  0  0  0  0  0  0
  193.7170  175.4620  146.8880 O   0  0  0  0  0  1  0  0  0  0  0  0
  196.7600  173.3000  143.9250 C   0  0  0  0  0  1  0  0  0  0  0  0
  195.9600  175.5120  143.5240 O   0  0  0  0  0  0  0  0  0  0  0  0
  194.8130  175.6660  146.1180 N   0  0  0  0  0  0  0  0  0  0  0  0
  194.5020  176.6590  145.0750 C   0  0  2  0  0  3  0  0  0  0  0  0
  195.1870  174.3880  145.5110 C   0  0  0  0  0  2  0  0  0  0  0  0
  1 14  1  0  0  0  0
  2  5  1  6  0  0  0
  2 13  1  0  0  0  0
  3  7  1  6  0  0  0
  3  2  1  0  0  0  0
  3 19  1  0  0  0  0
  4 11  1  6  0  0  0
  4  7  1  0  0  0  0
  4 15  1  0  0  0  0
  6 17  1  0  0  0  0
  6  1  2  0  0  0  0
  8 12  1  6  0  0  0
  8 23  1  0  0  0  0
  8 13  1  0  0  0  0
  9  1  1  0  0  0  0
 10 18  1  0  0  0  0
 13 18  1  1  0  0  0
 14  5  2  0  0  0  0
 15 20  1  0  0  0  0
 16 12  1  0  0  0  0
 16  5  1  0  0  0  0
 17 16  2  0  0  0  0
 19 20  1  1  0  0  0
 19 10  1  0  0  0  0
 22 21  1  6  0  0  0
 22 23  1  0  0  0  0
 22 30  1  0  0  0  0
 23 21  1  6  0  0  0
 24 27  1  6  0  0  0
 24 31  1  0  0  0  0
 28 25  1  0  0  0  0
 28 24  1  0  0  0  0
 29 26  1  0  0  0  0
 30 25  1  6  0  0  0
 30 29  1  0  0  0  0
 31 29  1  0  0  0  0
M  END
>  <MODEL>
8

>  <REMARK>
 VINA RESULT:      -7.3      2.676      3.736
  Name = 
  2 active torsions:
  status: ('A' for Active; 'I' for Inactive)
    1  A    between atoms: C_5  and  C_30
    2  A    between atoms: C_10  and  C_16
                            x       y       z     vdW  Elec       q    Type
                         _______ _______ _______ _____ _____    ______ ____

>  <TORSDO>
F 2

$$$$
=
 OpenBabel11112416523D

 31 36  0  0  1  0  0  0  0  0999 V2000
  187.6240  177.5220  142.1240 C   0  0  0  0  0  0  0  0  0  0  0  0
  191.0810  176.9330  143.5790 C   0  0  2  0  0  3  0  0  0  0  0  0
  190.8870  176.6920  145.1080 C   0  0  1  0  0  3  0  0  0  0  0  0
  189.4530  175.9870  147.0320 C   0  0  1  0  0  3  0  0  0  0  0  0
  189.8300  176.7430  142.7630 C   0  0  0  0  0  0  0  0  0  0  0  0
  187.4270  176.3600  141.3760 C   0  0  0  0  0  3  0  0  0  0  0  0
  189.6020  175.9600  145.5120 C   0  0  0  0  0  2  0  0  0  0  0  0
  191.8750  174.6760  142.8280 C   0  0  2  0  0  3  0  0  0  0  0  0
  186.6510  178.4630  142.1820 F   0  0  0  0  0  0  0  0  0  0  0  0
  193.3780  176.6110  145.2800 C   0  0  0  0  0  2  0  0  0  0  0  0
  188.3030  175.2910  147.3990 O   0  0  0  0  0  1  0  0  0  0  0  0
  190.7170  174.5410  141.8310 C   0  0  0  0  0  2  0  0  0  0  0  0
  192.2680  176.1550  142.9760 C   0  0  2  0  0  3  0  0  0  0  0  0
  188.8210  177.7130  142.8180 C   0  0  0  0  0  3  0  0  0  0  0  0
  190.6700  175.3570  147.7120 C   0  0  0  0  0  2  0  0  0  0  0  0
  189.6270  175.5630  142.0120 C   0  0  0  0  0  0  0  0  0  0  0  0
  188.4280  175.3870  141.3150 C   0  0  0  0  0  3  0  0  0  0  0  0
  193.5680  176.3750  143.7760 C   0  0  0  0  0  2  0  0  0  0  0  0
  192.0820  175.9870  145.7610 C   0  0  1  0  0  3  0  0  0  0  0  0
  191.9570  176.0580  147.2760 C   0  0  0  0  0  2  0  0  0  0  0  0
  192.5890  172.4610  142.3380 O   0  0  0  0  0  0  0  0  0  0  0  0
  193.4340  172.8390  143.3970 C   0  0  2  0  0  3  0  0  0  0  0  0
  193.0260  173.7990  142.3440 C   0  0  2  0  0  3  0  0  0  0  0  0
  195.2970  170.3800  145.1600 C   0  0  1  0  0  3  0  0  0  0  0  0
  194.7230  170.7300  142.9870 C   0  0  0  0  0  2  0  0  0  0  0  0
  195.8170  173.8910  144.4240 O   0  0  0  0  0  1  0  0  0  0  0  0
  194.9360  169.6660  146.4450 C   0  0  0  0  0  1  0  0  0  0  0  0
  194.2900  170.1540  144.2000 O   0  0  0  0  0  0  0  0  0  0  0  0
  195.8050  172.5560  144.1900 N   0  0  0  0  0  0  0  0  0  0  0  0
  194.8270  172.2530  143.1300 C   0  0  2  0  0  3  0  0  0  0  0  0
  195.4350  171.8790  145.4340 C   0  0  0  0  0  2  0  0  0  0  0  0
  1  9  1  0  0  0  0
  1 14  1  0  0  0  0
  2  5  1  6  0  0  0
  2  3  1  0  0  0  0
  3  7  1  6  0  0  0
  3 19  1  0  0  0  0
  4 11  1  6  0  0  0
  4 15  1  0  0  0  0
  5 14  2  0  0  0  0
  6  1  2  0  0  0  0
  7  4  1  0  0  0  0
  8 12  1  6  0  0  0
  8 13  1  0  0  0  0
 12 16  1  0  0  0  0
 13  2  1  0  0  0  0
 13 18  1  1  0  0  0
 16  5  1  0  0  0  0
 17  6  1  0  0  0  0
 17 16  2  0  0  0  0
 18 10  1  0  0  0  0
 19 10  1  1  0  0  0
 19 20  1  0  0  0  0
 20 15  1  0  0  0  0
 22 21  1  6  0  0  0
 23 21  1  6  0  0  0
 23  8  1  0  0  0  0
 23 22  1  0  0  0  0
 24 31  1  0  0  0  0
 24 27  1  1  0  0  0
 25 28  1  0  0  0  0
 28 24  1  0  0  0  0
 29 26  1  0  0  0  0
 29 31  1  0  0  0  0
 30 25  1  1  0  0  0
 30 22  1  0  0  0  0
 30 29  1  0  0  0  0
M  END
>  <MODEL>
9

>  <REMARK>
 VINA RESULT:      -7.2      2.843      5.381
  Name = 
  2 active torsions:
  status: ('A' for Active; 'I' for Inactive)
    1  A    between atoms: C_5  and  C_30
    2  A    between atoms: C_10  and  C_16
                            x       y       z     vdW  Elec       q    Type
                         _______ _______ _______ _____ _____    ______ ____

>  <TORSDO>
F 2

$$$$
