=
 OpenBabel11112416353D

 32 38  0  0  1  0  0  0  0  0999 V2000
  184.7450  177.9930  146.4390 C   0  0  1  0  0  3  0  0  0  0  0  0
  189.4860  176.0520  145.1120 C   0  0  0  0  0  0  0  0  0  0  0  0
  188.5670  174.1500  140.7170 C   0  0  0  0  0  3  0  0  0  0  0  0
  189.9180  173.8430  140.5590 C   0  0  0  0  0  3  0  0  0  0  0  0
  191.8730  176.0710  146.0360 C   0  0  0  0  0  0  0  0  0  0  0  0
  193.2610  175.7010  145.7720 C   0  0  0  0  0  0  0  0  0  0  0  0
  187.6860  177.4920  146.1170 C   0  0  1  0  0  3  0  0  0  0  0  0
  187.1840  176.0450  144.2210 N   0  0  0  0  0  2  0  0  0  0  0  0
  195.0580  174.8650  144.6650 C   0  0  0  0  0  0  0  0  0  0  0  0
  185.2770  177.2390  145.2180 C   0  0  2  0  0  3  0  0  0  0  0  0
  188.1250  174.7690  141.8880 C   0  0  0  0  0  3  0  0  0  0  0  0
  188.5760  175.7100  144.0850 C   0  0  0  0  0  0  0  0  0  0  0  0
  189.0290  175.0900  142.9130 C   0  0  0  0  0  0  0  0  0  0  0  0
  191.3170  175.1010  143.7740 C   0  0  0  0  0  0  0  0  0  0  0  0
  195.4850  175.3260  145.7990 N   0  0  0  0  0  0  0  0  0  0  0  0
  185.6810  177.9490  147.6690 C   0  0  0  0  0  2  0  0  0  0  0  0
  186.6470  176.5800  145.4630 C   0  0  2  0  0  3  0  0  0  0  0  0
  194.3530  175.8580  146.5090 C   0  0  0  0  0  2  0  0  0  0  0  0
  187.1830  178.1490  147.4040 C   0  0  0  0  0  2  0  0  0  0  0  0
  185.3030  178.7650  145.2520 C   0  0  1  0  0  3  0  0  0  0  0  0
  190.8270  174.1580  141.5700 C   0  0  0  0  0  3  0  0  0  0  0  0
  190.4000  174.7830  142.7550 C   0  0  0  0  0  0  0  0  0  0  0  0
  192.7630  174.7630  143.5910 C   0  0  0  0  0  2  0  0  0  0  0  0
  188.9530  176.6900  146.3760 C   0  0  0  0  0  2  0  0  0  0  0  0
  191.5670  176.6420  147.1160 O   0  0  0  0  0  0  0  0  0  0  0  0
  195.9430  174.2320  143.6500 C   0  0  0  0  0  1  0  0  0  0  0  0
  190.8630  175.7440  144.9710 C   0  0  0  0  0  0  0  0  0  0  0  0
  193.6290  175.0610  144.5510 C   0  0  0  0  0  0  0  0  0  0  0  0
  184.1560  179.3010  144.4190 C   0  0  0  0  0  2  0  0  0  0  0  0
  184.2520  178.7760  143.0300 C   0  0  0  0  0  0  0  0  0  0  0  0
  185.4500  178.8690  142.3330 O   0  0  0  0  0  0  0  0  0  0  0  0
  183.2390  178.2760  142.4750 O   0  0  0  0  0  1  0  0  0  0  0  0
  1 16  1  1  0  0  0
  2 24  1  0  0  0  0
  3 11  1  0  0  0  0
  4  3  2  0  0  0  0
  4 21  1  0  0  0  0
  5 25  2  0  0  0  0
  6  5  1  0  0  0  0
  6 18  1  0  0  0  0
  7 24  1  1  0  0  0
  7 19  1  0  0  0  0
  8 17  1  0  0  0  0
  9 15  2  0  0  0  0
 10 20  1  0  0  0  0
 10 17  1  0  0  0  0
 10  1  1  0  0  0  0
 11 13  2  0  0  0  0
 12  8  1  0  0  0  0
 12  2  2  0  0  0  0
 13 12  1  0  0  0  0
 14 27  2  0  0  0  0
 15 18  1  0  0  0  0
 17  7  1  0  0  0  0
 19 16  1  0  0  0  0
 20  1  1  0  0  0  0
 21 22  2  0  0  0  0
 22 13  1  0  0  0  0
 22 14  1  0  0  0  0
 23 14  1  0  0  0  0
 23 28  1  0  0  0  0
 26  9  1  0  0  0  0
 27  2  1  0  0  0  0
 27  5  1  0  0  0  0
 28  9  1  0  0  0  0
 28  6  2  0  0  0  0
 29 20  1  0  0  0  0
 30 29  1  0  0  0  0
 31 30  2  0  0  0  0
 32 30  1  0  0  0  0
M  END
>  <MODEL>
1

>  <REMARK>
 VINA RESULT:      -9.2      0.000      0.000
  Name = 
  2 active torsions:
  status: ('A' for Active; 'I' for Inactive)
    1  A    between atoms: C_20  and  C_29
    2  A    between atoms: C_29  and  C_30
                            x       y       z     vdW  Elec       q    Type
                         _______ _______ _______ _____ _____    ______ ____

>  <TORSDO>
F 2

$$$$
=
 OpenBabel11112416353D

 32 38  0  0  1  0  0  0  0  0999 V2000
  185.0900  179.1700  144.0990 C   0  0  1  0  0  3  0  0  0  0  0  0
  188.8330  175.5320  143.2250 C   0  0  0  0  0  0  0  0  0  0  0  0
  191.7380  176.1740  147.0890 C   0  0  0  0  0  3  0  0  0  0  0  0
  192.5110  175.0820  146.6980 C   0  0  0  0  0  3  0  0  0  0  0  0
  189.2870  173.6320  141.5720 C   0  0  0  0  0  0  0  0  0  0  0  0
  190.1660  172.5110  141.2490 C   0  0  0  0  0  0  0  0  0  0  0  0
  186.6210  176.7270  143.2660 C   0  0  1  0  0  3  0  0  0  0  0  0
  188.3870  177.3610  144.8220 N   0  0  0  0  0  2  0  0  0  0  0  0
  191.8850  171.0420  141.4440 C   0  0  0  0  0  0  0  0  0  0  0  0
  186.3560  178.7520  144.8500 C   0  0  2  0  0  3  0  0  0  0  0  0
  190.6370  176.5580  146.3210 C   0  0  0  0  0  3  0  0  0  0  0  0
  189.1910  176.2500  144.3900 C   0  0  0  0  0  0  0  0  0  0  0  0
  190.2960  175.8550  145.1550 C   0  0  0  0  0  0  0  0  0  0  0  0
  190.7460  174.0310  143.5910 C   0  0  0  0  0  0  0  0  0  0  0  0
  191.2250  170.7230  140.3740 N   0  0  0  0  0  0  0  0  0  0  0  0
  185.0070  178.6380  142.6490 C   0  0  0  0  0  2  0  0  0  0  0  0
  187.3020  177.8810  144.0020 C   0  0  2  0  0  3  0  0  0  0  0  0
  190.1330  171.6490  140.2420 C   0  0  0  0  0  3  0  0  0  0  0  0
  185.4260  177.1750  142.4230 C   0  0  0  0  0  2  0  0  0  0  0  0
  185.0180  178.0900  145.1690 C   0  0  1  0  0  3  0  0  0  0  0  0
  192.1830  174.3730  145.5410 C   0  0  0  0  0  3  0  0  0  0  0  0
  191.0780  174.7460  144.7570 C   0  0  0  0  0  0  0  0  0  0  0  0
  191.5880  172.8640  143.1830 C   0  0  0  0  0  3  0  0  0  0  0  0
  187.6530  176.0110  142.4080 C   0  0  0  0  0  2  0  0  0  0  0  0
  188.3050  173.8980  140.8280 O   0  0  0  0  0  0  0  0  0  0  0  0
  193.0900  170.3070  141.9150 C   0  0  0  0  0  1  0  0  0  0  0  0
  189.6110  174.4230  142.8090 C   0  0  0  0  0  0  0  0  0  0  0  0
  191.2770  172.1880  142.0830 C   0  0  0  0  0  0  0  0  0  0  0  0
  184.4600  178.6860  146.4460 C   0  0  0  0  0  2  0  0  0  0  0  0
  185.5090  178.6930  147.5000 C   0  0  0  0  0  0  0  0  0  0  0  0
  185.9640  177.4950  148.0360 O   0  0  0  0  0  1  0  0  0  0  0  0
  185.9620  179.7850  147.9300 O   0  0  0  0  0  0  0  0  0  0  0  0
  1 16  1  6  0  0  0
  1 10  1  0  0  0  0
  1 20  1  0  0  0  0
  2 12  1  0  0  0  0
  4  3  1  0  0  0  0
  5 27  1  0  0  0  0
  6  5  1  0  0  0  0
  6 28  1  0  0  0  0
  7 24  1  6  0  0  0
  7 17  1  0  0  0  0
  9 26  1  0  0  0  0
  9 28  1  0  0  0  0
 10 20  1  0  0  0  0
 11  3  2  0  0  0  0
 12  8  1  0  0  0  0
 12 13  2  0  0  0  0
 13 11  1  0  0  0  0
 14 22  2  0  0  0  0
 15  9  2  0  0  0  0
 17  8  1  0  0  0  0
 17 10  1  0  0  0  0
 18 15  1  0  0  0  0
 18  6  2  0  0  0  0
 19 16  1  0  0  0  0
 19  7  1  0  0  0  0
 20 29  1  0  0  0  0
 21  4  2  0  0  0  0
 22 13  1  0  0  0  0
 22 21  1  0  0  0  0
 23 14  1  0  0  0  0
 24  2  1  0  0  0  0
 25  5  2  0  0  0  0
 27  2  2  0  0  0  0
 27 14  1  0  0  0  0
 28 23  2  0  0  0  0
 29 30  1  0  0  0  0
 30 32  2  0  0  0  0
 30 31  1  0  0  0  0
M  END
>  <MODEL>
2

>  <REMARK>
 VINA RESULT:      -9.1      2.766      4.797
  Name = 
  2 active torsions:
  status: ('A' for Active; 'I' for Inactive)
    1  A    between atoms: C_20  and  C_29
    2  A    between atoms: C_29  and  C_30
                            x       y       z     vdW  Elec       q    Type
                         _______ _______ _______ _____ _____    ______ ____

>  <TORSDO>
F 2

$$$$
=
 OpenBabel11112416353D

 32 38  0  0  1  0  0  0  0  0999 V2000
  192.4110  174.9290  144.7280 C   0  0  1  0  0  3  0  0  0  0  0  0
  187.5020  176.6710  143.7890 C   0  0  0  0  0  0  0  0  0  0  0  0
  186.0080  177.8430  148.2800 C   0  0  0  0  0  3  0  0  0  0  0  0
  184.8200  178.3560  147.7590 C   0  0  0  0  0  3  0  0  0  0  0  0
  186.0170  177.1670  141.7650 C   0  0  0  0  0  0  0  0  0  0  0  0
  184.7400  177.7230  141.3250 C   0  0  0  0  0  0  0  0  0  0  0  0
  189.9440  176.1350  143.5170 C   0  0  1  0  0  3  0  0  0  0  0  0
  188.9420  176.1990  145.7380 N   0  0  0  0  0  2  0  0  0  0  0  0
  182.6970  178.7030  141.4590 C   0  0  0  0  0  0  0  0  0  0  0  0
  191.2890  175.4660  145.6200 C   0  0  2  0  0  3  0  0  0  0  0  0
  186.9640  177.2950  147.4240 C   0  0  0  0  0  3  0  0  0  0  0  0
  187.7110  176.6980  145.1870 C   0  0  0  0  0  0  0  0  0  0  0  0
  186.7450  177.2530  146.0390 C   0  0  0  0  0  0  0  0  0  0  0  0
  185.3120  177.7400  144.1190 C   0  0  0  0  0  0  0  0  0  0  0  0
  182.9290  178.4660  140.2050 N   0  0  0  0  0  0  0  0  0  0  0  0
  191.9570  174.5420  143.3010 C   0  0  0  0  0  2  0  0  0  0  0  0
  189.9220  175.5100  144.9120 C   0  0  2  0  0  3  0  0  0  0  0  0
  184.2220  177.8450  140.1100 C   0  0  0  0  0  3  0  0  0  0  0  0
  190.9920  175.5090  142.5950 C   0  0  0  0  0  2  0  0  0  0  0  0
  192.3260  176.4180  145.0310 C   0  0  1  0  0  3  0  0  0  0  0  0
  184.5900  178.3210  146.3830 C   0  0  0  0  0  3  0  0  0  0  0  0
  185.5430  177.7740  145.5070 C   0  0  0  0  0  0  0  0  0  0  0  0
  184.0320  178.2900  143.5750 C   0  0  0  0  0  3  0  0  0  0  0  0
  188.5530  176.0330  142.9070 C   0  0  0  0  0  2  0  0  0  0  0  0
  186.8290  176.7060  140.9190 O   0  0  0  0  0  0  0  0  0  0  0  0
  181.4490  179.3430  141.9560 C   0  0  0  0  0  1  0  0  0  0  0  0
  186.2990  177.1830  143.2410 C   0  0  0  0  0  0  0  0  0  0  0  0
  183.8110  178.2590  142.2670 C   0  0  0  0  0  0  0  0  0  0  0  0
  193.3420  176.7700  146.1000 C   0  0  0  0  0  2  0  0  0  0  0  0
  194.7070  176.3920  145.6430 C   0  0  0  0  0  0  0  0  0  0  0  0
  195.3110  175.2430  146.1350 O   0  0  0  0  0  1  0  0  0  0  0  0
  195.3270  177.1320  144.8350 O   0  0  0  0  0  0  0  0  0  0  0  0
  1 16  1  6  0  0  0
  1 20  1  0  0  0  0
  1 10  1  0  0  0  0
  2 12  1  0  0  0  0
  4  3  1  0  0  0  0
  5 27  1  0  0  0  0
  6  5  1  0  0  0  0
  6 28  1  0  0  0  0
  7 19  1  6  0  0  0
  7 17  1  0  0  0  0
  9 26  1  0  0  0  0
  9 28  1  0  0  0  0
 11  3  2  0  0  0  0
 12  8  1  0  0  0  0
 12 13  2  0  0  0  0
 13 11  1  0  0  0  0
 14 22  2  0  0  0  0
 15  9  2  0  0  0  0
 17 10  1  0  0  0  0
 17  8  1  0  0  0  0
 18 15  1  0  0  0  0
 18  6  2  0  0  0  0
 19 16  1  0  0  0  0
 20 10  1  0  0  0  0
 20 29  1  0  0  0  0
 21  4  2  0  0  0  0
 22 13  1  0  0  0  0
 22 21  1  0  0  0  0
 23 14  1  0  0  0  0
 24  7  1  0  0  0  0
 24  2  1  0  0  0  0
 25  5  2  0  0  0  0
 27  2  2  0  0  0  0
 27 14  1  0  0  0  0
 28 23  2  0  0  0  0
 30 29  1  0  0  0  0
 30 31  1  0  0  0  0
 32 30  2  0  0  0  0
M  END
>  <MODEL>
3

>  <REMARK>
 VINA RESULT:      -8.6      2.181      8.702
  Name = 
  2 active torsions:
  status: ('A' for Active; 'I' for Inactive)
    1  A    between atoms: C_20  and  C_29
    2  A    between atoms: C_29  and  C_30
                            x       y       z     vdW  Elec       q    Type
                         _______ _______ _______ _____ _____    ______ ____

>  <TORSDO>
F 2

$$$$
=
 OpenBabel11112416353D

 32 38  0  0  1  0  0  0  0  0999 V2000
  190.5030  172.2970  139.2890 C   0  0  1  0  0  3  0  0  0  0  0  0
  188.6390  175.1910  143.3090 C   0  0  0  0  0  0  0  0  0  0  0  0
  192.3460  174.9720  146.4690 C   0  0  0  0  0  3  0  0  0  0  0  0
  191.6850  175.8600  147.3180 C   0  0  0  0  0  3  0  0  0  0  0  0
  186.5990  176.6530  143.8120 C   0  0  0  0  0  0  0  0  0  0  0  0
  185.9910  177.5680  144.7740 C   0  0  0  0  0  0  0  0  0  0  0  0
  189.0770  174.3150  140.9930 C   0  0  1  0  0  3  0  0  0  0  0  0
  190.6080  173.7870  142.8150 N   0  0  0  0  0  2  0  0  0  0  0  0
  185.7590  178.8200  146.6530 C   0  0  0  0  0  0  0  0  0  0  0  0
  191.0630  172.6950  140.6560 C   0  0  2  0  0  3  0  0  0  0  0  0
  191.7510  174.5840  145.2670 C   0  0  0  0  0  3  0  0  0  0  0  0
  189.9000  174.6810  143.6920 C   0  0  0  0  0  0  0  0  0  0  0  0
  190.4900  175.0780  144.8990 C   0  0  0  0  0  0  0  0  0  0  0  0
  188.5530  176.4840  145.3990 C   0  0  0  0  0  0  0  0  0  0  0  0
  184.6930  179.0000  145.9360 N   0  0  0  0  0  0  0  0  0  0  0  0
  188.9830  172.5370  139.1310 C   0  0  0  0  0  2  0  0  0  0  0  0
  189.9900  173.2550  141.6100 C   0  0  2  0  0  3  0  0  0  0  0  0
  184.8310  178.2100  144.7430 C   0  0  0  0  0  3  0  0  0  0  0  0
  188.4290  173.8610  139.6840 C   0  0  0  0  0  2  0  0  0  0  0  0
  191.3260  173.5690  139.4330 C   0  0  1  0  0  3  0  0  0  0  0  0
  190.4300  176.3590  146.9640 C   0  0  0  0  0  3  0  0  0  0  0  0
  189.8180  175.9790  145.7560 C   0  0  0  0  0  0  0  0  0  0  0  0
  187.8550  177.4320  146.3210 C   0  0  0  0  0  3  0  0  0  0  0  0
  188.0210  174.7110  142.0140 C   0  0  0  0  0  2  0  0  0  0  0  0
  185.9960  176.3690  142.7430 O   0  0  0  0  0  0  0  0  0  0  0  0
  185.9830  179.4760  147.9700 C   0  0  0  0  0  1  0  0  0  0  0  0
  187.9480  176.0890  144.1610 C   0  0  0  0  0  0  0  0  0  0  0  0
  186.6620  177.9090  145.9860 C   0  0  0  0  0  0  0  0  0  0  0  0
  192.7340  173.3130  138.9330 C   0  0  0  0  0  2  0  0  0  0  0  0
  193.5610  174.5390  139.1030 C   0  0  0  0  0  0  0  0  0  0  0  0
  194.0150  175.2310  137.9880 O   0  0  0  0  0  0  0  0  0  0  0  0
  193.8750  174.9300  140.2570 O   0  0  0  0  0  1  0  0  0  0  0  0
  1 16  1  1  0  0  0
  1 20  1  0  0  0  0
  1 10  1  0  0  0  0
  2 12  2  0  0  0  0
  2 27  1  0  0  0  0
  3  4  1  0  0  0  0
  5 27  1  0  0  0  0
  5  6  1  0  0  0  0
  6 28  1  0  0  0  0
  7 19  1  6  0  0  0
  7 17  1  0  0  0  0
  7 24  1  0  0  0  0
  8 12  1  0  0  0  0
  9 26  1  0  0  0  0
 10 17  1  0  0  0  0
 11  3  2  0  0  0  0
 12 13  1  0  0  0  0
 13 11  1  0  0  0  0
 13 22  2  0  0  0  0
 14 22  1  0  0  0  0
 14 23  1  0  0  0  0
 15  9  2  0  0  0  0
 16 19  1  0  0  0  0
 17  8  1  0  0  0  0
 18  6  2  0  0  0  0
 18 15  1  0  0  0  0
 20 10  1  0  0  0  0
 21  4  2  0  0  0  0
 22 21  1  0  0  0  0
 24  2  1  0  0  0  0
 25  5  2  0  0  0  0
 27 14  2  0  0  0  0
 28 23  2  0  0  0  0
 28  9  1  0  0  0  0
 29 30  1  0  0  0  0
 29 20  1  0  0  0  0
 30 32  1  0  0  0  0
 31 30  2  0  0  0  0
M  END
>  <MODEL>
4

>  <REMARK>
 VINA RESULT:      -8.6      2.822      7.941
  Name = 
  2 active torsions:
  status: ('A' for Active; 'I' for Inactive)
    1  A    between atoms: C_20  and  C_29
    2  A    between atoms: C_29  and  C_30
                            x       y       z     vdW  Elec       q    Type
                         _______ _______ _______ _____ _____    ______ ____

>  <TORSDO>
F 2

$$$$
=
 OpenBabel11112416353D

 32 38  0  0  1  0  0  0  0  0999 V2000
  185.7890  177.7080  146.1140 C   0  0  1  0  0  3  0  0  0  0  0  0
  190.3540  175.7630  144.2740 C   0  0  0  0  0  0  0  0  0  0  0  0
  188.9290  173.7430  140.0710 C   0  0  0  0  0  3  0  0  0  0  0  0
  190.2540  173.4400  139.7580 C   0  0  0  0  0  3  0  0  0  0  0  0
  192.8340  175.8190  144.9030 C   0  0  0  0  0  0  0  0  0  0  0  0
  194.1840  175.4510  144.4830 C   0  0  0  0  0  0  0  0  0  0  0  0
  188.6750  177.2170  145.4530 C   0  0  1  0  0  3  0  0  0  0  0  0
  187.9610  175.7190  143.6680 N   0  0  0  0  0  2  0  0  0  0  0  0
  195.8410  174.5980  143.1880 C   0  0  0  0  0  0  0  0  0  0  0  0
  186.1770  176.9260  144.8570 C   0  0  2  0  0  3  0  0  0  0  0  0
  188.6260  174.3890  141.2710 C   0  0  0  0  0  3  0  0  0  0  0  0
  189.3300  175.3890  143.3740 C   0  0  0  0  0  0  0  0  0  0  0  0
  189.6440  174.7420  142.1710 C   0  0  0  0  0  0  0  0  0  0  0  0
  192.0190  174.7890  142.7490 C   0  0  0  0  0  0  0  0  0  0  0  0
  196.3980  175.0900  144.2510 N   0  0  0  0  0  0  0  0  0  0  0  0
  186.8670  177.7020  147.2230 C   0  0  0  0  0  2  0  0  0  0  0  0
  187.5730  176.2830  144.9520 C   0  0  2  0  0  3  0  0  0  0  0  0
  195.3540  175.6330  145.0790 C   0  0  0  0  0  2  0  0  0  0  0  0
  188.3240  177.9040  146.7740 C   0  0  0  0  0  2  0  0  0  0  0  0
  186.1930  178.4530  144.8510 C   0  0  1  0  0  3  0  0  0  0  0  0
  191.2750  173.7860  140.6450 C   0  0  0  0  0  3  0  0  0  0  0  0
  190.9890  174.4390  141.8560 C   0  0  0  0  0  0  0  0  0  0  0  0
  193.4350  174.4540  142.4020 C   0  0  0  0  0  2  0  0  0  0  0  0
  189.9710  176.4290  145.5770 C   0  0  0  0  0  2  0  0  0  0  0  0
  192.6550  176.4170  145.9980 O   0  0  0  0  0  0  0  0  0  0  0  0
  196.6040  173.9440  142.0900 C   0  0  0  0  0  1  0  0  0  0  0  0
  191.7060  175.4590  143.9770 C   0  0  0  0  0  0  0  0  0  0  0  0
  194.4080  174.7830  143.2420 C   0  0  0  0  0  0  0  0  0  0  0  0
  184.9500  178.9610  144.1490 C   0  0  0  0  0  2  0  0  0  0  0  0
  184.9220  178.4630  142.7470 C   0  0  0  0  0  0  0  0  0  0  0  0
  186.0510  178.5800  141.9460 O   0  0  0  0  0  0  0  0  0  0  0  0
  183.8670  177.9650  142.2770 O   0  0  0  0  0  1  0  0  0  0  0  0
  1 16  1  1  0  0  0
  2 24  1  0  0  0  0
  3 11  1  0  0  0  0
  4  3  2  0  0  0  0
  4 21  1  0  0  0  0
  5 25  2  0  0  0  0
  6  5  1  0  0  0  0
  6 18  1  0  0  0  0
  7 24  1  1  0  0  0
  7 19  1  0  0  0  0
  8 17  1  0  0  0  0
  9 28  1  0  0  0  0
  9 15  2  0  0  0  0
 10 17  1  0  0  0  0
 10  1  1  0  0  0  0
 11 13  2  0  0  0  0
 12  8  1  0  0  0  0
 12  2  2  0  0  0  0
 13 12  1  0  0  0  0
 14 27  2  0  0  0  0
 15 18  1  0  0  0  0
 17  7  1  0  0  0  0
 19 16  1  0  0  0  0
 20 10  1  0  0  0  0
 20  1  1  0  0  0  0
 21 22  2  0  0  0  0
 22 13  1  0  0  0  0
 22 14  1  0  0  0  0
 23 14  1  0  0  0  0
 23 28  1  0  0  0  0
 26  9  1  0  0  0  0
 27  2  1  0  0  0  0
 27  5  1  0  0  0  0
 28  6  2  0  0  0  0
 29 20  1  0  0  0  0
 30 29  1  0  0  0  0
 31 30  2  0  0  0  0
 32 30  1  0  0  0  0
M  END
>  <MODEL>
5

>  <REMARK>
 VINA RESULT:      -8.4      1.026      1.259
  Name = 
  2 active torsions:
  status: ('A' for Active; 'I' for Inactive)
    1  A    between atoms: C_20  and  C_29
    2  A    between atoms: C_29  and  C_30
                            x       y       z     vdW  Elec       q    Type
                         _______ _______ _______ _____ _____    ______ ____

>  <TORSDO>
F 2

$$$$
=
 OpenBabel11112416353D

 32 38  0  0  1  0  0  0  0  0999 V2000
  185.5770  178.8350  144.2680 C   0  0  1  0  0  3  0  0  0  0  0  0
  189.3230  175.4340  142.7160 C   0  0  0  0  0  0  0  0  0  0  0  0
  192.2410  175.3490  146.6210 C   0  0  0  0  0  3  0  0  0  0  0  0
  193.0150  174.3500  146.0300 C   0  0  0  0  0  3  0  0  0  0  0  0
  189.7730  173.8770  140.7350 C   0  0  0  0  0  0  0  0  0  0  0  0
  190.6520  172.8380  140.2050 C   0  0  0  0  0  0  0  0  0  0  0  0
  187.1080  176.5940  142.9870 C   0  0  1  0  0  3  0  0  0  0  0  0
  188.8800  176.9310  144.6280 N   0  0  0  0  0  2  0  0  0  0  0  0
  192.3740  171.3620  140.1160 C   0  0  0  0  0  0  0  0  0  0  0  0
  186.8470  178.2870  144.9230 C   0  0  2  0  0  3  0  0  0  0  0  0
  191.1370  175.8670  145.9430 C   0  0  0  0  0  3  0  0  0  0  0  0
  189.6830  175.9220  143.9930 C   0  0  0  0  0  0  0  0  0  0  0  0
  190.7930  175.3930  144.6670 C   0  0  0  0  0  0  0  0  0  0  0  0
  191.2390  173.8950  142.7880 C   0  0  0  0  0  0  0  0  0  0  0  0
  191.7100  171.2470  139.0080 N   0  0  0  0  0  0  0  0  0  0  0  0
  185.4890  178.5830  142.7450 C   0  0  0  0  0  2  0  0  0  0  0  0
  187.7910  177.5920  143.9240 C   0  0  2  0  0  3  0  0  0  0  0  0
  190.6160  172.1790  139.0550 C   0  0  0  0  0  3  0  0  0  0  0  0
  185.9090  177.1900  142.2470 C   0  0  0  0  0  2  0  0  0  0  0  0
  185.5110  177.5740  145.1170 C   0  0  1  0  0  3  0  0  0  0  0  0
  192.6840  173.8700  144.7620 C   0  0  0  0  0  3  0  0  0  0  0  0
  191.5740  174.3800  144.0660 C   0  0  0  0  0  0  0  0  0  0  0  0
  192.0810  172.8260  142.1650 C   0  0  0  0  0  3  0  0  0  0  0  0
  188.1390  176.0530  142.0070 C   0  0  0  0  0  2  0  0  0  0  0  0
  188.7870  174.2750  140.0580 O   0  0  0  0  0  0  0  0  0  0  0  0
  193.5830  170.5550  140.4370 C   0  0  0  0  0  1  0  0  0  0  0  0
  190.1010  174.4230  142.0970 C   0  0  0  0  0  0  0  0  0  0  0  0
  191.7670  172.3680  140.9600 C   0  0  0  0  0  0  0  0  0  0  0  0
  184.9570  177.9200  146.4850 C   0  0  0  0  0  2  0  0  0  0  0  0
  185.9960  177.6860  147.5240 C   0  0  0  0  0  0  0  0  0  0  0  0
  186.4970  176.4060  147.7300 O   0  0  0  0  0  0  0  0  0  0  0  0
  186.3980  178.6400  148.2390 O   0  0  0  0  0  1  0  0  0  0  0  0
  1 16  1  6  0  0  0
  1 10  1  0  0  0  0
  1 20  1  0  0  0  0
  2 12  1  0  0  0  0
  4  3  1  0  0  0  0
  5 27  1  0  0  0  0
  6  5  1  0  0  0  0
  6 28  1  0  0  0  0
  7 24  1  6  0  0  0
  7 17  1  0  0  0  0
  9 26  1  0  0  0  0
  9 28  1  0  0  0  0
 10 20  1  0  0  0  0
 11  3  2  0  0  0  0
 12  8  1  0  0  0  0
 12 13  2  0  0  0  0
 13 11  1  0  0  0  0
 14 22  2  0  0  0  0
 15 18  1  0  0  0  0
 15  9  2  0  0  0  0
 17  8  1  0  0  0  0
 17 10  1  0  0  0  0
 18  6  2  0  0  0  0
 19 16  1  0  0  0  0
 19  7  1  0  0  0  0
 20 29  1  0  0  0  0
 21  4  2  0  0  0  0
 22 13  1  0  0  0  0
 22 21  1  0  0  0  0
 23 14  1  0  0  0  0
 24  2  1  0  0  0  0
 25  5  2  0  0  0  0
 27  2  2  0  0  0  0
 27 14  1  0  0  0  0
 28 23  2  0  0  0  0
 29 30  1  0  0  0  0
 30 31  2  0  0  0  0
 30 32  1  0  0  0  0
M  END
>  <MODEL>
6

>  <REMARK>
 VINA RESULT:      -8.4      2.804      4.942
  Name = 
  2 active torsions:
  status: ('A' for Active; 'I' for Inactive)
    1  A    between atoms: C_20  and  C_29
    2  A    between atoms: C_29  and  C_30
                            x       y       z     vdW  Elec       q    Type
                         _______ _______ _______ _____ _____    ______ ____

>  <TORSDO>
F 2

$$$$
=
 OpenBabel11112416353D

 32 38  0  0  1  0  0  0  0  0999 V2000
  194.7840  174.5060  145.7430 C   0  0  1  0  0  3  0  0  0  0  0  0
  190.1100  176.0450  143.7940 C   0  0  0  0  0  0  0  0  0  0  0  0
  189.8540  173.4230  139.6900 C   0  0  0  0  0  3  0  0  0  0  0  0
  188.5620  173.8940  139.4610 C   0  0  0  0  0  3  0  0  0  0  0  0
  188.1320  177.4950  144.5230 C   0  0  0  0  0  0  0  0  0  0  0  0
  186.7800  177.9320  144.1850 C   0  0  0  0  0  0  0  0  0  0  0  0
  191.9590  175.4580  145.3940 C   0  0  1  0  0  3  0  0  0  0  0  0
  192.0180  174.6410  143.0980 N   0  0  0  0  0  2  0  0  0  0  0  0
  184.8360  178.1050  143.0260 C   0  0  0  0  0  0  0  0  0  0  0  0
  193.9930  174.1490  144.4820 C   0  0  2  0  0  3  0  0  0  0  0  0
  190.5590  173.8440  140.8190 C   0  0  0  0  0  3  0  0  0  0  0  0
  190.6970  175.1580  142.8620 C   0  0  0  0  0  0  0  0  0  0  0  0
  189.9800  174.7390  141.7320 C   0  0  0  0  0  0  0  0  0  0  0  0
  188.0770  176.1150  142.4120 C   0  0  0  0  0  0  0  0  0  0  0  0
  184.7270  178.8590  144.0760 N   0  0  0  0  0  0  0  0  0  0  0  0
  194.2770  175.7720  146.4730 C   0  0  0  0  0  2  0  0  0  0  0  0
  192.8440  175.1330  144.1900 C   0  0  2  0  0  3  0  0  0  0  0  0
  185.9540  178.7560  144.8180 C   0  0  0  0  0  2  0  0  0  0  0  0
  192.7530  175.9280  146.6140 C   0  0  0  0  0  2  0  0  0  0  0  0
  193.8080  173.3380  145.7630 C   0  0  1  0  0  3  0  0  0  0  0  0
  187.9750  174.7850  140.3610 C   0  0  0  0  0  3  0  0  0  0  0  0
  188.6700  175.2180  141.5040 C   0  0  0  0  0  0  0  0  0  0  0  0
  186.6920  176.6150  142.1510 C   0  0  0  0  0  2  0  0  0  0  0  0
  190.9290  176.4990  144.9820 C   0  0  0  0  0  2  0  0  0  0  0  0
  188.6870  177.9160  145.5740 O   0  0  0  0  0  0  0  0  0  0  0  0
  183.7600  177.9520  142.0100 C   0  0  0  0  0  1  0  0  0  0  0  0
  188.8000  176.5390  143.5740 C   0  0  0  0  0  0  0  0  0  0  0  0
  186.1310  177.4610  143.0060 C   0  0  0  0  0  0  0  0  0  0  0  0
  194.5800  172.0390  145.6440 C   0  0  0  0  0  2  0  0  0  0  0  0
  194.0690  171.2520  144.4890 C   0  0  0  0  0  0  0  0  0  0  0  0
  192.7120  170.9700  144.3850 O   0  0  0  0  0  1  0  0  0  0  0  0
  194.8700  170.8150  143.6220 O   0  0  0  0  0  0  0  0  0  0  0  0
  1 20  1  0  0  0  0
  1 16  1  1  0  0  0
  2 24  1  0  0  0  0
  3 11  1  0  0  0  0
  4  3  2  0  0  0  0
  4 21  1  0  0  0  0
  5 25  2  0  0  0  0
  6  5  1  0  0  0  0
  6 18  1  0  0  0  0
  7 24  1  6  0  0  0
  7 19  1  0  0  0  0
  8 17  1  0  0  0  0
  9 15  2  0  0  0  0
 10  1  1  0  0  0  0
 10 20  1  0  0  0  0
 11 13  2  0  0  0  0
 12  8  1  0  0  0  0
 12  2  2  0  0  0  0
 13 12  1  0  0  0  0
 14 27  2  0  0  0  0
 15 18  1  0  0  0  0
 16 19  1  0  0  0  0
 17 10  1  0  0  0  0
 17  7  1  0  0  0  0
 21 22  2  0  0  0  0
 22 13  1  0  0  0  0
 22 14  1  0  0  0  0
 23 14  1  0  0  0  0
 23 28  1  0  0  0  0
 26  9  1  0  0  0  0
 27  2  1  0  0  0  0
 27  5  1  0  0  0  0
 28  9  1  0  0  0  0
 28  6  2  0  0  0  0
 29 20  1  0  0  0  0
 30 29  1  0  0  0  0
 31 30  1  0  0  0  0
 32 30  2  0  0  0  0
M  END
>  <MODEL>
7

>  <REMARK>
 VINA RESULT:      -8.3      2.546      7.681
  Name = 
  2 active torsions:
  status: ('A' for Active; 'I' for Inactive)
    1  A    between atoms: C_20  and  C_29
    2  A    between atoms: C_29  and  C_30
                            x       y       z     vdW  Elec       q    Type
                         _______ _______ _______ _____ _____    ______ ____

>  <TORSDO>
F 2

$$$$
=
 OpenBabel11112416353D

 32 38  0  0  1  0  0  0  0  0999 V2000
  195.3820  174.2770  145.0550 C   0  0  1  0  0  3  0  0  0  0  0  0
  190.4550  176.2080  145.0890 C   0  0  0  0  0  0  0  0  0  0  0  0
  188.7020  174.4840  140.8780 C   0  0  0  0  0  3  0  0  0  0  0  0
  187.4430  174.9990  141.1820 C   0  0  0  0  0  3  0  0  0  0  0  0
  188.9270  177.4890  146.6940 C   0  0  0  0  0  0  0  0  0  0  0  0
  187.5730  177.9930  146.9110 C   0  0  0  0  0  0  0  0  0  0  0  0
  192.6720  175.2950  145.8470 C   0  0  1  0  0  3  0  0  0  0  0  0
  191.9300  174.9650  143.5480 N   0  0  0  0  0  2  0  0  0  0  0  0
  185.3780  178.4110  146.5140 C   0  0  0  0  0  0  0  0  0  0  0  0
  194.2040  174.1900  144.0820 C   0  0  2  0  0  3  0  0  0  0  0  0
  189.7620  174.6600  141.7700 C   0  0  0  0  0  3  0  0  0  0  0  0
  190.6440  175.5270  143.8640 C   0  0  0  0  0  0  0  0  0  0  0  0
  189.5740  175.3530  142.9760 C   0  0  0  0  0  0  0  0  0  0  0  0
  188.0960  176.5700  144.4960 C   0  0  0  0  0  0  0  0  0  0  0  0
  185.6670  178.9330  147.6650 N   0  0  0  0  0  0  0  0  0  0  0  0
  195.2310  175.3690  146.1390 C   0  0  0  0  0  2  0  0  0  0  0  0
  193.0970  175.2190  144.3800 C   0  0  2  0  0  3  0  0  0  0  0  0
  187.0570  178.6740  147.9260 C   0  0  0  0  0  2  0  0  0  0  0  0
  193.8490  175.5010  146.8020 C   0  0  0  0  0  2  0  0  0  0  0  0
  194.3820  173.1350  145.1710 C   0  0  1  0  0  3  0  0  0  0  0  0
  187.2430  175.6900  142.3790 C   0  0  0  0  0  3  0  0  0  0  0  0
  188.2980  175.8750  143.2890 C   0  0  0  0  0  0  0  0  0  0  0  0
  186.7400  177.1210  144.8070 C   0  0  0  0  0  2  0  0  0  0  0  0
  191.6430  176.4050  146.0050 C   0  0  0  0  0  2  0  0  0  0  0  0
  189.8190  177.6820  147.5630 O   0  0  0  0  0  0  0  0  0  0  0  0
  184.0240  178.4740  145.9000 C   0  0  0  0  0  1  0  0  0  0  0  0
  189.1830  176.7440  145.4140 C   0  0  0  0  0  0  0  0  0  0  0  0
  186.5470  177.7770  145.9440 C   0  0  0  0  0  0  0  0  0  0  0  0
  194.9780  171.8830  144.5580 C   0  0  0  0  0  2  0  0  0  0  0  0
  195.4250  170.9580  145.6350 C   0  0  0  0  0  0  0  0  0  0  0  0
  194.5620  169.9820  146.1150 O   0  0  0  0  0  0  0  0  0  0  0  0
  196.5740  171.0800  146.1330 O   0  0  0  0  0  1  0  0  0  0  0  0
  1 20  1  0  0  0  0
  1 16  1  1  0  0  0
  2 27  1  0  0  0  0
  2 24  1  0  0  0  0
  3  4  2  0  0  0  0
  3 11  1  0  0  0  0
  4 21  1  0  0  0  0
  5  6  1  0  0  0  0
  5 25  2  0  0  0  0
  6 18  1  0  0  0  0
  7 24  1  6  0  0  0
  7 19  1  0  0  0  0
  8 12  1  0  0  0  0
  8 17  1  0  0  0  0
  9 15  2  0  0  0  0
 10 17  1  0  0  0  0
 10  1  1  0  0  0  0
 10 20  1  0  0  0  0
 11 13  2  0  0  0  0
 12  2  2  0  0  0  0
 13 22  1  0  0  0  0
 13 12  1  0  0  0  0
 14 23  1  0  0  0  0
 14 27  2  0  0  0  0
 15 18  1  0  0  0  0
 16 19  1  0  0  0  0
 17  7  1  0  0  0  0
 21 22  2  0  0  0  0
 22 14  1  0  0  0  0
 23 28  1  0  0  0  0
 26  9  1  0  0  0  0
 27  5  1  0  0  0  0
 28  9  1  0  0  0  0
 28  6  2  0  0  0  0
 29 20  1  0  0  0  0
 29 30  1  0  0  0  0
 30 31  2  0  0  0  0
 30 32  1  0  0  0  0
M  END
>  <MODEL>
8

>  <REMARK>
 VINA RESULT:      -8.3      2.502      7.982
  Name = 
  2 active torsions:
  status: ('A' for Active; 'I' for Inactive)
    1  A    between atoms: C_20  and  C_29
    2  A    between atoms: C_29  and  C_30
                            x       y       z     vdW  Elec       q    Type
                         _______ _______ _______ _____ _____    ______ ____

>  <TORSDO>
F 2

$$$$
=
 OpenBabel11112416353D

 32 38  0  0  1  0  0  0  0  0999 V2000
  192.5310  170.3580  143.0030 C   0  0  1  0  0  3  0  0  0  0  0  0
  189.4290  174.5530  143.8910 C   0  0  0  0  0  0  0  0  0  0  0  0
  191.3400  176.3240  148.0130 C   0  0  0  0  0  3  0  0  0  0  0  0
  190.4760  177.4170  147.9530 C   0  0  0  0  0  3  0  0  0  0  0  0
  187.5460  175.8110  142.6980 C   0  0  0  0  0  0  0  0  0  0  0  0
  186.6840  176.9890  142.7340 C   0  0  0  0  0  0  0  0  0  0  0  0
  190.7350  172.7460  142.7270 C   0  0  1  0  0  3  0  0  0  0  0  0
  191.2510  173.3410  145.0340 N   0  0  0  0  0  2  0  0  0  0  0  0
  185.7930  178.9420  143.4720 C   0  0  0  0  0  0  0  0  0  0  0  0
  192.4780  171.4230  144.1010 C   0  0  2  0  0  3  0  0  0  0  0  0
  191.2910  175.3420  147.0220 C   0  0  0  0  0  3  0  0  0  0  0  0
  190.3340  174.4470  144.9720 C   0  0  0  0  0  0  0  0  0  0  0  0
  190.3780  175.4400  145.9610 C   0  0  0  0  0  0  0  0  0  0  0  0
  188.5830  176.6600  144.8350 C   0  0  0  0  0  0  0  0  0  0  0  0
  185.1730  178.6250  142.3780 N   0  0  0  0  0  0  0  0  0  0  0  0
  191.2680  170.3020  142.1130 C   0  0  0  0  0  2  0  0  0  0  0  0
  191.1660  172.2290  144.1000 C   0  0  2  0  0  3  0  0  0  0  0  0
  185.7310  177.3880  141.9020 C   0  0  0  0  0  3  0  0  0  0  0  0
  190.6760  171.6490  141.6630 C   0  0  0  0  0  2  0  0  0  0  0  0
  193.3420  171.6380  142.8610 C   0  0  1  0  0  3  0  0  0  0  0  0
  189.5640  177.5280  146.9020 C   0  0  0  0  0  3  0  0  0  0  0  0
  189.5020  176.5480  145.8960 C   0  0  0  0  0  0  0  0  0  0  0  0
  187.6600  177.8360  144.7860 C   0  0  0  0  0  3  0  0  0  0  0  0
  189.3890  173.4440  142.8630 C   0  0  0  0  0  2  0  0  0  0  0  0
  187.4420  174.9810  141.7550 O   0  0  0  0  0  0  0  0  0  0  0  0
  185.4920  180.1660  144.2630 C   0  0  0  0  0  1  0  0  0  0  0  0
  188.5390  175.6540  143.8160 C   0  0  0  0  0  0  0  0  0  0  0  0
  186.7920  177.9440  143.7880 C   0  0  0  0  0  0  0  0  0  0  0  0
  194.7900  171.3540  143.2080 C   0  0  0  0  0  2  0  0  0  0  0  0
  195.2820  172.3630  144.1850 C   0  0  0  0  0  0  0  0  0  0  0  0
  195.7330  171.9590  145.4350 O   0  0  0  0  0  1  0  0  0  0  0  0
  195.2600  173.5860  143.8900 O   0  0  0  0  0  0  0  0  0  0  0  0
  1 16  1  6  0  0  0
  1 10  1  0  0  0  0
  2 12  1  0  0  0  0
  4  3  1  0  0  0  0
  5  6  1  0  0  0  0
  5 27  1  0  0  0  0
  6 28  1  0  0  0  0
  7 19  1  6  0  0  0
  7 24  1  0  0  0  0
  7 17  1  0  0  0  0
  9 28  1  0  0  0  0
  9 26  1  0  0  0  0
 11  3  2  0  0  0  0
 12  8  1  0  0  0  0
 12 13  2  0  0  0  0
 13 11  1  0  0  0  0
 14 22  2  0  0  0  0
 15  9  2  0  0  0  0
 17 10  1  0  0  0  0
 17  8  1  0  0  0  0
 18 15  1  0  0  0  0
 18  6  2  0  0  0  0
 19 16  1  0  0  0  0
 20  1  1  0  0  0  0
 20 29  1  0  0  0  0
 20 10  1  0  0  0  0
 21  4  2  0  0  0  0
 22 13  1  0  0  0  0
 22 21  1  0  0  0  0
 23 14  1  0  0  0  0
 24  2  1  0  0  0  0
 25  5  2  0  0  0  0
 27  2  2  0  0  0  0
 27 14  1  0  0  0  0
 28 23  2  0  0  0  0
 29 30  1  0  0  0  0
 30 31  1  0  0  0  0
 32 30  2  0  0  0  0
M  END
>  <MODEL>
9

>  <REMARK>
 VINA RESULT:      -8.2      2.898      8.508
  Name = 
  2 active torsions:
  status: ('A' for Active; 'I' for Inactive)
    1  A    between atoms: C_20  and  C_29
    2  A    between atoms: C_29  and  C_30
                            x       y       z     vdW  Elec       q    Type
                         _______ _______ _______ _____ _____    ______ ____

>  <TORSDO>
F 2

$$$$
