=
 OpenBabel11112417243D

 37 44  0  0  1  0  0  0  0  0999 V2000
  189.7030  174.7120  143.2440 C   0  0  0  0  0  2  0  0  0  0  0  0
  190.8740  176.4960  147.1940 C   0  0  0  0  0  0  0  0  0  0  0  0
  187.2640  177.9450  145.5420 C   0  0  0  0  0  0  0  0  0  0  0  0
  190.6580  174.1870  142.2630 N   0  0  0  0  0  0  0  0  0  0  0  0
  186.1480  176.4490  142.2810 O   0  0  0  0  0  0  0  0  0  0  0  0
  188.7870  177.9600  147.4510 C   0  0  0  0  0  0  0  0  0  0  0  0
  187.3210  177.4660  144.2870 C   0  0  0  0  0  0  0  0  0  0  0  0
  188.6130  174.0360  140.8470 C   0  0  0  0  0  0  0  0  0  0  0  0
  188.5220  177.7210  146.1770 C   0  0  0  0  0  0  0  0  0  0  0  0
  186.1780  177.4420  143.2800 C   0  0  0  0  0  0  0  0  0  0  0  0
  187.7250  178.5980  148.3220 C   0  0  0  0  0  2  0  0  0  0  0  0
  190.1130  174.1190  140.8970 C   0  0  0  0  0  2  0  0  0  0  0  0
  189.3830  177.0530  145.2630 C   0  0  0  0  0  0  0  0  0  0  0  0
  190.2740  175.1640  147.6160 C   0  0  0  0  0  1  0  0  0  0  0  0
  184.8620  178.8830  145.7010 C   0  0  0  0  0  2  0  0  0  0  0  0
  186.3980  178.8610  147.6080 C   0  0  0  0  0  3  0  0  0  0  0  0
  190.7700  176.6420  145.6550 C   0  0  0  0  0  2  0  0  0  0  0  0
  187.7950  175.2930  140.8760 C   0  0  1  0  0  3  0  0  0  0  0  0
  187.2030  175.5250  142.1790 C   0  0  1  0  0  3  0  0  0  0  0  0
  186.1760  178.5640  146.3150 C   0  0  0  0  0  0  0  0  0  0  0  0
  188.7130  176.8750  144.1250 C   0  0  0  0  0  0  0  0  0  0  0  0
  190.1730  177.6480  147.9670 C   0  0  0  0  0  2  0  0  0  0  0  0
  185.1600  178.3430  143.3000 C   0  0  0  0  0  0  0  0  0  0  0  0
  192.3400  176.4890  147.5720 C   0  0  0  0  0  1  0  0  0  0  0  0
  188.3690  176.3340  141.7710 N   0  0  1  0  0  0  0  0  0  0  0  0
  188.0640  172.9480  140.7890 O   0  0  0  0  0  0  0  0  0  0  0  0
  189.2840  176.1580  142.9130 C   0  0  2  0  0  3  0  0  0  0  0  0
  185.0880  179.4480  144.3130 C   0  0  0  0  0  2  0  0  0  0  0  0
  184.3450  177.9770  140.9630 C   0  0  0  0  0  3  0  0  0  0  0  0
  184.0610  178.3080  142.2980 C   0  0  0  0  0  0  0  0  0  0  0  0
  182.7270  178.5480  142.6670 C   0  0  0  0  0  3  0  0  0  0  0  0
  180.0490  178.7960  142.1940 Cl  0  0  0  0  0  0  0  0  0  0  0  0
  182.0020  178.1640  140.3910 C   0  0  0  0  0  3  0  0  0  0  0  0
  181.7040  178.4820  141.7170 C   0  0  0  0  0  0  0  0  0  0  0  0
  183.3220  177.9110  140.0140 C   0  0  0  0  0  3  0  0  0  0  0  0
  190.4000  172.5410  144.0350 C   0  0  0  0  0  1  0  0  0  0  0  0
  190.9830  172.8280  142.6650 C   0  0  0  0  0  2  0  0  0  0  0  0
  2 24  1  0  0  0  0
  2 14  1  0  0  0  0
  2 22  1  0  0  0  0
  3  9  1  0  0  0  0
  3 20  1  0  0  0  0
  4 37  1  0  0  0  0
  4  1  1  0  0  0  0
  5 10  1  0  0  0  0
  6 22  1  0  0  0  0
  6 11  1  0  0  0  0
  7  3  2  0  0  0  0
  8 12  1  0  0  0  0
  9  6  2  0  0  0  0
 10 23  2  0  0  0  0
 10  7  1  0  0  0  0
 12  4  1  0  0  0  0
 13 17  1  0  0  0  0
 13  9  1  0  0  0  0
 15 20  1  0  0  0  0
 16 11  1  0  0  0  0
 17  2  1  0  0  0  0
 18  8  1  1  0  0  0
 18 25  1  0  0  0  0
 18 19  1  0  0  0  0
 19  5  1  6  0  0  0
 20 16  2  0  0  0  0
 21  7  1  0  0  0  0
 21 13  2  0  0  0  0
 23 28  1  0  0  0  0
 25 19  1  0  0  0  0
 25 27  1  0  0  0  0
 26  8  2  0  0  0  0
 27  1  1  0  0  0  0
 27 21  1  0  0  0  0
 28 15  1  0  0  0  0
 29 30  1  0  0  0  0
 30 31  2  0  0  0  0
 30 23  1  0  0  0  0
 33 34  2  0  0  0  0
 34 32  1  0  0  0  0
 34 31  1  0  0  0  0
 35 33  1  0  0  0  0
 35 29  2  0  0  0  0
 37 36  1  0  0  0  0
M  END
>  <MODEL>
1

>  <REMARK>
 VINA RESULT:      -9.9      0.000      0.000
  Name = 
  2 active torsions:
  status: ('A' for Active; 'I' for Inactive)
    1  A    between atoms: N_4  and  C_37
    2  A    between atoms: C_23  and  C_30
                            x       y       z     vdW  Elec       q    Type
                         _______ _______ _______ _____ _____    ______ ____

>  <TORSDO>
F 2

$$$$
=
 OpenBabel11112417243D

 37 44  0  0  1  0  0  0  0  0999 V2000
  191.0010  173.2780  141.2920 C   0  0  0  0  0  2  0  0  0  0  0  0
  195.0770  173.8680  143.0780 C   0  0  0  0  0  0  0  0  0  0  0  0
  191.9210  175.8710  145.0500 C   0  0  0  0  0  0  0  0  0  0  0  0
  190.7570  172.9970  139.8740 N   0  0  0  0  0  0  0  0  0  0  0  0
  188.4550  175.3680  143.6870 O   0  0  0  0  0  0  0  0  0  0  0  0
  194.2950  175.2990  145.0540 C   0  0  0  0  0  0  0  0  0  0  0  0
  190.9180  175.7490  144.1620 C   0  0  0  0  0  0  0  0  0  0  0  0
  188.3840  173.3270  140.5590 C   0  0  0  0  0  0  0  0  0  0  0  0
  193.1310  175.4270  144.4380 C   0  0  0  0  0  0  0  0  0  0  0  0
  189.4470  176.0500  144.4200 C   0  0  0  0  0  0  0  0  0  0  0  0
  194.4170  175.7230  146.5030 C   0  0  0  0  0  2  0  0  0  0  0  0
  189.3890  173.3270  139.4410 C   0  0  0  0  0  2  0  0  0  0  0  0
  192.8430  174.9940  143.1140 C   0  0  0  0  0  0  0  0  0  0  0  0
  194.6920  172.5000  143.6180 C   0  0  0  0  0  1  0  0  0  0  0  0
  190.7410  176.8370  147.1350 C   0  0  0  0  0  2  0  0  0  0  0  0
  193.1140  176.2290  147.1250 C   0  0  0  0  0  3  0  0  0  0  0  0
  193.9110  174.4320  142.2270 C   0  0  0  0  0  2  0  0  0  0  0  0
  188.1860  174.5650  141.3840 C   0  0  1  0  0  3  0  0  0  0  0  0
  188.8280  174.4600  142.6800 C   0  0  1  0  0  3  0  0  0  0  0  0
  191.9500  176.3050  146.4540 C   0  0  0  0  0  0  0  0  0  0  0  0
  191.5380  175.1620  142.9040 C   0  0  0  0  0  0  0  0  0  0  0  0
  195.4780  174.7970  144.2580 C   0  0  0  0  0  2  0  0  0  0  0  0
  189.0320  176.9560  145.3450 C   0  0  0  0  0  0  0  0  0  0  0  0
  196.2820  173.6940  142.1780 C   0  0  0  0  0  1  0  0  0  0  0  0
  189.4570  175.2970  141.6380 N   0  0  1  0  0  0  0  0  0  0  0  0
  187.7360  172.3220  140.7960 O   0  0  0  0  0  0  0  0  0  0  0  0
  190.8360  174.7770  141.6130 C   0  0  2  0  0  3  0  0  0  0  0  0
  189.9950  177.7460  146.1800 C   0  0  0  0  0  2  0  0  0  0  0  0
  186.8860  176.5450  146.5640 C   0  0  0  0  0  3  0  0  0  0  0  0
  187.5900  177.2440  145.5700 C   0  0  0  0  0  0  0  0  0  0  0  0
  186.9220  178.2430  144.8420 C   0  0  0  0  0  3  0  0  0  0  0  0
  184.7550  179.7590  144.1620 Cl  0  0  0  0  0  0  0  0  0  0  0  0
  184.8820  177.8090  146.0700 C   0  0  0  0  0  3  0  0  0  0  0  0
  185.5740  178.5190  145.0870 C   0  0  0  0  0  0  0  0  0  0  0  0
  185.5380  176.8230  146.8090 C   0  0  0  0  0  3  0  0  0  0  0  0
  191.2400  170.9020  141.0110 C   0  0  0  0  0  1  0  0  0  0  0  0
  190.9350  171.5670  139.6820 C   0  0  0  0  0  2  0  0  0  0  0  0
  1 27  1  0  0  0  0
  2 14  1  0  0  0  0
  2 22  1  0  0  0  0
  3 20  1  0  0  0  0
  4  1  1  0  0  0  0
  5 10  1  0  0  0  0
  6 11  1  0  0  0  0
  7 10  1  0  0  0  0
  7  3  2  0  0  0  0
  8 26  2  0  0  0  0
  9  3  1  0  0  0  0
  9  6  2  0  0  0  0
 10 23  2  0  0  0  0
 11 16  1  0  0  0  0
 12  4  1  0  0  0  0
 12  8  1  0  0  0  0
 13  9  1  0  0  0  0
 17  2  1  0  0  0  0
 17 13  1  0  0  0  0
 18  8  1  6  0  0  0
 18 25  1  0  0  0  0
 18 19  1  0  0  0  0
 19  5  1  1  0  0  0
 20 16  2  0  0  0  0
 20 15  1  0  0  0  0
 21 13  2  0  0  0  0
 21  7  1  0  0  0  0
 22  6  1  0  0  0  0
 23 30  1  0  0  0  0
 23 28  1  0  0  0  0
 24  2  1  0  0  0  0
 25 19  1  0  0  0  0
 27 25  1  0  0  0  0
 27 21  1  0  0  0  0
 28 15  1  0  0  0  0
 29 35  1  0  0  0  0
 30 29  2  0  0  0  0
 31 34  2  0  0  0  0
 31 30  1  0  0  0  0
 32 34  1  0  0  0  0
 33 35  2  0  0  0  0
 34 33  1  0  0  0  0
 37  4  1  0  0  0  0
 37 36  1  0  0  0  0
M  END
>  <MODEL>
2

>  <REMARK>
 VINA RESULT:      -9.8      2.528      4.963
  Name = 
  2 active torsions:
  status: ('A' for Active; 'I' for Inactive)
    1  A    between atoms: N_4  and  C_37
    2  A    between atoms: C_23  and  C_30
                            x       y       z     vdW  Elec       q    Type
                         _______ _______ _______ _____ _____    ______ ____

>  <TORSDO>
F 2

$$$$
=
 OpenBabel11112417243D

 37 44  0  0  1  0  0  0  0  0999 V2000
  190.7540  172.8910  141.3020 C   0  0  0  0  0  2  0  0  0  0  0  0
  193.8500  173.0270  144.5500 C   0  0  0  0  0  0  0  0  0  0  0  0
  190.5060  175.5480  145.1180 C   0  0  0  0  0  0  0  0  0  0  0  0
  191.0440  172.5640  139.9030 N   0  0  0  0  0  0  0  0  0  0  0  0
  187.8130  175.4400  142.5000 O   0  0  0  0  0  0  0  0  0  0  0  0
  192.5790  174.6620  146.0580 C   0  0  0  0  0  0  0  0  0  0  0  0
  189.9230  175.5110  143.9080 C   0  0  0  0  0  0  0  0  0  0  0  0
  188.6680  173.2500  139.5970 C   0  0  0  0  0  0  0  0  0  0  0  0
  191.7800  174.9110  145.0340 C   0  0  0  0  0  0  0  0  0  0  0  0
  188.5290  176.0230  143.5650 C   0  0  0  0  0  0  0  0  0  0  0  0
  192.1870  175.1490  147.4380 C   0  0  0  0  0  2  0  0  0  0  0  0
  190.0180  173.0500  138.9660 C   0  0  0  0  0  2  0  0  0  0  0  0
  191.9710  174.4450  143.7030 C   0  0  0  0  0  0  0  0  0  0  0  0
  193.0890  171.7570  144.8950 C   0  0  0  0  0  1  0  0  0  0  0  0
  188.7620  176.7830  146.5710 C   0  0  0  0  0  2  0  0  0  0  0  0
  190.8340  175.8610  147.4960 C   0  0  0  0  0  3  0  0  0  0  0  0
  193.2050  173.6930  143.3080 C   0  0  0  0  0  2  0  0  0  0  0  0
  188.3490  174.5490  140.2770 C   0  0  1  0  0  3  0  0  0  0  0  0
  188.4110  174.4330  141.7220 C   0  0  1  0  0  3  0  0  0  0  0  0
  190.0490  176.0540  146.4210 C   0  0  0  0  0  0  0  0  0  0  0  0
  190.8910  174.7750  142.9960 C   0  0  0  0  0  0  0  0  0  0  0  0
  193.8910  173.9610  145.7930 C   0  0  0  0  0  2  0  0  0  0  0  0
  187.9240  177.0280  144.2520 C   0  0  0  0  0  0  0  0  0  0  0  0
  195.2710  172.6400  144.1980 C   0  0  0  0  0  1  0  0  0  0  0  0
  189.5120  175.1160  141.0120 N   0  0  1  0  0  0  0  0  0  0  0  0
  187.8390  172.3570  139.5590 O   0  0  0  0  0  0  0  0  0  0  0  0
  190.6990  174.4140  141.5320 C   0  0  2  0  0  3  0  0  0  0  0  0
  188.5900  177.7280  145.3990 C   0  0  0  0  0  2  0  0  0  0  0  0
  185.6470  177.8370  144.9020 C   0  0  0  0  0  3  0  0  0  0  0  0
  186.5670  177.5210  143.8900 C   0  0  0  0  0  0  0  0  0  0  0  0
  186.1990  177.7290  142.5500 C   0  0  0  0  0  3  0  0  0  0  0  0
  184.4850  178.4620  140.5550 Cl  0  0  0  0  0  0  0  0  0  0  0  0
  184.0200  178.5190  143.2460 C   0  0  0  0  0  3  0  0  0  0  0  0
  184.9300  178.2200  142.2300 C   0  0  0  0  0  0  0  0  0  0  0  0
  184.3790  178.3280  144.5820 C   0  0  0  0  0  3  0  0  0  0  0  0
  190.7820  170.4920  141.1500 C   0  0  0  0  0  1  0  0  0  0  0  0
  191.0710  171.1140  139.7970 C   0  0  0  0  0  2  0  0  0  0  0  0
  1 27  1  0  0  0  0
  2 14  1  0  0  0  0
  2 22  1  0  0  0  0
  3 20  1  0  0  0  0
  4  1  1  0  0  0  0
  5 10  1  0  0  0  0
  6 11  1  0  0  0  0
  7  3  2  0  0  0  0
  9  3  1  0  0  0  0
  9  6  2  0  0  0  0
 10  7  1  0  0  0  0
 10 23  2  0  0  0  0
 11 16  1  0  0  0  0
 12  8  1  0  0  0  0
 12  4  1  0  0  0  0
 13  9  1  0  0  0  0
 17 13  1  0  0  0  0
 17  2  1  0  0  0  0
 18  8  1  6  0  0  0
 18 25  1  0  0  0  0
 18 19  1  0  0  0  0
 19  5  1  1  0  0  0
 20 15  1  0  0  0  0
 20 16  2  0  0  0  0
 21 13  2  0  0  0  0
 21  7  1  0  0  0  0
 22  6  1  0  0  0  0
 23 28  1  0  0  0  0
 24  2  1  0  0  0  0
 25 27  1  0  0  0  0
 25 19  1  0  0  0  0
 26  8  2  0  0  0  0
 27 21  1  0  0  0  0
 28 15  1  0  0  0  0
 30 23  1  0  0  0  0
 30 29  2  0  0  0  0
 31 30  1  0  0  0  0
 32 34  1  0  0  0  0
 33 35  2  0  0  0  0
 34 31  2  0  0  0  0
 34 33  1  0  0  0  0
 35 29  1  0  0  0  0
 37  4  1  0  0  0  0
 37 36  1  0  0  0  0
M  END
>  <MODEL>
3

>  <REMARK>
 VINA RESULT:      -9.3      2.096      3.871
  Name = 
  2 active torsions:
  status: ('A' for Active; 'I' for Inactive)
    1  A    between atoms: N_4  and  C_37
    2  A    between atoms: C_23  and  C_30
                            x       y       z     vdW  Elec       q    Type
                         _______ _______ _______ _____ _____    ______ ____

>  <TORSDO>
F 2

$$$$
=
 OpenBabel11112417243D

 37 44  0  0  1  0  0  0  0  0999 V2000
  188.9420  174.7530  141.1390 C   0  0  0  0  0  2  0  0  0  0  0  0
  186.3000  177.3090  143.7150 C   0  0  0  0  0  0  0  0  0  0  0  0
  189.9210  176.0600  145.4990 C   0  0  0  0  0  0  0  0  0  0  0  0
  188.4510  173.8760  140.0710 N   0  0  0  0  0  0  0  0  0  0  0  0
  192.2460  173.9910  143.3930 O   0  0  0  0  0  0  0  0  0  0  0  0
  187.9030  177.4190  145.7100 C   0  0  0  0  0  0  0  0  0  0  0  0
  190.3440  175.1180  144.6380 C   0  0  0  0  0  0  0  0  0  0  0  0
  190.8260  173.1250  140.0480 C   0  0  0  0  0  0  0  0  0  0  0  0
  188.5900  176.4370  145.1500 C   0  0  0  0  0  0  0  0  0  0  0  0
  191.7280  174.4820  144.6090 C   0  0  0  0  0  0  0  0  0  0  0  0
  188.5090  178.1770  146.8730 C   0  0  0  0  0  2  0  0  0  0  0  0
  189.3960  172.8060  139.7140 C   0  0  0  0  0  2  0  0  0  0  0  0
  188.1910  175.6970  144.0020 C   0  0  0  0  0  0  0  0  0  0  0  0
  186.9680  178.3450  142.8250 C   0  0  0  0  0  1  0  0  0  0  0  0
  191.9440  176.3590  147.0780 C   0  0  0  0  0  2  0  0  0  0  0  0
  189.9220  177.7300  147.2510 C   0  0  0  0  0  3  0  0  0  0  0  0
  186.8490  175.9020  143.3690 C   0  0  0  0  0  2  0  0  0  0  0  0
  191.3540  172.8330  141.4220 C   0  0  1  0  0  3  0  0  0  0  0  0
  191.4600  174.0340  142.2280 C   0  0  1  0  0  3  0  0  0  0  0  0
  190.5840  176.7430  146.6200 C   0  0  0  0  0  0  0  0  0  0  0  0
  189.2020  174.9010  143.6580 C   0  0  0  0  0  0  0  0  0  0  0  0
  186.5060  177.6970  145.2060 C   0  0  0  0  0  2  0  0  0  0  0  0
  192.5100  174.3680  145.7150 C   0  0  0  0  0  0  0  0  0  0  0  0
  184.8150  177.3260  143.4180 C   0  0  0  0  0  1  0  0  0  0  0  0
  190.3520  173.0930  142.4920 N   0  0  1  0  0  0  0  0  0  0  0  0
  191.5520  173.6250  139.2050 O   0  0  0  0  0  0  0  0  0  0  0  0
  189.1750  173.9780  142.4500 C   0  0  2  0  0  3  0  0  0  0  0  0
  192.0630  174.8490  147.0640 C   0  0  0  0  0  2  0  0  0  0  0  0
  195.0060  174.5270  145.7550 C   0  0  0  0  0  3  0  0  0  0  0  0
  193.8530  173.7310  145.6650 C   0  0  0  0  0  0  0  0  0  0  0  0
  193.9980  172.3350  145.5830 C   0  0  0  0  0  3  0  0  0  0  0  0
  195.4280  170.0130  145.4520 Cl  0  0  0  0  0  0  0  0  0  0  0  0
  196.4060  172.5560  145.6440 C   0  0  0  0  0  3  0  0  0  0  0  0
  195.2670  171.7520  145.5660 C   0  0  0  0  0  0  0  0  0  0  0  0
  196.2760  173.9430  145.7390 C   0  0  0  0  0  3  0  0  0  0  0  0
  188.3160  173.8350  137.6430 C   0  0  0  0  0  1  0  0  0  0  0  0
  188.2670  174.7010  138.8870 C   0  0  0  0  0  2  0  0  0  0  0  0
  1 27  1  0  0  0  0
  2 22  1  0  0  0  0
  3 20  1  0  0  0  0
  4  1  1  0  0  0  0
  5 10  1  0  0  0  0
  6 11  1  0  0  0  0
  7  3  2  0  0  0  0
  9  3  1  0  0  0  0
  9  6  2  0  0  0  0
 10  7  1  0  0  0  0
 10 23  2  0  0  0  0
 11 16  1  0  0  0  0
 12  8  1  0  0  0  0
 12  4  1  0  0  0  0
 13  9  1  0  0  0  0
 14  2  1  0  0  0  0
 17  2  1  0  0  0  0
 17 13  1  0  0  0  0
 18  8  1  6  0  0  0
 18 19  1  0  0  0  0
 18 25  1  0  0  0  0
 19 25  1  0  0  0  0
 19  5  1  1  0  0  0
 20 15  1  0  0  0  0
 20 16  2  0  0  0  0
 21 13  2  0  0  0  0
 21  7  1  0  0  0  0
 22  6  1  0  0  0  0
 23 28  1  0  0  0  0
 24  2  1  0  0  0  0
 26  8  2  0  0  0  0
 27 25  1  0  0  0  0
 27 21  1  0  0  0  0
 28 15  1  0  0  0  0
 30 23  1  0  0  0  0
 30 29  2  0  0  0  0
 31 30  1  0  0  0  0
 32 34  1  0  0  0  0
 33 35  2  0  0  0  0
 34 31  2  0  0  0  0
 34 33  1  0  0  0  0
 35 29  1  0  0  0  0
 36 37  1  0  0  0  0
 37  4  1  0  0  0  0
M  END
>  <MODEL>
4

>  <REMARK>
 VINA RESULT:      -9.2      3.904      7.791
  Name = 
  2 active torsions:
  status: ('A' for Active; 'I' for Inactive)
    1  A    between atoms: N_4  and  C_37
    2  A    between atoms: C_23  and  C_30
                            x       y       z     vdW  Elec       q    Type
                         _______ _______ _______ _____ _____    ______ ____

>  <TORSDO>
F 2

$$$$
=
 OpenBabel11112417243D

 37 44  0  0  1  0  0  0  0  0999 V2000
  194.1450  174.9190  143.8080 C   0  0  0  0  0  2  0  0  0  0  0  0
  193.6800  172.4490  140.0880 C   0  0  0  0  0  0  0  0  0  0  0  0
  190.1400  174.2530  141.5280 C   0  0  0  0  0  0  0  0  0  0  0  0
  195.1720  174.6840  144.8280 N   0  0  0  0  0  0  0  0  0  0  0  0
  190.4390  176.4160  144.5860 O   0  0  0  0  0  0  0  0  0  0  0  0
  191.1880  172.9410  139.7550 C   0  0  0  0  0  0  0  0  0  0  0  0
  190.5170  174.6660  142.7510 C   0  0  2  0  0  3  0  0  0  0  0  0
  193.8720  176.4170  146.0600 C   0  0  0  0  0  0  0  0  0  0  0  0
  191.1690  173.4270  140.9850 C   0  0  0  0  0  0  0  0  0  0  0  0
  189.7430  175.6160  143.6570 C   0  0  0  0  0  0  0  0  0  0  0  0
  190.0050  173.1880  138.8420 C   0  0  0  0  0  3  0  0  0  0  0  0
  194.8360  175.2670  146.1380 C   0  0  0  0  0  2  0  0  0  0  0  0
  192.2370  173.3510  141.9220 C   0  0  0  0  0  0  0  0  0  0  0  0
  194.2460  173.7470  139.5350 C   0  0  0  0  0  1  0  0  0  0  0  0
  187.8150  175.3410  141.2340 C   0  0  0  0  0  2  0  0  0  0  0  0
  188.8980  174.0450  139.4600 C   0  0  0  0  0  3  0  0  0  0  0  0
  193.4870  172.5830  141.6200 C   0  0  0  0  0  2  0  0  0  0  0  0
  192.3950  176.1520  146.0450 C   0  0  1  0  0  3  0  0  0  0  0  0
  191.8330  176.2900  144.7140 C   0  0  1  0  0  3  0  0  0  0  0  0
  188.9520  174.5410  140.7100 C   0  0  0  0  0  0  0  0  0  0  0  0
  191.8970  174.0750  142.9880 C   0  0  0  0  0  0  0  0  0  0  0  0
  192.3670  172.0940  139.3350 C   0  0  0  0  0  2  0  0  0  0  0  0
  188.3900  175.7390  143.6110 C   0  0  0  0  0  0  0  0  0  0  0  0
  194.6900  171.3510  139.8300 C   0  0  0  0  0  1  0  0  0  0  0  0
  192.0360  174.9350  145.2660 N   0  0  1  0  0  0  0  0  0  0  0  0
  194.2900  177.5610  146.0030 O   0  0  0  0  0  0  0  0  0  0  0  0
  192.8000  174.2730  144.1940 C   0  0  2  0  0  3  0  0  0  0  0  0
  187.5440  174.9360  142.6690 C   0  0  0  0  0  2  0  0  0  0  0  0
  187.6350  176.4160  145.8990 C   0  0  0  0  0  3  0  0  0  0  0  0
  187.6560  176.6640  144.5160 C   0  0  0  0  0  0  0  0  0  0  0  0
  187.0210  177.8170  144.0260 C   0  0  0  0  0  3  0  0  0  0  0  0
  185.5660  180.1160  144.2630 Cl  0  0  0  0  0  0  0  0  0  0  0  0
  186.3370  178.4250  146.2650 C   0  0  0  0  0  3  0  0  0  0  0  0
  186.3600  178.6890  144.8950 C   0  0  0  0  0  0  0  0  0  0  0  0
  186.9740  177.2890  146.7680 C   0  0  0  0  0  3  0  0  0  0  0  0
  196.1120  176.1140  143.0990 C   0  0  0  0  0  1  0  0  0  0  0  0
  196.3900  175.3320  144.3690 C   0  0  0  0  0  2  0  0  0  0  0  0
  1 27  1  0  0  0  0
  1  4  1  0  0  0  0
  2 17  1  0  0  0  0
  4 12  1  0  0  0  0
  6  9  1  0  0  0  0
  7  3  1  6  0  0  0
  7 21  1  0  0  0  0
  7 10  1  0  0  0  0
  8 12  1  0  0  0  0
  9  3  2  0  0  0  0
  9 13  1  0  0  0  0
 10  5  1  0  0  0  0
 11 16  1  0  0  0  0
 11  6  2  0  0  0  0
 13 21  2  0  0  0  0
 14  2  1  0  0  0  0
 15 28  1  0  0  0  0
 16 20  2  0  0  0  0
 17 13  1  0  0  0  0
 18  8  1  6  0  0  0
 19  5  1  1  0  0  0
 19 25  1  0  0  0  0
 19 18  1  0  0  0  0
 20 15  1  0  0  0  0
 20  3  1  0  0  0  0
 21 27  1  0  0  0  0
 22  6  1  0  0  0  0
 22  2  1  0  0  0  0
 23 10  2  0  0  0  0
 23 30  1  0  0  0  0
 24  2  1  0  0  0  0
 25 18  1  0  0  0  0
 26  8  2  0  0  0  0
 27 25  1  0  0  0  0
 28 23  1  0  0  0  0
 29 35  1  0  0  0  0
 30 29  2  0  0  0  0
 31 30  1  0  0  0  0
 31 34  2  0  0  0  0
 32 34  1  0  0  0  0
 33 35  2  0  0  0  0
 34 33  1  0  0  0  0
 36 37  1  0  0  0  0
 37  4  1  0  0  0  0
M  END
>  <MODEL>
5

>  <REMARK>
 VINA RESULT:      -9.1      3.251      6.915
  Name = 
  2 active torsions:
  status: ('A' for Active; 'I' for Inactive)
    1  A    between atoms: N_4  and  C_37
    2  A    between atoms: C_23  and  C_30
                            x       y       z     vdW  Elec       q    Type
                         _______ _______ _______ _____ _____    ______ ____

>  <TORSDO>
F 2

$$$$
=
 OpenBabel11112417243D

 37 44  0  0  1  0  0  0  0  0999 V2000
  189.1010  174.5240  140.9450 C   0  0  0  0  0  2  0  0  0  0  0  0
  186.5960  177.2600  143.4720 C   0  0  0  0  0  0  0  0  0  0  0  0
  190.1480  175.8560  145.2820 C   0  0  0  0  0  0  0  0  0  0  0  0
  188.5640  173.6550  139.8930 N   0  0  0  0  0  0  0  0  0  0  0  0
  192.3600  173.6300  143.2150 O   0  0  0  0  0  0  0  0  0  0  0  0
  188.2030  177.3220  145.4670 C   0  0  0  0  0  0  0  0  0  0  0  0
  190.5200  174.8780  144.4380 C   0  0  0  0  0  0  0  0  0  0  0  0
  190.8970  172.7800  139.8850 C   0  0  0  0  0  0  0  0  0  0  0  0
  188.8380  176.2960  144.9250 C   0  0  0  0  0  0  0  0  0  0  0  0
  191.8700  174.1700  144.4210 C   0  0  0  0  0  0  0  0  0  0  0  0
  188.8480  178.0690  146.6160 C   0  0  0  0  0  2  0  0  0  0  0  0
  189.4520  172.5300  139.5560 C   0  0  0  0  0  2  0  0  0  0  0  0
  188.4000  175.5570  143.7900 C   0  0  0  0  0  0  0  0  0  0  0  0
  187.3180  178.2440  142.5650 C   0  0  0  0  0  1  0  0  0  0  0  0
  192.1840  176.0770  146.8560 C   0  0  0  0  0  2  0  0  0  0  0  0
  190.2360  177.5540  147.0040 C   0  0  0  0  0  3  0  0  0  0  0  0
  187.0710  175.8210  143.1520 C   0  0  0  0  0  2  0  0  0  0  0  0
  191.4090  172.4860  141.2640 C   0  0  1  0  0  3  0  0  0  0  0  0
  191.5780  173.6940  142.0490 C   0  0  1  0  0  3  0  0  0  0  0  0
  190.8450  176.5240  146.3910 C   0  0  0  0  0  0  0  0  0  0  0  0
  189.3690  174.7030  143.4610 C   0  0  0  0  0  0  0  0  0  0  0  0
  186.8220  177.6630  144.9570 C   0  0  0  0  0  2  0  0  0  0  0  0
  192.6440  174.0350  145.5300 C   0  0  0  0  0  0  0  0  0  0  0  0
  185.1140  177.3490  143.1740 C   0  0  0  0  0  1  0  0  0  0  0  0
  190.4220  172.8170  142.3280 N   0  0  1  0  0  0  0  0  0  0  0  0
  191.6480  173.2270  139.0340 O   0  0  0  0  0  0  0  0  0  0  0  0
  189.2930  173.7620  142.2700 C   0  0  2  0  0  3  0  0  0  0  0  0
  192.2240  174.5630  146.8700 C   0  0  0  0  0  2  0  0  0  0  0  0
  193.9910  171.9280  145.5950 C   0  0  0  0  0  3  0  0  0  0  0  0
  193.9520  173.3280  145.4920 C   0  0  0  0  0  0  0  0  0  0  0  0
  195.1560  174.0260  145.3010 C   0  0  0  0  0  3  0  0  0  0  0  0
  197.8640  174.2310  145.0120 Cl  0  0  0  0  0  0  0  0  0  0  0  0
  196.3990  171.9510  145.3550 C   0  0  0  0  0  3  0  0  0  0  0  0
  196.3730  173.3420  145.2390 C   0  0  0  0  0  0  0  0  0  0  0  0
  195.2090  171.2440  145.5320 C   0  0  0  0  0  3  0  0  0  0  0  0
  188.5210  173.5880  137.4620 C   0  0  0  0  0  1  0  0  0  0  0  0
  188.4230  174.4660  138.6940 C   0  0  0  0  0  2  0  0  0  0  0  0
  1 27  1  0  0  0  0
  2 22  1  0  0  0  0
  3 20  1  0  0  0  0
  4  1  1  0  0  0  0
  5 10  1  0  0  0  0
  6 11  1  0  0  0  0
  7  3  2  0  0  0  0
  9  3  1  0  0  0  0
  9  6  2  0  0  0  0
 10  7  1  0  0  0  0
 10 23  2  0  0  0  0
 11 16  1  0  0  0  0
 12  8  1  0  0  0  0
 12  4  1  0  0  0  0
 13  9  1  0  0  0  0
 14  2  1  0  0  0  0
 15 28  1  0  0  0  0
 17  2  1  0  0  0  0
 17 13  1  0  0  0  0
 18  8  1  6  0  0  0
 18 19  1  0  0  0  0
 18 25  1  0  0  0  0
 19 25  1  0  0  0  0
 19  5  1  1  0  0  0
 20 15  1  0  0  0  0
 20 16  2  0  0  0  0
 21 13  2  0  0  0  0
 21  7  1  0  0  0  0
 22  6  1  0  0  0  0
 23 28  1  0  0  0  0
 24  2  1  0  0  0  0
 26  8  2  0  0  0  0
 27 25  1  0  0  0  0
 27 21  1  0  0  0  0
 30 23  1  0  0  0  0
 30 29  2  0  0  0  0
 31 30  1  0  0  0  0
 32 34  1  0  0  0  0
 33 35  2  0  0  0  0
 34 31  2  0  0  0  0
 34 33  1  0  0  0  0
 35 29  1  0  0  0  0
 36 37  1  0  0  0  0
 37  4  1  0  0  0  0
M  END
>  <MODEL>
6

>  <REMARK>
 VINA RESULT:      -9.0      4.060      7.949
  Name = 
  2 active torsions:
  status: ('A' for Active; 'I' for Inactive)
    1  A    between atoms: N_4  and  C_37
    2  A    between atoms: C_23  and  C_30
                            x       y       z     vdW  Elec       q    Type
                         _______ _______ _______ _____ _____    ______ ____

>  <TORSDO>
F 2

$$$$
=
 OpenBabel11112417243D

 37 44  0  0  1  0  0  0  0  0999 V2000
  189.6420  173.8470  140.6470 C   0  0  0  0  0  2  0  0  0  0  0  0
  187.0670  176.7960  142.8440 C   0  0  0  0  0  0  0  0  0  0  0  0
  190.5220  175.5050  144.9090 C   0  0  0  0  0  0  0  0  0  0  0  0
  189.1390  172.9030  139.6440 N   0  0  0  0  0  0  0  0  0  0  0  0
  192.7920  173.1040  143.1190 O   0  0  0  0  0  0  0  0  0  0  0  0
  188.5900  176.9990  144.8950 C   0  0  0  0  0  0  0  0  0  0  0  0
  190.9170  174.4600  144.1600 C   0  0  0  0  0  0  0  0  0  0  0  0
  191.4590  172.0100  139.8050 C   0  0  0  0  0  0  0  0  0  0  0  0
  189.2340  175.9270  144.4630 C   0  0  0  0  0  0  0  0  0  0  0  0
  192.2570  173.7410  144.2570 C   0  0  0  0  0  0  0  0  0  0  0  0
  189.1950  177.8270  146.0100 C   0  0  0  0  0  2  0  0  0  0  0  0
  190.0260  171.7480  139.4340 C   0  0  0  0  0  2  0  0  0  0  0  0
  188.8350  175.1060  143.3710 C   0  0  0  0  0  0  0  0  0  0  0  0
  187.8390  177.6990  141.8950 C   0  0  0  0  0  1  0  0  0  0  0  0
  192.4930  175.8300  146.5470 C   0  0  0  0  0  2  0  0  0  0  0  0
  190.5580  177.3320  146.4960 C   0  0  0  0  0  3  0  0  0  0  0  0
  187.5370  175.3310  142.6580 C   0  0  0  0  0  2  0  0  0  0  0  0
  191.9090  171.8190  141.2230 C   0  0  1  0  0  3  0  0  0  0  0  0
  192.0600  173.0830  141.9180 C   0  0  1  0  0  3  0  0  0  0  0  0
  191.1800  176.2510  145.9910 C   0  0  0  0  0  0  0  0  0  0  0  0
  189.8060  174.2200  143.1510 C   0  0  0  0  0  0  0  0  0  0  0  0
  187.2360  177.3120  144.3010 C   0  0  0  0  0  2  0  0  0  0  0  0
  192.9830  173.6860  145.4050 C   0  0  0  0  0  0  0  0  0  0  0  0
  185.6010  176.8750  142.4770 C   0  0  0  0  0  1  0  0  0  0  0  0
  190.8830  172.2410  142.2150 N   0  0  1  0  0  0  0  0  0  0  0  0
  192.2510  172.3810  138.9550 O   0  0  0  0  0  0  0  0  0  0  0  0
  189.7690  173.1890  142.0350 C   0  0  2  0  0  3  0  0  0  0  0  0
  192.5120  174.3200  146.6810 C   0  0  0  0  0  2  0  0  0  0  0  0
  195.4840  173.6900  145.4330 C   0  0  0  0  0  3  0  0  0  0  0  0
  194.2820  172.9660  145.4790 C   0  0  0  0  0  0  0  0  0  0  0  0
  194.3370  171.5720  145.6490 C   0  0  0  0  0  3  0  0  0  0  0  0
  195.6150  169.1770  145.9450 Cl  0  0  0  0  0  0  0  0  0  0  0  0
  196.7550  171.6460  145.6850 C   0  0  0  0  0  3  0  0  0  0  0  0
  195.5670  170.9150  145.7450 C   0  0  0  0  0  0  0  0  0  0  0  0
  196.7140  173.0330  145.5300 C   0  0  0  0  0  3  0  0  0  0  0  0
  187.9860  174.6880  138.4610 C   0  0  0  0  0  1  0  0  0  0  0  0
  189.0600  173.6200  138.3810 C   0  0  0  0  0  2  0  0  0  0  0  0
  1 27  1  0  0  0  0
  2 22  1  0  0  0  0
  3 20  1  0  0  0  0
  4  1  1  0  0  0  0
  5 10  1  0  0  0  0
  6 11  1  0  0  0  0
  7 10  1  0  0  0  0
  7  3  2  0  0  0  0
  9  6  2  0  0  0  0
  9  3  1  0  0  0  0
 10 23  2  0  0  0  0
 11 16  1  0  0  0  0
 12  4  1  0  0  0  0
 12  8  1  0  0  0  0
 13  9  1  0  0  0  0
 14  2  1  0  0  0  0
 15 28  1  0  0  0  0
 17  2  1  0  0  0  0
 17 13  1  0  0  0  0
 18  8  1  6  0  0  0
 18 19  1  0  0  0  0
 18 25  1  0  0  0  0
 19 25  1  0  0  0  0
 19  5  1  1  0  0  0
 20 16  2  0  0  0  0
 20 15  1  0  0  0  0
 21 13  2  0  0  0  0
 21  7  1  0  0  0  0
 22  6  1  0  0  0  0
 23 30  1  0  0  0  0
 23 28  1  0  0  0  0
 24  2  1  0  0  0  0
 26  8  2  0  0  0  0
 27 25  1  0  0  0  0
 27 21  1  0  0  0  0
 29 30  2  0  0  0  0
 29 35  1  0  0  0  0
 30 31  1  0  0  0  0
 31 34  2  0  0  0  0
 33 34  1  0  0  0  0
 34 32  1  0  0  0  0
 35 33  2  0  0  0  0
 37 36  1  0  0  0  0
 37  4  1  0  0  0  0
M  END
>  <MODEL>
7

>  <REMARK>
 VINA RESULT:      -8.9      4.217      8.259
  Name = 
  2 active torsions:
  status: ('A' for Active; 'I' for Inactive)
    1  A    between atoms: N_4  and  C_37
    2  A    between atoms: C_23  and  C_30
                            x       y       z     vdW  Elec       q    Type
                         _______ _______ _______ _____ _____    ______ ____

>  <TORSDO>
F 2

$$$$
=
 OpenBabel11112417243D

 37 44  0  0  1  0  0  0  0  0999 V2000
  189.4500  175.7720  145.1240 C   0  0  0  0  0  2  0  0  0  0  0  0
  186.4220  178.4190  147.1190 C   0  0  0  0  0  0  0  0  0  0  0  0
  185.9020  177.8720  142.9610 C   0  0  0  0  0  0  0  0  0  0  0  0
  190.8260  175.5940  145.5980 N   0  0  0  0  0  0  0  0  0  0  0  0
  188.3310  175.6000  141.2130 O   0  0  0  0  0  0  0  0  0  0  0  0
  185.0060  178.8260  145.0230 C   0  0  0  0  0  0  0  0  0  0  0  0
  187.0660  177.2990  142.6090 C   0  0  0  0  0  0  0  0  0  0  0  0
  191.0550  174.3560  143.4480 C   0  0  0  0  0  0  0  0  0  0  0  0
  186.0000  178.3200  144.3120 C   0  0  0  0  0  0  0  0  0  0  0  0
  187.3730  176.6310  141.2740 C   0  0  0  0  0  0  0  0  0  0  0  0
  183.6590  179.0400  144.3640 C   0  0  0  0  0  2  0  0  0  0  0  0
  191.7430  175.1030  144.5560 C   0  0  0  0  0  2  0  0  0  0  0  0
  187.2890  177.9830  144.8130 C   0  0  0  0  0  0  0  0  0  0  0  0
  185.9110  177.0320  147.4760 C   0  0  0  0  0  1  0  0  0  0  0  0
  184.4740  177.6590  140.8180 C   0  0  0  0  0  2  0  0  0  0  0  0
  183.5900  178.5860  142.9050 C   0  0  0  0  0  3  0  0  0  0  0  0
  187.6820  178.2890  146.2260 C   0  0  0  0  0  2  0  0  0  0  0  0
  190.4850  175.1110  142.2830 C   0  0  1  0  0  3  0  0  0  0  0  0
  189.0430  175.2340  142.3700 C   0  0  1  0  0  3  0  0  0  0  0  0
  184.6290  178.0450  142.2440 C   0  0  0  0  0  0  0  0  0  0  0  0
  187.9590  177.3700  143.8380 C   0  0  0  0  0  0  0  0  0  0  0  0
  185.2800  179.2360  146.4510 C   0  0  0  0  0  2  0  0  0  0  0  0
  186.7520  176.9800  140.1160 C   0  0  0  0  0  0  0  0  0  0  0  0
  186.8200  179.1160  148.4030 C   0  0  0  0  0  1  0  0  0  0  0  0
  189.8800  176.4120  142.6790 N   0  0  1  0  0  0  0  0  0  0  0  0
  190.9550  173.1420  143.5000 O   0  0  0  0  0  0  0  0  0  0  0  0
  189.3660  176.8200  143.9980 C   0  0  2  0  0  3  0  0  0  0  0  0
  185.7200  178.0670  140.0570 C   0  0  0  0  0  2  0  0  0  0  0  0
  186.6930  176.9290  137.6150 C   0  0  0  0  0  3  0  0  0  0  0  0
  187.0780  176.3230  138.8220 C   0  0  0  0  0  0  0  0  0  0  0  0
  187.8140  175.1270  138.7740 C   0  0  0  0  0  3  0  0  0  0  0  0
  189.0440  173.0430  137.5090 Cl  0  0  0  0  0  0  0  0  0  0  0  0
  187.7370  175.1460  136.3560 C   0  0  0  0  0  3  0  0  0  0  0  0
  188.1360  174.5390  137.5480 C   0  0  0  0  0  0  0  0  0  0  0  0
  187.0160  176.3410  136.3890 C   0  0  0  0  0  3  0  0  0  0  0  0
  189.4100  174.5410  147.2730 C   0  0  0  0  0  1  0  0  0  0  0  0
  190.7920  174.5900  146.6500 C   0  0  0  0  0  2  0  0  0  0  0  0
  1  4  1  0  0  0  0
  2 14  1  0  0  0  0
  2 24  1  0  0  0  0
  3  9  1  0  0  0  0
  4 37  1  0  0  0  0
  5 10  1  0  0  0  0
  6 22  1  0  0  0  0
  7  3  2  0  0  0  0
  7 21  1  0  0  0  0
  8 26  2  0  0  0  0
  8 12  1  0  0  0  0
  9 13  1  0  0  0  0
  9  6  2  0  0  0  0
 10  7  1  0  0  0  0
 11  6  1  0  0  0  0
 12  4  1  0  0  0  0
 13 17  1  0  0  0  0
 15 20  1  0  0  0  0
 16 11  1  0  0  0  0
 17  2  1  0  0  0  0
 18 19  1  0  0  0  0
 18 25  1  0  0  0  0
 18  8  1  1  0  0  0
 19  5  1  6  0  0  0
 19 25  1  0  0  0  0
 20 16  2  0  0  0  0
 20  3  1  0  0  0  0
 21 27  1  0  0  0  0
 21 13  2  0  0  0  0
 22  2  1  0  0  0  0
 23 10  2  0  0  0  0
 25 27  1  0  0  0  0
 27  1  1  0  0  0  0
 28 23  1  0  0  0  0
 28 15  1  0  0  0  0
 29 30  1  0  0  0  0
 30 23  1  0  0  0  0
 31 30  2  0  0  0  0
 32 34  1  0  0  0  0
 33 35  1  0  0  0  0
 33 34  2  0  0  0  0
 34 31  1  0  0  0  0
 35 29  2  0  0  0  0
 37 36  1  0  0  0  0
M  END
>  <MODEL>
8

>  <REMARK>
 VINA RESULT:      -8.8      2.807      4.759
  Name = 
  2 active torsions:
  status: ('A' for Active; 'I' for Inactive)
    1  A    between atoms: N_4  and  C_37
    2  A    between atoms: C_23  and  C_30
                            x       y       z     vdW  Elec       q    Type
                         _______ _______ _______ _____ _____    ______ ____

>  <TORSDO>
F 2

$$$$
=
 OpenBabel11112417243D

 37 44  0  0  1  0  0  0  0  0999 V2000
  192.9250  172.2500  141.5460 C   0  0  0  0  0  2  0  0  0  0  0  0
  196.1060  173.5640  144.4290 C   0  0  0  0  0  0  0  0  0  0  0  0
  192.4480  175.6680  144.6710 C   0  0  0  0  0  0  0  0  0  0  0  0
  193.2000  171.6470  140.2380 N   0  0  0  0  0  0  0  0  0  0  0  0
  189.6900  174.5840  142.3610 O   0  0  0  0  0  0  0  0  0  0  0  0
  194.6700  175.3180  145.6230 C   0  0  0  0  0  0  0  0  0  0  0  0
  191.8250  175.2700  143.5490 C   0  0  0  0  0  0  0  0  0  0  0  0
  190.7370  171.9120  139.9700 C   0  0  0  0  0  0  0  0  0  0  0  0
  193.7990  175.2080  144.6340 C   0  0  0  0  0  0  0  0  0  0  0  0
  190.3560  175.4920  143.2090 C   0  0  0  0  0  0  0  0  0  0  0  0
  194.2700  176.0560  146.8840 C   0  0  0  0  0  2  0  0  0  0  0  0
  192.0720  171.7550  139.2980 C   0  0  0  0  0  2  0  0  0  0  0  0
  193.9990  174.4740  143.4320 C   0  0  0  0  0  0  0  0  0  0  0  0
  195.5600  172.3190  145.1090 C   0  0  0  0  0  1  0  0  0  0  0  0
  190.6040  176.9600  145.9380 C   0  0  0  0  0  2  0  0  0  0  0  0
  192.8300  176.5720  146.8840 C   0  0  0  0  0  3  0  0  0  0  0  0
  195.3140  173.8260  143.1230 C   0  0  0  0  0  2  0  0  0  0  0  0
  190.2550  173.2770  140.3620 C   0  0  1  0  0  3  0  0  0  0  0  0
  190.3980  173.5130  141.7870 C   0  0  1  0  0  3  0  0  0  0  0  0
  191.9780  176.3990  145.8580 C   0  0  0  0  0  0  0  0  0  0  0  0
  192.8520  174.4790  142.7540 C   0  0  0  0  0  0  0  0  0  0  0  0
  196.0600  174.7590  145.4220 C   0  0  0  0  0  2  0  0  0  0  0  0
  189.6370  176.5380  143.6960 C   0  0  0  0  0  0  0  0  0  0  0  0
  197.5510  173.3020  144.0640 C   0  0  0  0  0  1  0  0  0  0  0  0
  191.3510  174.1540  140.8580 N   0  0  1  0  0  0  0  0  0  0  0  0
  190.0500  170.9300  140.1990 O   0  0  0  0  0  0  0  0  0  0  0  0
  192.6520  173.7620  141.4290 C   0  0  2  0  0  3  0  0  0  0  0  0
  190.2400  177.5720  144.6000 C   0  0  0  0  0  2  0  0  0  0  0  0
  187.2120  176.5530  144.3110 C   0  0  0  0  0  3  0  0  0  0  0  0
  188.2080  176.7430  143.3390 C   0  0  0  0  0  0  0  0  0  0  0  0
  187.8290  177.1750  142.0570 C   0  0  0  0  0  3  0  0  0  0  0  0
  186.0300  177.9180  140.1410 Cl  0  0  0  0  0  0  0  0  0  0  0  0
  185.5020  177.1860  142.7200 C   0  0  0  0  0  3  0  0  0  0  0  0
  186.4830  177.3900  141.7470 C   0  0  0  0  0  0  0  0  0  0  0  0
  185.8660  176.7680  144.0010 C   0  0  0  0  0  3  0  0  0  0  0  0
  193.6590  169.9690  141.9380 C   0  0  0  0  0  1  0  0  0  0  0  0
  193.4400  170.2300  140.4600 C   0  0  0  0  0  2  0  0  0  0  0  0
  2 14  1  0  0  0  0
  2 22  1  0  0  0  0
  3 20  1  0  0  0  0
  4 37  1  0  0  0  0
  4  1  1  0  0  0  0
  5 10  1  0  0  0  0
  6 11  1  0  0  0  0
  7  3  2  0  0  0  0
  8 26  2  0  0  0  0
  9  3  1  0  0  0  0
  9  6  2  0  0  0  0
 10  7  1  0  0  0  0
 10 23  2  0  0  0  0
 11 16  1  0  0  0  0
 12  8  1  0  0  0  0
 12  4  1  0  0  0  0
 13  9  1  0  0  0  0
 17 13  1  0  0  0  0
 17  2  1  0  0  0  0
 18  8  1  1  0  0  0
 18 25  1  0  0  0  0
 18 19  1  0  0  0  0
 19  5  1  6  0  0  0
 20 15  1  0  0  0  0
 20 16  2  0  0  0  0
 21 13  2  0  0  0  0
 21  7  1  0  0  0  0
 22  6  1  0  0  0  0
 23 28  1  0  0  0  0
 24  2  1  0  0  0  0
 25 27  1  0  0  0  0
 25 19  1  0  0  0  0
 27  1  1  0  0  0  0
 27 21  1  0  0  0  0
 28 15  1  0  0  0  0
 30 23  1  0  0  0  0
 30 29  2  0  0  0  0
 31 30  1  0  0  0  0
 32 34  1  0  0  0  0
 33 35  2  0  0  0  0
 34 31  2  0  0  0  0
 34 33  1  0  0  0  0
 35 29  1  0  0  0  0
 37 36  1  0  0  0  0
M  END
>  <MODEL>
9

>  <REMARK>
 VINA RESULT:      -8.6      3.098      5.257
  Name = 
  2 active torsions:
  status: ('A' for Active; 'I' for Inactive)
    1  A    between atoms: N_4  and  C_37
    2  A    between atoms: C_23  and  C_30
                            x       y       z     vdW  Elec       q    Type
                         _______ _______ _______ _____ _____    ______ ____

>  <TORSDO>
F 2

$$$$
