=
 OpenBabel11112418053D

 34 40  0  0  1  0  0  0  0  0999 V2000
  189.4030  174.6870  142.8610 C   0  0  0  0  0  0  0  0  0  0  0  0
  191.6570  173.4930  142.4940 C   0  0  0  0  0  2  0  0  0  0  0  0
  185.8360  178.9050  146.5930 C   0  0  0  0  0  0  0  0  0  0  0  0
  187.5320  176.1930  143.3430 C   0  0  0  0  0  0  0  0  0  0  0  0
  187.0480  176.7950  145.6540 C   0  0  0  0  0  0  0  0  0  0  0  0
  186.1770  176.9260  147.8360 O   0  0  0  0  0  0  0  0  0  0  0  0
  185.8830  179.6960  147.6590 C   0  0  0  0  0  2  0  0  0  0  0  0
  185.6520  179.1140  144.1110 C   0  0  0  0  0  2  0  0  0  0  0  0
  191.0870  174.3680  144.6010 C   0  0  1  0  0  3  0  0  0  0  0  0
  193.0460  174.8610  146.9280 C   0  0  0  0  0  2  0  0  0  0  0  0
  188.0900  176.0120  146.0480 N   0  0  0  0  0  0  0  0  0  0  0  0
  185.5320  177.6420  143.7910 C   0  0  0  0  0  2  0  0  0  0  0  0
  190.0270  174.4760  145.7010 C   0  0  2  0  0  3  0  0  0  0  0  0
  192.7510  173.0690  143.4740 C   0  0  0  0  0  2  0  0  0  0  0  0
  186.7380  176.8930  144.2760 C   0  0  0  0  0  0  0  0  0  0  0  0
  184.9960  179.3720  145.4500 C   0  0  0  0  0  2  0  0  0  0  0  0
  193.4140  174.4300  145.5050 C   0  0  2  0  0  3  0  0  0  0  0  0
  188.6090  175.4000  143.7940 C   0  0  0  0  0  0  0  0  0  0  0  0
  186.3010  177.5030  146.7200 C   0  0  0  0  0  0  0  0  0  0  0  0
  188.8850  175.3350  145.1790 C   0  0  0  0  0  0  0  0  0  0  0  0
  188.0390  175.5390  141.0510 C   0  0  0  0  0  3  0  0  0  0  0  0
  191.8430  175.7940  146.9650 C   0  0  0  0  0  2  0  0  0  0  0  0
  187.2620  176.2550  141.9660 C   0  0  0  0  0  3  0  0  0  0  0  0
  190.5640  174.9700  147.0540 C   0  0  0  0  0  2  0  0  0  0  0  0
  192.3280  173.5440  144.8730 C   0  0  1  0  0  3  0  0  0  0  0  0
  189.0990  174.7480  141.4960 C   0  0  0  0  0  3  0  0  0  0  0  0
  190.4670  173.7590  143.3810 C   0  0  1  0  0  3  0  0  0  0  0  0
  194.7430  173.6870  145.5570 C   0  0  0  0  0  2  0  0  0  0  0  0
  195.9010  174.6620  145.4140 C   0  0  0  0  0  2  0  0  0  0  0  0
  197.9410  176.0190  142.8220 O   0  0  0  0  0  0  0  0  0  0  0  0
  195.7840  176.4310  143.6950 C   0  0  0  0  0  2  0  0  0  0  0  0
  196.1310  174.9960  143.9510 C   0  0  1  0  0  3  0  0  0  0  0  0
  197.0870  177.0470  143.2440 C   0  0  0  0  0  2  0  0  0  0  0  0
  197.6040  174.9130  143.6150 C   0  0  0  0  0  2  0  0  0  0  0  0
  1 27  1  0  0  0  0
  1 18  1  0  0  0  0
  2 27  1  0  0  0  0
  2 14  1  0  0  0  0
  3 19  1  0  0  0  0
  3  7  2  0  0  0  0
  4 18  2  0  0  0  0
  4 15  1  0  0  0  0
  5 11  1  0  0  0  0
  5 19  1  0  0  0  0
  8 16  1  0  0  0  0
  9 25  1  0  0  0  0
  9 13  1  0  0  0  0
 10 22  1  0  0  0  0
 12  8  1  0  0  0  0
 12 15  1  0  0  0  0
 13 24  1  0  0  0  0
 14 25  1  0  0  0  0
 15  5  2  0  0  0  0
 16  3  1  0  0  0  0
 17 28  1  0  0  0  0
 17 10  1  0  0  0  0
 18 20  1  0  0  0  0
 19  6  2  0  0  0  0
 20 13  1  0  0  0  0
 20 11  2  0  0  0  0
 21 26  1  0  0  0  0
 21 23  2  0  0  0  0
 22 24  1  0  0  0  0
 23  4  1  0  0  0  0
 25 17  1  0  0  0  0
 26  1  2  0  0  0  0
 27  9  1  0  0  0  0
 29 28  1  0  0  0  0
 30 33  1  0  0  0  0
 30 34  1  0  0  0  0
 31 32  1  0  0  0  0
 32 29  1  0  0  0  0
 33 31  1  0  0  0  0
 34 32  1  0  0  0  0
M  END
>  <MODEL>
1

>  <REMARK>
 VINA RESULT:      -9.5      0.000      0.000
  Name = 
  3 active torsions:
  status: ('A' for Active; 'I' for Inactive)
    1  A    between atoms: C_17  and  C_28
    2  A    between atoms: C_28  and  C_29
    3  A    between atoms: C_29  and  C_32
                            x       y       z     vdW  Elec       q    Type
                         _______ _______ _______ _____ _____    ______ ____

>  <TORSDO>
F 3

$$$$
=
 OpenBabel11112418053D

 34 40  0  0  1  0  0  0  0  0999 V2000
  189.4580  175.0800  142.5960 C   0  0  0  0  0  0  0  0  0  0  0  0
  191.8040  174.2190  141.9700 C   0  0  0  0  0  2  0  0  0  0  0  0
  185.7460  178.6720  146.8100 C   0  0  0  0  0  0  0  0  0  0  0  0
  187.4580  176.3000  143.3120 C   0  0  0  0  0  0  0  0  0  0  0  0
  187.1310  176.7740  145.6800 C   0  0  0  0  0  0  0  0  0  0  0  0
  186.4740  176.7310  147.9390 O   0  0  0  0  0  0  0  0  0  0  0  0
  185.7920  179.4360  147.8950 C   0  0  0  0  0  2  0  0  0  0  0  0
  185.2860  178.9130  144.3670 C   0  0  0  0  0  2  0  0  0  0  0  0
  191.3360  174.9550  144.1530 C   0  0  1  0  0  3  0  0  0  0  0  0
  193.4340  175.6580  146.2970 C   0  0  0  0  0  2  0  0  0  0  0  0
  188.3050  176.1330  145.9430 N   0  0  0  0  0  0  0  0  0  0  0  0
  185.3360  177.4470  144.0050 C   0  0  0  0  0  2  0  0  0  0  0  0
  190.3870  174.8890  145.3530 C   0  0  2  0  0  3  0  0  0  0  0  0
  193.0380  173.9270  142.8230 C   0  0  0  0  0  2  0  0  0  0  0  0
  186.6740  176.8610  144.3430 C   0  0  0  0  0  0  0  0  0  0  0  0
  184.7400  179.0460  145.7720 C   0  0  0  0  0  2  0  0  0  0  0  0
  193.7110  175.3170  144.8310 C   0  0  2  0  0  3  0  0  0  0  0  0
  188.6720  175.6530  143.6270 C   0  0  0  0  0  0  0  0  0  0  0  0
  186.4060  177.3450  146.8400 C   0  0  0  0  0  0  0  0  0  0  0  0
  189.0920  175.5940  144.9770 C   0  0  0  0  0  0  0  0  0  0  0  0
  187.8160  175.7780  140.9590 C   0  0  0  0  0  3  0  0  0  0  0  0
  192.1250  176.4150  146.4850 C   0  0  0  0  0  2  0  0  0  0  0  0
  187.0450  176.3570  141.9710 C   0  0  0  0  0  3  0  0  0  0  0  0
  190.9840  175.4200  146.6660 C   0  0  0  0  0  2  0  0  0  0  0  0
  192.6970  174.3050  144.2730 C   0  0  1  0  0  3  0  0  0  0  0  0
  189.0120  175.1310  141.2710 C   0  0  0  0  0  3  0  0  0  0  0  0
  190.6840  174.2950  142.9760 C   0  0  1  0  0  3  0  0  0  0  0  0
  195.1270  174.7650  144.7270 C   0  0  0  0  0  2  0  0  0  0  0  0
  195.6940  174.4930  146.1110 C   0  0  0  0  0  2  0  0  0  0  0  0
  197.9410  172.4830  144.2050 O   0  0  0  0  0  0  0  0  0  0  0  0
  196.6110  172.2010  146.1390 C   0  0  0  0  0  2  0  0  0  0  0  0
  196.9550  173.6540  146.0090 C   0  0  1  0  0  3  0  0  0  0  0  0
  197.0330  171.6060  144.8160 C   0  0  0  0  0  2  0  0  0  0  0  0
  197.5520  173.7640  144.6240 C   0  0  0  0  0  2  0  0  0  0  0  0
  1 27  1  0  0  0  0
  1 18  1  0  0  0  0
  2 14  1  0  0  0  0
  2 27  1  0  0  0  0
  3 19  1  0  0  0  0
  3  7  2  0  0  0  0
  4 18  2  0  0  0  0
  4 15  1  0  0  0  0
  5 11  1  0  0  0  0
  5 19  1  0  0  0  0
  8 16  1  0  0  0  0
  9 25  1  0  0  0  0
  9 13  1  0  0  0  0
 10 22  1  0  0  0  0
 12 15  1  0  0  0  0
 12  8  1  0  0  0  0
 13 24  1  0  0  0  0
 14 25  1  0  0  0  0
 15  5  2  0  0  0  0
 16  3  1  0  0  0  0
 17 10  1  0  0  0  0
 18 20  1  0  0  0  0
 19  6  2  0  0  0  0
 20 13  1  0  0  0  0
 20 11  2  0  0  0  0
 21 26  1  0  0  0  0
 21 23  2  0  0  0  0
 22 24  1  0  0  0  0
 23  4  1  0  0  0  0
 25 17  1  0  0  0  0
 26  1  2  0  0  0  0
 27  9  1  0  0  0  0
 28 17  1  0  0  0  0
 28 29  1  0  0  0  0
 30 34  1  0  0  0  0
 30 33  1  0  0  0  0
 32 29  1  0  0  0  0
 32 31  1  0  0  0  0
 33 31  1  0  0  0  0
 34 32  1  0  0  0  0
M  END
>  <MODEL>
2

>  <REMARK>
 VINA RESULT:      -9.4      1.182      1.655
  Name = 
  3 active torsions:
  status: ('A' for Active; 'I' for Inactive)
    1  A    between atoms: C_17  and  C_28
    2  A    between atoms: C_28  and  C_29
    3  A    between atoms: C_29  and  C_32
                            x       y       z     vdW  Elec       q    Type
                         _______ _______ _______ _____ _____    ______ ____

>  <TORSDO>
F 3

$$$$
=
 OpenBabel11112418053D

 34 40  0  0  1  0  0  0  0  0999 V2000
  189.7200  174.8990  141.9900 C   0  0  0  0  0  0  0  0  0  0  0  0
  187.2290  175.4460  142.3620 C   0  0  0  0  0  2  0  0  0  0  0  0
  195.7470  174.0830  144.7200 C   0  0  0  0  0  0  0  0  0  0  0  0
  192.0490  174.1440  142.0520 C   0  0  0  0  0  0  0  0  0  0  0  0
  193.5710  175.0960  143.7000 C   0  0  0  0  0  0  0  0  0  0  0  0
  195.1920  176.3750  144.8280 O   0  0  0  0  0  0  0  0  0  0  0  0
  196.4130  174.0930  145.8680 C   0  0  0  0  0  2  0  0  0  0  0  0
  195.0290  172.4370  142.9840 C   0  0  0  0  0  2  0  0  0  0  0  0
  188.8470  176.0660  143.9510 C   0  0  1  0  0  3  0  0  0  0  0  0
  188.2730  176.9170  146.8560 C   0  0  0  0  0  2  0  0  0  0  0  0
  192.5490  175.8720  144.1560 N   0  0  0  0  0  0  0  0  0  0  0  0
  194.4530  173.4240  141.9940 C   0  0  0  0  0  2  0  0  0  0  0  0
  190.2040  176.7270  144.2100 C   0  0  2  0  0  3  0  0  0  0  0  0
  186.5230  176.2840  143.4270 C   0  0  0  0  0  2  0  0  0  0  0  0
  193.3400  174.2130  142.6170 C   0  0  0  0  0  0  0  0  0  0  0  0
  196.1920  173.0920  143.6960 C   0  0  0  0  0  2  0  0  0  0  0  0
  187.2560  176.3730  145.8500 C   0  0  2  0  0  3  0  0  0  0  0  0
  191.0160  174.9590  142.5620 C   0  0  0  0  0  0  0  0  0  0  0  0
  194.8770  175.2360  144.3870 C   0  0  0  0  0  0  0  0  0  0  0  0
  191.2900  175.8220  143.6480 C   0  0  0  0  0  0  0  0  0  0  0  0
  190.4970  173.2430  140.4040 C   0  0  0  0  0  3  0  0  0  0  0  0
  189.6530  176.2950  146.6880 C   0  0  0  0  0  2  0  0  0  0  0  0
  191.7720  173.2870  140.9730 C   0  0  0  0  0  3  0  0  0  0  0  0
  190.4570  177.1050  145.6780 C   0  0  0  0  0  2  0  0  0  0  0  0
  187.5960  176.7830  144.4080 C   0  0  1  0  0  3  0  0  0  0  0  0
  189.4760  174.0530  140.9020 C   0  0  0  0  0  3  0  0  0  0  0  0
  188.6730  175.8640  142.4770 C   0  0  1  0  0  3  0  0  0  0  0  0
  185.8750  176.8870  146.2390 C   0  0  0  0  0  2  0  0  0  0  0  0
  185.9830  178.2590  146.8850 C   0  0  0  0  0  2  0  0  0  0  0  0
  183.6360  179.0270  144.3110 O   0  0  0  0  0  0  0  0  0  0  0  0
  185.7920  179.7650  144.9370 C   0  0  0  0  0  2  0  0  0  0  0  0
  185.0930  179.2540  146.1610 C   0  0  1  0  0  3  0  0  0  0  0  0
  184.9080  179.3160  143.7980 C   0  0  0  0  0  2  0  0  0  0  0  0
  183.8630  178.5640  145.6150 C   0  0  0  0  0  2  0  0  0  0  0  0
  1 27  1  0  0  0  0
  1 18  1  0  0  0  0
  2 27  1  0  0  0  0
  2 14  1  0  0  0  0
  3  7  2  0  0  0  0
  4 18  2  0  0  0  0
  4 15  1  0  0  0  0
  5 11  1  0  0  0  0
  5 19  1  0  0  0  0
  8 16  1  0  0  0  0
  9 13  1  0  0  0  0
  9 25  1  0  0  0  0
 12 15  1  0  0  0  0
 12  8  1  0  0  0  0
 13 24  1  0  0  0  0
 14 25  1  0  0  0  0
 15  5  2  0  0  0  0
 16  3  1  0  0  0  0
 17 28  1  0  0  0  0
 17 10  1  0  0  0  0
 18 20  1  0  0  0  0
 19  3  1  0  0  0  0
 19  6  2  0  0  0  0
 20 11  2  0  0  0  0
 20 13  1  0  0  0  0
 21 26  1  0  0  0  0
 21 23  2  0  0  0  0
 22 10  1  0  0  0  0
 23  4  1  0  0  0  0
 24 22  1  0  0  0  0
 25 17  1  0  0  0  0
 26  1  2  0  0  0  0
 27  9  1  0  0  0  0
 28 29  1  0  0  0  0
 30 34  1  0  0  0  0
 31 32  1  0  0  0  0
 32 29  1  0  0  0  0
 33 30  1  0  0  0  0
 33 31  1  0  0  0  0
 34 32  1  0  0  0  0
M  END
>  <MODEL>
3

>  <REMARK>
 VINA RESULT:      -9.1      2.012      8.235
  Name = 
  3 active torsions:
  status: ('A' for Active; 'I' for Inactive)
    1  A    between atoms: C_17  and  C_28
    2  A    between atoms: C_28  and  C_29
    3  A    between atoms: C_29  and  C_32
                            x       y       z     vdW  Elec       q    Type
                         _______ _______ _______ _____ _____    ______ ____

>  <TORSDO>
F 3

$$$$
=
 OpenBabel11112418053D

 34 40  0  0  1  0  0  0  0  0999 V2000
  192.2520  175.8760  145.7090 C   0  0  0  0  0  0  0  0  0  0  0  0
  190.4340  177.6530  145.2890 C   0  0  0  0  0  2  0  0  0  0  0  0
  195.0420  170.1420  143.7650 C   0  0  0  0  0  0  0  0  0  0  0  0
  194.0120  174.1730  145.6320 C   0  0  0  0  0  0  0  0  0  0  0  0
  193.4750  171.9370  144.8250 C   0  0  0  0  0  0  0  0  0  0  0  0
  192.9010  169.6630  144.6380 O   0  0  0  0  0  0  0  0  0  0  0  0
  194.9890  169.1800  142.8510 C   0  0  0  0  0  2  0  0  0  0  0  0
  196.5660  172.0000  144.4450 C   0  0  0  0  0  2  0  0  0  0  0  0
  190.2300  175.4870  144.3960 C   0  0  1  0  0  3  0  0  0  0  0  0
  188.2950  174.6500  142.1490 C   0  0  0  0  0  2  0  0  0  0  0  0
  192.1880  172.3430  144.6360 N   0  0  0  0  0  0  0  0  0  0  0  0
  195.8200  172.4330  145.6850 C   0  0  0  0  0  2  0  0  0  0  0  0
  190.3040  173.9800  144.6560 C   0  0  2  0  0  3  0  0  0  0  0  0
  189.0560  177.5580  144.6370 C   0  0  0  0  0  2  0  0  0  0  0  0
  194.4210  172.8540  145.3430 C   0  0  0  0  0  0  0  0  0  0  0  0
  196.3970  170.5060  144.2760 C   0  0  0  0  0  2  0  0  0  0  0  0
  188.5480  176.0750  142.6460 C   0  0  2  0  0  3  0  0  0  0  0  0
  192.6710  174.5550  145.4120 C   0  0  0  0  0  0  0  0  0  0  0  0
  193.7950  170.5360  144.4630 C   0  0  0  0  0  0  0  0  0  0  0  0
  191.7610  173.6070  144.8870 C   0  0  0  0  0  0  0  0  0  0  0  0
  194.4920  176.4140  146.4570 C   0  0  0  0  0  3  0  0  0  0  0  0
  189.5440  173.7800  142.2030 C   0  0  0  0  0  2  0  0  0  0  0  0
  194.9120  175.1170  146.1520 C   0  0  0  0  0  3  0  0  0  0  0  0
  189.6420  173.1150  143.5710 C   0  0  0  0  0  2  0  0  0  0  0  0
  188.8740  176.1120  144.1490 C   0  0  1  0  0  3  0  0  0  0  0  0
  193.1650  176.7910  146.2480 C   0  0  0  0  0  3  0  0  0  0  0  0
  190.7930  176.2170  145.5770 C   0  0  1  0  0  3  0  0  0  0  0  0
  187.3120  176.9140  142.3490 C   0  0  0  0  0  2  0  0  0  0  0  0
  186.1190  176.3970  143.1380 C   0  0  0  0  0  2  0  0  0  0  0  0
  185.5670  179.8410  143.8880 O   0  0  0  0  0  0  0  0  0  0  0  0
  185.1910  177.7720  144.9670 C   0  0  0  0  0  2  0  0  0  0  0  0
  185.1830  177.5410  143.4870 C   0  0  1  0  0  3  0  0  0  0  0  0
  185.7200  179.1790  145.1140 C   0  0  0  0  0  2  0  0  0  0  0  0
  185.7000  178.8410  142.9130 C   0  0  0  0  0  2  0  0  0  0  0  0
  1 26  1  0  0  0  0
  2 27  1  0  0  0  0
  3 16  1  0  0  0  0
  3 19  1  0  0  0  0
  4 23  2  0  0  0  0
  5 15  2  0  0  0  0
  7  3  2  0  0  0  0
  8 12  1  0  0  0  0
  9 13  1  0  0  0  0
  9 27  1  0  0  0  0
 10 22  1  0  0  0  0
 10 17  1  0  0  0  0
 11  5  1  0  0  0  0
 11 20  2  0  0  0  0
 13 20  1  0  0  0  0
 14  2  1  0  0  0  0
 15  4  1  0  0  0  0
 15 12  1  0  0  0  0
 16  8  1  0  0  0  0
 17 25  1  0  0  0  0
 18  4  1  0  0  0  0
 18  1  2  0  0  0  0
 19  6  2  0  0  0  0
 19  5  1  0  0  0  0
 20 18  1  0  0  0  0
 22 24  1  0  0  0  0
 23 21  1  0  0  0  0
 24 13  1  0  0  0  0
 25  9  1  0  0  0  0
 25 14  1  0  0  0  0
 26 21  2  0  0  0  0
 27  1  1  0  0  0  0
 28 17  1  0  0  0  0
 28 29  1  0  0  0  0
 29 32  1  0  0  0  0
 30 33  1  0  0  0  0
 31 33  1  0  0  0  0
 32 31  1  0  0  0  0
 34 32  1  0  0  0  0
 34 30  1  0  0  0  0
M  END
>  <MODEL>
4

>  <REMARK>
 VINA RESULT:      -9.1      2.667      8.906
  Name = 
  3 active torsions:
  status: ('A' for Active; 'I' for Inactive)
    1  A    between atoms: C_17  and  C_28
    2  A    between atoms: C_28  and  C_29
    3  A    between atoms: C_29  and  C_32
                            x       y       z     vdW  Elec       q    Type
                         _______ _______ _______ _____ _____    ______ ____

>  <TORSDO>
F 3

$$$$
=
 OpenBabel11112418053D

 34 40  0  0  1  0  0  0  0  0999 V2000
  189.8710  175.6900  146.2630 C   0  0  0  0  0  0  0  0  0  0  0  0
  187.4990  176.5220  146.8270 C   0  0  0  0  0  2  0  0  0  0  0  0
  195.0120  175.8630  142.0210 C   0  0  0  0  0  0  0  0  0  0  0  0
  192.1960  175.3460  145.5710 C   0  0  0  0  0  0  0  0  0  0  0  0
  192.7460  175.3280  143.1970 C   0  0  0  0  0  0  0  0  0  0  0  0
  193.2330  174.7110  140.9790 O   0  0  0  0  0  0  0  0  0  0  0  0
  195.4500  176.4030  140.8900 C   0  0  0  0  0  2  0  0  0  0  0  0
  195.5220  175.9570  144.4640 C   0  0  0  0  0  2  0  0  0  0  0  0
  188.3230  176.6350  144.6270 C   0  0  1  0  0  3  0  0  0  0  0  0
  187.1170  178.3170  142.3450 C   0  0  0  0  0  2  0  0  0  0  0  0
  191.4290  175.5350  142.9180 N   0  0  0  0  0  0  0  0  0  0  0  0
  194.5710  174.8720  144.9130 C   0  0  0  0  0  2  0  0  0  0  0  0
  189.0250  175.9010  143.4810 C   0  0  2  0  0  3  0  0  0  0  0  0
  186.3510  176.9920  145.9340 C   0  0  0  0  0  2  0  0  0  0  0  0
  193.1590  175.2180  144.5470 C   0  0  0  0  0  0  0  0  0  0  0  0
  196.0320  175.6120  143.0820 C   0  0  0  0  0  2  0  0  0  0  0  0
  186.6880  178.3380  143.8140 C   0  0  2  0  0  3  0  0  0  0  0  0
  190.8430  175.5700  145.2380 C   0  0  0  0  0  0  0  0  0  0  0  0
  193.6690  175.2340  142.0410 C   0  0  0  0  0  0  0  0  0  0  0  0
  190.4770  175.6790  143.8760 C   0  0  0  0  0  0  0  0  0  0  0  0
  191.5920  175.3440  147.9310 C   0  0  0  0  0  3  0  0  0  0  0  0
  188.6120  178.0820  142.1750 C   0  0  0  0  0  2  0  0  0  0  0  0
  192.5560  175.2390  146.9250 C   0  0  0  0  0  3  0  0  0  0  0  0
  188.8870  176.5840  142.1110 C   0  0  0  0  0  2  0  0  0  0  0  0
  186.8530  176.9630  144.4820 C   0  0  1  0  0  3  0  0  0  0  0  0
  190.2530  175.5570  147.6030 C   0  0  0  0  0  3  0  0  0  0  0  0
  188.4230  175.8080  145.8730 C   0  0  1  0  0  3  0  0  0  0  0  0
  185.2360  178.7930  143.8830 C   0  0  0  0  0  2  0  0  0  0  0  0
  184.3640  177.9190  142.9960 C   0  0  0  0  0  2  0  0  0  0  0  0
  181.4940  178.4770  140.9510 O   0  0  0  0  0  0  0  0  0  0  0  0
  183.8260  178.2900  140.6140 C   0  0  0  0  0  2  0  0  0  0  0  0
  183.5880  178.7770  142.0120 C   0  0  1  0  0  3  0  0  0  0  0  0
  182.4570  177.8650  140.1380 C   0  0  0  0  0  2  0  0  0  0  0  0
  182.1000  178.5950  142.2110 C   0  0  0  0  0  2  0  0  0  0  0  0
  1 26  1  0  0  0  0
  3 19  1  0  0  0  0
  3 16  1  0  0  0  0
  4 23  2  0  0  0  0
  5 15  2  0  0  0  0
  6 19  2  0  0  0  0
  7  3  2  0  0  0  0
  8 12  1  0  0  0  0
  9 27  1  0  0  0  0
 10 17  1  0  0  0  0
 11  5  1  0  0  0  0
 11 20  2  0  0  0  0
 13 20  1  0  0  0  0
 13  9  1  0  0  0  0
 14  2  1  0  0  0  0
 15 12  1  0  0  0  0
 15  4  1  0  0  0  0
 16  8  1  0  0  0  0
 17 28  1  0  0  0  0
 17 25  1  0  0  0  0
 18  4  1  0  0  0  0
 18  1  2  0  0  0  0
 19  5  1  0  0  0  0
 20 18  1  0  0  0  0
 22 10  1  0  0  0  0
 23 21  1  0  0  0  0
 24 22  1  0  0  0  0
 24 13  1  0  0  0  0
 25  9  1  0  0  0  0
 25 14  1  0  0  0  0
 26 21  2  0  0  0  0
 27  1  1  0  0  0  0
 27  2  1  0  0  0  0
 29 28  1  0  0  0  0
 30 34  1  0  0  0  0
 31 32  1  0  0  0  0
 32 34  1  0  0  0  0
 32 29  1  0  0  0  0
 33 31  1  0  0  0  0
 33 30  1  0  0  0  0
M  END
>  <MODEL>
5

>  <REMARK>
 VINA RESULT:      -9.0      2.672      9.141
  Name = 
  3 active torsions:
  status: ('A' for Active; 'I' for Inactive)
    1  A    between atoms: C_17  and  C_28
    2  A    between atoms: C_28  and  C_29
    3  A    between atoms: C_29  and  C_32
                            x       y       z     vdW  Elec       q    Type
                         _______ _______ _______ _____ _____    ______ ____

>  <TORSDO>
F 3

$$$$
=
 OpenBabel11112418053D

 34 40  0  0  1  0  0  0  0  0999 V2000
  189.8090  174.6630  145.1500 C   0  0  0  0  0  0  0  0  0  0  0  0
  191.3300  172.6490  144.6310 C   0  0  0  0  0  2  0  0  0  0  0  0
  184.5070  178.2910  143.3690 C   0  0  0  0  0  0  0  0  0  0  0  0
  188.0110  176.2910  145.4950 C   0  0  0  0  0  0  0  0  0  0  0  0
  186.9000  177.2710  143.5600 C   0  0  0  0  0  0  0  0  0  0  0  0
  186.2220  178.6650  141.7900 O   0  0  0  0  0  0  0  0  0  0  0  0
  183.5310  178.3940  142.4750 C   0  0  0  0  0  2  0  0  0  0  0  0
  184.7800  177.7510  145.7920 C   0  0  0  0  0  2  0  0  0  0  0  0
  189.9840  173.6050  142.9560 C   0  0  1  0  0  3  0  0  0  0  0  0
  189.2860  172.2990  140.2540 C   0  0  0  0  0  2  0  0  0  0  0  0
  187.7140  176.5350  142.7530 N   0  0  0  0  0  0  0  0  0  0  0  0
  186.2590  178.0420  145.9000 C   0  0  0  0  0  2  0  0  0  0  0  0
  189.5220  174.8870  142.2580 C   0  0  2  0  0  3  0  0  0  0  0  0
  191.6830  171.9590  143.3140 C   0  0  0  0  0  2  0  0  0  0  0  0
  187.0420  177.1700  144.9650 C   0  0  0  0  0  0  0  0  0  0  0  0
  184.1770  178.6890  144.7700 C   0  0  0  0  0  2  0  0  0  0  0  0
  190.0370  171.6410  141.4140 C   0  0  2  0  0  3  0  0  0  0  0  0
  188.8280  175.5400  144.6220 C   0  0  0  0  0  0  0  0  0  0  0  0
  185.9020  178.1400  142.8910 C   0  0  0  0  0  0  0  0  0  0  0  0
  188.6470  175.6680  143.2260 C   0  0  0  0  0  0  0  0  0  0  0  0
  189.1720  175.3060  147.3960 C   0  0  0  0  0  3  0  0  0  0  0  0
  188.2190  173.2770  140.7260 C   0  0  0  0  0  2  0  0  0  0  0  0
  188.1940  176.1600  146.8810 C   0  0  0  0  0  3  0  0  0  0  0  0
  188.8380  174.6600  140.9000 C   0  0  0  0  0  2  0  0  0  0  0  0
  190.8860  172.6550  142.1990 C   0  0  1  0  0  3  0  0  0  0  0  0
  189.9850  174.5680  146.5350 C   0  0  0  0  0  3  0  0  0  0  0  0
  190.7420  173.9680  144.1960 C   0  0  1  0  0  3  0  0  0  0  0  0
  190.9170  170.5330  140.8500 C   0  0  0  0  0  2  0  0  0  0  0  0
  191.8450  171.0870  139.7790 C   0  0  0  0  0  2  0  0  0  0  0  0
  190.4160  170.4230  136.5790 O   0  0  0  0  0  0  0  0  0  0  0  0
  190.6220  169.2730  138.6340 C   0  0  0  0  0  2  0  0  0  0  0  0
  191.7580  170.2430  138.5200 C   0  0  1  0  0  3  0  0  0  0  0  0
  189.6920  169.6660  137.5100 C   0  0  0  0  0  2  0  0  0  0  0  0
  191.3840  171.1030  137.3330 C   0  0  0  0  0  2  0  0  0  0  0  0
  1 26  1  0  0  0  0
  3 16  1  0  0  0  0
  4 23  2  0  0  0  0
  5 15  2  0  0  0  0
  6 19  2  0  0  0  0
  7  3  2  0  0  0  0
  8 12  1  0  0  0  0
  9 27  1  0  0  0  0
 10 22  1  0  0  0  0
 10 17  1  0  0  0  0
 11 20  2  0  0  0  0
 11  5  1  0  0  0  0
 13  9  1  0  0  0  0
 13 20  1  0  0  0  0
 14  2  1  0  0  0  0
 15  4  1  0  0  0  0
 15 12  1  0  0  0  0
 16  8  1  0  0  0  0
 17 25  1  0  0  0  0
 18  1  2  0  0  0  0
 18  4  1  0  0  0  0
 19  3  1  0  0  0  0
 19  5  1  0  0  0  0
 20 18  1  0  0  0  0
 22 24  1  0  0  0  0
 23 21  1  0  0  0  0
 24 13  1  0  0  0  0
 25  9  1  0  0  0  0
 25 14  1  0  0  0  0
 26 21  2  0  0  0  0
 27  2  1  0  0  0  0
 27  1  1  0  0  0  0
 28 17  1  0  0  0  0
 29 28  1  0  0  0  0
 30 34  1  0  0  0  0
 30 33  1  0  0  0  0
 32 31  1  0  0  0  0
 32 29  1  0  0  0  0
 33 31  1  0  0  0  0
 34 32  1  0  0  0  0
M  END
>  <MODEL>
6

>  <REMARK>
 VINA RESULT:      -8.7      3.540      5.734
  Name = 
  3 active torsions:
  status: ('A' for Active; 'I' for Inactive)
    1  A    between atoms: C_17  and  C_28
    2  A    between atoms: C_28  and  C_29
    3  A    between atoms: C_29  and  C_32
                            x       y       z     vdW  Elec       q    Type
                         _______ _______ _______ _____ _____    ______ ____

>  <TORSDO>
F 3

$$$$
=
 OpenBabel11112418053D

 34 40  0  0  1  0  0  0  0  0999 V2000
  191.5850  176.0130  145.7120 C   0  0  0  0  0  0  0  0  0  0  0  0
  189.3780  176.5610  146.9240 C   0  0  0  0  0  2  0  0  0  0  0  0
  194.7370  175.2330  139.8890 C   0  0  0  0  0  0  0  0  0  0  0  0
  193.5420  175.8290  144.2500 C   0  0  0  0  0  0  0  0  0  0  0  0
  193.2850  174.8690  142.0250 C   0  0  0  0  0  0  0  0  0  0  0  0
  193.2270  173.4380  140.1570 O   0  0  0  0  0  0  0  0  0  0  0  0
  194.5840  175.2900  138.5720 C   0  0  0  0  0  2  0  0  0  0  0  0
  195.9290  176.4840  141.6930 C   0  0  0  0  0  2  0  0  0  0  0  0
  189.3750  175.8420  144.6850 C   0  0  1  0  0  3  0  0  0  0  0  0
  187.0130  176.0980  142.7240 C   0  0  0  0  0  2  0  0  0  0  0  0
  191.9600  174.6880  142.2850 N   0  0  0  0  0  0  0  0  0  0  0  0
  195.5990  175.5540  142.8380 C   0  0  0  0  0  2  0  0  0  0  0  0
  189.8850  174.8200  143.6650 C   0  0  2  0  0  3  0  0  0  0  0  0
  187.9200  176.3730  146.5090 C   0  0  0  0  0  2  0  0  0  0  0  0
  194.1150  175.4400  143.0200 C   0  0  0  0  0  0  0  0  0  0  0  0
  196.0610  175.6650  140.4290 C   0  0  0  0  0  2  0  0  0  0  0  0
  187.0900  176.6850  144.1360 C   0  0  2  0  0  3  0  0  0  0  0  0
  192.1630  175.6330  144.4740 C   0  0  0  0  0  0  0  0  0  0  0  0
  193.7700  174.4450  140.6900 C   0  0  0  0  0  0  0  0  0  0  0  0
  191.3710  175.0630  143.4500 C   0  0  0  0  0  0  0  0  0  0  0  0
  193.7530  176.7560  146.4930 C   0  0  0  0  0  3  0  0  0  0  0  0
  188.3630  176.0880  142.0190 C   0  0  0  0  0  2  0  0  0  0  0  0
  194.3240  176.3960  145.2690 C   0  0  0  0  0  3  0  0  0  0  0  0
  189.0970  174.7930  142.3460 C   0  0  0  0  0  2  0  0  0  0  0  0
  187.9160  175.7990  145.0830 C   0  0  1  0  0  3  0  0  0  0  0  0
  192.3910  176.5560  146.7190 C   0  0  0  0  0  3  0  0  0  0  0  0
  190.1390  175.6820  145.9640 C   0  0  1  0  0  3  0  0  0  0  0  0
  185.6710  176.8510  144.6640 C   0  0  0  0  0  2  0  0  0  0  0  0
  185.0870  178.1780  144.2060 C   0  0  0  0  0  2  0  0  0  0  0  0
  185.8270  179.4090  147.4710 O   0  0  0  0  0  0  0  0  0  0  0  0
  184.0660  178.2040  146.4540 C   0  0  0  0  0  2  0  0  0  0  0  0
  184.7340  179.0400  145.4050 C   0  0  1  0  0  3  0  0  0  0  0  0
  184.9990  178.2900  147.6390 C   0  0  0  0  0  2  0  0  0  0  0  0
  185.9900  179.5400  146.0840 C   0  0  0  0  0  2  0  0  0  0  0  0
  1 27  1  0  0  0  0
  1 26  1  0  0  0  0
  3 16  1  0  0  0  0
  3 19  1  0  0  0  0
  4 18  1  0  0  0  0
  4 23  2  0  0  0  0
  5 11  1  0  0  0  0
  5 15  2  0  0  0  0
  6 19  2  0  0  0  0
  7  3  2  0  0  0  0
  8 12  1  0  0  0  0
  9 25  1  0  0  0  0
  9 27  1  0  0  0  0
 10 17  1  0  0  0  0
 11 20  2  0  0  0  0
 12 15  1  0  0  0  0
 13  9  1  0  0  0  0
 14  2  1  0  0  0  0
 15  4  1  0  0  0  0
 16  8  1  0  0  0  0
 17 28  1  0  0  0  0
 17 25  1  0  0  0  0
 18  1  2  0  0  0  0
 19  5  1  0  0  0  0
 20 13  1  0  0  0  0
 20 18  1  0  0  0  0
 21 26  2  0  0  0  0
 22 24  1  0  0  0  0
 22 10  1  0  0  0  0
 23 21  1  0  0  0  0
 24 13  1  0  0  0  0
 25 14  1  0  0  0  0
 27  2  1  0  0  0  0
 29 28  1  0  0  0  0
 29 32  1  0  0  0  0
 30 33  1  0  0  0  0
 31 33  1  0  0  0  0
 32 34  1  0  0  0  0
 32 31  1  0  0  0  0
 34 30  1  0  0  0  0
M  END
>  <MODEL>
7

>  <REMARK>
 VINA RESULT:      -8.6      2.376      8.785
  Name = 
  3 active torsions:
  status: ('A' for Active; 'I' for Inactive)
    1  A    between atoms: C_17  and  C_28
    2  A    between atoms: C_28  and  C_29
    3  A    between atoms: C_29  and  C_32
                            x       y       z     vdW  Elec       q    Type
                         _______ _______ _______ _____ _____    ______ ____

>  <TORSDO>
F 3

$$$$
=
 OpenBabel11112418053D

 34 40  0  0  1  0  0  0  0  0999 V2000
  191.4800  175.8480  143.4710 C   0  0  0  0  0  0  0  0  0  0  0  0
  190.4000  177.5420  145.0850 C   0  0  0  0  0  2  0  0  0  0  0  0
  191.0430  172.5410  137.6990 C   0  0  0  0  0  0  0  0  0  0  0  0
  192.3380  174.5260  141.5950 C   0  0  0  0  0  0  0  0  0  0  0  0
  190.7730  173.3120  140.1760 C   0  0  0  0  0  0  0  0  0  0  0  0
  189.4100  171.6770  139.1700 O   0  0  0  0  0  0  0  0  0  0  0  0
  190.2950  172.3700  136.6160 C   0  0  0  0  0  2  0  0  0  0  0  0
  193.2600  173.5150  138.3110 C   0  0  0  0  0  2  0  0  0  0  0  0
  189.1070  176.4270  143.4670 C   0  0  1  0  0  3  0  0  0  0  0  0
  186.2780  177.2420  142.5610 C   0  0  0  0  0  2  0  0  0  0  0  0
  189.7510  173.7800  140.9460 N   0  0  0  0  0  0  0  0  0  0  0  0
  193.2750  173.0920  139.7610 C   0  0  0  0  0  2  0  0  0  0  0  0
  188.7420  175.0910  142.8150 C   0  0  2  0  0  3  0  0  0  0  0  0
  188.9400  177.9160  145.3330 C   0  0  0  0  0  2  0  0  0  0  0  0
  192.1040  173.6710  140.4970 C   0  0  0  0  0  0  0  0  0  0  0  0
  192.5230  172.4660  137.5090 C   0  0  0  0  0  2  0  0  0  0  0  0
  187.1930  178.0300  143.5020 C   0  0  2  0  0  3  0  0  0  0  0  0
  191.2500  174.9970  142.3610 C   0  0  0  0  0  0  0  0  0  0  0  0
  190.4050  172.4420  139.0330 C   0  0  0  0  0  0  0  0  0  0  0  0
  189.9360  174.6160  142.0010 C   0  0  0  0  0  0  0  0  0  0  0  0
  193.8640  175.7350  143.0600 C   0  0  0  0  0  3  0  0  0  0  0  0
  187.0500  176.4990  141.4790 C   0  0  0  0  0  2  0  0  0  0  0  0
  193.6400  174.9080  141.9560 C   0  0  0  0  0  3  0  0  0  0  0  0
  187.4440  175.1190  141.9930 C   0  0  0  0  0  2  0  0  0  0  0  0
  188.0810  177.1050  144.3500 C   0  0  1  0  0  3  0  0  0  0  0  0
  192.7900  176.1950  143.8220 C   0  0  0  0  0  3  0  0  0  0  0  0
  190.3130  176.2360  144.3370 C   0  0  1  0  0  3  0  0  0  0  0  0
  186.3230  178.9020  144.3980 C   0  0  0  0  0  2  0  0  0  0  0  0
  184.9690  178.2480  144.6220 C   0  0  0  0  0  2  0  0  0  0  0  0
  186.0830  178.3460  148.0090 O   0  0  0  0  0  0  0  0  0  0  0  0
  185.1360  176.7330  146.5640 C   0  0  0  0  0  2  0  0  0  0  0  0
  184.6980  178.0910  146.1070 C   0  0  1  0  0  3  0  0  0  0  0  0
  186.2200  177.0190  147.5770 C   0  0  0  0  0  2  0  0  0  0  0  0
  185.5650  179.0400  146.9060 C   0  0  0  0  0  2  0  0  0  0  0  0
  1 26  1  0  0  0  0
  1 27  1  0  0  0  0
  2 14  1  0  0  0  0
  3 19  1  0  0  0  0
  4 23  2  0  0  0  0
  4 18  1  0  0  0  0
  5 15  2  0  0  0  0
  5 11  1  0  0  0  0
  7  3  2  0  0  0  0
  8 12  1  0  0  0  0
  9 27  1  0  0  0  0
  9 25  1  0  0  0  0
 10 17  1  0  0  0  0
 11 20  2  0  0  0  0
 12 15  1  0  0  0  0
 13  9  1  0  0  0  0
 15  4  1  0  0  0  0
 16  3  1  0  0  0  0
 16  8  1  0  0  0  0
 17 25  1  0  0  0  0
 17 28  1  0  0  0  0
 18  1  2  0  0  0  0
 19  6  2  0  0  0  0
 19  5  1  0  0  0  0
 20 18  1  0  0  0  0
 20 13  1  0  0  0  0
 21 26  2  0  0  0  0
 22 24  1  0  0  0  0
 22 10  1  0  0  0  0
 23 21  1  0  0  0  0
 24 13  1  0  0  0  0
 25 14  1  0  0  0  0
 27  2  1  0  0  0  0
 28 29  1  0  0  0  0
 29 32  1  0  0  0  0
 31 33  1  0  0  0  0
 32 31  1  0  0  0  0
 32 34  1  0  0  0  0
 33 30  1  0  0  0  0
 34 30  1  0  0  0  0
M  END
>  <MODEL>
8

>  <REMARK>
 VINA RESULT:      -8.6      3.137      8.686
  Name = 
  3 active torsions:
  status: ('A' for Active; 'I' for Inactive)
    1  A    between atoms: C_17  and  C_28
    2  A    between atoms: C_28  and  C_29
    3  A    between atoms: C_29  and  C_32
                            x       y       z     vdW  Elec       q    Type
                         _______ _______ _______ _____ _____    ______ ____

>  <TORSDO>
F 3

$$$$
=
 OpenBabel11112418053D

 34 40  0  0  1  0  0  0  0  0999 V2000
  189.8300  174.6390  145.1300 C   0  0  0  0  0  0  0  0  0  0  0  0
  191.3400  172.6220  144.5880 C   0  0  0  0  0  2  0  0  0  0  0  0
  184.5210  178.2880  143.4150 C   0  0  0  0  0  0  0  0  0  0  0  0
  188.0410  176.2710  145.4980 C   0  0  0  0  0  0  0  0  0  0  0  0
  186.9130  177.2610  143.5790 C   0  0  0  0  0  0  0  0  0  0  0  0
  186.2210  178.6640  141.8200 O   0  0  0  0  0  0  0  0  0  0  0  0
  183.5360  178.3980  142.5310 C   0  0  0  0  0  2  0  0  0  0  0  0
  184.8170  177.7380  145.8330 C   0  0  0  0  0  2  0  0  0  0  0  0
  189.9800  173.5880  142.9300 C   0  0  1  0  0  3  0  0  0  0  0  0
  189.2520  172.2940  140.2300 C   0  0  0  0  0  2  0  0  0  0  0  0
  187.7170  176.5250  142.7610 N   0  0  0  0  0  0  0  0  0  0  0  0
  186.2970  178.0250  145.9280 C   0  0  0  0  0  2  0  0  0  0  0  0
  189.5150  174.8740  142.2410 C   0  0  2  0  0  3  0  0  0  0  0  0
  191.6790  171.9370  143.2650 C   0  0  0  0  0  2  0  0  0  0  0  0
  187.0690  177.1540  144.9810 C   0  0  0  0  0  0  0  0  0  0  0  0
  184.2060  178.6820  144.8210 C   0  0  0  0  0  2  0  0  0  0  0  0
  190.0130  171.6310  141.3810 C   0  0  2  0  0  3  0  0  0  0  0  0
  188.8460  175.5200  144.6150 C   0  0  0  0  0  0  0  0  0  0  0  0
  185.9110  178.1350  142.9230 C   0  0  0  0  0  0  0  0  0  0  0  0
  188.6520  175.6550  143.2210 C   0  0  0  0  0  0  0  0  0  0  0  0
  189.2180  175.2750  147.3850 C   0  0  0  0  0  3  0  0  0  0  0  0
  188.1930  173.2740  140.7170 C   0  0  0  0  0  2  0  0  0  0  0  0
  188.2370  176.1340  146.8830 C   0  0  0  0  0  3  0  0  0  0  0  0
  188.8170  174.6540  140.8900 C   0  0  0  0  0  2  0  0  0  0  0  0
  190.8730  172.6390  142.1610 C   0  0  1  0  0  3  0  0  0  0  0  0
  190.0200  174.5380  146.5130 C   0  0  0  0  0  3  0  0  0  0  0  0
  190.7510  173.9440  144.1640 C   0  0  1  0  0  3  0  0  0  0  0  0
  190.8840  170.5220  140.8030 C   0  0  0  0  0  2  0  0  0  0  0  0
  191.0500  170.7060  139.3030 C   0  0  0  0  0  2  0  0  0  0  0  0
  194.3470  171.6490  140.2880 O   0  0  0  0  0  0  0  0  0  0  0  0
  192.7190  172.4460  138.7700 C   0  0  0  0  0  2  0  0  0  0  0  0
  192.5050  170.9750  138.9630 C   0  0  1  0  0  3  0  0  0  0  0  0
  193.7050  172.8170  139.8530 C   0  0  0  0  0  2  0  0  0  0  0  0
  193.3950  170.6300  140.1370 C   0  0  0  0  0  2  0  0  0  0  0  0
  1 26  1  0  0  0  0
  3 16  1  0  0  0  0
  4 23  2  0  0  0  0
  5 15  2  0  0  0  0
  6 19  2  0  0  0  0
  7  3  2  0  0  0  0
  8 12  1  0  0  0  0
  9 27  1  0  0  0  0
 10 22  1  0  0  0  0
 10 17  1  0  0  0  0
 11 20  2  0  0  0  0
 11  5  1  0  0  0  0
 13  9  1  0  0  0  0
 13 20  1  0  0  0  0
 14  2  1  0  0  0  0
 15  4  1  0  0  0  0
 15 12  1  0  0  0  0
 16  8  1  0  0  0  0
 17 25  1  0  0  0  0
 18  1  2  0  0  0  0
 18  4  1  0  0  0  0
 19  3  1  0  0  0  0
 19  5  1  0  0  0  0
 20 18  1  0  0  0  0
 22 24  1  0  0  0  0
 23 21  1  0  0  0  0
 24 13  1  0  0  0  0
 25  9  1  0  0  0  0
 25 14  1  0  0  0  0
 26 21  2  0  0  0  0
 27  2  1  0  0  0  0
 27  1  1  0  0  0  0
 28 17  1  0  0  0  0
 29 28  1  0  0  0  0
 31 32  1  0  0  0  0
 31 33  1  0  0  0  0
 32 29  1  0  0  0  0
 32 34  1  0  0  0  0
 33 30  1  0  0  0  0
 34 30  1  0  0  0  0
M  END
>  <MODEL>
9

>  <REMARK>
 VINA RESULT:      -8.6      3.047      4.939
  Name = 
  3 active torsions:
  status: ('A' for Active; 'I' for Inactive)
    1  A    between atoms: C_17  and  C_28
    2  A    between atoms: C_28  and  C_29
    3  A    between atoms: C_29  and  C_32
                            x       y       z     vdW  Elec       q    Type
                         _______ _______ _______ _____ _____    ______ ____

>  <TORSDO>
F 3

$$$$
