=
 OpenBabel11112418043D

 34 40  0  0  1  0  0  0  0  0999 V2000
  189.1050  175.2430  142.7050 C   0  0  1  0  0  3  0  0  0  0  0  0
  191.1820  176.5250  142.7000 C   0  0  0  0  0  2  0  0  0  0  0  0
  185.1460  179.4590  145.3120 C   0  0  0  0  0  0  0  0  0  0  0  0
  186.8640  176.3190  142.8390 C   0  0  2  0  0  3  0  0  0  0  0  0
  186.0310  177.0980  145.0900 C   0  0  2  0  0  3  0  0  0  0  0  0
  185.3260  178.0170  147.3900 C   0  0  0  0  0  1  0  0  0  0  0  0
  185.7440  180.3960  145.9050 O   0  0  0  0  0  0  0  0  0  0  0  0
  183.8000  178.6890  143.3870 C   0  0  0  0  0  2  0  0  0  0  0  0
  190.7310  175.1670  144.5540 C   0  0  2  0  0  3  0  0  0  0  0  0
  192.1600  175.2520  147.1920 C   0  0  0  0  0  3  0  0  0  0  0  0
  187.4750  177.1030  145.6040 C   0  0  0  0  0  2  0  0  0  0  0  0
  184.6130  177.4490  142.9720 C   0  0  0  0  0  2  0  0  0  0  0  0
  189.7200  175.9710  145.4370 C   0  0  1  0  0  3  0  0  0  0  0  0
  192.3250  176.7570  143.6730 C   0  0  0  0  0  2  0  0  0  0  0  0
  186.0250  177.3750  143.5650 C   0  0  2  0  0  3  0  0  0  0  0  0
  184.5730  179.6880  144.0560 O   0  0  0  0  0  0  0  0  0  0  0  0
  192.4660  176.2720  146.1430 C   0  0  2  0  0  3  0  0  0  0  0  0
  188.2950  176.3270  143.3990 C   0  0  1  0  0  3  0  0  0  0  0  0
  185.1300  178.0680  145.8800 C   0  0  1  0  0  3  0  0  0  0  0  0
  188.2910  176.0270  144.8860 C   0  0  2  0  0  3  0  0  0  0  0  0
  187.4480  175.4330  140.8470 C   0  0  0  0  0  2  0  0  0  0  0  0
  190.9120  174.8740  147.4910 C   0  0  0  0  0  3  0  0  0  0  0  0
  186.9050  176.5800  141.4560 O   0  0  0  0  0  0  0  0  0  0  0  0
  189.6530  175.4490  146.8860 C   0  0  0  0  0  2  0  0  0  0  0  0
  192.1550  175.7040  144.7510 C   0  0  1  0  0  3  0  0  0  0  0  0
  188.9360  175.3110  141.1830 C   0  0  0  0  0  2  0  0  0  0  0  0
  190.5170  175.2860  143.1020 N   0  0  1  0  0  0  0  0  0  0  0  0
  193.8710  176.6320  146.2260 N   0  0  0  0  0  2  0  0  0  0  0  0
  194.6160  175.3920  146.3660 C   0  0  0  0  0  2  0  0  0  0  0  0
  195.3230  174.7230  143.1400 N   0  0  0  0  0  2  0  0  0  0  0  0
  195.7340  176.6140  144.5380 C   0  0  0  0  0  2  0  0  0  0  0  0
  195.7940  175.3840  145.4080 C   0  0  2  0  0  3  0  0  0  0  0  0
  195.7910  176.0990  143.1190 C   0  0  0  0  0  2  0  0  0  0  0  0
  195.6860  174.2090  144.4520 C   0  0  0  0  0  2  0  0  0  0  0  0
  1 26  1  6  0  0  0
  1 27  1  0  0  0  0
  1 18  1  0  0  0  0
  2 27  1  0  0  0  0
  2 14  1  0  0  0  0
  3 19  1  0  0  0  0
  3  7  2  0  0  0  0
  4 23  1  6  0  0  0
  4 18  1  0  0  0  0
  4 15  1  0  0  0  0
  5 11  1  1  0  0  0
  5 19  1  0  0  0  0
  8 16  1  0  0  0  0
  9 25  1  0  0  0  0
  9 13  1  0  0  0  0
 10 22  2  0  0  0  0
 12  8  1  0  0  0  0
 12 15  1  0  0  0  0
 13 24  1  0  0  0  0
 14 25  1  0  0  0  0
 15  5  1  0  0  0  0
 16  3  1  0  0  0  0
 17 28  1  0  0  0  0
 17 10  1  0  0  0  0
 18 20  1  0  0  0  0
 19  6  1  0  0  0  0
 20 13  1  0  0  0  0
 20 11  1  0  0  0  0
 21 26  1  0  0  0  0
 21 23  1  0  0  0  0
 24 22  1  0  0  0  0
 25 17  1  0  0  0  0
 27  9  1  0  0  0  0
 28 29  1  0  0  0  0
 30 34  1  0  0  0  0
 31 32  1  0  0  0  0
 32 29  1  0  0  0  0
 33 30  1  0  0  0  0
 33 31  1  0  0  0  0
 34 32  1  0  0  0  0
M  END
>  <MODEL>
1

>  <REMARK>
 VINA RESULT:      -7.9      0.000      0.000
  Name = 
  3 active torsions:
  status: ('A' for Active; 'I' for Inactive)
    1  A    between atoms: C_17  and  N_28
    2  A    between atoms: N_28  and  C_29
    3  A    between atoms: C_29  and  C_32
                            x       y       z     vdW  Elec       q    Type
                         _______ _______ _______ _____ _____    ______ ____

>  <TORSDO>
F 3

$$$$
=
 OpenBabel11112418043D

 34 40  0  0  1  0  0  0  0  0999 V2000
  191.9070  175.7870  145.6090 C   0  0  1  0  0  3  0  0  0  0  0  0
  190.5270  177.6250  144.7860 C   0  0  0  0  0  2  0  0  0  0  0  0
  196.0100  175.1800  140.8090 C   0  0  0  0  0  0  0  0  0  0  0  0
  194.2080  175.3550  144.7640 C   0  0  2  0  0  3  0  0  0  0  0  0
  194.4820  174.1680  142.5550 C   0  0  2  0  0  3  0  0  0  0  0  0
  194.6760  173.1060  140.2170 C   0  0  0  0  0  1  0  0  0  0  0  0
  195.6170  175.7390  139.7500 O   0  0  0  0  0  0  0  0  0  0  0  0
  197.5500  175.1480  142.7410 C   0  0  0  0  0  2  0  0  0  0  0  0
  189.8500  175.4370  144.2970 C   0  0  2  0  0  3  0  0  0  0  0  0
  187.7670  174.6410  142.2880 C   0  0  0  0  0  3  0  0  0  0  0  0
  193.0470  174.5600  142.1850 C   0  0  0  0  0  2  0  0  0  0  0  0
  196.5380  174.9550  143.8860 C   0  0  0  0  0  2  0  0  0  0  0  0
  190.7320  174.9760  143.0910 C   0  0  1  0  0  3  0  0  0  0  0  0
  189.2870  177.7570  143.9200 C   0  0  0  0  0  2  0  0  0  0  0  0
  195.0780  175.2330  143.5100 C   0  0  2  0  0  3  0  0  0  0  0  0
  197.0010  175.7870  141.5870 O   0  0  0  0  0  0  0  0  0  0  0  0
  188.1930  176.0700  142.3990 C   0  0  2  0  0  3  0  0  0  0  0  0
  192.7710  175.7170  144.3590 C   0  0  1  0  0  3  0  0  0  0  0  0
  195.3560  173.9230  141.3080 C   0  0  1  0  0  3  0  0  0  0  0  0
  192.1880  174.6530  143.4470 C   0  0  2  0  0  3  0  0  0  0  0  0
  194.0320  176.2030  146.8490 C   0  0  0  0  0  2  0  0  0  0  0  0
  188.6360  173.6250  142.3010 C   0  0  0  0  0  3  0  0  0  0  0  0
  194.7110  176.3500  145.6240 O   0  0  0  0  0  0  0  0  0  0  0  0
  190.1400  173.7580  142.3550 C   0  0  0  0  0  2  0  0  0  0  0  0
  188.7200  176.3540  143.8110 C   0  0  1  0  0  3  0  0  0  0  0  0
  192.5720  176.6350  146.6980 C   0  0  0  0  0  2  0  0  0  0  0  0
  190.5500  176.2560  145.3000 N   0  0  1  0  0  0  0  0  0  0  0  0
  187.0540  176.9290  142.1140 N   0  0  0  0  0  2  0  0  0  0  0  0
  185.9580  176.4620  142.9460 C   0  0  0  0  0  2  0  0  0  0  0  0
  185.8270  178.9340  145.2320 N   0  0  0  0  0  2  0  0  0  0  0  0
  185.6970  178.9130  142.8480 C   0  0  0  0  0  2  0  0  0  0  0  0
  185.0780  177.6330  143.3490 C   0  0  2  0  0  3  0  0  0  0  0  0
  185.8090  179.8010  144.0650 C   0  0  0  0  0  2  0  0  0  0  0  0
  185.0420  177.7670  144.8610 C   0  0  0  0  0  2  0  0  0  0  0  0
  1 26  1  1  0  0  0
  2 27  1  0  0  0  0
  3 19  1  0  0  0  0
  3 16  1  0  0  0  0
  4 23  1  1  0  0  0
  5 11  1  6  0  0  0
  5 15  1  0  0  0  0
  6 19  1  0  0  0  0
  7  3  2  0  0  0  0
  8 12  1  0  0  0  0
  9 27  1  0  0  0  0
 10 22  2  0  0  0  0
 10 17  1  0  0  0  0
 11 20  1  0  0  0  0
 13 20  1  0  0  0  0
 13  9  1  0  0  0  0
 14  2  1  0  0  0  0
 15 12  1  0  0  0  0
 15  4  1  0  0  0  0
 16  8  1  0  0  0  0
 17 25  1  0  0  0  0
 18  4  1  0  0  0  0
 18  1  1  0  0  0  0
 19  5  1  0  0  0  0
 20 18  1  0  0  0  0
 22 24  1  0  0  0  0
 23 21  1  0  0  0  0
 24 13  1  0  0  0  0
 25 14  1  0  0  0  0
 25  9  1  0  0  0  0
 26 21  1  0  0  0  0
 27  1  1  0  0  0  0
 28 17  1  0  0  0  0
 28 29  1  0  0  0  0
 29 32  1  0  0  0  0
 31 32  1  0  0  0  0
 31 33  1  0  0  0  0
 32 34  1  0  0  0  0
 33 30  1  0  0  0  0
 34 30  1  0  0  0  0
M  END
>  <MODEL>
2

>  <REMARK>
 VINA RESULT:      -7.8      3.476      8.748
  Name = 
  3 active torsions:
  status: ('A' for Active; 'I' for Inactive)
    1  A    between atoms: C_17  and  N_28
    2  A    between atoms: N_28  and  C_29
    3  A    between atoms: C_29  and  C_32
                            x       y       z     vdW  Elec       q    Type
                         _______ _______ _______ _____ _____    ______ ____

>  <TORSDO>
F 3

$$$$
=
 OpenBabel11112418043D

 34 40  0  0  1  0  0  0  0  0999 V2000
  191.2340  173.3010  142.0500 C   0  0  1  0  0  3  0  0  0  0  0  0
  190.2950  172.8840  144.2640 C   0  0  0  0  0  2  0  0  0  0  0  0
  197.3160  174.3150  143.5420 C   0  0  0  0  0  0  0  0  0  0  0  0
  193.6600  173.0500  141.5530 C   0  0  2  0  0  3  0  0  0  0  0  0
  195.2310  174.9030  142.2320 C   0  0  2  0  0  3  0  0  0  0  0  0
  196.7890  176.7580  143.1080 C   0  0  0  0  0  1  0  0  0  0  0  0
  197.4890  174.5650  144.7640 O   0  0  0  0  0  0  0  0  0  0  0  0
  197.5590  172.7480  141.6460 C   0  0  0  0  0  2  0  0  0  0  0  0
  190.2740  175.0820  143.4570 C   0  0  2  0  0  3  0  0  0  0  0  0
  189.7250  177.5500  145.0730 C   0  0  0  0  0  3  0  0  0  0  0  0
  194.1860  175.3970  143.2390 C   0  0  0  0  0  2  0  0  0  0  0  0
  196.1240  172.7790  141.0880 C   0  0  0  0  0  2  0  0  0  0  0  0
  191.7180  175.6360  143.6890 C   0  0  1  0  0  3  0  0  0  0  0  0
  189.7130  173.7310  145.3820 C   0  0  0  0  0  2  0  0  0  0  0  0
  195.0760  173.3740  142.0370 C   0  0  2  0  0  3  0  0  0  0  0  0
  197.6430  173.0510  143.0400 O   0  0  0  0  0  0  0  0  0  0  0  0
  189.8380  176.2220  145.7510 C   0  0  2  0  0  3  0  0  0  0  0  0
  192.6360  173.5850  142.5650 C   0  0  1  0  0  3  0  0  0  0  0  0
  196.6620  175.3150  142.6320 C   0  0  1  0  0  3  0  0  0  0  0  0
  192.7780  175.0870  142.7280 C   0  0  2  0  0  3  0  0  0  0  0  0
  192.2810  171.4730  140.7100 C   0  0  0  0  0  2  0  0  0  0  0  0
  190.5720  177.9480  144.1170 C   0  0  0  0  0  3  0  0  0  0  0  0
  193.4880  171.6590  141.4110 O   0  0  0  0  0  0  0  0  0  0  0  0
  191.7770  177.1760  143.6350 C   0  0  0  0  0  2  0  0  0  0  0  0
  189.4790  175.0990  144.7690 C   0  0  1  0  0  3  0  0  0  0  0  0
  191.0920  171.8430  141.6000 C   0  0  0  0  0  2  0  0  0  0  0  0
  190.2110  173.6720  143.0360 N   0  0  1  0  0  0  0  0  0  0  0  0
  188.9350  176.1910  146.8890 N   0  0  0  0  0  2  0  0  0  0  0  0
  188.0320  177.3210  146.7400 C   0  0  0  0  0  2  0  0  0  0  0  0
  184.9690  178.6450  147.2040 N   0  0  0  0  0  2  0  0  0  0  0  0
  185.7990  176.9290  145.7670 C   0  0  0  0  0  2  0  0  0  0  0  0
  186.6070  176.8880  147.0390 C   0  0  2  0  0  3  0  0  0  0  0  0
  184.6000  177.7900  146.0880 C   0  0  0  0  0  2  0  0  0  0  0  0
  185.9410  177.8830  147.9730 C   0  0  0  0  0  2  0  0  0  0  0  0
  1 26  1  1  0  0  0
  1 18  1  0  0  0  0
  1 27  1  0  0  0  0
  2 14  1  0  0  0  0
  3  7  2  0  0  0  0
  4 23  1  1  0  0  0
  4 15  1  0  0  0  0
  4 18  1  0  0  0  0
  5 19  1  0  0  0  0
  5 11  1  1  0  0  0
  8 16  1  0  0  0  0
  9 13  1  0  0  0  0
  9 25  1  0  0  0  0
 10 17  1  0  0  0  0
 12  8  1  0  0  0  0
 12 15  1  0  0  0  0
 15  5  1  0  0  0  0
 16  3  1  0  0  0  0
 17 28  1  0  0  0  0
 18 20  1  0  0  0  0
 19  6  1  0  0  0  0
 19  3  1  0  0  0  0
 20 11  1  0  0  0  0
 20 13  1  0  0  0  0
 21 23  1  0  0  0  0
 21 26  1  0  0  0  0
 22 10  2  0  0  0  0
 24 13  1  0  0  0  0
 24 22  1  0  0  0  0
 25 14  1  0  0  0  0
 25 17  1  0  0  0  0
 27  9  1  0  0  0  0
 27  2  1  0  0  0  0
 29 28  1  0  0  0  0
 29 32  1  0  0  0  0
 30 34  1  0  0  0  0
 31 33  1  0  0  0  0
 31 32  1  0  0  0  0
 32 34  1  0  0  0  0
 33 30  1  0  0  0  0
M  END
>  <MODEL>
3

>  <REMARK>
 VINA RESULT:      -7.6      4.045      8.617
  Name = 
  3 active torsions:
  status: ('A' for Active; 'I' for Inactive)
    1  A    between atoms: C_17  and  N_28
    2  A    between atoms: N_28  and  C_29
    3  A    between atoms: C_29  and  C_32
                            x       y       z     vdW  Elec       q    Type
                         _______ _______ _______ _____ _____    ______ ____

>  <TORSDO>
F 3

$$$$
=
 OpenBabel11112418043D

 34 40  0  0  1  0  0  0  0  0999 V2000
  193.4390  175.7610  144.2790 C   0  0  1  0  0  3  0  0  0  0  0  0
  191.8150  177.5440  143.9040 C   0  0  0  0  0  2  0  0  0  0  0  0
  191.5140  171.5150  139.9770 C   0  0  0  0  0  0  0  0  0  0  0  0
  193.9450  174.0250  142.5680 C   0  0  2  0  0  3  0  0  0  0  0  0
  192.3440  172.0940  142.2960 C   0  0  2  0  0  3  0  0  0  0  0  0
  190.5780  170.2490  141.9650 C   0  0  0  0  0  1  0  0  0  0  0  0
  190.3450  171.7310  139.5590 O   0  0  0  0  0  0  0  0  0  0  0  0
  193.9490  171.5290  139.5550 C   0  0  0  0  0  2  0  0  0  0  0  0
  191.3160  175.9240  145.5180 C   0  0  2  0  0  3  0  0  0  0  0  0
  188.6380  175.4720  146.7960 C   0  0  0  0  0  3  0  0  0  0  0  0
  191.2510  172.9260  142.9770 C   0  0  0  0  0  2  0  0  0  0  0  0
  194.4320  172.2880  140.8060 C   0  0  0  0  0  2  0  0  0  0  0  0
  190.7930  174.6790  144.7280 C   0  0  1  0  0  3  0  0  0  0  0  0
  190.4290  177.8860  144.4210 C   0  0  0  0  0  2  0  0  0  0  0  0
  193.3340  173.0380  141.5690 C   0  0  2  0  0  3  0  0  0  0  0  0
  192.6090  171.8440  139.1710 O   0  0  0  0  0  0  0  0  0  0  0  0
  188.7780  176.4560  145.6800 C   0  0  2  0  0  3  0  0  0  0  0  0
  192.8240  174.8200  143.2550 C   0  0  1  0  0  3  0  0  0  0  0  0
  191.7570  171.0100  141.3700 C   0  0  1  0  0  3  0  0  0  0  0  0
  191.8770  173.8880  143.9870 C   0  0  2  0  0  3  0  0  0  0  0  0
  195.5300  175.5920  142.9250 C   0  0  0  0  0  2  0  0  0  0  0  0
  189.2140  174.2640  146.7710 C   0  0  0  0  0  3  0  0  0  0  0  0
  194.8140  174.9200  141.9150 O   0  0  0  0  0  0  0  0  0  0  0  0
  190.0110  173.6960  145.6210 C   0  0  0  0  0  2  0  0  0  0  0  0
  190.2160  176.9880  145.6250 C   0  0  1  0  0  3  0  0  0  0  0  0
  194.6050  176.5530  143.6760 C   0  0  0  0  0  2  0  0  0  0  0  0
  192.4300  176.6430  144.8770 N   0  0  1  0  0  0  0  0  0  0  0  0
  187.8530  177.5560  145.8980 N   0  0  0  0  0  2  0  0  0  0  0  0
  186.7370  177.0220  146.6620 C   0  0  0  0  0  2  0  0  0  0  0  0
  184.1770  179.0380  145.8050 N   0  0  0  0  0  2  0  0  0  0  0  0
  185.7460  177.7680  144.5300 C   0  0  0  0  0  2  0  0  0  0  0  0
  185.4820  177.0130  145.8080 C   0  0  2  0  0  3  0  0  0  0  0  0
  184.6520  178.8070  144.4510 C   0  0  0  0  0  2  0  0  0  0  0  0
  184.3680  177.7760  146.5040 C   0  0  0  0  0  2  0  0  0  0  0  0
  1 26  1  6  0  0  0
  1 27  1  0  0  0  0
  2 14  1  0  0  0  0
  2 27  1  0  0  0  0
  3 19  1  0  0  0  0
  4 23  1  6  0  0  0
  4 18  1  0  0  0  0
  5 11  1  6  0  0  0
  7  3  2  0  0  0  0
  8 12  1  0  0  0  0
  9 25  1  0  0  0  0
 11 20  1  0  0  0  0
 12 15  1  0  0  0  0
 13  9  1  0  0  0  0
 13 24  1  0  0  0  0
 14 25  1  0  0  0  0
 15  5  1  0  0  0  0
 15  4  1  0  0  0  0
 16  8  1  0  0  0  0
 16  3  1  0  0  0  0
 17 28  1  0  0  0  0
 17 10  1  0  0  0  0
 18 20  1  0  0  0  0
 18  1  1  0  0  0  0
 19  6  1  0  0  0  0
 19  5  1  0  0  0  0
 20 13  1  0  0  0  0
 21 26  1  0  0  0  0
 22 10  2  0  0  0  0
 23 21  1  0  0  0  0
 24 22  1  0  0  0  0
 25 17  1  0  0  0  0
 27  9  1  0  0  0  0
 28 29  1  0  0  0  0
 30 34  1  0  0  0  0
 31 32  1  0  0  0  0
 32 34  1  0  0  0  0
 32 29  1  0  0  0  0
 33 31  1  0  0  0  0
 33 30  1  0  0  0  0
M  END
>  <MODEL>
4

>  <REMARK>
 VINA RESULT:      -7.6      3.677      8.101
  Name = 
  3 active torsions:
  status: ('A' for Active; 'I' for Inactive)
    1  A    between atoms: C_17  and  N_28
    2  A    between atoms: N_28  and  C_29
    3  A    between atoms: C_29  and  C_32
                            x       y       z     vdW  Elec       q    Type
                         _______ _______ _______ _____ _____    ______ ____

>  <TORSDO>
F 3

$$$$
=
 OpenBabel11112418043D

 34 40  0  0  1  0  0  0  0  0999 V2000
  190.4430  175.2590  145.7320 C   0  0  1  0  0  3  0  0  0  0  0  0
  189.5410  177.4200  145.0430 C   0  0  0  0  0  2  0  0  0  0  0  0
  196.0420  175.3360  142.7510 C   0  0  0  0  0  0  0  0  0  0  0  0
  192.8770  174.7420  145.6760 C   0  0  2  0  0  3  0  0  0  0  0  0
  193.9330  174.1340  143.4660 C   0  0  2  0  0  3  0  0  0  0  0  0
  194.9670  173.6890  141.1500 C   0  0  0  0  0  1  0  0  0  0  0  0
  196.1000  176.1970  141.8330 O   0  0  0  0  0  0  0  0  0  0  0  0
  196.7290  174.5960  145.0070 C   0  0  0  0  0  2  0  0  0  0  0  0
  189.0290  175.5460  143.7340 C   0  0  2  0  0  3  0  0  0  0  0  0
  187.8430  175.5890  140.9780 C   0  0  0  0  0  3  0  0  0  0  0  0
  192.7590  174.8030  142.7400 C   0  0  0  0  0  2  0  0  0  0  0  0
  195.3520  174.2590  145.6080 C   0  0  0  0  0  2  0  0  0  0  0  0
  190.2890  175.2910  142.8420 C   0  0  1  0  0  3  0  0  0  0  0  0
  188.7290  177.9410  143.8700 C   0  0  0  0  0  2  0  0  0  0  0  0
  194.1550  174.8250  144.8350 C   0  0  2  0  0  3  0  0  0  0  0  0
  196.6810  175.5800  143.9710 O   0  0  0  0  0  0  0  0  0  0  0  0
  188.2410  176.8690  141.6400 C   0  0  2  0  0  3  0  0  0  0  0  0
  191.7150  175.3910  144.9090 C   0  0  1  0  0  3  0  0  0  0  0  0
  195.2060  174.0970  142.5980 C   0  0  1  0  0  3  0  0  0  0  0  0
  191.4880  174.6890  143.5830 C   0  0  2  0  0  3  0  0  0  0  0  0
  191.9490  175.0430  147.7110 C   0  0  0  0  0  2  0  0  0  0  0  0
  188.6090  174.4930  141.0030 C   0  0  0  0  0  3  0  0  0  0  0  0
  193.0470  175.4030  146.9070 O   0  0  0  0  0  0  0  0  0  0  0  0
  189.9820  174.3960  141.6250 C   0  0  0  0  0  2  0  0  0  0  0  0
  188.2010  176.7050  143.1660 C   0  0  1  0  0  3  0  0  0  0  0  0
  190.6710  175.6990  147.1820 C   0  0  0  0  0  2  0  0  0  0  0  0
  189.3220  175.9760  145.1120 N   0  0  1  0  0  0  0  0  0  0  0  0
  187.3260  177.9210  141.2320 N   0  0  0  0  0  2  0  0  0  0  0  0
  185.9810  177.4320  141.4890 C   0  0  0  0  0  2  0  0  0  0  0  0
  184.4140  178.3500  144.3270 N   0  0  0  0  0  2  0  0  0  0  0  0
  185.9630  179.4620  142.8900 C   0  0  0  0  0  2  0  0  0  0  0  0
  185.1160  178.5550  142.0330 C   0  0  2  0  0  3  0  0  0  0  0  0
  185.2410  179.5400  144.2150 C   0  0  0  0  0  2  0  0  0  0  0  0
  184.0530  177.9970  142.9620 C   0  0  0  0  0  2  0  0  0  0  0  0
  1 26  1  1  0  0  0
  2 27  1  0  0  0  0
  3 16  1  0  0  0  0
  4 23  1  1  0  0  0
  5 11  1  6  0  0  0
  5 15  1  0  0  0  0
  6 19  1  0  0  0  0
  7  3  2  0  0  0  0
  8 12  1  0  0  0  0
  9 27  1  0  0  0  0
 10 22  2  0  0  0  0
 10 17  1  0  0  0  0
 11 20  1  0  0  0  0
 13 20  1  0  0  0  0
 13  9  1  0  0  0  0
 14  2  1  0  0  0  0
 15 12  1  0  0  0  0
 15  4  1  0  0  0  0
 16  8  1  0  0  0  0
 17 25  1  0  0  0  0
 18  4  1  0  0  0  0
 18  1  1  0  0  0  0
 19  3  1  0  0  0  0
 19  5  1  0  0  0  0
 20 18  1  0  0  0  0
 22 24  1  0  0  0  0
 23 21  1  0  0  0  0
 24 13  1  0  0  0  0
 25  9  1  0  0  0  0
 25 14  1  0  0  0  0
 26 21  1  0  0  0  0
 27  1  1  0  0  0  0
 28 29  1  0  0  0  0
 28 17  1  0  0  0  0
 29 32  1  0  0  0  0
 31 33  1  0  0  0  0
 32 31  1  0  0  0  0
 32 34  1  0  0  0  0
 33 30  1  0  0  0  0
 34 30  1  0  0  0  0
M  END
>  <MODEL>
5

>  <REMARK>
 VINA RESULT:      -7.6      3.407      8.663
  Name = 
  3 active torsions:
  status: ('A' for Active; 'I' for Inactive)
    1  A    between atoms: C_17  and  N_28
    2  A    between atoms: N_28  and  C_29
    3  A    between atoms: C_29  and  C_32
                            x       y       z     vdW  Elec       q    Type
                         _______ _______ _______ _____ _____    ______ ____

>  <TORSDO>
F 3

$$$$
=
 OpenBabel11112418043D

 34 40  0  0  1  0  0  0  0  0999 V2000
  188.9430  176.0990  142.6350 C   0  0  1  0  0  3  0  0  0  0  0  0
  190.9780  177.4410  142.7640 C   0  0  0  0  0  2  0  0  0  0  0  0
  185.3110  179.0860  146.8930 C   0  0  0  0  0  0  0  0  0  0  0  0
  186.7250  176.9510  143.3770 C   0  0  2  0  0  3  0  0  0  0  0  0
  186.1970  176.9600  145.8440 C   0  0  2  0  0  3  0  0  0  0  0  0
  185.8010  177.0950  148.3850 C   0  0  0  0  0  1  0  0  0  0  0  0
  185.9690  179.8330  147.6660 O   0  0  0  0  0  0  0  0  0  0  0  0
  183.7260  178.8600  145.0110 C   0  0  0  0  0  2  0  0  0  0  0  0
  190.8100  175.5610  144.1510 C   0  0  2  0  0  3  0  0  0  0  0  0
  192.5870  174.9250  146.4840 C   0  0  0  0  0  3  0  0  0  0  0  0
  187.6980  176.8930  146.1490 C   0  0  0  0  0  2  0  0  0  0  0  0
  184.4940  177.8530  144.1340 C   0  0  0  0  0  2  0  0  0  0  0  0
  189.9170  175.9990  145.3580 C   0  0  1  0  0  3  0  0  0  0  0  0
  192.2400  177.4340  143.6090 C   0  0  0  0  0  2  0  0  0  0  0  0
  185.9760  177.6860  144.4930 C   0  0  2  0  0  3  0  0  0  0  0  0
  184.5670  179.6520  145.8520 O   0  0  0  0  0  0  0  0  0  0  0  0
  192.7280  176.2310  145.7700 C   0  0  2  0  0  3  0  0  0  0  0  0
  188.2190  176.8730  143.7260 C   0  0  1  0  0  3  0  0  0  0  0  0
  185.3970  177.5910  147.0020 C   0  0  1  0  0  3  0  0  0  0  0  0
  188.4250  176.1360  145.0370 C   0  0  2  0  0  3  0  0  0  0  0  0
  187.0430  176.7460  141.1510 C   0  0  0  0  0  2  0  0  0  0  0  0
  191.3990  174.4020  146.8060 C   0  0  0  0  0  3  0  0  0  0  0  0
  186.5700  177.6210  142.1490 O   0  0  0  0  0  0  0  0  0  0  0  0
  190.0590  175.0590  146.5720 C   0  0  0  0  0  2  0  0  0  0  0  0
  192.2380  176.0950  144.3230 C   0  0  1  0  0  3  0  0  0  0  0  0
  188.5650  176.6160  141.2430 C   0  0  0  0  0  2  0  0  0  0  0  0
  190.3950  176.1020  142.8450 N   0  0  1  0  0  0  0  0  0  0  0  0
  194.1260  176.6310  145.7830 N   0  0  0  0  0  2  0  0  0  0  0  0
  194.9040  175.4300  146.0380 C   0  0  0  0  0  2  0  0  0  0  0  0
  196.7200  173.0840  144.4420 N   0  0  0  0  0  2  0  0  0  0  0  0
  195.4480  174.9550  143.6790 C   0  0  0  0  0  2  0  0  0  0  0  0
  196.0280  175.3160  145.0240 C   0  0  2  0  0  3  0  0  0  0  0  0
  196.2020  173.7200  143.2430 C   0  0  0  0  0  2  0  0  0  0  0  0
  196.9500  174.1650  145.3880 C   0  0  0  0  0  2  0  0  0  0  0  0
  1 26  1  6  0  0  0
  1 27  1  0  0  0  0
  1 18  1  0  0  0  0
  2 27  1  0  0  0  0
  2 14  1  0  0  0  0
  3 19  1  0  0  0  0
  3  7  2  0  0  0  0
  4 23  1  6  0  0  0
  4 18  1  0  0  0  0
  4 15  1  0  0  0  0
  5 11  1  1  0  0  0
  5 19  1  0  0  0  0
  8 16  1  0  0  0  0
  9 25  1  0  0  0  0
  9 13  1  0  0  0  0
 10 22  2  0  0  0  0
 12 15  1  0  0  0  0
 12  8  1  0  0  0  0
 13 24  1  0  0  0  0
 14 25  1  0  0  0  0
 15  5  1  0  0  0  0
 16  3  1  0  0  0  0
 17 28  1  0  0  0  0
 17 10  1  0  0  0  0
 18 20  1  0  0  0  0
 19  6  1  0  0  0  0
 20 13  1  0  0  0  0
 20 11  1  0  0  0  0
 21 26  1  0  0  0  0
 21 23  1  0  0  0  0
 24 22  1  0  0  0  0
 25 17  1  0  0  0  0
 27  9  1  0  0  0  0
 28 29  1  0  0  0  0
 30 34  1  0  0  0  0
 31 32  1  0  0  0  0
 32 34  1  0  0  0  0
 32 29  1  0  0  0  0
 33 31  1  0  0  0  0
 33 30  1  0  0  0  0
M  END
>  <MODEL>
6

>  <REMARK>
 VINA RESULT:      -7.5      1.087      1.220
  Name = 
  3 active torsions:
  status: ('A' for Active; 'I' for Inactive)
    1  A    between atoms: C_17  and  N_28
    2  A    between atoms: N_28  and  C_29
    3  A    between atoms: C_29  and  C_32
                            x       y       z     vdW  Elec       q    Type
                         _______ _______ _______ _____ _____    ______ ____

>  <TORSDO>
F 3

$$$$
=
 OpenBabel11112418043D

 34 40  0  0  1  0  0  0  0  0999 V2000
  191.9990  176.7690  146.4920 C   0  0  1  0  0  3  0  0  0  0  0  0
  192.7140  174.4370  146.4010 C   0  0  0  0  0  2  0  0  0  0  0  0
  186.6080  176.4570  143.1630 C   0  0  0  0  0  0  0  0  0  0  0  0
  189.6380  177.4630  146.1180 C   0  0  2  0  0  3  0  0  0  0  0  0
  188.7820  177.6110  143.7480 C   0  0  2  0  0  3  0  0  0  0  0  0
  187.9390  177.5740  141.3150 C   0  0  0  0  0  1  0  0  0  0  0  0
  186.5160  175.4100  142.4690 O   0  0  0  0  0  0  0  0  0  0  0  0
  185.8670  177.7720  145.1200 C   0  0  0  0  0  2  0  0  0  0  0  0
  193.4910  175.8920  144.7390 C   0  0  2  0  0  3  0  0  0  0  0  0
  194.8280  175.0880  142.1750 C   0  0  0  0  0  3  0  0  0  0  0  0
  189.9220  176.6910  143.2970 C   0  0  0  0  0  2  0  0  0  0  0  0
  187.2330  178.1240  145.7370 C   0  0  0  0  0  2  0  0  0  0  0  0
  192.3190  176.0320  143.7120 C   0  0  1  0  0  3  0  0  0  0  0  0
  193.5370  173.5830  145.4530 C   0  0  0  0  0  2  0  0  0  0  0  0
  188.4100  177.2900  145.2180 C   0  0  2  0  0  3  0  0  0  0  0  0
  185.8760  176.5680  144.3500 O   0  0  0  0  0  0  0  0  0  0  0  0
  194.2630  174.0440  143.0830 C   0  0  2  0  0  3  0  0  0  0  0  0
  190.7710  176.5520  145.6210 C   0  0  1  0  0  3  0  0  0  0  0  0
  187.5730  177.5480  142.7950 C   0  0  1  0  0  3  0  0  0  0  0  0
  191.1460  176.8940  144.1910 C   0  0  2  0  0  3  0  0  0  0  0  0
  190.4080  177.5800  148.2370 C   0  0  0  0  0  2  0  0  0  0  0  0
  194.1780  176.2200  141.8820 C   0  0  0  0  0  3  0  0  0  0  0  0
  189.3280  177.1330  147.4510 O   0  0  0  0  0  0  0  0  0  0  0  0
  192.7880  176.5790  142.3490 C   0  0  0  0  0  2  0  0  0  0  0  0
  194.2290  174.5640  144.5260 C   0  0  1  0  0  3  0  0  0  0  0  0
  191.6410  176.7110  147.9810 C   0  0  0  0  0  2  0  0  0  0  0  0
  193.0750  175.8320  146.1500 N   0  0  1  0  0  0  0  0  0  0  0  0
  195.0890  172.8500  143.0070 N   0  0  0  0  0  2  0  0  0  0  0  0
  196.4540  173.2970  142.7870 C   0  0  0  0  0  2  0  0  0  0  0  0
  197.1530  173.3620  146.0820 N   0  0  0  0  0  2  0  0  0  0  0  0
  196.6180  171.5960  144.5660 C   0  0  0  0  0  2  0  0  0  0  0  0
  197.3820  172.6430  143.7950 C   0  0  2  0  0  3  0  0  0  0  0  0
  196.8270  171.9470  146.0210 C   0  0  0  0  0  2  0  0  0  0  0  0
  197.8330  173.6590  144.8300 C   0  0  0  0  0  2  0  0  0  0  0  0
  1 26  1  1  0  0  0
  3 16  1  0  0  0  0
  4 23  1  1  0  0  0
  5 11  1  6  0  0  0
  5 15  1  0  0  0  0
  6 19  1  0  0  0  0
  7  3  2  0  0  0  0
  8 12  1  0  0  0  0
  9 27  1  0  0  0  0
 10 17  1  0  0  0  0
 11 20  1  0  0  0  0
 13 20  1  0  0  0  0
 13  9  1  0  0  0  0
 14  2  1  0  0  0  0
 15 12  1  0  0  0  0
 15  4  1  0  0  0  0
 16  8  1  0  0  0  0
 17 25  1  0  0  0  0
 18  4  1  0  0  0  0
 18  1  1  0  0  0  0
 19  3  1  0  0  0  0
 19  5  1  0  0  0  0
 20 18  1  0  0  0  0
 22 10  2  0  0  0  0
 22 24  1  0  0  0  0
 23 21  1  0  0  0  0
 24 13  1  0  0  0  0
 25  9  1  0  0  0  0
 25 14  1  0  0  0  0
 26 21  1  0  0  0  0
 27  2  1  0  0  0  0
 27  1  1  0  0  0  0
 28 17  1  0  0  0  0
 29 28  1  0  0  0  0
 29 32  1  0  0  0  0
 31 33  1  0  0  0  0
 32 31  1  0  0  0  0
 32 34  1  0  0  0  0
 33 30  1  0  0  0  0
 34 30  1  0  0  0  0
M  END
>  <MODEL>
7

>  <REMARK>
 VINA RESULT:      -7.4      2.050      4.662
  Name = 
  3 active torsions:
  status: ('A' for Active; 'I' for Inactive)
    1  A    between atoms: C_17  and  N_28
    2  A    between atoms: N_28  and  C_29
    3  A    between atoms: C_29  and  C_32
                            x       y       z     vdW  Elec       q    Type
                         _______ _______ _______ _____ _____    ______ ____

>  <TORSDO>
F 3

$$$$
=
 OpenBabel11112418043D

 34 40  0  0  1  0  0  0  0  0999 V2000
  192.7090  175.4240  145.1050 C   0  0  1  0  0  3  0  0  0  0  0  0
  191.6400  177.5800  144.6990 C   0  0  0  0  0  2  0  0  0  0  0  0
  195.6980  174.5540  139.5770 C   0  0  0  0  0  0  0  0  0  0  0  0
  194.6830  174.6400  143.8060 C   0  0  2  0  0  3  0  0  0  0  0  0
  194.3100  173.6780  141.5030 C   0  0  2  0  0  3  0  0  0  0  0  0
  193.8650  172.8680  139.1000 C   0  0  0  0  0  1  0  0  0  0  0  0
  195.2600  175.2960  138.6570 O   0  0  0  0  0  0  0  0  0  0  0  0
  197.5030  174.0000  141.1710 C   0  0  0  0  0  2  0  0  0  0  0  0
  190.4320  175.6400  144.1890 C   0  0  2  0  0  3  0  0  0  0  0  0
  187.9130  175.5070  142.5630 C   0  0  0  0  0  3  0  0  0  0  0  0
  192.9520  174.3870  141.4450 C   0  0  0  0  0  2  0  0  0  0  0  0
  196.6850  173.8850  142.4710 C   0  0  0  0  0  2  0  0  0  0  0  0
  190.9730  175.1510  142.8050 C   0  0  1  0  0  3  0  0  0  0  0  0
  190.3280  178.0540  144.0980 C   0  0  0  0  0  2  0  0  0  0  0  0
  195.2770  174.4890  142.4030 C   0  0  2  0  0  3  0  0  0  0  0  0
  196.9150  174.8610  140.1940 O   0  0  0  0  0  0  0  0  0  0  0  0
  188.6500  176.8000  142.6940 C   0  0  2  0  0  3  0  0  0  0  0  0
  193.3100  175.3240  143.7110 C   0  0  1  0  0  3  0  0  0  0  0  0
  194.8830  173.4050  140.0980 C   0  0  1  0  0  3  0  0  0  0  0  0
  192.3630  174.5070  142.8520 C   0  0  2  0  0  3  0  0  0  0  0  0
  195.0550  175.2660  145.9430 C   0  0  0  0  0  2  0  0  0  0  0  0
  188.5300  174.3430  142.3330 C   0  0  0  0  0  3  0  0  0  0  0  0
  195.5290  175.4120  144.6250 O   0  0  0  0  0  0  0  0  0  0  0  0
  190.0140  174.1660  142.1080 C   0  0  0  0  0  2  0  0  0  0  0  0
  189.4610  176.8130  143.9970 C   0  0  1  0  0  3  0  0  0  0  0  0
  193.7190  175.9940  146.1060 C   0  0  0  0  0  2  0  0  0  0  0  0
  191.4550  176.1860  145.0970 N   0  0  1  0  0  0  0  0  0  0  0  0
  187.6930  177.8950  142.6970 N   0  0  0  0  0  2  0  0  0  0  0  0
  186.6400  177.5290  143.6300 C   0  0  0  0  0  2  0  0  0  0  0  0
  184.1100  178.8750  145.4020 N   0  0  0  0  0  2  0  0  0  0  0  0
  186.3100  178.1570  145.9920 C   0  0  0  0  0  2  0  0  0  0  0  0
  186.3650  178.6820  144.5790 C   0  0  2  0  0  3  0  0  0  0  0  0
  184.9840  178.6340  146.5380 C   0  0  0  0  0  2  0  0  0  0  0  0
  184.9900  179.2670  144.3110 C   0  0  0  0  0  2  0  0  0  0  0  0
  1 26  1  1  0  0  0
  2 27  1  0  0  0  0
  3 19  1  0  0  0  0
  3 16  1  0  0  0  0
  4 23  1  1  0  0  0
  5 11  1  6  0  0  0
  5 15  1  0  0  0  0
  6 19  1  0  0  0  0
  7  3  2  0  0  0  0
  8 12  1  0  0  0  0
  9 27  1  0  0  0  0
 10 17  1  0  0  0  0
 11 20  1  0  0  0  0
 13 20  1  0  0  0  0
 13  9  1  0  0  0  0
 14  2  1  0  0  0  0
 15 12  1  0  0  0  0
 15  4  1  0  0  0  0
 16  8  1  0  0  0  0
 17 28  1  0  0  0  0
 17 25  1  0  0  0  0
 18  4  1  0  0  0  0
 18  1  1  0  0  0  0
 19  5  1  0  0  0  0
 20 18  1  0  0  0  0
 21 26  1  0  0  0  0
 22 10  2  0  0  0  0
 23 21  1  0  0  0  0
 24 22  1  0  0  0  0
 24 13  1  0  0  0  0
 25 14  1  0  0  0  0
 25  9  1  0  0  0  0
 27  1  1  0  0  0  0
 28 29  1  0  0  0  0
 29 32  1  0  0  0  0
 30 33  1  0  0  0  0
 31 33  1  0  0  0  0
 32 31  1  0  0  0  0
 34 32  1  0  0  0  0
 34 30  1  0  0  0  0
M  END
>  <MODEL>
8

>  <REMARK>
 VINA RESULT:      -7.4      3.784      8.939
  Name = 
  3 active torsions:
  status: ('A' for Active; 'I' for Inactive)
    1  A    between atoms: C_17  and  N_28
    2  A    between atoms: N_28  and  C_29
    3  A    between atoms: C_29  and  C_32
                            x       y       z     vdW  Elec       q    Type
                         _______ _______ _______ _____ _____    ______ ____

>  <TORSDO>
F 3

$$$$
=
 OpenBabel11112418043D

 34 40  0  0  1  0  0  0  0  0999 V2000
  193.7980  175.9890  144.8360 C   0  0  1  0  0  3  0  0  0  0  0  0
  192.2490  177.6310  143.9070 C   0  0  0  0  0  2  0  0  0  0  0  0
  192.9960  171.1980  140.7560 C   0  0  0  0  0  0  0  0  0  0  0  0
  194.7190  174.1050  143.4950 C   0  0  2  0  0  3  0  0  0  0  0  0
  193.2740  172.0720  143.1150 C   0  0  2  0  0  3  0  0  0  0  0  0
  191.6770  170.1100  142.6300 C   0  0  0  0  0  1  0  0  0  0  0  0
  191.9440  171.3050  140.0710 O   0  0  0  0  0  0  0  0  0  0  0  0
  195.4630  171.2960  140.8760 C   0  0  0  0  0  2  0  0  0  0  0  0
  191.4490  176.1740  145.5560 C   0  0  2  0  0  3  0  0  0  0  0  0
  188.5680  175.7220  146.2650 C   0  0  0  0  0  3  0  0  0  0  0  0
  192.0340  172.9150  143.4370 C   0  0  0  0  0  2  0  0  0  0  0  0
  195.6340  172.2130  142.1020 C   0  0  0  0  0  2  0  0  0  0  0  0
  191.1500  174.8230  144.8250 C   0  0  1  0  0  3  0  0  0  0  0  0
  190.7740  177.9530  144.0660 C   0  0  0  0  0  2  0  0  0  0  0  0
  194.3730  172.9830  142.5120 C   0  0  2  0  0  3  0  0  0  0  0  0
  194.2330  171.4950  140.1750 O   0  0  0  0  0  0  0  0  0  0  0  0
  188.9240  176.5840  145.0970 C   0  0  2  0  0  3  0  0  0  0  0  0
  193.4520  174.9100  143.8230 C   0  0  1  0  0  3  0  0  0  0  0  0
  192.9370  170.8640  142.2190 C   0  0  1  0  0  3  0  0  0  0  0  0
  192.3920  174.0140  144.4380 C   0  0  2  0  0  3  0  0  0  0  0  0
  196.1410  175.7850  143.9990 C   0  0  0  0  0  2  0  0  0  0  0  0
  189.1670  174.5520  146.5100 C   0  0  0  0  0  3  0  0  0  0  0  0
  195.6870  174.9670  142.9460 O   0  0  0  0  0  0  0  0  0  0  0  0
  190.2160  173.9040  145.6360 C   0  0  0  0  0  2  0  0  0  0  0  0
  190.3240  177.1830  145.2930 C   0  0  1  0  0  3  0  0  0  0  0  0
  195.0460  176.7710  144.4110 C   0  0  0  0  0  2  0  0  0  0  0  0
  192.6560  176.8760  145.0910 N   0  0  1  0  0  0  0  0  0  0  0  0
  187.9430  177.6500  144.9760 N   0  0  0  0  0  2  0  0  0  0  0  0
  186.7120  177.0380  144.5080 C   0  0  0  0  0  2  0  0  0  0  0  0
  185.5680  177.6930  147.6080 N   0  0  0  0  0  2  0  0  0  0  0  0
  185.9010  179.0540  145.6750 C   0  0  0  0  0  2  0  0  0  0  0  0
  185.5200  177.6740  145.2010 C   0  0  2  0  0  3  0  0  0  0  0  0
  185.5660  179.0720  147.1480 C   0  0  0  0  0  2  0  0  0  0  0  0
  185.1670  176.8980  146.4570 C   0  0  0  0  0  2  0  0  0  0  0  0
  1 26  1  6  0  0  0
  1 27  1  0  0  0  0
  2 14  1  0  0  0  0
  2 27  1  0  0  0  0
  3 19  1  0  0  0  0
  4 23  1  6  0  0  0
  4 18  1  0  0  0  0
  5 11  1  6  0  0  0
  7  3  2  0  0  0  0
  8 12  1  0  0  0  0
 10 22  2  0  0  0  0
 11 20  1  0  0  0  0
 12 15  1  0  0  0  0
 13  9  1  0  0  0  0
 13 24  1  0  0  0  0
 14 25  1  0  0  0  0
 15  5  1  0  0  0  0
 15  4  1  0  0  0  0
 16  3  1  0  0  0  0
 16  8  1  0  0  0  0
 17 25  1  0  0  0  0
 17 10  1  0  0  0  0
 18 20  1  0  0  0  0
 18  1  1  0  0  0  0
 19  6  1  0  0  0  0
 19  5  1  0  0  0  0
 20 13  1  0  0  0  0
 21 26  1  0  0  0  0
 23 21  1  0  0  0  0
 24 22  1  0  0  0  0
 25  9  1  0  0  0  0
 27  9  1  0  0  0  0
 28 17  1  0  0  0  0
 29 28  1  0  0  0  0
 29 32  1  0  0  0  0
 31 33  1  0  0  0  0
 32 31  1  0  0  0  0
 32 34  1  0  0  0  0
 33 30  1  0  0  0  0
 34 30  1  0  0  0  0
M  END
>  <MODEL>
9

>  <REMARK>
 VINA RESULT:      -7.4      3.686      8.436
  Name = 
  3 active torsions:
  status: ('A' for Active; 'I' for Inactive)
    1  A    between atoms: C_17  and  N_28
    2  A    between atoms: N_28  and  C_29
    3  A    between atoms: C_29  and  C_32
                            x       y       z     vdW  Elec       q    Type
                         _______ _______ _______ _____ _____    ______ ____

>  <TORSDO>
F 3

$$$$
