=
 OpenBabel11112416533D

 31 36  0  0  1  0  0  0  0  0999 V2000
  196.8470  170.9240  145.3620 C   0  0  0  0  0  0  0  0  0  0  0  0
  195.9680  174.6070  145.0670 C   0  0  2  0  0  3  0  0  0  0  0  0
  196.2440  174.9960  143.5890 C   0  0  1  0  0  3  0  0  0  0  0  0
  196.2840  174.4310  141.1690 C   0  0  1  0  0  3  0  0  0  0  0  0
  195.8320  173.1270  145.3160 C   0  0  0  0  0  0  0  0  0  0  0  0
  195.6040  170.3540  145.6480 C   0  0  0  0  0  3  0  0  0  0  0  0
  195.8090  173.9640  142.5450 C   0  0  0  0  0  2  0  0  0  0  0  0
  193.4720  174.8120  145.2790 C   0  0  2  0  0  3  0  0  0  0  0  0
  197.9410  170.1360  145.2410 F   0  0  0  0  0  0  0  0  0  0  0  0
  195.9010  177.1480  144.2720 O   0  0  0  0  0  0  0  0  0  0  0  0
  195.7910  173.5730  140.1880 O   0  0  0  0  0  1  0  0  0  0  0  0
  193.3590  173.3950  145.8470 C   0  0  0  0  0  2  0  0  0  0  0  0
  194.8210  175.4310  145.6860 C   0  0  2  0  0  3  0  0  0  0  0  0
  196.9600  172.3070  145.1940 C   0  0  0  0  0  3  0  0  0  0  0  0
  195.8250  175.8610  140.8790 C   0  0  0  0  0  2  0  0  0  0  0  0
  194.5760  172.5500  145.5980 C   0  0  0  0  0  0  0  0  0  0  0  0
  194.4750  171.1670  145.7730 C   0  0  0  0  0  3  0  0  0  0  0  0
  194.9270  176.9200  145.2690 C   0  0  0  0  0  2  0  0  0  0  0  0
  195.6080  176.2790  143.2690 N   0  0  1  0  0  0  0  0  0  0  0  0
  196.2080  176.7840  142.0380 C   0  0  0  0  0  2  0  0  0  0  0  0
  191.1190  174.8420  145.6550 O   0  0  0  0  0  0  0  0  0  0  0  0
  191.3080  175.8420  144.6850 C   0  0  2  0  0  3  0  0  0  0  0  0
  192.2820  175.6240  145.7800 C   0  0  2  0  0  3  0  0  0  0  0  0
  188.3080  176.9980  142.8750 C   0  0  1  0  0  3  0  0  0  0  0  0
  188.9510  176.4820  145.2510 C   0  0  0  0  0  2  0  0  0  0  0  0
  191.5960  178.5880  143.6370 O   0  0  0  0  0  1  0  0  0  0  0  0
  187.7240  176.4130  141.6070 C   0  0  0  0  0  1  0  0  0  0  0  0
  188.3220  175.9310  143.9680 C   0  0  0  0  0  2  0  0  0  0  0  0
  190.3270  178.0650  143.8830 C   0  0  2  0  0  3  0  0  0  0  0  0
  190.3670  177.0060  144.9960 C   0  0  2  0  0  3  0  0  0  0  0  0
  189.7210  177.5020  142.6000 C   0  0  0  0  0  2  0  0  0  0  0  0
  1  6  1  0  0  0  0
  2  5  1  6  0  0  0
  2 13  1  0  0  0  0
  3  7  1  6  0  0  0
  3  2  1  0  0  0  0
  4 11  1  6  0  0  0
  4  7  1  0  0  0  0
  5 16  2  0  0  0  0
  6 17  2  0  0  0  0
  8 13  1  0  0  0  0
  8 23  1  0  0  0  0
  8 12  1  1  0  0  0
  9  1  1  0  0  0  0
 10 18  1  0  0  0  0
 13 18  1  6  0  0  0
 14  5  1  0  0  0  0
 14  1  2  0  0  0  0
 15  4  1  0  0  0  0
 15 20  1  0  0  0  0
 16 17  1  0  0  0  0
 16 12  1  0  0  0  0
 19 20  1  6  0  0  0
 19  3  1  0  0  0  0
 19 10  1  0  0  0  0
 22 30  1  0  0  0  0
 22 21  1  1  0  0  0
 22 23  1  0  0  0  0
 23 21  1  1  0  0  0
 24 27  1  6  0  0  0
 24 28  1  0  0  0  0
 28 25  1  0  0  0  0
 29 26  1  6  0  0  0
 29 30  1  0  0  0  0
 30 25  1  6  0  0  0
 31 24  1  0  0  0  0
 31 29  1  0  0  0  0
M  END
>  <MODEL>
1

>  <REMARK>
 VINA RESULT:      -7.8      0.000      0.000
  Name = 
  2 active torsions:
  status: ('A' for Active; 'I' for Inactive)
    1  A    between atoms: C_5  and  C_30
    2  A    between atoms: C_10  and  C_16
                            x       y       z     vdW  Elec       q    Type
                         _______ _______ _______ _____ _____    ______ ____

>  <TORSDO>
F 2

$$$$
=
 OpenBabel11112416533D

 31 36  0  0  1  0  0  0  0  0999 V2000
  186.0880  178.1300  146.8220 C   0  0  0  0  0  0  0  0  0  0  0  0
  189.2030  177.8040  144.6730 C   0  0  2  0  0  3  0  0  0  0  0  0
  190.3280  177.3150  145.6240 C   0  0  1  0  0  3  0  0  0  0  0  0
  191.0890  175.9850  147.5820 C   0  0  1  0  0  3  0  0  0  0  0  0
  187.8030  177.5960  145.1920 C   0  0  0  0  0  0  0  0  0  0  0  0
  185.2540  177.1560  146.2690 C   0  0  0  0  0  3  0  0  0  0  0  0
  189.9150  176.2420  146.6360 C   0  0  0  0  0  2  0  0  0  0  0  0
  188.8520  175.8630  143.1170 C   0  0  2  0  0  3  0  0  0  0  0  0
  185.6650  178.8600  147.8820 F   0  0  0  0  0  0  0  0  0  0  0  0
  191.7420  177.7180  143.8760 O   0  0  0  0  0  0  0  0  0  0  0  0
  190.7810  174.9230  148.4300 O   0  0  0  0  0  1  0  0  0  0  0  0
  187.3470  175.8510  143.3990 C   0  0  0  0  0  2  0  0  0  0  0  0
  189.3920  177.2990  143.2290 C   0  0  2  0  0  3  0  0  0  0  0  0
  187.3590  178.3480  146.2860 C   0  0  0  0  0  3  0  0  0  0  0  0
  192.3680  175.6670  146.8040 C   0  0  0  0  0  2  0  0  0  0  0  0
  186.9630  176.6070  144.6380 C   0  0  0  0  0  0  0  0  0  0  0  0
  185.6880  176.4030  145.1760 C   0  0  0  0  0  3  0  0  0  0  0  0
  190.8790  177.3960  142.8050 C   0  0  0  0  0  2  0  0  0  0  0  0
  191.4690  176.8110  144.8500 N   0  0  1  0  0  0  0  0  0  0  0  0
  192.6220  176.7400  145.7430 C   0  0  0  0  0  2  0  0  0  0  0  0
  188.4500  174.0020  141.6830 O   0  0  0  0  0  0  0  0  0  0  0  0
  189.8460  173.9910  141.8500 C   0  0  2  0  0  3  0  0  0  0  0  0
  189.0850  175.2580  141.7370 C   0  0  2  0  0  3  0  0  0  0  0  0
  191.9700  171.0930  141.0120 C   0  0  1  0  0  3  0  0  0  0  0  0
  189.9570  172.2510  140.0480 C   0  0  0  0  0  2  0  0  0  0  0  0
  192.5590  174.7770  140.9870 O   0  0  0  0  0  1  0  0  0  0  0  0
  192.4220  169.9910  141.9460 C   0  0  0  0  0  1  0  0  0  0  0  0
  190.4440  171.1150  140.9510 C   0  0  0  0  0  2  0  0  0  0  0  0
  192.0270  173.5520  140.5860 C   0  0  2  0  0  3  0  0  0  0  0  0
  190.4930  173.6060  140.5190 C   0  0  2  0  0  3  0  0  0  0  0  0
  192.5060  172.4330  141.5070 C   0  0  0  0  0  2  0  0  0  0  0  0
  1  9  1  0  0  0  0
  2  5  1  1  0  0  0
  2  3  1  0  0  0  0
  3  7  1  1  0  0  0
  4 11  1  1  0  0  0
  5 14  2  0  0  0  0
  6  1  2  0  0  0  0
  7  4  1  0  0  0  0
  8 13  1  0  0  0  0
  8 12  1  6  0  0  0
 10 19  1  0  0  0  0
 12 16  1  0  0  0  0
 13 18  1  1  0  0  0
 13  2  1  0  0  0  0
 14  1  1  0  0  0  0
 15  4  1  0  0  0  0
 16 17  2  0  0  0  0
 16  5  1  0  0  0  0
 17  6  1  0  0  0  0
 18 10  1  0  0  0  0
 19  3  1  0  0  0  0
 19 20  1  1  0  0  0
 20 15  1  0  0  0  0
 22 21  1  6  0  0  0
 23 21  1  1  0  0  0
 23 22  1  0  0  0  0
 23  8  1  0  0  0  0
 24 31  1  0  0  0  0
 24 27  1  1  0  0  0
 25 28  1  0  0  0  0
 28 24  1  0  0  0  0
 29 26  1  1  0  0  0
 29 31  1  0  0  0  0
 30 25  1  1  0  0  0
 30 29  1  0  0  0  0
 30 22  1  0  0  0  0
M  END
>  <MODEL>
2

>  <REMARK>
 VINA RESULT:      -7.5      4.378      7.845
  Name = 
  2 active torsions:
  status: ('A' for Active; 'I' for Inactive)
    1  A    between atoms: C_5  and  C_30
    2  A    between atoms: C_10  and  C_16
                            x       y       z     vdW  Elec       q    Type
                         _______ _______ _______ _____ _____    ______ ____

>  <TORSDO>
F 2

$$$$
=
 OpenBabel11112416533D

 31 36  0  0  1  0  0  0  0  0999 V2000
  186.1630  178.2870  147.5790 C   0  0  0  0  0  0  0  0  0  0  0  0
  188.2050  175.5730  145.8790 C   0  0  2  0  0  3  0  0  0  0  0  0
  188.0040  175.7790  144.3530 C   0  0  1  0  0  3  0  0  0  0  0  0
  187.6610  177.2670  142.3910 C   0  0  1  0  0  3  0  0  0  0  0  0
  187.8510  176.7660  146.7290 C   0  0  0  0  0  0  0  0  0  0  0  0
  187.1560  179.0490  148.1980 C   0  0  0  0  0  3  0  0  0  0  0  0
  188.0190  177.2350  143.8780 C   0  0  0  0  0  2  0  0  0  0  0  0
  190.6330  176.1130  146.2370 C   0  0  2  0  0  3  0  0  0  0  0  0
  184.8640  178.6540  147.6850 F   0  0  0  0  0  0  0  0  0  0  0  0
  189.0780  173.7770  144.1170 O   0  0  0  0  0  0  0  0  0  0  0  0
  187.7930  178.5670  141.9070 O   0  0  0  0  0  1  0  0  0  0  0  0
  190.2940  177.1110  147.3470 C   0  0  0  0  0  2  0  0  0  0  0  0
  189.5900  174.9820  146.2140 C   0  0  2  0  0  3  0  0  0  0  0  0
  186.5100  177.1500  146.8450 C   0  0  0  0  0  3  0  0  0  0  0  0
  188.5580  176.3250  141.5850 C   0  0  0  0  0  2  0  0  0  0  0  0
  188.8550  177.5400  147.3490 C   0  0  0  0  0  0  0  0  0  0  0  0
  188.4970  178.6710  148.0890 C   0  0  0  0  0  3  0  0  0  0  0  0
  189.9660  173.8630  145.2120 C   0  0  0  0  0  2  0  0  0  0  0  0
  189.0160  175.0310  143.5970 N   0  0  1  0  0  0  0  0  0  0  0  0
  188.5600  174.9300  142.2150 C   0  0  0  0  0  2  0  0  0  0  0  0
  192.9470  176.6730  146.3530 O   0  0  0  0  0  0  0  0  0  0  0  0
  192.8780  175.7880  145.2620 C   0  0  2  0  0  3  0  0  0  0  0  0
  192.0480  175.5960  146.4740 C   0  0  2  0  0  3  0  0  0  0  0  0
  195.7560  175.6850  142.9550 C   0  0  1  0  0  3  0  0  0  0  0  0
  195.3790  175.7440  145.4400 C   0  0  0  0  0  2  0  0  0  0  0  0
  193.1280  173.1980  143.8640 O   0  0  0  0  0  1  0  0  0  0  0  0
  195.9730  176.5410  141.7260 C   0  0  0  0  0  1  0  0  0  0  0  0
  195.6440  176.5810  144.1870 C   0  0  0  0  0  2  0  0  0  0  0  0
  194.2480  174.0120  144.0300 C   0  0  2  0  0  3  0  0  0  0  0  0
  194.1170  174.8910  145.2830 C   0  0  2  0  0  3  0  0  0  0  0  0
  194.4890  174.8540  142.7800 C   0  0  0  0  0  2  0  0  0  0  0  0
  1  9  1  0  0  0  0
  1  6  1  0  0  0  0
  2 13  1  0  0  0  0
  2  5  1  1  0  0  0
  3  7  1  1  0  0  0
  3  2  1  0  0  0  0
  4 11  1  6  0  0  0
  4  7  1  0  0  0  0
  5 14  1  0  0  0  0
  5 16  2  0  0  0  0
  8 23  1  0  0  0  0
  8 12  1  1  0  0  0
 10 18  1  0  0  0  0
 12 16  1  0  0  0  0
 13 18  1  6  0  0  0
 13  8  1  0  0  0  0
 14  1  2  0  0  0  0
 15 20  1  0  0  0  0
 15  4  1  0  0  0  0
 16 17  1  0  0  0  0
 17  6  2  0  0  0  0
 19 20  1  6  0  0  0
 19 10  1  0  0  0  0
 19  3  1  0  0  0  0
 22 30  1  0  0  0  0
 22 21  1  1  0  0  0
 22 23  1  0  0  0  0
 23 21  1  1  0  0  0
 24 27  1  6  0  0  0
 24 28  1  0  0  0  0
 28 25  1  0  0  0  0
 29 26  1  6  0  0  0
 29 30  1  0  0  0  0
 30 25  1  6  0  0  0
 31 24  1  0  0  0  0
 31 29  1  0  0  0  0
M  END
>  <MODEL>
3

>  <REMARK>
 VINA RESULT:      -7.5      3.825      8.009
  Name = 
  2 active torsions:
  status: ('A' for Active; 'I' for Inactive)
    1  A    between atoms: C_5  and  C_30
    2  A    between atoms: C_10  and  C_16
                            x       y       z     vdW  Elec       q    Type
                         _______ _______ _______ _____ _____    ______ ____

>  <TORSDO>
F 2

$$$$
=
 OpenBabel11112416533D

 31 36  0  0  1  0  0  0  0  0999 V2000
  185.7540  177.4710  142.3480 C   0  0  0  0  0  0  0  0  0  0  0  0
  188.2130  175.0200  143.8870 C   0  0  2  0  0  3  0  0  0  0  0  0
  188.5740  174.0130  142.7630 C   0  0  1  0  0  3  0  0  0  0  0  0
  188.9840  173.4920  140.3670 C   0  0  1  0  0  3  0  0  0  0  0  0
  187.6030  176.3110  143.4070 C   0  0  0  0  0  0  0  0  0  0  0  0
  186.4760  178.6660  142.3880 C   0  0  0  0  0  3  0  0  0  0  0  0
  188.7870  174.6250  141.3750 C   0  0  0  0  0  2  0  0  0  0  0  0
  190.3630  176.2550  144.2930 C   0  0  2  0  0  3  0  0  0  0  0  0
  184.5100  177.4490  141.8130 F   0  0  0  0  0  0  0  0  0  0  0  0
  189.6210  172.8200  144.4050 O   0  0  0  0  0  0  0  0  0  0  0  0
  189.3060  174.0260  139.1210 O   0  0  0  0  0  1  0  0  0  0  0  0
  189.6700  177.6090  144.1200 C   0  0  0  0  0  2  0  0  0  0  0  0
  189.3740  175.2340  144.8800 C   0  0  2  0  0  3  0  0  0  0  0  0
  186.3160  176.2970  142.8550 C   0  0  0  0  0  3  0  0  0  0  0  0
  190.0900  172.5350  140.8170 C   0  0  0  0  0  2  0  0  0  0  0  0
  188.3340  177.5180  143.4410 C   0  0  0  0  0  0  0  0  0  0  0  0
  187.7590  178.6890  142.9390 C   0  0  0  0  0  3  0  0  0  0  0  0
  190.0610  173.8870  145.2180 C   0  0  0  0  0  2  0  0  0  0  0  0
  189.7740  173.2480  143.1240 N   0  0  1  0  0  0  0  0  0  0  0  0
  189.8400  172.0780  142.2560 C   0  0  0  0  0  2  0  0  0  0  0  0
  192.4470  177.3820  144.5560 O   0  0  0  0  0  0  0  0  0  0  0  0
  192.8160  176.0290  144.4630 C   0  0  2  0  0  3  0  0  0  0  0  0
  191.5900  176.4550  145.1770 C   0  0  2  0  0  3  0  0  0  0  0  0
  196.2850  174.9700  143.7810 C   0  0  1  0  0  3  0  0  0  0  0  0
  195.1230  176.7340  145.1460 C   0  0  0  0  0  2  0  0  0  0  0  0
  193.4700  173.4140  145.6720 O   0  0  0  0  0  1  0  0  0  0  0  0
  196.9000  174.6700  142.4310 C   0  0  0  0  0  1  0  0  0  0  0  0
  195.7920  176.4160  143.8060 C   0  0  0  0  0  2  0  0  0  0  0  0
  194.4860  174.3250  145.3880 C   0  0  2  0  0  3  0  0  0  0  0  0
  193.9690  175.7710  145.4350 C   0  0  2  0  0  3  0  0  0  0  0  0
  195.1300  174.0060  144.0410 C   0  0  0  0  0  2  0  0  0  0  0  0
  1  6  2  0  0  0  0
  1 14  1  0  0  0  0
  2  5  1  6  0  0  0
  2 13  1  0  0  0  0
  3  7  1  6  0  0  0
  3 19  1  0  0  0  0
  3  2  1  0  0  0  0
  4 11  1  6  0  0  0
  4 15  1  0  0  0  0
  4  7  1  0  0  0  0
  5 16  1  0  0  0  0
  6 17  1  0  0  0  0
  8 12  1  1  0  0  0
  8 13  1  0  0  0  0
  8 23  1  0  0  0  0
  9  1  1  0  0  0  0
 10 18  1  0  0  0  0
 13 18  1  6  0  0  0
 14  5  2  0  0  0  0
 15 20  1  0  0  0  0
 16 12  1  0  0  0  0
 17 16  2  0  0  0  0
 19 20  1  6  0  0  0
 19 10  1  0  0  0  0
 22 21  1  6  0  0  0
 22 23  1  0  0  0  0
 22 30  1  0  0  0  0
 23 21  1  6  0  0  0
 24 27  1  6  0  0  0
 24 28  1  0  0  0  0
 24 31  1  0  0  0  0
 28 25  1  0  0  0  0
 29 30  1  0  0  0  0
 29 26  1  6  0  0  0
 30 25  1  6  0  0  0
 31 29  1  0  0  0  0
M  END
>  <MODEL>
4

>  <REMARK>
 VINA RESULT:      -7.4      3.831      7.947
  Name = 
  2 active torsions:
  status: ('A' for Active; 'I' for Inactive)
    1  A    between atoms: C_5  and  C_30
    2  A    between atoms: C_10  and  C_16
                            x       y       z     vdW  Elec       q    Type
                         _______ _______ _______ _____ _____    ______ ____

>  <TORSDO>
F 2

$$$$
=
 OpenBabel11112416533D

 31 36  0  0  1  0  0  0  0  0999 V2000
  187.9030  176.4010  146.8740 C   0  0  0  0  0  0  0  0  0  0  0  0
  190.4850  174.0140  145.4380 C   0  0  2  0  0  3  0  0  0  0  0  0
  189.9670  173.6210  144.0280 C   0  0  1  0  0  3  0  0  0  0  0  0
  188.7710  174.1830  141.9220 C   0  0  1  0  0  3  0  0  0  0  0  0
  189.8640  175.2600  146.0150 C   0  0  0  0  0  0  0  0  0  0  0  0
  188.6340  177.5870  146.9760 C   0  0  0  0  0  3  0  0  0  0  0  0
  189.3620  174.7640  143.2080 C   0  0  0  0  0  2  0  0  0  0  0  0
  192.5640  175.3410  144.9600 C   0  0  2  0  0  3  0  0  0  0  0  0
  186.5990  176.3760  147.2370 F   0  0  0  0  0  0  0  0  0  0  0  0
  191.6480  172.0750  144.0310 O   0  0  0  0  0  0  0  0  0  0  0  0
  188.3290  175.2190  141.1020 O   0  0  0  0  0  1  0  0  0  0  0  0
  192.0730  176.5060  145.8230 C   0  0  0  0  0  2  0  0  0  0  0  0
  192.0250  174.0130  145.5190 C   0  0  2  0  0  3  0  0  0  0  0  0
  188.5170  175.2410  146.3940 C   0  0  0  0  0  3  0  0  0  0  0  0
  189.8020  173.3370  141.1720 C   0  0  0  0  0  2  0  0  0  0  0  0
  190.6000  176.4600  146.1120 C   0  0  0  0  0  0  0  0  0  0  0  0
  189.9800  177.6130  146.6030 C   0  0  0  0  0  3  0  0  0  0  0  0
  192.6130  172.7870  144.7760 C   0  0  0  0  0  2  0  0  0  0  0  0
  191.0400  173.0000  143.2420 N   0  0  1  0  0  0  0  0  0  0  0  0
  190.4270  172.3060  142.1140 C   0  0  0  0  0  2  0  0  0  0  0  0
  194.4920  176.6380  144.4290 O   0  0  0  0  0  0  0  0  0  0  0  0
  194.5660  175.5590  143.5310 C   0  0  2  0  0  3  0  0  0  0  0  0
  194.0880  175.3830  144.9220 C   0  0  2  0  0  3  0  0  0  0  0  0
  196.5990  175.1090  140.4840 C   0  0  1  0  0  3  0  0  0  0  0  0
  196.8260  176.2640  142.7060 C   0  0  0  0  0  2  0  0  0  0  0  0
  195.5260  172.7850  143.1980 O   0  0  0  0  0  1  0  0  0  0  0  0
  196.1470  175.2850  139.0500 C   0  0  0  0  0  1  0  0  0  0  0  0
  196.4200  176.4250  141.2390 C   0  0  0  0  0  2  0  0  0  0  0  0
  196.2150  173.8390  142.5980 C   0  0  2  0  0  3  0  0  0  0  0  0
  196.0310  175.1450  143.3850 C   0  0  2  0  0  3  0  0  0  0  0  0
  195.7850  173.9990  141.1420 C   0  0  0  0  0  2  0  0  0  0  0  0
  1  6  1  0  0  0  0
  1  9  1  0  0  0  0
  2 13  1  0  0  0  0
  2  5  1  6  0  0  0
  3  7  1  6  0  0  0
  3  2  1  0  0  0  0
  4 11  1  6  0  0  0
  4  7  1  0  0  0  0
  5 16  2  0  0  0  0
  5 14  1  0  0  0  0
  8 13  1  0  0  0  0
  8 12  1  1  0  0  0
 10 18  1  0  0  0  0
 12 16  1  0  0  0  0
 13 18  1  6  0  0  0
 14  1  2  0  0  0  0
 15  4  1  0  0  0  0
 15 20  1  0  0  0  0
 16 17  1  0  0  0  0
 17  6  2  0  0  0  0
 19 20  1  6  0  0  0
 19  3  1  0  0  0  0
 19 10  1  0  0  0  0
 22 21  1  1  0  0  0
 22 23  1  0  0  0  0
 23 21  1  1  0  0  0
 23  8  1  0  0  0  0
 24 27  1  6  0  0  0
 24 31  1  0  0  0  0
 24 28  1  0  0  0  0
 28 25  1  0  0  0  0
 29 26  1  1  0  0  0
 29 30  1  0  0  0  0
 30 25  1  6  0  0  0
 30 22  1  0  0  0  0
 31 29  1  0  0  0  0
M  END
>  <MODEL>
5

>  <REMARK>
 VINA RESULT:      -7.2      3.364      7.125
  Name = 
  2 active torsions:
  status: ('A' for Active; 'I' for Inactive)
    1  A    between atoms: C_5  and  C_30
    2  A    between atoms: C_10  and  C_16
                            x       y       z     vdW  Elec       q    Type
                         _______ _______ _______ _____ _____    ______ ____

>  <TORSDO>
F 2

$$$$
=
 OpenBabel11112416533D

 31 36  0  0  1  0  0  0  0  0999 V2000
  185.7720  178.4690  144.6920 C   0  0  0  0  0  0  0  0  0  0  0  0
  189.3290  177.3940  143.9040 C   0  0  2  0  0  3  0  0  0  0  0  0
  189.8790  176.7490  145.2050 C   0  0  1  0  0  3  0  0  0  0  0  0
  189.5410  175.4180  147.2770 C   0  0  1  0  0  3  0  0  0  0  0  0
  187.8270  177.5020  143.8390 C   0  0  0  0  0  0  0  0  0  0  0  0
  185.0290  177.6490  143.8400 C   0  0  0  0  0  3  0  0  0  0  0  0
  188.8970  175.8460  145.9570 C   0  0  0  0  0  2  0  0  0  0  0  0
  189.2020  175.4690  142.2940 C   0  0  2  0  0  3  0  0  0  0  0  0
  185.1400  179.3330  145.5210 F   0  0  0  0  0  0  0  0  0  0  0  0
  191.9020  176.7530  144.1450 O   0  0  0  0  0  0  0  0  0  0  0  0
  188.7190  174.4950  147.9200 O   0  0  0  0  0  1  0  0  0  0  0  0
  187.7360  175.7760  141.9730 C   0  0  0  0  0  2  0  0  0  0  0  0
  189.9450  176.7730  142.6340 C   0  0  2  0  0  3  0  0  0  0  0  0
  187.1670  178.3950  144.6920 C   0  0  0  0  0  3  0  0  0  0  0  0
  190.9230  174.8040  147.0470 C   0  0  0  0  0  2  0  0  0  0  0  0
  187.0750  176.6690  142.9830 C   0  0  0  0  0  0  0  0  0  0  0  0
  185.6800  176.7570  142.9840 C   0  0  0  0  0  3  0  0  0  0  0  0
  191.4660  176.5440  142.8190 C   0  0  0  0  0  2  0  0  0  0  0  0
  191.0960  175.9800  144.9210 N   0  0  1  0  0  0  0  0  0  0  0  0
  191.7790  175.7360  146.1870 C   0  0  0  0  0  2  0  0  0  0  0  0
  189.0160  173.6220  140.7990 O   0  0  0  0  0  0  0  0  0  0  0  0
  190.2210  173.3730  141.4800 C   0  0  2  0  0  3  0  0  0  0  0  0
  189.8110  174.7450  141.0980 C   0  0  2  0  0  3  0  0  0  0  0  0
  192.2550  170.3020  141.7050 C   0  0  1  0  0  3  0  0  0  0  0  0
  190.7660  171.4150  140.0110 C   0  0  0  0  0  2  0  0  0  0  0  0
  193.1230  173.9240  141.4880 O   0  0  0  0  0  1  0  0  0  0  0  0
  192.2870  169.3090  142.8470 C   0  0  0  0  0  1  0  0  0  0  0  0
  190.8380  170.3830  141.1400 C   0  0  0  0  0  2  0  0  0  0  0  0
  192.6500  172.6830  141.0650 C   0  0  2  0  0  3  0  0  0  0  0  0
  191.2310  172.7940  140.4870 C   0  0  2  0  0  3  0  0  0  0  0  0
  192.7100  171.6700  142.2060 C   0  0  0  0  0  2  0  0  0  0  0  0
  1 14  1  0  0  0  0
  1  9  1  0  0  0  0
  2  5  1  6  0  0  0
  2  3  1  0  0  0  0
  3  7  1  6  0  0  0
  4 11  1  6  0  0  0
  5 14  2  0  0  0  0
  6  1  2  0  0  0  0
  7  4  1  0  0  0  0
  8 12  1  6  0  0  0
  8 13  1  0  0  0  0
 10 19  1  0  0  0  0
 12 16  1  0  0  0  0
 13 18  1  1  0  0  0
 13  2  1  0  0  0  0
 15  4  1  0  0  0  0
 16 17  2  0  0  0  0
 16  5  1  0  0  0  0
 17  6  1  0  0  0  0
 18 10  1  0  0  0  0
 19  3  1  0  0  0  0
 19 20  1  1  0  0  0
 20 15  1  0  0  0  0
 22 21  1  6  0  0  0
 23 21  1  6  0  0  0
 23 22  1  0  0  0  0
 23  8  1  0  0  0  0
 24 31  1  0  0  0  0
 24 27  1  1  0  0  0
 25 28  1  0  0  0  0
 28 24  1  0  0  0  0
 29 26  1  1  0  0  0
 29 31  1  0  0  0  0
 30 25  1  1  0  0  0
 30 29  1  0  0  0  0
 30 22  1  0  0  0  0
M  END
>  <MODEL>
6

>  <REMARK>
 VINA RESULT:      -7.2      4.395      8.244
  Name = 
  2 active torsions:
  status: ('A' for Active; 'I' for Inactive)
    1  A    between atoms: C_5  and  C_30
    2  A    between atoms: C_10  and  C_16
                            x       y       z     vdW  Elec       q    Type
                         _______ _______ _______ _____ _____    ______ ____

>  <TORSDO>
F 2

$$$$
=
 OpenBabel11112416533D

 31 36  0  0  1  0  0  0  0  0999 V2000
  187.6350  176.8180  142.3540 C   0  0  0  0  0  0  0  0  0  0  0  0
  191.1570  176.8320  143.7770 C   0  0  2  0  0  3  0  0  0  0  0  0
  191.0020  176.6040  145.3050 C   0  0  1  0  0  3  0  0  0  0  0  0
  189.8270  175.5690  147.2360 C   0  0  1  0  0  3  0  0  0  0  0  0
  189.9560  176.4420  142.9550 C   0  0  0  0  0  0  0  0  0  0  0  0
  187.6590  175.6820  141.5410 C   0  0  0  0  0  3  0  0  0  0  0  0
  189.9580  175.5610  145.7120 C   0  0  0  0  0  2  0  0  0  0  0  0
  192.3070  174.7450  142.9790 C   0  0  2  0  0  3  0  0  0  0  0  0
  186.5010  177.5500  142.4620 F   0  0  0  0  0  0  0  0  0  0  0  0
  193.2290  177.0940  145.4290 O   0  0  0  0  0  0  0  0  0  0  0  0
  188.9770  174.5410  147.6380 O   0  0  0  0  0  1  0  0  0  0  0  0
  191.2390  174.5130  141.9060 C   0  0  0  0  0  2  0  0  0  0  0  0
  192.4770  176.2540  143.2280 C   0  0  2  0  0  3  0  0  0  0  0  0
  188.7800  177.1950  143.0600 C   0  0  0  0  0  3  0  0  0  0  0  0
  191.1910  175.4020  147.9100 C   0  0  0  0  0  2  0  0  0  0  0  0
  189.9760  175.2910  142.1390 C   0  0  0  0  0  0  0  0  0  0  0  0
  188.8280  174.9270  141.4290 C   0  0  0  0  0  3  0  0  0  0  0  0
  193.6510  176.5550  144.1930 C   0  0  0  0  0  2  0  0  0  0  0  0
  192.2900  176.2320  145.9020 N   0  0  1  0  0  0  0  0  0  0  0  0
  192.1870  176.4170  147.3450 C   0  0  0  0  0  2  0  0  0  0  0  0
  193.3850  172.6920  142.4260 O   0  0  0  0  0  0  0  0  0  0  0  0
  194.0950  173.1420  143.5530 C   0  0  2  0  0  3  0  0  0  0  0  0
  193.6000  174.0800  142.5180 C   0  0  2  0  0  3  0  0  0  0  0  0
  196.2560  170.7600  145.3620 C   0  0  1  0  0  3  0  0  0  0  0  0
  195.7470  171.3480  142.9710 C   0  0  0  0  0  2  0  0  0  0  0  0
  196.3270  174.4690  144.9610 O   0  0  0  0  0  1  0  0  0  0  0  0
  195.8620  169.8630  146.5160 C   0  0  0  0  0  1  0  0  0  0  0  0
  195.4010  170.4250  144.1410 C   0  0  0  0  0  2  0  0  0  0  0  0
  196.4330  173.1280  144.5920 C   0  0  2  0  0  3  0  0  0  0  0  0
  195.5770  172.8210  143.3540 C   0  0  2  0  0  3  0  0  0  0  0  0
  196.0670  172.2200  145.7640 C   0  0  0  0  0  2  0  0  0  0  0  0
  1  9  1  0  0  0  0
  1 14  1  0  0  0  0
  2  5  1  6  0  0  0
  2  3  1  0  0  0  0
  3  7  1  6  0  0  0
  3 19  1  0  0  0  0
  4 11  1  6  0  0  0
  4 15  1  0  0  0  0
  5 14  2  0  0  0  0
  6  1  2  0  0  0  0
  7  4  1  0  0  0  0
  8 12  1  6  0  0  0
  8 13  1  0  0  0  0
 10 19  1  0  0  0  0
 12 16  1  0  0  0  0
 13  2  1  0  0  0  0
 13 18  1  1  0  0  0
 16  5  1  0  0  0  0
 17  6  1  0  0  0  0
 17 16  2  0  0  0  0
 18 10  1  0  0  0  0
 19 20  1  1  0  0  0
 20 15  1  0  0  0  0
 22 21  1  6  0  0  0
 23 21  1  6  0  0  0
 23  8  1  0  0  0  0
 23 22  1  0  0  0  0
 24 31  1  0  0  0  0
 24 27  1  1  0  0  0
 25 28  1  0  0  0  0
 28 24  1  0  0  0  0
 29 26  1  1  0  0  0
 29 31  1  0  0  0  0
 30 25  1  1  0  0  0
 30 22  1  0  0  0  0
 30 29  1  0  0  0  0
M  END
>  <MODEL>
7

>  <REMARK>
 VINA RESULT:      -7.1      3.248      7.704
  Name = 
  2 active torsions:
  status: ('A' for Active; 'I' for Inactive)
    1  A    between atoms: C_5  and  C_30
    2  A    between atoms: C_10  and  C_16
                            x       y       z     vdW  Elec       q    Type
                         _______ _______ _______ _____ _____    ______ ____

>  <TORSDO>
F 2

$$$$
=
 OpenBabel11112416533D

 31 36  0  0  1  0  0  0  0  0999 V2000
  186.4930  177.0130  142.6280 C   0  0  0  0  0  0  0  0  0  0  0  0
  189.0550  174.3280  143.4370 C   0  0  2  0  0  3  0  0  0  0  0  0
  189.1650  173.4450  142.1650 C   0  0  1  0  0  3  0  0  0  0  0  0
  189.1280  173.1880  139.6920 C   0  0  1  0  0  3  0  0  0  0  0  0
  188.4370  175.6840  143.2130 C   0  0  0  0  0  0  0  0  0  0  0  0
  187.2700  178.1730  142.6670 C   0  0  0  0  0  3  0  0  0  0  0  0
  189.1660  174.2040  140.8350 C   0  0  0  0  0  2  0  0  0  0  0  0
  191.3020  175.4420  143.5840 C   0  0  2  0  0  3  0  0  0  0  0  0
  185.1760  177.0910  142.3230 F   0  0  0  0  0  0  0  0  0  0  0  0
  190.4190  172.0410  143.4590 O   0  0  0  0  0  0  0  0  0  0  0  0
  189.2570  173.8510  138.4730 O   0  0  0  0  0  1  0  0  0  0  0  0
  190.6590  176.8280  143.6830 C   0  0  0  0  0  2  0  0  0  0  0  0
  190.3790  174.3920  144.2250 C   0  0  2  0  0  3  0  0  0  0  0  0
  187.0750  175.7720  142.8990 C   0  0  0  0  0  3  0  0  0  0  0  0
  190.2460  172.1530  139.8350 C   0  0  0  0  0  2  0  0  0  0  0  0
  189.2230  176.8550  143.2450 C   0  0  0  0  0  0  0  0  0  0  0  0
  188.6290  178.0940  142.9810 C   0  0  0  0  0  3  0  0  0  0  0  0
  191.0460  172.9940  144.2900 C   0  0  0  0  0  2  0  0  0  0  0  0
  190.3690  172.6080  142.2240 N   0  0  1  0  0  0  0  0  0  0  0  0
  190.2250  171.5420  141.2380 C   0  0  0  0  0  2  0  0  0  0  0  0
  193.2620  176.7460  143.9600 O   0  0  0  0  0  0  0  0  0  0  0  0
  193.7390  175.6400  143.2340 C   0  0  2  0  0  3  0  0  0  0  0  0
  192.6720  175.5020  144.2530 C   0  0  2  0  0  3  0  0  0  0  0  0
  197.0040  175.3810  141.5350 C   0  0  1  0  0  3  0  0  0  0  0  0
  196.0920  176.4010  143.6450 C   0  0  0  0  0  2  0  0  0  0  0  0
  194.8280  172.8950  143.2670 O   0  0  0  0  0  1  0  0  0  0  0  0
  197.2970  175.6420  140.0720 C   0  0  0  0  0  1  0  0  0  0  0  0
  196.4400  176.6480  142.1750 C   0  0  0  0  0  2  0  0  0  0  0  0
  195.6870  173.9840  143.1300 C   0  0  2  0  0  3  0  0  0  0  0  0
  195.1040  175.2410  143.7950 C   0  0  2  0  0  3  0  0  0  0  0  0
  196.0090  174.2310  141.6580 C   0  0  0  0  0  2  0  0  0  0  0  0
  1  6  2  0  0  0  0
  1 14  1  0  0  0  0
  2  5  1  6  0  0  0
  2 13  1  0  0  0  0
  3  7  1  6  0  0  0
  3 19  1  0  0  0  0
  3  2  1  0  0  0  0
  4 11  1  6  0  0  0
  4 15  1  0  0  0  0
  4  7  1  0  0  0  0
  5 16  1  0  0  0  0
  6 17  1  0  0  0  0
  8 12  1  1  0  0  0
  8 13  1  0  0  0  0
  8 23  1  0  0  0  0
  9  1  1  0  0  0  0
 10 18  1  0  0  0  0
 13 18  1  6  0  0  0
 14  5  2  0  0  0  0
 15 20  1  0  0  0  0
 16 12  1  0  0  0  0
 17 16  2  0  0  0  0
 19 20  1  6  0  0  0
 19 10  1  0  0  0  0
 22 30  1  0  0  0  0
 22 21  1  1  0  0  0
 22 23  1  0  0  0  0
 23 21  1  1  0  0  0
 24 27  1  6  0  0  0
 24 31  1  0  0  0  0
 24 28  1  0  0  0  0
 28 25  1  0  0  0  0
 29 26  1  6  0  0  0
 29 30  1  0  0  0  0
 30 25  1  6  0  0  0
 31 29  1  0  0  0  0
M  END
>  <MODEL>
8

>  <REMARK>
 VINA RESULT:      -7.0      3.908      7.764
  Name = 
  2 active torsions:
  status: ('A' for Active; 'I' for Inactive)
    1  A    between atoms: C_5  and  C_30
    2  A    between atoms: C_10  and  C_16
                            x       y       z     vdW  Elec       q    Type
                         _______ _______ _______ _____ _____    ______ ____

>  <TORSDO>
F 2

$$$$
=
 OpenBabel11112416533D

 31 36  0  0  1  0  0  0  0  0999 V2000
  195.4350  170.1310  144.4200 C   0  0  0  0  0  0  0  0  0  0  0  0
  194.9560  173.7840  145.3430 C   0  0  2  0  0  3  0  0  0  0  0  0
  195.6930  174.6020  144.2490 C   0  0  1  0  0  3  0  0  0  0  0  0
  196.4210  174.9090  141.8920 C   0  0  1  0  0  3  0  0  0  0  0  0
  194.6450  172.3590  144.9650 C   0  0  0  0  0  0  0  0  0  0  0  0
  194.1260  169.7310  144.1430 C   0  0  0  0  0  3  0  0  0  0  0  0
  195.5200  174.0900  142.8160 C   0  0  0  0  0  2  0  0  0  0  0  0
  192.5350  174.3480  144.9800 C   0  0  2  0  0  3  0  0  0  0  0  0
  196.4550  169.2500  144.2890 F   0  0  0  0  0  0  0  0  0  0  0  0
  195.3160  176.4110  145.5920 O   0  0  0  0  0  0  0  0  0  0  0  0
  196.1860  174.5460  140.5670 O   0  0  0  0  0  1  0  0  0  0  0  0
  192.1530  172.8670  144.9130 C   0  0  0  0  0  2  0  0  0  0  0  0
  193.7390  174.5350  145.9190 C   0  0  2  0  0  3  0  0  0  0  0  0
  195.6940  171.4420  144.8290 C   0  0  0  0  0  3  0  0  0  0  0  0
  196.1750  176.4100  142.0650 C   0  0  0  0  0  2  0  0  0  0  0  0
  193.3230  171.9560  144.6770 C   0  0  0  0  0  0  0  0  0  0  0  0
  193.0740  170.6390  144.2780 C   0  0  0  0  0  3  0  0  0  0  0  0
  194.0730  176.0310  146.1440 C   0  0  0  0  0  2  0  0  0  0  0  0
  195.2780  176.0090  144.2940 N   0  0  1  0  0  0  0  0  0  0  0  0
  196.2560  176.7910  143.5450 C   0  0  0  0  0  2  0  0  0  0  0  0
  190.1650  174.5660  144.8500 O   0  0  0  0  0  0  0  0  0  0  0  0
  190.6350  175.7570  144.2700 C   0  0  2  0  0  3  0  0  0  0  0  0
  191.3110  175.1370  145.4330 C   0  0  2  0  0  3  0  0  0  0  0  0
  187.9080  177.4180  142.4200 C   0  0  1  0  0  3  0  0  0  0  0  0
  188.2610  176.4350  144.7080 C   0  0  0  0  0  2  0  0  0  0  0  0
  191.1600  178.6250  143.7940 O   0  0  0  0  0  1  0  0  0  0  0  0
  187.4410  177.1140  141.0120 C   0  0  0  0  0  1  0  0  0  0  0  0
  187.7540  176.1700  143.2880 C   0  0  0  0  0  2  0  0  0  0  0  0
  189.8500  178.1480  143.8090 C   0  0  2  0  0  3  0  0  0  0  0  0
  189.7190  176.9040  144.7000 C   0  0  2  0  0  3  0  0  0  0  0  0
  189.3640  177.8710  142.3880 C   0  0  0  0  0  2  0  0  0  0  0  0
  1 14  1  0  0  0  0
  2  5  1  6  0  0  0
  2 13  1  0  0  0  0
  3  7  1  6  0  0  0
  3 19  1  0  0  0  0
  3  2  1  0  0  0  0
  4 11  1  6  0  0  0
  4 15  1  0  0  0  0
  4  7  1  0  0  0  0
  6 17  1  0  0  0  0
  6  1  2  0  0  0  0
  8 12  1  1  0  0  0
  8 23  1  0  0  0  0
  8 13  1  0  0  0  0
  9  1  1  0  0  0  0
 10 18  1  0  0  0  0
 13 18  1  6  0  0  0
 14  5  2  0  0  0  0
 15 20  1  0  0  0  0
 16 12  1  0  0  0  0
 16  5  1  0  0  0  0
 17 16  2  0  0  0  0
 19 20  1  6  0  0  0
 19 10  1  0  0  0  0
 22 30  1  0  0  0  0
 22 21  1  1  0  0  0
 22 23  1  0  0  0  0
 23 21  1  6  0  0  0
 24 27  1  6  0  0  0
 24 28  1  0  0  0  0
 28 25  1  0  0  0  0
 29 26  1  6  0  0  0
 29 30  1  0  0  0  0
 30 25  1  6  0  0  0
 31 24  1  0  0  0  0
 31 29  1  0  0  0  0
M  END
>  <MODEL>
9

>  <REMARK>
 VINA RESULT:      -6.9      1.184      1.307
  Name = 
  2 active torsions:
  status: ('A' for Active; 'I' for Inactive)
    1  A    between atoms: C_5  and  C_30
    2  A    between atoms: C_10  and  C_16
                            x       y       z     vdW  Elec       q    Type
                         _______ _______ _______ _____ _____    ______ ____

>  <TORSDO>
F 2

$$$$
