=
 OpenBabel11112417343D

 28 32  0  0  1  0  0  0  0  0999 V2000
  194.8180  173.8730  144.4310 C   0  0  0  0  0  0  0  0  0  0  0  0
  192.6130  173.2980  141.2460 O   0  0  0  0  0  0  0  0  0  0  0  0
  190.0550  177.4270  145.5400 C   0  0  0  0  0  1  0  0  0  0  0  0
  194.6660  171.2750  145.4720 C   0  0  0  0  0  3  0  0  0  0  0  0
  189.5510  175.2150  146.1010 C   0  0  1  0  0  3  0  0  0  0  0  0
  194.9420  175.2840  143.9510 C   0  0  0  0  0  2  0  0  0  0  0  0
  191.1560  171.3290  141.4720 O   0  0  0  0  0  0  0  0  0  0  0  0
  191.3110  172.7870  141.7970 S   0  0  0  0  0  0  0  0  0  0  0  0
  189.1960  174.5230  141.9270 C   0  0  0  0  0  0  0  0  0  0  0  0
  191.2500  173.0000  143.5590 C   0  0  2  0  0  3  0  0  0  0  0  0
  194.3640  177.3780  146.8230 O   0  0  0  0  0  0  0  0  0  0  0  0
  191.5960  174.5100  145.3130 C   0  0  2  0  0  3  0  0  0  0  0  0
  189.2140  174.4640  143.2260 N   0  0  0  0  0  0  0  0  0  0  0  0
  190.0020  173.6700  141.1190 N   0  0  0  0  0  2  0  0  0  0  0  0
  194.1140  176.7710  145.7490 C   0  0  0  0  0  0  0  0  0  0  0  0
  193.5650  173.2360  144.5370 C   0  0  0  0  0  0  0  0  0  0  0  0
  190.4840  176.3140  146.3840 N   0  0  0  0  0  0  0  0  0  0  0  0
  188.3820  175.5010  141.2920 N   0  0  0  0  0  1  0  0  0  0  0  0
  192.7140  176.7660  145.2250 C   0  0  0  0  0  2  0  0  0  0  0  0
  193.5030  171.9380  145.0750 C   0  0  0  0  0  3  0  0  0  0  0  0
  195.9780  173.2020  144.8330 C   0  0  0  0  0  3  0  0  0  0  0  0
  195.9050  171.9060  145.3460 C   0  0  0  0  0  3  0  0  0  0  0  0
  195.1570  176.1470  145.0610 O   0  0  0  0  0  0  0  0  0  0  0  0
  190.3280  174.2060  145.3310 C   0  0  2  0  0  3  0  0  0  0  0  0
  191.8310  175.7960  146.0240 C   0  0  2  0  0  3  0  0  0  0  0  0
  189.8960  173.4910  144.0940 C   0  0  2  0  0  3  0  0  0  0  0  0
  189.0690  174.6060  147.4050 C   0  0  0  0  0  1  0  0  0  0  0  0
  192.3040  173.9530  144.1260 C   0  0  1  0  0  3  0  0  0  0  0  0
  1 16  2  0  0  0  0
  1 21  1  0  0  0  0
  2  8  2  0  0  0  0
  3 17  1  0  0  0  0
  5 17  1  0  0  0  0
  5 27  1  1  0  0  0
  6  1  1  0  0  0  0
  6 23  1  0  0  0  0
  7  8  2  0  0  0  0
  9 13  2  0  0  0  0
 10  8  1  6  0  0  0
 10 26  1  0  0  0  0
 10 28  1  0  0  0  0
 12 24  1  0  0  0  0
 12 25  1  0  0  0  0
 13 26  1  0  0  0  0
 14  8  1  0  0  0  0
 14  9  1  0  0  0  0
 15 11  2  0  0  0  0
 16 20  1  0  0  0  0
 18  9  1  0  0  0  0
 19 15  1  0  0  0  0
 19 25  1  0  0  0  0
 20  4  2  0  0  0  0
 21 22  2  0  0  0  0
 22  4  1  0  0  0  0
 23 15  1  0  0  0  0
 24  5  1  0  0  0  0
 25 17  1  0  0  0  0
 26 24  1  0  0  0  0
 28 16  1  0  0  0  0
 28 12  1  0  0  0  0
M  END
>  <MODEL>
1

>  <REMARK>
 VINA RESULT:      -7.6      0.000      0.000
  Name = 
  0 active torsions:
  status: ('A' for Active; 'I' for Inactive)
                            x       y       z     vdW  Elec       q    Type
                         _______ _______ _______ _____ _____    ______ ____

>  <TORSDO>
F 0

$$$$
=
 OpenBabel11112417343D

 28 32  0  0  1  0  0  0  0  0999 V2000
  185.9540  176.7090  143.1510 C   0  0  0  0  0  0  0  0  0  0  0  0
  187.1140  173.1350  142.0470 O   0  0  0  0  0  0  0  0  0  0  0  0
  190.7220  175.7680  146.7460 C   0  0  0  0  0  1  0  0  0  0  0  0
  186.4890  178.0430  140.7440 C   0  0  0  0  0  3  0  0  0  0  0  0
  191.4370  176.4850  144.6390 C   0  0  1  0  0  3  0  0  0  0  0  0
  185.6490  176.0780  144.4710 C   0  0  0  0  0  2  0  0  0  0  0  0
  188.6300  173.2110  140.1100 O   0  0  0  0  0  0  0  0  0  0  0  0
  188.5360  173.3390  141.6040 S   0  0  0  0  0  0  0  0  0  0  0  0
  190.5400  172.5560  143.2990 C   0  0  0  0  0  0  0  0  0  0  0  0
  189.1180  174.9460  142.0870 C   0  0  2  0  0  3  0  0  0  0  0  0
  187.0020  178.2840  146.9770 O   0  0  0  0  0  0  0  0  0  0  0  0
  189.2710  176.4680  143.8580 C   0  0  2  0  0  3  0  0  0  0  0  0
  190.9150  173.7930  143.4440 N   0  0  0  0  0  0  0  0  0  0  0  0
  189.5540  172.1710  142.3460 N   0  0  0  0  0  2  0  0  0  0  0  0
  186.9350  177.2910  146.2050 C   0  0  0  0  0  0  0  0  0  0  0  0
  187.1990  176.5290  142.5150 C   0  0  0  0  0  0  0  0  0  0  0  0
  190.6000  176.8630  145.7860 N   0  0  0  0  0  0  0  0  0  0  0  0
  191.0950  171.5630  144.1520 N   0  0  0  0  0  1  0  0  0  0  0  0
  188.1120  176.3760  146.0930 C   0  0  0  0  0  2  0  0  0  0  0  0
  187.4580  177.2160  141.3160 C   0  0  0  0  0  3  0  0  0  0  0  0
  184.9890  177.5410  142.5720 C   0  0  0  0  0  3  0  0  0  0  0  0
  185.2520  178.2010  141.3700 C   0  0  0  0  0  3  0  0  0  0  0  0
  185.7520  177.0550  145.5010 O   0  0  0  0  0  0  0  0  0  0  0  0
  190.4950  176.1490  143.5380 C   0  0  2  0  0  3  0  0  0  0  0  0
  189.2230  177.0110  145.2430 C   0  0  2  0  0  3  0  0  0  0  0  0
  190.5550  174.9650  142.6310 C   0  0  2  0  0  3  0  0  0  0  0  0
  192.3060  177.6600  144.2330 C   0  0  0  0  0  1  0  0  0  0  0  0
  188.2560  175.6510  143.1360 C   0  0  1  0  0  3  0  0  0  0  0  0
  1  6  1  0  0  0  0
  4 20  2  0  0  0  0
  4 22  1  0  0  0  0
  5 27  1  6  0  0  0
  5 17  1  0  0  0  0
  6 23  1  0  0  0  0
  7  8  2  0  0  0  0
  8  2  2  0  0  0  0
  8 14  1  0  0  0  0
  9 13  2  0  0  0  0
  9 18  1  0  0  0  0
 10  8  1  1  0  0  0
 10 26  1  0  0  0  0
 10 28  1  0  0  0  0
 12 25  1  0  0  0  0
 14  9  1  0  0  0  0
 15 11  2  0  0  0  0
 16 28  1  0  0  0  0
 16  1  2  0  0  0  0
 17  3  1  0  0  0  0
 19 15  1  0  0  0  0
 20 16  1  0  0  0  0
 21  1  1  0  0  0  0
 22 21  2  0  0  0  0
 23 15  1  0  0  0  0
 24 12  1  0  0  0  0
 24  5  1  0  0  0  0
 25 17  1  0  0  0  0
 25 19  1  0  0  0  0
 26 13  1  0  0  0  0
 26 24  1  0  0  0  0
 28 12  1  0  0  0  0
M  END
>  <MODEL>
2

>  <REMARK>
 VINA RESULT:      -7.4      3.617      6.488
  Name = 
  0 active torsions:
  status: ('A' for Active; 'I' for Inactive)
                            x       y       z     vdW  Elec       q    Type
                         _______ _______ _______ _____ _____    ______ ____

>  <TORSDO>
F 0

$$$$
=
 OpenBabel11112417343D

 28 32  0  0  1  0  0  0  0  0999 V2000
  186.4430  178.3040  144.3860 C   0  0  0  0  0  0  0  0  0  0  0  0
  190.0970  178.2900  145.7950 O   0  0  0  0  0  0  0  0  0  0  0  0
  189.3250  174.8270  140.3680 C   0  0  0  0  0  1  0  0  0  0  0  0
  185.2120  176.9470  146.5080 C   0  0  0  0  0  3  0  0  0  0  0  0
  188.7560  173.5690  142.2540 C   0  0  1  0  0  3  0  0  0  0  0  0
  187.0200  179.0240  143.2100 C   0  0  0  0  0  2  0  0  0  0  0  0
  190.4260  176.5430  147.4950 O   0  0  0  0  0  0  0  0  0  0  0  0
  190.3890  176.8330  146.0220 S   0  0  0  0  0  0  0  0  0  0  0  0
  191.9750  175.5370  144.2030 C   0  0  0  0  0  0  0  0  0  0  0  0
  189.1460  175.8190  145.2610 C   0  0  2  0  0  3  0  0  0  0  0  0
  185.6570  177.4270  140.2840 O   0  0  0  0  0  0  0  0  0  0  0  0
  187.9250  175.4440  143.3000 C   0  0  2  0  0  3  0  0  0  0  0  0
  190.9740  174.7850  143.8490 N   0  0  0  0  0  0  0  0  0  0  0  0
  191.9010  176.4230  145.3160 N   0  0  0  0  0  2  0  0  0  0  0  0
  186.4950  177.7040  141.1820 C   0  0  0  0  0  0  0  0  0  0  0  0
  187.0120  177.1120  144.8770 C   0  0  0  0  0  0  0  0  0  0  0  0
  188.1900  174.4000  141.1830 N   0  0  0  0  0  0  0  0  0  0  0  0
  193.1650  175.5110  143.4250 N   0  0  0  0  0  1  0  0  0  0  0  0
  187.7630  176.9170  141.2630 C   0  0  0  0  0  2  0  0  0  0  0  0
  186.3750  176.4350  145.9310 C   0  0  0  0  0  3  0  0  0  0  0  0
  185.2750  178.8100  144.9690 C   0  0  0  0  0  3  0  0  0  0  0  0
  184.6640  178.1390  146.0300 C   0  0  0  0  0  3  0  0  0  0  0  0
  186.2300  178.7610  142.0560 O   0  0  0  0  0  0  0  0  0  0  0  0
  188.6400  174.3720  143.5010 C   0  0  2  0  0  3  0  0  0  0  0  0
  187.5110  175.5300  141.8730 C   0  0  2  0  0  3  0  0  0  0  0  0
  189.6910  174.5760  144.5400 C   0  0  2  0  0  3  0  0  0  0  0  0
  187.9500  172.2910  142.3880 C   0  0  0  0  0  1  0  0  0  0  0  0
  188.2590  176.5440  144.2470 C   0  0  1  0  0  3  0  0  0  0  0  0
  1 16  2  0  0  0  0
  1 21  1  0  0  0  0
  2  8  2  0  0  0  0
  3 17  1  0  0  0  0
  5 27  1  1  0  0  0
  5 24  1  0  0  0  0
  6  1  1  0  0  0  0
  8  7  2  0  0  0  0
  9 14  1  0  0  0  0
 10  8  1  6  0  0  0
 11 15  2  0  0  0  0
 12 24  1  0  0  0  0
 12 28  1  0  0  0  0
 13  9  2  0  0  0  0
 13 26  1  0  0  0  0
 14  8  1  0  0  0  0
 15 19  1  0  0  0  0
 15 23  1  0  0  0  0
 16 20  1  0  0  0  0
 17 25  1  0  0  0  0
 17  5  1  0  0  0  0
 18  9  1  0  0  0  0
 19 25  1  0  0  0  0
 20  4  2  0  0  0  0
 21 22  2  0  0  0  0
 22  4  1  0  0  0  0
 23  6  1  0  0  0  0
 24 26  1  0  0  0  0
 25 12  1  0  0  0  0
 26 10  1  0  0  0  0
 28 16  1  0  0  0  0
 28 10  1  0  0  0  0
M  END
>  <MODEL>
3

>  <REMARK>
 VINA RESULT:      -7.4      3.882      7.345
  Name = 
  0 active torsions:
  status: ('A' for Active; 'I' for Inactive)
                            x       y       z     vdW  Elec       q    Type
                         _______ _______ _______ _____ _____    ______ ____

>  <TORSDO>
F 0

$$$$
=
 OpenBabel11112417343D

 28 32  0  0  1  0  0  0  0  0999 V2000
  190.0990  175.1100  144.8390 C   0  0  0  0  0  0  0  0  0  0  0  0
  193.2240  177.4350  144.4320 O   0  0  0  0  0  0  0  0  0  0  0  0
  194.1830  171.3280  142.4800 C   0  0  0  0  0  1  0  0  0  0  0  0
  189.9550  175.1520  147.6380 C   0  0  0  0  0  3  0  0  0  0  0  0
  194.5190  171.5340  144.7830 C   0  0  1  0  0  3  0  0  0  0  0  0
  190.1100  175.0240  143.3460 C   0  0  0  0  0  2  0  0  0  0  0  0
  194.5660  177.5500  146.4900 O   0  0  0  0  0  0  0  0  0  0  0  0
  194.2870  176.7540  145.2470 S   0  0  0  0  0  0  0  0  0  0  0  0
  196.2150  175.3300  143.9210 C   0  0  0  0  0  0  0  0  0  0  0  0
  193.7730  175.1180  145.7070 C   0  0  2  0  0  3  0  0  0  0  0  0
  189.6910  171.5410  142.5340 O   0  0  0  0  0  0  0  0  0  0  0  0
  192.8510  173.1150  144.9220 C   0  0  2  0  0  3  0  0  0  0  0  0
  195.7800  174.2260  144.4520 N   0  0  0  0  0  0  0  0  0  0  0  0
  195.7290  176.6080  144.3230 N   0  0  0  0  0  2  0  0  0  0  0  0
  190.2860  172.6340  142.7250 C   0  0  0  0  0  0  0  0  0  0  0  0
  191.2620  174.8800  145.6020 C   0  0  0  0  0  0  0  0  0  0  0  0
  193.5250  171.1500  143.7720 N   0  0  0  0  0  0  0  0  0  0  0  0
  197.1710  175.2610  142.8700 N   0  0  0  0  0  1  0  0  0  0  0  0
  191.7800  172.6660  142.6870 C   0  0  0  0  0  2  0  0  0  0  0  0
  191.1710  174.8900  147.0040 C   0  0  0  0  0  3  0  0  0  0  0  0
  188.8840  175.3700  145.4820 C   0  0  0  0  0  3  0  0  0  0  0  0
  188.8120  175.3980  146.8760 C   0  0  0  0  0  3  0  0  0  0  0  0
  189.5320  173.7910  142.9360 O   0  0  0  0  0  0  0  0  0  0  0  0
  194.0520  172.8290  145.3460 C   0  0  2  0  0  3  0  0  0  0  0  0
  192.3760  172.0730  143.9730 C   0  0  2  0  0  3  0  0  0  0  0  0
  194.8720  174.0500  145.5970 C   0  0  2  0  0  3  0  0  0  0  0  0
  194.5660  170.4840  145.8780 C   0  0  0  0  0  1  0  0  0  0  0  0
  192.5750  174.5790  144.9230 C   0  0  1  0  0  3  0  0  0  0  0  0
  1 21  2  0  0  0  0
  1 16  1  0  0  0  0
  2  8  2  0  0  0  0
  3 17  1  0  0  0  0
  5 24  1  0  0  0  0
  5 27  1  1  0  0  0
  6  1  1  0  0  0  0
  8  7  2  0  0  0  0
  9 14  1  0  0  0  0
  9 13  2  0  0  0  0
 10  8  1  6  0  0  0
 11 15  2  0  0  0  0
 12 28  1  0  0  0  0
 12 24  1  0  0  0  0
 13 26  1  0  0  0  0
 14  8  1  0  0  0  0
 15 23  1  0  0  0  0
 16 20  2  0  0  0  0
 17 25  1  0  0  0  0
 17  5  1  0  0  0  0
 18  9  1  0  0  0  0
 19 15  1  0  0  0  0
 19 25  1  0  0  0  0
 20  4  1  0  0  0  0
 21 22  1  0  0  0  0
 22  4  2  0  0  0  0
 23  6  1  0  0  0  0
 24 26  1  0  0  0  0
 25 12  1  0  0  0  0
 26 10  1  0  0  0  0
 28 16  1  0  0  0  0
 28 10  1  0  0  0  0
M  END
>  <MODEL>
4

>  <REMARK>
 VINA RESULT:      -7.1      2.927      6.168
  Name = 
  0 active torsions:
  status: ('A' for Active; 'I' for Inactive)
                            x       y       z     vdW  Elec       q    Type
                         _______ _______ _______ _____ _____    ______ ____

>  <TORSDO>
F 0

$$$$
=
 OpenBabel11112417343D

 28 32  0  0  1  0  0  0  0  0999 V2000
  189.2860  176.1190  144.5350 C   0  0  0  0  0  0  0  0  0  0  0  0
  192.9160  177.5360  144.9260 O   0  0  0  0  0  0  0  0  0  0  0  0
  192.4750  172.4040  140.9890 C   0  0  0  0  0  1  0  0  0  0  0  0
  188.9250  175.2630  147.1800 C   0  0  0  0  0  3  0  0  0  0  0  0
  192.6600  171.7350  143.2210 C   0  0  1  0  0  3  0  0  0  0  0  0
  189.3990  176.5350  143.1040 C   0  0  0  0  0  2  0  0  0  0  0  0
  194.0680  176.6000  146.8880 O   0  0  0  0  0  0  0  0  0  0  0  0
  193.7040  176.3680  145.4490 S   0  0  0  0  0  0  0  0  0  0  0  0
  195.3170  175.0120  143.6990 C   0  0  0  0  0  0  0  0  0  0  0  0
  192.7600  174.8690  145.3240 C   0  0  2  0  0  3  0  0  0  0  0  0
  188.1910  173.7620  141.1490 O   0  0  0  0  0  0  0  0  0  0  0  0
  191.4350  173.5590  143.9070 C   0  0  2  0  0  3  0  0  0  0  0  0
  194.5770  173.9500  143.8230 N   0  0  0  0  0  0  0  0  0  0  0  0
  195.1340  176.1630  144.5190 N   0  0  0  0  0  2  0  0  0  0  0  0
  189.0230  174.5310  141.6990 C   0  0  0  0  0  0  0  0  0  0  0  0
  190.2870  175.3500  145.1630 C   0  0  0  0  0  0  0  0  0  0  0  0
  191.6890  171.9860  142.1470 N   0  0  0  0  0  0  0  0  0  0  0  0
  196.3090  175.0470  142.6810 N   0  0  0  0  0  1  0  0  0  0  0  0
  190.4750  174.1800  141.6620 C   0  0  0  0  0  2  0  0  0  0  0  0
  190.0850  174.9160  146.4850 C   0  0  0  0  0  3  0  0  0  0  0  0
  188.1250  176.4600  145.2390 C   0  0  0  0  0  3  0  0  0  0  0  0
  187.9470  176.0410  146.5580 C   0  0  0  0  0  3  0  0  0  0  0  0
  188.5670  175.7080  142.2990 O   0  0  0  0  0  0  0  0  0  0  0  0
  192.4860  172.8430  144.1980 C   0  0  2  0  0  3  0  0  0  0  0  0
  190.7940  173.0580  142.6620 C   0  0  2  0  0  3  0  0  0  0  0  0
  193.5620  173.6490  144.8450 C   0  0  2  0  0  3  0  0  0  0  0  0
  192.3510  170.4080  143.8880 C   0  0  0  0  0  1  0  0  0  0  0  0
  191.5340  174.9570  144.4120 C   0  0  1  0  0  3  0  0  0  0  0  0
  1 16  2  0  0  0  0
  1 21  1  0  0  0  0
  2  8  2  0  0  0  0
  3 17  1  0  0  0  0
  5 27  1  1  0  0  0
  5 24  1  0  0  0  0
  6  1  1  0  0  0  0
  8  7  2  0  0  0  0
  9 13  2  0  0  0  0
  9 14  1  0  0  0  0
 10  8  1  6  0  0  0
 11 15  2  0  0  0  0
 12 24  1  0  0  0  0
 12 28  1  0  0  0  0
 13 26  1  0  0  0  0
 14  8  1  0  0  0  0
 15 23  1  0  0  0  0
 16 20  1  0  0  0  0
 17 25  1  0  0  0  0
 17  5  1  0  0  0  0
 18  9  1  0  0  0  0
 19 15  1  0  0  0  0
 19 25  1  0  0  0  0
 20  4  2  0  0  0  0
 21 22  2  0  0  0  0
 22  4  1  0  0  0  0
 23  6  1  0  0  0  0
 24 26  1  0  0  0  0
 25 12  1  0  0  0  0
 26 10  1  0  0  0  0
 28 16  1  0  0  0  0
 28 10  1  0  0  0  0
M  END
>  <MODEL>
5

>  <REMARK>
 VINA RESULT:      -7.1      2.832      6.105
  Name = 
  0 active torsions:
  status: ('A' for Active; 'I' for Inactive)
                            x       y       z     vdW  Elec       q    Type
                         _______ _______ _______ _____ _____    ______ ____

>  <TORSDO>
F 0

$$$$
=
 OpenBabel11112417343D

 28 32  0  0  1  0  0  0  0  0999 V2000
  190.2570  175.9400  145.8970 C   0  0  0  0  0  0  0  0  0  0  0  0
  189.6130  172.2780  144.6670 O   0  0  0  0  0  0  0  0  0  0  0  0
  195.7290  174.2970  143.9220 C   0  0  0  0  0  1  0  0  0  0  0  0
  188.6350  177.2590  144.0300 C   0  0  0  0  0  3  0  0  0  0  0  0
  194.3980  174.9730  142.1230 C   0  0  1  0  0  3  0  0  0  0  0  0
  191.1510  175.3180  146.9210 C   0  0  0  0  0  2  0  0  0  0  0  0
  188.7920  172.2120  142.3490 O   0  0  0  0  0  0  0  0  0  0  0  0
  190.0130  172.3100  143.2180 S   0  0  0  0  0  0  0  0  0  0  0  0
  192.4320  171.2300  142.5240 C   0  0  0  0  0  0  0  0  0  0  0  0
  190.8760  173.8150  142.8390 C   0  0  2  0  0  3  0  0  0  0  0  0
  194.1820  177.2630  146.9270 O   0  0  0  0  0  0  0  0  0  0  0  0
  192.5900  175.2560  143.5200 C   0  0  2  0  0  3  0  0  0  0  0  0
  192.8670  172.4040  142.1710 N   0  0  0  0  0  0  0  0  0  0  0  0
  191.0710  171.0000  142.8740 N   0  0  0  0  0  2  0  0  0  0  0  0
  193.4050  176.3080  146.6620 C   0  0  0  0  0  0  0  0  0  0  0  0
  190.3650  175.6190  144.5280 C   0  0  0  0  0  0  0  0  0  0  0  0
  194.9560  175.4240  143.4050 N   0  0  0  0  0  0  0  0  0  0  0  0
  193.3540  170.1510  142.6100 N   0  0  0  0  0  1  0  0  0  0  0  0
  193.8500  175.2530  145.7010 C   0  0  0  0  0  2  0  0  0  0  0  0
  189.5550  176.3000  143.6030 C   0  0  0  0  0  3  0  0  0  0  0  0
  189.3330  176.9050  146.3160 C   0  0  0  0  0  3  0  0  0  0  0  0
  188.5210  177.5580  145.3880 C   0  0  0  0  0  3  0  0  0  0  0  0
  192.1620  176.2450  147.2970 O   0  0  0  0  0  0  0  0  0  0  0  0
  192.9390  174.7910  142.3520 C   0  0  2  0  0  3  0  0  0  0  0  0
  193.7810  175.7620  144.2540 C   0  0  2  0  0  3  0  0  0  0  0  0
  192.0980  173.6350  141.9260 C   0  0  2  0  0  3  0  0  0  0  0  0
  194.6240  176.0370  141.0650 C   0  0  0  0  0  1  0  0  0  0  0  0
  191.3680  174.5960  144.0590 C   0  0  1  0  0  3  0  0  0  0  0  0
  1 21  1  0  0  0  0
  1  6  1  0  0  0  0
  4 22  1  0  0  0  0
  5 27  1  6  0  0  0
  5 24  1  0  0  0  0
  5 17  1  0  0  0  0
  6 23  1  0  0  0  0
  7  8  2  0  0  0  0
  8  2  2  0  0  0  0
  9 18  1  0  0  0  0
  9 14  1  0  0  0  0
 10  8  1  1  0  0  0
 10 28  1  0  0  0  0
 12 28  1  0  0  0  0
 12 25  1  0  0  0  0
 13  9  2  0  0  0  0
 14  8  1  0  0  0  0
 15 11  2  0  0  0  0
 15 23  1  0  0  0  0
 16  1  2  0  0  0  0
 17  3  1  0  0  0  0
 17 25  1  0  0  0  0
 19 15  1  0  0  0  0
 20  4  2  0  0  0  0
 20 16  1  0  0  0  0
 22 21  2  0  0  0  0
 24 12  1  0  0  0  0
 25 19  1  0  0  0  0
 26 13  1  0  0  0  0
 26 24  1  0  0  0  0
 26 10  1  0  0  0  0
 28 16  1  0  0  0  0
M  END
>  <MODEL>
6

>  <REMARK>
 VINA RESULT:      -6.9      2.578      5.034
  Name = 
  0 active torsions:
  status: ('A' for Active; 'I' for Inactive)
                            x       y       z     vdW  Elec       q    Type
                         _______ _______ _______ _____ _____    ______ ____

>  <TORSDO>
F 0

$$$$
=
 OpenBabel11112417343D

 28 32  0  0  1  0  0  0  0  0999 V2000
  188.7120  176.0400  145.0400 C   0  0  0  0  0  0  0  0  0  0  0  0
  188.5430  172.6040  143.1700 O   0  0  0  0  0  0  0  0  0  0  0  0
  194.3330  173.9380  145.7630 C   0  0  0  0  0  1  0  0  0  0  0  0
  188.3110  177.7020  142.8180 C   0  0  0  0  0  3  0  0  0  0  0  0
  194.1110  174.9230  143.6550 C   0  0  1  0  0  3  0  0  0  0  0  0
  188.9410  175.2290  146.2740 C   0  0  0  0  0  2  0  0  0  0  0  0
  188.9750  172.8400  140.7600 O   0  0  0  0  0  0  0  0  0  0  0  0
  189.6080  172.7150  142.1160 S   0  0  0  0  0  0  0  0  0  0  0  0
  191.9840  171.4200  142.5420 C   0  0  0  0  0  0  0  0  0  0  0  0
  190.6350  174.1340  142.4100 C   0  0  2  0  0  3  0  0  0  0  0  0
  191.6820  176.7910  148.0110 O   0  0  0  0  0  0  0  0  0  0  0  0
  191.8700  175.2960  144.0240 C   0  0  2  0  0  3  0  0  0  0  0  0
  192.6070  172.5600  142.6070 N   0  0  0  0  0  0  0  0  0  0  0  0
  190.6170  171.3240  142.1540 N   0  0  0  0  0  2  0  0  0  0  0  0
  191.0830  175.9620  147.2760 C   0  0  0  0  0  0  0  0  0  0  0  0
  189.4640  175.8310  143.8660 C   0  0  0  0  0  0  0  0  0  0  0  0
  193.9870  175.1900  145.0940 N   0  0  0  0  0  0  0  0  0  0  0  0
  192.6750  170.2360  142.9180 N   0  0  0  0  0  1  0  0  0  0  0  0
  191.8810  174.9500  146.5190 C   0  0  0  0  0  2  0  0  0  0  0  0
  189.2610  176.6820  142.7650 C   0  0  0  0  0  3  0  0  0  0  0  0
  187.7620  177.0680  145.0850 C   0  0  0  0  0  3  0  0  0  0  0  0
  187.5560  177.8920  143.9770 C   0  0  0  0  0  3  0  0  0  0  0  0
  189.6880  175.9920  147.2140 O   0  0  0  0  0  0  0  0  0  0  0  0
  192.7230  174.8970  143.1210 C   0  0  2  0  0  3  0  0  0  0  0  0
  192.5690  175.5900  145.3040 C   0  0  2  0  0  3  0  0  0  0  0  0
  192.1360  173.8910  142.1890 C   0  0  2  0  0  3  0  0  0  0  0  0
  194.8960  176.0410  142.9940 C   0  0  0  0  0  1  0  0  0  0  0  0
  190.5040  174.7410  143.8090 C   0  0  1  0  0  3  0  0  0  0  0  0
  1 21  1  0  0  0  0
  1  6  1  0  0  0  0
  4 22  1  0  0  0  0
  5 27  1  6  0  0  0
  5 17  1  0  0  0  0
  6 23  1  0  0  0  0
  7  8  2  0  0  0  0
  8 14  1  0  0  0  0
  8  2  2  0  0  0  0
  9 13  2  0  0  0  0
  9 18  1  0  0  0  0
 10  8  1  1  0  0  0
 10 28  1  0  0  0  0
 12 25  1  0  0  0  0
 14  9  1  0  0  0  0
 15 11  2  0  0  0  0
 16  1  2  0  0  0  0
 17 25  1  0  0  0  0
 17  3  1  0  0  0  0
 19 15  1  0  0  0  0
 20  4  2  0  0  0  0
 20 16  1  0  0  0  0
 22 21  2  0  0  0  0
 23 15  1  0  0  0  0
 24  5  1  0  0  0  0
 24 12  1  0  0  0  0
 25 19  1  0  0  0  0
 26 10  1  0  0  0  0
 26 13  1  0  0  0  0
 26 24  1  0  0  0  0
 28 16  1  0  0  0  0
 28 12  1  0  0  0  0
M  END
>  <MODEL>
7

>  <REMARK>
 VINA RESULT:      -6.9      2.484      5.252
  Name = 
  0 active torsions:
  status: ('A' for Active; 'I' for Inactive)
                            x       y       z     vdW  Elec       q    Type
                         _______ _______ _______ _____ _____    ______ ____

>  <TORSDO>
F 0

$$$$
=
 OpenBabel11112417343D

 28 32  0  0  1  0  0  0  0  0999 V2000
  188.9910  176.7200  144.8220 C   0  0  0  0  0  0  0  0  0  0  0  0
  192.8810  177.1260  145.0190 O   0  0  0  0  0  0  0  0  0  0  0  0
  190.8370  173.4730  140.0680 C   0  0  0  0  0  1  0  0  0  0  0  0
  188.6360  175.2910  147.2070 C   0  0  0  0  0  3  0  0  0  0  0  0
  191.0230  172.2070  142.0240 C   0  0  1  0  0  3  0  0  0  0  0  0
  189.0920  177.4680  143.5320 C   0  0  0  0  0  2  0  0  0  0  0  0
  193.9100  175.4650  146.5130 O   0  0  0  0  0  0  0  0  0  0  0  0
  193.3850  175.7140  145.1280 S   0  0  0  0  0  0  0  0  0  0  0  0
  194.4560  174.5510  142.8910 C   0  0  0  0  0  0  0  0  0  0  0  0
  192.0840  174.5560  144.7820 C   0  0  2  0  0  3  0  0  0  0  0  0
  187.0660  175.6660  141.1610 O   0  0  0  0  0  0  0  0  0  0  0  0
  190.3610  174.0070  143.2960 C   0  0  2  0  0  3  0  0  0  0  0  0
  193.4820  173.6890  142.8600 N   0  0  0  0  0  0  0  0  0  0  0  0
  194.6370  175.4500  143.9820 N   0  0  0  0  0  2  0  0  0  0  0  0
  188.1070  176.0530  141.7550 C   0  0  0  0  0  0  0  0  0  0  0  0
  189.8100  175.6060  145.0970 C   0  0  0  0  0  0  0  0  0  0  0  0
  190.0650  172.9480  141.1920 N   0  0  0  0  0  0  0  0  0  0  0  0
  195.3400  174.6330  141.7810 N   0  0  0  0  0  1  0  0  0  0  0  0
  189.4150  175.4060  141.4280 C   0  0  0  0  0  2  0  0  0  0  0  0
  189.6110  174.8910  146.2910 C   0  0  0  0  0  3  0  0  0  0  0  0
  188.0150  177.1120  145.7450 C   0  0  0  0  0  3  0  0  0  0  0  0
  187.8420  176.4060  146.9360 C   0  0  0  0  0  3  0  0  0  0  0  0
  188.0150  177.0960  142.6790 O   0  0  0  0  0  0  0  0  0  0  0  0
  191.2150  173.0220  143.2530 C   0  0  2  0  0  3  0  0  0  0  0  0
  189.5170  174.0150  142.0720 C   0  0  2  0  0  3  0  0  0  0  0  0
  192.5090  173.3610  143.9150 C   0  0  2  0  0  3  0  0  0  0  0  0
  190.4410  170.8540  142.3890 C   0  0  0  0  0  1  0  0  0  0  0  0
  190.8530  175.1590  144.1030 C   0  0  1  0  0  3  0  0  0  0  0  0
  1 16  2  0  0  0  0
  1 21  1  0  0  0  0
  2  8  2  0  0  0  0
  3 17  1  0  0  0  0
  5 27  1  1  0  0  0
  5 24  1  0  0  0  0
  6  1  1  0  0  0  0
  8  7  2  0  0  0  0
  9 14  1  0  0  0  0
 10  8  1  6  0  0  0
 11 15  2  0  0  0  0
 12 28  1  0  0  0  0
 13  9  2  0  0  0  0
 13 26  1  0  0  0  0
 14  8  1  0  0  0  0
 15 23  1  0  0  0  0
 16 20  1  0  0  0  0
 17  5  1  0  0  0  0
 17 25  1  0  0  0  0
 18  9  1  0  0  0  0
 19 15  1  0  0  0  0
 19 25  1  0  0  0  0
 20  4  2  0  0  0  0
 21 22  2  0  0  0  0
 22  4  1  0  0  0  0
 23  6  1  0  0  0  0
 24 12  1  0  0  0  0
 24 26  1  0  0  0  0
 25 12  1  0  0  0  0
 26 10  1  0  0  0  0
 28 10  1  0  0  0  0
 28 16  1  0  0  0  0
M  END
>  <MODEL>
8

>  <REMARK>
 VINA RESULT:      -6.9      2.821      6.015
  Name = 
  0 active torsions:
  status: ('A' for Active; 'I' for Inactive)
                            x       y       z     vdW  Elec       q    Type
                         _______ _______ _______ _____ _____    ______ ____

>  <TORSDO>
F 0

$$$$
=
 OpenBabel11112417343D

 28 32  0  0  1  0  0  0  0  0999 V2000
  192.4530  174.3730  144.6170 C   0  0  0  0  0  0  0  0  0  0  0  0
  190.2670  175.4980  147.6650 O   0  0  0  0  0  0  0  0  0  0  0  0
  187.0660  175.2910  142.0320 C   0  0  0  0  0  1  0  0  0  0  0  0
  194.2080  176.5590  144.5800 C   0  0  0  0  0  3  0  0  0  0  0  0
  188.1910  177.3240  142.2820 C   0  0  1  0  0  3  0  0  0  0  0  0
  191.5550  173.1790  144.5590 C   0  0  0  0  0  2  0  0  0  0  0  0
  190.4410  177.9160  148.0870 O   0  0  0  0  0  0  0  0  0  0  0  0
  189.7640  176.8570  147.2650 S   0  0  0  0  0  0  0  0  0  0  0  0
  187.1740  177.0670  146.3980 C   0  0  0  0  0  0  0  0  0  0  0  0
  190.0840  177.1620  145.5450 C   0  0  2  0  0  3  0  0  0  0  0  0
  190.6620  172.7580  141.0960 O   0  0  0  0  0  0  0  0  0  0  0  0
  189.9180  176.2750  143.3850 C   0  0  2  0  0  3  0  0  0  0  0  0
  187.5880  177.4030  145.2110 N   0  0  0  0  0  0  0  0  0  0  0  0
  188.0640  176.9440  147.5030 N   0  0  0  0  0  2  0  0  0  0  0  0
  190.5420  173.1010  142.3010 C   0  0  0  0  0  0  0  0  0  0  0  0
  191.9380  175.6840  144.6790 C   0  0  0  0  0  0  0  0  0  0  0  0
  188.2970  175.9920  141.6730 N   0  0  0  0  0  0  0  0  0  0  0  0
  185.7980  176.7670  146.5880 N   0  0  0  0  0  1  0  0  0  0  0  0
  189.3570  173.9130  142.7130 C   0  0  0  0  0  2  0  0  0  0  0  0
  192.8300  176.7700  144.6440 C   0  0  0  0  0  3  0  0  0  0  0  0
  193.8360  174.1710  144.5500 C   0  0  0  0  0  3  0  0  0  0  0  0
  194.7120  175.2580  144.5380 C   0  0  0  0  0  3  0  0  0  0  0  0
  191.5040  172.6860  143.2250 O   0  0  0  0  0  0  0  0  0  0  0  0
  189.1640  177.3390  143.4080 C   0  0  2  0  0  3  0  0  0  0  0  0
  189.5130  175.3760  142.2710 C   0  0  2  0  0  3  0  0  0  0  0  0
  188.9290  177.8410  144.7930 C   0  0  2  0  0  3  0  0  0  0  0  0
  188.5670  178.3830  141.2630 C   0  0  0  0  0  1  0  0  0  0  0  0
  190.4490  175.9190  144.7310 C   0  0  1  0  0  3  0  0  0  0  0  0
  1 16  1  0  0  0  0
  4 20  1  0  0  0  0
  5 27  1  6  0  0  0
  5 24  1  0  0  0  0
  6  1  1  0  0  0  0
  8 14  1  0  0  0  0
  8  2  2  0  0  0  0
  8  7  2  0  0  0  0
  9 18  1  0  0  0  0
  9 14  1  0  0  0  0
 10  8  1  1  0  0  0
 11 15  2  0  0  0  0
 12 24  1  0  0  0  0
 12 28  1  0  0  0  0
 13  9  2  0  0  0  0
 15 19  1  0  0  0  0
 15 23  1  0  0  0  0
 16 28  1  0  0  0  0
 17  3  1  0  0  0  0
 17 25  1  0  0  0  0
 17  5  1  0  0  0  0
 20 16  2  0  0  0  0
 21  1  2  0  0  0  0
 22 21  1  0  0  0  0
 22  4  2  0  0  0  0
 23  6  1  0  0  0  0
 24 26  1  0  0  0  0
 25 19  1  0  0  0  0
 25 12  1  0  0  0  0
 26 13  1  0  0  0  0
 26 10  1  0  0  0  0
 28 10  1  0  0  0  0
M  END
>  <MODEL>
9

>  <REMARK>
 VINA RESULT:      -6.6      2.683      5.376
  Name = 
  0 active torsions:
  status: ('A' for Active; 'I' for Inactive)
                            x       y       z     vdW  Elec       q    Type
                         _______ _______ _______ _____ _____    ______ ____

>  <TORSDO>
F 0

$$$$
