=
 OpenBabel11112416273D

 32 37  0  0  1  0  0  0  0  0999 V2000
  188.1050  177.4890  143.8740 C   0  0  0  0  0  0  0  0  0  0  0  0
  185.8250  177.8230  148.1470 C   0  0  0  0  0  3  0  0  0  0  0  0
  184.5930  178.2820  147.4760 C   0  0  0  0  0  3  0  0  0  0  0  0
  186.8070  177.6780  141.7350 C   0  0  0  0  0  0  0  0  0  0  0  0
  185.4600  177.8410  141.2010 C   0  0  0  0  0  0  0  0  0  0  0  0
  190.4990  177.2940  143.8350 O   0  0  0  0  0  0  0  0  0  0  0  0
  189.4650  177.3780  145.9820 C   0  0  0  0  0  2  0  0  0  0  0  0
  183.2080  178.1920  141.1920 C   0  0  0  0  0  0  0  0  0  0  0  0
  186.9870  177.7590  147.4860 C   0  0  0  0  0  3  0  0  0  0  0  0
  188.1700  177.5670  145.3170 N   0  0  0  0  0  0  0  0  0  0  0  0
  187.1100  178.2560  146.0640 C   0  0  1  0  0  3  0  0  0  0  0  0
  185.7140  178.1000  144.0160 C   0  0  0  0  0  0  0  0  0  0  0  0
  183.5790  178.0230  139.9600 N   0  0  0  0  0  0  0  0  0  0  0  0
  190.4430  176.6360  145.0730 C   0  0  2  0  0  3  0  0  0  0  0  0
  185.0030  177.8000  139.9560 C   0  0  0  0  0  3  0  0  0  0  0  0
  184.5610  178.4640  146.1530 C   0  0  0  0  0  3  0  0  0  0  0  0
  185.7790  178.2370  145.3470 C   0  0  0  0  0  0  0  0  0  0  0  0
  184.4350  178.2210  143.3500 N   0  0  0  0  0  0  0  0  0  0  0  0
  189.3180  176.9490  143.1540 C   0  0  0  0  0  2  0  0  0  0  0  0
  187.7820  177.4940  140.9590 O   0  0  0  0  0  0  0  0  0  0  0  0
  181.8020  178.4540  141.6020 C   0  0  0  0  0  1  0  0  0  0  0  0
  186.9520  177.7640  143.2230 C   0  0  0  0  0  0  0  0  0  0  0  0
  184.3520  178.0930  142.0630 C   0  0  0  0  0  0  0  0  0  0  0  0
  192.4520  175.2280  145.8800 C   0  0  2  0  0  3  0  0  0  0  0  0
  191.8270  176.6190  145.7130 C   0  0  1  0  0  3  0  0  0  0  0  0
  192.8490  176.1130  144.7150 C   0  0  1  0  0  3  0  0  0  0  0  0
  191.6020  174.0710  145.3680 C   0  0  0  0  0  2  0  0  0  0  0  0
  192.4870  173.0590  144.6710 C   0  0  0  0  0  1  0  0  0  0  0  0
  194.1070  176.7120  144.9870 O   0  0  0  0  0  0  0  0  0  0  0  0
  195.3130  176.1380  144.5750 C   0  0  0  0  0  0  0  0  0  0  0  0
  195.8300  174.8810  145.1900 C   0  0  0  0  0  1  0  0  0  0  0  0
  195.9790  176.6930  143.6630 O   0  0  0  0  0  0  0  0  0  0  0  0
  1 10  1  0  0  0  0
  3  2  1  0  0  0  0
  4 22  1  0  0  0  0
  5  4  1  0  0  0  0
  5 23  1  0  0  0  0
  6 14  1  0  0  0  0
  8 21  1  0  0  0  0
  8 23  1  0  0  0  0
  9  2  2  0  0  0  0
 10  7  1  0  0  0  0
 10 11  1  0  0  0  0
 11  9  1  1  0  0  0
 12 17  2  0  0  0  0
 13  8  2  0  0  0  0
 14  7  1  1  0  0  0
 15 13  1  0  0  0  0
 15  5  2  0  0  0  0
 16  3  2  0  0  0  0
 17 11  1  0  0  0  0
 17 16  1  0  0  0  0
 18 12  1  0  0  0  0
 19  6  1  0  0  0  0
 19  1  1  0  0  0  0
 20  4  2  0  0  0  0
 22  1  2  0  0  0  0
 22 12  1  0  0  0  0
 23 18  2  0  0  0  0
 24 27  1  6  0  0  0
 25 14  1  6  0  0  0
 25 24  1  0  0  0  0
 26 29  1  1  0  0  0
 26 25  1  0  0  0  0
 26 24  1  0  0  0  0
 28 27  1  0  0  0  0
 30 29  1  0  0  0  0
 30 31  1  0  0  0  0
 32 30  2  0  0  0  0
M  END
>  <MODEL>
1

>  <REMARK>
 VINA RESULT:      -8.7      0.000      0.000
  Name = 
  4 active torsions:
  status: ('A' for Active; 'I' for Inactive)
    1  A    between atoms: C_1  and  C_16
    2  A    between atoms: C_10  and  C_17
    3  A    between atoms: C_20  and  O_29
    4  A    between atoms: O_29  and  C_30
                            x       y       z     vdW  Elec       q    Type
                         _______ _______ _______ _____ _____    ______ ____

>  <TORSDO>
F 4

$$$$
=
 OpenBabel11112416273D

 32 37  0  0  1  0  0  0  0  0999 V2000
  189.3960  174.5540  143.6360 C   0  0  0  0  0  0  0  0  0  0  0  0
  192.8680  176.5290  146.3960 C   0  0  0  0  0  3  0  0  0  0  0  0
  193.5930  175.2440  146.4380 C   0  0  0  0  0  3  0  0  0  0  0  0
  189.7280  172.2790  142.6310 C   0  0  0  0  0  0  0  0  0  0  0  0
  190.6880  171.1870  142.5110 C   0  0  0  0  0  0  0  0  0  0  0  0
  187.3080  175.7110  143.3720 O   0  0  0  0  0  0  0  0  0  0  0  0
  188.9770  176.7950  144.6870 C   0  0  0  0  0  2  0  0  0  0  0  0
  192.5880  169.9820  142.8720 C   0  0  0  0  0  0  0  0  0  0  0  0
  191.6150  176.5980  145.9310 C   0  0  0  0  0  3  0  0  0  0  0  0
  189.8360  175.6180  144.5120 N   0  0  0  0  0  0  0  0  0  0  0  0
  190.8530  175.3540  145.5370 C   0  0  1  0  0  3  0  0  0  0  0  0
  191.4010  173.2700  144.3020 C   0  0  0  0  0  0  0  0  0  0  0  0
  191.8630  169.3180  142.0250 N   0  0  0  0  0  0  0  0  0  0  0  0
  187.9890  176.9280  143.5290 C   0  0  2  0  0  3  0  0  0  0  0  0
  190.6580  170.0720  141.7910 C   0  0  0  0  0  3  0  0  0  0  0  0
  193.0940  174.1560  145.8450 C   0  0  0  0  0  3  0  0  0  0  0  0
  191.7850  174.2230  145.1620 C   0  0  0  0  0  0  0  0  0  0  0  0
  192.2650  172.1330  144.0690 N   0  0  0  0  0  0  0  0  0  0  0  0
  188.2110  174.8350  142.7440 C   0  0  0  0  0  2  0  0  0  0  0  0
  188.6330  172.2360  142.0090 O   0  0  0  0  0  0  0  0  0  0  0  0
  193.9120  169.5180  143.3650 C   0  0  0  0  0  1  0  0  0  0  0  0
  190.1110  173.4090  143.5360 C   0  0  0  0  0  0  0  0  0  0  0  0
  191.9120  171.2000  143.2410 C   0  0  0  0  0  0  0  0  0  0  0  0
  186.3320  178.6760  142.5980 C   0  0  2  0  0  3  0  0  0  0  0  0
  186.9930  178.0440  143.8290 C   0  0  1  0  0  3  0  0  0  0  0  0
  185.6020  177.6190  143.4030 C   0  0  1  0  0  3  0  0  0  0  0  0
  186.7580  178.0870  141.2590 C   0  0  0  0  0  2  0  0  0  0  0  0
  185.5440  177.9120  140.3710 C   0  0  0  0  0  1  0  0  0  0  0  0
  184.6430  178.2460  144.2420 O   0  0  0  0  0  0  0  0  0  0  0  0
  184.6520  178.0950  145.6310 C   0  0  0  0  0  0  0  0  0  0  0  0
  185.0840  176.8190  146.2750 C   0  0  0  0  0  1  0  0  0  0  0  0
  184.2890  179.0540  146.3580 O   0  0  0  0  0  0  0  0  0  0  0  0
  1 10  1  0  0  0  0
  2  3  1  0  0  0  0
  4 22  1  0  0  0  0
  5  4  1  0  0  0  0
  5 23  1  0  0  0  0
  6 14  1  0  0  0  0
  8 23  1  0  0  0  0
  8 21  1  0  0  0  0
  9  2  2  0  0  0  0
 10  7  1  0  0  0  0
 10 11  1  0  0  0  0
 11  9  1  6  0  0  0
 12 17  2  0  0  0  0
 13  8  2  0  0  0  0
 14  7  1  1  0  0  0
 15 13  1  0  0  0  0
 15  5  2  0  0  0  0
 16  3  2  0  0  0  0
 17 11  1  0  0  0  0
 17 16  1  0  0  0  0
 18 12  1  0  0  0  0
 19  6  1  0  0  0  0
 19  1  1  0  0  0  0
 20  4  2  0  0  0  0
 22  1  2  0  0  0  0
 22 12  1  0  0  0  0
 23 18  2  0  0  0  0
 24 27  1  6  0  0  0
 24 26  1  0  0  0  0
 24 25  1  0  0  0  0
 25 14  1  6  0  0  0
 26 25  1  0  0  0  0
 26 29  1  1  0  0  0
 28 27  1  0  0  0  0
 29 30  1  0  0  0  0
 30 31  1  0  0  0  0
 30 32  2  0  0  0  0
M  END
>  <MODEL>
2

>  <REMARK>
 VINA RESULT:      -7.5      3.382      8.329
  Name = 
  4 active torsions:
  status: ('A' for Active; 'I' for Inactive)
    1  A    between atoms: C_1  and  C_16
    2  A    between atoms: C_10  and  C_17
    3  A    between atoms: C_20  and  O_29
    4  A    between atoms: O_29  and  C_30
                            x       y       z     vdW  Elec       q    Type
                         _______ _______ _______ _____ _____    ______ ____

>  <TORSDO>
F 4

$$$$
=
 OpenBabel11112416273D

 32 37  0  0  1  0  0  0  0  0999 V2000
  188.9850  175.4770  143.0450 C   0  0  0  0  0  0  0  0  0  0  0  0
  192.2530  175.2930  146.6310 C   0  0  0  0  0  3  0  0  0  0  0  0
  191.5060  176.3140  147.3910 C   0  0  0  0  0  3  0  0  0  0  0  0
  186.8230  176.7070  143.3740 C   0  0  0  0  0  0  0  0  0  0  0  0
  186.0500  177.4620  144.3530 C   0  0  0  0  0  0  0  0  0  0  0  0
  189.5260  174.5100  140.9150 O   0  0  0  0  0  0  0  0  0  0  0  0
  191.1670  174.3050  142.6340 C   0  0  0  0  0  2  0  0  0  0  0  0
  185.5650  178.5360  146.3040 C   0  0  0  0  0  0  0  0  0  0  0  0
  191.9630  175.0390  145.3500 C   0  0  0  0  0  3  0  0  0  0  0  0
  190.3030  175.1040  143.5110 N   0  0  0  0  0  0  0  0  0  0  0  0
  190.9390  175.8580  144.5980 C   0  0  1  0  0  3  0  0  0  0  0  0
  188.6960  176.7860  145.1220 C   0  0  0  0  0  0  0  0  0  0  0  0
  184.5160  178.6190  145.5450 N   0  0  0  0  0  0  0  0  0  0  0  0
  190.3450  173.5780  141.5710 C   0  0  2  0  0  3  0  0  0  0  0  0
  184.8130  177.9430  144.3070 C   0  0  0  0  0  3  0  0  0  0  0  0
  190.4050  176.8750  146.8850 C   0  0  0  0  0  3  0  0  0  0  0  0
  189.9380  176.4980  145.5340 C   0  0  0  0  0  0  0  0  0  0  0  0
  187.8090  177.5190  146.0000 N   0  0  0  0  0  0  0  0  0  0  0  0
  188.4720  174.7970  141.7990 C   0  0  0  0  0  2  0  0  0  0  0  0
  186.3340  176.4420  142.2430 O   0  0  0  0  0  0  0  0  0  0  0  0
  185.6440  179.1220  147.6690 C   0  0  0  0  0  1  0  0  0  0  0  0
  188.2050  176.3010  143.7830 C   0  0  0  0  0  0  0  0  0  0  0  0
  186.6040  177.8080  145.6200 C   0  0  0  0  0  0  0  0  0  0  0  0
  191.3740  171.3830  140.6800 C   0  0  2  0  0  3  0  0  0  0  0  0
  191.2780  172.9100  140.5670 C   0  0  1  0  0  3  0  0  0  0  0  0
  190.4800  172.0220  139.6350 C   0  0  1  0  0  3  0  0  0  0  0  0
  190.5110  170.7590  141.7700 C   0  0  0  0  0  2  0  0  0  0  0  0
  190.8230  169.2810  141.8810 C   0  0  0  0  0  1  0  0  0  0  0  0
  191.1230  171.9700  138.3700 O   0  0  0  0  0  0  0  0  0  0  0  0
  190.7540  171.0550  137.3810 C   0  0  0  0  0  0  0  0  0  0  0  0
  189.7640  169.9710  137.6500 C   0  0  0  0  0  1  0  0  0  0  0  0
  191.2670  171.1440  136.2360 O   0  0  0  0  0  0  0  0  0  0  0  0
  1 10  1  0  0  0  0
  1 22  2  0  0  0  0
  2  3  1  0  0  0  0
  4 22  1  0  0  0  0
  4  5  1  0  0  0  0
  5 23  1  0  0  0  0
  6 14  1  0  0  0  0
  6 19  1  0  0  0  0
  7 10  1  0  0  0  0
  8 21  1  0  0  0  0
  9  2  2  0  0  0  0
 10 11  1  0  0  0  0
 11  9  1  1  0  0  0
 11 17  1  0  0  0  0
 12 17  2  0  0  0  0
 12 18  1  0  0  0  0
 13  8  2  0  0  0  0
 14  7  1  1  0  0  0
 15  5  2  0  0  0  0
 15 13  1  0  0  0  0
 16  3  2  0  0  0  0
 17 16  1  0  0  0  0
 19  1  1  0  0  0  0
 20  4  2  0  0  0  0
 22 12  1  0  0  0  0
 23 18  2  0  0  0  0
 23  8  1  0  0  0  0
 24 27  1  1  0  0  0
 25 24  1  0  0  0  0
 25 14  1  1  0  0  0
 26 29  1  6  0  0  0
 26 25  1  0  0  0  0
 26 24  1  0  0  0  0
 27 28  1  0  0  0  0
 30 31  1  0  0  0  0
 30 29  1  0  0  0  0
 32 30  2  0  0  0  0
M  END
>  <MODEL>
3

>  <REMARK>
 VINA RESULT:      -7.5      3.731      5.850
  Name = 
  4 active torsions:
  status: ('A' for Active; 'I' for Inactive)
    1  A    between atoms: C_1  and  C_16
    2  A    between atoms: C_10  and  C_17
    3  A    between atoms: C_20  and  O_29
    4  A    between atoms: O_29  and  C_30
                            x       y       z     vdW  Elec       q    Type
                         _______ _______ _______ _____ _____    ______ ____

>  <TORSDO>
F 4

$$$$
=
 OpenBabel11112416273D

 32 37  0  0  1  0  0  0  0  0999 V2000
  190.8100  173.8760  144.6350 C   0  0  0  0  0  0  0  0  0  0  0  0
  194.9790  175.7760  146.2380 C   0  0  0  0  0  3  0  0  0  0  0  0
  195.6960  174.5260  145.9170 C   0  0  0  0  0  3  0  0  0  0  0  0
  190.8170  171.7070  143.3730 C   0  0  0  0  0  0  0  0  0  0  0  0
  191.6960  170.6740  142.8380 C   0  0  0  0  0  0  0  0  0  0  0  0
  188.7380  174.9550  145.1940 O   0  0  0  0  0  0  0  0  0  0  0  0
  190.7360  176.0030  145.9650 C   0  0  0  0  0  2  0  0  0  0  0  0
  193.6250  169.5310  142.4280 C   0  0  0  0  0  0  0  0  0  0  0  0
  193.6430  175.8260  146.2290 C   0  0  0  0  0  3  0  0  0  0  0  0
  191.5040  174.8840  145.4050 N   0  0  0  0  0  0  0  0  0  0  0  0
  192.8110  174.5840  146.0010 C   0  0  1  0  0  3  0  0  0  0  0  0
  192.9410  172.6340  144.4680 C   0  0  0  0  0  0  0  0  0  0  0  0
  192.6660  168.9050  141.8160 N   0  0  0  0  0  0  0  0  0  0  0  0
  189.4130  176.1840  145.2240 C   0  0  2  0  0  3  0  0  0  0  0  0
  191.4410  169.6210  142.0700 C   0  0  0  0  0  3  0  0  0  0  0  0
  195.0420  173.4690  145.4280 C   0  0  0  0  0  3  0  0  0  0  0  0
  193.5780  173.5310  145.2340 C   0  0  0  0  0  0  0  0  0  0  0  0
  193.6930  171.5600  143.8560 N   0  0  0  0  0  0  0  0  0  0  0  0
  189.3880  174.1740  144.2220 C   0  0  0  0  0  2  0  0  0  0  0  0
  189.5770  171.6650  143.1530 O   0  0  0  0  0  0  0  0  0  0  0  0
  195.0450  169.0890  142.4040 C   0  0  0  0  0  1  0  0  0  0  0  0
  191.4650  172.7770  144.1960 C   0  0  0  0  0  0  0  0  0  0  0  0
  193.0950  170.6830  143.1130 C   0  0  0  0  0  0  0  0  0  0  0  0
  187.5270  177.9410  145.0620 C   0  0  2  0  0  3  0  0  0  0  0  0
  188.5610  177.2260  145.9410 C   0  0  1  0  0  3  0  0  0  0  0  0
  187.1110  176.7850  145.9500 C   0  0  1  0  0  3  0  0  0  0  0  0
  187.4970  177.4960  143.6050 C   0  0  0  0  0  2  0  0  0  0  0  0
  186.1750  176.8190  143.3080 C   0  0  0  0  0  1  0  0  0  0  0  0
  186.4730  177.2920  147.1130 O   0  0  0  0  0  0  0  0  0  0  0  0
  185.5690  178.3560  147.0660 C   0  0  0  0  0  0  0  0  0  0  0  0
  184.2460  178.2280  146.3880 C   0  0  0  0  0  1  0  0  0  0  0  0
  185.8750  179.4500  147.6080 O   0  0  0  0  0  0  0  0  0  0  0  0
  1 10  1  0  0  0  0
  3  2  1  0  0  0  0
  4 22  1  0  0  0  0
  5 23  1  0  0  0  0
  5  4  1  0  0  0  0
  6 14  1  0  0  0  0
  8 23  1  0  0  0  0
  9  2  2  0  0  0  0
 10  7  1  0  0  0  0
 10 11  1  0  0  0  0
 11  9  1  6  0  0  0
 12 17  2  0  0  0  0
 13 15  1  0  0  0  0
 13  8  2  0  0  0  0
 14  7  1  1  0  0  0
 15  5  2  0  0  0  0
 16  3  2  0  0  0  0
 17 16  1  0  0  0  0
 17 11  1  0  0  0  0
 18 12  1  0  0  0  0
 19  1  1  0  0  0  0
 19  6  1  0  0  0  0
 20  4  2  0  0  0  0
 21  8  1  0  0  0  0
 22 12  1  0  0  0  0
 22  1  2  0  0  0  0
 23 18  2  0  0  0  0
 24 27  1  6  0  0  0
 24 25  1  0  0  0  0
 24 26  1  0  0  0  0
 25 14  1  6  0  0  0
 25 26  1  0  0  0  0
 26 29  1  1  0  0  0
 28 27  1  0  0  0  0
 30 29  1  0  0  0  0
 30 32  2  0  0  0  0
 31 30  1  0  0  0  0
M  END
>  <MODEL>
4

>  <REMARK>
 VINA RESULT:      -7.2      3.645      8.887
  Name = 
  4 active torsions:
  status: ('A' for Active; 'I' for Inactive)
    1  A    between atoms: C_1  and  C_16
    2  A    between atoms: C_10  and  C_17
    3  A    between atoms: C_20  and  O_29
    4  A    between atoms: O_29  and  C_30
                            x       y       z     vdW  Elec       q    Type
                         _______ _______ _______ _____ _____    ______ ____

>  <TORSDO>
F 4

$$$$
=
 OpenBabel11112416273D

 32 37  0  0  1  0  0  0  0  0999 V2000
  189.1710  175.0360  142.5530 C   0  0  0  0  0  0  0  0  0  0  0  0
  193.0510  176.9690  144.7380 C   0  0  0  0  0  3  0  0  0  0  0  0
  193.8610  175.7840  144.3930 C   0  0  0  0  0  3  0  0  0  0  0  0
  189.4190  172.9870  141.1260 C   0  0  0  0  0  0  0  0  0  0  0  0
  190.4010  172.0430  140.6050 C   0  0  0  0  0  0  0  0  0  0  0  0
  187.0000  175.9710  142.9770 O   0  0  0  0  0  0  0  0  0  0  0  0
  188.8520  177.0350  144.0380 C   0  0  0  0  0  2  0  0  0  0  0  0
  192.4180  171.0250  140.3090 C   0  0  0  0  0  0  0  0  0  0  0  0
  191.7210  176.9620  144.5920 C   0  0  0  0  0  3  0  0  0  0  0  0
  189.7290  176.0030  143.4730 N   0  0  0  0  0  0  0  0  0  0  0  0
  190.9830  175.7090  144.1770 C   0  0  1  0  0  3  0  0  0  0  0  0
  191.3700  173.9070  142.5120 C   0  0  0  0  0  0  0  0  0  0  0  0
  191.5600  170.4140  139.5510 N   0  0  0  0  0  0  0  0  0  0  0  0
  187.6030  177.2220  143.1790 C   0  0  2  0  0  3  0  0  0  0  0  0
  190.2810  171.0500  139.7320 C   0  0  0  0  0  3  0  0  0  0  0  0
  193.3160  174.7460  143.7540 C   0  0  0  0  0  3  0  0  0  0  0  0
  191.8790  174.7610  143.4110 C   0  0  0  0  0  0  0  0  0  0  0  0
  192.2350  172.9240  141.8970 N   0  0  0  0  0  0  0  0  0  0  0  0
  187.7850  175.3070  142.0190 C   0  0  0  0  0  2  0  0  0  0  0  0
  188.2120  172.9100  140.7740 O   0  0  0  0  0  0  0  0  0  0  0  0
  193.8550  170.6490  140.3990 C   0  0  0  0  0  1  0  0  0  0  0  0
  189.9240  174.0090  142.0980 C   0  0  0  0  0  0  0  0  0  0  0  0
  191.7620  172.0890  141.0260 C   0  0  0  0  0  0  0  0  0  0  0  0
  185.6300  178.8750  142.9660 C   0  0  2  0  0  3  0  0  0  0  0  0
  186.6290  178.1590  143.8840 C   0  0  1  0  0  3  0  0  0  0  0  0
  185.2140  177.6370  143.7360 C   0  0  1  0  0  3  0  0  0  0  0  0
  185.7510  178.5330  141.4860 C   0  0  0  0  0  2  0  0  0  0  0  0
  184.3720  178.3070  140.9020 C   0  0  0  0  0  1  0  0  0  0  0  0
  184.4500  178.0230  144.8690 O   0  0  0  0  0  0  0  0  0  0  0  0
  184.8270  177.6910  146.1730 C   0  0  0  0  0  0  0  0  0  0  0  0
  185.0840  178.7390  147.2020 C   0  0  0  0  0  1  0  0  0  0  0  0
  184.9520  176.4790  146.4880 O   0  0  0  0  0  0  0  0  0  0  0  0
  1 10  1  0  0  0  0
  3  2  1  0  0  0  0
  4 22  1  0  0  0  0
  5 23  1  0  0  0  0
  5  4  1  0  0  0  0
  6 14  1  0  0  0  0
  8 21  1  0  0  0  0
  8 23  1  0  0  0  0
  9  2  2  0  0  0  0
 10  7  1  0  0  0  0
 10 11  1  0  0  0  0
 11  9  1  6  0  0  0
 12 17  2  0  0  0  0
 13 15  1  0  0  0  0
 13  8  2  0  0  0  0
 14  7  1  1  0  0  0
 15  5  2  0  0  0  0
 16  3  2  0  0  0  0
 17 16  1  0  0  0  0
 17 11  1  0  0  0  0
 18 12  1  0  0  0  0
 19  1  1  0  0  0  0
 19  6  1  0  0  0  0
 20  4  2  0  0  0  0
 22 12  1  0  0  0  0
 22  1  2  0  0  0  0
 23 18  2  0  0  0  0
 24 27  1  6  0  0  0
 24 26  1  0  0  0  0
 24 25  1  0  0  0  0
 25 14  1  6  0  0  0
 26 25  1  0  0  0  0
 26 29  1  1  0  0  0
 28 27  1  0  0  0  0
 29 30  1  0  0  0  0
 30 32  2  0  0  0  0
 30 31  1  0  0  0  0
M  END
>  <MODEL>
5

>  <REMARK>
 VINA RESULT:      -7.2      3.682      8.192
  Name = 
  4 active torsions:
  status: ('A' for Active; 'I' for Inactive)
    1  A    between atoms: C_1  and  C_16
    2  A    between atoms: C_10  and  C_17
    3  A    between atoms: C_20  and  O_29
    4  A    between atoms: O_29  and  C_30
                            x       y       z     vdW  Elec       q    Type
                         _______ _______ _______ _____ _____    ______ ____

>  <TORSDO>
F 4

$$$$
=
 OpenBabel11112416273D

 32 37  0  0  1  0  0  0  0  0999 V2000
  189.3490  175.4400  143.2100 C   0  0  0  0  0  0  0  0  0  0  0  0
  192.1590  175.2710  147.1650 C   0  0  0  0  0  3  0  0  0  0  0  0
  191.2750  176.2280  147.8590 C   0  0  0  0  0  3  0  0  0  0  0  0
  187.1050  176.5590  143.3060 C   0  0  0  0  0  0  0  0  0  0  0  0
  186.1820  177.2410  144.2050 C   0  0  0  0  0  0  0  0  0  0  0  0
  190.1950  174.5780  141.1330 O   0  0  0  0  0  0  0  0  0  0  0  0
  191.6210  174.3840  143.0350 C   0  0  0  0  0  2  0  0  0  0  0  0
  185.4100  178.2180  146.1140 C   0  0  0  0  0  0  0  0  0  0  0  0
  192.0410  175.0510  145.8510 C   0  0  0  0  0  3  0  0  0  0  0  0
  190.6170  175.1100  143.8240 N   0  0  0  0  0  0  0  0  0  0  0  0
  191.0780  175.8510  145.0030 C   0  0  1  0  0  3  0  0  0  0  0  0
  188.7440  176.6570  145.2750 C   0  0  0  0  0  0  0  0  0  0  0  0
  184.4590  178.2820  145.2330 N   0  0  0  0  0  0  0  0  0  0  0  0
  190.9720  173.6610  141.8570 C   0  0  2  0  0  3  0  0  0  0  0  0
  184.9380  177.6670  144.0210 C   0  0  0  0  0  3  0  0  0  0  0  0
  190.2180  176.7570  147.2370 C   0  0  0  0  0  3  0  0  0  0  0  0
  189.9400  176.4100  145.8280 C   0  0  0  0  0  0  0  0  0  0  0  0
  187.7210  177.3150  146.0580 N   0  0  0  0  0  0  0  0  0  0  0  0
  189.0270  174.7840  141.8880 C   0  0  0  0  0  2  0  0  0  0  0  0
  186.7720  176.3140  142.1160 O   0  0  0  0  0  0  0  0  0  0  0  0
  185.2920  178.7560  147.4950 C   0  0  0  0  0  1  0  0  0  0  0  0
  188.4450  176.2000  143.8700 C   0  0  0  0  0  0  0  0  0  0  0  0
  186.5590  177.5640  145.5410 C   0  0  0  0  0  0  0  0  0  0  0  0
  191.8040  171.6330  140.4910 C   0  0  2  0  0  3  0  0  0  0  0  0
  192.0530  173.0740  140.9560 C   0  0  1  0  0  3  0  0  0  0  0  0
  191.4820  172.8000  139.5790 C   0  0  1  0  0  3  0  0  0  0  0  0
  190.5070  171.0070  140.9890 C   0  0  0  0  0  2  0  0  0  0  0  0
  190.8160  169.7340  141.7500 C   0  0  0  0  0  1  0  0  0  0  0  0
  192.5100  172.9360  138.6090 O   0  0  0  0  0  0  0  0  0  0  0  0
  192.7640  174.1440  137.9540 C   0  0  0  0  0  0  0  0  0  0  0  0
  191.9860  174.5580  136.7500 C   0  0  0  0  0  1  0  0  0  0  0  0
  193.6690  174.9020  138.3880 O   0  0  0  0  0  0  0  0  0  0  0  0
  1 10  1  0  0  0  0
  1 22  2  0  0  0  0
  2  3  1  0  0  0  0
  4 22  1  0  0  0  0
  4  5  1  0  0  0  0
  5 23  1  0  0  0  0
  6 14  1  0  0  0  0
  6 19  1  0  0  0  0
  7 10  1  0  0  0  0
  8 21  1  0  0  0  0
  9  2  2  0  0  0  0
 10 11  1  0  0  0  0
 11 17  1  0  0  0  0
 11  9  1  1  0  0  0
 12 17  2  0  0  0  0
 12 18  1  0  0  0  0
 13  8  2  0  0  0  0
 14  7  1  1  0  0  0
 15  5  2  0  0  0  0
 15 13  1  0  0  0  0
 16  3  2  0  0  0  0
 17 16  1  0  0  0  0
 19  1  1  0  0  0  0
 20  4  2  0  0  0  0
 22 12  1  0  0  0  0
 23 18  2  0  0  0  0
 23  8  1  0  0  0  0
 24 25  1  0  0  0  0
 24 27  1  1  0  0  0
 25 14  1  1  0  0  0
 26 29  1  6  0  0  0
 26 24  1  0  0  0  0
 26 25  1  0  0  0  0
 27 28  1  0  0  0  0
 30 32  2  0  0  0  0
 30 29  1  0  0  0  0
 31 30  1  0  0  0  0
M  END
>  <MODEL>
6

>  <REMARK>
 VINA RESULT:      -7.1      3.409      5.278
  Name = 
  4 active torsions:
  status: ('A' for Active; 'I' for Inactive)
    1  A    between atoms: C_1  and  C_16
    2  A    between atoms: C_10  and  C_17
    3  A    between atoms: C_20  and  O_29
    4  A    between atoms: O_29  and  C_30
                            x       y       z     vdW  Elec       q    Type
                         _______ _______ _______ _____ _____    ______ ____

>  <TORSDO>
F 4

$$$$
=
 OpenBabel11112416273D

 32 37  0  0  1  0  0  0  0  0999 V2000
  190.5900  175.8360  143.3230 C   0  0  0  0  0  0  0  0  0  0  0  0
  189.6940  171.9520  140.5520 C   0  0  0  0  0  3  0  0  0  0  0  0
  191.1310  171.8120  140.2480 C   0  0  0  0  0  3  0  0  0  0  0  0
  192.9500  176.4240  143.9420 C   0  0  0  0  0  0  0  0  0  0  0  0
  194.3340  175.9850  143.8040 C   0  0  0  0  0  0  0  0  0  0  0  0
  188.7690  177.2660  143.9620 O   0  0  0  0  0  0  0  0  0  0  0  0
  188.2190  175.3440  142.6620 C   0  0  0  0  0  2  0  0  0  0  0  0
  196.1070  174.7490  143.0810 C   0  0  0  0  0  0  0  0  0  0  0  0
  189.2180  173.0530  141.1440 C   0  0  0  0  0  3  0  0  0  0  0  0
  189.6500  175.0310  142.5740 N   0  0  0  0  0  0  0  0  0  0  0  0
  190.1100  174.2420  141.4250 C   0  0  1  0  0  3  0  0  0  0  0  0
  192.4220  174.5460  142.2780 C   0  0  0  0  0  0  0  0  0  0  0  0
  196.5690  175.6540  143.8880 N   0  0  0  0  0  0  0  0  0  0  0  0
  187.9130  176.1560  143.9190 C   0  0  2  0  0  3  0  0  0  0  0  0
  195.4540  176.4420  144.3500 C   0  0  0  0  0  2  0  0  0  0  0  0
  192.0190  172.6900  140.7210 C   0  0  0  0  0  3  0  0  0  0  0  0
  191.5630  173.8370  141.5330 C   0  0  0  0  0  0  0  0  0  0  0  0
  193.8300  174.2110  142.2520 N   0  0  0  0  0  2  0  0  0  0  0  0
  190.0260  176.7770  144.3600 C   0  0  0  0  0  2  0  0  0  0  0  0
  192.6660  177.4210  144.6570 O   0  0  0  0  0  0  0  0  0  0  0  0
  196.9610  173.7430  142.3940 C   0  0  0  0  0  1  0  0  0  0  0  0
  191.9220  175.6440  143.1810 C   0  0  0  0  0  0  0  0  0  0  0  0
  194.6770  174.8850  142.9640 C   0  0  0  0  0  0  0  0  0  0  0  0
  185.8280  176.8750  145.2630 C   0  0  2  0  0  3  0  0  0  0  0  0
  186.4610  176.6220  143.8880 C   0  0  1  0  0  3  0  0  0  0  0  0
  186.3620  178.0310  144.4390 C   0  0  1  0  0  3  0  0  0  0  0  0
  186.7470  176.6350  146.4540 C   0  0  0  0  0  2  0  0  0  0  0  0
  186.2710  177.4530  147.6360 C   0  0  0  0  0  1  0  0  0  0  0  0
  185.2790  178.7040  143.8150 O   0  0  0  0  0  0  0  0  0  0  0  0
  184.9800  178.5410  142.4600 C   0  0  0  0  0  0  0  0  0  0  0  0
  183.6070  178.1750  142.0010 C   0  0  0  0  0  1  0  0  0  0  0  0
  185.8860  178.7070  141.6040 O   0  0  0  0  0  0  0  0  0  0  0  0
  1 19  1  0  0  0  0
  2  9  2  0  0  0  0
  3  2  1  0  0  0  0
  3 16  2  0  0  0  0
  4 20  2  0  0  0  0
  5  4  1  0  0  0  0
  5 15  1  0  0  0  0
  6 19  1  0  0  0  0
  8 13  2  0  0  0  0
 10  7  1  0  0  0  0
 10  1  1  0  0  0  0
 11  9  1  1  0  0  0
 11 17  1  0  0  0  0
 11 10  1  0  0  0  0
 12 22  1  0  0  0  0
 13 15  1  0  0  0  0
 14  7  1  6  0  0  0
 14  6  1  0  0  0  0
 16 17  1  0  0  0  0
 17 12  2  0  0  0  0
 18 12  1  0  0  0  0
 18 23  1  0  0  0  0
 21  8  1  0  0  0  0
 22  1  2  0  0  0  0
 22  4  1  0  0  0  0
 23  8  1  0  0  0  0
 23  5  2  0  0  0  0
 24 27  1  1  0  0  0
 25 14  1  1  0  0  0
 25 26  1  0  0  0  0
 25 24  1  0  0  0  0
 26 29  1  6  0  0  0
 26 24  1  0  0  0  0
 27 28  1  0  0  0  0
 30 29  1  0  0  0  0
 31 30  1  0  0  0  0
 32 30  2  0  0  0  0
M  END
>  <MODEL>
7

>  <REMARK>
 VINA RESULT:      -7.1      3.212      8.911
  Name = 
  4 active torsions:
  status: ('A' for Active; 'I' for Inactive)
    1  A    between atoms: C_1  and  C_16
    2  A    between atoms: C_10  and  C_17
    3  A    between atoms: C_20  and  O_29
    4  A    between atoms: O_29  and  C_30
                            x       y       z     vdW  Elec       q    Type
                         _______ _______ _______ _____ _____    ______ ____

>  <TORSDO>
F 4

$$$$
=
 OpenBabel11112416273D

 32 37  0  0  1  0  0  0  0  0999 V2000
  191.1160  175.4620  145.2060 C   0  0  0  0  0  0  0  0  0  0  0  0
  189.7990  174.0680  140.7460 C   0  0  0  0  0  3  0  0  0  0  0  0
  188.3970  174.4350  141.0240 C   0  0  0  0  0  3  0  0  0  0  0  0
  189.5100  176.7360  146.6530 C   0  0  0  0  0  0  0  0  0  0  0  0
  188.1750  177.3230  146.6740 C   0  0  0  0  0  0  0  0  0  0  0  0
  193.2570  174.7870  146.0610 O   0  0  0  0  0  0  0  0  0  0  0  0
  192.7310  174.1150  143.8340 C   0  0  0  0  0  2  0  0  0  0  0  0
  186.0720  177.8410  145.9640 C   0  0  0  0  0  0  0  0  0  0  0  0
  190.7030  174.0060  141.7300 C   0  0  0  0  0  3  0  0  0  0  0  0
  191.4040  174.7220  143.9970 N   0  0  0  0  0  0  0  0  0  0  0  0
  190.3050  174.1980  143.1760 C   0  0  1  0  0  3  0  0  0  0  0  0
  188.7970  175.7480  144.3970 C   0  0  0  0  0  0  0  0  0  0  0  0
  186.2410  178.4050  147.1210 N   0  0  0  0  0  0  0  0  0  0  0  0
  193.7540  174.7850  144.7490 C   0  0  2  0  0  3  0  0  0  0  0  0
  187.5690  178.0820  147.5790 C   0  0  0  0  0  2  0  0  0  0  0  0
  188.0340  174.8940  142.2240 C   0  0  0  0  0  3  0  0  0  0  0  0
  189.0370  175.0110  143.3040 C   0  0  0  0  0  0  0  0  0  0  0  0
  187.5170  176.4060  144.5440 N   0  0  0  0  0  2  0  0  0  0  0  0
  192.2800  175.7970  146.1080 C   0  0  0  0  0  2  0  0  0  0  0  0
  190.2890  176.8900  147.6310 O   0  0  0  0  0  0  0  0  0  0  0  0
  184.8170  177.9430  145.1720 C   0  0  0  0  0  1  0  0  0  0  0  0
  189.8720  175.9410  145.4360 C   0  0  0  0  0  0  0  0  0  0  0  0
  187.2660  177.1220  145.5950 C   0  0  0  0  0  0  0  0  0  0  0  0
  196.2980  174.8520  144.3070 C   0  0  2  0  0  3  0  0  0  0  0  0
  195.0710  174.0170  144.6950 C   0  0  1  0  0  3  0  0  0  0  0  0
  196.0120  174.5370  145.7630 C   0  0  1  0  0  3  0  0  0  0  0  0
  196.0210  176.3270  144.0450 C   0  0  0  0  0  2  0  0  0  0  0  0
  196.8240  176.7900  142.8480 C   0  0  0  0  0  1  0  0  0  0  0  0
  196.8630  173.4840  146.1920 O   0  0  0  0  0  0  0  0  0  0  0  0
  196.8360  172.2160  145.6050 C   0  0  0  0  0  0  0  0  0  0  0  0
  197.8860  171.7810  144.6380 C   0  0  0  0  0  1  0  0  0  0  0  0
  195.9070  171.4210  145.8990 O   0  0  0  0  0  0  0  0  0  0  0  0
  1 22  2  0  0  0  0
  1 19  1  0  0  0  0
  2  3  1  0  0  0  0
  2  9  2  0  0  0  0
  3 16  2  0  0  0  0
  4  5  1  0  0  0  0
  4 20  2  0  0  0  0
  5 15  1  0  0  0  0
  6 19  1  0  0  0  0
  7 10  1  0  0  0  0
  8 13  2  0  0  0  0
 10  1  1  0  0  0  0
 11  9  1  6  0  0  0
 11 17  1  0  0  0  0
 11 10  1  0  0  0  0
 12 18  1  0  0  0  0
 12 22  1  0  0  0  0
 13 15  1  0  0  0  0
 14  7  1  6  0  0  0
 14  6  1  0  0  0  0
 16 17  1  0  0  0  0
 17 12  2  0  0  0  0
 18 23  1  0  0  0  0
 21  8  1  0  0  0  0
 22  4  1  0  0  0  0
 23  8  1  0  0  0  0
 23  5  2  0  0  0  0
 24 27  1  1  0  0  0
 24 25  1  0  0  0  0
 24 26  1  0  0  0  0
 25 14  1  1  0  0  0
 25 26  1  0  0  0  0
 26 29  1  6  0  0  0
 28 27  1  0  0  0  0
 30 32  2  0  0  0  0
 30 29  1  0  0  0  0
 31 30  1  0  0  0  0
M  END
>  <MODEL>
8

>  <REMARK>
 VINA RESULT:      -7.1      2.963      5.571
  Name = 
  4 active torsions:
  status: ('A' for Active; 'I' for Inactive)
    1  A    between atoms: C_1  and  C_16
    2  A    between atoms: C_10  and  C_17
    3  A    between atoms: C_20  and  O_29
    4  A    between atoms: O_29  and  C_30
                            x       y       z     vdW  Elec       q    Type
                         _______ _______ _______ _____ _____    ______ ____

>  <TORSDO>
F 4

$$$$
=
 OpenBabel11112416273D

 32 37  0  0  1  0  0  0  0  0999 V2000
  191.3220  174.8080  144.1740 C   0  0  0  0  0  0  0  0  0  0  0  0
  190.1470  170.6520  141.9560 C   0  0  0  0  0  3  0  0  0  0  0  0
  191.5520  170.2050  142.0050 C   0  0  0  0  0  3  0  0  0  0  0  0
  193.5960  175.0910  145.1950 C   0  0  0  0  0  0  0  0  0  0  0  0
  194.8560  174.3990  145.4410 C   0  0  0  0  0  0  0  0  0  0  0  0
  189.7610  176.6330  144.1470 O   0  0  0  0  0  0  0  0  0  0  0  0
  189.0630  174.6100  143.0950 C   0  0  0  0  0  2  0  0  0  0  0  0
  196.4280  172.7520  145.3450 C   0  0  0  0  0  0  0  0  0  0  0  0
  189.8160  171.9180  142.2370 C   0  0  0  0  0  3  0  0  0  0  0  0
  190.3870  174.0410  143.3790 N   0  0  0  0  0  0  0  0  0  0  0  0
  190.8720  172.9650  142.5070 C   0  0  1  0  0  3  0  0  0  0  0  0
  192.9980  173.0310  143.7900 C   0  0  0  0  0  0  0  0  0  0  0  0
  196.9150  173.7090  146.0730 N   0  0  0  0  0  0  0  0  0  0  0  0
  188.7100  175.7040  144.1000 C   0  0  2  0  0  3  0  0  0  0  0  0
  195.9270  174.7570  146.1400 C   0  0  0  0  0  2  0  0  0  0  0  0
  192.5040  170.9930  142.5110 C   0  0  0  0  0  3  0  0  0  0  0  0
  192.1600  172.3450  143.0010 C   0  0  0  0  0  0  0  0  0  0  0  0
  194.2820  172.4580  144.1320 N   0  0  0  0  0  2  0  0  0  0  0  0
  190.7880  176.0250  144.8900 C   0  0  0  0  0  2  0  0  0  0  0  0
  193.4040  176.2480  145.6540 O   0  0  0  0  0  0  0  0  0  0  0  0
  197.1600  171.4930  145.0400 C   0  0  0  0  0  1  0  0  0  0  0  0
  192.5850  174.3620  144.3650 C   0  0  0  0  0  0  0  0  0  0  0  0
  195.1060  173.1070  144.8930 C   0  0  0  0  0  0  0  0  0  0  0  0
  186.5160  176.8590  144.8210 C   0  0  2  0  0  3  0  0  0  0  0  0
  187.4230  176.3990  143.6720 C   0  0  1  0  0  3  0  0  0  0  0  0
  187.4410  177.8430  144.1320 C   0  0  1  0  0  3  0  0  0  0  0  0
  187.0430  176.5640  146.2200 C   0  0  0  0  0  2  0  0  0  0  0  0
  186.1780  177.2640  147.2470 C   0  0  0  0  0  1  0  0  0  0  0  0
  186.6910  178.6350  143.2220 O   0  0  0  0  0  0  0  0  0  0  0  0
  185.4310  179.1470  143.5400 C   0  0  0  0  0  0  0  0  0  0  0  0
  184.1790  178.5140  143.0310 C   0  0  0  0  0  1  0  0  0  0  0  0
  185.3470  180.1660  144.2730 O   0  0  0  0  0  0  0  0  0  0  0  0
  1 22  2  0  0  0  0
  1 19  1  0  0  0  0
  2  3  1  0  0  0  0
  2  9  2  0  0  0  0
  3 16  2  0  0  0  0
  4  5  1  0  0  0  0
  4 20  2  0  0  0  0
  5 15  1  0  0  0  0
  6 19  1  0  0  0  0
  7 10  1  0  0  0  0
  8 13  2  0  0  0  0
 10  1  1  0  0  0  0
 11  9  1  1  0  0  0
 11 17  1  0  0  0  0
 11 10  1  0  0  0  0
 12 18  1  0  0  0  0
 12 22  1  0  0  0  0
 13 15  1  0  0  0  0
 14  7  1  6  0  0  0
 14  6  1  0  0  0  0
 16 17  1  0  0  0  0
 17 12  2  0  0  0  0
 18 23  1  0  0  0  0
 21  8  1  0  0  0  0
 22  4  1  0  0  0  0
 23  8  1  0  0  0  0
 23  5  2  0  0  0  0
 24 27  1  1  0  0  0
 25 14  1  1  0  0  0
 25 26  1  0  0  0  0
 25 24  1  0  0  0  0
 26 29  1  6  0  0  0
 26 24  1  0  0  0  0
 27 28  1  0  0  0  0
 29 30  1  0  0  0  0
 30 32  2  0  0  0  0
 31 30  1  0  0  0  0
M  END
>  <MODEL>
9

>  <REMARK>
 VINA RESULT:      -7.0      3.220      9.440
  Name = 
  4 active torsions:
  status: ('A' for Active; 'I' for Inactive)
    1  A    between atoms: C_1  and  C_16
    2  A    between atoms: C_10  and  C_17
    3  A    between atoms: C_20  and  O_29
    4  A    between atoms: O_29  and  C_30
                            x       y       z     vdW  Elec       q    Type
                         _______ _______ _______ _____ _____    ______ ____

>  <TORSDO>
F 4

$$$$
