=
 OpenBabel11112418083D

 34 40  0  0  1  0  0  0  0  0999 V2000
  189.4650  174.7260  143.0380 C   0  0  1  0  0  3  0  0  0  0  0  0
  191.7110  173.8030  143.1760 C   0  0  0  0  0  2  0  0  0  0  0  0
  185.1200  179.2110  145.0830 C   0  0  1  0  0  3  0  0  0  0  0  0
  187.2250  175.8600  142.9560 C   0  0  2  0  0  3  0  0  0  0  0  0
  186.3560  176.8870  145.0850 C   0  0  2  0  0  3  0  0  0  0  0  0
  185.7230  178.1020  147.2670 C   0  0  0  0  0  1  0  0  0  0  0  0
  186.2870  179.8240  144.6180 O   0  0  0  0  0  1  0  0  0  0  0  0
  184.6710  178.4810  142.7420 N   0  0  0  0  0  2  0  0  0  0  0  0
  190.6690  174.5860  145.0210 C   0  0  2  0  0  3  0  0  0  0  0  0
  192.2340  176.1510  147.2980 C   0  0  0  0  0  2  0  0  0  0  0  0
  187.7960  176.9130  145.6010 C   0  0  0  0  0  2  0  0  0  0  0  0
  185.0030  177.0770  142.9450 C   0  0  0  0  0  2  0  0  0  0  0  0
  189.8560  175.7010  145.7030 C   0  0  1  0  0  3  0  0  0  0  0  0
  192.7310  173.6490  144.3020 C   0  0  0  0  0  2  0  0  0  0  0  0
  186.3950  176.9940  143.5540 C   0  0  2  0  0  3  0  0  0  0  0  0
  184.0860  179.0270  143.9660 C   0  0  0  0  0  2  0  0  0  0  0  0
  192.8400  175.5000  146.0400 C   0  0  1  0  0  3  0  0  0  0  0  0
  188.6100  175.8590  143.6320 C   0  0  1  0  0  3  0  0  0  0  0  0
  185.4100  177.8880  145.7940 C   0  0  1  0  0  3  0  0  0  0  0  0
  188.5070  175.7320  145.1020 N   0  0  2  0  0  0  0  0  0  0  0  0
  188.0180  174.9310  141.0360 C   0  0  0  0  0  2  0  0  0  0  0  0
  191.1130  175.3330  147.9440 C   0  0  0  0  0  2  0  0  0  0  0  0
  187.3860  176.0730  141.5700 O   0  0  0  0  0  0  0  0  0  0  0  0
  189.7650  175.4850  147.2260 C   0  0  0  0  0  2  0  0  0  0  0  0
  192.0660  174.2650  145.5260 C   0  0  1  0  0  3  0  0  0  0  0  0
  189.4690  174.8580  141.5150 C   0  0  0  0  0  2  0  0  0  0  0  0
  190.8030  174.8560  143.6030 N   0  0  2  0  0  0  0  0  0  0  0  0
  192.9780  176.4660  145.0370 O   0  0  0  0  0  0  0  0  0  0  0  0
  194.3420  176.7690  145.0080 C   0  0  0  0  0  2  0  0  0  0  0  0
  195.1990  176.3120  141.6590 C   0  0  0  0  0  2  0  0  0  0  0  0
  196.2920  176.6290  143.7300 C   0  0  0  0  0  2  0  0  0  0  0  0
  194.9790  176.0360  143.9260 N   0  0  0  0  0  0  0  0  0  0  0  0
  196.5360  176.6710  142.2470 C   0  0  0  0  0  2  0  0  0  0  0  0
  194.2440  176.2970  142.7560 N   0  0  0  0  0  2  0  0  0  0  0  0
  1 26  1  6  0  0  0
  1 27  1  0  0  0  0
  1 18  1  0  0  0  0
  2 27  1  0  0  0  0
  2 14  1  0  0  0  0
  3  7  1  6  0  0  0
  3 19  1  0  0  0  0
  4 23  1  6  0  0  0
  4 15  1  0  0  0  0
  4 18  1  0  0  0  0
  5 11  1  1  0  0  0
  5 19  1  0  0  0  0
  8 12  1  0  0  0  0
  8 16  1  0  0  0  0
  9 25  1  0  0  0  0
  9 13  1  0  0  0  0
 10 22  1  0  0  0  0
 12 15  1  0  0  0  0
 13 24  1  0  0  0  0
 14 25  1  0  0  0  0
 15  5  1  0  0  0  0
 16  3  1  0  0  0  0
 17 10  1  0  0  0  0
 18 20  1  0  0  0  0
 19  6  1  0  0  0  0
 20 11  1  0  0  0  0
 20 13  1  0  0  0  0
 21 26  1  0  0  0  0
 21 23  1  0  0  0  0
 24 22  1  0  0  0  0
 25 17  1  0  0  0  0
 27  9  1  0  0  0  0
 28 17  1  0  0  0  0
 29 28  1  0  0  0  0
 30 33  1  0  0  0  0
 30 34  1  0  0  0  0
 31 32  1  0  0  0  0
 32 29  1  0  0  0  0
 33 31  1  0  0  0  0
 34 32  1  0  0  0  0
M  END
>  <MODEL>
1

>  <REMARK>
 VINA RESULT:      -8.7      0.000      0.000
  Name = 
  3 active torsions:
  status: ('A' for Active; 'I' for Inactive)
    1  A    between atoms: C_17  and  O_28
    2  A    between atoms: O_28  and  C_29
    3  A    between atoms: C_29  and  N_32
                            x       y       z     vdW  Elec       q    Type
                         _______ _______ _______ _____ _____    ______ ____

>  <TORSDO>
F 3

$$$$
=
 OpenBabel11112418083D

 34 40  0  0  1  0  0  0  0  0999 V2000
  192.2470  173.6310  142.5950 C   0  0  1  0  0  3  0  0  0  0  0  0
  194.5750  173.1520  143.1100 C   0  0  0  0  0  2  0  0  0  0  0  0
  187.2890  177.9420  142.5850 C   0  0  1  0  0  3  0  0  0  0  0  0
  189.8970  174.3240  142.0430 C   0  0  2  0  0  3  0  0  0  0  0  0
  188.7890  176.0090  143.5530 C   0  0  2  0  0  3  0  0  0  0  0  0
  187.8910  177.9160  145.0340 C   0  0  0  0  0  1  0  0  0  0  0  0
  188.3990  178.4600  141.9120 O   0  0  0  0  0  1  0  0  0  0  0  0
  187.0660  176.2650  140.7540 N   0  0  0  0  0  2  0  0  0  0  0  0
  193.3420  174.4760  144.4630 C   0  0  2  0  0  3  0  0  0  0  0  0
  194.5750  177.0290  145.8940 C   0  0  0  0  0  2  0  0  0  0  0  0
  190.1840  176.4340  144.0170 C   0  0  0  0  0  2  0  0  0  0  0  0
  187.5510  175.1250  141.5220 C   0  0  0  0  0  2  0  0  0  0  0  0
  192.3650  175.6540  144.6200 C   0  0  1  0  0  3  0  0  0  0  0  0
  195.5390  173.6090  144.2030 C   0  0  0  0  0  2  0  0  0  0  0  0
  188.9040  175.4830  142.1150 C   0  0  2  0  0  3  0  0  0  0  0  0
  186.3510  177.1810  141.6400 C   0  0  0  0  0  2  0  0  0  0  0  0
  195.3260  176.0060  145.0200 C   0  0  1  0  0  3  0  0  0  0  0  0
  191.2310  174.7840  142.6640 C   0  0  1  0  0  3  0  0  0  0  0  0
  187.6920  177.0770  143.7810 C   0  0  1  0  0  3  0  0  0  0  0  0
  191.0580  175.2580  144.0550 N   0  0  2  0  0  0  0  0  0  0  0  0
  190.9050  172.8040  140.6830 C   0  0  0  0  0  2  0  0  0  0  0  0
  193.5240  176.4070  146.8160 C   0  0  0  0  0  2  0  0  0  0  0  0
  190.1120  173.9700  140.6940 O   0  0  0  0  0  0  0  0  0  0  0  0
  192.2110  176.0720  146.0950 C   0  0  0  0  0  2  0  0  0  0  0  0
  194.7360  174.5790  145.0600 C   0  0  1  0  0  3  0  0  0  0  0  0
  192.3240  173.1270  141.1540 C   0  0  0  0  0  2  0  0  0  0  0  0
  193.5250  174.1570  143.0600 N   0  0  2  0  0  0  0  0  0  0  0  0
  195.4060  176.4860  143.7080 O   0  0  0  0  0  0  0  0  0  0  0  0
  196.7560  176.7910  143.5130 C   0  0  0  0  0  2  0  0  0  0  0  0
  197.4170  174.7510  140.7640 C   0  0  0  0  0  2  0  0  0  0  0  0
  195.8600  176.4160  141.3880 C   0  0  0  0  0  2  0  0  0  0  0  0
  197.1070  176.5760  142.1190 N   0  0  0  0  0  0  0  0  0  0  0  0
  196.0860  175.3300  140.3720 C   0  0  0  0  0  2  0  0  0  0  0  0
  197.7770  175.3420  142.0430 N   0  0  0  0  0  2  0  0  0  0  0  0
  1 26  1  6  0  0  0
  1 18  1  0  0  0  0
  1 27  1  0  0  0  0
  2 14  1  0  0  0  0
  3  7  1  6  0  0  0
  3 19  1  0  0  0  0
  4 23  1  6  0  0  0
  4 15  1  0  0  0  0
  4 18  1  0  0  0  0
  5 19  1  0  0  0  0
  5 11  1  6  0  0  0
  8 12  1  0  0  0  0
  8 16  1  0  0  0  0
  9 13  1  0  0  0  0
  9 25  1  0  0  0  0
 10 22  1  0  0  0  0
 11 20  1  0  0  0  0
 12 15  1  0  0  0  0
 13 24  1  0  0  0  0
 14 25  1  0  0  0  0
 15  5  1  0  0  0  0
 16  3  1  0  0  0  0
 17 25  1  0  0  0  0
 17 10  1  0  0  0  0
 18 20  1  0  0  0  0
 19  6  1  0  0  0  0
 20 13  1  0  0  0  0
 21 23  1  0  0  0  0
 21 26  1  0  0  0  0
 24 22  1  0  0  0  0
 27  2  1  0  0  0  0
 27  9  1  0  0  0  0
 28 17  1  0  0  0  0
 29 28  1  0  0  0  0
 30 34  1  0  0  0  0
 31 32  1  0  0  0  0
 32 29  1  0  0  0  0
 33 30  1  0  0  0  0
 33 31  1  0  0  0  0
 34 32  1  0  0  0  0
M  END
>  <MODEL>
2

>  <REMARK>
 VINA RESULT:      -7.8      2.079      3.086
  Name = 
  3 active torsions:
  status: ('A' for Active; 'I' for Inactive)
    1  A    between atoms: C_17  and  O_28
    2  A    between atoms: O_28  and  C_29
    3  A    between atoms: C_29  and  N_32
                            x       y       z     vdW  Elec       q    Type
                         _______ _______ _______ _____ _____    ______ ____

>  <TORSDO>
F 3

$$$$
=
 OpenBabel11112418083D

 34 40  0  0  1  0  0  0  0  0999 V2000
  192.2080  176.3710  146.2590 C   0  0  1  0  0  3  0  0  0  0  0  0
  194.4550  175.4450  146.3670 C   0  0  0  0  0  2  0  0  0  0  0  0
  186.5670  177.0010  142.9500 C   0  0  1  0  0  3  0  0  0  0  0  0
  189.8370  177.1680  146.0260 C   0  0  2  0  0  3  0  0  0  0  0  0
  188.9970  177.6730  143.7060 C   0  0  2  0  0  3  0  0  0  0  0  0
  188.2110  177.9020  141.2630 C   0  0  0  0  0  1  0  0  0  0  0  0
  186.8890  175.6530  143.1320 O   0  0  0  0  0  1  0  0  0  0  0  0
  186.2230  177.1650  145.4140 N   0  0  0  0  0  2  0  0  0  0  0  0
  193.5920  176.1560  144.4040 C   0  0  2  0  0  3  0  0  0  0  0  0
  194.1610  174.6420  141.6720 C   0  0  0  0  0  2  0  0  0  0  0  0
  190.1190  176.7860  143.1610 C   0  0  0  0  0  2  0  0  0  0  0  0
  187.4400  177.9160  145.6950 C   0  0  0  0  0  2  0  0  0  0  0  0
  192.4180  176.1730  143.4090 C   0  0  1  0  0  3  0  0  0  0  0  0
  195.5290  175.1370  145.3270 C   0  0  0  0  0  2  0  0  0  0  0  0
  188.6190  177.1610  145.1030 C   0  0  2  0  0  3  0  0  0  0  0  0
  185.7090  177.5450  144.0990 C   0  0  0  0  0  2  0  0  0  0  0  0
  194.7530  174.3080  143.0550 C   0  0  1  0  0  3  0  0  0  0  0  0
  190.9730  176.3810  145.3420 C   0  0  1  0  0  3  0  0  0  0  0  0
  187.8100  177.8650  142.7290 C   0  0  1  0  0  3  0  0  0  0  0  0
  191.3040  176.9350  144.0100 N   0  0  2  0  0  0  0  0  0  0  0  0
  190.6040  176.7080  148.1180 C   0  0  0  0  0  2  0  0  0  0  0  0
  194.0480  176.1410  141.3890 C   0  0  0  0  0  2  0  0  0  0  0  0
  189.5090  176.5400  147.2460 O   0  0  0  0  0  0  0  0  0  0  0  0
  192.8280  176.7910  142.0580 C   0  0  0  0  0  2  0  0  0  0  0  0
  194.9110  175.5260  143.9910 C   0  0  1  0  0  3  0  0  0  0  0  0
  191.7910  175.8690  147.6410 C   0  0  0  0  0  2  0  0  0  0  0  0
  193.1980  175.5010  145.6360 N   0  0  2  0  0  0  0  0  0  0  0  0
  193.9880  173.3010  143.6560 O   0  0  0  0  0  0  0  0  0  0  0  0
  193.2930  172.6950  142.6070 C   0  0  0  0  0  2  0  0  0  0  0  0
  190.4630  172.8500  144.6380 C   0  0  0  0  0  2  0  0  0  0  0  0
  190.9780  172.8370  142.3310 C   0  0  0  0  0  2  0  0  0  0  0  0
  192.0250  172.1800  143.0970 N   0  0  0  0  0  0  0  0  0  0  0  0
  189.8610  173.1420  143.2910 C   0  0  0  0  0  2  0  0  0  0  0  0
  191.8830  172.6170  144.4260 N   0  0  0  0  0  2  0  0  0  0  0  0
  1 26  1  1  0  0  0
  3  7  1  1  0  0  0
  3 16  1  0  0  0  0
  4 23  1  1  0  0  0
  5 11  1  6  0  0  0
  5 15  1  0  0  0  0
  6 19  1  0  0  0  0
  8 12  1  0  0  0  0
  9 27  1  0  0  0  0
 10 17  1  0  0  0  0
 11 20  1  0  0  0  0
 13 20  1  0  0  0  0
 13  9  1  0  0  0  0
 14  2  1  0  0  0  0
 15 12  1  0  0  0  0
 15  4  1  0  0  0  0
 16  8  1  0  0  0  0
 17 28  1  0  0  0  0
 17 25  1  0  0  0  0
 18  4  1  0  0  0  0
 18  1  1  0  0  0  0
 19  3  1  0  0  0  0
 19  5  1  0  0  0  0
 20 18  1  0  0  0  0
 22 10  1  0  0  0  0
 22 24  1  0  0  0  0
 23 21  1  0  0  0  0
 24 13  1  0  0  0  0
 25  9  1  0  0  0  0
 25 14  1  0  0  0  0
 26 21  1  0  0  0  0
 27  1  1  0  0  0  0
 27  2  1  0  0  0  0
 29 32  1  0  0  0  0
 29 28  1  0  0  0  0
 31 32  1  0  0  0  0
 31 33  1  0  0  0  0
 32 34  1  0  0  0  0
 33 30  1  0  0  0  0
 34 30  1  0  0  0  0
M  END
>  <MODEL>
3

>  <REMARK>
 VINA RESULT:      -7.6      2.142      4.831
  Name = 
  3 active torsions:
  status: ('A' for Active; 'I' for Inactive)
    1  A    between atoms: C_17  and  O_28
    2  A    between atoms: O_28  and  C_29
    3  A    between atoms: C_29  and  N_32
                            x       y       z     vdW  Elec       q    Type
                         _______ _______ _______ _____ _____    ______ ____

>  <TORSDO>
F 3

$$$$
=
 OpenBabel11112418083D

 34 40  0  0  1  0  0  0  0  0999 V2000
  189.9720  173.3800  142.2530 C   0  0  1  0  0  3  0  0  0  0  0  0
  187.8340  174.5360  142.3450 C   0  0  0  0  0  2  0  0  0  0  0  0
  196.0210  172.5940  144.6940 C   0  0  1  0  0  3  0  0  0  0  0  0
  192.2000  172.2260  142.3600 C   0  0  2  0  0  3  0  0  0  0  0  0
  194.1890  173.5890  143.0880 C   0  0  2  0  0  3  0  0  0  0  0  0
  196.0670  175.0420  144.0870 C   0  0  0  0  0  1  0  0  0  0  0  0
  195.0580  172.4560  145.6980 O   0  0  0  0  0  1  0  0  0  0  0  0
  195.1470  170.4910  143.6810 N   0  0  0  0  0  2  0  0  0  0  0  0
  189.7620  175.6390  142.7600 C   0  0  2  0  0  3  0  0  0  0  0  0
  189.9630  177.8940  144.9860 C   0  0  0  0  0  2  0  0  0  0  0  0
  193.2130  174.5720  143.7390 C   0  0  0  0  0  2  0  0  0  0  0  0
  194.4730  171.1240  142.5550 C   0  0  0  0  0  2  0  0  0  0  0  0
  191.1160  175.6970  143.4890 C   0  0  1  0  0  3  0  0  0  0  0  0
  187.4080  175.9580  142.7030 C   0  0  0  0  0  2  0  0  0  0  0  0
  193.5400  172.1980  143.0930 C   0  0  2  0  0  3  0  0  0  0  0  0
  196.3460  171.2540  144.0230 C   0  0  0  0  0  2  0  0  0  0  0  0
  188.6950  177.1320  144.5540 C   0  0  1  0  0  3  0  0  0  0  0  0
  191.3290  173.3400  142.9750 C   0  0  1  0  0  3  0  0  0  0  0  0
  195.6270  173.6510  143.6600 C   0  0  1  0  0  3  0  0  0  0  0  0
  191.9990  174.6570  142.9210 N   0  0  2  0  0  0  0  0  0  0  0  0
  190.3980  171.0010  141.7050 C   0  0  0  0  0  2  0  0  0  0  0  0
  190.8940  178.2610  143.8280 C   0  0  0  0  0  2  0  0  0  0  0  0
  191.5470  170.9850  142.5220 O   0  0  0  0  0  0  0  0  0  0  0  0
  191.7680  177.0870  143.3630 C   0  0  0  0  0  2  0  0  0  0  0  0
  188.6980  176.6760  143.0780 C   0  0  1  0  0  3  0  0  0  0  0  0
  189.3640  171.9770  142.2680 C   0  0  0  0  0  2  0  0  0  0  0  0
  189.1380  174.3450  142.9610 N   0  0  2  0  0  0  0  0  0  0  0  0
  188.4850  176.0520  145.4180 O   0  0  0  0  0  0  0  0  0  0  0  0
  187.8650  176.6010  146.5440 C   0  0  0  0  0  2  0  0  0  0  0  0
  184.4960  177.4910  146.4110 C   0  0  0  0  0  2  0  0  0  0  0  0
  186.5270  178.3940  147.2150 C   0  0  0  0  0  2  0  0  0  0  0  0
  186.7720  177.4640  146.1250 N   0  0  0  0  0  0  0  0  0  0  0  0
  185.0360  178.5610  147.3200 C   0  0  0  0  0  2  0  0  0  0  0  0
  185.6230  176.6600  146.0180 N   0  0  0  0  0  2  0  0  0  0  0  0
  1 26  1  1  0  0  0
  1 27  1  0  0  0  0
  1 18  1  0  0  0  0
  2 14  1  0  0  0  0
  2 27  1  0  0  0  0
  3  7  1  1  0  0  0
  4 23  1  1  0  0  0
  4 18  1  0  0  0  0
  4 15  1  0  0  0  0
  5 15  1  0  0  0  0
  5 19  1  0  0  0  0
  5 11  1  1  0  0  0
  8 16  1  0  0  0  0
  9 27  1  0  0  0  0
  9 25  1  0  0  0  0
  9 13  1  0  0  0  0
 12 15  1  0  0  0  0
 12  8  1  0  0  0  0
 14 25  1  0  0  0  0
 16  3  1  0  0  0  0
 17 10  1  0  0  0  0
 17 28  1  0  0  0  0
 19  6  1  0  0  0  0
 19  3  1  0  0  0  0
 20 18  1  0  0  0  0
 20 13  1  0  0  0  0
 20 11  1  0  0  0  0
 21 26  1  0  0  0  0
 21 23  1  0  0  0  0
 22 10  1  0  0  0  0
 24 13  1  0  0  0  0
 24 22  1  0  0  0  0
 25 17  1  0  0  0  0
 28 29  1  0  0  0  0
 30 33  1  0  0  0  0
 31 33  1  0  0  0  0
 32 29  1  0  0  0  0
 32 31  1  0  0  0  0
 34 32  1  0  0  0  0
 34 30  1  0  0  0  0
M  END
>  <MODEL>
4

>  <REMARK>
 VINA RESULT:      -7.6      2.757      8.054
  Name = 
  3 active torsions:
  status: ('A' for Active; 'I' for Inactive)
    1  A    between atoms: C_17  and  O_28
    2  A    between atoms: O_28  and  C_29
    3  A    between atoms: C_29  and  N_32
                            x       y       z     vdW  Elec       q    Type
                         _______ _______ _______ _____ _____    ______ ____

>  <TORSDO>
F 3

$$$$
=
 OpenBabel11112418083D

 34 40  0  0  1  0  0  0  0  0999 V2000
  189.1180  174.5370  141.1070 C   0  0  1  0  0  3  0  0  0  0  0  0
  187.3460  176.1900  141.3160 C   0  0  0  0  0  2  0  0  0  0  0  0
  194.1880  171.3870  143.8510 C   0  0  1  0  0  3  0  0  0  0  0  0
  190.9370  172.8050  141.0950 C   0  0  2  0  0  3  0  0  0  0  0  0
  193.0080  173.2750  142.4490 C   0  0  2  0  0  3  0  0  0  0  0  0
  194.9400  173.7840  144.0740 C   0  0  0  0  0  1  0  0  0  0  0  0
  193.0390  171.2600  144.6380 O   0  0  0  0  0  1  0  0  0  0  0  0
  193.0550  169.9950  142.1210 N   0  0  0  0  0  2  0  0  0  0  0  0
  189.3590  176.5260  142.2850 C   0  0  2  0  0  3  0  0  0  0  0  0
  189.6470  177.9160  145.1250 C   0  0  0  0  0  2  0  0  0  0  0  0
  192.1860  174.2770  143.2630 C   0  0  0  0  0  2  0  0  0  0  0  0
  192.7920  171.0830  141.1880 C   0  0  0  0  0  2  0  0  0  0  0  0
  190.5140  175.9850  143.1460 C   0  0  1  0  0  3  0  0  0  0  0  0
  187.2120  177.5170  142.0610 C   0  0  0  0  0  2  0  0  0  0  0  0
  192.0560  172.1870  141.9310 C   0  0  2  0  0  3  0  0  0  0  0  0
  194.3090  170.2510  142.8280 C   0  0  0  0  0  2  0  0  0  0  0  0
  188.3460  177.7050  144.3270 C   0  0  1  0  0  3  0  0  0  0  0  0
  190.2540  173.9060  141.9300 C   0  0  1  0  0  3  0  0  0  0  0  0
  194.2740  172.7560  143.1730 C   0  0  1  0  0  3  0  0  0  0  0  0
  191.2170  174.9340  142.3810 N   0  0  2  0  0  0  0  0  0  0  0  0
  189.0610  172.3870  139.8750 C   0  0  0  0  0  2  0  0  0  0  0  0
  190.8510  178.3030  144.2640 C   0  0  0  0  0  2  0  0  0  0  0  0
  189.9860  171.8130  140.7720 O   0  0  0  0  0  0  0  0  0  0  0  0
  191.4920  177.1040  143.5510 C   0  0  0  0  0  2  0  0  0  0  0  0
  188.5350  177.6970  142.7930 C   0  0  1  0  0  3  0  0  0  0  0  0
  188.2010  173.4240  140.5980 C   0  0  0  0  0  2  0  0  0  0  0  0
  188.4160  175.4660  141.9850 N   0  0  2  0  0  0  0  0  0  0  0  0
  187.7140  176.5370  144.7670 O   0  0  0  0  0  0  0  0  0  0  0  0
  187.8970  176.5230  146.1520 C   0  0  0  0  0  2  0  0  0  0  0  0
  185.3310  178.6070  147.2630 C   0  0  0  0  0  2  0  0  0  0  0  0
  185.6070  176.7910  145.7760 C   0  0  0  0  0  2  0  0  0  0  0  0
  186.6250  176.7670  146.8140 N   0  0  0  0  0  0  0  0  0  0  0  0
  184.6440  177.8880  146.1350 C   0  0  0  0  0  2  0  0  0  0  0  0
  186.6780  178.0640  147.3540 N   0  0  0  0  0  2  0  0  0  0  0  0
  1 26  1  1  0  0  0
  1 18  1  0  0  0  0
  1 27  1  0  0  0  0
  2 27  1  0  0  0  0
  2 14  1  0  0  0  0
  3  7  1  6  0  0  0
  4 23  1  1  0  0  0
  4 18  1  0  0  0  0
  4 15  1  0  0  0  0
  5 19  1  0  0  0  0
  5 11  1  1  0  0  0
  8 16  1  0  0  0  0
  9 25  1  0  0  0  0
  9 13  1  0  0  0  0
 12 15  1  0  0  0  0
 12  8  1  0  0  0  0
 13 24  1  0  0  0  0
 14 25  1  0  0  0  0
 15  5  1  0  0  0  0
 16  3  1  0  0  0  0
 17 28  1  0  0  0  0
 17 10  1  0  0  0  0
 18 20  1  0  0  0  0
 19  3  1  0  0  0  0
 19  6  1  0  0  0  0
 20 13  1  0  0  0  0
 20 11  1  0  0  0  0
 21 26  1  0  0  0  0
 21 23  1  0  0  0  0
 22 10  1  0  0  0  0
 24 22  1  0  0  0  0
 25 17  1  0  0  0  0
 27  9  1  0  0  0  0
 28 29  1  0  0  0  0
 29 32  1  0  0  0  0
 30 34  1  0  0  0  0
 31 33  1  0  0  0  0
 31 32  1  0  0  0  0
 32 34  1  0  0  0  0
 33 30  1  0  0  0  0
M  END
>  <MODEL>
5

>  <REMARK>
 VINA RESULT:      -7.5      2.724      7.721
  Name = 
  3 active torsions:
  status: ('A' for Active; 'I' for Inactive)
    1  A    between atoms: C_17  and  O_28
    2  A    between atoms: O_28  and  C_29
    3  A    between atoms: C_29  and  N_32
                            x       y       z     vdW  Elec       q    Type
                         _______ _______ _______ _____ _____    ______ ____

>  <TORSDO>
F 3

$$$$
=
 OpenBabel11112418083D

 34 40  0  0  1  0  0  0  0  0999 V2000
  192.1410  175.7470  145.7030 C   0  0  1  0  0  3  0  0  0  0  0  0
  189.8270  176.0390  146.3940 C   0  0  0  0  0  2  0  0  0  0  0  0
  196.5460  175.5410  140.8330 C   0  0  1  0  0  3  0  0  0  0  0  0
  194.4880  175.5630  144.8260 C   0  0  2  0  0  3  0  0  0  0  0  0
  194.8050  174.5520  142.5410 C   0  0  2  0  0  3  0  0  0  0  0  0
  194.9430  173.7360  140.1010 C   0  0  0  0  0  1  0  0  0  0  0  0
  195.8280  176.7400  140.8030 O   0  0  0  0  0  1  0  0  0  0  0  0
  197.5660  176.3010  142.9760 N   0  0  0  0  0  2  0  0  0  0  0  0
  190.3320  174.9650  144.4710 C   0  0  2  0  0  3  0  0  0  0  0  0
  188.5610  175.2820  141.8550 C   0  0  0  0  0  2  0  0  0  0  0  0
  193.3400  174.8830  142.2460 C   0  0  0  0  0  2  0  0  0  0  0  0
  196.8150  175.3980  143.8390 C   0  0  0  0  0  2  0  0  0  0  0  0
  191.1270  174.9240  143.1540 C   0  0  1  0  0  3  0  0  0  0  0  0
  188.4790  175.6930  145.7670 C   0  0  0  0  0  2  0  0  0  0  0  0
  195.3330  175.5790  143.5530 C   0  0  2  0  0  3  0  0  0  0  0  0
  197.8130  175.6530  141.6890 C   0  0  0  0  0  2  0  0  0  0  0  0
  188.2790  175.8910  143.2420 C   0  0  1  0  0  3  0  0  0  0  0  0
  193.0090  175.7540  144.4330 C   0  0  1  0  0  3  0  0  0  0  0  0
  195.6790  174.3610  141.2760 C   0  0  1  0  0  3  0  0  0  0  0  0
  192.5550  174.7230  143.4740 N   0  0  2  0  0  0  0  0  0  0  0  0
  194.1920  176.4770  146.8880 C   0  0  0  0  0  2  0  0  0  0  0  0
  189.1190  173.8580  141.9020 C   0  0  0  0  0  2  0  0  0  0  0  0
  194.8830  176.6240  145.6680 O   0  0  0  0  0  0  0  0  0  0  0  0
  190.6200  173.8080  142.2200 C   0  0  0  0  0  2  0  0  0  0  0  0
  188.8160  175.0560  144.4250 C   0  0  1  0  0  3  0  0  0  0  0  0
  192.7040  176.7700  146.6900 C   0  0  0  0  0  2  0  0  0  0  0  0
  190.7800  176.0720  145.2940 N   0  0  2  0  0  0  0  0  0  0  0  0
  188.7670  177.2020  143.2820 O   0  0  0  0  0  0  0  0  0  0  0  0
  187.7580  177.9840  142.7150 C   0  0  0  0  0  2  0  0  0  0  0  0
  185.5790  179.2240  145.1380 C   0  0  0  0  0  2  0  0  0  0  0  0
  185.5230  178.6530  142.8460 C   0  0  0  0  0  2  0  0  0  0  0  0
  186.5610  177.9070  143.5380 N   0  0  0  0  0  0  0  0  0  0  0  0
  184.7520  179.4040  143.8960 C   0  0  0  0  0  2  0  0  0  0  0  0
  186.8300  178.6040  144.7290 N   0  0  0  0  0  2  0  0  0  0  0  0
  1 26  1  1  0  0  0
  3  7  1  1  0  0  0
  3 19  1  0  0  0  0
  3 16  1  0  0  0  0
  4 23  1  1  0  0  0
  5 11  1  6  0  0  0
  5 15  1  0  0  0  0
  6 19  1  0  0  0  0
  8 12  1  0  0  0  0
  9 27  1  0  0  0  0
 10 22  1  0  0  0  0
 10 17  1  0  0  0  0
 11 20  1  0  0  0  0
 13 20  1  0  0  0  0
 13  9  1  0  0  0  0
 14  2  1  0  0  0  0
 15 12  1  0  0  0  0
 15  4  1  0  0  0  0
 16  8  1  0  0  0  0
 17 28  1  0  0  0  0
 17 25  1  0  0  0  0
 18  4  1  0  0  0  0
 18  1  1  0  0  0  0
 19  5  1  0  0  0  0
 20 18  1  0  0  0  0
 22 24  1  0  0  0  0
 23 21  1  0  0  0  0
 24 13  1  0  0  0  0
 25  9  1  0  0  0  0
 25 14  1  0  0  0  0
 26 21  1  0  0  0  0
 27  1  1  0  0  0  0
 27  2  1  0  0  0  0
 29 28  1  0  0  0  0
 29 32  1  0  0  0  0
 31 32  1  0  0  0  0
 31 33  1  0  0  0  0
 32 34  1  0  0  0  0
 33 30  1  0  0  0  0
 34 30  1  0  0  0  0
M  END
>  <MODEL>
6

>  <REMARK>
 VINA RESULT:      -7.5      1.907      8.416
  Name = 
  3 active torsions:
  status: ('A' for Active; 'I' for Inactive)
    1  A    between atoms: C_17  and  O_28
    2  A    between atoms: O_28  and  C_29
    3  A    between atoms: C_29  and  N_32
                            x       y       z     vdW  Elec       q    Type
                         _______ _______ _______ _____ _____    ______ ____

>  <TORSDO>
F 3

$$$$
=
 OpenBabel11112418083D

 34 40  0  0  1  0  0  0  0  0999 V2000
  190.9300  174.7070  142.2520 C   0  0  1  0  0  3  0  0  0  0  0  0
  189.6040  176.6820  142.7580 C   0  0  0  0  0  2  0  0  0  0  0  0
  194.0270  169.3360  144.4260 C   0  0  1  0  0  3  0  0  0  0  0  0
  192.2190  172.5800  141.8990 C   0  0  2  0  0  3  0  0  0  0  0  0
  193.8070  171.8610  143.7160 C   0  0  2  0  0  3  0  0  0  0  0  0
  195.1910  171.1300  145.7630 C   0  0  0  0  0  1  0  0  0  0  0  0
  192.6910  169.3420  144.8390 O   0  0  0  0  0  1  0  0  0  0  0  0
  193.2140  169.0570  142.0860 N   0  0  0  0  0  2  0  0  0  0  0  0
  191.2300  175.9910  144.1660 C   0  0  2  0  0  3  0  0  0  0  0  0
  190.9120  176.1770  147.3200 C   0  0  0  0  0  2  0  0  0  0  0  0
  193.0190  172.7460  144.6850 C   0  0  0  0  0  2  0  0  0  0  0  0
  193.5110  170.4160  141.6510 C   0  0  0  0  0  2  0  0  0  0  0  0
  191.9010  174.8450  144.9430 C   0  0  1  0  0  3  0  0  0  0  0  0
  189.5450  177.6500  143.9370 C   0  0  0  0  0  2  0  0  0  0  0  0
  192.8480  171.3870  142.6150 C   0  0  2  0  0  3  0  0  0  0  0  0
  194.2050  168.6340  143.0750 C   0  0  0  0  0  2  0  0  0  0  0  0
  189.9180  176.6870  146.2590 C   0  0  1  0  0  3  0  0  0  0  0  0
  191.5750  173.5010  142.9550 C   0  0  1  0  0  3  0  0  0  0  0  0
  194.6290  170.7420  144.4040 C   0  0  1  0  0  3  0  0  0  0  0  0
  192.5530  173.9400  143.9740 N   0  0  2  0  0  0  0  0  0  0  0  0
  190.7810  173.2370  140.2620 C   0  0  0  0  0  2  0  0  0  0  0  0
  192.3810  176.4090  146.9580 C   0  0  0  0  0  2  0  0  0  0  0  0
  191.2210  172.1260  141.0110 O   0  0  0  0  0  0  0  0  0  0  0  0
  192.9270  175.3760  145.9620 C   0  0  0  0  0  2  0  0  0  0  0  0
  190.5740  177.1280  144.9310 C   0  0  1  0  0  3  0  0  0  0  0  0
  189.9940  174.1960  141.1560 C   0  0  0  0  0  2  0  0  0  0  0  0
  190.2160  175.4670  143.2710 N   0  0  2  0  0  0  0  0  0  0  0  0
  188.9330  175.7170  146.0410 O   0  0  0  0  0  0  0  0  0  0  0  0
  187.9010  176.0410  146.9260 C   0  0  0  0  0  2  0  0  0  0  0  0
  185.1570  177.6210  145.4660 C   0  0  0  0  0  2  0  0  0  0  0  0
  186.3280  177.6630  147.5180 C   0  0  0  0  0  2  0  0  0  0  0  0
  187.1940  177.2150  146.4400 N   0  0  0  0  0  0  0  0  0  0  0  0
  185.0330  178.0950  146.8880 C   0  0  0  0  0  2  0  0  0  0  0  0
  186.3490  176.7910  145.3980 N   0  0  0  0  0  2  0  0  0  0  0  0
  1 26  1  6  0  0  0
  1 18  1  0  0  0  0
  1 27  1  0  0  0  0
  2 27  1  0  0  0  0
  2 14  1  0  0  0  0
  3  7  1  6  0  0  0
  4 23  1  6  0  0  0
  4 15  1  0  0  0  0
  4 18  1  0  0  0  0
  5 19  1  0  0  0  0
  5 11  1  1  0  0  0
  8 16  1  0  0  0  0
  9 25  1  0  0  0  0
  9 13  1  0  0  0  0
 12  8  1  0  0  0  0
 12 15  1  0  0  0  0
 13 24  1  0  0  0  0
 14 25  1  0  0  0  0
 15  5  1  0  0  0  0
 16  3  1  0  0  0  0
 17 10  1  0  0  0  0
 18 20  1  0  0  0  0
 19  3  1  0  0  0  0
 19  6  1  0  0  0  0
 20 11  1  0  0  0  0
 20 13  1  0  0  0  0
 21 23  1  0  0  0  0
 21 26  1  0  0  0  0
 22 10  1  0  0  0  0
 24 22  1  0  0  0  0
 25 17  1  0  0  0  0
 27  9  1  0  0  0  0
 28 17  1  0  0  0  0
 28 29  1  0  0  0  0
 30 33  1  0  0  0  0
 32 29  1  0  0  0  0
 32 31  1  0  0  0  0
 33 31  1  0  0  0  0
 34 30  1  0  0  0  0
 34 32  1  0  0  0  0
M  END
>  <MODEL>
7

>  <REMARK>
 VINA RESULT:      -7.5      2.952      7.848
  Name = 
  3 active torsions:
  status: ('A' for Active; 'I' for Inactive)
    1  A    between atoms: C_17  and  O_28
    2  A    between atoms: O_28  and  C_29
    3  A    between atoms: C_29  and  N_32
                            x       y       z     vdW  Elec       q    Type
                         _______ _______ _______ _____ _____    ______ ____

>  <TORSDO>
F 3

$$$$
=
 OpenBabel11112418083D

 34 40  0  0  1  0  0  0  0  0999 V2000
  190.9880  173.1420  142.2540 C   0  0  1  0  0  3  0  0  0  0  0  0
  188.6040  173.6240  142.2360 C   0  0  0  0  0  2  0  0  0  0  0  0
  196.9480  174.4610  144.6840 C   0  0  1  0  0  3  0  0  0  0  0  0
  193.4530  172.7130  142.4670 C   0  0  2  0  0  3  0  0  0  0  0  0
  194.9400  174.6760  142.9960 C   0  0  2  0  0  3  0  0  0  0  0  0
  196.2890  176.7240  143.7850 C   0  0  0  0  0  1  0  0  0  0  0  0
  196.0450  174.1680  145.7110 O   0  0  0  0  0  1  0  0  0  0  0  0
  196.7490  172.0890  143.9460 N   0  0  0  0  0  2  0  0  0  0  0  0
  190.1160  175.2840  142.4860 C   0  0  2  0  0  3  0  0  0  0  0  0
  189.5990  177.7490  144.4200 C   0  0  0  0  0  2  0  0  0  0  0  0
  193.7050  175.4000  143.5370 C   0  0  0  0  0  2  0  0  0  0  0  0
  195.9440  172.3570  142.7610 C   0  0  0  0  0  2  0  0  0  0  0  0
  191.3770  175.8230  143.1830 C   0  0  1  0  0  3  0  0  0  0  0  0
  187.7730  174.8910  142.4250 C   0  0  0  0  0  2  0  0  0  0  0  0
  194.7270  173.1670  143.1790 C   0  0  2  0  0  3  0  0  0  0  0  0
  197.6650  173.2050  144.1760 C   0  0  0  0  0  2  0  0  0  0  0  0
  188.6200  176.6030  144.1010 C   0  0  1  0  0  3  0  0  0  0  0  0
  192.2820  173.5880  142.9550 C   0  0  1  0  0  3  0  0  0  0  0  0
  196.2850  175.2240  143.5360 C   0  0  1  0  0  3  0  0  0  0  0  0
  192.5380  175.0280  142.7320 N   0  0  2  0  0  0  0  0  0  0  0  0
  192.1030  170.9440  141.9910 C   0  0  0  0  0  2  0  0  0  0  0  0
  190.4080  178.2310  143.2130 C   0  0  0  0  0  2  0  0  0  0  0  0
  193.1880  171.3640  142.7870 O   0  0  0  0  0  0  0  0  0  0  0  0
  191.5970  177.3180  142.8800 C   0  0  0  0  0  2  0  0  0  0  0  0
  188.7890  175.9950  142.6910 C   0  0  1  0  0  3  0  0  0  0  0  0
  190.8170  171.6350  142.4460 C   0  0  0  0  0  2  0  0  0  0  0  0
  189.8930  173.8980  142.8510 N   0  0  2  0  0  0  0  0  0  0  0  0
  188.7160  175.6210  145.0930 O   0  0  0  0  0  0  0  0  0  0  0  0
  188.7110  176.3210  146.3020 C   0  0  0  0  0  2  0  0  0  0  0  0
  191.8750  174.9830  146.8950 C   0  0  0  0  0  2  0  0  0  0  0  0
  190.6330  176.9020  147.4950 C   0  0  0  0  0  2  0  0  0  0  0  0
  189.7470  175.7940  147.1740 N   0  0  0  0  0  0  0  0  0  0  0  0
  192.0350  176.3580  147.4830 C   0  0  0  0  0  2  0  0  0  0  0  0
  190.5050  174.8820  146.4170 N   0  0  0  0  0  2  0  0  0  0  0  0
  1 26  1  1  0  0  0
  1 27  1  0  0  0  0
  1 18  1  0  0  0  0
  2 14  1  0  0  0  0
  2 27  1  0  0  0  0
  3  7  1  1  0  0  0
  4 23  1  1  0  0  0
  4 18  1  0  0  0  0
  4 15  1  0  0  0  0
  5 15  1  0  0  0  0
  5 19  1  0  0  0  0
  5 11  1  1  0  0  0
  8 16  1  0  0  0  0
  9 25  1  0  0  0  0
  9 27  1  0  0  0  0
  9 13  1  0  0  0  0
 12 15  1  0  0  0  0
 12  8  1  0  0  0  0
 14 25  1  0  0  0  0
 16  3  1  0  0  0  0
 17 10  1  0  0  0  0
 17 28  1  0  0  0  0
 19  6  1  0  0  0  0
 19  3  1  0  0  0  0
 20 18  1  0  0  0  0
 20 13  1  0  0  0  0
 20 11  1  0  0  0  0
 21 26  1  0  0  0  0
 21 23  1  0  0  0  0
 22 10  1  0  0  0  0
 24 13  1  0  0  0  0
 24 22  1  0  0  0  0
 25 17  1  0  0  0  0
 28 29  1  0  0  0  0
 29 32  1  0  0  0  0
 30 33  1  0  0  0  0
 32 31  1  0  0  0  0
 33 31  1  0  0  0  0
 34 30  1  0  0  0  0
 34 32  1  0  0  0  0
M  END
>  <MODEL>
8

>  <REMARK>
 VINA RESULT:      -7.3      2.758      7.545
  Name = 
  3 active torsions:
  status: ('A' for Active; 'I' for Inactive)
    1  A    between atoms: C_17  and  O_28
    2  A    between atoms: O_28  and  C_29
    3  A    between atoms: C_29  and  N_32
                            x       y       z     vdW  Elec       q    Type
                         _______ _______ _______ _____ _____    ______ ____

>  <TORSDO>
F 3

$$$$
=
 OpenBabel11112418083D

 34 40  0  0  1  0  0  0  0  0999 V2000
  192.5360  175.9770  146.1360 C   0  0  1  0  0  3  0  0  0  0  0  0
  194.7930  175.0700  146.1010 C   0  0  0  0  0  2  0  0  0  0  0  0
  186.8550  176.9760  142.9900 C   0  0  1  0  0  3  0  0  0  0  0  0
  190.1550  176.7700  146.0310 C   0  0  2  0  0  3  0  0  0  0  0  0
  189.2860  177.5690  143.8060 C   0  0  2  0  0  3  0  0  0  0  0  0
  188.4730  178.1120  141.4230 C   0  0  0  0  0  1  0  0  0  0  0  0
  187.1930  175.6200  142.9880 O   0  0  0  0  0  1  0  0  0  0  0  0
  186.5350  176.8080  145.4560 N   0  0  0  0  0  2  0  0  0  0  0  0
  193.9030  176.0260  144.2570 C   0  0  2  0  0  3  0  0  0  0  0  0
  194.4600  174.8930  141.3430 C   0  0  0  0  0  2  0  0  0  0  0  0
  190.4120  176.7750  143.1390 C   0  0  0  0  0  2  0  0  0  0  0  0
  187.7470  177.5280  145.8240 C   0  0  0  0  0  2  0  0  0  0  0  0
  192.7190  176.1610  143.2840 C   0  0  1  0  0  3  0  0  0  0  0  0
  195.8600  174.9150  145.0200 C   0  0  0  0  0  2  0  0  0  0  0  0
  188.9280  176.8720  145.1270 C   0  0  2  0  0  3  0  0  0  0  0  0
  186.0040  177.3530  144.2080 C   0  0  0  0  0  2  0  0  0  0  0  0
  195.0690  174.3860  142.6640 C   0  0  1  0  0  3  0  0  0  0  0  0
  191.2920  176.0940  145.2390 C   0  0  1  0  0  3  0  0  0  0  0  0
  188.0870  177.8760  142.8750 C   0  0  1  0  0  3  0  0  0  0  0  0
  191.6040  176.8230  143.9910 N   0  0  2  0  0  0  0  0  0  0  0  0
  190.9480  176.0450  148.0370 C   0  0  0  0  0  2  0  0  0  0  0  0
  194.3280  176.4160  141.2630 C   0  0  0  0  0  2  0  0  0  0  0  0
  189.8450  175.9820  147.1600 O   0  0  0  0  0  0  0  0  0  0  0  0
  193.1100  176.9570  142.0230 C   0  0  0  0  0  2  0  0  0  0  0  0
  195.2250  175.4710  143.7520 C   0  0  1  0  0  3  0  0  0  0  0  0
  192.1380  175.2910  147.4430 C   0  0  0  0  0  2  0  0  0  0  0  0
  193.5290  175.2080  145.3940 N   0  0  2  0  0  0  0  0  0  0  0  0
  194.3210  173.3000  143.1340 O   0  0  0  0  0  0  0  0  0  0  0  0
  194.9480  172.1690  142.6040 C   0  0  0  0  0  2  0  0  0  0  0  0
  196.0470  171.0390  145.7140 C   0  0  0  0  0  2  0  0  0  0  0  0
  193.9980  171.3760  144.5850 C   0  0  0  0  0  2  0  0  0  0  0  0
  195.0780  171.1550  143.6380 N   0  0  0  0  0  0  0  0  0  0  0  0
  194.5660  171.1430  145.9570 C   0  0  0  0  0  2  0  0  0  0  0  0
  196.2760  171.4150  144.3280 N   0  0  0  0  0  2  0  0  0  0  0  0
  1 26  1  1  0  0  0
  3  7  1  1  0  0  0
  3 16  1  0  0  0  0
  4 23  1  1  0  0  0
  5 11  1  6  0  0  0
  5 15  1  0  0  0  0
  6 19  1  0  0  0  0
  8 12  1  0  0  0  0
  9 27  1  0  0  0  0
 10 17  1  0  0  0  0
 11 20  1  0  0  0  0
 13 20  1  0  0  0  0
 13  9  1  0  0  0  0
 14  2  1  0  0  0  0
 15 12  1  0  0  0  0
 15  4  1  0  0  0  0
 16  8  1  0  0  0  0
 17 28  1  0  0  0  0
 17 25  1  0  0  0  0
 18  4  1  0  0  0  0
 18  1  1  0  0  0  0
 19  3  1  0  0  0  0
 19  5  1  0  0  0  0
 20 18  1  0  0  0  0
 22 10  1  0  0  0  0
 22 24  1  0  0  0  0
 23 21  1  0  0  0  0
 24 13  1  0  0  0  0
 25  9  1  0  0  0  0
 25 14  1  0  0  0  0
 26 21  1  0  0  0  0
 27  2  1  0  0  0  0
 27  1  1  0  0  0  0
 29 28  1  0  0  0  0
 29 32  1  0  0  0  0
 30 33  1  0  0  0  0
 31 33  1  0  0  0  0
 32 34  1  0  0  0  0
 32 31  1  0  0  0  0
 34 30  1  0  0  0  0
M  END
>  <MODEL>
9

>  <REMARK>
 VINA RESULT:      -7.1      2.452      4.923
  Name = 
  3 active torsions:
  status: ('A' for Active; 'I' for Inactive)
    1  A    between atoms: C_17  and  O_28
    2  A    between atoms: O_28  and  C_29
    3  A    between atoms: C_29  and  N_32
                            x       y       z     vdW  Elec       q    Type
                         _______ _______ _______ _____ _____    ______ ____

>  <TORSDO>
F 3

$$$$
