=
 OpenBabel11112417403D

 28 32  0  0  1  0  0  0  0  0999 V2000
  190.2550  174.6670  142.1790 C   0  0  0  0  0  0  0  0  0  0  0  0
  187.5430  178.8620  142.1820 F   0  0  0  0  0  0  0  0  0  0  0  0
  189.1470  175.0410  147.2340 O   0  0  0  0  0  0  0  0  0  0  0  0
  188.3610  172.5550  142.1080 C   0  0  0  0  0  3  0  0  0  0  0  0
  187.6990  176.5410  146.1490 N   0  0  0  0  0  0  0  0  0  0  0  0
  191.1790  175.6850  142.4180 O   0  0  0  0  0  0  0  0  0  0  0  0
  186.8770  177.5840  140.3140 C   0  0  0  0  0  1  0  0  0  0  0  0
  186.6850  177.8420  141.7960 C   0  0  1  0  0  0  0  0  0  0  0  0
  184.9950  178.5380  143.4980 C   0  0  1  0  0  3  0  0  0  0  0  0
  186.9800  176.5400  142.5800 C   0  0  2  0  0  3  0  0  0  0  0  0
  191.8890  173.7990  144.9700 C   0  0  0  0  0  1  0  0  0  0  0  0
  188.9050  176.7970  144.1100 C   0  0  1  0  0  3  0  0  0  0  0  0
  185.1270  177.2210  144.2470 C   0  0  0  0  0  2  0  0  0  0  0  0
  185.2470  178.3010  142.0170 C   0  0  0  0  0  2  0  0  0  0  0  0
  192.1320  175.2610  144.6330 C   0  0  2  0  0  3  0  0  0  0  0  0
  188.9400  174.9280  142.3070 C   0  0  0  0  0  0  0  0  0  0  0  0
  188.8540  175.7330  146.2220 C   0  0  0  0  0  0  0  0  0  0  0  0
  183.5990  179.0890  143.6910 C   0  0  0  0  0  1  0  0  0  0  0  0
  191.0800  176.2010  145.2440 C   0  0  0  0  0  2  0  0  0  0  0  0
  187.9610  173.8280  142.1390 C   0  0  0  0  0  3  0  0  0  0  0  0
  190.7240  173.2910  141.7730 C   0  0  0  0  0  2  0  0  0  0  0  0
  189.8030  172.2060  142.3380 C   0  0  0  0  0  2  0  0  0  0  0  0
  192.3870  175.4690  143.1350 C   0  0  0  0  0  2  0  0  0  0  0  0
  187.6130  177.1860  144.8530 C   0  0  1  0  0  3  0  0  0  0  0  0
  189.6430  175.7520  144.9740 C   0  0  2  0  0  3  0  0  0  0  0  0
  186.4960  176.5700  144.0320 C   0  0  2  0  0  3  0  0  0  0  0  0
  186.7640  176.7560  147.2410 C   0  0  0  0  0  1  0  0  0  0  0  0
  188.4890  176.3230  142.6970 C   0  0  1  0  0  3  0  0  0  0  0  0
  1 16  2  0  0  0  0
  1  6  1  0  0  0  0
  4 20  2  0  0  0  0
  4 22  1  0  0  0  0
  5 17  1  0  0  0  0
  5 27  1  0  0  0  0
  6 23  1  0  0  0  0
  8  7  1  6  0  0  0
  8 14  1  0  0  0  0
  8  2  1  0  0  0  0
  8 10  1  0  0  0  0
  9 18  1  6  0  0  0
  9 13  1  0  0  0  0
 10 28  1  0  0  0  0
 10 26  1  0  0  0  0
 12 24  1  0  0  0  0
 12 25  1  0  0  0  0
 14  9  1  0  0  0  0
 15 11  1  0  0  0  0
 15 19  1  0  0  0  0
 16 28  1  0  0  0  0
 17  3  2  0  0  0  0
 20 16  1  0  0  0  0
 21  1  1  0  0  0  0
 21 22  1  0  0  0  0
 23 15  1  0  0  0  0
 24  5  1  0  0  0  0
 25 19  1  0  0  0  0
 25 17  1  0  0  0  0
 26 13  1  0  0  0  0
 26 24  1  0  0  0  0
 28 12  1  0  0  0  0
M  END
>  <MODEL>
1

>  <REMARK>
 VINA RESULT:      -8.8      0.000      0.000
  Name = 
  0 active torsions:
  status: ('A' for Active; 'I' for Inactive)
                            x       y       z     vdW  Elec       q    Type
                         _______ _______ _______ _____ _____    ______ ____

>  <TORSDO>
F 0

$$$$
=
 OpenBabel11112417403D

 28 32  0  0  1  0  0  0  0  0999 V2000
  190.6840  174.5300  145.1740 C   0  0  0  0  0  0  0  0  0  0  0  0
  186.0870  176.3750  145.8190 F   0  0  0  0  0  0  0  0  0  0  0  0
  189.0880  174.7640  140.2430 O   0  0  0  0  0  0  0  0  0  0  0  0
  192.3090  176.7740  144.5630 C   0  0  0  0  0  3  0  0  0  0  0  0
  187.5560  176.0540  141.4730 N   0  0  0  0  0  0  0  0  0  0  0  0
  189.8620  173.4050  145.2730 O   0  0  0  0  0  0  0  0  0  0  0  0
  187.5350  177.5460  147.2680 C   0  0  0  0  0  1  0  0  0  0  0  0
  186.9530  177.4580  145.8700 C   0  0  1  0  0  0  0  0  0  0  0  0
  185.5870  178.7070  144.1960 C   0  0  1  0  0  3  0  0  0  0  0  0
  188.1070  177.2950  144.8510 C   0  0  2  0  0  3  0  0  0  0  0  0
  191.3140  172.6800  142.4540 C   0  0  0  0  0  1  0  0  0  0  0  0
  187.9740  175.1460  143.6360 C   0  0  1  0  0  3  0  0  0  0  0  0
  186.7270  178.7120  143.1880 C   0  0  0  0  0  2  0  0  0  0  0  0
  186.1610  178.7330  145.6040 C   0  0  0  0  0  2  0  0  0  0  0  0
  190.0350  172.2220  143.1360 C   0  0  2  0  0  3  0  0  0  0  0  0
  190.1250  175.7360  144.9660 C   0  0  0  0  0  0  0  0  0  0  0  0
  188.5630  175.0730  141.3470 C   0  0  0  0  0  0  0  0  0  0  0  0
  184.7210  179.9290  143.9800 C   0  0  0  0  0  1  0  0  0  0  0  0
  188.7890  172.9740  142.6410 C   0  0  0  0  0  2  0  0  0  0  0  0
  190.9990  176.9180  144.7750 C   0  0  0  0  0  3  0  0  0  0  0  0
  192.1810  174.3930  145.3100 C   0  0  0  0  0  2  0  0  0  0  0  0
  192.9080  175.4040  144.4190 C   0  0  0  0  0  2  0  0  0  0  0  0
  190.1870  172.1640  144.6600 C   0  0  0  0  0  2  0  0  0  0  0  0
  187.1770  176.2140  142.8630 C   0  0  1  0  0  3  0  0  0  0  0  0
  188.9620  174.4940  142.6450 C   0  0  2  0  0  3  0  0  0  0  0  0
  187.6870  177.5390  143.3990 C   0  0  2  0  0  3  0  0  0  0  0  0
  186.9330  176.7540  140.3620 C   0  0  0  0  0  1  0  0  0  0  0  0
  188.6170  175.8540  144.8520 C   0  0  1  0  0  3  0  0  0  0  0  0
  1  6  1  0  0  0  0
  1 21  1  0  0  0  0
  2  8  1  0  0  0  0
  3 17  2  0  0  0  0
  4 20  2  0  0  0  0
  5 24  1  0  0  0  0
  8  7  1  1  0  0  0
  9 18  1  6  0  0  0
  9 14  1  0  0  0  0
 10 28  1  0  0  0  0
 10  8  1  0  0  0  0
 11 15  1  0  0  0  0
 12 28  1  0  0  0  0
 13 26  1  0  0  0  0
 13  9  1  0  0  0  0
 14  8  1  0  0  0  0
 15 23  1  0  0  0  0
 16  1  2  0  0  0  0
 17  5  1  0  0  0  0
 17 25  1  0  0  0  0
 19 25  1  0  0  0  0
 19 15  1  0  0  0  0
 20 16  1  0  0  0  0
 22  4  1  0  0  0  0
 22 21  1  0  0  0  0
 23  6  1  0  0  0  0
 24 26  1  0  0  0  0
 24 12  1  0  0  0  0
 25 12  1  0  0  0  0
 26 10  1  0  0  0  0
 27  5  1  0  0  0  0
 28 16  1  0  0  0  0
M  END
>  <MODEL>
2

>  <REMARK>
 VINA RESULT:      -8.5      1.861      4.168
  Name = 
  0 active torsions:
  status: ('A' for Active; 'I' for Inactive)
                            x       y       z     vdW  Elec       q    Type
                         _______ _______ _______ _____ _____    ______ ____

>  <TORSDO>
F 0

$$$$
=
 OpenBabel11112417403D

 28 32  0  0  1  0  0  0  0  0999 V2000
  190.2870  176.0380  145.1000 C   0  0  0  0  0  0  0  0  0  0  0  0
  185.4880  176.6320  143.8500 F   0  0  0  0  0  0  0  0  0  0  0  0
  190.2510  173.7100  140.4640 O   0  0  0  0  0  0  0  0  0  0  0  0
  191.6600  178.1650  143.8180 C   0  0  0  0  0  3  0  0  0  0  0  0
  188.2400  174.9200  140.5870 N   0  0  0  0  0  0  0  0  0  0  0  0
  189.6550  174.8820  145.5640 O   0  0  0  0  0  0  0  0  0  0  0  0
  186.2300  178.6560  144.8080 C   0  0  0  0  0  1  0  0  0  0  0  0
  186.1220  177.8270  143.5420 C   0  0  1  0  0  0  0  0  0  0  0  0
  185.1570  177.8180  141.2400 C   0  0  1  0  0  3  0  0  0  0  0  0
  187.5420  177.5740  142.9800 C   0  0  2  0  0  3  0  0  0  0  0  0
  191.9890  173.4650  143.7960 C   0  0  0  0  0  1  0  0  0  0  0  0
  188.1130  175.1690  142.9530 C   0  0  1  0  0  3  0  0  0  0  0  0
  186.5340  177.7100  140.6040 C   0  0  0  0  0  2  0  0  0  0  0  0
  185.2640  178.5950  142.5430 C   0  0  0  0  0  2  0  0  0  0  0  0
  190.6480  173.0040  144.3450 C   0  0  2  0  0  3  0  0  0  0  0  0
  189.6410  176.8360  144.2300 C   0  0  0  0  0  0  0  0  0  0  0  0
  189.3750  174.3000  141.1520 C   0  0  0  0  0  0  0  0  0  0  0  0
  184.2220  178.5420  140.2950 C   0  0  0  0  0  1  0  0  0  0  0  0
  189.5130  173.0990  143.3130 C   0  0  0  0  0  2  0  0  0  0  0  0
  190.3420  178.0170  143.6700 C   0  0  0  0  0  3  0  0  0  0  0  0
  191.6740  176.3920  145.5780 C   0  0  0  0  0  2  0  0  0  0  0  0
  192.4750  177.0870  144.4740 C   0  0  0  0  0  2  0  0  0  0  0  0
  190.3360  173.6420  145.7040 C   0  0  0  0  0  2  0  0  0  0  0  0
  187.4360  175.5430  141.6210 C   0  0  1  0  0  3  0  0  0  0  0  0
  189.4430  174.4600  142.6180 C   0  0  2  0  0  3  0  0  0  0  0  0
  187.5520  177.0540  141.5400 C   0  0  2  0  0  3  0  0  0  0  0  0
  187.8860  174.8820  139.1780 C   0  0  0  0  0  1  0  0  0  0  0  0
  188.2400  176.4730  143.7770 C   0  0  1  0  0  3  0  0  0  0  0  0
  1  6  1  0  0  0  0
  1 21  1  0  0  0  0
  3 17  2  0  0  0  0
  4 22  1  0  0  0  0
  5 17  1  0  0  0  0
  5 24  1  0  0  0  0
  6 23  1  0  0  0  0
  8  2  1  0  0  0  0
  8  7  1  1  0  0  0
  9 18  1  6  0  0  0
  9 14  1  0  0  0  0
 10  8  1  0  0  0  0
 10 28  1  0  0  0  0
 11 15  1  0  0  0  0
 12 28  1  0  0  0  0
 13  9  1  0  0  0  0
 13 26  1  0  0  0  0
 14  8  1  0  0  0  0
 15 23  1  0  0  0  0
 16  1  2  0  0  0  0
 17 25  1  0  0  0  0
 19 15  1  0  0  0  0
 20  4  2  0  0  0  0
 20 16  1  0  0  0  0
 22 21  1  0  0  0  0
 24 12  1  0  0  0  0
 25 12  1  0  0  0  0
 25 19  1  0  0  0  0
 26 24  1  0  0  0  0
 26 10  1  0  0  0  0
 27  5  1  0  0  0  0
 28 16  1  0  0  0  0
M  END
>  <MODEL>
3

>  <REMARK>
 VINA RESULT:      -8.4      1.989      4.175
  Name = 
  0 active torsions:
  status: ('A' for Active; 'I' for Inactive)
                            x       y       z     vdW  Elec       q    Type
                         _______ _______ _______ _____ _____    ______ ____

>  <TORSDO>
F 0

$$$$
=
 OpenBabel11112417403D

 28 32  0  0  1  0  0  0  0  0999 V2000
  191.3550  174.4420  142.2380 C   0  0  0  0  0  0  0  0  0  0  0  0
  188.4690  178.5180  142.1510 F   0  0  0  0  0  0  0  0  0  0  0  0
  191.9530  176.0950  147.1190 O   0  0  0  0  0  0  0  0  0  0  0  0
  189.7190  172.3930  143.3250 C   0  0  0  0  0  3  0  0  0  0  0  0
  190.1120  177.2790  146.2640 N   0  0  0  0  0  0  0  0  0  0  0  0
  192.2210  175.4810  141.8950 O   0  0  0  0  0  0  0  0  0  0  0  0
  187.3280  176.8120  140.9870 C   0  0  0  0  0  1  0  0  0  0  0  0
  187.6160  177.4390  142.3380 C   0  0  1  0  0  0  0  0  0  0  0  0
  186.5330  178.5560  144.2900 C   0  0  1  0  0  3  0  0  0  0  0  0
  188.2570  176.3770  143.2630 C   0  0  2  0  0  3  0  0  0  0  0  0
  193.8840  174.3000  144.4290 C   0  0  0  0  0  1  0  0  0  0  0  0
  190.5520  177.0020  143.9390 C   0  0  1  0  0  3  0  0  0  0  0  0
  187.0110  177.4720  145.2440 C   0  0  0  0  0  2  0  0  0  0  0  0
  186.3000  177.9490  142.9160 C   0  0  0  0  0  2  0  0  0  0  0  0
  193.8840  175.6270  143.6880 C   0  0  2  0  0  3  0  0  0  0  0  0
  190.1400  174.7360  142.7380 C   0  0  0  0  0  0  0  0  0  0  0  0
  191.2870  176.5090  146.1320 C   0  0  0  0  0  0  0  0  0  0  0  0
  185.2400  179.1470  144.8080 C   0  0  0  0  0  1  0  0  0  0  0  0
  193.0210  176.6980  144.3740 C   0  0  0  0  0  2  0  0  0  0  0  0
  189.2520  173.6360  143.1830 C   0  0  0  0  0  3  0  0  0  0  0  0
  191.7730  173.0050  142.0410 C   0  0  0  0  0  2  0  0  0  0  0  0
  191.1800  172.1050  143.1290 C   0  0  0  0  0  2  0  0  0  0  0  0
  193.6120  175.4460  142.1890 C   0  0  0  0  0  2  0  0  0  0  0  0
  189.5510  177.5750  144.9600 C   0  0  1  0  0  3  0  0  0  0  0  0
  191.6150  176.2050  144.7250 C   0  0  2  0  0  3  0  0  0  0  0  0
  188.2790  176.7780  144.7400 C   0  0  2  0  0  3  0  0  0  0  0  0
  189.5760  177.7710  147.5220 C   0  0  0  0  0  1  0  0  0  0  0  0
  189.7320  176.1870  142.9100 C   0  0  1  0  0  3  0  0  0  0  0  0
  1 16  2  0  0  0  0
  2  8  1  0  0  0  0
  5 27  1  0  0  0  0
  6 23  1  0  0  0  0
  6  1  1  0  0  0  0
  8  7  1  6  0  0  0
  8 14  1  0  0  0  0
  8 10  1  0  0  0  0
  9 18  1  1  0  0  0
  9 13  1  0  0  0  0
 10 26  1  0  0  0  0
 12 25  1  0  0  0  0
 12 24  1  0  0  0  0
 14  9  1  0  0  0  0
 15 19  1  0  0  0  0
 15 11  1  0  0  0  0
 16 28  1  0  0  0  0
 16 20  1  0  0  0  0
 17  5  1  0  0  0  0
 17  3  2  0  0  0  0
 19 25  1  0  0  0  0
 20  4  2  0  0  0  0
 21  1  1  0  0  0  0
 21 22  1  0  0  0  0
 22  4  1  0  0  0  0
 23 15  1  0  0  0  0
 24  5  1  0  0  0  0
 25 17  1  0  0  0  0
 26 24  1  0  0  0  0
 26 13  1  0  0  0  0
 28 10  1  0  0  0  0
 28 12  1  0  0  0  0
M  END
>  <MODEL>
4

>  <REMARK>
 VINA RESULT:      -8.3      1.555      1.856
  Name = 
  0 active torsions:
  status: ('A' for Active; 'I' for Inactive)
                            x       y       z     vdW  Elec       q    Type
                         _______ _______ _______ _____ _____    ______ ____

>  <TORSDO>
F 0

$$$$
=
 OpenBabel11112417403D

 28 32  0  0  1  0  0  0  0  0999 V2000
  189.6170  176.9190  144.9270 C   0  0  0  0  0  0  0  0  0  0  0  0
  194.5240  176.1980  144.3350 F   0  0  0  0  0  0  0  0  0  0  0  0
  189.5840  172.3490  142.4720 O   0  0  0  0  0  0  0  0  0  0  0  0
  188.9260  175.4630  147.2630 C   0  0  0  0  0  3  0  0  0  0  0  0
  191.7990  172.6760  143.1830 N   0  0  0  0  0  0  0  0  0  0  0  0
  189.9070  177.4660  143.6760 O   0  0  0  0  0  0  0  0  0  0  0  0
  194.1860  177.0390  146.5120 C   0  0  0  0  0  1  0  0  0  0  0  0
  194.2260  175.8050  145.6310 C   0  0  1  0  0  0  0  0  0  0  0  0
  195.3950  173.6240  145.3050 C   0  0  1  0  0  3  0  0  0  0  0  0
  192.8530  175.0930  145.6950 C   0  0  2  0  0  3  0  0  0  0  0  0
  187.5000  175.4730  142.7730 C   0  0  0  0  0  1  0  0  0  0  0  0
  191.7360  175.0380  143.4900 C   0  0  1  0  0  3  0  0  0  0  0  0
  194.1050  172.8420  145.4970 C   0  0  0  0  0  2  0  0  0  0  0  0
  195.3400  174.8960  146.1380 C   0  0  0  0  0  2  0  0  0  0  0  0
  188.6300  176.1730  142.0340 C   0  0  2  0  0  3  0  0  0  0  0  0
  190.5200  176.1140  145.5180 C   0  0  0  0  0  0  0  0  0  0  0  0
  190.4980  173.1210  142.8680 C   0  0  0  0  0  0  0  0  0  0  0  0
  196.5670  172.7780  145.7530 C   0  0  0  0  0  1  0  0  0  0  0  0
  189.8560  175.2710  141.8200 C   0  0  0  0  0  2  0  0  0  0  0  0
  190.1810  175.4640  146.8060 C   0  0  0  0  0  3  0  0  0  0  0  0
  188.3110  177.2360  145.6140 C   0  0  0  0  0  2  0  0  0  0  0  0
  187.8160  176.0410  146.4330 C   0  0  0  0  0  2  0  0  0  0  0  0
  188.9410  177.5490  142.6350 C   0  0  0  0  0  2  0  0  0  0  0  0
  192.6160  173.7840  143.6420 C   0  0  1  0  0  3  0  0  0  0  0  0
  190.3180  174.5690  143.0980 C   0  0  2  0  0  3  0  0  0  0  0  0
  192.8700  173.6690  145.1340 C   0  0  2  0  0  3  0  0  0  0  0  0
  192.2790  171.3160  143.0070 C   0  0  0  0  0  1  0  0  0  0  0  0
  191.8350  175.8240  144.8190 C   0  0  1  0  0  3  0  0  0  0  0  0
  1 16  2  0  0  0  0
  1 21  1  0  0  0  0
  2  8  1  0  0  0  0
  3 17  2  0  0  0  0
  5 24  1  0  0  0  0
  6  1  1  0  0  0  0
  8 10  1  0  0  0  0
  8 14  1  0  0  0  0
  8  7  1  1  0  0  0
  9 13  1  0  0  0  0
  9 18  1  1  0  0  0
  9 14  1  0  0  0  0
 12 24  1  0  0  0  0
 12 28  1  0  0  0  0
 15 23  1  0  0  0  0
 15 11  1  0  0  0  0
 16 20  1  0  0  0  0
 17 25  1  0  0  0  0
 17  5  1  0  0  0  0
 19 15  1  0  0  0  0
 19 25  1  0  0  0  0
 20  4  2  0  0  0  0
 21 22  1  0  0  0  0
 22  4  1  0  0  0  0
 23  6  1  0  0  0  0
 24 26  1  0  0  0  0
 25 12  1  0  0  0  0
 26 13  1  0  0  0  0
 26 10  1  0  0  0  0
 27  5  1  0  0  0  0
 28 16  1  0  0  0  0
 28 10  1  0  0  0  0
M  END
>  <MODEL>
5

>  <REMARK>
 VINA RESULT:      -8.2      2.921      7.051
  Name = 
  0 active torsions:
  status: ('A' for Active; 'I' for Inactive)
                            x       y       z     vdW  Elec       q    Type
                         _______ _______ _______ _____ _____    ______ ____

>  <TORSDO>
F 0

$$$$
=
 OpenBabel11112417403D

 28 32  0  0  1  0  0  0  0  0999 V2000
  186.6250  176.6490  143.9170 C   0  0  0  0  0  0  0  0  0  0  0  0
  189.3780  172.6160  144.9670 F   0  0  0  0  0  0  0  0  0  0  0  0
  189.6010  178.5350  147.7250 O   0  0  0  0  0  0  0  0  0  0  0  0
  188.2170  178.2000  142.1530 C   0  0  0  0  0  3  0  0  0  0  0  0
  190.6120  176.5200  147.0620 N   0  0  0  0  0  0  0  0  0  0  0  0
  185.9250  175.9980  144.9350 O   0  0  0  0  0  0  0  0  0  0  0  0
  189.2020  172.7670  142.6200 C   0  0  0  0  0  1  0  0  0  0  0  0
  189.9610  173.2080  143.8560 C   0  0  1  0  0  0  0  0  0  0  0  0
  192.2110  173.1650  144.9370 C   0  0  1  0  0  3  0  0  0  0  0  0
  189.9100  174.7520  143.9580 C   0  0  2  0  0  3  0  0  0  0  0  0
  186.1320  178.9370  146.3130 C   0  0  0  0  0  1  0  0  0  0  0  0
  188.7360  175.5070  145.9980 C   0  0  1  0  0  3  0  0  0  0  0  0
  192.2970  174.6830  144.9450 C   0  0  0  0  0  2  0  0  0  0  0  0
  191.3980  172.7140  143.7330 C   0  0  0  0  0  2  0  0  0  0  0  0
  185.8670  177.5350  146.8400 C   0  0  2  0  0  3  0  0  0  0  0  0
  187.9010  176.3000  143.6700 C   0  0  0  0  0  0  0  0  0  0  0  0
  189.5260  177.4170  147.1470 C   0  0  0  0  0  0  0  0  0  0  0  0
  193.6060  172.5830  144.8520 C   0  0  0  0  0  1  0  0  0  0  0  0
  187.1280  176.8570  147.4010 C   0  0  0  0  0  2  0  0  0  0  0  0
  188.6740  177.0480  142.6500 C   0  0  0  0  0  3  0  0  0  0  0  0
  185.9540  177.7240  143.0980 C   0  0  0  0  0  2  0  0  0  0  0  0
  186.9540  178.8090  142.6900 C   0  0  0  0  0  2  0  0  0  0  0  0
  185.0720  176.6880  145.8400 C   0  0  0  0  0  2  0  0  0  0  0  0
  190.2350  175.3380  146.3110 C   0  0  1  0  0  3  0  0  0  0  0  0
  188.3230  176.9250  146.4480 C   0  0  2  0  0  3  0  0  0  0  0  0
  190.9140  175.3390  144.9530 C   0  0  2  0  0  3  0  0  0  0  0  0
  191.9040  176.7150  147.6980 C   0  0  0  0  0  1  0  0  0  0  0  0
  188.5510  175.2030  144.4920 C   0  0  1  0  0  3  0  0  0  0  0  0
  1  6  1  0  0  0  0
  4 20  2  0  0  0  0
  4 22  1  0  0  0  0
  5 17  1  0  0  0  0
  5 27  1  0  0  0  0
  6 23  1  0  0  0  0
  8  7  1  6  0  0  0
  8 10  1  0  0  0  0
  8  2  1  0  0  0  0
  9 18  1  6  0  0  0
  9 13  1  0  0  0  0
 10 28  1  0  0  0  0
 10 26  1  0  0  0  0
 11 15  1  0  0  0  0
 12 24  1  0  0  0  0
 12 25  1  0  0  0  0
 13 26  1  0  0  0  0
 14  8  1  0  0  0  0
 14  9  1  0  0  0  0
 15 19  1  0  0  0  0
 16  1  2  0  0  0  0
 16 28  1  0  0  0  0
 17  3  2  0  0  0  0
 20 16  1  0  0  0  0
 21  1  1  0  0  0  0
 22 21  1  0  0  0  0
 23 15  1  0  0  0  0
 24  5  1  0  0  0  0
 25 17  1  0  0  0  0
 25 19  1  0  0  0  0
 26 24  1  0  0  0  0
 28 12  1  0  0  0  0
M  END
>  <MODEL>
6

>  <REMARK>
 VINA RESULT:      -7.8      2.361      5.931
  Name = 
  0 active torsions:
  status: ('A' for Active; 'I' for Inactive)
                            x       y       z     vdW  Elec       q    Type
                         _______ _______ _______ _____ _____    ______ ____

>  <TORSDO>
F 0

$$$$
=
 OpenBabel11112417403D

 28 32  0  0  1  0  0  0  0  0999 V2000
  194.3910  174.0030  145.5610 C   0  0  0  0  0  0  0  0  0  0  0  0
  189.7680  174.8980  147.2250 F   0  0  0  0  0  0  0  0  0  0  0  0
  191.6840  173.2570  141.1990 O   0  0  0  0  0  0  0  0  0  0  0  0
  195.2490  176.4430  144.3950 C   0  0  0  0  0  3  0  0  0  0  0  0
  190.2190  174.3390  142.6830 N   0  0  0  0  0  0  0  0  0  0  0  0
  193.9060  172.7520  145.9470 O   0  0  0  0  0  0  0  0  0  0  0  0
  191.1910  176.5250  148.1680 C   0  0  0  0  0  1  0  0  0  0  0  0
  190.3390  176.1370  146.9750 C   0  0  1  0  0  0  0  0  0  0  0  0
  188.3640  176.8420  145.6200 C   0  0  1  0  0  3  0  0  0  0  0  0
  191.2290  176.0930  145.7100 C   0  0  2  0  0  3  0  0  0  0  0  0
  194.7930  171.9950  142.9110 C   0  0  0  0  0  1  0  0  0  0  0  0
  191.3310  173.8270  144.7270 C   0  0  1  0  0  3  0  0  0  0  0  0
  189.2040  176.9580  144.3570 C   0  0  0  0  0  2  0  0  0  0  0  0
  189.2270  177.1700  146.8290 C   0  0  0  0  0  2  0  0  0  0  0  0
  193.8540  171.3670  143.9280 C   0  0  2  0  0  3  0  0  0  0  0  0
  193.5290  175.0260  145.4170 C   0  0  0  0  0  0  0  0  0  0  0  0
  191.3720  173.5870  142.3740 C   0  0  0  0  0  0  0  0  0  0  0  0
  187.2080  177.8150  145.5460 C   0  0  0  0  0  1  0  0  0  0  0  0
  192.3850  171.7680  143.7150 C   0  0  0  0  0  2  0  0  0  0  0  0
  194.0290  176.3320  144.9240 C   0  0  0  0  0  3  0  0  0  0  0  0
  195.8670  174.2060  145.3190 C   0  0  0  0  0  2  0  0  0  0  0  0
  196.1060  175.2250  144.2010 C   0  0  0  0  0  2  0  0  0  0  0  0
  194.3650  171.5400  145.3630 C   0  0  0  0  0  2  0  0  0  0  0  0
  190.1460  174.5930  144.1090 C   0  0  1  0  0  3  0  0  0  0  0  0
  192.1880  173.2780  143.5660 C   0  0  2  0  0  3  0  0  0  0  0  0
  190.4380  176.0530  144.4000 C   0  0  2  0  0  3  0  0  0  0  0  0
  189.2070  174.7430  141.7210 C   0  0  0  0  0  1  0  0  0  0  0  0
  192.0520  174.8060  145.6840 C   0  0  1  0  0  3  0  0  0  0  0  0
  1  6  1  0  0  0  0
  3 17  2  0  0  0  0
  4 20  2  0  0  0  0
  5 24  1  0  0  0  0
  8  2  1  0  0  0  0
  8  7  1  1  0  0  0
  9 18  1  6  0  0  0
  9 14  1  0  0  0  0
 10  8  1  0  0  0  0
 11 15  1  0  0  0  0
 12 28  1  0  0  0  0
 13 26  1  0  0  0  0
 13  9  1  0  0  0  0
 14  8  1  0  0  0  0
 15 23  1  0  0  0  0
 16  1  2  0  0  0  0
 16 28  1  0  0  0  0
 17  5  1  0  0  0  0
 17 25  1  0  0  0  0
 19 15  1  0  0  0  0
 20 16  1  0  0  0  0
 21  1  1  0  0  0  0
 22  4  1  0  0  0  0
 22 21  1  0  0  0  0
 23  6  1  0  0  0  0
 24 26  1  0  0  0  0
 24 12  1  0  0  0  0
 25 19  1  0  0  0  0
 25 12  1  0  0  0  0
 26 10  1  0  0  0  0
 27  5  1  0  0  0  0
 28 10  1  0  0  0  0
M  END
>  <MODEL>
7

>  <REMARK>
 VINA RESULT:      -7.6      2.885      5.647
  Name = 
  0 active torsions:
  status: ('A' for Active; 'I' for Inactive)
                            x       y       z     vdW  Elec       q    Type
                         _______ _______ _______ _____ _____    ______ ____

>  <TORSDO>
F 0

$$$$
=
 OpenBabel11112417403D

 28 32  0  0  1  0  0  0  0  0999 V2000
  192.0600  173.8760  143.2110 C   0  0  0  0  0  0  0  0  0  0  0  0
  188.5700  174.7630  146.6730 F   0  0  0  0  0  0  0  0  0  0  0  0
  188.0910  175.2750  140.1770 O   0  0  0  0  0  0  0  0  0  0  0  0
  193.1760  176.4150  142.6100 C   0  0  0  0  0  3  0  0  0  0  0  0
  187.4880  175.9190  142.3550 N   0  0  0  0  0  0  0  0  0  0  0  0
  191.3840  172.6630  143.3500 O   0  0  0  0  0  0  0  0  0  0  0  0
  190.6010  175.6690  147.4600 C   0  0  0  0  0  1  0  0  0  0  0  0
  189.3620  175.9000  146.6160 C   0  0  1  0  0  0  0  0  0  0  0  0
  187.3510  177.3620  146.3840 C   0  0  1  0  0  3  0  0  0  0  0  0
  189.7900  176.2080  145.1610 C   0  0  2  0  0  3  0  0  0  0  0  0
  191.0900  172.9970  140.1280 C   0  0  0  0  0  1  0  0  0  0  0  0
  188.9670  174.5020  143.5730 C   0  0  1  0  0  3  0  0  0  0  0  0
  187.7790  177.8220  144.9980 C   0  0  0  0  0  2  0  0  0  0  0  0
  188.5880  177.0680  147.2190 C   0  0  0  0  0  2  0  0  0  0  0  0
  190.3570  172.1800  141.1800 C   0  0  2  0  0  3  0  0  0  0  0  0
  191.5120  174.9960  143.7190 C   0  0  0  0  0  0  0  0  0  0  0  0
  188.2440  175.1750  141.4240 C   0  0  0  0  0  0  0  0  0  0  0  0
  186.5400  178.4540  147.0480 C   0  0  0  0  0  1  0  0  0  0  0  0
  189.0620  172.8500  141.6650 C   0  0  0  0  0  2  0  0  0  0  0  0
  192.1850  176.2980  143.4970 C   0  0  0  0  0  3  0  0  0  0  0  0
  193.3940  173.9290  142.5080 C   0  0  0  0  0  2  0  0  0  0  0  0
  193.5650  175.2480  141.7490 C   0  0  0  0  0  2  0  0  0  0  0  0
  191.2960  171.7110  142.2980 C   0  0  0  0  0  2  0  0  0  0  0  0
  187.9120  175.6170  143.7080 C   0  0  1  0  0  3  0  0  0  0  0  0
  189.2560  174.3140  142.0680 C   0  0  2  0  0  3  0  0  0  0  0  0
  188.6690  176.7930  144.2980 C   0  0  2  0  0  3  0  0  0  0  0  0
  186.3910  176.8090  142.0140 C   0  0  0  0  0  1  0  0  0  0  0  0
  190.1790  174.9180  144.4390 C   0  0  1  0  0  3  0  0  0  0  0  0
  1  6  1  0  0  0  0
  1 16  2  0  0  0  0
  3 17  2  0  0  0  0
  4 20  2  0  0  0  0
  5 24  1  0  0  0  0
  8  2  1  0  0  0  0
  8 14  1  0  0  0  0
  8  7  1  1  0  0  0
  9 18  1  1  0  0  0
  9 14  1  0  0  0  0
 10  8  1  0  0  0  0
 11 15  1  0  0  0  0
 12 24  1  0  0  0  0
 12 28  1  0  0  0  0
 13  9  1  0  0  0  0
 15 19  1  0  0  0  0
 15 23  1  0  0  0  0
 16 28  1  0  0  0  0
 17 25  1  0  0  0  0
 17  5  1  0  0  0  0
 19 25  1  0  0  0  0
 20 16  1  0  0  0  0
 21  1  1  0  0  0  0
 22 21  1  0  0  0  0
 22  4  1  0  0  0  0
 23  6  1  0  0  0  0
 24 26  1  0  0  0  0
 25 12  1  0  0  0  0
 26 13  1  0  0  0  0
 26 10  1  0  0  0  0
 27  5  1  0  0  0  0
 28 10  1  0  0  0  0
M  END
>  <MODEL>
8

>  <REMARK>
 VINA RESULT:      -7.4      2.311      4.635
  Name = 
  0 active torsions:
  status: ('A' for Active; 'I' for Inactive)
                            x       y       z     vdW  Elec       q    Type
                         _______ _______ _______ _____ _____    ______ ____

>  <TORSDO>
F 0

$$$$
=
 OpenBabel11112417403D

 28 32  0  0  1  0  0  0  0  0999 V2000
  188.9420  175.5200  145.1560 C   0  0  0  0  0  0  0  0  0  0  0  0
  191.2670  171.9780  142.5110 F   0  0  0  0  0  0  0  0  0  0  0  0
  193.8430  177.1870  145.4980 O   0  0  0  0  0  0  0  0  0  0  0  0
  188.5330  177.6600  143.3380 C   0  0  0  0  0  3  0  0  0  0  0  0
  193.8340  175.5730  143.7900 N   0  0  0  0  0  0  0  0  0  0  0  0
  189.3160  174.5620  146.1000 O   0  0  0  0  0  0  0  0  0  0  0  0
  189.2840  172.5370  141.3630 C   0  0  0  0  0  1  0  0  0  0  0  0
  190.7450  172.8740  141.5900 C   0  0  1  0  0  0  0  0  0  0  0  0
  192.9500  173.0650  140.4350 C   0  0  1  0  0  3  0  0  0  0  0  0
  190.8560  174.3290  142.1050 C   0  0  2  0  0  3  0  0  0  0  0  0
  190.6600  177.1660  147.5130 C   0  0  0  0  0  1  0  0  0  0  0  0
  191.8240  174.4360  144.3770 C   0  0  1  0  0  3  0  0  0  0  0  0
  193.0660  174.5410  140.7840 C   0  0  0  0  0  2  0  0  0  0  0  0
  191.4830  172.7020  140.2660 C   0  0  0  0  0  2  0  0  0  0  0  0
  190.8710  175.6650  147.6380 C   0  0  2  0  0  3  0  0  0  0  0  0
  189.4890  175.4810  143.9270 C   0  0  0  0  0  0  0  0  0  0  0  0
  193.2910  176.2080  144.9270 C   0  0  0  0  0  0  0  0  0  0  0  0
  193.6900  172.7940  139.1430 C   0  0  0  0  0  1  0  0  0  0  0  0
  192.0450  175.1520  146.7880 C   0  0  0  0  0  2  0  0  0  0  0  0
  189.1590  176.5460  142.9510 C   0  0  0  0  0  3  0  0  0  0  0  0
  187.9260  176.5800  145.5080 C   0  0  0  0  0  2  0  0  0  0  0  0
  188.2360  177.8970  144.7910 C   0  0  0  0  0  2  0  0  0  0  0  0
  189.5620  174.8860  147.4630 C   0  0  0  0  0  2  0  0  0  0  0  0
  192.9610  174.5070  143.3400 C   0  0  1  0  0  3  0  0  0  0  0  0
  191.9940  175.6340  145.3370 C   0  0  2  0  0  3  0  0  0  0  0  0
  192.2750  174.9000  142.0440 C   0  0  2  0  0  3  0  0  0  0  0  0
  195.1210  175.8920  143.1950 C   0  0  0  0  0  1  0  0  0  0  0  0
  190.4940  174.3960  143.5890 C   0  0  1  0  0  3  0  0  0  0  0  0
  1 21  1  0  0  0  0
  1  6  1  0  0  0  0
  4 22  1  0  0  0  0
  5 17  1  0  0  0  0
  6 23  1  0  0  0  0
  8  7  1  6  0  0  0
  8 10  1  0  0  0  0
  8  2  1  0  0  0  0
  9 18  1  6  0  0  0
  9 13  1  0  0  0  0
 10 28  1  0  0  0  0
 11 15  1  0  0  0  0
 12 25  1  0  0  0  0
 13 26  1  0  0  0  0
 14  9  1  0  0  0  0
 14  8  1  0  0  0  0
 16  1  2  0  0  0  0
 17 25  1  0  0  0  0
 17  3  2  0  0  0  0
 19 15  1  0  0  0  0
 20  4  2  0  0  0  0
 20 16  1  0  0  0  0
 22 21  1  0  0  0  0
 23 15  1  0  0  0  0
 24  5  1  0  0  0  0
 24 12  1  0  0  0  0
 25 19  1  0  0  0  0
 26 10  1  0  0  0  0
 26 24  1  0  0  0  0
 27  5  1  0  0  0  0
 28 16  1  0  0  0  0
 28 12  1  0  0  0  0
M  END
>  <MODEL>
9

>  <REMARK>
 VINA RESULT:      -7.4      2.894      6.179
  Name = 
  0 active torsions:
  status: ('A' for Active; 'I' for Inactive)
                            x       y       z     vdW  Elec       q    Type
                         _______ _______ _______ _____ _____    ______ ____

>  <TORSDO>
F 0

$$$$
