=
 OpenBabel11112417313D

 37 42  0  0  1  0  0  0  0  0999 V2000
  187.3010  176.9990  141.5520 C   0  0  0  0  0  0  0  0  0  0  0  0
  189.6700  174.3590  142.9920 C   0  0  1  0  0  3  0  0  0  0  0  0
  190.6980  174.4290  146.1320 O   0  0  0  0  0  0  0  0  0  0  0  0
  187.6650  174.5790  141.4010 N   0  0  2  0  0  0  0  0  0  0  0  0
  190.1110  175.4260  143.9970 C   0  0  2  0  0  3  0  0  0  0  0  0
  188.1660  174.6220  142.7880 C   0  0  2  0  0  3  0  0  0  0  0  0
  191.2330  174.9770  144.9550 C   0  0  2  0  0  3  0  0  0  0  0  0
  188.3310  173.5120  140.6530 C   0  0  0  0  0  2  0  0  0  0  0  0
  187.8110  175.9140  143.5340 C   0  0  2  0  0  3  0  0  0  0  0  0
  185.9490  176.8410  141.8210 F   0  0  0  0  0  0  0  0  0  0  0  0
  191.8920  173.8660  141.8680 C   0  0  0  0  0  2  0  0  0  0  0  0
  189.8440  173.7320  140.5150 C   0  0  0  0  0  2  0  0  0  0  0  0
  188.0530  177.0640  142.7420 O   0  0  0  0  0  0  0  0  0  0  0  0
  190.8200  176.6460  146.9120 O   0  0  0  0  0  0  0  0  0  0  0  0
  191.0500  175.2860  147.2010 C   0  0  0  0  0  2  0  0  0  0  0  0
  190.4940  174.4580  141.6970 C   0  0  1  0  0  3  0  0  0  0  0  0
  188.8170  175.8860  144.6770 C   0  0  2  0  0  3  0  0  0  0  0  0
  187.8170  175.8530  140.6940 C   0  0  0  0  0  2  0  0  0  0  0  0
  192.2960  174.0580  144.3210 C   0  0  1  0  0  3  0  0  0  0  0  0
  187.4740  178.1780  140.8540 F   0  0  0  0  0  0  0  0  0  0  0  0
  189.4340  176.8220  146.9090 C   0  0  0  0  0  2  0  0  0  0  0  0
  188.9480  177.1800  145.5070 C   0  0  2  0  0  3  0  0  0  0  0  0
  192.7170  174.5570  142.9430 C   0  0  0  0  0  2  0  0  0  0  0  0
  194.3870  175.1440  145.2390 C   0  0  0  0  0  2  0  0  0  0  0  0
  193.5430  173.8690  145.1920 C   0  0  2  0  0  3  0  0  0  0  0  0
  194.3870  172.6610  144.7670 C   0  0  0  0  0  2  0  0  0  0  0  0
  196.3650  171.4250  145.2630 O   0  0  0  0  0  1  0  0  0  0  0  0
  196.4270  173.7690  145.7020 C   0  0  0  0  0  2  0  0  0  0  0  0
  195.5850  172.4970  145.6960 C   0  0  1  0  0  3  0  0  0  0  0  0
  195.5840  174.9530  146.1650 C   0  0  0  0  0  2  0  0  0  0  0  0
  187.6030  177.9010  145.6450 C   0  0  0  0  0  2  0  0  0  0  0  0
  186.6550  177.2450  146.6590 C   0  0  1  0  0  3  0  0  0  0  0  0
  186.2190  179.3060  147.7260 O   0  0  0  0  0  0  0  0  0  0  0  0
  186.4180  178.1090  147.8560 C   0  0  0  0  0  3  0  0  0  0  0  0
  185.3250  176.8450  146.0300 C   0  0  0  0  0  2  0  0  0  0  0  0
  184.9410  177.8000  144.9120 C   0  0  0  0  0  2  0  0  0  0  0  0
  183.9680  178.6930  145.3600 O   0  0  0  0  0  1  0  0  0  0  0  0
  1 10  1  0  0  0  0
  1 13  1  0  0  0  0
  2  5  1  0  0  0  0
  3 15  1  0  0  0  0
  4  6  1  0  0  0  0
  5 17  1  0  0  0  0
  5  7  1  0  0  0  0
  6  2  1  0  0  0  0
  6  9  1  0  0  0  0
  7  3  1  0  0  0  0
  8  4  1  0  0  0  0
  9 17  1  0  0  0  0
 11 23  1  0  0  0  0
 12  8  1  0  0  0  0
 12 16  1  0  0  0  0
 13  9  1  0  0  0  0
 14 15  1  0  0  0  0
 16 11  1  0  0  0  0
 16  2  1  0  0  0  0
 17 22  1  0  0  0  0
 18  4  1  0  0  0  0
 18  1  1  0  0  0  0
 19  7  1  0  0  0  0
 19 25  1  0  0  0  0
 20  1  1  0  0  0  0
 21 14  1  0  0  0  0
 22 31  1  0  0  0  0
 22 21  1  0  0  0  0
 23 19  1  0  0  0  0
 24 30  1  0  0  0  0
 25 24  1  0  0  0  0
 26 25  1  0  0  0  0
 26 29  1  0  0  0  0
 27 29  1  0  0  0  0
 28 30  1  0  0  0  0
 29 28  1  0  0  0  0
 31 32  1  0  0  0  0
 32 34  1  0  0  0  0
 33 34  2  0  0  0  0
 35 32  1  0  0  0  0
 36 37  1  0  0  0  0
 36 35  1  0  0  0  0
M  END
>  <MODEL>
1

>  <REMARK>
 VINA RESULT:      -8.0      0.000      0.000
  Name = 
  6 active torsions:
  status: ('A' for Active; 'I' for Inactive)
    1  A    between atoms: C_1  and  C_4
    2  A    between atoms: C_1  and  C_27
    3  A    between atoms: C_4  and  C_12
    4  A    between atoms: C_4  and  C_37
    5  A    between atoms: C_8  and  C_12
    6  A    between atoms: C_23  and  C_30
                            x       y       z     vdW  Elec       q    Type
                         _______ _______ _______ _____ _____    ______ ____

>  <TORSDO>
F 6

$$$$
=
 OpenBabel11112417313D

 37 42  0  0  1  0  0  0  0  0999 V2000
  194.1400  175.7060  145.6990 C   0  0  0  0  0  0  0  0  0  0  0  0
  190.3320  175.5890  145.3170 C   0  0  1  0  0  3  0  0  0  0  0  0
  188.8600  174.2720  142.6680 O   0  0  0  0  0  0  0  0  0  0  0  0
  192.1640  175.3090  147.0960 N   0  0  2  0  0  0  0  0  0  0  0  0
  190.5700  175.5670  143.8050 C   0  0  2  0  0  3  0  0  0  0  0  0
  191.4950  174.7630  145.9000 C   0  0  2  0  0  3  0  0  0  0  0  0
  189.2830  175.5790  142.9550 C   0  0  2  0  0  3  0  0  0  0  0  0
  191.1840  175.9270  147.9890 C   0  0  0  0  0  2  0  0  0  0  0  0
  192.4550  174.4290  144.7510 C   0  0  2  0  0  3  0  0  0  0  0  0
  194.7610  174.5460  146.1400 F   0  0  0  0  0  0  0  0  0  0  0  0
  188.9470  177.7070  145.5170 C   0  0  0  0  0  2  0  0  0  0  0  0
  190.4740  177.1320  147.3550 C   0  0  0  0  0  2  0  0  0  0  0  0
  193.3920  175.4700  144.5290 O   0  0  0  0  0  0  0  0  0  0  0  0
  190.2100  174.5320  140.7580 O   0  0  0  0  0  0  0  0  0  0  0  0
  188.9770  174.0820  141.2710 C   0  0  0  0  0  2  0  0  0  0  0  0
  190.2810  177.0340  145.8390 C   0  0  1  0  0  3  0  0  0  0  0  0
  191.4980  174.3710  143.5680 C   0  0  2  0  0  3  0  0  0  0  0  0
  193.2230  176.2690  146.7750 C   0  0  0  0  0  2  0  0  0  0  0  0
  188.1400  176.4450  143.5240 C   0  0  1  0  0  3  0  0  0  0  0  0
  195.1130  176.6460  145.4200 F   0  0  0  0  0  0  0  0  0  0  0  0
  191.1780  173.6290  141.2040 C   0  0  0  0  0  2  0  0  0  0  0  0
  192.1410  174.3200  142.1670 C   0  0  2  0  0  3  0  0  0  0  0  0
  188.6540  177.7890  144.0260 C   0  0  0  0  0  2  0  0  0  0  0  0
  187.4930  177.3830  141.2660 C   0  0  0  0  0  2  0  0  0  0  0  0
  186.9960  176.6800  142.5310 C   0  0  2  0  0  3  0  0  0  0  0  0
  185.8140  177.4320  143.1550 C   0  0  0  0  0  2  0  0  0  0  0  0
  183.6480  178.3230  142.7070 O   0  0  0  0  0  1  0  0  0  0  0  0
  185.2030  178.3250  140.8990 C   0  0  0  0  0  2  0  0  0  0  0  0
  184.6910  177.5950  142.1360 C   0  0  1  0  0  3  0  0  0  0  0  0
  186.3520  177.5440  140.2670 C   0  0  0  0  0  2  0  0  0  0  0  0
  193.4500  173.5220  142.1750 C   0  0  0  0  0  2  0  0  0  0  0  0
  194.6290  174.2700  141.5370 C   0  0  1  0  0  3  0  0  0  0  0  0
  195.0560  176.5740  141.2490 O   0  0  0  0  0  0  0  0  0  0  0  0
  194.2620  175.6560  141.1160 C   0  0  0  0  0  3  0  0  0  0  0  0
  195.8510  174.3050  142.4480 C   0  0  0  0  0  2  0  0  0  0  0  0
  195.9440  173.0400  143.2850 C   0  0  0  0  0  2  0  0  0  0  0  0
  196.8620  173.2180  144.3200 O   0  0  0  0  0  1  0  0  0  0  0  0
  1 10  1  0  0  0  0
  1 18  1  0  0  0  0
  2 16  1  0  0  0  0
  2  6  1  0  0  0  0
  3  7  1  0  0  0  0
  4  8  1  0  0  0  0
  5  2  1  0  0  0  0
  6  4  1  0  0  0  0
  7 19  1  0  0  0  0
  7  5  1  0  0  0  0
  9  6  1  0  0  0  0
 11 16  1  0  0  0  0
 12  8  1  0  0  0  0
 13  9  1  0  0  0  0
 13  1  1  0  0  0  0
 14 21  1  0  0  0  0
 14 15  1  0  0  0  0
 15  3  1  0  0  0  0
 16 12  1  0  0  0  0
 17  5  1  0  0  0  0
 17  9  1  0  0  0  0
 18  4  1  0  0  0  0
 19 23  1  0  0  0  0
 20  1  1  0  0  0  0
 21 22  1  0  0  0  0
 22 31  1  0  0  0  0
 22 17  1  0  0  0  0
 23 11  1  0  0  0  0
 24 25  1  0  0  0  0
 25 26  1  0  0  0  0
 25 19  1  0  0  0  0
 28 29  1  0  0  0  0
 29 27  1  0  0  0  0
 29 26  1  0  0  0  0
 30 28  1  0  0  0  0
 30 24  1  0  0  0  0
 32 31  1  0  0  0  0
 32 35  1  0  0  0  0
 34 33  2  0  0  0  0
 34 32  1  0  0  0  0
 35 36  1  0  0  0  0
 36 37  1  0  0  0  0
M  END
>  <MODEL>
2

>  <REMARK>
 VINA RESULT:      -7.8      3.259      8.481
  Name = 
  6 active torsions:
  status: ('A' for Active; 'I' for Inactive)
    1  A    between atoms: C_1  and  C_4
    2  A    between atoms: C_1  and  C_27
    3  A    between atoms: C_4  and  C_12
    4  A    between atoms: C_4  and  C_37
    5  A    between atoms: C_8  and  C_12
    6  A    between atoms: C_23  and  C_30
                            x       y       z     vdW  Elec       q    Type
                         _______ _______ _______ _____ _____    ______ ____

>  <TORSDO>
F 6

$$$$
=
 OpenBabel11112417313D

 37 42  0  0  1  0  0  0  0  0999 V2000
  191.0460  176.0750  147.5180 C   0  0  0  0  0  0  0  0  0  0  0  0
  191.5710  175.8520  143.7320 C   0  0  1  0  0  3  0  0  0  0  0  0
  189.0940  176.2310  141.5780 O   0  0  0  0  0  0  0  0  0  0  0  0
  192.7100  176.7560  145.8500 N   0  0  2  0  0  0  0  0  0  0  0  0
  190.1020  175.4350  143.6390 C   0  0  2  0  0  3  0  0  0  0  0  0
  191.6060  176.8800  144.8780 C   0  0  2  0  0  3  0  0  0  0  0  0
  189.6220  175.0960  142.2130 C   0  0  2  0  0  3  0  0  0  0  0  0
  193.9470  176.3760  145.1670 C   0  0  0  0  0  2  0  0  0  0  0  0
  190.2140  176.9110  145.5240 C   0  0  2  0  0  3  0  0  0  0  0  0
  190.9860  177.3470  148.0680 F   0  0  0  0  0  0  0  0  0  0  0  0
  192.6760  173.8140  142.6980 C   0  0  0  0  0  2  0  0  0  0  0  0
  193.8610  174.9980  144.4960 C   0  0  0  0  0  2  0  0  0  0  0  0
  190.0710  175.9080  146.5140 O   0  0  0  0  0  0  0  0  0  0  0  0
  187.0650  175.4910  142.5120 O   0  0  0  0  0  0  0  0  0  0  0  0
  187.7140  176.0020  141.3710 C   0  0  0  0  0  2  0  0  0  0  0  0
  192.4700  174.6280  143.9750 C   0  0  1  0  0  3  0  0  0  0  0  0
  189.3270  176.5580  144.3370 C   0  0  2  0  0  3  0  0  0  0  0  0
  192.4230  175.8070  146.9290 C   0  0  0  0  0  2  0  0  0  0  0  0
  190.6650  174.3750  141.3340 C   0  0  1  0  0  3  0  0  0  0  0  0
  190.8130  175.1520  148.5190 F   0  0  0  0  0  0  0  0  0  0  0  0
  186.9990  176.5400  143.4330 C   0  0  0  0  0  2  0  0  0  0  0  0
  187.8550  176.2260  144.6570 C   0  0  2  0  0  3  0  0  0  0  0  0
  191.3820  173.2740  142.1070 C   0  0  0  0  0  2  0  0  0  0  0  0
  188.9450  172.8080  140.3430 C   0  0  0  0  0  2  0  0  0  0  0  0
  190.0810  173.7880  140.0440 C   0  0  2  0  0  3  0  0  0  0  0  0
  191.1470  173.1460  139.1480 C   0  0  0  0  0  2  0  0  0  0  0  0
  191.4910  171.9980  137.0860 O   0  0  0  0  0  1  0  0  0  0  0  0
  189.4080  171.6240  138.1860 C   0  0  0  0  0  2  0  0  0  0  0  0
  190.5150  172.6220  137.8630 C   0  0  1  0  0  3  0  0  0  0  0  0
  188.3360  172.2900  139.0440 C   0  0  0  0  0  2  0  0  0  0  0  0
  187.3280  177.0640  145.8270 C   0  0  0  0  0  2  0  0  0  0  0  0
  185.9470  177.6820  145.5670 C   0  0  1  0  0  3  0  0  0  0  0  0
  184.0360  177.9140  146.9320 O   0  0  0  0  0  0  0  0  0  0  0  0
  184.9080  177.1720  146.5130 C   0  0  0  0  0  3  0  0  0  0  0  0
  185.9820  179.2060  145.6000 C   0  0  0  0  0  2  0  0  0  0  0  0
  185.5610  179.7900  144.2610 C   0  0  0  0  0  2  0  0  0  0  0  0
  184.4580  179.0970  143.7630 O   0  0  0  0  0  1  0  0  0  0  0  0
  1 10  1  0  0  0  0
  1 20  1  0  0  0  0
  2 16  1  0  0  0  0
  2  6  1  0  0  0  0
  3  7  1  0  0  0  0
  4 18  1  0  0  0  0
  5  2  1  0  0  0  0
  5 17  1  0  0  0  0
  6  9  1  0  0  0  0
  6  4  1  0  0  0  0
  7  5  1  0  0  0  0
  8  4  1  0  0  0  0
  9 13  1  0  0  0  0
 11 16  1  0  0  0  0
 12  8  1  0  0  0  0
 13  1  1  0  0  0  0
 14 21  1  0  0  0  0
 15  3  1  0  0  0  0
 15 14  1  0  0  0  0
 16 12  1  0  0  0  0
 17 22  1  0  0  0  0
 17  9  1  0  0  0  0
 18  1  1  0  0  0  0
 19 23  1  0  0  0  0
 19  7  1  0  0  0  0
 21 22  1  0  0  0  0
 22 31  1  0  0  0  0
 23 11  1  0  0  0  0
 25 24  1  0  0  0  0
 25 19  1  0  0  0  0
 26 25  1  0  0  0  0
 27 29  1  0  0  0  0
 28 30  1  0  0  0  0
 29 28  1  0  0  0  0
 29 26  1  0  0  0  0
 30 24  1  0  0  0  0
 32 35  1  0  0  0  0
 32 31  1  0  0  0  0
 32 34  1  0  0  0  0
 34 33  2  0  0  0  0
 36 35  1  0  0  0  0
 37 36  1  0  0  0  0
M  END
>  <MODEL>
3

>  <REMARK>
 VINA RESULT:      -7.7      2.979      5.668
  Name = 
  6 active torsions:
  status: ('A' for Active; 'I' for Inactive)
    1  A    between atoms: C_1  and  C_4
    2  A    between atoms: C_1  and  C_27
    3  A    between atoms: C_4  and  C_12
    4  A    between atoms: C_4  and  C_37
    5  A    between atoms: C_8  and  C_12
    6  A    between atoms: C_23  and  C_30
                            x       y       z     vdW  Elec       q    Type
                         _______ _______ _______ _____ _____    ______ ____

>  <TORSDO>
F 6

$$$$
=
 OpenBabel11112417313D

 37 42  0  0  1  0  0  0  0  0999 V2000
  194.2790  174.9890  143.4120 C   0  0  0  0  0  0  0  0  0  0  0  0
  190.7910  175.3040  144.9580 C   0  0  1  0  0  3  0  0  0  0  0  0
  188.0340  174.6790  143.2450 O   0  0  0  0  0  0  0  0  0  0  0  0
  193.1630  174.5080  145.5420 N   0  0  2  0  0  0  0  0  0  0  0  0
  190.2780  175.5590  143.5390 C   0  0  2  0  0  3  0  0  0  0  0  0
  191.9220  174.2740  144.7770 C   0  0  2  0  0  3  0  0  0  0  0  0
  188.7680  175.8580  143.4480 C   0  0  2  0  0  3  0  0  0  0  0  0
  192.8480  175.0260  146.8730 C   0  0  0  0  0  2  0  0  0  0  0  0
  192.1500  174.0870  143.2710 C   0  0  2  0  0  3  0  0  0  0  0  0
  194.8170  173.7130  143.3350 F   0  0  0  0  0  0  0  0  0  0  0  0
  190.0660  177.4590  146.0850 C   0  0  0  0  0  2  0  0  0  0  0  0
  192.1500  176.3930  146.8340 C   0  0  0  0  0  2  0  0  0  0  0  0
  193.0380  175.0590  142.7480 O   0  0  0  0  0  0  0  0  0  0  0  0
  188.3440  175.1850  140.9680 O   0  0  0  0  0  0  0  0  0  0  0  0
  187.4420  174.7590  141.9630 C   0  0  0  0  0  2  0  0  0  0  0  0
  191.2500  176.6150  145.6150 C   0  0  1  0  0  3  0  0  0  0  0  0
  190.7540  174.3530  142.7230 C   0  0  2  0  0  3  0  0  0  0  0  0
  194.0960  175.4100  144.8630 C   0  0  0  0  0  2  0  0  0  0  0  0
  188.2030  176.6960  144.6130 C   0  0  1  0  0  3  0  0  0  0  0  0
  195.1540  175.8710  142.8090 F   0  0  0  0  0  0  0  0  0  0  0  0
  189.2300  174.1270  140.7570 C   0  0  0  0  0  2  0  0  0  0  0  0
  190.6390  174.5210  141.1940 C   0  0  2  0  0  3  0  0  0  0  0  0
  189.1230  177.8620  144.9610 C   0  0  0  0  0  2  0  0  0  0  0  0
  186.7900  178.3210  143.2880 C   0  0  0  0  0  2  0  0  0  0  0  0
  186.7890  177.2290  144.3580 C   0  0  2  0  0  3  0  0  0  0  0  0
  186.0950  177.7080  145.6390 C   0  0  0  0  0  2  0  0  0  0  0  0
  184.0840  178.6600  146.4970 O   0  0  0  0  0  1  0  0  0  0  0  0
  184.7080  179.2910  144.2840 C   0  0  0  0  0  2  0  0  0  0  0  0
  184.6790  178.1820  145.3300 C   0  0  1  0  0  3  0  0  0  0  0  0
  185.3650  178.7860  143.0030 C   0  0  0  0  0  2  0  0  0  0  0  0
  191.6310  173.6190  140.4500 C   0  0  0  0  0  2  0  0  0  0  0  0
  191.0790  172.2200  140.1430 C   0  0  1  0  0  3  0  0  0  0  0  0
  189.9870  171.7800  138.0970 O   0  0  0  0  0  0  0  0  0  0  0  0
  191.0510  171.9290  138.6770 C   0  0  0  0  0  3  0  0  0  0  0  0
  191.8420  171.1240  140.8790 C   0  0  0  0  0  2  0  0  0  0  0  0
  190.8980  170.2590  141.6980 C   0  0  0  0  0  2  0  0  0  0  0  0
  190.0070  171.0640  142.4090 O   0  0  0  0  0  1  0  0  0  0  0  0
  1 18  1  0  0  0  0
  2 16  1  0  0  0  0
  3  7  1  0  0  0  0
  4  8  1  0  0  0  0
  5  2  1  0  0  0  0
  6  2  1  0  0  0  0
  6  4  1  0  0  0  0
  7  5  1  0  0  0  0
  7 19  1  0  0  0  0
  9  6  1  0  0  0  0
 10  1  1  0  0  0  0
 12  8  1  0  0  0  0
 13  9  1  0  0  0  0
 13  1  1  0  0  0  0
 14 15  1  0  0  0  0
 15  3  1  0  0  0  0
 16 11  1  0  0  0  0
 16 12  1  0  0  0  0
 17  9  1  0  0  0  0
 17  5  1  0  0  0  0
 18  4  1  0  0  0  0
 19 23  1  0  0  0  0
 20  1  1  0  0  0  0
 21 14  1  0  0  0  0
 21 22  1  0  0  0  0
 22 17  1  0  0  0  0
 23 11  1  0  0  0  0
 24 25  1  0  0  0  0
 25 19  1  0  0  0  0
 25 26  1  0  0  0  0
 28 29  1  0  0  0  0
 29 26  1  0  0  0  0
 29 27  1  0  0  0  0
 30 24  1  0  0  0  0
 30 28  1  0  0  0  0
 31 22  1  0  0  0  0
 32 31  1  0  0  0  0
 32 35  1  0  0  0  0
 33 34  2  0  0  0  0
 34 32  1  0  0  0  0
 35 36  1  0  0  0  0
 36 37  1  0  0  0  0
M  END
>  <MODEL>
4

>  <REMARK>
 VINA RESULT:      -7.4      3.209      8.139
  Name = 
  6 active torsions:
  status: ('A' for Active; 'I' for Inactive)
    1  A    between atoms: C_1  and  C_4
    2  A    between atoms: C_1  and  C_27
    3  A    between atoms: C_4  and  C_12
    4  A    between atoms: C_4  and  C_37
    5  A    between atoms: C_8  and  C_12
    6  A    between atoms: C_23  and  C_30
                            x       y       z     vdW  Elec       q    Type
                         _______ _______ _______ _____ _____    ______ ____

>  <TORSDO>
F 6

$$$$
=
 OpenBabel11112417313D

 37 42  0  0  1  0  0  0  0  0999 V2000
  191.8430  171.3790  141.9310 C   0  0  0  0  0  0  0  0  0  0  0  0
  190.1210  174.7980  141.9770 C   0  0  1  0  0  3  0  0  0  0  0  0
  190.7320  177.0540  144.3130 O   0  0  0  0  0  0  0  0  0  0  0  0
  191.1360  173.1020  140.3360 N   0  0  2  0  0  0  0  0  0  0  0  0
  190.3570  174.8010  143.4890 C   0  0  2  0  0  3  0  0  0  0  0  0
  191.3660  174.1020  141.3970 C   0  0  2  0  0  3  0  0  0  0  0  0
  189.7790  176.0270  144.2250 C   0  0  2  0  0  3  0  0  0  0  0  0
  190.0600  173.5430  139.4470 C   0  0  0  0  0  2  0  0  0  0  0  0
  192.2010  173.5760  142.5720 C   0  0  2  0  0  3  0  0  0  0  0  0
  193.1260  171.3300  141.4040 F   0  0  0  0  0  0  0  0  0  0  0  0
  187.5890  174.9710  141.9240 C   0  0  0  0  0  2  0  0  0  0  0  0
  188.7080  173.6730  140.1620 C   0  0  0  0  0  2  0  0  0  0  0  0
  191.7640  172.2960  142.9970 O   0  0  0  0  0  0  0  0  0  0  0  0
  191.2890  176.0080  146.3470 O   0  0  0  0  0  0  0  0  0  0  0  0
  191.0480  177.2260  145.6810 C   0  0  0  0  0  2  0  0  0  0  0  0
  188.8010  174.0870  141.6340 C   0  0  1  0  0  3  0  0  0  0  0  0
  191.8660  174.5930  143.6550 C   0  0  2  0  0  3  0  0  0  0  0  0
  190.8350  171.7670  140.8590 C   0  0  0  0  0  2  0  0  0  0  0  0
  188.4310  176.5360  143.6740 C   0  0  1  0  0  3  0  0  0  0  0  0
  191.5150  170.1230  142.4030 F   0  0  0  0  0  0  0  0  0  0  0  0
  192.5160  175.5350  145.8750 C   0  0  0  0  0  2  0  0  0  0  0  0
  192.3170  174.2420  145.0870 C   0  0  2  0  0  3  0  0  0  0  0  0
  187.4750  175.3840  143.3840 C   0  0  0  0  0  2  0  0  0  0  0  0
  187.3180  176.9100  145.9130 C   0  0  0  0  0  2  0  0  0  0  0  0
  187.7370  177.5510  144.5890 C   0  0  2  0  0  3  0  0  0  0  0  0
  186.5520  178.2490  143.9100 C   0  0  0  0  0  2  0  0  0  0  0  0
  184.8280  179.8640  144.2350 O   0  0  0  0  0  1  0  0  0  0  0  0
  185.4940  178.6090  146.1500 C   0  0  0  0  0  2  0  0  0  0  0  0
  185.9320  179.2770  144.8510 C   0  0  1  0  0  3  0  0  0  0  0  0
  186.6920  177.9540  146.8330 C   0  0  0  0  0  2  0  0  0  0  0  0
  193.6480  173.4810  145.0900 C   0  0  0  0  0  2  0  0  0  0  0  0
  194.8800  174.3960  145.1210 C   0  0  1  0  0  3  0  0  0  0  0  0
  197.1360  174.0170  145.7030 O   0  0  0  0  0  0  0  0  0  0  0  0
  195.9630  173.8620  146.0020 C   0  0  0  0  0  3  0  0  0  0  0  0
  195.4280  174.6730  143.7260 C   0  0  0  0  0  2  0  0  0  0  0  0
  195.2940  176.1440  143.3700 C   0  0  0  0  0  2  0  0  0  0  0  0
  196.5120  176.7960  143.5650 O   0  0  0  0  0  1  0  0  0  0  0  0
  1 20  1  0  0  0  0
  1 13  1  0  0  0  0
  2  5  1  0  0  0  0
  3 15  1  0  0  0  0
  4 18  1  0  0  0  0
  4  6  1  0  0  0  0
  5 17  1  0  0  0  0
  5  7  1  0  0  0  0
  6  2  1  0  0  0  0
  6  9  1  0  0  0  0
  7  3  1  0  0  0  0
  8 12  1  0  0  0  0
  8  4  1  0  0  0  0
  9 13  1  0  0  0  0
  9 17  1  0  0  0  0
 10  1  1  0  0  0  0
 11 23  1  0  0  0  0
 12 16  1  0  0  0  0
 15 14  1  0  0  0  0
 16 11  1  0  0  0  0
 16  2  1  0  0  0  0
 17 22  1  0  0  0  0
 18  1  1  0  0  0  0
 19  7  1  0  0  0  0
 19 25  1  0  0  0  0
 21 14  1  0  0  0  0
 22 31  1  0  0  0  0
 22 21  1  0  0  0  0
 23 19  1  0  0  0  0
 24 30  1  0  0  0  0
 25 24  1  0  0  0  0
 26 25  1  0  0  0  0
 26 29  1  0  0  0  0
 27 29  1  0  0  0  0
 28 30  1  0  0  0  0
 29 28  1  0  0  0  0
 31 32  1  0  0  0  0
 32 34  1  0  0  0  0
 33 34  2  0  0  0  0
 35 32  1  0  0  0  0
 36 37  1  0  0  0  0
 36 35  1  0  0  0  0
M  END
>  <MODEL>
5

>  <REMARK>
 VINA RESULT:      -7.2      2.788      7.422
  Name = 
  6 active torsions:
  status: ('A' for Active; 'I' for Inactive)
    1  A    between atoms: C_1  and  C_4
    2  A    between atoms: C_1  and  C_27
    3  A    between atoms: C_4  and  C_12
    4  A    between atoms: C_4  and  C_37
    5  A    between atoms: C_8  and  C_12
    6  A    between atoms: C_23  and  C_30
                            x       y       z     vdW  Elec       q    Type
                         _______ _______ _______ _____ _____    ______ ____

>  <TORSDO>
F 6

$$$$
=
 OpenBabel11112417313D

 37 42  0  0  1  0  0  0  0  0999 V2000
  194.4550  174.7840  142.9980 C   0  0  0  0  0  0  0  0  0  0  0  0
  191.0410  175.1930  144.6810 C   0  0  1  0  0  3  0  0  0  0  0  0
  188.2110  174.4530  143.1430 O   0  0  0  0  0  0  0  0  0  0  0  0
  193.4410  174.4420  145.2040 N   0  0  2  0  0  0  0  0  0  0  0  0
  190.4620  175.3550  143.2740 C   0  0  2  0  0  3  0  0  0  0  0  0
  192.1670  174.1560  144.5150 C   0  0  2  0  0  3  0  0  0  0  0  0
  188.9470  175.6440  143.2340 C   0  0  2  0  0  3  0  0  0  0  0  0
  193.1860  175.0450  146.5130 C   0  0  0  0  0  2  0  0  0  0  0  0
  192.3260  173.8720  143.0160 C   0  0  2  0  0  3  0  0  0  0  0  0
  194.9950  173.5070  142.9800 F   0  0  0  0  0  0  0  0  0  0  0  0
  190.3580  177.4160  145.6980 C   0  0  0  0  0  2  0  0  0  0  0  0
  192.4800  176.4050  146.4170 C   0  0  0  0  0  2  0  0  0  0  0  0
  193.1850  174.8090  142.3890 O   0  0  0  0  0  0  0  0  0  0  0  0
  188.4120  174.8100  140.8250 O   0  0  0  0  0  0  0  0  0  0  0  0
  187.5600  174.4480  141.8870 C   0  0  0  0  0  2  0  0  0  0  0  0
  191.5240  176.5460  145.2290 C   0  0  1  0  0  3  0  0  0  0  0  0
  190.9050  174.0980  142.5170 C   0  0  2  0  0  3  0  0  0  0  0  0
  194.3370  175.2990  144.4260 C   0  0  0  0  0  2  0  0  0  0  0  0
  188.4330  176.5560  144.3670 C   0  0  1  0  0  3  0  0  0  0  0  0
  195.2970  175.6270  142.2990 F   0  0  0  0  0  0  0  0  0  0  0  0
  189.2930  173.7420  140.6420 C   0  0  0  0  0  2  0  0  0  0  0  0
  190.7190  174.1660  140.9870 C   0  0  2  0  0  3  0  0  0  0  0  0
  189.3630  177.7430  144.5950 C   0  0  0  0  0  2  0  0  0  0  0  0
  186.9790  178.2180  143.1360 C   0  0  0  0  0  2  0  0  0  0  0  0
  187.0060  177.0680  144.1440 C   0  0  2  0  0  3  0  0  0  0  0  0
  186.3040  177.4580  145.4510 C   0  0  0  0  0  2  0  0  0  0  0  0
  184.2730  178.3120  146.3630 O   0  0  0  0  0  1  0  0  0  0  0  0
  184.8770  179.0810  144.1880 C   0  0  0  0  0  2  0  0  0  0  0  0
  184.8760  177.9140  145.1700 C   0  0  1  0  0  3  0  0  0  0  0  0
  185.5430  178.6640  142.8790 C   0  0  0  0  0  2  0  0  0  0  0  0
  191.6800  173.2190  140.2580 C   0  0  0  0  0  2  0  0  0  0  0  0
  192.4730  173.8970  139.1320 C   0  0  1  0  0  3  0  0  0  0  0  0
  194.3650  172.7700  139.9810 O   0  0  0  0  0  0  0  0  0  0  0  0
  193.8860  173.4120  139.0610 C   0  0  0  0  0  3  0  0  0  0  0  0
  191.7970  173.7420  137.7750 C   0  0  0  0  0  2  0  0  0  0  0  0
  191.1520  172.3720  137.6410 C   0  0  0  0  0  2  0  0  0  0  0  0
  190.1040  172.4250  136.7210 O   0  0  0  0  0  1  0  0  0  0  0  0
  1 18  1  0  0  0  0
  2 16  1  0  0  0  0
  3  7  1  0  0  0  0
  4  8  1  0  0  0  0
  5  2  1  0  0  0  0
  6  2  1  0  0  0  0
  6  4  1  0  0  0  0
  7  5  1  0  0  0  0
  7 19  1  0  0  0  0
  9  6  1  0  0  0  0
 10  1  1  0  0  0  0
 12  8  1  0  0  0  0
 13  1  1  0  0  0  0
 13  9  1  0  0  0  0
 14 15  1  0  0  0  0
 15  3  1  0  0  0  0
 16 11  1  0  0  0  0
 16 12  1  0  0  0  0
 17  9  1  0  0  0  0
 17  5  1  0  0  0  0
 18  4  1  0  0  0  0
 19 23  1  0  0  0  0
 20  1  1  0  0  0  0
 21 14  1  0  0  0  0
 21 22  1  0  0  0  0
 22 17  1  0  0  0  0
 23 11  1  0  0  0  0
 24 25  1  0  0  0  0
 25 19  1  0  0  0  0
 25 26  1  0  0  0  0
 28 29  1  0  0  0  0
 29 26  1  0  0  0  0
 29 27  1  0  0  0  0
 30 24  1  0  0  0  0
 30 28  1  0  0  0  0
 31 22  1  0  0  0  0
 32 31  1  0  0  0  0
 34 32  1  0  0  0  0
 34 33  2  0  0  0  0
 35 32  1  0  0  0  0
 36 35  1  0  0  0  0
 37 36  1  0  0  0  0
M  END
>  <MODEL>
6

>  <REMARK>
 VINA RESULT:      -7.0      3.365      8.287
  Name = 
  6 active torsions:
  status: ('A' for Active; 'I' for Inactive)
    1  A    between atoms: C_1  and  C_4
    2  A    between atoms: C_1  and  C_27
    3  A    between atoms: C_4  and  C_12
    4  A    between atoms: C_4  and  C_37
    5  A    between atoms: C_8  and  C_12
    6  A    between atoms: C_23  and  C_30
                            x       y       z     vdW  Elec       q    Type
                         _______ _______ _______ _____ _____    ______ ____

>  <TORSDO>
F 6

$$$$
=
 OpenBabel11112417313D

 37 42  0  0  1  0  0  0  0  0999 V2000
  190.9710  175.8180  146.9460 C   0  0  0  0  0  0  0  0  0  0  0  0
  192.1060  174.0800  143.7300 C   0  0  1  0  0  3  0  0  0  0  0  0
  190.3190  174.1580  140.9520 O   0  0  0  0  0  0  0  0  0  0  0  0
  193.0470  175.4380  145.6970 N   0  0  2  0  0  0  0  0  0  0  0  0
  190.6250  173.9940  143.3550 C   0  0  2  0  0  3  0  0  0  0  0  0
  192.2380  175.4280  144.4630 C   0  0  2  0  0  3  0  0  0  0  0  0
  190.3420  173.2580  142.0290 C   0  0  2  0  0  3  0  0  0  0  0  0
  194.2130  174.5670  145.5480 C   0  0  0  0  0  2  0  0  0  0  0  0
  190.8280  176.0050  144.6420 C   0  0  2  0  0  3  0  0  0  0  0  0
  191.2030  177.1840  147.0360 F   0  0  0  0  0  0  0  0  0  0  0  0
  192.7050  171.6130  143.7360 C   0  0  0  0  0  2  0  0  0  0  0  0
  193.8360  173.0930  145.3400 C   0  0  0  0  0  2  0  0  0  0  0  0
  190.2000  175.5060  145.8100 O   0  0  0  0  0  0  0  0  0  0  0  0
  188.0220  174.2910  141.4500 O   0  0  0  0  0  0  0  0  0  0  0  0
  189.0000  174.1780  140.4410 C   0  0  0  0  0  2  0  0  0  0  0  0
  192.5220  172.8710  144.5840 C   0  0  1  0  0  3  0  0  0  0  0  0
  190.1160  175.4380  143.4210 C   0  0  2  0  0  3  0  0  0  0  0  0
  192.2850  175.0520  146.8870 C   0  0  0  0  0  2  0  0  0  0  0  0
  191.2590  172.0490  141.7520 C   0  0  1  0  0  3  0  0  0  0  0  0
  190.2820  175.4150  148.0730 F   0  0  0  0  0  0  0  0  0  0  0  0
  188.1090  175.5950  141.9420 C   0  0  0  0  0  2  0  0  0  0  0  0
  188.5810  175.5830  143.3940 C   0  0  2  0  0  3  0  0  0  0  0  0
  191.4440  171.1900  142.9980 C   0  0  0  0  0  2  0  0  0  0  0  0
  190.9960  169.6820  140.9010 C   0  0  0  0  0  2  0  0  0  0  0  0
  190.7770  171.1650  140.5960 C   0  0  2  0  0  3  0  0  0  0  0  0
  191.4030  171.5530  139.2510 C   0  0  0  0  0  2  0  0  0  0  0  0
  191.4700  171.0060  136.9310 O   0  0  0  0  0  1  0  0  0  0  0  0
  191.1100  169.2010  138.4470 C   0  0  0  0  0  2  0  0  0  0  0  0
  190.8520  170.6720  138.1350 C   0  0  1  0  0  3  0  0  0  0  0  0
  190.4470  168.8210  139.7680 C   0  0  0  0  0  2  0  0  0  0  0  0
  188.1260  176.8940  144.0470 C   0  0  0  0  0  2  0  0  0  0  0  0
  186.7810  176.7810  144.7790 C   0  0  1  0  0  3  0  0  0  0  0  0
  187.6670  177.4900  146.8480 O   0  0  0  0  0  0  0  0  0  0  0  0
  186.9460  176.6990  146.2620 C   0  0  0  0  0  3  0  0  0  0  0  0
  185.8310  177.9190  144.4200 C   0  0  0  0  0  2  0  0  0  0  0  0
  186.2350  178.5720  143.1080 C   0  0  0  0  0  2  0  0  0  0  0  0
  185.1290  178.6730  142.2640 O   0  0  0  0  0  1  0  0  0  0  0  0
  1 10  1  0  0  0  0
  1 20  1  0  0  0  0
  2  6  1  0  0  0  0
  2 16  1  0  0  0  0
  3  7  1  0  0  0  0
  4 18  1  0  0  0  0
  5 17  1  0  0  0  0
  5  2  1  0  0  0  0
  6  9  1  0  0  0  0
  6  4  1  0  0  0  0
  7  5  1  0  0  0  0
  8  4  1  0  0  0  0
  9 13  1  0  0  0  0
 11 16  1  0  0  0  0
 12  8  1  0  0  0  0
 13  1  1  0  0  0  0
 14 21  1  0  0  0  0
 15  3  1  0  0  0  0
 15 14  1  0  0  0  0
 16 12  1  0  0  0  0
 17  9  1  0  0  0  0
 18  1  1  0  0  0  0
 19  7  1  0  0  0  0
 19 23  1  0  0  0  0
 21 22  1  0  0  0  0
 22 17  1  0  0  0  0
 22 31  1  0  0  0  0
 23 11  1  0  0  0  0
 25 24  1  0  0  0  0
 25 19  1  0  0  0  0
 26 25  1  0  0  0  0
 27 29  1  0  0  0  0
 28 30  1  0  0  0  0
 29 28  1  0  0  0  0
 29 26  1  0  0  0  0
 30 24  1  0  0  0  0
 31 32  1  0  0  0  0
 32 34  1  0  0  0  0
 34 33  2  0  0  0  0
 35 32  1  0  0  0  0
 36 35  1  0  0  0  0
 37 36  1  0  0  0  0
M  END
>  <MODEL>
7

>  <REMARK>
 VINA RESULT:      -6.9      3.418      5.717
  Name = 
  6 active torsions:
  status: ('A' for Active; 'I' for Inactive)
    1  A    between atoms: C_1  and  C_4
    2  A    between atoms: C_1  and  C_27
    3  A    between atoms: C_4  and  C_12
    4  A    between atoms: C_4  and  C_37
    5  A    between atoms: C_8  and  C_12
    6  A    between atoms: C_23  and  C_30
                            x       y       z     vdW  Elec       q    Type
                         _______ _______ _______ _____ _____    ______ ____

>  <TORSDO>
F 6

$$$$
=
 OpenBabel11112417313D

 37 42  0  0  1  0  0  0  0  0999 V2000
  194.3230  176.5320  145.5650 C   0  0  0  0  0  0  0  0  0  0  0  0
  193.5970  174.5940  142.3440 C   0  0  1  0  0  3  0  0  0  0  0  0
  190.5300  174.1650  141.1920 O   0  0  0  0  0  0  0  0  0  0  0  0
  195.2900  176.2560  143.3280 N   0  0  2  0  0  0  0  0  0  0  0  0
  192.2160  174.2990  142.9340 C   0  0  2  0  0  3  0  0  0  0  0  0
  193.9230  176.0200  142.8250 C   0  0  2  0  0  3  0  0  0  0  0  0
  191.3250  173.3970  142.0570 C   0  0  2  0  0  3  0  0  0  0  0  0
  196.2620  175.5120  142.5260 C   0  0  0  0  0  2  0  0  0  0  0  0
  192.8210  176.4490  143.8030 C   0  0  2  0  0  3  0  0  0  0  0  0
  194.3460  177.9160  145.4710 F   0  0  0  0  0  0  0  0  0  0  0  0
  194.4600  172.2270  142.0370 C   0  0  0  0  0  2  0  0  0  0  0  0
  196.0710  173.9920  142.6140 C   0  0  0  0  0  2  0  0  0  0  0  0
  193.0900  176.0120  145.1240 O   0  0  0  0  0  0  0  0  0  0  0  0
  188.9840  174.0890  142.9650 O   0  0  0  0  0  0  0  0  0  0  0  0
  189.1800  173.9790  141.5740 C   0  0  0  0  0  2  0  0  0  0  0  0
  194.6190  173.5400  142.8020 C   0  0  1  0  0  3  0  0  0  0  0  0
  191.6260  175.6750  143.2640 C   0  0  2  0  0  3  0  0  0  0  0  0
  195.4490  175.9180  144.7450 C   0  0  0  0  0  2  0  0  0  0  0  0
  192.0760  172.2770  141.3090 C   0  0  1  0  0  3  0  0  0  0  0  0
  194.5050  176.1790  146.8880 F   0  0  0  0  0  0  0  0  0  0  0  0
  189.1390  175.4410  143.2810 C   0  0  0  0  0  2  0  0  0  0  0  0
  190.3710  175.6410  144.1610 C   0  0  2  0  0  3  0  0  0  0  0  0
  193.0920  171.5850  142.2120 C   0  0  0  0  0  2  0  0  0  0  0  0
  191.6480  169.8060  140.9810 C   0  0  0  0  0  2  0  0  0  0  0  0
  191.1510  171.2230  140.6900 C   0  0  2  0  0  3  0  0  0  0  0  0
  190.9300  171.4360  139.1870 C   0  0  0  0  0  2  0  0  0  0  0  0
  189.8190  170.5680  137.2640 O   0  0  0  0  0  1  0  0  0  0  0  0
  190.5000  168.9860  138.9130 C   0  0  0  0  0  2  0  0  0  0  0  0
  189.9670  170.3880  138.6390 C   0  0  1  0  0  3  0  0  0  0  0  0
  190.6760  168.7760  140.4140 C   0  0  0  0  0  2  0  0  0  0  0  0
  190.1900  176.9540  144.9300 C   0  0  0  0  0  2  0  0  0  0  0  0
  189.7610  176.7570  146.3910 C   0  0  1  0  0  3  0  0  0  0  0  0
  187.6400  177.5410  145.7130 O   0  0  0  0  0  0  0  0  0  0  0  0
  188.3030  177.0200  146.5950 C   0  0  0  0  0  3  0  0  0  0  0  0
  190.1210  175.3720  146.9160 C   0  0  0  0  0  2  0  0  0  0  0  0
  191.1960  175.4580  147.9870 C   0  0  0  0  0  2  0  0  0  0  0  0
  191.5320  176.7920  148.2210 O   0  0  0  0  0  1  0  0  0  0  0  0
  1 20  1  0  0  0  0
  2 16  1  0  0  0  0
  2  6  1  0  0  0  0
  2  5  1  0  0  0  0
  3 15  1  0  0  0  0
  3  7  1  0  0  0  0
  4 18  1  0  0  0  0
  5 17  1  0  0  0  0
  6  4  1  0  0  0  0
  6  9  1  0  0  0  0
  7  5  1  0  0  0  0
  8 12  1  0  0  0  0
  8  4  1  0  0  0  0
  9 13  1  0  0  0  0
 10  1  1  0  0  0  0
 11 23  1  0  0  0  0
 11 16  1  0  0  0  0
 12 16  1  0  0  0  0
 13  1  1  0  0  0  0
 14 21  1  0  0  0  0
 15 14  1  0  0  0  0
 17  9  1  0  0  0  0
 17 22  1  0  0  0  0
 18  1  1  0  0  0  0
 19  7  1  0  0  0  0
 19 23  1  0  0  0  0
 21 22  1  0  0  0  0
 22 31  1  0  0  0  0
 25 24  1  0  0  0  0
 25 19  1  0  0  0  0
 26 25  1  0  0  0  0
 27 29  1  0  0  0  0
 28 30  1  0  0  0  0
 29 28  1  0  0  0  0
 29 26  1  0  0  0  0
 30 24  1  0  0  0  0
 31 32  1  0  0  0  0
 32 34  1  0  0  0  0
 32 35  1  0  0  0  0
 33 34  2  0  0  0  0
 35 36  1  0  0  0  0
 36 37  1  0  0  0  0
M  END
>  <MODEL>
8

>  <REMARK>
 VINA RESULT:      -6.9      3.719      6.357
  Name = 
  6 active torsions:
  status: ('A' for Active; 'I' for Inactive)
    1  A    between atoms: C_1  and  C_4
    2  A    between atoms: C_1  and  C_27
    3  A    between atoms: C_4  and  C_12
    4  A    between atoms: C_4  and  C_37
    5  A    between atoms: C_8  and  C_12
    6  A    between atoms: C_23  and  C_30
                            x       y       z     vdW  Elec       q    Type
                         _______ _______ _______ _____ _____    ______ ____

>  <TORSDO>
F 6

$$$$
=
 OpenBabel11112417313D

 37 42  0  0  1  0  0  0  0  0999 V2000
  188.5990  176.4100  146.3810 C   0  0  0  0  0  0  0  0  0  0  0  0
  191.2230  174.9070  144.0330 C   0  0  1  0  0  3  0  0  0  0  0  0
  190.5590  174.1660  140.8820 O   0  0  0  0  0  0  0  0  0  0  0  0
  190.9920  176.6510  145.9060 N   0  0  2  0  0  0  0  0  0  0  0  0
  190.0540  174.3010  143.2530 C   0  0  2  0  0  3  0  0  0  0  0  0
  190.6980  176.2750  144.5100 C   0  0  2  0  0  3  0  0  0  0  0  0
  190.4710  173.4130  142.0640 C   0  0  2  0  0  3  0  0  0  0  0  0
  192.3380  176.2120  146.2770 C   0  0  0  0  0  2  0  0  0  0  0  0
  189.2090  176.3580  144.1470 C   0  0  2  0  0  3  0  0  0  0  0  0
  188.3780  177.7770  146.2820 F   0  0  0  0  0  0  0  0  0  0  0  0
  192.4710  172.7920  144.6740 C   0  0  0  0  0  2  0  0  0  0  0  0
  192.5000  174.6860  146.2420 C   0  0  0  0  0  2  0  0  0  0  0  0
  188.3910  175.7700  145.1430 O   0  0  0  0  0  0  0  0  0  0  0  0
  188.2990  173.5600  140.6340 O   0  0  0  0  0  0  0  0  0  0  0  0
  189.5510  173.7040  140.0050 C   0  0  0  0  0  2  0  0  0  0  0  0
  191.6510  173.9780  145.1810 C   0  0  1  0  0  3  0  0  0  0  0  0
  189.1580  175.4920  142.8960 C   0  0  2  0  0  3  0  0  0  0  0  0
  190.0140  176.1260  146.8620 C   0  0  0  0  0  2  0  0  0  0  0  0
  191.7360  172.5630  142.3030 C   0  0  1  0  0  3  0  0  0  0  0  0
  187.7120  175.8890  147.3030 F   0  0  0  0  0  0  0  0  0  0  0  0
  187.8290  174.8530  140.8800 C   0  0  0  0  0  2  0  0  0  0  0  0
  187.7540  175.1120  142.3830 C   0  0  2  0  0  3  0  0  0  0  0  0
  191.7210  171.9150  143.6830 C   0  0  0  0  0  2  0  0  0  0  0  0
  190.8170  170.4650  141.2320 C   0  0  0  0  0  2  0  0  0  0  0  0
  191.9590  171.4820  141.2400 C   0  0  2  0  0  3  0  0  0  0  0  0
  193.3200  170.7870  141.3770 C   0  0  0  0  0  2  0  0  0  0  0  0
  194.7230  169.1020  140.4390 O   0  0  0  0  0  1  0  0  0  0  0  0
  192.3700  168.7370  140.3000 C   0  0  0  0  0  2  0  0  0  0  0  0
  193.5040  169.7570  140.2670 C   0  0  1  0  0  3  0  0  0  0  0  0
  191.0270  169.4400  140.1220 C   0  0  0  0  0  2  0  0  0  0  0  0
  186.7430  176.2410  142.6150 C   0  0  0  0  0  2  0  0  0  0  0  0
  186.9480  177.4500  141.6910 C   0  0  1  0  0  3  0  0  0  0  0  0
  185.2280  178.5540  140.5100 O   0  0  0  0  0  0  0  0  0  0  0  0
  185.8970  177.5400  140.6320 C   0  0  0  0  0  3  0  0  0  0  0  0
  187.0270  178.7610  142.4640 C   0  0  0  0  0  2  0  0  0  0  0  0
  186.3140  178.6480  143.8020 C   0  0  0  0  0  2  0  0  0  0  0  0
  185.1140  179.3580  143.7640 O   0  0  0  0  0  1  0  0  0  0  0  0
  1 18  1  0  0  0  0
  1 20  1  0  0  0  0
  2  6  1  0  0  0  0
  2 16  1  0  0  0  0
  3  7  1  0  0  0  0
  4  8  1  0  0  0  0
  4 18  1  0  0  0  0
  5  2  1  0  0  0  0
  6  4  1  0  0  0  0
  7 19  1  0  0  0  0
  7  5  1  0  0  0  0
  9  6  1  0  0  0  0
  9 13  1  0  0  0  0
 10  1  1  0  0  0  0
 11 16  1  0  0  0  0
 12  8  1  0  0  0  0
 13  1  1  0  0  0  0
 14 21  1  0  0  0  0
 15 14  1  0  0  0  0
 15  3  1  0  0  0  0
 16 12  1  0  0  0  0
 17  5  1  0  0  0  0
 17  9  1  0  0  0  0
 19 23  1  0  0  0  0
 21 22  1  0  0  0  0
 22 31  1  0  0  0  0
 22 17  1  0  0  0  0
 23 11  1  0  0  0  0
 24 25  1  0  0  0  0
 25 26  1  0  0  0  0
 25 19  1  0  0  0  0
 29 28  1  0  0  0  0
 29 27  1  0  0  0  0
 29 26  1  0  0  0  0
 30 28  1  0  0  0  0
 30 24  1  0  0  0  0
 32 35  1  0  0  0  0
 32 31  1  0  0  0  0
 33 34  2  0  0  0  0
 34 32  1  0  0  0  0
 35 36  1  0  0  0  0
 37 36  1  0  0  0  0
M  END
>  <MODEL>
9

>  <REMARK>
 VINA RESULT:      -6.8      2.987      5.315
  Name = 
  6 active torsions:
  status: ('A' for Active; 'I' for Inactive)
    1  A    between atoms: C_1  and  C_4
    2  A    between atoms: C_1  and  C_27
    3  A    between atoms: C_4  and  C_12
    4  A    between atoms: C_4  and  C_37
    5  A    between atoms: C_8  and  C_12
    6  A    between atoms: C_23  and  C_30
                            x       y       z     vdW  Elec       q    Type
                         _______ _______ _______ _____ _____    ______ ____

>  <TORSDO>
F 6

$$$$
