=
 OpenBabel11112416583D

 31 35  0  0  1  0  0  0  0  0999 V2000
  185.3220  177.9600  141.0100 C   0  0  0  0  0  0  0  0  0  0  0  0
  187.3370  177.1290  144.0810 C   0  0  0  0  0  0  0  0  0  0  0  0
  186.5540  177.5080  145.2150 C   0  0  0  0  0  0  0  0  0  0  0  0
  184.5370  178.4390  146.2340 C   0  0  0  0  0  0  0  0  0  0  0  0
  186.9270  177.2810  142.7210 C   0  0  0  0  0  0  0  0  0  0  0  0
  186.1960  177.5430  140.0060 C   0  0  0  0  0  3  0  0  0  0  0  0
  185.2740  178.0800  145.1040 C   0  0  0  0  0  3  0  0  0  0  0  0
  189.4360  176.1650  143.2630 C   0  0  0  0  0  0  0  0  0  0  0  0
  184.0900  178.5050  140.6750 O   0  0  0  0  0  1  0  0  0  0  0  0
  188.3330  176.7460  146.6840 C   0  0  0  0  0  3  0  0  0  0  0  0
  183.2770  179.0010  146.0910 O   0  0  0  0  0  1  0  0  0  0  0  0
  189.0100  176.3280  141.9850 N   0  0  0  0  0  0  0  0  0  0  0  0
  188.6180  176.5600  144.3300 C   0  0  0  0  0  0  0  0  0  0  0  0
  190.7240  175.5970  143.5210 N   0  0  0  0  0  2  0  0  0  0  0  0
  185.6860  177.8280  142.3510 C   0  0  0  0  0  3  0  0  0  0  0  0
  185.0670  178.2320  147.5080 C   0  0  0  0  0  3  0  0  0  0  0  0
  187.8030  176.8630  141.6870 C   0  0  0  0  0  0  0  0  0  0  0  0
  187.4330  176.9970  140.3450 C   0  0  0  0  0  3  0  0  0  0  0  0
  189.0660  176.3900  145.6030 N   0  0  0  0  0  0  0  0  0  0  0  0
  187.0740  177.3080  146.5190 C   0  0  0  0  0  0  0  0  0  0  0  0
  186.3340  177.6670  147.6490 C   0  0  0  0  0  3  0  0  0  0  0  0
  191.5270  173.6240  142.3210 C   0  0  0  0  0  1  0  0  0  0  0  0
  191.6140  175.1360  142.4640 C   0  0  2  0  0  3  0  0  0  0  0  0
  195.6320  176.3380  143.2980 C   0  0  0  0  0  0  0  0  0  0  0  0
  193.4190  175.9150  144.0460 C   0  0  0  0  0  3  0  0  0  0  0  0
  193.6270  175.2580  140.4500 F   0  0  0  0  0  0  0  0  0  0  0  0
  196.9010  176.7210  143.5780 F   0  0  0  0  0  0  0  0  0  0  0  0
  194.7020  176.2930  144.2890 N   0  0  0  0  0  0  0  0  0  0  0  0
  193.9700  175.5970  141.7170 C   0  0  0  0  0  0  0  0  0  0  0  0
  193.0220  175.5570  142.7490 C   0  0  0  0  0  0  0  0  0  0  0  0
  195.2810  175.9890  141.9920 C   0  0  0  0  0  3  0  0  0  0  0  0
  1 15  1  0  0  0  0
  2 13  2  0  0  0  0
  2  3  1  0  0  0  0
  3 20  1  0  0  0  0
  4 16  2  0  0  0  0
  5  2  1  0  0  0  0
  6 18  1  0  0  0  0
  6  1  2  0  0  0  0
  7  3  2  0  0  0  0
  7  4  1  0  0  0  0
  8 14  1  0  0  0  0
  8 13  1  0  0  0  0
  9  1  1  0  0  0  0
 11  4  1  0  0  0  0
 12  8  2  0  0  0  0
 13 19  1  0  0  0  0
 15  5  2  0  0  0  0
 16 21  1  0  0  0  0
 17 12  1  0  0  0  0
 17  5  1  0  0  0  0
 18 17  2  0  0  0  0
 19 10  2  0  0  0  0
 20 10  1  0  0  0  0
 20 21  2  0  0  0  0
 23 22  1  1  0  0  0
 23 30  1  0  0  0  0
 23 14  1  0  0  0  0
 24 27  1  0  0  0  0
 24 28  1  0  0  0  0
 25 28  2  0  0  0  0
 26 29  1  0  0  0  0
 29 31  1  0  0  0  0
 29 30  2  0  0  0  0
 30 25  1  0  0  0  0
 31 24  2  0  0  0  0
M  END
>  <MODEL>
1

>  <REMARK>
 VINA RESULT:      -8.7      0.000      0.000
  Name = 
  2 active torsions:
  status: ('A' for Active; 'I' for Inactive)
    1  A    between atoms: C_5  and  N_16
    2  A    between atoms: C_5  and  C_30
                            x       y       z     vdW  Elec       q    Type
                         _______ _______ _______ _____ _____    ______ ____

>  <TORSDO>
F 2

$$$$
=
 OpenBabel11112416583D

 31 35  0  0  1  0  0  0  0  0999 V2000
  184.9760  178.0170  146.8540 C   0  0  0  0  0  0  0  0  0  0  0  0
  186.7510  177.6180  143.5560 C   0  0  0  0  0  0  0  0  0  0  0  0
  185.7800  177.8190  142.5270 C   0  0  0  0  0  0  0  0  0  0  0  0
  183.5070  178.2990  141.7640 C   0  0  0  0  0  0  0  0  0  0  0  0
  186.4780  177.6840  144.9570 C   0  0  0  0  0  0  0  0  0  0  0  0
  186.0290  177.7980  147.7430 C   0  0  0  0  0  3  0  0  0  0  0  0
  184.4300  178.1090  142.7960 C   0  0  0  0  0  3  0  0  0  0  0  0
  189.0860  177.1230  144.1100 C   0  0  0  0  0  0  0  0  0  0  0  0
  183.7040  178.2920  147.3390 O   0  0  0  0  0  1  0  0  0  0  0  0
  187.4960  177.4400  140.8500 C   0  0  0  0  0  3  0  0  0  0  0  0
  182.1830  178.5840  142.0620 O   0  0  0  0  0  1  0  0  0  0  0  0
  188.7860  177.1930  145.4310 N   0  0  0  0  0  0  0  0  0  0  0  0
  188.0850  177.3290  143.1510 C   0  0  0  0  0  0  0  0  0  0  0  0
  190.4240  176.8310  143.6940 N   0  0  0  0  0  2  0  0  0  0  0  0
  185.2020  177.9610  145.4770 C   0  0  0  0  0  3  0  0  0  0  0  0
  183.9180  178.2020  140.4350 C   0  0  0  0  0  3  0  0  0  0  0  0
  187.5360  177.4630  145.8760 C   0  0  0  0  0  0  0  0  0  0  0  0
  187.3050  177.5210  147.2530 C   0  0  0  0  0  3  0  0  0  0  0  0
  188.4080  177.2520  141.8320 N   0  0  0  0  0  0  0  0  0  0  0  0
  186.1750  177.7240  141.1690 C   0  0  0  0  0  0  0  0  0  0  0  0
  185.2500  177.9160  140.1380 C   0  0  0  0  0  3  0  0  0  0  0  0
  192.6900  177.5410  144.2750 C   0  0  0  0  0  1  0  0  0  0  0  0
  191.5210  176.6360  144.6330 C   0  0  2  0  0  3  0  0  0  0  0  0
  192.7380  172.5360  144.6380 C   0  0  0  0  0  0  0  0  0  0  0  0
  191.5670  174.3290  143.6120 C   0  0  0  0  0  3  0  0  0  0  0  0
  193.1390  175.5200  146.6960 F   0  0  0  0  0  0  0  0  0  0  0  0
  193.1150  171.2360  144.6250 F   0  0  0  0  0  0  0  0  0  0  0  0
  191.9650  173.0290  143.6320 N   0  0  0  0  0  0  0  0  0  0  0  0
  192.7470  174.7080  145.6830 C   0  0  0  0  0  0  0  0  0  0  0  0
  191.9490  175.2010  144.6410 C   0  0  0  0  0  0  0  0  0  0  0  0
  193.1430  173.3700  145.6820 C   0  0  0  0  0  3  0  0  0  0  0  0
  1  9  1  0  0  0  0
  1  6  1  0  0  0  0
  2  5  1  0  0  0  0
  3  7  1  0  0  0  0
  3  2  2  0  0  0  0
  4 11  1  0  0  0  0
  4  7  2  0  0  0  0
  5 15  1  0  0  0  0
  5 17  2  0  0  0  0
  8 12  2  0  0  0  0
 10 20  2  0  0  0  0
 10 19  1  0  0  0  0
 12 17  1  0  0  0  0
 13  2  1  0  0  0  0
 13  8  1  0  0  0  0
 14  8  1  0  0  0  0
 14 23  1  0  0  0  0
 15  1  2  0  0  0  0
 16  4  1  0  0  0  0
 17 18  1  0  0  0  0
 18  6  2  0  0  0  0
 19 13  2  0  0  0  0
 20  3  1  0  0  0  0
 21 16  2  0  0  0  0
 21 20  1  0  0  0  0
 23 22  1  6  0  0  0
 23 30  1  0  0  0  0
 24 31  1  0  0  0  0
 25 28  1  0  0  0  0
 25 30  2  0  0  0  0
 27 24  1  0  0  0  0
 28 24  2  0  0  0  0
 29 26  1  0  0  0  0
 30 29  1  0  0  0  0
 31 29  2  0  0  0  0
M  END
>  <MODEL>
2

>  <REMARK>
 VINA RESULT:      -8.7      2.190      4.721
  Name = 
  2 active torsions:
  status: ('A' for Active; 'I' for Inactive)
    1  A    between atoms: C_5  and  N_16
    2  A    between atoms: C_5  and  C_30
                            x       y       z     vdW  Elec       q    Type
                         _______ _______ _______ _____ _____    ______ ____

>  <TORSDO>
F 2

$$$$
=
 OpenBabel11112416583D

 31 35  0  0  1  0  0  0  0  0999 V2000
  185.2380  177.8850  146.8320 C   0  0  0  0  0  0  0  0  0  0  0  0
  186.7040  177.3090  143.4110 C   0  0  0  0  0  0  0  0  0  0  0  0
  185.6890  177.6290  142.4570 C   0  0  0  0  0  0  0  0  0  0  0  0
  183.4380  178.3750  141.8660 C   0  0  0  0  0  0  0  0  0  0  0  0
  186.5460  177.3950  144.8280 C   0  0  0  0  0  0  0  0  0  0  0  0
  186.3210  177.5380  147.6400 C   0  0  0  0  0  3  0  0  0  0  0  0
  184.4060  178.0710  142.8260 C   0  0  0  0  0  3  0  0  0  0  0  0
  189.0010  176.5430  143.7890 C   0  0  0  0  0  0  0  0  0  0  0  0
  184.0460  178.3020  147.4100 O   0  0  0  0  0  1  0  0  0  0  0  0
  187.2200  177.0670  140.6570 C   0  0  0  0  0  3  0  0  0  0  0  0
  182.1810  178.8100  142.2620 O   0  0  0  0  0  1  0  0  0  0  0  0
  188.8100  176.6360  145.1290 N   0  0  0  0  0  0  0  0  0  0  0  0
  187.9620  176.8710  142.9080 C   0  0  0  0  0  0  0  0  0  0  0  0
  190.2620  176.1010  143.2750 N   0  0  0  0  0  2  0  0  0  0  0  0
  185.3530  177.8140  145.4430 C   0  0  0  0  0  3  0  0  0  0  0  0
  183.7350  178.2420  140.5090 C   0  0  0  0  0  3  0  0  0  0  0  0
  187.6370  177.0460  145.6660 C   0  0  0  0  0  0  0  0  0  0  0  0
  187.5160  177.1190  147.0570 C   0  0  0  0  0  3  0  0  0  0  0  0
  188.1750  176.7670  141.5690 N   0  0  0  0  0  0  0  0  0  0  0  0
  185.9690  177.5000  141.0740 C   0  0  0  0  0  0  0  0  0  0  0  0
  184.9990  177.8050  140.1140 C   0  0  0  0  0  3  0  0  0  0  0  0
  192.5640  176.6990  143.8360 C   0  0  0  0  0  1  0  0  0  0  0  0
  191.3950  175.7720  144.1290 C   0  0  2  0  0  3  0  0  0  0  0  0
  192.5570  171.6950  143.5680 C   0  0  0  0  0  0  0  0  0  0  0  0
  192.9420  174.0080  143.2000 C   0  0  0  0  0  3  0  0  0  0  0  0
  189.9120  173.5930  145.2120 F   0  0  0  0  0  0  0  0  0  0  0  0
  192.9370  170.4080  143.3820 F   0  0  0  0  0  0  0  0  0  0  0  0
  193.2940  172.7050  143.0350 N   0  0  0  0  0  0  0  0  0  0  0  0
  191.0270  173.3120  144.4930 C   0  0  0  0  0  0  0  0  0  0  0  0
  191.7960  174.3420  143.9350 C   0  0  0  0  0  0  0  0  0  0  0  0
  191.4080  171.9820  144.3090 C   0  0  0  0  0  3  0  0  0  0  0  0
  1  9  1  0  0  0  0
  1  6  1  0  0  0  0
  2  5  1  0  0  0  0
  3  7  1  0  0  0  0
  3  2  2  0  0  0  0
  4 11  1  0  0  0  0
  4  7  2  0  0  0  0
  5 15  1  0  0  0  0
  5 17  2  0  0  0  0
  8 12  2  0  0  0  0
 10 20  2  0  0  0  0
 10 19  1  0  0  0  0
 12 17  1  0  0  0  0
 13  2  1  0  0  0  0
 13  8  1  0  0  0  0
 14  8  1  0  0  0  0
 14 23  1  0  0  0  0
 15  1  2  0  0  0  0
 16  4  1  0  0  0  0
 17 18  1  0  0  0  0
 18  6  2  0  0  0  0
 19 13  2  0  0  0  0
 20  3  1  0  0  0  0
 21 16  2  0  0  0  0
 21 20  1  0  0  0  0
 23 22  1  6  0  0  0
 24 31  1  0  0  0  0
 25 30  2  0  0  0  0
 27 24  1  0  0  0  0
 28 25  1  0  0  0  0
 28 24  2  0  0  0  0
 29 26  1  0  0  0  0
 30 23  1  0  0  0  0
 30 29  1  0  0  0  0
 31 29  2  0  0  0  0
M  END
>  <MODEL>
3

>  <REMARK>
 VINA RESULT:      -8.6      2.282      4.747
  Name = 
  2 active torsions:
  status: ('A' for Active; 'I' for Inactive)
    1  A    between atoms: C_5  and  N_16
    2  A    between atoms: C_5  and  C_30
                            x       y       z     vdW  Elec       q    Type
                         _______ _______ _______ _____ _____    ______ ____

>  <TORSDO>
F 2

$$$$
=
 OpenBabel11112416583D

 31 35  0  0  1  0  0  0  0  0999 V2000
  186.1680  177.2840  141.0180 C   0  0  0  0  0  0  0  0  0  0  0  0
  187.4470  176.5990  144.4930 C   0  0  0  0  0  0  0  0  0  0  0  0
  186.5130  177.1760  145.4080 C   0  0  0  0  0  0  0  0  0  0  0  0
  184.4630  178.4080  145.9140 C   0  0  0  0  0  0  0  0  0  0  0  0
  187.3250  176.6420  143.0700 C   0  0  0  0  0  0  0  0  0  0  0  0
  187.1620  176.6760  140.2510 C   0  0  0  0  0  3  0  0  0  0  0  0
  185.3550  177.8560  144.9910 C   0  0  0  0  0  3  0  0  0  0  0  0
  189.5340  175.3490  144.2020 C   0  0  0  0  0  0  0  0  0  0  0  0
  185.0960  177.9090  140.3940 O   0  0  0  0  0  1  0  0  0  0  0  0
  187.8760  176.4070  147.2660 C   0  0  0  0  0  3  0  0  0  0  0  0
  183.3290  179.0730  145.4700 O   0  0  0  0  0  1  0  0  0  0  0  0
  189.3830  175.4130  142.8560 N   0  0  0  0  0  0  0  0  0  0  0  0
  188.5810  175.9380  145.0440 C   0  0  0  0  0  0  0  0  0  0  0  0
  190.6730  174.6880  144.7640 N   0  0  0  0  0  2  0  0  0  0  0  0
  186.2510  177.2650  142.4110 C   0  0  0  0  0  3  0  0  0  0  0  0
  184.7120  178.2900  147.2810 C   0  0  0  0  0  3  0  0  0  0  0  0
  188.3270  176.0280  142.2750 C   0  0  0  0  0  0  0  0  0  0  0  0
  188.2380  176.0510  140.8790 C   0  0  0  0  0  3  0  0  0  0  0  0
  188.7540  175.8650  146.3910 N   0  0  0  0  0  0  0  0  0  0  0  0
  186.7470  177.0690  146.8020 C   0  0  0  0  0  0  0  0  0  0  0  0
  185.8530  177.6210  147.7240 C   0  0  0  0  0  3  0  0  0  0  0  0
  191.9450  172.6220  144.4700 C   0  0  0  0  0  1  0  0  0  0  0  0
  191.6870  174.0280  143.9530 C   0  0  2  0  0  3  0  0  0  0  0  0
  195.2970  176.3210  143.9260 C   0  0  0  0  0  0  0  0  0  0  0  0
  193.4960  175.3150  142.7520 C   0  0  0  0  0  3  0  0  0  0  0  0
  193.1200  174.6600  146.3340 F   0  0  0  0  0  0  0  0  0  0  0  0
  196.4390  177.0480  143.9020 F   0  0  0  0  0  0  0  0  0  0  0  0
  194.6440  176.0430  142.7660 N   0  0  0  0  0  0  0  0  0  0  0  0
  193.6130  175.1100  145.1540 C   0  0  0  0  0  0  0  0  0  0  0  0
  192.9520  174.8290  143.9500 C   0  0  0  0  0  0  0  0  0  0  0  0
  194.7910  175.8580  145.1430 C   0  0  0  0  0  3  0  0  0  0  0  0
  1 15  1  0  0  0  0
  2 13  2  0  0  0  0
  2  3  1  0  0  0  0
  3 20  1  0  0  0  0
  4 16  2  0  0  0  0
  5  2  1  0  0  0  0
  6 18  1  0  0  0  0
  6  1  2  0  0  0  0
  7  3  2  0  0  0  0
  7  4  1  0  0  0  0
  8 14  1  0  0  0  0
  8 13  1  0  0  0  0
  9  1  1  0  0  0  0
 11  4  1  0  0  0  0
 12  8  2  0  0  0  0
 13 19  1  0  0  0  0
 15  5  2  0  0  0  0
 16 21  1  0  0  0  0
 17 12  1  0  0  0  0
 17  5  1  0  0  0  0
 18 17  2  0  0  0  0
 19 10  2  0  0  0  0
 20 10  1  0  0  0  0
 20 21  2  0  0  0  0
 23 22  1  1  0  0  0
 23 14  1  0  0  0  0
 24 31  1  0  0  0  0
 25 28  1  0  0  0  0
 25 30  2  0  0  0  0
 27 24  1  0  0  0  0
 28 24  2  0  0  0  0
 29 26  1  0  0  0  0
 30 23  1  0  0  0  0
 30 29  1  0  0  0  0
 31 29  2  0  0  0  0
M  END
>  <MODEL>
4

>  <REMARK>
 VINA RESULT:      -8.5      1.410      1.733
  Name = 
  2 active torsions:
  status: ('A' for Active; 'I' for Inactive)
    1  A    between atoms: C_5  and  N_16
    2  A    between atoms: C_5  and  C_30
                            x       y       z     vdW  Elec       q    Type
                         _______ _______ _______ _____ _____    ______ ____

>  <TORSDO>
F 2

$$$$
=
 OpenBabel11112416583D

 31 35  0  0  1  0  0  0  0  0999 V2000
  184.6510  178.1480  146.5070 C   0  0  0  0  0  0  0  0  0  0  0  0
  187.2160  177.1130  143.9520 C   0  0  0  0  0  0  0  0  0  0  0  0
  186.6440  177.3420  142.6620 C   0  0  0  0  0  0  0  0  0  0  0  0
  184.8220  178.0730  141.2060 C   0  0  0  0  0  0  0  0  0  0  0  0
  186.5600  177.3780  145.1920 C   0  0  0  0  0  0  0  0  0  0  0  0
  185.3380  177.8720  147.6900 C   0  0  0  0  0  3  0  0  0  0  0  0
  185.3500  177.8630  142.4820 C   0  0  0  0  0  3  0  0  0  0  0  0
  189.1570  176.3350  145.2300 C   0  0  0  0  0  0  0  0  0  0  0  0
  183.3640  178.6660  146.5570 O   0  0  0  0  0  1  0  0  0  0  0  0
  188.6810  176.5200  141.6250 C   0  0  0  0  0  3  0  0  0  0  0  0
  183.5420  178.5880  141.0610 O   0  0  0  0  0  1  0  0  0  0  0  0
  188.4980  176.5980  146.3860 N   0  0  0  0  0  0  0  0  0  0  0  0
  188.5360  176.5810  143.9980 C   0  0  0  0  0  0  0  0  0  0  0  0
  190.4830  175.7970  145.2670 N   0  0  0  0  0  2  0  0  0  0  0  0
  185.2580  177.9030  145.2740 C   0  0  0  0  0  3  0  0  0  0  0  0
  185.5820  177.7660  140.0770 C   0  0  0  0  0  3  0  0  0  0  0  0
  187.2430  177.1040  146.4050 C   0  0  0  0  0  0  0  0  0  0  0  0
  186.6300  177.3510  147.6370 C   0  0  0  0  0  3  0  0  0  0  0  0
  189.2140  176.3070  142.8510 N   0  0  0  0  0  0  0  0  0  0  0  0
  187.3980  177.0360  141.5010 C   0  0  0  0  0  0  0  0  0  0  0  0
  186.8680  177.2480  140.2250 C   0  0  0  0  0  3  0  0  0  0  0  0
  191.0570  176.7280  147.4530 C   0  0  0  0  0  1  0  0  0  0  0  0
  191.2010  175.5440  146.5090 C   0  0  2  0  0  3  0  0  0  0  0  0
  195.3320  174.7710  145.7160 C   0  0  0  0  0  0  0  0  0  0  0  0
  193.6310  176.2240  146.5130 C   0  0  0  0  0  3  0  0  0  0  0  0
  192.1130  173.0880  145.3880 F   0  0  0  0  0  0  0  0  0  0  0  0
  196.6430  174.5410  145.4710 F   0  0  0  0  0  0  0  0  0  0  0  0
  194.9390  175.9570  146.2530 N   0  0  0  0  0  0  0  0  0  0  0  0
  193.0350  174.0400  145.6760 C   0  0  0  0  0  0  0  0  0  0  0  0
  192.6450  175.2680  146.2280 C   0  0  0  0  0  0  0  0  0  0  0  0
  194.3830  173.7900  145.4190 C   0  0  0  0  0  3  0  0  0  0  0  0
  1  9  1  0  0  0  0
  1  6  1  0  0  0  0
  2 13  1  0  0  0  0
  2  5  1  0  0  0  0
  3  2  2  0  0  0  0
  4  7  2  0  0  0  0
  5 15  1  0  0  0  0
  5 17  2  0  0  0  0
  7  3  1  0  0  0  0
  8 14  1  0  0  0  0
  8 12  2  0  0  0  0
 10 19  1  0  0  0  0
 11  4  1  0  0  0  0
 12 17  1  0  0  0  0
 13  8  1  0  0  0  0
 14 23  1  0  0  0  0
 15  1  2  0  0  0  0
 16 21  2  0  0  0  0
 16  4  1  0  0  0  0
 17 18  1  0  0  0  0
 18  6  2  0  0  0  0
 19 13  2  0  0  0  0
 20 10  2  0  0  0  0
 20  3  1  0  0  0  0
 21 20  1  0  0  0  0
 23 22  1  1  0  0  0
 24 28  1  0  0  0  0
 26 29  1  0  0  0  0
 27 24  1  0  0  0  0
 28 25  2  0  0  0  0
 29 30  2  0  0  0  0
 30 23  1  0  0  0  0
 30 25  1  0  0  0  0
 31 29  1  0  0  0  0
 31 24  2  0  0  0  0
M  END
>  <MODEL>
5

>  <REMARK>
 VINA RESULT:      -8.4      2.105      4.539
  Name = 
  2 active torsions:
  status: ('A' for Active; 'I' for Inactive)
    1  A    between atoms: C_5  and  N_16
    2  A    between atoms: C_5  and  C_30
                            x       y       z     vdW  Elec       q    Type
                         _______ _______ _______ _____ _____    ______ ____

>  <TORSDO>
F 2

$$$$
=
 OpenBabel11112416583D

 31 35  0  0  1  0  0  0  0  0999 V2000
  191.2900  171.0140  142.7660 C   0  0  0  0  0  0  0  0  0  0  0  0
  191.9660  174.3500  144.3780 C   0  0  0  0  0  0  0  0  0  0  0  0
  193.3010  174.3110  144.8860 C   0  0  0  0  0  0  0  0  0  0  0  0
  195.4350  173.1820  145.2680 C   0  0  0  0  0  0  0  0  0  0  0  0
  191.3240  173.2740  143.6920 C   0  0  0  0  0  0  0  0  0  0  0  0
  189.9790  171.1990  142.3270 C   0  0  0  0  0  3  0  0  0  0  0  0
  194.1350  173.1850  144.7590 C   0  0  0  0  0  3  0  0  0  0  0  0
  189.9110  175.6560  144.0970 C   0  0  0  0  0  0  0  0  0  0  0  0
  191.9370  169.8080  142.5320 O   0  0  0  0  0  1  0  0  0  0  0  0
  193.0440  176.5840  145.7040 C   0  0  0  0  0  3  0  0  0  0  0  0
  196.2330  172.0560  145.1260 O   0  0  0  0  0  1  0  0  0  0  0  0
  189.3370  174.6100  143.4520 N   0  0  0  0  0  0  0  0  0  0  0  0
  191.2250  175.5500  144.5730 C   0  0  0  0  0  0  0  0  0  0  0  0
  189.1730  176.8650  144.3000 N   0  0  0  0  0  2  0  0  0  0  0  0
  191.9520  172.0420  143.4400 C   0  0  0  0  0  3  0  0  0  0  0  0
  195.9320  174.3110  145.9200 C   0  0  0  0  0  3  0  0  0  0  0  0
  189.9910  173.4440  143.2380 C   0  0  0  0  0  0  0  0  0  0  0  0
  189.3320  172.4110  142.5630 C   0  0  0  0  0  3  0  0  0  0  0  0
  191.7810  176.6100  145.2190 N   0  0  0  0  0  0  0  0  0  0  0  0
  193.8260  175.4460  145.5530 C   0  0  0  0  0  0  0  0  0  0  0  0
  195.1280  175.4410  146.0610 C   0  0  0  0  0  3  0  0  0  0  0  0
  187.8020  178.0750  142.6780 C   0  0  0  0  0  1  0  0  0  0  0  0
  187.8150  177.0570  143.8070 C   0  0  2  0  0  3  0  0  0  0  0  0
  185.2340  178.3170  146.9760 C   0  0  0  0  0  0  0  0  0  0  0  0
  186.1240  178.6450  144.8000 C   0  0  0  0  0  3  0  0  0  0  0  0
  187.5930  175.6290  146.2630 F   0  0  0  0  0  0  0  0  0  0  0  0
  184.4120  178.7280  147.9700 F   0  0  0  0  0  0  0  0  0  0  0  0
  185.3090  179.0280  145.8190 N   0  0  0  0  0  0  0  0  0  0  0  0
  186.8460  176.7490  146.1070 C   0  0  0  0  0  0  0  0  0  0  0  0
  186.9150  177.4940  144.9210 C   0  0  0  0  0  0  0  0  0  0  0  0
  186.0030  177.1620  147.1390 C   0  0  0  0  0  3  0  0  0  0  0  0
  1 15  1  0  0  0  0
  2 13  2  0  0  0  0
  2  3  1  0  0  0  0
  3 20  1  0  0  0  0
  4 16  2  0  0  0  0
  5  2  1  0  0  0  0
  6 18  1  0  0  0  0
  6  1  2  0  0  0  0
  7  3  2  0  0  0  0
  7  4  1  0  0  0  0
  8 14  1  0  0  0  0
  8 13  1  0  0  0  0
  9  1  1  0  0  0  0
 11  4  1  0  0  0  0
 12  8  2  0  0  0  0
 13 19  1  0  0  0  0
 15  5  2  0  0  0  0
 16 21  1  0  0  0  0
 17 12  1  0  0  0  0
 17  5  1  0  0  0  0
 18 17  2  0  0  0  0
 19 10  2  0  0  0  0
 20 10  1  0  0  0  0
 20 21  2  0  0  0  0
 23 22  1  6  0  0  0
 23 14  1  0  0  0  0
 23 30  1  0  0  0  0
 24 31  1  0  0  0  0
 24 27  1  0  0  0  0
 25 30  2  0  0  0  0
 25 28  1  0  0  0  0
 28 24  2  0  0  0  0
 29 26  1  0  0  0  0
 29 31  2  0  0  0  0
 30 29  1  0  0  0  0
M  END
>  <MODEL>
6

>  <REMARK>
 VINA RESULT:      -8.2      4.749      8.305
  Name = 
  2 active torsions:
  status: ('A' for Active; 'I' for Inactive)
    1  A    between atoms: C_5  and  N_16
    2  A    between atoms: C_5  and  C_30
                            x       y       z     vdW  Elec       q    Type
                         _______ _______ _______ _____ _____    ______ ____

>  <TORSDO>
F 2

$$$$
=
 OpenBabel11112416583D

 31 35  0  0  1  0  0  0  0  0999 V2000
  190.9350  176.8460  147.6360 C   0  0  0  0  0  0  0  0  0  0  0  0
  188.5500  176.3030  144.7730 C   0  0  0  0  0  0  0  0  0  0  0  0
  187.3720  177.0610  145.0550 C   0  0  0  0  0  0  0  0  0  0  0  0
  186.0560  178.5660  146.4630 C   0  0  0  0  0  0  0  0  0  0  0  0
  189.7000  176.2410  145.6180 C   0  0  0  0  0  0  0  0  0  0  0  0
  192.0140  176.0610  147.2280 C   0  0  0  0  0  3  0  0  0  0  0  0
  187.2230  177.8380  146.2180 C   0  0  0  0  0  3  0  0  0  0  0  0
  189.7010  174.7950  143.2220 C   0  0  0  0  0  0  0  0  0  0  0  0
  190.9980  177.5400  148.8370 O   0  0  0  0  0  1  0  0  0  0  0  0
  186.3900  176.2890  142.9720 C   0  0  0  0  0  3  0  0  0  0  0  0
  185.9410  179.3230  147.6190 O   0  0  0  0  0  1  0  0  0  0  0  0
  190.7720  174.7600  144.0530 N   0  0  0  0  0  0  0  0  0  0  0  0
  188.5750  175.5570  143.5600 C   0  0  0  0  0  0  0  0  0  0  0  0
  189.7160  174.0460  142.0020 N   0  0  0  0  0  2  0  0  0  0  0  0
  189.7930  176.9330  146.8380 C   0  0  0  0  0  3  0  0  0  0  0  0
  185.0080  178.5320  145.5430 C   0  0  0  0  0  3  0  0  0  0  0  0
  190.8070  175.4480  145.2180 C   0  0  0  0  0  0  0  0  0  0  0  0
  191.9480  175.3640  146.0220 C   0  0  0  0  0  3  0  0  0  0  0  0
  187.5110  175.5750  142.7140 N   0  0  0  0  0  0  0  0  0  0  0  0
  186.2940  177.0400  144.1360 C   0  0  0  0  0  0  0  0  0  0  0  0
  185.1270  177.7700  144.3810 C   0  0  0  0  0  3  0  0  0  0  0  0
  191.9770  174.1660  141.0810 C   0  0  0  0  0  1  0  0  0  0  0  0
  190.8620  173.2560  141.5710 C   0  0  2  0  0  3  0  0  0  0  0  0
  189.6960  170.5240  138.4950 C   0  0  0  0  0  0  0  0  0  0  0  0
  189.5320  172.6630  139.5110 C   0  0  0  0  0  3  0  0  0  0  0  0
  191.9020  170.6080  141.3970 F   0  0  0  0  0  0  0  0  0  0  0  0
  189.3160  169.6700  137.5140 F   0  0  0  0  0  0  0  0  0  0  0  0
  189.1750  171.7790  138.5410 N   0  0  0  0  0  0  0  0  0  0  0  0
  191.0030  171.0040  140.4620 C   0  0  0  0  0  0  0  0  0  0  0  0
  190.4570  172.2940  140.4980 C   0  0  0  0  0  0  0  0  0  0  0  0
  190.6210  170.1140  139.4570 C   0  0  0  0  0  3  0  0  0  0  0  0
  1  9  1  0  0  0  0
  2  3  1  0  0  0  0
  2  5  1  0  0  0  0
  3  7  1  0  0  0  0
  4 11  1  0  0  0  0
  5 15  1  0  0  0  0
  6  1  1  0  0  0  0
  7  4  2  0  0  0  0
  8 13  1  0  0  0  0
  8 12  2  0  0  0  0
 10 20  1  0  0  0  0
 12 17  1  0  0  0  0
 13  2  2  0  0  0  0
 14  8  1  0  0  0  0
 15  1  2  0  0  0  0
 16  4  1  0  0  0  0
 17  5  2  0  0  0  0
 17 18  1  0  0  0  0
 18  6  2  0  0  0  0
 19 10  2  0  0  0  0
 19 13  1  0  0  0  0
 20 21  1  0  0  0  0
 20  3  2  0  0  0  0
 21 16  2  0  0  0  0
 23 22  1  6  0  0  0
 23 14  1  0  0  0  0
 24 28  2  0  0  0  0
 24 31  1  0  0  0  0
 25 30  2  0  0  0  0
 27 24  1  0  0  0  0
 28 25  1  0  0  0  0
 29 30  1  0  0  0  0
 29 26  1  0  0  0  0
 30 23  1  0  0  0  0
 31 29  2  0  0  0  0
M  END
>  <MODEL>
7

>  <REMARK>
 VINA RESULT:      -8.1      3.288      5.737
  Name = 
  2 active torsions:
  status: ('A' for Active; 'I' for Inactive)
    1  A    between atoms: C_5  and  N_16
    2  A    between atoms: C_5  and  C_30
                            x       y       z     vdW  Elec       q    Type
                         _______ _______ _______ _____ _____    ______ ____

>  <TORSDO>
F 2

$$$$
=
 OpenBabel11112416583D

 31 35  0  0  1  0  0  0  0  0999 V2000
  188.7190  174.1730  140.3900 C   0  0  0  0  0  0  0  0  0  0  0  0
  188.0250  176.3260  143.4010 C   0  0  0  0  0  0  0  0  0  0  0  0
  186.9050  177.1540  143.0790 C   0  0  0  0  0  0  0  0  0  0  0  0
  185.1560  177.9260  141.5560 C   0  0  0  0  0  0  0  0  0  0  0  0
  188.6050  175.3630  142.5200 C   0  0  0  0  0  0  0  0  0  0  0  0
  189.8130  173.4360  140.8450 C   0  0  0  0  0  3  0  0  0  0  0  0
  186.2480  177.1020  141.8360 C   0  0  0  0  0  3  0  0  0  0  0  0
  189.7000  175.6950  145.0740 C   0  0  0  0  0  0  0  0  0  0  0  0
  188.2230  173.9590  139.1110 O   0  0  0  0  0  1  0  0  0  0  0  0
  187.0350  178.1670  145.2830 C   0  0  0  0  0  3  0  0  0  0  0  0
  184.5300  177.8500  140.3200 O   0  0  0  0  0  1  0  0  0  0  0  0
  190.2230  174.7920  144.2070 N   0  0  0  0  0  0  0  0  0  0  0  0
  188.6010  176.4770  144.6940 C   0  0  0  0  0  0  0  0  0  0  0  0
  190.2750  175.8550  146.3750 N   0  0  0  0  0  2  0  0  0  0  0  0
  188.1240  175.1240  141.2210 C   0  0  0  0  0  3  0  0  0  0  0  0
  184.6960  178.8260  142.5170 C   0  0  0  0  0  3  0  0  0  0  0  0
  189.7180  174.6050  142.9660 C   0  0  0  0  0  0  0  0  0  0  0  0
  190.3110  173.6530  142.1290 C   0  0  0  0  0  3  0  0  0  0  0  0
  188.0950  177.3780  145.5780 N   0  0  0  0  0  0  0  0  0  0  0  0
  186.4220  178.0760  144.0400 C   0  0  0  0  0  0  0  0  0  0  0  0
  185.3280  178.9000  143.7580 C   0  0  0  0  0  3  0  0  0  0  0  0
  191.5550  175.2080  148.3550 C   0  0  0  0  0  1  0  0  0  0  0  0
  191.3980  175.0560  146.8500 C   0  0  2  0  0  3  0  0  0  0  0  0
  194.9910  176.2220  144.8450 C   0  0  0  0  0  0  0  0  0  0  0  0
  193.0020  176.8100  146.0020 C   0  0  0  0  0  3  0  0  0  0  0  0
  193.2170  173.1640  145.7400 F   0  0  0  0  0  0  0  0  0  0  0  0
  196.1250  176.6070  144.2130 F   0  0  0  0  0  0  0  0  0  0  0  0
  194.1500  177.1590  145.3620 N   0  0  0  0  0  0  0  0  0  0  0  0
  193.5140  174.4820  145.6210 C   0  0  0  0  0  0  0  0  0  0  0  0
  192.6560  175.4580  146.1460 C   0  0  0  0  0  0  0  0  0  0  0  0
  194.6860  174.8650  144.9670 C   0  0  0  0  0  3  0  0  0  0  0  0
  1  6  2  0  0  0  0
  1 15  1  0  0  0  0
  2 13  1  0  0  0  0
  3  2  2  0  0  0  0
  3 20  1  0  0  0  0
  4  7  2  0  0  0  0
  4 16  1  0  0  0  0
  5 17  1  0  0  0  0
  5  2  1  0  0  0  0
  6 18  1  0  0  0  0
  7  3  1  0  0  0  0
  8 14  1  0  0  0  0
  9  1  1  0  0  0  0
 10 19  1  0  0  0  0
 11  4  1  0  0  0  0
 12  8  2  0  0  0  0
 13  8  1  0  0  0  0
 13 19  2  0  0  0  0
 14 23  1  0  0  0  0
 15  5  2  0  0  0  0
 16 21  2  0  0  0  0
 17 12  1  0  0  0  0
 18 17  2  0  0  0  0
 20 10  2  0  0  0  0
 21 20  1  0  0  0  0
 23 22  1  1  0  0  0
 24 31  2  0  0  0  0
 24 28  1  0  0  0  0
 25 30  1  0  0  0  0
 27 24  1  0  0  0  0
 28 25  2  0  0  0  0
 29 26  1  0  0  0  0
 29 30  2  0  0  0  0
 30 23  1  0  0  0  0
 31 29  1  0  0  0  0
M  END
>  <MODEL>
8

>  <REMARK>
 VINA RESULT:      -8.1      2.313      3.802
  Name = 
  2 active torsions:
  status: ('A' for Active; 'I' for Inactive)
    1  A    between atoms: C_5  and  N_16
    2  A    between atoms: C_5  and  C_30
                            x       y       z     vdW  Elec       q    Type
                         _______ _______ _______ _____ _____    ______ ____

>  <TORSDO>
F 2

$$$$
=
 OpenBabel11112416583D

 31 35  0  0  1  0  0  0  0  0999 V2000
  195.2930  176.1910  143.8840 C   0  0  0  0  0  0  0  0  0  0  0  0
  191.9290  174.9970  142.6830 C   0  0  0  0  0  0  0  0  0  0  0  0
  192.1360  174.3460  141.4280 C   0  0  0  0  0  0  0  0  0  0  0  0
  193.5680  173.5800  139.6000 C   0  0  0  0  0  0  0  0  0  0  0  0
  192.9610  175.5930  143.4710 C   0  0  0  0  0  0  0  0  0  0  0  0
  194.9380  176.7930  145.0920 C   0  0  0  0  0  3  0  0  0  0  0  0
  193.4030  174.2230  140.8290 C   0  0  0  0  0  3  0  0  0  0  0  0
  190.3250  175.6770  144.4060 C   0  0  0  0  0  0  0  0  0  0  0  0
  196.6200  176.1820  143.4770 O   0  0  0  0  0  1  0  0  0  0  0  0
  189.7540  173.8880  141.2860 C   0  0  0  0  0  3  0  0  0  0  0  0
  194.8310  173.4760  139.0370 O   0  0  0  0  0  1  0  0  0  0  0  0
  191.3330  176.2320  145.1230 N   0  0  0  0  0  0  0  0  0  0  0  0
  190.5960  175.0550  143.1800 C   0  0  0  0  0  0  0  0  0  0  0  0
  188.9810  175.7330  144.8970 N   0  0  0  0  0  2  0  0  0  0  0  0
  194.3130  175.5980  143.0850 C   0  0  0  0  0  3  0  0  0  0  0  0
  192.4630  173.0440  138.9400 C   0  0  0  0  0  3  0  0  0  0  0  0
  192.6190  176.2090  144.7020 C   0  0  0  0  0  0  0  0  0  0  0  0
  193.6040  176.8020  145.4980 C   0  0  0  0  0  3  0  0  0  0  0  0
  189.5700  174.5060  142.4760 N   0  0  0  0  0  0  0  0  0  0  0  0
  191.0270  173.7940  140.7390 C   0  0  0  0  0  0  0  0  0  0  0  0
  191.1940  173.1500  139.5090 C   0  0  0  0  0  3  0  0  0  0  0  0
  188.5700  175.2740  147.2620 C   0  0  0  0  0  1  0  0  0  0  0  0
  188.6290  176.3360  146.1760 C   0  0  2  0  0  3  0  0  0  0  0  0
  184.8830  178.3780  145.8890 C   0  0  0  0  0  0  0  0  0  0  0  0
  186.2780  176.7910  146.9710 C   0  0  0  0  0  3  0  0  0  0  0  0
  188.0990  178.2910  144.1710 F   0  0  0  0  0  0  0  0  0  0  0  0
  183.6910  179.0160  145.8110 F   0  0  0  0  0  0  0  0  0  0  0  0
  185.0940  177.4520  146.8620 N   0  0  0  0  0  0  0  0  0  0  0  0
  187.1160  178.0070  145.0620 C   0  0  0  0  0  0  0  0  0  0  0  0
  187.3190  177.0530  146.0690 C   0  0  0  0  0  0  0  0  0  0  0  0
  185.8930  178.6720  144.9710 C   0  0  0  0  0  3  0  0  0  0  0  0
  1  6  1  0  0  0  0
  2 13  1  0  0  0  0
  2  5  1  0  0  0  0
  3  2  2  0  0  0  0
  4  7  2  0  0  0  0
  5 17  2  0  0  0  0
  6 18  2  0  0  0  0
  7  3  1  0  0  0  0
  8 14  1  0  0  0  0
  8 12  2  0  0  0  0
  9  1  1  0  0  0  0
 10 19  1  0  0  0  0
 11  4  1  0  0  0  0
 13  8  1  0  0  0  0
 14 23  1  0  0  0  0
 15  5  1  0  0  0  0
 15  1  2  0  0  0  0
 16 21  2  0  0  0  0
 16  4  1  0  0  0  0
 17 12  1  0  0  0  0
 17 18  1  0  0  0  0
 19 13  2  0  0  0  0
 20 10  2  0  0  0  0
 20  3  1  0  0  0  0
 21 20  1  0  0  0  0
 23 22  1  1  0  0  0
 24 28  1  0  0  0  0
 26 29  1  0  0  0  0
 27 24  1  0  0  0  0
 28 25  2  0  0  0  0
 29 30  2  0  0  0  0
 30 23  1  0  0  0  0
 30 25  1  0  0  0  0
 31 29  1  0  0  0  0
 31 24  2  0  0  0  0
M  END
>  <MODEL>
9

>  <REMARK>
 VINA RESULT:      -8.0      4.390      8.717
  Name = 
  2 active torsions:
  status: ('A' for Active; 'I' for Inactive)
    1  A    between atoms: C_5  and  N_16
    2  A    between atoms: C_5  and  C_30
                            x       y       z     vdW  Elec       q    Type
                         _______ _______ _______ _____ _____    ______ ____

>  <TORSDO>
F 2

$$$$
