=
 OpenBabel11112417493D

 34 40  0  0  1  0  0  0  0  0999 V2000
  190.0740  175.3390  142.4610 C   0  0  0  0  0  0  0  0  0  0  0  0
  192.4080  174.3870  142.1140 C   0  0  0  0  0  2  0  0  0  0  0  0
  186.2130  178.7440  146.3120 C   0  0  2  0  0  3  0  0  0  0  0  0
  187.8200  175.9470  143.0840 C   0  0  0  0  0  0  0  0  0  0  0  0
  187.4110  176.6530  145.4470 C   0  0  2  0  0  3  0  0  0  0  0  0
  185.2420  176.5210  146.5170 O   0  0  0  0  0  1  0  0  0  0  0  0
  185.9220  179.3780  147.6560 C   0  0  0  0  0  1  0  0  0  0  0  0
  185.0830  178.3480  144.0060 C   0  0  0  0  0  2  0  0  0  0  0  0
  191.6600  175.1190  144.2390 N   0  0  2  0  0  0  0  0  0  0  0  0
  193.6940  176.1550  146.5040 C   0  0  0  0  0  2  0  0  0  0  0  0
  188.7810  177.3380  145.5180 C   0  0  0  0  0  2  0  0  0  0  0  0
  186.4630  177.9920  143.4810 C   0  0  0  0  0  2  0  0  0  0  0  0
  191.1660  176.2870  145.0100 C   0  0  1  0  0  3  0  0  0  0  0  0
  193.5940  174.2930  143.0490 C   0  0  0  0  0  2  0  0  0  0  0  0
  186.8500  176.6150  144.0120 C   0  0  1  0  0  3  0  0  0  0  0  0
  185.1160  179.1400  145.3150 C   0  0  0  0  0  2  0  0  0  0  0  0
  193.9460  175.9110  145.0030 C   0  0  2  0  0  3  0  0  0  0  0  0
  189.2010  176.0090  143.3250 C   0  0  0  0  0  0  0  0  0  0  0  0
  186.4420  177.2360  146.4840 C   0  0  2  0  0  3  0  0  0  0  0  0
  189.7830  176.7910  144.4880 C   0  0  1  0  0  3  0  0  0  0  0  0
  188.2610  174.6150  141.1150 C   0  0  0  0  0  3  0  0  0  0  0  0
  192.4610  175.4430  147.0640 C   0  0  0  0  0  2  0  0  0  0  0  0
  187.3500  175.2500  141.9660 C   0  0  0  0  0  3  0  0  0  0  0  0
  191.1480  176.0040  146.5210 C   0  0  0  0  0  2  0  0  0  0  0  0
  193.0830  174.7670  144.4130 C   0  0  1  0  0  3  0  0  0  0  0  0
  189.5960  174.6670  141.3780 N   0  0  0  0  0  0  0  0  0  0  0  0
  191.5250  175.3840  142.8130 C   0  0  2  0  0  3  0  0  0  0  0  0
  195.3640  175.6480  144.8060 N   0  0  0  0  0  2  0  0  0  0  0  0
  195.9240  176.8190  144.1510 C   0  0  0  0  0  2  0  0  0  0  0  0
  196.9430  176.0760  140.7420 N   0  0  0  0  0  0  0  0  0  0  0  0
  197.7280  175.6890  142.7360 C   0  0  0  0  0  3  0  0  0  0  0  0
  196.5690  176.4180  142.8730 C   0  0  0  0  0  0  0  0  0  0  0  0
  197.9280  175.5030  141.4180 N   0  0  0  0  0  0  0  0  0  0  0  0
  196.0820  176.6440  141.6060 C   0  0  0  0  0  2  0  0  0  0  0  0
  1 27  1  0  0  0  0
  1 18  1  0  0  0  0
  2 27  1  0  0  0  0
  2 14  1  0  0  0  0
  3 19  1  0  0  0  0
  3  7  1  1  0  0  0
  4 18  2  0  0  0  0
  4 15  1  0  0  0  0
  5 11  1  6  0  0  0
  5 19  1  0  0  0  0
  8 16  1  0  0  0  0
  9 25  1  0  0  0  0
  9 13  1  0  0  0  0
 10 22  1  0  0  0  0
 12  8  1  0  0  0  0
 12 15  1  0  0  0  0
 13 24  1  0  0  0  0
 14 25  1  0  0  0  0
 15  5  1  0  0  0  0
 16  3  1  0  0  0  0
 17 10  1  0  0  0  0
 18 20  1  0  0  0  0
 19  6  1  0  0  0  0
 20 13  1  0  0  0  0
 20 11  1  0  0  0  0
 21 26  1  0  0  0  0
 21 23  2  0  0  0  0
 23  4  1  0  0  0  0
 24 22  1  0  0  0  0
 25 17  1  0  0  0  0
 26  1  2  0  0  0  0
 27  9  1  0  0  0  0
 28 17  1  0  0  0  0
 29 28  1  0  0  0  0
 30 33  2  0  0  0  0
 30 34  1  0  0  0  0
 31 32  2  0  0  0  0
 32 29  1  0  0  0  0
 33 31  1  0  0  0  0
 34 32  1  0  0  0  0
M  END
>  <MODEL>
1

>  <REMARK>
 VINA RESULT:      -9.5      0.000      0.000
  Name = 
  3 active torsions:
  status: ('A' for Active; 'I' for Inactive)
    1  A    between atoms: C_17  and  N_28
    2  A    between atoms: N_28  and  C_29
    3  A    between atoms: C_29  and  C_32
                            x       y       z     vdW  Elec       q    Type
                         _______ _______ _______ _____ _____    ______ ____

>  <TORSDO>
F 3

$$$$
=
 OpenBabel11112417493D

 34 40  0  0  1  0  0  0  0  0999 V2000
  190.0090  175.4930  142.4830 C   0  0  0  0  0  0  0  0  0  0  0  0
  192.3560  174.5680  142.1540 C   0  0  0  0  0  2  0  0  0  0  0  0
  186.0380  178.7270  146.3700 C   0  0  2  0  0  3  0  0  0  0  0  0
  187.7370  176.0650  143.0760 C   0  0  0  0  0  0  0  0  0  0  0  0
  187.2690  176.6770  145.4540 C   0  0  2  0  0  3  0  0  0  0  0  0
  185.0770  176.4930  146.4670 O   0  0  0  0  0  1  0  0  0  0  0  0
  185.7130  179.3080  147.7300 C   0  0  0  0  0  1  0  0  0  0  0  0
  184.9640  178.4130  144.0250 C   0  0  0  0  0  2  0  0  0  0  0  0
  191.5540  175.2140  144.2880 N   0  0  2  0  0  0  0  0  0  0  0  0
  193.5300  176.1740  146.6370 C   0  0  0  0  0  2  0  0  0  0  0  0
  188.6330  177.3670  145.5830 C   0  0  0  0  0  2  0  0  0  0  0  0
  186.3580  178.0850  143.5190 C   0  0  0  0  0  2  0  0  0  0  0  0
  191.0360  176.3490  145.0910 C   0  0  1  0  0  3  0  0  0  0  0  0
  193.5210  174.4440  143.1120 C   0  0  0  0  0  2  0  0  0  0  0  0
  186.7420  176.6910  144.0050 C   0  0  1  0  0  3  0  0  0  0  0  0
  184.9620  179.1550  145.3630 C   0  0  0  0  0  2  0  0  0  0  0  0
  193.8180  175.9890  145.1340 C   0  0  2  0  0  3  0  0  0  0  0  0
  189.1120  176.1250  143.3510 C   0  0  0  0  0  0  0  0  0  0  0  0
  186.2730  177.2150  146.4900 C   0  0  2  0  0  3  0  0  0  0  0  0
  189.6610  176.8650  144.5560 C   0  0  1  0  0  3  0  0  0  0  0  0
  188.2320  174.8110  141.0690 C   0  0  0  0  0  3  0  0  0  0  0  0
  192.2880  175.4340  147.1410 C   0  0  0  0  0  2  0  0  0  0  0  0
  187.2970  175.4080  141.9220 C   0  0  0  0  0  3  0  0  0  0  0  0
  190.9840  176.0090  146.5890 C   0  0  0  0  0  2  0  0  0  0  0  0
  192.9760  174.8640  144.4810 C   0  0  1  0  0  3  0  0  0  0  0  0
  189.5600  174.8610  141.3640 N   0  0  0  0  0  0  0  0  0  0  0  0
  191.4510  175.5320  142.8700 C   0  0  2  0  0  3  0  0  0  0  0  0
  195.2410  175.7420  144.9600 N   0  0  0  0  0  2  0  0  0  0  0  0
  195.6370  174.7990  145.9920 C   0  0  0  0  0  2  0  0  0  0  0  0
  197.9410  172.7390  144.0790 N   0  0  0  0  0  0  0  0  0  0  0  0
  196.7500  172.5000  145.8860 C   0  0  0  0  0  3  0  0  0  0  0  0
  196.5510  173.7780  145.4150 C   0  0  0  0  0  0  0  0  0  0  0  0
  197.6110  171.8960  145.0460 N   0  0  0  0  0  2  0  0  0  0  0  0
  197.3000  173.9080  144.2690 C   0  0  0  0  0  3  0  0  0  0  0  0
  1 27  1  0  0  0  0
  1 18  1  0  0  0  0
  2 27  1  0  0  0  0
  2 14  1  0  0  0  0
  3 19  1  0  0  0  0
  3  7  1  1  0  0  0
  4 18  2  0  0  0  0
  4 15  1  0  0  0  0
  5 11  1  6  0  0  0
  5 19  1  0  0  0  0
  6 19  1  0  0  0  0
  8 16  1  0  0  0  0
  9 25  1  0  0  0  0
  9 13  1  0  0  0  0
 10 22  1  0  0  0  0
 12 15  1  0  0  0  0
 12  8  1  0  0  0  0
 13 24  1  0  0  0  0
 14 25  1  0  0  0  0
 15  5  1  0  0  0  0
 16  3  1  0  0  0  0
 17 10  1  0  0  0  0
 18 20  1  0  0  0  0
 20 13  1  0  0  0  0
 20 11  1  0  0  0  0
 21 26  1  0  0  0  0
 21 23  2  0  0  0  0
 23  4  1  0  0  0  0
 24 22  1  0  0  0  0
 25 17  1  0  0  0  0
 26  1  2  0  0  0  0
 27  9  1  0  0  0  0
 28 17  1  0  0  0  0
 28 29  1  0  0  0  0
 30 34  2  0  0  0  0
 30 33  1  0  0  0  0
 32 31  2  0  0  0  0
 32 29  1  0  0  0  0
 33 31  1  0  0  0  0
 34 32  1  0  0  0  0
M  END
>  <MODEL>
2

>  <REMARK>
 VINA RESULT:      -9.4      1.505      1.786
  Name = 
  3 active torsions:
  status: ('A' for Active; 'I' for Inactive)
    1  A    between atoms: C_17  and  N_28
    2  A    between atoms: N_28  and  C_29
    3  A    between atoms: C_29  and  C_32
                            x       y       z     vdW  Elec       q    Type
                         _______ _______ _______ _____ _____    ______ ____

>  <TORSDO>
F 3

$$$$
=
 OpenBabel11112417493D

 34 40  0  0  1  0  0  0  0  0999 V2000
  189.8990  176.5640  146.1660 C   0  0  0  0  0  0  0  0  0  0  0  0
  187.3870  176.8940  146.3920 C   0  0  0  0  0  2  0  0  0  0  0  0
  194.8830  176.0980  142.1300 C   0  0  2  0  0  3  0  0  0  0  0  0
  192.1860  175.8710  145.8050 C   0  0  0  0  0  0  0  0  0  0  0  0
  192.8710  175.2660  143.4780 C   0  0  2  0  0  3  0  0  0  0  0  0
  194.7490  173.8200  142.9780 O   0  0  0  0  0  1  0  0  0  0  0  0
  195.4290  175.9180  140.7290 C   0  0  0  0  0  1  0  0  0  0  0  0
  195.7120  176.3020  144.5840 C   0  0  0  0  0  2  0  0  0  0  0  0
  188.3860  176.2730  144.3350 N   0  0  2  0  0  0  0  0  0  0  0  0
  187.0380  176.9720  141.5010 C   0  0  0  0  0  2  0  0  0  0  0  0
  191.9570  176.3470  142.8880 C   0  0  0  0  0  2  0  0  0  0  0  0
  194.3200  176.8000  144.9290 C   0  0  0  0  0  2  0  0  0  0  0  0
  189.3530  176.6870  143.2890 C   0  0  1  0  0  3  0  0  0  0  0  0
  186.2860  176.9010  145.3540 C   0  0  0  0  0  2  0  0  0  0  0  0
  193.3540  175.6190  144.8990 C   0  0  1  0  0  3  0  0  0  0  0  0
  196.0410  176.3970  143.0930 C   0  0  0  0  0  2  0  0  0  0  0  0
  186.7020  177.5180  142.9030 C   0  0  2  0  0  3  0  0  0  0  0  0
  190.9810  176.3810  145.2970 C   0  0  0  0  0  0  0  0  0  0  0  0
  193.9990  174.9000  142.5040 C   0  0  2  0  0  3  0  0  0  0  0  0
  190.8150  176.7530  143.8360 C   0  0  1  0  0  3  0  0  0  0  0  0
  191.1910  175.8150  148.0070 C   0  0  0  0  0  3  0  0  0  0  0  0
  187.8180  175.6560  141.5030 C   0  0  0  0  0  2  0  0  0  0  0  0
  192.2910  175.5940  147.1720 C   0  0  0  0  0  3  0  0  0  0  0  0
  189.2430  175.8060  142.0330 C   0  0  0  0  0  2  0  0  0  0  0  0
  186.9570  176.4950  144.0380 C   0  0  1  0  0  3  0  0  0  0  0  0
  190.0230  176.2890  147.4930 N   0  0  0  0  0  0  0  0  0  0  0  0
  188.6250  177.0410  145.5510 C   0  0  2  0  0  3  0  0  0  0  0  0
  185.3180  177.9680  142.9080 N   0  0  0  0  0  2  0  0  0  0  0  0
  184.9720  178.2880  141.5330 C   0  0  0  0  0  2  0  0  0  0  0  0
  181.4920  178.0860  140.4990 N   0  0  0  0  0  0  0  0  0  0  0  0
  182.5640  178.6660  142.3040 C   0  0  0  0  0  3  0  0  0  0  0  0
  183.4940  178.2670  141.3710 C   0  0  0  0  0  0  0  0  0  0  0  0
  181.3500  178.5360  141.7370 N   0  0  0  0  0  2  0  0  0  0  0  0
  182.8010  177.9160  140.2360 C   0  0  0  0  0  3  0  0  0  0  0  0
  1 26  1  0  0  0  0
  3  7  1  6  0  0  0
  3 19  1  0  0  0  0
  3 16  1  0  0  0  0
  4 23  2  0  0  0  0
  5 11  1  6  0  0  0
  5 15  1  0  0  0  0
  8 12  1  0  0  0  0
  9 27  1  0  0  0  0
 10 22  1  0  0  0  0
 10 17  1  0  0  0  0
 11 20  1  0  0  0  0
 13 20  1  0  0  0  0
 13  9  1  0  0  0  0
 14  2  1  0  0  0  0
 15 12  1  0  0  0  0
 15  4  1  0  0  0  0
 16  8  1  0  0  0  0
 17 28  1  0  0  0  0
 17 25  1  0  0  0  0
 18  4  1  0  0  0  0
 18  1  2  0  0  0  0
 19  6  1  0  0  0  0
 19  5  1  0  0  0  0
 20 18  1  0  0  0  0
 22 24  1  0  0  0  0
 23 21  1  0  0  0  0
 24 13  1  0  0  0  0
 25  9  1  0  0  0  0
 25 14  1  0  0  0  0
 26 21  2  0  0  0  0
 27  1  1  0  0  0  0
 27  2  1  0  0  0  0
 29 28  1  0  0  0  0
 30 33  1  0  0  0  0
 32 29  1  0  0  0  0
 32 31  2  0  0  0  0
 33 31  1  0  0  0  0
 34 30  2  0  0  0  0
 34 32  1  0  0  0  0
M  END
>  <MODEL>
3

>  <REMARK>
 VINA RESULT:      -8.5      3.469      9.092
  Name = 
  3 active torsions:
  status: ('A' for Active; 'I' for Inactive)
    1  A    between atoms: C_17  and  N_28
    2  A    between atoms: N_28  and  C_29
    3  A    between atoms: C_29  and  C_32
                            x       y       z     vdW  Elec       q    Type
                         _______ _______ _______ _____ _____    ______ ____

>  <TORSDO>
F 3

$$$$
=
 OpenBabel11112417493D

 34 40  0  0  1  0  0  0  0  0999 V2000
  193.1450  175.7860  142.8070 C   0  0  0  0  0  0  0  0  0  0  0  0
  191.4070  177.6300  143.0310 C   0  0  0  0  0  2  0  0  0  0  0  0
  195.5710  170.3960  145.3380 C   0  0  2  0  0  3  0  0  0  0  0  0
  194.9830  174.2210  142.9190 C   0  0  0  0  0  0  0  0  0  0  0  0
  195.2860  172.9230  145.0330 C   0  0  2  0  0  3  0  0  0  0  0  0
  197.4020  171.9570  145.7090 O   0  0  0  0  0  1  0  0  0  0  0  0
  195.6970  169.4280  146.4950 C   0  0  0  0  0  1  0  0  0  0  0  0
  196.5320  170.8000  142.9580 C   0  0  0  0  0  2  0  0  0  0  0  0
  191.9810  176.2260  144.8510 N   0  0  2  0  0  0  0  0  0  0  0  0
  189.9310  175.6160  147.2520 C   0  0  0  0  0  2  0  0  0  0  0  0
  193.7690  172.8340  145.2400 C   0  0  0  0  0  2  0  0  0  0  0  0
  195.3860  171.7740  142.7470 C   0  0  0  0  0  2  0  0  0  0  0  0
  192.0100  174.8220  145.3310 C   0  0  1  0  0  3  0  0  0  0  0  0
  190.4680  177.9810  144.1650 C   0  0  0  0  0  2  0  0  0  0  0  0
  195.6680  173.0440  143.5450 C   0  0  1  0  0  3  0  0  0  0  0  0
  196.2960  169.8240  144.1130 C   0  0  0  0  0  2  0  0  0  0  0  0
  189.6600  176.2550  145.8760 C   0  0  2  0  0  3  0  0  0  0  0  0
  193.7350  174.6580  143.3880 C   0  0  0  0  0  0  0  0  0  0  0  0
  196.0150  171.7980  145.7800 C   0  0  2  0  0  3  0  0  0  0  0  0
  192.9950  173.9390  144.5000 C   0  0  1  0  0  3  0  0  0  0  0  0
  194.9530  176.0070  141.2900 C   0  0  0  0  0  3  0  0  0  0  0  0
  191.3970  175.6470  147.6880 C   0  0  0  0  0  2  0  0  0  0  0  0
  195.5910  174.8980  141.8570 C   0  0  0  0  0  3  0  0  0  0  0  0
  192.2930  174.7440  146.8400 C   0  0  0  0  0  2  0  0  0  0  0  0
  190.8620  177.0640  145.3260 C   0  0  1  0  0  3  0  0  0  0  0  0
  193.7540  176.4300  141.7740 N   0  0  0  0  0  0  0  0  0  0  0  0
  191.8520  176.2420  143.3990 C   0  0  2  0  0  3  0  0  0  0  0  0
  188.4730  177.0900  145.9760 N   0  0  0  0  0  2  0  0  0  0  0  0
  187.5140  176.3660  146.7930 C   0  0  0  0  0  2  0  0  0  0  0  0
  184.2430  177.9320  146.5420 N   0  0  0  0  0  0  0  0  0  0  0  0
  186.0410  178.2310  147.7340 C   0  0  0  0  0  3  0  0  0  0  0  0
  186.2570  177.1520  146.9070 C   0  0  0  0  0  0  0  0  0  0  0  0
  184.7960  178.6780  147.4860 N   0  0  0  0  0  2  0  0  0  0  0  0
  185.1180  176.9850  146.1550 C   0  0  0  0  0  3  0  0  0  0  0  0
  1 18  1  0  0  0  0
  1 27  1  0  0  0  0
  2 27  1  0  0  0  0
  2 14  1  0  0  0  0
  3 19  1  0  0  0  0
  3  7  1  1  0  0  0
  4 18  2  0  0  0  0
  4 15  1  0  0  0  0
  5 11  1  6  0  0  0
  5 19  1  0  0  0  0
  6 19  1  0  0  0  0
  8 16  1  0  0  0  0
  9 25  1  0  0  0  0
  9 13  1  0  0  0  0
 10 22  1  0  0  0  0
 12  8  1  0  0  0  0
 12 15  1  0  0  0  0
 13 24  1  0  0  0  0
 14 25  1  0  0  0  0
 15  5  1  0  0  0  0
 16  3  1  0  0  0  0
 17 28  1  0  0  0  0
 17 10  1  0  0  0  0
 18 20  1  0  0  0  0
 20 11  1  0  0  0  0
 20 13  1  0  0  0  0
 21 26  1  0  0  0  0
 21 23  2  0  0  0  0
 23  4  1  0  0  0  0
 24 22  1  0  0  0  0
 25 17  1  0  0  0  0
 26  1  2  0  0  0  0
 27  9  1  0  0  0  0
 28 29  1  0  0  0  0
 29 32  1  0  0  0  0
 30 33  1  0  0  0  0
 32 31  2  0  0  0  0
 33 31  1  0  0  0  0
 34 30  2  0  0  0  0
 34 32  1  0  0  0  0
M  END
>  <MODEL>
4

>  <REMARK>
 VINA RESULT:      -8.3      3.952      8.895
  Name = 
  3 active torsions:
  status: ('A' for Active; 'I' for Inactive)
    1  A    between atoms: C_17  and  N_28
    2  A    between atoms: N_28  and  C_29
    3  A    between atoms: C_29  and  C_32
                            x       y       z     vdW  Elec       q    Type
                         _______ _______ _______ _____ _____    ______ ____

>  <TORSDO>
F 3

$$$$
=
 OpenBabel11112417493D

 34 40  0  0  1  0  0  0  0  0999 V2000
  192.1590  176.6180  145.3210 C   0  0  0  0  0  0  0  0  0  0  0  0
  189.7720  176.9980  146.1150 C   0  0  0  0  0  2  0  0  0  0  0  0
  195.9550  175.0100  140.3870 C   0  0  2  0  0  3  0  0  0  0  0  0
  194.3220  175.8520  144.5650 C   0  0  0  0  0  0  0  0  0  0  0  0
  194.4300  174.6020  142.4030 C   0  0  2  0  0  3  0  0  0  0  0  0
  196.2220  173.0740  141.8380 O   0  0  0  0  0  1  0  0  0  0  0  0
  196.1340  174.4340  138.9990 C   0  0  0  0  0  1  0  0  0  0  0  0
  197.3700  175.9140  142.3710 C   0  0  0  0  0  2  0  0  0  0  0  0
  190.2530  175.8110  144.1210 N   0  0  2  0  0  0  0  0  0  0  0  0
  188.1690  175.6620  141.6770 C   0  0  0  0  0  2  0  0  0  0  0  0
  193.3130  175.4660  141.8050 C   0  0  0  0  0  2  0  0  0  0  0  0
  196.0780  176.4900  142.9250 C   0  0  0  0  0  2  0  0  0  0  0  0
  190.8820  175.9050  142.7810 C   0  0  1  0  0  3  0  0  0  0  0  0
  188.4430  176.7050  145.4520 C   0  0  0  0  0  2  0  0  0  0  0  0
  195.2330  175.3500  143.4850 C   0  0  1  0  0  3  0  0  0  0  0  0
  197.2940  175.5740  140.8810 C   0  0  0  0  0  2  0  0  0  0  0  0
  188.1640  176.5880  142.9080 C   0  0  2  0  0  3  0  0  0  0  0  0
  192.9910  176.1930  144.2800 C   0  0  0  0  0  0  0  0  0  0  0  0
  195.2940  173.9710  141.3030 C   0  0  2  0  0  3  0  0  0  0  0  0
  192.4260  176.1270  142.8740 C   0  0  1  0  0  3  0  0  0  0  0  0
  193.9360  176.4330  146.8800 C   0  0  0  0  0  3  0  0  0  0  0  0
  189.0240  174.4020  141.8340 C   0  0  0  0  0  2  0  0  0  0  0  0
  194.7980  175.9810  145.8740 C   0  0  0  0  0  3  0  0  0  0  0  0
  190.5210  174.7000  141.8980 C   0  0  0  0  0  2  0  0  0  0  0  0
  188.7820  175.9370  144.1710 C   0  0  1  0  0  3  0  0  0  0  0  0
  192.6420  176.7370  146.5880 N   0  0  0  0  0  0  0  0  0  0  0  0
  190.7360  176.8960  144.9650 C   0  0  2  0  0  3  0  0  0  0  0  0
  186.7980  177.0200  143.1610 N   0  0  0  0  0  2  0  0  0  0  0  0
  186.5990  178.2530  142.4190 C   0  0  0  0  0  2  0  0  0  0  0  0
  183.0250  178.2880  141.7540 N   0  0  0  0  0  0  0  0  0  0  0  0
  184.8460  178.2910  140.5590 C   0  0  0  0  0  3  0  0  0  0  0  0
  185.2120  178.3000  141.8850 C   0  0  0  0  0  0  0  0  0  0  0  0
  183.5010  178.2900  140.5170 N   0  0  0  0  0  0  0  0  0  0  0  0
  184.0520  178.2870  142.6250 C   0  0  0  0  0  2  0  0  0  0  0  0
  1 26  1  0  0  0  0
  3  7  1  6  0  0  0
  3 16  1  0  0  0  0
  3 19  1  0  0  0  0
  4 23  2  0  0  0  0
  5 11  1  6  0  0  0
  5 15  1  0  0  0  0
  8 12  1  0  0  0  0
  9 25  1  0  0  0  0
  9 27  1  0  0  0  0
 10 22  1  0  0  0  0
 10 17  1  0  0  0  0
 11 20  1  0  0  0  0
 12 15  1  0  0  0  0
 13 20  1  0  0  0  0
 13  9  1  0  0  0  0
 14  2  1  0  0  0  0
 15  4  1  0  0  0  0
 16  8  1  0  0  0  0
 17 28  1  0  0  0  0
 17 25  1  0  0  0  0
 18  4  1  0  0  0  0
 18  1  2  0  0  0  0
 19  6  1  0  0  0  0
 19  5  1  0  0  0  0
 20 18  1  0  0  0  0
 22 24  1  0  0  0  0
 23 21  1  0  0  0  0
 24 13  1  0  0  0  0
 25 14  1  0  0  0  0
 26 21  2  0  0  0  0
 27  1  1  0  0  0  0
 27  2  1  0  0  0  0
 29 28  1  0  0  0  0
 30 34  1  0  0  0  0
 31 32  2  0  0  0  0
 32 29  1  0  0  0  0
 32 34  1  0  0  0  0
 33 31  1  0  0  0  0
 33 30  2  0  0  0  0
M  END
>  <MODEL>
5

>  <REMARK>
 VINA RESULT:      -8.2      3.260      9.067
  Name = 
  3 active torsions:
  status: ('A' for Active; 'I' for Inactive)
    1  A    between atoms: C_17  and  N_28
    2  A    between atoms: N_28  and  C_29
    3  A    between atoms: C_29  and  C_32
                            x       y       z     vdW  Elec       q    Type
                         _______ _______ _______ _____ _____    ______ ____

>  <TORSDO>
F 3

$$$$
=
 OpenBabel11112417493D

 34 40  0  0  1  0  0  0  0  0999 V2000
  192.0740  176.4500  145.2020 C   0  0  0  0  0  0  0  0  0  0  0  0
  189.6100  176.6550  145.8030 C   0  0  0  0  0  2  0  0  0  0  0  0
  196.3530  174.9470  140.6440 C   0  0  2  0  0  3  0  0  0  0  0  0
  194.3450  175.8430  144.6440 C   0  0  0  0  0  0  0  0  0  0  0  0
  194.7200  174.5040  142.5670 C   0  0  2  0  0  3  0  0  0  0  0  0
  196.6740  173.1150  142.2150 O   0  0  0  0  0  1  0  0  0  0  0  0
  196.6830  174.3220  139.3060 C   0  0  0  0  0  1  0  0  0  0  0  0
  197.5320  176.0690  142.6700 C   0  0  0  0  0  2  0  0  0  0  0  0
  190.3380  175.4190  143.9170 N   0  0  2  0  0  0  0  0  0  0  0  0
  188.4640  174.9670  141.3440 C   0  0  0  0  0  2  0  0  0  0  0  0
  193.5820  175.2350  141.8450 C   0  0  0  0  0  2  0  0  0  0  0  0
  196.1590  176.5540  143.0990 C   0  0  0  0  0  2  0  0  0  0  0  0
  191.0560  175.5040  142.6220 C   0  0  1  0  0  3  0  0  0  0  0  0
  188.3650  176.2130  145.0650 C   0  0  0  0  0  2  0  0  0  0  0  0
  195.3740  175.3720  143.6600 C   0  0  1  0  0  3  0  0  0  0  0  0
  197.5980  175.6520  141.1990 C   0  0  0  0  0  2  0  0  0  0  0  0
  188.2880  175.9480  142.5190 C   0  0  2  0  0  3  0  0  0  0  0  0
  193.0150  176.0500  144.2470 C   0  0  0  0  0  0  0  0  0  0  0  0
  195.7150  173.8990  141.5670 C   0  0  2  0  0  3  0  0  0  0  0  0
  192.5640  175.8660  142.8110 C   0  0  1  0  0  3  0  0  0  0  0  0
  193.7380  176.5000  146.8900 C   0  0  0  0  0  3  0  0  0  0  0  0
  189.4090  173.7970  141.6300 C   0  0  0  0  0  2  0  0  0  0  0  0
  194.7080  176.0780  145.9740 C   0  0  0  0  0  3  0  0  0  0  0  0
  190.8670  174.2300  141.7830 C   0  0  0  0  0  2  0  0  0  0  0  0
  188.8630  175.4160  143.8560 C   0  0  1  0  0  3  0  0  0  0  0  0
  192.4480  176.6740  146.4920 N   0  0  0  0  0  0  0  0  0  0  0  0
  190.6630  176.5840  144.7320 C   0  0  2  0  0  3  0  0  0  0  0  0
  186.8750  176.2680  142.6500 N   0  0  0  0  0  2  0  0  0  0  0  0
  186.7070  177.6380  142.1930 C   0  0  0  0  0  2  0  0  0  0  0  0
  184.7640  179.4690  144.6600 N   0  0  0  0  0  0  0  0  0  0  0  0
  184.3330  178.2940  142.8780 C   0  0  0  0  0  3  0  0  0  0  0  0
  185.6990  178.3290  143.0400 C   0  0  0  0  0  0  0  0  0  0  0  0
  183.7950  179.0060  143.8850 N   0  0  0  0  0  0  0  0  0  0  0  0
  185.9530  179.0650  144.1740 C   0  0  0  0  0  2  0  0  0  0  0  0
  1 26  1  0  0  0  0
  3  7  1  6  0  0  0
  3 16  1  0  0  0  0
  3 19  1  0  0  0  0
  4 23  2  0  0  0  0
  5 11  1  6  0  0  0
  5 15  1  0  0  0  0
  8 12  1  0  0  0  0
  9 27  1  0  0  0  0
 10 22  1  0  0  0  0
 10 17  1  0  0  0  0
 11 20  1  0  0  0  0
 12 15  1  0  0  0  0
 13 20  1  0  0  0  0
 13  9  1  0  0  0  0
 14  2  1  0  0  0  0
 15  4  1  0  0  0  0
 16  8  1  0  0  0  0
 17 28  1  0  0  0  0
 17 25  1  0  0  0  0
 18  4  1  0  0  0  0
 18  1  2  0  0  0  0
 19  6  1  0  0  0  0
 19  5  1  0  0  0  0
 20 18  1  0  0  0  0
 22 24  1  0  0  0  0
 23 21  1  0  0  0  0
 24 13  1  0  0  0  0
 25  9  1  0  0  0  0
 25 14  1  0  0  0  0
 26 21  2  0  0  0  0
 27  1  1  0  0  0  0
 27  2  1  0  0  0  0
 29 28  1  0  0  0  0
 29 32  1  0  0  0  0
 31 32  2  0  0  0  0
 31 33  1  0  0  0  0
 32 34  1  0  0  0  0
 33 30  2  0  0  0  0
 34 30  1  0  0  0  0
M  END
>  <MODEL>
6

>  <REMARK>
 VINA RESULT:      -8.2      3.208      9.020
  Name = 
  3 active torsions:
  status: ('A' for Active; 'I' for Inactive)
    1  A    between atoms: C_17  and  N_28
    2  A    between atoms: N_28  and  C_29
    3  A    between atoms: C_29  and  C_32
                            x       y       z     vdW  Elec       q    Type
                         _______ _______ _______ _____ _____    ______ ____

>  <TORSDO>
F 3

$$$$
=
 OpenBabel11112417493D

 34 40  0  0  1  0  0  0  0  0999 V2000
  189.9570  175.2600  145.1630 C   0  0  0  0  0  0  0  0  0  0  0  0
  191.6240  173.5540  144.2780 C   0  0  0  0  0  2  0  0  0  0  0  0
  184.3750  178.2910  144.1610 C   0  0  2  0  0  3  0  0  0  0  0  0
  188.5130  177.1240  145.6930 C   0  0  0  0  0  0  0  0  0  0  0  0
  186.8940  177.8830  143.9460 C   0  0  2  0  0  3  0  0  0  0  0  0
  185.9600  180.1160  143.8790 O   0  0  0  0  0  1  0  0  0  0  0  0
  183.2330  178.6740  143.2440 C   0  0  0  0  0  1  0  0  0  0  0  0
  185.2380  178.7390  146.5710 C   0  0  0  0  0  2  0  0  0  0  0  0
  189.9680  174.5220  142.8870 N   0  0  2  0  0  0  0  0  0  0  0  0
  188.8320  173.0170  140.2820 C   0  0  0  0  0  2  0  0  0  0  0  0
  186.6780  176.4410  143.4680 C   0  0  0  0  0  2  0  0  0  0  0  0
  186.1600  177.5480  146.3760 C   0  0  0  0  0  2  0  0  0  0  0  0
  188.5080  174.6850  142.6810 C   0  0  1  0  0  3  0  0  0  0  0  0
  191.7180  172.8550  142.9390 C   0  0  0  0  0  2  0  0  0  0  0  0
  187.2900  177.9520  145.4340 C   0  0  1  0  0  3  0  0  0  0  0  0
  184.0660  178.7680  145.5860 C   0  0  0  0  0  2  0  0  0  0  0  0
  189.6780  172.4570  141.4420 C   0  0  2  0  0  3  0  0  0  0  0  0
  188.7850  175.9850  144.9200 C   0  0  0  0  0  0  0  0  0  0  0  0
  185.7060  178.7770  143.5700 C   0  0  2  0  0  3  0  0  0  0  0  0
  187.8430  175.5050  143.8320 C   0  0  1  0  0  3  0  0  0  0  0  0
  190.5450  176.7180  146.9380 C   0  0  0  0  0  3  0  0  0  0  0  0
  188.8790  174.5410  140.1410 C   0  0  0  0  0  2  0  0  0  0  0  0
  189.3970  177.4860  146.7140 C   0  0  0  0  0  3  0  0  0  0  0  0
  188.1910  175.2700  141.2950 C   0  0  0  0  0  2  0  0  0  0  0  0
  190.6420  173.5010  142.0610 C   0  0  1  0  0  3  0  0  0  0  0  0
  190.8040  175.6300  146.1620 N   0  0  0  0  0  0  0  0  0  0  0  0
  190.2240  174.1020  144.2590 C   0  0  2  0  0  3  0  0  0  0  0  0
  190.4090  171.2920  140.9650 N   0  0  0  0  0  2  0  0  0  0  0  0
  190.6880  171.5150  139.5560 C   0  0  0  0  0  2  0  0  0  0  0  0
  190.4410  168.4600  137.6020 N   0  0  0  0  0  0  0  0  0  0  0  0
  191.8250  169.2790  139.0710 C   0  0  0  0  0  3  0  0  0  0  0  0
  190.8330  170.2090  138.8610 C   0  0  0  0  0  0  0  0  0  0  0  0
  191.5550  168.2240  138.2790 N   0  0  0  0  0  2  0  0  0  0  0  0
  189.9640  169.6720  137.9400 C   0  0  0  0  0  3  0  0  0  0  0  0
  1 26  1  0  0  0  0
  3  7  1  6  0  0  0
  3 16  1  0  0  0  0
  4 23  2  0  0  0  0
  5 11  1  1  0  0  0
  5 15  1  0  0  0  0
  9 27  1  0  0  0  0
 10 17  1  0  0  0  0
 11 20  1  0  0  0  0
 12  8  1  0  0  0  0
 13  9  1  0  0  0  0
 13 20  1  0  0  0  0
 14  2  1  0  0  0  0
 15  4  1  0  0  0  0
 15 12  1  0  0  0  0
 16  8  1  0  0  0  0
 17 25  1  0  0  0  0
 18  1  2  0  0  0  0
 18  4  1  0  0  0  0
 19  6  1  0  0  0  0
 19  5  1  0  0  0  0
 19  3  1  0  0  0  0
 20 18  1  0  0  0  0
 22 10  1  0  0  0  0
 22 24  1  0  0  0  0
 23 21  1  0  0  0  0
 24 13  1  0  0  0  0
 25  9  1  0  0  0  0
 25 14  1  0  0  0  0
 26 21  2  0  0  0  0
 27  2  1  0  0  0  0
 27  1  1  0  0  0  0
 28 17  1  0  0  0  0
 29 28  1  0  0  0  0
 30 34  2  0  0  0  0
 30 33  1  0  0  0  0
 32 31  2  0  0  0  0
 32 29  1  0  0  0  0
 33 31  1  0  0  0  0
 34 32  1  0  0  0  0
M  END
>  <MODEL>
7

>  <REMARK>
 VINA RESULT:      -8.1      3.347      5.726
  Name = 
  3 active torsions:
  status: ('A' for Active; 'I' for Inactive)
    1  A    between atoms: C_17  and  N_28
    2  A    between atoms: N_28  and  C_29
    3  A    between atoms: C_29  and  C_32
                            x       y       z     vdW  Elec       q    Type
                         _______ _______ _______ _____ _____    ______ ____

>  <TORSDO>
F 3

$$$$
=
 OpenBabel11112417493D

 34 40  0  0  1  0  0  0  0  0999 V2000
  190.0850  174.0510  143.0850 C   0  0  0  0  0  0  0  0  0  0  0  0
  192.2780  173.0170  143.8570 C   0  0  0  0  0  2  0  0  0  0  0  0
  186.0380  179.0180  143.6300 C   0  0  2  0  0  3  0  0  0  0  0  0
  187.8620  174.9320  142.7320 C   0  0  0  0  0  0  0  0  0  0  0  0
  187.0760  176.7590  144.2460 C   0  0  2  0  0  3  0  0  0  0  0  0
  184.7350  177.2340  144.6530 O   0  0  0  0  0  1  0  0  0  0  0  0
  185.5680  180.2580  144.3610 C   0  0  0  0  0  1  0  0  0  0  0  0
  185.3680  177.5110  141.6210 C   0  0  0  0  0  2  0  0  0  0  0  0
  191.2160  174.7510  145.0730 N   0  0  2  0  0  0  0  0  0  0  0  0
  192.8620  176.7700  146.9590 C   0  0  0  0  0  2  0  0  0  0  0  0
  188.4850  177.3610  144.3130 C   0  0  0  0  0  2  0  0  0  0  0  0
  186.7610  176.9120  141.7090 C   0  0  0  0  0  2  0  0  0  0  0  0
  190.7470  176.1570  145.0130 C   0  0  1  0  0  3  0  0  0  0  0  0
  193.2170  173.3970  144.9810 C   0  0  0  0  0  2  0  0  0  0  0  0
  186.8270  175.9980  142.9290 C   0  0  1  0  0  3  0  0  0  0  0  0
  185.2410  178.8630  142.3270 C   0  0  0  0  0  2  0  0  0  0  0  0
  193.3830  175.7840  145.8960 C   0  0  2  0  0  3  0  0  0  0  0  0
  189.1570  175.0850  143.2510 C   0  0  0  0  0  0  0  0  0  0  0  0
  186.0070  177.8100  144.5760 C   0  0  2  0  0  3  0  0  0  0  0  0
  189.5900  176.3440  143.9790 C   0  0  1  0  0  3  0  0  0  0  0  0
  188.5070  172.7700  141.8650 C   0  0  0  0  0  3  0  0  0  0  0  0
  191.4500  176.4690  147.4660 C   0  0  0  0  0  2  0  0  0  0  0  0
  187.5400  173.7670  142.0280 C   0  0  0  0  0  3  0  0  0  0  0  0
  190.3730  176.6920  146.4050 C   0  0  0  0  0  2  0  0  0  0  0  0
  192.5070  174.5150  145.7510 C   0  0  1  0  0  3  0  0  0  0  0  0
  189.7510  172.9270  142.3950 N   0  0  0  0  0  0  0  0  0  0  0  0
  191.4210  174.2460  143.7220 C   0  0  2  0  0  3  0  0  0  0  0  0
  194.7580  175.4340  146.2190 N   0  0  0  0  0  2  0  0  0  0  0  0
  195.5940  175.9780  145.1620 C   0  0  0  0  0  2  0  0  0  0  0  0
  197.8160  173.1830  144.4800 N   0  0  0  0  0  0  0  0  0  0  0  0
  196.9240  174.8000  143.3250 C   0  0  0  0  0  3  0  0  0  0  0  0
  196.4770  174.9100  144.6220 C   0  0  0  0  0  0  0  0  0  0  0  0
  197.7370  173.7280  143.2750 N   0  0  0  0  0  0  0  0  0  0  0  0
  197.0570  173.8900  145.3380 C   0  0  0  0  0  2  0  0  0  0  0  0
  1 18  1  0  0  0  0
  1 27  1  0  0  0  0
  2 14  1  0  0  0  0
  3  7  1  1  0  0  0
  3 19  1  0  0  0  0
  4 15  1  0  0  0  0
  4 18  2  0  0  0  0
  5 11  1  6  0  0  0
  5 19  1  0  0  0  0
  8 12  1  0  0  0  0
  8 16  1  0  0  0  0
  9 25  1  0  0  0  0
 10 22  1  0  0  0  0
 12 15  1  0  0  0  0
 13  9  1  0  0  0  0
 13 24  1  0  0  0  0
 14 25  1  0  0  0  0
 15  5  1  0  0  0  0
 16  3  1  0  0  0  0
 17 28  1  0  0  0  0
 17 10  1  0  0  0  0
 18 20  1  0  0  0  0
 19  6  1  0  0  0  0
 20 11  1  0  0  0  0
 20 13  1  0  0  0  0
 21 23  2  0  0  0  0
 21 26  1  0  0  0  0
 23  4  1  0  0  0  0
 24 22  1  0  0  0  0
 25 17  1  0  0  0  0
 26  1  2  0  0  0  0
 27  2  1  0  0  0  0
 27  9  1  0  0  0  0
 29 28  1  0  0  0  0
 30 34  1  0  0  0  0
 31 32  2  0  0  0  0
 32 29  1  0  0  0  0
 32 34  1  0  0  0  0
 33 31  1  0  0  0  0
 33 30  2  0  0  0  0
M  END
>  <MODEL>
8

>  <REMARK>
 VINA RESULT:      -8.1      1.684      2.110
  Name = 
  3 active torsions:
  status: ('A' for Active; 'I' for Inactive)
    1  A    between atoms: C_17  and  N_28
    2  A    between atoms: N_28  and  C_29
    3  A    between atoms: C_29  and  C_32
                            x       y       z     vdW  Elec       q    Type
                         _______ _______ _______ _____ _____    ______ ____

>  <TORSDO>
F 3

$$$$
=
 OpenBabel11112417493D

 34 40  0  0  1  0  0  0  0  0999 V2000
  190.3010  172.7610  142.7820 C   0  0  0  0  0  0  0  0  0  0  0  0
  188.2230  174.1140  142.2110 C   0  0  0  0  0  2  0  0  0  0  0  0
  196.0380  172.7520  145.6840 C   0  0  2  0  0  3  0  0  0  0  0  0
  192.4650  171.7170  143.0410 C   0  0  0  0  0  0  0  0  0  0  0  0
  194.3740  173.1520  143.7800 C   0  0  2  0  0  3  0  0  0  0  0  0
  196.6940  172.6070  143.3450 O   0  0  0  0  0  1  0  0  0  0  0  0
  197.1900  173.4990  146.3240 C   0  0  0  0  0  1  0  0  0  0  0  0
  195.3580  170.3400  145.0000 C   0  0  0  0  0  2  0  0  0  0  0  0
  190.2370  175.1490  142.9090 N   0  0  2  0  0  0  0  0  0  0  0  0
  190.2670  178.0140  144.3700 C   0  0  0  0  0  2  0  0  0  0  0  0
  193.4510  173.9790  144.6830 C   0  0  0  0  0  2  0  0  0  0  0  0
  193.9420  170.8670  144.8520 C   0  0  0  0  0  2  0  0  0  0  0  0
  191.2200  175.2560  144.0150 C   0  0  1  0  0  3  0  0  0  0  0  0
  187.9250  175.5900  142.3560 C   0  0  0  0  0  2  0  0  0  0  0  0
  193.8630  171.7110  143.5830 C   0  0  1  0  0  3  0  0  0  0  0  0
  196.2570  171.2420  145.8480 C   0  0  0  0  0  2  0  0  0  0  0  0
  189.0810  177.0680  144.1000 C   0  0  2  0  0  3  0  0  0  0  0  0
  191.5840  172.7680  143.3400 C   0  0  0  0  0  0  0  0  0  0  0  0
  195.8340  173.2430  144.2440 C   0  0  2  0  0  3  0  0  0  0  0  0
  191.9740  173.9090  144.2600 C   0  0  1  0  0  3  0  0  0  0  0  0
  190.7290  170.6910  141.7090 C   0  0  0  0  0  3  0  0  0  0  0  0
  191.4950  177.7580  143.4920 C   0  0  0  0  0  2  0  0  0  0  0  0
  192.0290  170.6690  142.2250 C   0  0  0  0  0  3  0  0  0  0  0  0
  192.1870  176.4320  143.8040 C   0  0  0  0  0  2  0  0  0  0  0  0
  189.2410  176.2340  142.8040 C   0  0  1  0  0  3  0  0  0  0  0  0
  189.8960  171.7300  141.9910 N   0  0  0  0  0  0  0  0  0  0  0  0
  189.4380  173.9430  143.0810 C   0  0  2  0  0  3  0  0  0  0  0  0
  187.8570  177.8550  144.0650 N   0  0  0  0  0  2  0  0  0  0  0  0
  187.2460  177.7460  145.3790 C   0  0  0  0  0  2  0  0  0  0  0  0
  183.7640  178.6940  145.8210 N   0  0  0  0  0  0  0  0  0  0  0  0
  185.2980  179.0070  144.3070 C   0  0  0  0  0  3  0  0  0  0  0  0
  185.8590  178.2810  145.3330 C   0  0  0  0  0  0  0  0  0  0  0  0
  184.0170  179.2460  144.6440 N   0  0  0  0  0  0  0  0  0  0  0  0
  184.8750  178.0830  146.2740 C   0  0  0  0  0  2  0  0  0  0  0  0
  1 27  1  0  0  0  0
  1 18  1  0  0  0  0
  2 14  1  0  0  0  0
  2 27  1  0  0  0  0
  3 16  1  0  0  0  0
  3  7  1  6  0  0  0
  4 18  2  0  0  0  0
  4 15  1  0  0  0  0
  5 19  1  0  0  0  0
  5 11  1  1  0  0  0
  6 19  1  0  0  0  0
  8 16  1  0  0  0  0
  9 27  1  0  0  0  0
  9 13  1  0  0  0  0
 12  8  1  0  0  0  0
 13 20  1  0  0  0  0
 14 25  1  0  0  0  0
 15  5  1  0  0  0  0
 15 12  1  0  0  0  0
 17 10  1  0  0  0  0
 18 20  1  0  0  0  0
 19  3  1  0  0  0  0
 20 11  1  0  0  0  0
 21 26  1  0  0  0  0
 21 23  2  0  0  0  0
 22 24  1  0  0  0  0
 22 10  1  0  0  0  0
 23  4  1  0  0  0  0
 24 13  1  0  0  0  0
 25  9  1  0  0  0  0
 25 17  1  0  0  0  0
 26  1  2  0  0  0  0
 28 17  1  0  0  0  0
 28 29  1  0  0  0  0
 30 34  1  0  0  0  0
 31 33  1  0  0  0  0
 31 32  2  0  0  0  0
 32 29  1  0  0  0  0
 32 34  1  0  0  0  0
 33 30  2  0  0  0  0
M  END
>  <MODEL>
9

>  <REMARK>
 VINA RESULT:      -8.0      3.861      8.593
  Name = 
  3 active torsions:
  status: ('A' for Active; 'I' for Inactive)
    1  A    between atoms: C_17  and  N_28
    2  A    between atoms: N_28  and  C_29
    3  A    between atoms: C_29  and  C_32
                            x       y       z     vdW  Elec       q    Type
                         _______ _______ _______ _____ _____    ______ ____

>  <TORSDO>
F 3

$$$$
