=
 OpenBabel11112417183D

 37 43  0  0  1  0  0  0  0  0999 V2000
  194.9210  174.2150  143.4810 C   0  0  0  0  0  0  0  0  0  0  0  0
  191.6650  176.0680  145.3380 C   0  0  0  0  0  0  0  0  0  0  0  0
  188.1860  175.7280  143.6640 O   0  0  0  0  0  0  0  0  0  0  0  0
  194.0540  175.6120  145.4300 C   0  0  0  0  0  0  0  0  0  0  0  0
  190.6820  175.9120  144.3360 C   0  0  0  0  0  0  0  0  0  0  0  0
  192.8320  175.6190  144.7880 C   0  0  0  0  0  0  0  0  0  0  0  0
  189.2020  176.4290  144.3980 C   0  0  2  0  0  3  0  0  0  0  0  0
  194.1030  176.1220  146.7320 C   0  0  0  0  0  3  0  0  0  0  0  0
  192.6060  175.2010  143.5270 C   0  0  0  0  0  0  0  0  0  0  0  0
  194.6250  172.8230  144.0140 C   0  0  0  0  0  1  0  0  0  0  0  0
  190.4830  177.0600  147.3970 C   0  0  0  0  0  2  0  0  0  0  0  0
  192.9200  176.5970  147.3410 C   0  0  0  0  0  3  0  0  0  0  0  0
  193.7150  174.7100  142.6400 C   0  0  0  0  0  2  0  0  0  0  0  0
  188.1750  174.4680  141.6750 C   0  0  1  0  0  3  0  0  0  0  0  0
  188.7700  174.7160  142.9900 N   0  0  1  0  0  0  0  0  0  0  0  0
  191.6860  176.5890  146.6530 C   0  0  0  0  0  0  0  0  0  0  0  0
  191.3110  175.3950  143.2090 N   0  0  0  0  0  0  0  0  0  0  0  0
  195.2720  175.1560  144.6660 C   0  0  0  0  0  2  0  0  0  0  0  0
  188.6650  176.7600  145.7980 C   0  0  1  0  0  3  0  0  0  0  0  0
  196.1290  174.1210  142.5730 C   0  0  0  0  0  1  0  0  0  0  0  0
  189.3140  175.3950  141.8050 C   0  0  1  0  0  3  0  0  0  0  0  0
  190.7660  175.0170  141.8910 C   0  0  0  0  0  2  0  0  0  0  0  0
  189.5180  177.7930  146.5000 C   0  0  0  0  0  2  0  0  0  0  0  0
  186.2750  176.5420  146.5060 C   0  0  0  0  0  3  0  0  0  0  0  0
  187.2410  177.2350  145.7670 C   0  0  0  0  0  0  0  0  0  0  0  0
  186.8630  178.3550  145.0080 C   0  0  0  0  0  3  0  0  0  0  0  0
  185.1500  179.9070  144.2230 N   0  0  0  0  0  1  0  0  0  0  0  0
  184.5690  178.0780  145.7330 C   0  0  0  0  0  3  0  0  0  0  0  0
  185.5290  178.7730  144.9920 C   0  0  0  0  0  0  0  0  0  0  0  0
  184.9420  176.9630  146.4900 C   0  0  0  0  0  3  0  0  0  0  0  0
  188.5940  173.1260  141.1600 C   0  0  0  0  0  0  0  0  0  0  0  0
  188.9280  172.9690  139.7790 N   0  0  0  0  0  2  0  0  0  0  0  0
  188.6190  172.1350  141.9390 O   0  0  0  0  0  0  0  0  0  0  0  0
  190.6800  171.4000  139.6640 O   0  0  0  0  0  1  0  0  0  0  0  0
  189.3860  171.7010  139.2200 C   0  0  2  0  0  3  0  0  0  0  0  0
  189.0400  173.0060  137.3740 C   0  0  0  0  0  1  0  0  0  0  0  0
  189.3080  171.6990  137.8110 O   0  0  0  0  0  0  0  0  0  0  0  0
  1 10  1  0  0  0  0
  1 18  1  0  0  0  0
  2 16  1  0  0  0  0
  4  8  2  0  0  0  0
  5  7  1  0  0  0  0
  5  2  2  0  0  0  0
  6  2  1  0  0  0  0
  6  4  1  0  0  0  0
  7  3  1  1  0  0  0
  7 19  1  0  0  0  0
  8 12  1  0  0  0  0
  9  6  2  0  0  0  0
 13  1  1  0  0  0  0
 13  9  1  0  0  0  0
 14 31  1  6  0  0  0
 14 21  1  0  0  0  0
 14 15  1  0  0  0  0
 15  3  1  1  0  0  0
 16 12  2  0  0  0  0
 16 11  1  0  0  0  0
 17  9  1  0  0  0  0
 17  5  1  0  0  0  0
 18  4  1  0  0  0  0
 19 25  1  6  0  0  0
 19 23  1  0  0  0  0
 20  1  1  0  0  0  0
 21 22  1  6  0  0  0
 21 15  1  0  0  0  0
 22 17  1  0  0  0  0
 23 11  1  0  0  0  0
 25 24  2  0  0  0  0
 26 25  1  0  0  0  0
 27 29  1  0  0  0  0
 28 30  2  0  0  0  0
 29 26  2  0  0  0  0
 29 28  1  0  0  0  0
 30 24  1  0  0  0  0
 31 33  2  0  0  0  0
 32 31  1  0  0  0  0
 35 34  1  6  0  0  0
 35 32  1  0  0  0  0
 36 37  1  0  0  0  0
 37 35  1  0  0  0  0
M  END
>  <MODEL>
1

>  <REMARK>
 VINA RESULT:      -8.7      0.000      0.000
  Name = 
  4 active torsions:
  status: ('A' for Active; 'I' for Inactive)
    1  A    between atoms: C_4  and  N_12
    2  A    between atoms: C_4  and  O_37
    3  A    between atoms: C_8  and  C_18
    4  A    between atoms: C_23  and  C_30
                            x       y       z     vdW  Elec       q    Type
                         _______ _______ _______ _____ _____    ______ ____

>  <TORSDO>
F 4

$$$$
=
 OpenBabel11112417183D

 37 43  0  0  1  0  0  0  0  0999 V2000
  192.2480  171.5750  142.0170 C   0  0  0  0  0  0  0  0  0  0  0  0
  189.1710  174.4060  141.9650 C   0  0  0  0  0  0  0  0  0  0  0  0
  188.5270  176.4460  145.1960 O   0  0  0  0  0  0  0  0  0  0  0  0
  190.3960  172.7270  140.6980 C   0  0  0  0  0  0  0  0  0  0  0  0
  189.1150  174.7410  143.3350 C   0  0  0  0  0  0  0  0  0  0  0  0
  190.0590  173.3710  141.8700 C   0  0  0  0  0  0  0  0  0  0  0  0
  188.1230  175.7560  144.0030 C   0  0  2  0  0  3  0  0  0  0  0  0
  189.7650  173.1520  139.5220 C   0  0  0  0  0  3  0  0  0  0  0  0
  190.5370  173.0740  143.0950 C   0  0  0  0  0  0  0  0  0  0  0  0
  193.3730  172.5730  141.8010 C   0  0  0  0  0  1  0  0  0  0  0  0
  187.5740  176.0060  140.7370 C   0  0  0  0  0  2  0  0  0  0  0  0
  188.8410  174.2180  139.5720 C   0  0  0  0  0  3  0  0  0  0  0  0
  191.4890  171.9330  143.3220 C   0  0  0  0  0  2  0  0  0  0  0  0
  189.9600  175.9190  146.9890 C   0  0  1  0  0  3  0  0  0  0  0  0
  189.7570  176.0130  145.5420 N   0  0  1  0  0  0  0  0  0  0  0  0
  188.5200  174.8550  140.7930 C   0  0  0  0  0  0  0  0  0  0  0  0
  189.9590  173.8700  144.0160 N   0  0  0  0  0  0  0  0  0  0  0  0
  191.3350  171.5480  140.7610 C   0  0  0  0  0  2  0  0  0  0  0  0
  187.4470  176.7570  143.0550 C   0  0  1  0  0  3  0  0  0  0  0  0
  192.8660  170.2030  142.1870 C   0  0  0  0  0  1  0  0  0  0  0  0
  189.4660  174.7520  146.2380 C   0  0  1  0  0  3  0  0  0  0  0  0
  190.2990  173.7820  145.4480 C   0  0  0  0  0  2  0  0  0  0  0  0
  186.6830  176.0610  141.9510 C   0  0  0  0  0  2  0  0  0  0  0  0
  186.4070  179.0170  143.3250 C   0  0  0  0  0  3  0  0  0  0  0  0
  186.5260  177.6970  143.7770 C   0  0  0  0  0  0  0  0  0  0  0  0
  185.7870  177.2770  144.8960 C   0  0  0  0  0  3  0  0  0  0  0  0
  184.1940  177.7450  146.6850 N   0  0  0  0  0  1  0  0  0  0  0  0
  184.8240  179.4900  145.0970 C   0  0  0  0  0  3  0  0  0  0  0  0
  184.9400  178.1730  145.5530 C   0  0  0  0  0  0  0  0  0  0  0  0
  185.5580  179.9110  143.9840 C   0  0  0  0  0  3  0  0  0  0  0  0
  191.4190  175.8140  147.3040 C   0  0  0  0  0  0  0  0  0  0  0  0
  192.3780  176.4170  146.4330 N   0  0  0  0  0  2  0  0  0  0  0  0
  191.7970  175.1660  148.3180 O   0  0  0  0  0  0  0  0  0  0  0  0
  194.4350  177.5400  146.1980 O   0  0  0  0  0  1  0  0  0  0  0  0
  193.8130  176.3910  146.7030 C   0  0  2  0  0  3  0  0  0  0  0  0
  195.2450  175.5560  145.1280 C   0  0  0  0  0  1  0  0  0  0  0  0
  194.4100  175.2150  146.2030 O   0  0  0  0  0  0  0  0  0  0  0  0
  1 20  1  0  0  0  0
  1 13  1  0  0  0  0
  2  5  2  0  0  0  0
  4 18  1  0  0  0  0
  4  6  1  0  0  0  0
  5 17  1  0  0  0  0
  6  2  1  0  0  0  0
  6  9  2  0  0  0  0
  7  5  1  6  0  0  0
  7  3  1  0  0  0  0
  8 12  1  0  0  0  0
  8  4  2  0  0  0  0
  9 13  1  0  0  0  0
  9 17  1  0  0  0  0
 10  1  1  0  0  0  0
 11 16  1  0  0  0  0
 11 23  1  0  0  0  0
 12 16  2  0  0  0  0
 14 31  1  6  0  0  0
 15  3  1  1  0  0  0
 15 21  1  0  0  0  0
 15 14  1  0  0  0  0
 16  2  1  0  0  0  0
 17 22  1  0  0  0  0
 18  1  1  0  0  0  0
 19 25  1  1  0  0  0
 19  7  1  0  0  0  0
 21 22  1  6  0  0  0
 21 14  1  0  0  0  0
 23 19  1  0  0  0  0
 24 25  2  0  0  0  0
 24 30  1  0  0  0  0
 25 26  1  0  0  0  0
 26 29  2  0  0  0  0
 28 29  1  0  0  0  0
 29 27  1  0  0  0  0
 30 28  2  0  0  0  0
 31 33  2  0  0  0  0
 32 35  1  0  0  0  0
 32 31  1  0  0  0  0
 35 34  1  6  0  0  0
 36 37  1  0  0  0  0
 37 35  1  0  0  0  0
M  END
>  <MODEL>
2

>  <REMARK>
 VINA RESULT:      -8.1      2.855      5.783
  Name = 
  4 active torsions:
  status: ('A' for Active; 'I' for Inactive)
    1  A    between atoms: C_4  and  N_12
    2  A    between atoms: C_4  and  O_37
    3  A    between atoms: C_8  and  C_18
    4  A    between atoms: C_23  and  C_30
                            x       y       z     vdW  Elec       q    Type
                         _______ _______ _______ _____ _____    ______ ____

>  <TORSDO>
F 4

$$$$
=
 OpenBabel11112417183D

 37 43  0  0  1  0  0  0  0  0999 V2000
  195.6090  173.5210  144.5260 C   0  0  0  0  0  0  0  0  0  0  0  0
  192.0540  175.6980  144.8500 C   0  0  0  0  0  0  0  0  0  0  0  0
  189.1410  174.7820  142.4640 O   0  0  0  0  0  0  0  0  0  0  0  0
  194.3100  175.3720  145.7040 C   0  0  0  0  0  0  0  0  0  0  0  0
  191.3700  175.2350  143.7050 C   0  0  0  0  0  0  0  0  0  0  0  0
  193.3070  175.1570  144.7810 C   0  0  0  0  0  0  0  0  0  0  0  0
  189.9510  175.6950  143.2210 C   0  0  2  0  0  3  0  0  0  0  0  0
  194.0290  176.2250  146.7770 C   0  0  0  0  0  3  0  0  0  0  0  0
  193.4100  174.3980  143.6720 C   0  0  0  0  0  0  0  0  0  0  0  0
  195.1230  172.3220  145.3230 C   0  0  0  0  0  1  0  0  0  0  0  0
  190.4060  177.1800  146.1570 C   0  0  0  0  0  2  0  0  0  0  0  0
  192.7470  176.8080  146.8890 C   0  0  0  0  0  3  0  0  0  0  0  0
  194.6940  173.7200  143.2890 C   0  0  0  0  0  2  0  0  0  0  0  0
  189.6120  173.0190  140.9750 C   0  0  1  0  0  3  0  0  0  0  0  0
  189.8420  173.6440  142.2800 N   0  0  1  0  0  0  0  0  0  0  0  0
  191.7440  176.5640  145.9240 C   0  0  0  0  0  0  0  0  0  0  0  0
  192.2560  174.4490  142.9770 N   0  0  0  0  0  0  0  0  0  0  0  0
  195.6680  174.7660  145.4530 C   0  0  0  0  0  2  0  0  0  0  0  0
  189.0720  176.3820  144.2760 C   0  0  1  0  0  3  0  0  0  0  0  0
  197.0110  173.2220  144.0390 C   0  0  0  0  0  1  0  0  0  0  0  0
  190.7100  173.9870  141.1450 C   0  0  1  0  0  3  0  0  0  0  0  0
  192.0690  173.7010  141.7200 C   0  0  0  0  0  2  0  0  0  0  0  0
  189.7480  177.5990  144.8680 C   0  0  0  0  0  2  0  0  0  0  0  0
  186.6140  176.7380  144.5770 C   0  0  0  0  0  3  0  0  0  0  0  0
  187.7290  176.7780  143.7330 C   0  0  0  0  0  0  0  0  0  0  0  0
  187.5740  177.1820  142.3970 C   0  0  0  0  0  3  0  0  0  0  0  0
  186.1600  177.9490  140.5610 N   0  0  0  0  0  1  0  0  0  0  0  0
  185.2020  177.5000  142.7620 C   0  0  0  0  0  3  0  0  0  0  0  0
  186.3130  177.5410  141.9140 C   0  0  0  0  0  0  0  0  0  0  0  0
  185.3530  177.0990  144.0930 C   0  0  0  0  0  3  0  0  0  0  0  0
  190.0970  171.6040  140.9840 C   0  0  0  0  0  0  0  0  0  0  0  0
  190.4960  170.9830  139.7600 N   0  0  0  0  0  2  0  0  0  0  0  0
  190.1210  170.9560  142.0660 O   0  0  0  0  0  0  0  0  0  0  0  0
  192.3740  169.5950  140.0600 O   0  0  0  0  0  1  0  0  0  0  0  0
  191.0200  169.6220  139.7030 C   0  0  2  0  0  3  0  0  0  0  0  0
  189.7930  169.7540  137.7780 C   0  0  0  0  0  1  0  0  0  0  0  0
  190.8060  169.0390  138.4360 O   0  0  0  0  0  0  0  0  0  0  0  0
  1 10  1  0  0  0  0
  1 18  1  0  0  0  0
  2 16  1  0  0  0  0
  4  8  2  0  0  0  0
  5  2  2  0  0  0  0
  6  2  1  0  0  0  0
  6  4  1  0  0  0  0
  7  3  1  1  0  0  0
  7  5  1  0  0  0  0
  7 19  1  0  0  0  0
  8 12  1  0  0  0  0
  9  6  2  0  0  0  0
 13  9  1  0  0  0  0
 13  1  1  0  0  0  0
 14 31  1  1  0  0  0
 14 21  1  0  0  0  0
 14 15  1  0  0  0  0
 15  3  1  6  0  0  0
 16 11  1  0  0  0  0
 16 12  2  0  0  0  0
 17  9  1  0  0  0  0
 17  5  1  0  0  0  0
 18  4  1  0  0  0  0
 19 25  1  6  0  0  0
 19 23  1  0  0  0  0
 20  1  1  0  0  0  0
 21 22  1  1  0  0  0
 21 15  1  0  0  0  0
 22 17  1  0  0  0  0
 23 11  1  0  0  0  0
 25 24  2  0  0  0  0
 26 25  1  0  0  0  0
 27 29  1  0  0  0  0
 28 30  2  0  0  0  0
 29 26  2  0  0  0  0
 29 28  1  0  0  0  0
 30 24  1  0  0  0  0
 31 33  2  0  0  0  0
 32 31  1  0  0  0  0
 35 32  1  0  0  0  0
 35 34  1  6  0  0  0
 36 37  1  0  0  0  0
 37 35  1  0  0  0  0
M  END
>  <MODEL>
3

>  <REMARK>
 VINA RESULT:      -7.8      1.826      2.063
  Name = 
  4 active torsions:
  status: ('A' for Active; 'I' for Inactive)
    1  A    between atoms: C_4  and  N_12
    2  A    between atoms: C_4  and  O_37
    3  A    between atoms: C_8  and  C_18
    4  A    between atoms: C_23  and  C_30
                            x       y       z     vdW  Elec       q    Type
                         _______ _______ _______ _____ _____    ______ ____

>  <TORSDO>
F 4

$$$$
=
 OpenBabel11112417183D

 37 43  0  0  1  0  0  0  0  0999 V2000
  189.9270  175.1100  146.6390 C   0  0  0  0  0  0  0  0  0  0  0  0
  193.5170  175.3540  144.5070 C   0  0  0  0  0  0  0  0  0  0  0  0
  193.6870  173.6370  141.0370 O   0  0  0  0  0  0  0  0  0  0  0  0
  192.3250  175.9700  146.5390 C   0  0  0  0  0  0  0  0  0  0  0  0
  193.2490  174.4460  143.4600 C   0  0  0  0  0  0  0  0  0  0  0  0
  192.4560  175.2590  145.3640 C   0  0  0  0  0  0  0  0  0  0  0  0
  194.2300  174.0490  142.3010 C   0  0  2  0  0  3  0  0  0  0  0  0
  193.3670  176.8390  146.8880 C   0  0  0  0  0  3  0  0  0  0  0  0
  191.5730  174.3570  144.8900 C   0  0  0  0  0  0  0  0  0  0  0  0
  189.2260  176.2230  145.8780 C   0  0  0  0  0  1  0  0  0  0  0  0
  195.7720  176.4700  143.9720 C   0  0  0  0  0  2  0  0  0  0  0  0
  194.4830  176.9700  146.0320 C   0  0  0  0  0  3  0  0  0  0  0  0
  190.3300  173.9860  145.6490 C   0  0  0  0  0  2  0  0  0  0  0  0
  191.6980  172.5600  140.3790 C   0  0  1  0  0  3  0  0  0  0  0  0
  192.3410  173.6410  141.1310 N   0  0  1  0  0  0  0  0  0  0  0  0
  194.5820  176.2230  144.8370 C   0  0  0  0  0  0  0  0  0  0  0  0
  192.0410  173.8190  143.7460 N   0  0  0  0  0  0  0  0  0  0  0  0
  191.1320  175.7020  147.4210 C   0  0  0  0  0  2  0  0  0  0  0  0
  195.3970  175.0140  142.0510 C   0  0  1  0  0  3  0  0  0  0  0  0
  188.9460  174.5350  147.6390 C   0  0  0  0  0  1  0  0  0  0  0  0
  192.0650  172.3570  141.7920 C   0  0  1  0  0  3  0  0  0  0  0  0
  191.2790  172.8080  142.9900 C   0  0  0  0  0  2  0  0  0  0  0  0
  196.2420  175.2110  143.2900 C   0  0  0  0  0  2  0  0  0  0  0  0
  197.0700  173.4230  141.0840 C   0  0  0  0  0  3  0  0  0  0  0  0
  196.2770  174.5650  140.9200 C   0  0  0  0  0  0  0  0  0  0  0  0
  196.3210  175.2720  139.7060 C   0  0  0  0  0  3  0  0  0  0  0  0
  197.1940  175.5540  137.4440 N   0  0  0  0  0  1  0  0  0  0  0  0
  197.9410  173.6950  138.8400 C   0  0  0  0  0  3  0  0  0  0  0  0
  197.1520  174.8360  138.6710 C   0  0  0  0  0  0  0  0  0  0  0  0
  197.8990  172.9890  140.0470 C   0  0  0  0  0  3  0  0  0  0  0  0
  190.2390  172.8430  140.2070 C   0  0  0  0  0  0  0  0  0  0  0  0
  189.7490  174.1740  140.3820 N   0  0  0  0  0  2  0  0  0  0  0  0
  189.4450  171.9000  139.9410 O   0  0  0  0  0  0  0  0  0  0  0  0
  188.0720  174.7470  138.8300 O   0  0  0  0  0  1  0  0  0  0  0  0
  188.3460  174.5270  140.1860 C   0  0  2  0  0  3  0  0  0  0  0  0
  188.8570  175.7240  142.0670 C   0  0  0  0  0  1  0  0  0  0  0  0
  187.9780  175.6370  140.9760 O   0  0  0  0  0  0  0  0  0  0  0  0
  1 18  1  0  0  0  0
  1 20  1  0  0  0  0
  2 16  1  0  0  0  0
  2  6  1  0  0  0  0
  4  8  2  0  0  0  0
  4 18  1  0  0  0  0
  5 17  1  0  0  0  0
  5  2  2  0  0  0  0
  6  4  1  0  0  0  0
  7  3  1  6  0  0  0
  7  5  1  0  0  0  0
  9  6  2  0  0  0  0
  9 13  1  0  0  0  0
 10  1  1  0  0  0  0
 11 16  1  0  0  0  0
 12  8  1  0  0  0  0
 13  1  1  0  0  0  0
 14 31  1  1  0  0  0
 14 15  1  0  0  0  0
 14 21  1  0  0  0  0
 15  3  1  6  0  0  0
 15 21  1  0  0  0  0
 16 12  2  0  0  0  0
 17  9  1  0  0  0  0
 19 25  1  6  0  0  0
 19  7  1  0  0  0  0
 19 23  1  0  0  0  0
 21 22  1  1  0  0  0
 22 17  1  0  0  0  0
 23 11  1  0  0  0  0
 25 24  1  0  0  0  0
 26 25  2  0  0  0  0
 27 29  1  0  0  0  0
 28 30  1  0  0  0  0
 29 28  2  0  0  0  0
 29 26  1  0  0  0  0
 30 24  2  0  0  0  0
 31 32  1  0  0  0  0
 33 31  2  0  0  0  0
 35 34  1  6  0  0  0
 35 32  1  0  0  0  0
 35 37  1  0  0  0  0
 37 36  1  0  0  0  0
M  END
>  <MODEL>
4

>  <REMARK>
 VINA RESULT:      -7.7      2.572      7.183
  Name = 
  4 active torsions:
  status: ('A' for Active; 'I' for Inactive)
    1  A    between atoms: C_4  and  N_12
    2  A    between atoms: C_4  and  O_37
    3  A    between atoms: C_8  and  C_18
    4  A    between atoms: C_23  and  C_30
                            x       y       z     vdW  Elec       q    Type
                         _______ _______ _______ _____ _____    ______ ____

>  <TORSDO>
F 4

$$$$
=
 OpenBabel11112417183D

 37 43  0  0  1  0  0  0  0  0999 V2000
  190.9660  176.5630  147.0140 C   0  0  0  0  0  0  0  0  0  0  0  0
  187.2480  177.9150  145.6580 C   0  0  0  0  0  0  0  0  0  0  0  0
  186.1090  176.8400  142.1140 O   0  0  0  0  0  0  0  0  0  0  0  0
  188.8520  177.9060  147.4900 C   0  0  0  0  0  0  0  0  0  0  0  0
  187.3150  177.5170  144.3050 C   0  0  0  0  0  0  0  0  0  0  0  0
  188.4810  177.6490  146.1860 C   0  0  0  0  0  0  0  0  0  0  0  0
  186.2170  177.7610  143.2110 C   0  0  2  0  0  3  0  0  0  0  0  0
  187.9010  178.5020  148.3270 C   0  0  0  0  0  3  0  0  0  0  0  0
  189.2730  177.1150  145.2360 C   0  0  0  0  0  0  0  0  0  0  0  0
  190.4840  175.1790  147.4160 C   0  0  0  0  0  1  0  0  0  0  0  0
  184.8700  178.8110  146.0590 C   0  0  0  0  0  2  0  0  0  0  0  0
  186.6140  178.7950  147.8250 C   0  0  0  0  0  3  0  0  0  0  0  0
  190.7120  176.7740  145.4990 C   0  0  0  0  0  2  0  0  0  0  0  0
  187.6420  175.4690  140.9660 C   0  0  1  0  0  3  0  0  0  0  0  0
  187.0760  175.9080  142.2440 N   0  0  1  0  0  0  0  0  0  0  0  0
  186.2700  178.5180  146.4820 C   0  0  0  0  0  0  0  0  0  0  0  0
  188.6020  177.0490  144.0680 N   0  0  0  0  0  0  0  0  0  0  0  0
  190.2740  177.6290  147.9080 C   0  0  0  0  0  2  0  0  0  0  0  0
  184.8090  178.0810  143.7320 C   0  0  1  0  0  3  0  0  0  0  0  0
  192.4580  176.6300  147.2620 C   0  0  0  0  0  1  0  0  0  0  0  0
  188.2540  176.5940  141.6950 C   0  0  1  0  0  3  0  0  0  0  0  0
  189.2140  176.4920  142.8470 C   0  0  0  0  0  2  0  0  0  0  0  0
  184.8040  179.2960  144.6340 C   0  0  0  0  0  2  0  0  0  0  0  0
  184.2350  178.1010  141.2970 C   0  0  0  0  0  3  0  0  0  0  0  0
  183.8210  178.2870  142.6200 C   0  0  0  0  0  0  0  0  0  0  0  0
  182.4940  178.6650  142.8860 C   0  0  0  0  0  3  0  0  0  0  0  0
  180.2540  179.2380  142.1050 N   0  0  0  0  0  1  0  0  0  0  0  0
  182.0150  178.6670  140.5130 C   0  0  0  0  0  3  0  0  0  0  0  0
  181.5960  178.8550  141.8330 C   0  0  0  0  0  0  0  0  0  0  0  0
  183.3350  178.2900  140.2450 C   0  0  0  0  0  3  0  0  0  0  0  0
  188.4050  174.1950  141.1460 C   0  0  0  0  0  0  0  0  0  0  0  0
  189.5280  173.9160  140.3070 N   0  0  0  0  0  2  0  0  0  0  0  0
  188.0350  173.3600  142.0160 O   0  0  0  0  0  0  0  0  0  0  0  0
  191.2890  172.8790  141.4760 O   0  0  0  0  0  1  0  0  0  0  0  0
  190.3430  172.7140  140.4570 C   0  0  2  0  0  3  0  0  0  0  0  0
  190.7980  173.4010  138.3240 C   0  0  0  0  0  1  0  0  0  0  0  0
  190.9510  172.3470  139.2380 O   0  0  0  0  0  0  0  0  0  0  0  0
  1 20  1  0  0  0  0
  1 10  1  0  0  0  0
  1 18  1  0  0  0  0
  2  6  1  0  0  0  0
  2 16  1  0  0  0  0
  4 18  1  0  0  0  0
  4  8  2  0  0  0  0
  5  2  2  0  0  0  0
  6  4  1  0  0  0  0
  7  3  1  1  0  0  0
  7 19  1  0  0  0  0
  7  5  1  0  0  0  0
  9 13  1  0  0  0  0
  9  6  2  0  0  0  0
 11 16  1  0  0  0  0
 12  8  1  0  0  0  0
 13  1  1  0  0  0  0
 14 31  1  1  0  0  0
 14 21  1  0  0  0  0
 14 15  1  0  0  0  0
 15  3  1  6  0  0  0
 16 12  2  0  0  0  0
 17  5  1  0  0  0  0
 17  9  1  0  0  0  0
 19 25  1  6  0  0  0
 19 23  1  0  0  0  0
 21 15  1  0  0  0  0
 21 22  1  1  0  0  0
 22 17  1  0  0  0  0
 23 11  1  0  0  0  0
 24 25  1  0  0  0  0
 25 26  2  0  0  0  0
 28 29  2  0  0  0  0
 29 27  1  0  0  0  0
 29 26  1  0  0  0  0
 30 28  1  0  0  0  0
 30 24  2  0  0  0  0
 31 33  2  0  0  0  0
 32 35  1  0  0  0  0
 32 31  1  0  0  0  0
 35 34  1  1  0  0  0
 36 37  1  0  0  0  0
 37 35  1  0  0  0  0
M  END
>  <MODEL>
5

>  <REMARK>
 VINA RESULT:      -7.7      2.589      4.590
  Name = 
  4 active torsions:
  status: ('A' for Active; 'I' for Inactive)
    1  A    between atoms: C_4  and  N_12
    2  A    between atoms: C_4  and  O_37
    3  A    between atoms: C_8  and  C_18
    4  A    between atoms: C_23  and  C_30
                            x       y       z     vdW  Elec       q    Type
                         _______ _______ _______ _____ _____    ______ ____

>  <TORSDO>
F 4

$$$$
=
 OpenBabel11112417183D

 37 43  0  0  1  0  0  0  0  0999 V2000
  187.0410  176.9970  143.1210 C   0  0  0  0  0  0  0  0  0  0  0  0
  190.5080  175.7120  145.0750 C   0  0  0  0  0  0  0  0  0  0  0  0
  192.7590  173.1290  143.2630 O   0  0  0  0  0  0  0  0  0  0  0  0
  188.5430  177.1460  145.1760 C   0  0  0  0  0  0  0  0  0  0  0  0
  190.8970  174.6540  144.2250 C   0  0  0  0  0  0  0  0  0  0  0  0
  189.2910  176.1320  144.6140 C   0  0  0  0  0  0  0  0  0  0  0  0
  192.1390  173.7160  144.4190 C   0  0  2  0  0  3  0  0  0  0  0  0
  189.0600  177.7760  146.3140 C   0  0  0  0  0  3  0  0  0  0  0  0
  188.9360  175.3950  143.5420 C   0  0  0  0  0  0  0  0  0  0  0  0
  187.7400  178.0020  142.2210 C   0  0  0  0  0  1  0  0  0  0  0  0
  192.3900  176.0150  146.8020 C   0  0  0  0  0  2  0  0  0  0  0  0
  190.3140  177.3740  146.8260 C   0  0  0  0  0  3  0  0  0  0  0  0
  187.6140  175.5810  142.8530 C   0  0  0  0  0  2  0  0  0  0  0  0
  191.9790  172.4670  141.1420 C   0  0  1  0  0  3  0  0  0  0  0  0
  192.0640  173.5070  142.1700 N   0  0  1  0  0  0  0  0  0  0  0  0
  191.0520  176.3310  146.2230 C   0  0  0  0  0  0  0  0  0  0  0  0
  189.8790  174.4640  143.2970 N   0  0  0  0  0  0  0  0  0  0  0  0
  187.1820  177.4470  144.6010 C   0  0  0  0  0  2  0  0  0  0  0  0
  193.2340  174.2380  145.3590 C   0  0  1  0  0  3  0  0  0  0  0  0
  185.5700  176.9920  142.7630 C   0  0  0  0  0  1  0  0  0  0  0  0
  190.9320  172.5690  142.1740 C   0  0  1  0  0  3  0  0  0  0  0  0
  189.7670  173.5180  142.1710 C   0  0  0  0  0  2  0  0  0  0  0  0
  192.6960  174.5410  146.7400 C   0  0  0  0  0  2  0  0  0  0  0  0
  195.6950  173.7830  145.3880 C   0  0  0  0  0  3  0  0  0  0  0  0
  194.3890  173.2860  145.4780 C   0  0  0  0  0  0  0  0  0  0  0  0
  194.1830  171.9100  145.6720 C   0  0  0  0  0  3  0  0  0  0  0  0
  195.0610  169.6530  145.9710 N   0  0  0  0  0  1  0  0  0  0  0  0
  196.5760  171.5470  145.6850 C   0  0  0  0  0  3  0  0  0  0  0  0
  195.2750  171.0450  145.7750 C   0  0  0  0  0  0  0  0  0  0  0  0
  196.7860  172.9160  145.4910 C   0  0  0  0  0  3  0  0  0  0  0  0
  191.5480  173.0600  139.8380 C   0  0  0  0  0  0  0  0  0  0  0  0
  190.6260  172.3510  139.0070 N   0  0  0  0  0  2  0  0  0  0  0  0
  192.0240  174.1660  139.4640 O   0  0  0  0  0  0  0  0  0  0  0  0
  189.0810  173.7910  137.9660 O   0  0  0  0  0  1  0  0  0  0  0  0
  190.1300  172.8900  137.7440 C   0  0  2  0  0  3  0  0  0  0  0  0
  189.9740  170.6240  137.4810 C   0  0  0  0  0  1  0  0  0  0  0  0
  189.7510  171.8610  136.8570 O   0  0  0  0  0  0  0  0  0  0  0  0
  1 18  1  0  0  0  0
  2 16  1  0  0  0  0
  4  8  2  0  0  0  0
  5  7  1  0  0  0  0
  5  2  2  0  0  0  0
  6  2  1  0  0  0  0
  6  4  1  0  0  0  0
  7  3  1  6  0  0  0
  7 19  1  0  0  0  0
  8 12  1  0  0  0  0
  9  6  2  0  0  0  0
 10  1  1  0  0  0  0
 13  1  1  0  0  0  0
 13  9  1  0  0  0  0
 14 31  1  6  0  0  0
 14 15  1  0  0  0  0
 14 21  1  0  0  0  0
 15 21  1  0  0  0  0
 15  3  1  1  0  0  0
 16 11  1  0  0  0  0
 16 12  2  0  0  0  0
 17  9  1  0  0  0  0
 17  5  1  0  0  0  0
 18  4  1  0  0  0  0
 19 25  1  1  0  0  0
 19 23  1  0  0  0  0
 20  1  1  0  0  0  0
 21 22  1  6  0  0  0
 22 17  1  0  0  0  0
 23 11  1  0  0  0  0
 24 25  2  0  0  0  0
 24 30  1  0  0  0  0
 25 26  1  0  0  0  0
 26 29  2  0  0  0  0
 28 29  1  0  0  0  0
 29 27  1  0  0  0  0
 30 28  2  0  0  0  0
 32 31  1  0  0  0  0
 33 31  2  0  0  0  0
 35 34  1  1  0  0  0
 35 32  1  0  0  0  0
 37 36  1  0  0  0  0
 37 35  1  0  0  0  0
M  END
>  <MODEL>
6

>  <REMARK>
 VINA RESULT:      -7.6      2.354      6.670
  Name = 
  4 active torsions:
  status: ('A' for Active; 'I' for Inactive)
    1  A    between atoms: C_4  and  N_12
    2  A    between atoms: C_4  and  O_37
    3  A    between atoms: C_8  and  C_18
    4  A    between atoms: C_23  and  C_30
                            x       y       z     vdW  Elec       q    Type
                         _______ _______ _______ _____ _____    ______ ____

>  <TORSDO>
F 4

$$$$
=
 OpenBabel11112417183D

 37 43  0  0  1  0  0  0  0  0999 V2000
  196.5350  174.2400  139.9880 C   0  0  0  0  0  0  0  0  0  0  0  0
  194.1020  175.6760  143.0700 C   0  0  0  0  0  0  0  0  0  0  0  0
  190.4550  174.3780  143.2580 O   0  0  0  0  0  0  0  0  0  0  0  0
  196.3080  175.7310  142.0430 C   0  0  0  0  0  0  0  0  0  0  0  0
  192.8500  175.1660  142.6610 C   0  0  0  0  0  0  0  0  0  0  0  0
  194.9720  175.3880  142.0560 C   0  0  0  0  0  0  0  0  0  0  0  0
  191.4780  175.3780  143.3900 C   0  0  2  0  0  3  0  0  0  0  0  0
  196.8030  176.4440  143.1420 C   0  0  0  0  0  3  0  0  0  0  0  0
  194.3190  174.7350  141.0740 C   0  0  0  0  0  0  0  0  0  0  0  0
  196.8720  172.9220  140.6650 C   0  0  0  0  0  1  0  0  0  0  0  0
  193.7570  176.7300  145.3910 C   0  0  0  0  0  2  0  0  0  0  0  0
  195.9400  176.7640  144.2130 C   0  0  0  0  0  3  0  0  0  0  0  0
  194.9990  174.3400  139.7940 C   0  0  0  0  0  2  0  0  0  0  0  0
  189.8760  172.8360  141.5750 C   0  0  1  0  0  3  0  0  0  0  0  0
  190.9120  173.4080  142.4380 N   0  0  1  0  0  0  0  0  0  0  0  0
  194.5760  176.3970  144.1910 C   0  0  0  0  0  0  0  0  0  0  0  0
  193.0170  174.6110  141.3970 N   0  0  0  0  0  0  0  0  0  0  0  0
  197.1270  175.4110  140.8180 C   0  0  0  0  0  2  0  0  0  0  0  0
  191.5580  175.8160  144.8590 C   0  0  1  0  0  3  0  0  0  0  0  0
  197.1890  174.2450  138.6220 C   0  0  0  0  0  1  0  0  0  0  0  0
  190.6760  173.9820  141.1060 C   0  0  1  0  0  3  0  0  0  0  0  0
  192.0560  173.9230  140.5140 C   0  0  0  0  0  2  0  0  0  0  0  0
  192.3430  177.0990  145.0230 C   0  0  0  0  0  2  0  0  0  0  0  0
  189.8360  175.1560  146.5490 C   0  0  0  0  0  3  0  0  0  0  0  0
  190.2020  175.9840  145.4810 C   0  0  0  0  0  0  0  0  0  0  0  0
  189.2980  176.9500  145.0100 C   0  0  0  0  0  3  0  0  0  0  0  0
  187.1280  178.0610  145.1230 N   0  0  0  0  0  1  0  0  0  0  0  0
  187.6790  176.2530  146.6700 C   0  0  0  0  0  3  0  0  0  0  0  0
  188.0400  177.0820  145.6040 C   0  0  0  0  0  0  0  0  0  0  0  0
  188.5770  175.2910  147.1430 C   0  0  0  0  0  3  0  0  0  0  0  0
  190.3450  171.5410  140.9890 C   0  0  0  0  0  0  0  0  0  0  0  0
  190.0670  171.2400  139.6200 N   0  0  0  0  0  2  0  0  0  0  0  0
  190.9550  170.7100  141.7150 O   0  0  0  0  0  0  0  0  0  0  0  0
  191.8680  170.1420  138.5740 O   0  0  0  0  0  1  0  0  0  0  0  0
  190.5320  170.0160  138.9740 C   0  0  2  0  0  3  0  0  0  0  0  0
  189.6900  170.7020  136.9620 C   0  0  0  0  0  1  0  0  0  0  0  0
  189.6990  169.6540  137.8950 O   0  0  0  0  0  0  0  0  0  0  0  0
  1 10  1  0  0  0  0
  1 18  1  0  0  0  0
  2 16  1  0  0  0  0
  3  7  1  0  0  0  0
  4  6  1  0  0  0  0
  4  8  2  0  0  0  0
  5  2  2  0  0  0  0
  6  2  1  0  0  0  0
  7  5  1  1  0  0  0
  7 19  1  0  0  0  0
  8 12  1  0  0  0  0
  9 17  1  0  0  0  0
  9  6  2  0  0  0  0
 13  1  1  0  0  0  0
 13  9  1  0  0  0  0
 14 31  1  6  0  0  0
 14 15  1  0  0  0  0
 15  3  1  1  0  0  0
 16 12  2  0  0  0  0
 16 11  1  0  0  0  0
 17  5  1  0  0  0  0
 18  4  1  0  0  0  0
 19 23  1  0  0  0  0
 19 25  1  6  0  0  0
 20  1  1  0  0  0  0
 21 22  1  6  0  0  0
 21 14  1  0  0  0  0
 21 15  1  0  0  0  0
 22 17  1  0  0  0  0
 23 11  1  0  0  0  0
 24 30  1  0  0  0  0
 25 24  2  0  0  0  0
 26 25  1  0  0  0  0
 26 29  2  0  0  0  0
 27 29  1  0  0  0  0
 28 30  2  0  0  0  0
 29 28  1  0  0  0  0
 31 33  2  0  0  0  0
 32 31  1  0  0  0  0
 35 34  1  6  0  0  0
 35 32  1  0  0  0  0
 36 37  1  0  0  0  0
 37 35  1  0  0  0  0
M  END
>  <MODEL>
7

>  <REMARK>
 VINA RESULT:      -7.2      2.017      3.213
  Name = 
  4 active torsions:
  status: ('A' for Active; 'I' for Inactive)
    1  A    between atoms: C_4  and  N_12
    2  A    between atoms: C_4  and  O_37
    3  A    between atoms: C_8  and  C_18
    4  A    between atoms: C_23  and  C_30
                            x       y       z     vdW  Elec       q    Type
                         _______ _______ _______ _____ _____    ______ ____

>  <TORSDO>
F 4

$$$$
=
 OpenBabel11112417183D

 37 43  0  0  1  0  0  0  0  0999 V2000
  195.4670  173.2780  144.8130 C   0  0  0  0  0  0  0  0  0  0  0  0
  192.0700  175.7130  144.7040 C   0  0  0  0  0  0  0  0  0  0  0  0
  189.4460  175.0440  141.9310 O   0  0  0  0  0  0  0  0  0  0  0  0
  194.1600  175.2090  145.8440 C   0  0  0  0  0  0  0  0  0  0  0  0
  191.5150  175.3150  143.4680 C   0  0  0  0  0  0  0  0  0  0  0  0
  193.2770  175.0790  144.7920 C   0  0  0  0  0  0  0  0  0  0  0  0
  190.2110  175.8860  142.8090 C   0  0  2  0  0  3  0  0  0  0  0  0
  193.8000  176.0690  146.8880 C   0  0  0  0  0  3  0  0  0  0  0  0
  193.4730  174.3270  143.6910 C   0  0  0  0  0  0  0  0  0  0  0  0
  194.7930  172.1110  145.5130 C   0  0  0  0  0  1  0  0  0  0  0  0
  190.3730  177.3000  145.8090 C   0  0  0  0  0  2  0  0  0  0  0  0
  192.5610  176.7450  146.8400 C   0  0  0  0  0  3  0  0  0  0  0  0
  194.7450  173.5580  143.4690 C   0  0  0  0  0  2  0  0  0  0  0  0
  189.9830  173.2670  140.4820 C   0  0  1  0  0  3  0  0  0  0  0  0
  190.0810  173.8590  141.8190 N   0  0  1  0  0  0  0  0  0  0  0  0
  191.6820  176.5880  145.7450 C   0  0  0  0  0  0  0  0  0  0  0  0
  192.4310  174.4720  142.8490 N   0  0  0  0  0  0  0  0  0  0  0  0
  195.4920  174.5050  145.7650 C   0  0  0  0  0  2  0  0  0  0  0  0
  189.2510  176.6250  143.7510 C   0  0  1  0  0  3  0  0  0  0  0  0
  196.8970  172.8800  144.5110 C   0  0  0  0  0  1  0  0  0  0  0  0
  191.1170  174.1470  140.8170 C   0  0  1  0  0  3  0  0  0  0  0  0
  192.3610  173.7540  141.5630 C   0  0  0  0  0  2  0  0  0  0  0  0
  189.9270  177.7820  144.4530 C   0  0  0  0  0  2  0  0  0  0  0  0
  188.1090  177.4440  141.6810 C   0  0  0  0  0  3  0  0  0  0  0  0
  188.0260  177.1270  143.0410 C   0  0  0  0  0  0  0  0  0  0  0  0
  186.8060  177.2860  143.7180 C   0  0  0  0  0  3  0  0  0  0  0  0
  184.4480  177.9190  143.7240 N   0  0  0  0  0  1  0  0  0  0  0  0
  185.7700  178.0740  141.6770 C   0  0  0  0  0  3  0  0  0  0  0  0
  185.6820  177.7590  143.0360 C   0  0  0  0  0  0  0  0  0  0  0  0
  186.9830  177.9160  141.0000 C   0  0  0  0  0  3  0  0  0  0  0  0
  190.3580  171.8190  140.5270 C   0  0  0  0  0  0  0  0  0  0  0  0
  191.0030  171.2190  139.4010 N   0  0  0  0  0  2  0  0  0  0  0  0
  190.0750  171.1290  141.5430 O   0  0  0  0  0  0  0  0  0  0  0  0
  190.3330  168.9620  139.4410 O   0  0  0  0  0  1  0  0  0  0  0  0
  191.4360  169.8250  139.3940 C   0  0  2  0  0  3  0  0  0  0  0  0
  193.5970  170.0950  140.0910 C   0  0  0  0  0  1  0  0  0  0  0  0
  192.3460  169.5610  140.4390 O   0  0  0  0  0  0  0  0  0  0  0  0
  1 10  1  0  0  0  0
  1 18  1  0  0  0  0
  2  6  1  0  0  0  0
  2 16  1  0  0  0  0
  4  8  2  0  0  0  0
  5  2  2  0  0  0  0
  6  4  1  0  0  0  0
  7  3  1  1  0  0  0
  7  5  1  0  0  0  0
  7 19  1  0  0  0  0
  9  6  2  0  0  0  0
 12  8  1  0  0  0  0
 13  9  1  0  0  0  0
 13  1  1  0  0  0  0
 14 31  1  1  0  0  0
 14 21  1  0  0  0  0
 14 15  1  0  0  0  0
 15  3  1  6  0  0  0
 16 11  1  0  0  0  0
 16 12  2  0  0  0  0
 17  5  1  0  0  0  0
 17  9  1  0  0  0  0
 18  4  1  0  0  0  0
 19 25  1  6  0  0  0
 19 23  1  0  0  0  0
 20  1  1  0  0  0  0
 21 22  1  1  0  0  0
 21 15  1  0  0  0  0
 22 17  1  0  0  0  0
 23 11  1  0  0  0  0
 24 25  1  0  0  0  0
 25 26  2  0  0  0  0
 28 29  2  0  0  0  0
 29 26  1  0  0  0  0
 29 27  1  0  0  0  0
 30 28  1  0  0  0  0
 30 24  2  0  0  0  0
 31 33  2  0  0  0  0
 32 31  1  0  0  0  0
 35 32  1  0  0  0  0
 35 34  1  1  0  0  0
 35 37  1  0  0  0  0
 36 37  1  0  0  0  0
M  END
>  <MODEL>
8

>  <REMARK>
 VINA RESULT:      -7.2      1.968      2.617
  Name = 
  4 active torsions:
  status: ('A' for Active; 'I' for Inactive)
    1  A    between atoms: C_4  and  N_12
    2  A    between atoms: C_4  and  O_37
    3  A    between atoms: C_8  and  C_18
    4  A    between atoms: C_23  and  C_30
                            x       y       z     vdW  Elec       q    Type
                         _______ _______ _______ _____ _____    ______ ____

>  <TORSDO>
F 4

$$$$
=
 OpenBabel11112417183D

 37 43  0  0  1  0  0  0  0  0999 V2000
  191.8730  175.4140  146.5380 C   0  0  0  0  0  0  0  0  0  0  0  0
  192.1280  173.6480  142.7560 C   0  0  0  0  0  0  0  0  0  0  0  0
  189.2220  174.2600  140.2670 O   0  0  0  0  0  0  0  0  0  0  0  0
  193.2060  173.9690  144.9150 C   0  0  0  0  0  0  0  0  0  0  0  0
  190.8290  173.9070  142.2700 C   0  0  0  0  0  0  0  0  0  0  0  0
  192.1280  174.0600  144.0590 C   0  0  0  0  0  0  0  0  0  0  0  0
  190.2540  173.4690  140.8770 C   0  0  2  0  0  3  0  0  0  0  0  0
  194.3800  173.3910  144.4170 C   0  0  0  0  0  3  0  0  0  0  0  0
  190.9140  174.5530  144.3760 C   0  0  0  0  0  0  0  0  0  0  0  0
  192.3350  176.7910  146.0910 C   0  0  0  0  0  1  0  0  0  0  0  0
  193.4630  172.6170  140.8140 C   0  0  0  0  0  2  0  0  0  0  0  0
  194.4260  172.9500  143.0760 C   0  0  0  0  0  3  0  0  0  0  0  0
  190.5850  175.0280  145.7630 C   0  0  0  0  0  2  0  0  0  0  0  0
  187.4880  175.6190  141.1010 C   0  0  1  0  0  3  0  0  0  0  0  0
  188.9110  175.2720  141.1040 N   0  0  1  0  0  0  0  0  0  0  0  0
  193.3010  173.0600  142.2280 C   0  0  0  0  0  0  0  0  0  0  0  0
  190.0880  174.4460  143.3160 N   0  0  0  0  0  0  0  0  0  0  0  0
  193.0310  174.3960  146.3510 C   0  0  0  0  0  2  0  0  0  0  0  0
  191.2920  173.0960  139.8100 C   0  0  1  0  0  3  0  0  0  0  0  0
  191.5370  175.4880  148.0130 C   0  0  0  0  0  1  0  0  0  0  0  0
  188.0020  174.6260  142.0610 C   0  0  1  0  0  3  0  0  0  0  0  0
  188.6920  174.9190  143.3630 C   0  0  0  0  0  2  0  0  0  0  0  0
  192.2060  171.9850  140.2740 C   0  0  0  0  0  2  0  0  0  0  0  0
  190.2810  171.3680  138.3090 C   0  0  0  0  0  3  0  0  0  0  0  0
  190.6570  172.7010  138.5070 C   0  0  0  0  0  0  0  0  0  0  0  0
  190.4390  173.6430  137.4880 C   0  0  0  0  0  3  0  0  0  0  0  0
  189.6310  174.2040  135.2540 N   0  0  0  0  0  1  0  0  0  0  0  0
  189.4760  171.9160  136.0910 C   0  0  0  0  0  3  0  0  0  0  0  0
  189.8500  173.2490  136.2840 C   0  0  0  0  0  0  0  0  0  0  0  0
  189.6910  170.9760  137.1040 C   0  0  0  0  0  3  0  0  0  0  0  0
  187.2790  176.9600  141.7310 C   0  0  0  0  0  0  0  0  0  0  0  0
  186.0860  177.2150  142.4760 N   0  0  0  0  0  2  0  0  0  0  0  0
  188.1400  177.8670  141.5750 O   0  0  0  0  0  0  0  0  0  0  0  0
  186.5350  178.5460  144.3650 O   0  0  0  0  0  1  0  0  0  0  0  0
  185.8370  178.4840  143.1520 C   0  0  2  0  0  3  0  0  0  0  0  0
  183.7760  178.2910  142.1830 C   0  0  0  0  0  1  0  0  0  0  0  0
  184.4570  178.7100  143.3360 O   0  0  0  0  0  0  0  0  0  0  0  0
  1 20  1  0  0  0  0
  2  6  1  0  0  0  0
  4 18  1  0  0  0  0
  5  2  2  0  0  0  0
  5 17  1  0  0  0  0
  6  9  2  0  0  0  0
  6  4  1  0  0  0  0
  7  3  1  6  0  0  0
  7  5  1  0  0  0  0
  8  4  2  0  0  0  0
  9 13  1  0  0  0  0
 10  1  1  0  0  0  0
 11 16  1  0  0  0  0
 12  8  1  0  0  0  0
 13  1  1  0  0  0  0
 14 15  1  0  0  0  0
 14 31  1  1  0  0  0
 14 21  1  0  0  0  0
 15  3  1  6  0  0  0
 15 21  1  0  0  0  0
 16  2  1  0  0  0  0
 16 12  2  0  0  0  0
 17 22  1  0  0  0  0
 17  9  1  0  0  0  0
 18  1  1  0  0  0  0
 19 25  1  6  0  0  0
 19 23  1  0  0  0  0
 19  7  1  0  0  0  0
 21 22  1  1  0  0  0
 23 11  1  0  0  0  0
 24 25  1  0  0  0  0
 26 25  2  0  0  0  0
 27 29  1  0  0  0  0
 28 29  2  0  0  0  0
 28 30  1  0  0  0  0
 29 26  1  0  0  0  0
 30 24  2  0  0  0  0
 31 32  1  0  0  0  0
 32 35  1  0  0  0  0
 33 31  2  0  0  0  0
 35 37  1  0  0  0  0
 35 34  1  1  0  0  0
 36 37  1  0  0  0  0
M  END
>  <MODEL>
9

>  <REMARK>
 VINA RESULT:      -7.1      2.244      6.931
  Name = 
  4 active torsions:
  status: ('A' for Active; 'I' for Inactive)
    1  A    between atoms: C_4  and  N_12
    2  A    between atoms: C_4  and  O_37
    3  A    between atoms: C_8  and  C_18
    4  A    between atoms: C_23  and  C_30
                            x       y       z     vdW  Elec       q    Type
                         _______ _______ _______ _____ _____    ______ ____

>  <TORSDO>
F 4

$$$$
