=
 OpenBabel11112417373D

 28 32  0  0  1  0  0  0  0  0999 V2000
  185.6920  177.1310  142.6710 C   0  0  0  0  0  0  0  0  0  0  0  0
  187.2570  172.9110  142.0230 O   0  0  0  0  0  0  0  0  0  0  0  0
  189.2590  177.3470  146.6220 C   0  0  0  0  0  2  0  0  0  0  0  0
  186.7300  177.6270  140.1490 C   0  0  0  0  0  3  0  0  0  0  0  0
  185.2420  177.0200  143.9850 O   0  0  0  0  0  0  0  0  0  0  0  0
  188.0210  174.4800  140.2860 O   0  0  0  0  0  0  0  0  0  0  0  0
  188.3740  173.8150  141.5850 S   0  0  0  0  0  0  0  0  0  0  0  0
  191.0780  173.8400  141.3010 C   0  0  2  0  0  3  0  0  0  0  0  0
  188.7640  174.9440  142.8430 N   0  0  1  0  0  0  0  0  0  0  0  0
  186.3780  178.0240  147.4290 C   0  0  0  0  0  1  0  0  0  0  0  0
  188.5750  176.9230  144.1160 C   0  0  2  0  0  3  0  0  0  0  0  0
  191.1630  174.7810  142.5110 C   0  0  0  0  0  2  0  0  0  0  0  0
  189.8800  172.8850  141.3700 C   0  0  0  0  0  2  0  0  0  0  0  0
  186.1360  177.1020  146.2440 C   0  0  2  0  0  3  0  0  0  0  0  0
  186.9490  176.6260  142.2970 C   0  0  0  0  0  0  0  0  0  0  0  0
  189.4580  176.0130  146.2140 O   0  0  0  0  0  0  0  0  0  0  0  0
  192.2540  173.0990  141.2070 O   0  0  0  0  0  1  0  0  0  0  0  0
  187.1550  176.1270  146.0820 O   0  0  0  0  0  0  0  0  0  0  0  0
  187.4560  176.9410  141.0720 N   0  0  0  0  0  0  0  0  0  0  0  0
  184.9240  177.8160  141.7280 C   0  0  0  0  0  3  0  0  0  0  0  0
  185.4390  178.0590  140.4540 C   0  0  0  0  0  3  0  0  0  0  0  0
  185.7810  177.8800  144.9800 C   0  0  0  0  0  2  0  0  0  0  0  0
  190.0260  176.7660  143.6280 C   0  0  1  0  0  3  0  0  0  0  0  0
  188.3730  176.6940  145.6290 C   0  0  1  0  0  0  0  0  0  0  0  0
  189.9520  175.7090  142.5340 C   0  0  2  0  0  3  0  0  0  0  0  0
  187.7710  175.8980  143.3310 C   0  0  1  0  0  3  0  0  0  0  0  0
  190.5140  178.0890  143.0620 C   0  0  0  0  0  2  0  0  0  0  0  0
  191.5550  178.7050  143.9770 C   0  0  0  0  0  1  0  0  0  0  0  0
  1  5  1  0  0  0  0
  4 21  2  0  0  0  0
  4 19  1  0  0  0  0
  5 22  1  0  0  0  0
  6  7  2  0  0  0  0
  7  2  2  0  0  0  0
  8 17  1  1  0  0  0
  8 13  1  0  0  0  0
  8 12  1  0  0  0  0
  9  7  1  6  0  0  0
  9 26  1  0  0  0  0
 11 24  1  0  0  0  0
 12 25  1  0  0  0  0
 13  7  1  0  0  0  0
 14 10  1  0  0  0  0
 15  1  1  0  0  0  0
 15 26  1  0  0  0  0
 16  3  1  0  0  0  0
 18 14  1  0  0  0  0
 19 15  2  0  0  0  0
 20  1  2  0  0  0  0
 21 20  1  0  0  0  0
 22 14  1  0  0  0  0
 23 11  1  0  0  0  0
 24 18  1  0  0  0  0
 24 16  1  0  0  0  0
 24  3  1  0  0  0  0
 25  9  1  0  0  0  0
 25 23  1  0  0  0  0
 26 11  1  0  0  0  0
 27 23  1  0  0  0  0
 27 28  1  0  0  0  0
M  END
>  <MODEL>
1

>  <REMARK>
 VINA RESULT:      -7.9      0.000      0.000
  Name = 
  1 active torsions:
  status: ('A' for Active; 'I' for Inactive)
    1  A    between atoms: C_5  and  C_24
                            x       y       z     vdW  Elec       q    Type
                         _______ _______ _______ _____ _____    ______ ____

>  <TORSDO>
F 1

$$$$
=
 OpenBabel11112417373D

 28 32  0  0  1  0  0  0  0  0999 V2000
  190.0770  174.9620  146.5550 C   0  0  0  0  0  0  0  0  0  0  0  0
  185.6870  176.1040  146.8820 O   0  0  0  0  0  0  0  0  0  0  0  0
  189.1270  174.6600  141.3210 C   0  0  0  0  0  2  0  0  0  0  0  0
  190.5480  177.5260  147.4970 C   0  0  0  0  0  3  0  0  0  0  0  0
  189.9540  173.7040  145.9690 O   0  0  0  0  0  0  0  0  0  0  0  0
  187.1920  178.0230  147.2240 O   0  0  0  0  0  0  0  0  0  0  0  0
  186.3510  177.2810  146.2250 S   0  0  0  0  0  0  0  0  0  0  0  0
  185.7900  179.3690  144.5770 C   0  0  2  0  0  3  0  0  0  0  0  0
  187.2460  176.7680  144.8300 N   0  0  1  0  0  0  0  0  0  0  0  0
  190.3630  172.1440  142.5690 C   0  0  0  0  0  1  0  0  0  0  0  0
  189.0950  175.9230  143.6300 C   0  0  2  0  0  3  0  0  0  0  0  0
  186.5760  178.6590  143.4650 C   0  0  0  0  0  2  0  0  0  0  0  0
  185.1280  178.3930  145.5570 C   0  0  0  0  0  2  0  0  0  0  0  0
  189.6290  172.7290  143.7650 C   0  0  2  0  0  3  0  0  0  0  0  0
  189.3370  176.0540  146.0720 C   0  0  0  0  0  0  0  0  0  0  0  0
  187.8250  174.9590  141.7670 O   0  0  0  0  0  0  0  0  0  0  0  0
  184.8140  180.1840  144.0070 O   0  0  0  0  0  1  0  0  0  0  0  0
  188.4680  173.4590  143.4020 O   0  0  0  0  0  0  0  0  0  0  0  0
  189.6370  177.3090  146.5110 N   0  0  0  0  0  0  0  0  0  0  0  0
  191.0000  175.1630  147.5830 C   0  0  0  0  0  3  0  0  0  0  0  0
  191.2320  176.4500  148.0670 C   0  0  0  0  0  3  0  0  0  0  0  0
  190.5770  173.4550  144.7160 C   0  0  0  0  0  2  0  0  0  0  0  0
  188.6590  177.2660  143.0170 C   0  0  1  0  0  3  0  0  0  0  0  0
  188.7830  174.6850  142.7620 C   0  0  1  0  0  0  0  0  0  0  0  0
  187.7480  177.8890  144.0670 C   0  0  2  0  0  3  0  0  0  0  0  0
  188.3520  175.8220  144.9530 C   0  0  1  0  0  3  0  0  0  0  0  0
  189.8810  178.1370  142.7850 C   0  0  0  0  0  2  0  0  0  0  0  0
  191.1450  177.3850  143.1580 C   0  0  0  0  0  1  0  0  0  0  0  0
  1 20  1  0  0  0  0
  3 16  1  0  0  0  0
  3 24  1  0  0  0  0
  4 21  1  0  0  0  0
  5  1  1  0  0  0  0
  7  2  2  0  0  0  0
  7  6  2  0  0  0  0
  8 17  1  6  0  0  0
  8 13  1  0  0  0  0
  9 26  1  0  0  0  0
  9  7  1  1  0  0  0
 10 14  1  0  0  0  0
 11 26  1  0  0  0  0
 12 25  1  0  0  0  0
 12  8  1  0  0  0  0
 13  7  1  0  0  0  0
 14 22  1  0  0  0  0
 15 19  1  0  0  0  0
 15  1  2  0  0  0  0
 16 24  1  0  0  0  0
 18 14  1  0  0  0  0
 19  4  2  0  0  0  0
 20 21  2  0  0  0  0
 22  5  1  0  0  0  0
 23 11  1  0  0  0  0
 23 25  1  0  0  0  0
 24 18  1  0  0  0  0
 24 11  1  0  0  0  0
 25  9  1  0  0  0  0
 26 15  1  0  0  0  0
 27 23  1  0  0  0  0
 27 28  1  0  0  0  0
M  END
>  <MODEL>
2

>  <REMARK>
 VINA RESULT:      -7.4      2.508      6.183
  Name = 
  1 active torsions:
  status: ('A' for Active; 'I' for Inactive)
    1  A    between atoms: C_5  and  C_24
                            x       y       z     vdW  Elec       q    Type
                         _______ _______ _______ _____ _____    ______ ____

>  <TORSDO>
F 1

$$$$
=
 OpenBabel11112417373D

 28 32  0  0  1  0  0  0  0  0999 V2000
  190.6700  174.1530  141.3080 C   0  0  0  0  0  0  0  0  0  0  0  0
  188.4100  178.0990  141.3410 O   0  0  0  0  0  0  0  0  0  0  0  0
  192.9780  175.9740  145.7510 C   0  0  0  0  0  2  0  0  0  0  0  0
  188.1710  173.0150  141.6870 C   0  0  0  0  0  3  0  0  0  0  0  0
  191.9780  174.6280  141.2360 O   0  0  0  0  0  0  0  0  0  0  0  0
  186.9960  176.1940  142.0000 O   0  0  0  0  0  0  0  0  0  0  0  0
  187.8550  177.3200  142.4990 S   0  0  0  0  0  0  0  0  0  0  0  0
  186.6350  177.6930  144.9000 C   0  0  2  0  0  3  0  0  0  0  0  0
  189.1390  176.7870  143.5380 N   0  0  1  0  0  0  0  0  0  0  0  0
  194.9170  175.1030  143.5390 C   0  0  0  0  0  1  0  0  0  0  0  0
  190.8710  175.3720  144.2940 C   0  0  2  0  0  3  0  0  0  0  0  0
  187.9360  177.2610  145.5910 C   0  0  0  0  0  2  0  0  0  0  0  0
  186.8740  178.3770  143.5480 C   0  0  0  0  0  2  0  0  0  0  0  0
  193.6990  175.4980  142.7170 C   0  0  2  0  0  3  0  0  0  0  0  0
  189.7500  174.7190  142.2070 C   0  0  0  0  0  0  0  0  0  0  0  0
  192.1890  177.0970  145.4340 O   0  0  0  0  0  0  0  0  0  0  0  0
  185.9310  178.5570  145.7360 O   0  0  0  0  0  1  0  0  0  0  0  0
  192.9290  176.5250  143.3220 O   0  0  0  0  0  0  0  0  0  0  0  0
  188.5550  174.0980  142.4150 N   0  0  0  0  0  0  0  0  0  0  0  0
  190.2850  173.0560  140.5360 C   0  0  0  0  0  3  0  0  0  0  0  0
  189.0240  172.4870  140.7160 C   0  0  0  0  0  3  0  0  0  0  0  0
  192.9030  174.2800  142.2580 C   0  0  0  0  0  2  0  0  0  0  0  0
  189.8690  175.6130  145.4390 C   0  0  1  0  0  3  0  0  0  0  0  0
  192.2360  176.0690  144.4720 C   0  0  1  0  0  0  0  0  0  0  0  0
  188.6380  176.1930  144.7570 C   0  0  2  0  0  3  0  0  0  0  0  0
  190.1860  175.8970  143.0410 C   0  0  1  0  0  3  0  0  0  0  0  0
  189.5380  174.2890  146.1060 C   0  0  0  0  0  2  0  0  0  0  0  0
  189.0640  174.5170  147.5290 C   0  0  0  0  0  1  0  0  0  0  0  0
  1 15  1  0  0  0  0
  2  7  2  0  0  0  0
  4 19  1  0  0  0  0
  5  1  1  0  0  0  0
  5 22  1  0  0  0  0
  6  7  2  0  0  0  0
  7 13  1  0  0  0  0
  8 12  1  0  0  0  0
  8 17  1  1  0  0  0
  9  7  1  6  0  0  0
  9 25  1  0  0  0  0
 11 24  1  0  0  0  0
 11 23  1  0  0  0  0
 13  8  1  0  0  0  0
 14 18  1  0  0  0  0
 14 10  1  0  0  0  0
 15 19  2  0  0  0  0
 15 26  1  0  0  0  0
 16  3  1  0  0  0  0
 18 24  1  0  0  0  0
 20 21  1  0  0  0  0
 20  1  2  0  0  0  0
 21  4  2  0  0  0  0
 22 14  1  0  0  0  0
 23 27  1  0  0  0  0
 24 16  1  0  0  0  0
 24  3  1  0  0  0  0
 25 23  1  0  0  0  0
 25 12  1  0  0  0  0
 26  9  1  0  0  0  0
 26 11  1  0  0  0  0
 27 28  1  0  0  0  0
M  END
>  <MODEL>
3

>  <REMARK>
 VINA RESULT:      -7.4      2.342      5.700
  Name = 
  1 active torsions:
  status: ('A' for Active; 'I' for Inactive)
    1  A    between atoms: C_5  and  C_24
                            x       y       z     vdW  Elec       q    Type
                         _______ _______ _______ _____ _____    ______ ____

>  <TORSDO>
F 1

$$$$
=
 OpenBabel11112417373D

 28 32  0  0  1  0  0  0  0  0999 V2000
  192.1930  174.4880  144.4580 C   0  0  0  0  0  0  0  0  0  0  0  0
  188.9410  174.5410  147.6370 O   0  0  0  0  0  0  0  0  0  0  0  0
  188.1920  173.6320  141.0450 C   0  0  0  0  0  2  0  0  0  0  0  0
  192.5640  177.1430  145.1610 C   0  0  0  0  0  3  0  0  0  0  0  0
  192.0100  173.2030  143.9500 O   0  0  0  0  0  0  0  0  0  0  0  0
  189.8260  176.7870  147.1510 O   0  0  0  0  0  0  0  0  0  0  0  0
  188.7360  175.8010  146.8450 S   0  0  0  0  0  0  0  0  0  0  0  0
  186.7900  177.5790  146.1800 C   0  0  2  0  0  3  0  0  0  0  0  0
  188.6050  175.4350  145.1530 N   0  0  1  0  0  0  0  0  0  0  0  0
  190.4690  171.5790  140.9250 C   0  0  0  0  0  1  0  0  0  0  0  0
  189.3720  174.9920  142.9650 C   0  0  2  0  0  3  0  0  0  0  0  0
  186.8070  177.0140  144.7530 C   0  0  0  0  0  2  0  0  0  0  0  0
  187.1600  176.5350  147.2410 C   0  0  0  0  0  2  0  0  0  0  0  0
  190.5720  172.0410  142.3710 C   0  0  2  0  0  3  0  0  0  0  0  0
  191.0940  175.3330  144.6850 C   0  0  0  0  0  0  0  0  0  0  0  0
  187.4620  173.6320  142.2500 O   0  0  0  0  0  0  0  0  0  0  0  0
  185.5250  178.0930  146.4600 O   0  0  0  0  0  1  0  0  0  0  0  0
  189.3250  172.4410  142.9170 O   0  0  0  0  0  0  0  0  0  0  0  0
  191.3120  176.6480  144.9680 N   0  0  0  0  0  0  0  0  0  0  0  0
  193.4840  174.9730  144.6740 C   0  0  0  0  0  3  0  0  0  0  0  0
  193.6740  176.3060  145.0380 C   0  0  0  0  0  3  0  0  0  0  0  0
  191.7130  173.0350  142.5700 C   0  0  0  0  0  2  0  0  0  0  0  0
  188.3540  176.1470  142.9270 C   0  0  1  0  0  3  0  0  0  0  0  0
  188.8650  173.6640  142.3650 C   0  0  1  0  0  0  0  0  0  0  0  0
  188.2250  176.5940  144.3770 C   0  0  2  0  0  3  0  0  0  0  0  0
  189.7060  174.7970  144.4360 C   0  0  1  0  0  3  0  0  0  0  0  0
  188.8990  177.2730  142.0670 C   0  0  0  0  0  2  0  0  0  0  0  0
  187.7840  177.9150  141.2640 C   0  0  0  0  0  1  0  0  0  0  0  0
  1 20  2  0  0  0  0
  1 15  1  0  0  0  0
  3 16  1  0  0  0  0
  3 24  1  0  0  0  0
  5  1  1  0  0  0  0
  7  6  2  0  0  0  0
  7 13  1  0  0  0  0
  7  2  2  0  0  0  0
  8 17  1  1  0  0  0
  8 13  1  0  0  0  0
  9  7  1  1  0  0  0
 10 14  1  0  0  0  0
 11 26  1  0  0  0  0
 12  8  1  0  0  0  0
 14 22  1  0  0  0  0
 14 18  1  0  0  0  0
 15 19  2  0  0  0  0
 16 24  1  0  0  0  0
 19  4  1  0  0  0  0
 20 21  1  0  0  0  0
 21  4  2  0  0  0  0
 22  5  1  0  0  0  0
 23 11  1  0  0  0  0
 23 25  1  0  0  0  0
 24 18  1  0  0  0  0
 24 11  1  0  0  0  0
 25 12  1  0  0  0  0
 25  9  1  0  0  0  0
 26 15  1  0  0  0  0
 26  9  1  0  0  0  0
 27 23  1  0  0  0  0
 28 27  1  0  0  0  0
M  END
>  <MODEL>
4

>  <REMARK>
 VINA RESULT:      -7.0      2.283      6.468
  Name = 
  1 active torsions:
  status: ('A' for Active; 'I' for Inactive)
    1  A    between atoms: C_5  and  C_24
                            x       y       z     vdW  Elec       q    Type
                         _______ _______ _______ _____ _____    ______ ____

>  <TORSDO>
F 1

$$$$
=
 OpenBabel11112417373D

 28 32  0  0  1  0  0  0  0  0999 V2000
  188.6100  176.4490  145.7610 C   0  0  0  0  0  0  0  0  0  0  0  0
  192.5380  177.0080  143.5390 O   0  0  0  0  0  0  0  0  0  0  0  0
  186.3590  176.9600  140.9600 C   0  0  0  0  0  2  0  0  0  0  0  0
  189.5830  173.9140  146.3170 C   0  0  0  0  0  3  0  0  0  0  0  0
  187.9820  177.6510  145.4420 O   0  0  0  0  0  0  0  0  0  0  0  0
  192.1780  174.6790  144.2520 O   0  0  0  0  0  0  0  0  0  0  0  0
  192.0390  175.6550  143.1190 S   0  0  0  0  0  0  0  0  0  0  0  0
  192.2270  173.8820  141.0660 C   0  0  2  0  0  3  0  0  0  0  0  0
  190.4160  175.7710  142.5160 N   0  0  1  0  0  0  0  0  0  0  0  0
  185.2940  178.8730  143.1090 C   0  0  0  0  0  1  0  0  0  0  0  0
  188.0600  175.8500  142.6340 C   0  0  2  0  0  3  0  0  0  0  0  0
  190.7820  174.2280  140.6790 C   0  0  0  0  0  2  0  0  0  0  0  0
  192.9680  175.0550  141.7200 C   0  0  0  0  0  2  0  0  0  0  0  0
  186.7060  178.6260  143.6160 C   0  0  2  0  0  3  0  0  0  0  0  0
  189.2630  175.6950  144.7720 C   0  0  0  0  0  0  0  0  0  0  0  0
  187.7040  177.1700  140.5990 O   0  0  0  0  0  0  0  0  0  0  0  0
  192.9240  173.4700  139.9320 O   0  0  0  0  0  1  0  0  0  0  0  0
  187.6330  178.3660  142.5740 O   0  0  0  0  0  0  0  0  0  0  0  0
  189.6730  174.4280  145.0610 N   0  0  0  0  0  0  0  0  0  0  0  0
  188.5310  175.9460  147.0610 C   0  0  0  0  0  3  0  0  0  0  0  0
  189.0280  174.6750  147.3470 C   0  0  0  0  0  3  0  0  0  0  0  0
  186.7310  177.6250  144.7680 C   0  0  0  0  0  2  0  0  0  0  0  0
  188.4860  174.7480  141.6480 C   0  0  1  0  0  3  0  0  0  0  0  0
  187.4270  177.0960  141.9780 C   0  0  1  0  0  0  0  0  0  0  0  0
  189.9660  174.5270  141.9330 C   0  0  2  0  0  3  0  0  0  0  0  0
  189.3310  176.2470  143.3700 C   0  0  1  0  0  3  0  0  0  0  0  0
  187.6920  173.4840  141.9290 C   0  0  0  0  0  2  0  0  0  0  0  0
  188.5950  172.4080  142.5030 C   0  0  0  0  0  1  0  0  0  0  0  0
  1 20  1  0  0  0  0
  3 24  1  0  0  0  0
  4 21  1  0  0  0  0
  5  1  1  0  0  0  0
  7  2  2  0  0  0  0
  7  6  2  0  0  0  0
  8 17  1  6  0  0  0
  8 13  1  0  0  0  0
  9  7  1  1  0  0  0
  9 26  1  0  0  0  0
 10 14  1  0  0  0  0
 11 26  1  0  0  0  0
 12  8  1  0  0  0  0
 12 25  1  0  0  0  0
 13  7  1  0  0  0  0
 14 22  1  0  0  0  0
 15 19  1  0  0  0  0
 15  1  2  0  0  0  0
 16  3  1  0  0  0  0
 16 24  1  0  0  0  0
 18 14  1  0  0  0  0
 19  4  2  0  0  0  0
 20 21  2  0  0  0  0
 22  5  1  0  0  0  0
 23 27  1  0  0  0  0
 23 25  1  0  0  0  0
 23 11  1  0  0  0  0
 24 18  1  0  0  0  0
 24 11  1  0  0  0  0
 25  9  1  0  0  0  0
 26 15  1  0  0  0  0
 27 28  1  0  0  0  0
M  END
>  <MODEL>
5

>  <REMARK>
 VINA RESULT:      -6.9      2.186      4.661
  Name = 
  1 active torsions:
  status: ('A' for Active; 'I' for Inactive)
    1  A    between atoms: C_5  and  C_24
                            x       y       z     vdW  Elec       q    Type
                         _______ _______ _______ _____ _____    ______ ____

>  <TORSDO>
F 1

$$$$
=
 OpenBabel11112417373D

 28 32  0  0  1  0  0  0  0  0999 V2000
  187.9380  176.5650  144.3070 C   0  0  0  0  0  0  0  0  0  0  0  0
  187.4970  172.7100  141.9350 O   0  0  0  0  0  0  0  0  0  0  0  0
  192.6550  174.5720  145.7780 C   0  0  0  0  0  2  0  0  0  0  0  0
  187.9260  177.7920  141.8220 C   0  0  0  0  0  3  0  0  0  0  0  0
  188.0710  176.0410  145.5920 O   0  0  0  0  0  0  0  0  0  0  0  0
  187.9600  174.6560  140.5000 O   0  0  0  0  0  0  0  0  0  0  0  0
  188.5670  173.4880  141.2230 S   0  0  0  0  0  0  0  0  0  0  0  0
  190.7220  173.1180  139.6080 C   0  0  2  0  0  3  0  0  0  0  0  0
  189.8160  173.9510  142.3350 N   0  0  1  0  0  0  0  0  0  0  0  0
  190.8160  175.4090  148.0870 C   0  0  0  0  0  1  0  0  0  0  0  0
  190.8840  175.2830  143.9650 C   0  0  2  0  0  3  0  0  0  0  0  0
  191.6300  173.4860  140.7910 C   0  0  0  0  0  2  0  0  0  0  0  0
  189.4120  172.4510  140.0450 C   0  0  0  0  0  2  0  0  0  0  0  0
  189.7950  175.0770  147.0100 C   0  0  2  0  0  3  0  0  0  0  0  0
  188.6570  176.0190  143.2310 C   0  0  0  0  0  0  0  0  0  0  0  0
  192.1830  173.4870  145.0130 O   0  0  0  0  0  0  0  0  0  0  0  0
  191.4080  172.2660  138.7450 O   0  0  0  0  0  1  0  0  0  0  0  0
  190.2380  174.0690  146.1150 O   0  0  0  0  0  0  0  0  0  0  0  0
  188.6800  176.6820  142.0400 N   0  0  0  0  0  0  0  0  0  0  0  0
  187.1400  177.6900  144.0940 C   0  0  0  0  0  3  0  0  0  0  0  0
  187.1230  178.3050  142.8420 C   0  0  0  0  0  3  0  0  0  0  0  0
  189.2410  176.3340  146.3450 C   0  0  0  0  0  2  0  0  0  0  0  0
  191.8410  175.0600  142.7790 C   0  0  1  0  0  3  0  0  0  0  0  0
  191.2680  174.5300  145.2560 C   0  0  1  0  0  0  0  0  0  0  0  0
  190.9500  174.5410  141.6590 C   0  0  2  0  0  3  0  0  0  0  0  0
  189.5230  174.8090  143.4800 C   0  0  1  0  0  3  0  0  0  0  0  0
  192.4770  176.3830  142.3880 C   0  0  0  0  0  2  0  0  0  0  0  0
  191.9420  177.5060  143.2560 C   0  0  0  0  0  1  0  0  0  0  0  0
  1  5  1  0  0  0  0
  4 19  2  0  0  0  0
  4 21  1  0  0  0  0
  5 22  1  0  0  0  0
  6  7  2  0  0  0  0
  7  2  2  0  0  0  0
  8 17  1  6  0  0  0
  8 13  1  0  0  0  0
  8 12  1  0  0  0  0
  9  7  1  6  0  0  0
  9 26  1  0  0  0  0
 11 24  1  0  0  0  0
 12 25  1  0  0  0  0
 13  7  1  0  0  0  0
 14 10  1  0  0  0  0
 15 26  1  0  0  0  0
 15  1  2  0  0  0  0
 16 24  1  0  0  0  0
 16  3  1  0  0  0  0
 18 14  1  0  0  0  0
 19 15  1  0  0  0  0
 20  1  1  0  0  0  0
 21 20  2  0  0  0  0
 22 14  1  0  0  0  0
 23 11  1  0  0  0  0
 24  3  1  0  0  0  0
 24 18  1  0  0  0  0
 25  9  1  0  0  0  0
 25 23  1  0  0  0  0
 26 11  1  0  0  0  0
 27 23  1  0  0  0  0
 27 28  1  0  0  0  0
M  END
>  <MODEL>
6

>  <REMARK>
 VINA RESULT:      -6.8      1.857      2.838
  Name = 
  1 active torsions:
  status: ('A' for Active; 'I' for Inactive)
    1  A    between atoms: C_5  and  C_24
                            x       y       z     vdW  Elec       q    Type
                         _______ _______ _______ _____ _____    ______ ____

>  <TORSDO>
F 1

$$$$
=
 OpenBabel11112417373D

 28 32  0  0  1  0  0  0  0  0999 V2000
  188.0460  176.1550  145.5470 C   0  0  0  0  0  0  0  0  0  0  0  0
  189.0010  171.9600  144.0730 O   0  0  0  0  0  0  0  0  0  0  0  0
  193.3020  176.5810  146.3050 C   0  0  0  0  0  2  0  0  0  0  0  0
  187.2150  176.6020  142.9410 C   0  0  0  0  0  3  0  0  0  0  0  0
  188.5430  176.0700  146.8460 O   0  0  0  0  0  0  0  0  0  0  0  0
  188.4170  173.4970  142.2400 O   0  0  0  0  0  0  0  0  0  0  0  0
  189.5450  172.8800  143.0170 S   0  0  0  0  0  0  0  0  0  0  0  0
  191.4410  172.9690  141.0710 C   0  0  2  0  0  3  0  0  0  0  0  0
  190.6040  174.0560  143.7290 N   0  0  1  0  0  0  0  0  0  0  0  0
  191.5760  177.2050  148.7640 C   0  0  0  0  0  1  0  0  0  0  0  0
  191.1930  176.0660  144.8180 C   0  0  2  0  0  3  0  0  0  0  0  0
  192.2420  173.9470  141.9420 C   0  0  0  0  0  2  0  0  0  0  0  0
  190.6010  171.9840  141.8950 C   0  0  0  0  0  2  0  0  0  0  0  0
  190.6700  176.2420  148.0120 C   0  0  2  0  0  3  0  0  0  0  0  0
  188.7930  175.6720  144.4590 C   0  0  0  0  0  0  0  0  0  0  0  0
  193.2470  175.2420  145.8720 O   0  0  0  0  0  0  0  0  0  0  0  0
  192.3140  172.2570  140.2500 O   0  0  0  0  0  1  0  0  0  0  0  0
  191.3880  175.2910  147.2420 O   0  0  0  0  0  0  0  0  0  0  0  0
  188.3890  175.9640  143.1910 N   0  0  0  0  0  0  0  0  0  0  0  0
  186.8260  176.7910  145.3090 C   0  0  0  0  0  3  0  0  0  0  0  0
  186.4000  177.0090  143.9990 C   0  0  0  0  0  3  0  0  0  0  0  0
  189.5590  176.9730  147.2620 C   0  0  0  0  0  2  0  0  0  0  0  0
  192.0030  175.9330  143.5150 C   0  0  1  0  0  3  0  0  0  0  0  0
  192.0130  175.8770  146.1110 C   0  0  1  0  0  0  0  0  0  0  0  0
  191.2890  174.8430  142.7280 C   0  0  2  0  0  3  0  0  0  0  0  0
  190.1140  174.9970  144.7330 C   0  0  1  0  0  3  0  0  0  0  0  0
  191.9650  177.2500  142.7600 C   0  0  0  0  0  2  0  0  0  0  0  0
  191.1910  178.2910  143.5480 C   0  0  0  0  0  1  0  0  0  0  0  0
  1  5  1  0  0  0  0
  4 19  2  0  0  0  0
  4 21  1  0  0  0  0
  5 22  1  0  0  0  0
  6  7  2  0  0  0  0
  7  2  2  0  0  0  0
  8 17  1  1  0  0  0
  8 13  1  0  0  0  0
  8 12  1  0  0  0  0
  9  7  1  6  0  0  0
  9 26  1  0  0  0  0
 11 24  1  0  0  0  0
 12 25  1  0  0  0  0
 13  7  1  0  0  0  0
 14 10  1  0  0  0  0
 15 26  1  0  0  0  0
 15  1  2  0  0  0  0
 16 24  1  0  0  0  0
 16  3  1  0  0  0  0
 18 14  1  0  0  0  0
 19 15  1  0  0  0  0
 20  1  1  0  0  0  0
 21 20  2  0  0  0  0
 22 14  1  0  0  0  0
 23 11  1  0  0  0  0
 24  3  1  0  0  0  0
 24 18  1  0  0  0  0
 25 23  1  0  0  0  0
 25  9  1  0  0  0  0
 26 11  1  0  0  0  0
 27 23  1  0  0  0  0
 27 28  1  0  0  0  0
M  END
>  <MODEL>
7

>  <REMARK>
 VINA RESULT:      -6.7      1.955      3.203
  Name = 
  1 active torsions:
  status: ('A' for Active; 'I' for Inactive)
    1  A    between atoms: C_5  and  C_24
                            x       y       z     vdW  Elec       q    Type
                         _______ _______ _______ _____ _____    ______ ____

>  <TORSDO>
F 1

$$$$
=
 OpenBabel11112417373D

 28 32  0  0  1  0  0  0  0  0999 V2000
  187.2720  176.0500  143.3670 C   0  0  0  0  0  0  0  0  0  0  0  0
  188.9410  171.9160  144.2630 O   0  0  0  0  0  0  0  0  0  0  0  0
  190.0660  177.5910  147.6330 C   0  0  0  0  0  2  0  0  0  0  0  0
  188.7470  175.8560  141.0280 C   0  0  0  0  0  3  0  0  0  0  0  0
  186.5930  176.2960  144.5580 O   0  0  0  0  0  0  0  0  0  0  0  0
  190.0020  172.9590  142.3000 O   0  0  0  0  0  0  0  0  0  0  0  0
  190.1170  172.7170  143.7780 S   0  0  0  0  0  0  0  0  0  0  0  0
  192.8270  172.8100  143.9680 C   0  0  2  0  0  3  0  0  0  0  0  0
  190.2700  174.1800  144.6980 N   0  0  1  0  0  0  0  0  0  0  0  0
  187.0850  178.3110  147.6990 C   0  0  0  0  0  1  0  0  0  0  0  0
  189.8470  176.4280  145.2830 C   0  0  2  0  0  3  0  0  0  0  0  0
  192.6890  174.0620  144.8450 C   0  0  0  0  0  2  0  0  0  0  0  0
  191.6390  171.8490  144.1070 C   0  0  0  0  0  2  0  0  0  0  0  0
  187.0640  177.0750  146.8130 C   0  0  2  0  0  3  0  0  0  0  0  0
  188.5770  175.5300  143.3790 C   0  0  0  0  0  0  0  0  0  0  0  0
  190.3400  176.2100  147.6750 O   0  0  0  0  0  0  0  0  0  0  0  0
  194.0040  172.1400  144.2990 O   0  0  0  0  0  1  0  0  0  0  0  0
  188.0980  176.1530  147.1210 O   0  0  0  0  0  0  0  0  0  0  0  0
  189.2970  175.5070  142.2220 N   0  0  0  0  0  0  0  0  0  0  0  0
  186.6850  176.3910  142.1470 C   0  0  0  0  0  3  0  0  0  0  0  0
  187.4210  176.2850  140.9670 C   0  0  0  0  0  3  0  0  0  0  0  0
  186.9400  177.4350  145.3350 C   0  0  0  0  0  2  0  0  0  0  0  0
  191.3630  176.2180  145.1180 C   0  0  1  0  0  3  0  0  0  0  0  0
  189.3770  176.6330  146.7380 C   0  0  1  0  0  0  0  0  0  0  0  0
  191.4910  174.8890  144.3870 C   0  0  2  0  0  3  0  0  0  0  0  0
  189.2020  175.1770  144.7060 C   0  0  1  0  0  3  0  0  0  0  0  0
  191.9420  177.3470  144.2830 C   0  0  0  0  0  2  0  0  0  0  0  0
  190.8510  178.3220  143.8810 C   0  0  0  0  0  1  0  0  0  0  0  0
  1 15  1  0  0  0  0
  1  5  1  0  0  0  0
  3 16  1  0  0  0  0
  4 19  1  0  0  0  0
  5 22  1  0  0  0  0
  6  7  2  0  0  0  0
  7 13  1  0  0  0  0
  7  2  2  0  0  0  0
  8 13  1  0  0  0  0
  8 17  1  1  0  0  0
  8 12  1  0  0  0  0
  9  7  1  6  0  0  0
  9 26  1  0  0  0  0
 11 24  1  0  0  0  0
 14 18  1  0  0  0  0
 14 10  1  0  0  0  0
 15 26  1  0  0  0  0
 19 15  2  0  0  0  0
 20  1  2  0  0  0  0
 21  4  2  0  0  0  0
 21 20  1  0  0  0  0
 22 14  1  0  0  0  0
 23 11  1  0  0  0  0
 24 18  1  0  0  0  0
 24  3  1  0  0  0  0
 24 16  1  0  0  0  0
 25  9  1  0  0  0  0
 25 12  1  0  0  0  0
 25 23  1  0  0  0  0
 26 11  1  0  0  0  0
 27 23  1  0  0  0  0
 28 27  1  0  0  0  0
M  END
>  <MODEL>
8

>  <REMARK>
 VINA RESULT:      -6.5      1.988      2.346
  Name = 
  1 active torsions:
  status: ('A' for Active; 'I' for Inactive)
    1  A    between atoms: C_5  and  C_24
                            x       y       z     vdW  Elec       q    Type
                         _______ _______ _______ _____ _____    ______ ____

>  <TORSDO>
F 1

$$$$
=
 OpenBabel11112417373D

 28 32  0  0  1  0  0  0  0  0999 V2000
  192.6540  174.0830  140.8760 C   0  0  0  0  0  0  0  0  0  0  0  0
  190.4960  177.4160  143.0940 O   0  0  0  0  0  0  0  0  0  0  0  0
  196.9960  175.8360  143.4160 C   0  0  0  0  0  2  0  0  0  0  0  0
  191.0430  172.3950  142.3720 C   0  0  0  0  0  3  0  0  0  0  0  0
  193.5870  174.8350  140.1640 O   0  0  0  0  0  0  0  0  0  0  0  0
  189.9860  175.1860  144.0080 O   0  0  0  0  0  0  0  0  0  0  0  0
  190.8500  176.4060  144.1500 S   0  0  0  0  0  0  0  0  0  0  0  0
  191.3240  176.2270  146.8210 C   0  0  2  0  0  3  0  0  0  0  0  0
  192.5470  176.0490  144.0970 N   0  0  1  0  0  0  0  0  0  0  0  0
  197.2510  175.6660  140.3640 C   0  0  0  0  0  1  0  0  0  0  0  0
  194.5130  174.9640  143.3670 C   0  0  2  0  0  3  0  0  0  0  0  0
  192.8110  176.0110  146.5090 C   0  0  0  0  0  2  0  0  0  0  0  0
  190.6150  177.0980  145.7760 C   0  0  0  0  0  2  0  0  0  0  0  0
  195.7530  175.8800  140.5160 C   0  0  2  0  0  3  0  0  0  0  0  0
  192.4240  174.3280  142.2400 C   0  0  0  0  0  0  0  0  0  0  0  0
  196.0670  176.7900  143.8770 O   0  0  0  0  0  0  0  0  0  0  0  0
  191.1950  176.8170  148.0770 O   0  0  0  0  0  1  0  0  0  0  0  0
  195.4150  176.6400  141.6660 O   0  0  0  0  0  0  0  0  0  0  0  0
  191.6780  173.4440  142.9600 N   0  0  0  0  0  0  0  0  0  0  0  0
  191.9910  173.0250  140.2510 C   0  0  0  0  0  3  0  0  0  0  0  0
  191.1710  172.1790  140.9980 C   0  0  0  0  0  3  0  0  0  0  0  0
  194.9730  174.5790  140.3490 C   0  0  0  0  0  2  0  0  0  0  0  0
  194.4040  174.8490  144.8990 C   0  0  1  0  0  3  0  0  0  0  0  0
  195.6210  175.9150  142.8680 C   0  0  1  0  0  0  0  0  0  0  0  0
  192.9610  175.2240  145.2100 C   0  0  2  0  0  3  0  0  0  0  0  0
  193.1560  175.4690  142.9020 C   0  0  1  0  0  3  0  0  0  0  0  0
  194.6870  173.4170  145.3190 C   0  0  0  0  0  2  0  0  0  0  0  0
  196.1300  173.2710  145.7630 C   0  0  0  0  0  1  0  0  0  0  0  0
  1 15  1  0  0  0  0
  2  7  2  0  0  0  0
  3 16  1  0  0  0  0
  4 19  1  0  0  0  0
  5 22  1  0  0  0  0
  5  1  1  0  0  0  0
  6  7  2  0  0  0  0
  7 13  1  0  0  0  0
  8 17  1  1  0  0  0
  9  7  1  6  0  0  0
  9 25  1  0  0  0  0
 10 14  1  0  0  0  0
 11 23  1  0  0  0  0
 12  8  1  0  0  0  0
 13  8  1  0  0  0  0
 14 18  1  0  0  0  0
 15 26  1  0  0  0  0
 15 19  2  0  0  0  0
 18 24  1  0  0  0  0
 20  1  2  0  0  0  0
 20 21  1  0  0  0  0
 21  4  2  0  0  0  0
 22 14  1  0  0  0  0
 23 25  1  0  0  0  0
 23 27  1  0  0  0  0
 24 11  1  0  0  0  0
 24  3  1  0  0  0  0
 24 16  1  0  0  0  0
 25 12  1  0  0  0  0
 26 11  1  0  0  0  0
 26  9  1  0  0  0  0
 27 28  1  0  0  0  0
M  END
>  <MODEL>
9

>  <REMARK>
 VINA RESULT:      -6.4      4.196      7.444
  Name = 
  1 active torsions:
  status: ('A' for Active; 'I' for Inactive)
    1  A    between atoms: C_5  and  C_24
                            x       y       z     vdW  Elec       q    Type
                         _______ _______ _______ _____ _____    ______ ____

>  <TORSDO>
F 1

$$$$
