=
 OpenBabel11112417363D

 28 32  0  0  1  0  0  0  0  0999 V2000
  188.3250  175.7210  146.4250 C   0  0  0  0  0  0  0  0  0  0  0  0
  186.4770  176.8060  142.3010 O   0  0  0  0  0  0  0  0  0  0  0  0
  193.8220  176.4390  143.8860 O   0  0  0  0  0  0  0  0  0  0  0  0
  186.6270  177.9010  145.9540 C   0  0  0  0  0  3  0  0  0  0  0  0
  192.2550  174.9660  142.8420 C   0  0  0  0  0  0  0  0  0  0  0  0
  189.3030  174.6680  146.8370 C   0  0  0  0  0  2  0  0  0  0  0  0
  188.5910  177.8670  141.5800 O   0  0  0  0  0  0  0  0  0  0  0  0
  187.8770  176.5660  141.8130 S   0  0  0  0  0  0  0  0  0  0  0  0
  188.5890  174.3810  140.2770 C   0  0  0  0  0  0  0  0  0  0  0  0
  188.7680  175.5400  142.9470 C   0  0  1  0  0  3  0  0  0  0  0  0
  191.7060  177.2520  148.3070 C   0  0  0  0  0  1  0  0  0  0  0  0
  190.5470  175.2480  144.4770 N   0  0  1  0  0  0  0  0  0  0  0  0
  189.5130  174.0790  141.1510 N   0  0  0  0  0  0  0  0  0  0  0  0
  187.8490  175.6160  140.3590 N   0  0  0  0  0  2  0  0  0  0  0  0
  191.0730  176.4580  147.1860 C   0  0  1  0  0  3  0  0  0  0  0  0
  188.4810  176.4860  145.2390 C   0  0  0  0  0  0  0  0  0  0  0  0
  192.6950  175.8750  143.8410 C   0  0  0  0  0  0  0  0  0  0  0  0
  188.2650  173.4120  139.1980 C   0  0  0  0  0  1  0  0  0  0  0  0
  192.1620  176.0100  146.2270 C   0  0  0  0  0  2  0  0  0  0  0  0
  187.6270  177.5810  145.0350 C   0  0  0  0  0  3  0  0  0  0  0  0
  187.3190  176.0530  147.3410 C   0  0  0  0  0  3  0  0  0  0  0  0
  186.4670  177.1310  147.1040 C   0  0  0  0  0  3  0  0  0  0  0  0
  190.3500  175.2530  147.7840 C   0  0  0  0  0  2  0  0  0  0  0  0
  190.8840  174.5270  143.2100 C   0  0  1  0  0  3  0  0  0  0  0  0
  191.7030  175.9820  144.8410 N   0  0  0  0  0  0  0  0  0  0  0  0
  189.9270  175.0420  142.1670 C   0  0  2  0  0  3  0  0  0  0  0  0
  192.9160  174.5870  141.8390 O   0  0  0  0  0  0  0  0  0  0  0  0
  189.4670  176.1890  144.1200 C   0  0  2  0  0  3  0  0  0  0  0  0
  1  6  1  0  0  0  0
  1 21  1  0  0  0  0
  4 22  1  0  0  0  0
  5 17  1  0  0  0  0
  6 23  1  0  0  0  0
  7  8  2  0  0  0  0
  8  2  2  0  0  0  0
  9 14  1  0  0  0  0
  9 13  2  0  0  0  0
 10  8  1  6  0  0  0
 10 28  1  0  0  0  0
 12 25  1  6  0  0  0
 14  8  1  0  0  0  0
 15 23  1  0  0  0  0
 15 11  1  1  0  0  0
 16  1  2  0  0  0  0
 17  3  2  0  0  0  0
 17 25  1  0  0  0  0
 18  9  1  0  0  0  0
 19 15  1  0  0  0  0
 20 16  1  0  0  0  0
 20  4  2  0  0  0  0
 22 21  2  0  0  0  0
 24  5  1  6  0  0  0
 24 12  1  0  0  0  0
 25 19  1  0  0  0  0
 26 13  1  6  0  0  0
 26 10  1  0  0  0  0
 26 24  1  0  0  0  0
 27  5  2  0  0  0  0
 28 12  1  0  0  0  0
 28 16  1  1  0  0  0
M  END
>  <MODEL>
1

>  <REMARK>
 VINA RESULT:      -8.8      0.000      0.000
  Name = 
  0 active torsions:
  status: ('A' for Active; 'I' for Inactive)
                            x       y       z     vdW  Elec       q    Type
                         _______ _______ _______ _____ _____    ______ ____

>  <TORSDO>
F 0

$$$$
=
 OpenBabel11112417363D

 28 32  0  0  1  0  0  0  0  0999 V2000
  185.3390  177.5500  145.5090 C   0  0  0  0  0  0  0  0  0  0  0  0
  186.1820  177.4810  140.9390 O   0  0  0  0  0  0  0  0  0  0  0  0
  191.3410  176.9240  146.3860 O   0  0  0  0  0  0  0  0  0  0  0  0
  184.7210  179.6300  143.7340 C   0  0  0  0  0  3  0  0  0  0  0  0
  190.2140  175.3560  144.9760 C   0  0  0  0  0  0  0  0  0  0  0  0
  185.6750  176.5880  146.6030 C   0  0  0  0  0  2  0  0  0  0  0  0
  188.5550  178.0620  141.3200 O   0  0  0  0  0  0  0  0  0  0  0  0
  187.5250  176.9700  141.3770 S   0  0  0  0  0  0  0  0  0  0  0  0
  188.3500  174.3600  140.9900 C   0  0  0  0  0  0  0  0  0  0  0  0
  187.4280  176.2630  142.9970 C   0  0  1  0  0  3  0  0  0  0  0  0
  187.5510  179.2590  148.5930 C   0  0  0  0  0  1  0  0  0  0  0  0
  188.0450  176.2900  145.2800 N   0  0  1  0  0  0  0  0  0  0  0  0
  188.5920  174.2560  142.2690 N   0  0  0  0  0  0  0  0  0  0  0  0
  188.0050  175.6250  140.3880 N   0  0  0  0  0  2  0  0  0  0  0  0
  187.4020  178.2210  147.5020 C   0  0  1  0  0  3  0  0  0  0  0  0
  186.2620  177.8940  144.4850 C   0  0  0  0  0  0  0  0  0  0  0  0
  190.2950  176.4840  145.8380 C   0  0  0  0  0  0  0  0  0  0  0  0
  188.3900  173.1410  140.1410 C   0  0  0  0  0  1  0  0  0  0  0  0
  188.6760  177.3980  147.4300 C   0  0  0  0  0  2  0  0  0  0  0  0
  185.9330  178.9480  143.6190 C   0  0  0  0  0  3  0  0  0  0  0  0
  184.1270  178.2430  145.6160 C   0  0  0  0  0  3  0  0  0  0  0  0
  183.8130  179.2710  144.7280 C   0  0  0  0  0  3  0  0  0  0  0  0
  186.2020  177.3340  147.8280 C   0  0  0  0  0  2  0  0  0  0  0  0
  188.7880  175.1850  144.5980 C   0  0  1  0  0  3  0  0  0  0  0  0
  188.9950  176.9880  146.0660 N   0  0  0  0  0  0  0  0  0  0  0  0
  188.6570  175.4410  143.1190 C   0  0  2  0  0  3  0  0  0  0  0  0
  191.1750  174.6260  144.6170 O   0  0  0  0  0  0  0  0  0  0  0  0
  187.5690  177.1730  144.1970 C   0  0  2  0  0  3  0  0  0  0  0  0
  1 21  1  0  0  0  0
  1  6  1  0  0  0  0
  2  8  2  0  0  0  0
  4 22  1  0  0  0  0
  5 17  1  0  0  0  0
  6 23  1  0  0  0  0
  7  8  2  0  0  0  0
  9 13  2  0  0  0  0
 10  8  1  6  0  0  0
 10 26  1  0  0  0  0
 10 28  1  0  0  0  0
 12 25  1  1  0  0  0
 14  9  1  0  0  0  0
 14  8  1  0  0  0  0
 15 23  1  0  0  0  0
 15 11  1  1  0  0  0
 16  1  2  0  0  0  0
 17 25  1  0  0  0  0
 17  3  2  0  0  0  0
 18  9  1  0  0  0  0
 19 15  1  0  0  0  0
 20  4  2  0  0  0  0
 20 16  1  0  0  0  0
 22 21  2  0  0  0  0
 24  5  1  1  0  0  0
 24 12  1  0  0  0  0
 25 19  1  0  0  0  0
 26 13  1  6  0  0  0
 26 24  1  0  0  0  0
 27  5  2  0  0  0  0
 28 16  1  1  0  0  0
 28 12  1  0  0  0  0
M  END
>  <MODEL>
2

>  <REMARK>
 VINA RESULT:      -8.5      1.994      2.984
  Name = 
  0 active torsions:
  status: ('A' for Active; 'I' for Inactive)
                            x       y       z     vdW  Elec       q    Type
                         _______ _______ _______ _____ _____    ______ ____

>  <TORSDO>
F 0

$$$$
=
 OpenBabel11112417363D

 28 32  0  0  1  0  0  0  0  0999 V2000
  185.5840  177.4090  144.9330 C   0  0  0  0  0  0  0  0  0  0  0  0
  188.2090  176.2860  141.2650 O   0  0  0  0  0  0  0  0  0  0  0  0
  190.7080  177.6360  148.2310 O   0  0  0  0  0  0  0  0  0  0  0  0
  185.7580  178.9050  142.5690 C   0  0  0  0  0  3  0  0  0  0  0  0
  190.2370  175.6600  146.9710 C   0  0  0  0  0  0  0  0  0  0  0  0
  185.4390  176.7900  146.2860 C   0  0  0  0  0  2  0  0  0  0  0  0
  190.2280  177.1830  142.3760 O   0  0  0  0  0  0  0  0  0  0  0  0
  189.2540  176.0400  142.3160 S   0  0  0  0  0  0  0  0  0  0  0  0
  190.1430  173.5150  143.0030 C   0  0  0  0  0  0  0  0  0  0  0  0
  188.5020  175.7550  143.8930 C   0  0  1  0  0  3  0  0  0  0  0  0
  186.3680  180.0500  148.0520 C   0  0  0  0  0  1  0  0  0  0  0  0
  188.1390  176.4140  146.1340 N   0  0  1  0  0  0  0  0  0  0  0  0
  189.8440  173.7590  144.2510 N   0  0  0  0  0  0  0  0  0  0  0  0
  190.0820  174.5470  141.9980 N   0  0  0  0  0  2  0  0  0  0  0  0
  186.6660  178.7630  147.3140 C   0  0  1  0  0  3  0  0  0  0  0  0
  186.8460  177.5780  144.3030 C   0  0  0  0  0  0  0  0  0  0  0  0
  189.9710  176.9690  147.4570 C   0  0  0  0  0  0  0  0  0  0  0  0
  190.5140  172.1330  142.6020 C   0  0  0  0  0  1  0  0  0  0  0  0
  187.8520  178.0820  147.9740 C   0  0  0  0  0  2  0  0  0  0  0  0
  186.9060  178.3430  143.1280 C   0  0  0  0  0  3  0  0  0  0  0  0
  184.4390  177.9790  144.3630 C   0  0  0  0  0  3  0  0  0  0  0  0
  184.5210  178.7150  143.1830 C   0  0  0  0  0  3  0  0  0  0  0  0
  185.4290  177.8680  147.3690 C   0  0  0  0  0  2  0  0  0  0  0  0
  189.0850  175.2550  146.1250 C   0  0  1  0  0  3  0  0  0  0  0  0
  188.6950  177.3790  147.0110 N   0  0  0  0  0  0  0  0  0  0  0  0
  189.5680  175.1190  144.7040 C   0  0  2  0  0  3  0  0  0  0  0  0
  191.2540  174.9650  147.2310 O   0  0  0  0  0  0  0  0  0  0  0  0
  188.1510  176.9450  144.7570 C   0  0  2  0  0  3  0  0  0  0  0  0
  1  6  1  0  0  0  0
  2  8  2  0  0  0  0
  4 20  2  0  0  0  0
  4 22  1  0  0  0  0
  5 27  2  0  0  0  0
  5 17  1  0  0  0  0
  6 23  1  0  0  0  0
  8  7  2  0  0  0  0
  9 13  2  0  0  0  0
 10  8  1  6  0  0  0
 10 26  1  0  0  0  0
 10 28  1  0  0  0  0
 12 25  1  1  0  0  0
 14  8  1  0  0  0  0
 14  9  1  0  0  0  0
 15 23  1  0  0  0  0
 15 19  1  0  0  0  0
 15 11  1  1  0  0  0
 16  1  2  0  0  0  0
 17  3  2  0  0  0  0
 18  9  1  0  0  0  0
 20 16  1  0  0  0  0
 21  1  1  0  0  0  0
 22 21  2  0  0  0  0
 24 12  1  0  0  0  0
 24  5  1  1  0  0  0
 25 17  1  0  0  0  0
 25 19  1  0  0  0  0
 26 13  1  6  0  0  0
 26 24  1  0  0  0  0
 28 16  1  6  0  0  0
 28 12  1  0  0  0  0
M  END
>  <MODEL>
3

>  <REMARK>
 VINA RESULT:      -8.1      2.390      3.907
  Name = 
  0 active torsions:
  status: ('A' for Active; 'I' for Inactive)
                            x       y       z     vdW  Elec       q    Type
                         _______ _______ _______ _____ _____    ______ ____

>  <TORSDO>
F 0

$$$$
=
 OpenBabel11112417363D

 28 32  0  0  1  0  0  0  0  0999 V2000
  189.7840  173.0590  143.2920 C   0  0  0  0  0  0  0  0  0  0  0  0
  190.2590  176.2000  146.6850 O   0  0  0  0  0  0  0  0  0  0  0  0
  187.1960  177.4350  139.9250 O   0  0  0  0  0  0  0  0  0  0  0  0
  192.2290  173.8590  144.4040 C   0  0  0  0  0  3  0  0  0  0  0  0
  186.3240  176.9940  142.1070 C   0  0  0  0  0  0  0  0  0  0  0  0
  188.5890  172.5830  142.5300 C   0  0  0  0  0  2  0  0  0  0  0  0
  190.0050  178.0540  145.0680 O   0  0  0  0  0  0  0  0  0  0  0  0
  189.2910  176.9850  145.8460 S   0  0  0  0  0  0  0  0  0  0  0  0
  186.6640  177.4280  146.5850 C   0  0  0  0  0  0  0  0  0  0  0  0
  188.3760  175.9140  144.7750 C   0  0  1  0  0  3  0  0  0  0  0  0
  190.1610  173.5190  139.1730 C   0  0  0  0  0  1  0  0  0  0  0  0
  187.8120  175.2000  142.5920 N   0  0  1  0  0  0  0  0  0  0  0  0
  186.2680  176.9220  145.4470 N   0  0  0  0  0  0  0  0  0  0  0  0
  188.0580  177.6830  146.8520 N   0  0  0  0  0  2  0  0  0  0  0  0
  189.4270  173.8050  140.4660 C   0  0  1  0  0  3  0  0  0  0  0  0
  190.0000  174.4300  143.5940 C   0  0  0  0  0  0  0  0  0  0  0  0
  187.2030  176.7910  141.0080 C   0  0  0  0  0  0  0  0  0  0  0  0
  185.6600  177.7090  147.6440 C   0  0  0  0  0  1  0  0  0  0  0  0
  188.2780  174.7540  140.1770 C   0  0  0  0  0  2  0  0  0  0  0  0
  191.2390  174.8040  144.1370 C   0  0  0  0  0  3  0  0  0  0  0  0
  190.7860  172.1190  143.5630 C   0  0  0  0  0  3  0  0  0  0  0  0
  191.9990  172.5130  144.1250 C   0  0  0  0  0  3  0  0  0  0  0  0
  188.9100  172.4870  141.0390 C   0  0  0  0  0  2  0  0  0  0  0  0
  186.6690  175.9910  143.1470 C   0  0  1  0  0  3  0  0  0  0  0  0
  188.0340  175.6810  141.2780 N   0  0  0  0  0  0  0  0  0  0  0  0
  187.2080  176.7210  144.3490 C   0  0  2  0  0  3  0  0  0  0  0  0
  185.4080  177.8550  142.1750 O   0  0  0  0  0  0  0  0  0  0  0  0
  188.9740  175.5410  143.4370 C   0  0  2  0  0  3  0  0  0  0  0  0
  1 21  2  0  0  0  0
  1 16  1  0  0  0  0
  3 17  2  0  0  0  0
  5 27  2  0  0  0  0
  6  1  1  0  0  0  0
  7  8  2  0  0  0  0
  8  2  2  0  0  0  0
  8 14  1  0  0  0  0
  9 14  1  0  0  0  0
  9 18  1  0  0  0  0
 10  8  1  1  0  0  0
 12 25  1  6  0  0  0
 12 24  1  0  0  0  0
 12 28  1  0  0  0  0
 13  9  2  0  0  0  0
 15 11  1  6  0  0  0
 15 23  1  0  0  0  0
 16 20  2  0  0  0  0
 17 25  1  0  0  0  0
 17  5  1  0  0  0  0
 19 15  1  0  0  0  0
 19 25  1  0  0  0  0
 20  4  1  0  0  0  0
 21 22  1  0  0  0  0
 22  4  2  0  0  0  0
 23  6  1  0  0  0  0
 24  5  1  6  0  0  0
 24 26  1  0  0  0  0
 26 10  1  0  0  0  0
 26 13  1  1  0  0  0
 28 16  1  1  0  0  0
 28 10  1  0  0  0  0
M  END
>  <MODEL>
4

>  <REMARK>
 VINA RESULT:      -8.0      2.651      6.188
  Name = 
  0 active torsions:
  status: ('A' for Active; 'I' for Inactive)
                            x       y       z     vdW  Elec       q    Type
                         _______ _______ _______ _____ _____    ______ ____

>  <TORSDO>
F 0

$$$$
=
 OpenBabel11112417363D

 28 32  0  0  1  0  0  0  0  0999 V2000
  190.6400  175.7480  144.1990 C   0  0  0  0  0  0  0  0  0  0  0  0
  189.6560  172.1350  141.4460 O   0  0  0  0  0  0  0  0  0  0  0  0
  184.9420  177.7080  143.2650 O   0  0  0  0  0  0  0  0  0  0  0  0
  190.7390  173.0600  144.9860 C   0  0  0  0  0  3  0  0  0  0  0  0
  186.3180  177.2270  141.3710 C   0  0  0  0  0  0  0  0  0  0  0  0
  190.5560  177.2250  143.9800 C   0  0  0  0  0  2  0  0  0  0  0  0
  187.2300  172.4880  141.7690 O   0  0  0  0  0  0  0  0  0  0  0  0
  188.4680  172.9760  141.0710 S   0  0  0  0  0  0  0  0  0  0  0  0
  188.1950  174.1960  138.6060 C   0  0  0  0  0  0  0  0  0  0  0  0
  188.7730  174.6830  141.4220 C   0  0  1  0  0  3  0  0  0  0  0  0
  188.2390  177.6990  146.9820 C   0  0  0  0  0  1  0  0  0  0  0  0
  188.2520  176.6470  142.6320 N   0  0  1  0  0  0  0  0  0  0  0  0
  188.0300  175.3460  139.2030 N   0  0  0  0  0  0  0  0  0  0  0  0
  188.2440  172.9610  139.3490 N   0  0  0  0  0  2  0  0  0  0  0  0
  188.5600  177.3380  145.5490 C   0  0  1  0  0  3  0  0  0  0  0  0
  189.6270  174.8530  143.7620 C   0  0  0  0  0  0  0  0  0  0  0  0
  186.0350  177.3380  142.7590 C   0  0  0  0  0  0  0  0  0  0  0  0
  188.3800  174.1620  137.1320 C   0  0  0  0  0  1  0  0  0  0  0  0
  187.4860  177.9160  144.6450 C   0  0  0  0  0  2  0  0  0  0  0  0
  189.6940  173.5160  144.1820 C   0  0  0  0  0  3  0  0  0  0  0  0
  191.6830  175.2790  145.0070 C   0  0  0  0  0  3  0  0  0  0  0  0
  191.7390  173.9410  145.3920 C   0  0  0  0  0  3  0  0  0  0  0  0
  189.9310  177.9110  145.1940 C   0  0  0  0  0  2  0  0  0  0  0  0
  187.7330  176.7940  141.2360 C   0  0  1  0  0  3  0  0  0  0  0  0
  187.2070  177.0590  143.4960 N   0  0  0  0  0  0  0  0  0  0  0  0
  187.7500  175.4130  140.6340 C   0  0  2  0  0  3  0  0  0  0  0  0
  185.5190  177.4700  140.4280 O   0  0  0  0  0  0  0  0  0  0  0  0
  188.4900  175.2010  142.8140 C   0  0  2  0  0  3  0  0  0  0  0  0
  1 21  1  0  0  0  0
  4 22  1  0  0  0  0
  5 17  1  0  0  0  0
  6  1  1  0  0  0  0
  6 23  1  0  0  0  0
  8  2  2  0  0  0  0
  8  7  2  0  0  0  0
  9 13  2  0  0  0  0
  9 14  1  0  0  0  0
 10  8  1  1  0  0  0
 10 28  1  0  0  0  0
 12 28  1  0  0  0  0
 12 25  1  1  0  0  0
 14  8  1  0  0  0  0
 15 11  1  1  0  0  0
 16 20  1  0  0  0  0
 16  1  2  0  0  0  0
 17  3  2  0  0  0  0
 17 25  1  0  0  0  0
 18  9  1  0  0  0  0
 19 15  1  0  0  0  0
 20  4  2  0  0  0  0
 21 22  2  0  0  0  0
 23 15  1  0  0  0  0
 24  5  1  1  0  0  0
 24 12  1  0  0  0  0
 25 19  1  0  0  0  0
 26 13  1  6  0  0  0
 26 24  1  0  0  0  0
 26 10  1  0  0  0  0
 27  5  2  0  0  0  0
 28 16  1  1  0  0  0
M  END
>  <MODEL>
5

>  <REMARK>
 VINA RESULT:      -7.5      2.622      4.747
  Name = 
  0 active torsions:
  status: ('A' for Active; 'I' for Inactive)
                            x       y       z     vdW  Elec       q    Type
                         _______ _______ _______ _____ _____    ______ ____

>  <TORSDO>
F 0

$$$$
=
 OpenBabel11112417363D

 28 32  0  0  1  0  0  0  0  0999 V2000
  192.4110  175.5960  142.5870 C   0  0  0  0  0  0  0  0  0  0  0  0
  188.2750  175.4670  140.4710 O   0  0  0  0  0  0  0  0  0  0  0  0
  189.4940  174.5420  147.8370 O   0  0  0  0  0  0  0  0  0  0  0  0
  191.6960  173.7810  140.5750 C   0  0  0  0  0  3  0  0  0  0  0  0
  188.7810  176.3700  146.4710 C   0  0  0  0  0  0  0  0  0  0  0  0
  192.9290  176.4210  143.7210 C   0  0  0  0  0  2  0  0  0  0  0  0
  187.2810  174.2540  142.3830 O   0  0  0  0  0  0  0  0  0  0  0  0
  187.7550  175.5860  141.8760 S   0  0  0  0  0  0  0  0  0  0  0  0
  186.5440  177.8710  142.8520 C   0  0  0  0  0  0  0  0  0  0  0  0
  188.9850  176.2790  142.9430 C   0  0  1  0  0  3  0  0  0  0  0  0
  193.8420  173.3220  145.7650 C   0  0  0  0  0  1  0  0  0  0  0  0
  190.4430  176.0660  144.7930 N   0  0  1  0  0  0  0  0  0  0  0  0
  187.4030  177.8950  143.8370 N   0  0  0  0  0  0  0  0  0  0  0  0
  186.4720  176.7550  141.9420 N   0  0  0  0  0  2  0  0  0  0  0  0
  192.8950  174.3690  145.2200 C   0  0  1  0  0  3  0  0  0  0  0  0
  191.1120  175.0200  142.5930 C   0  0  0  0  0  0  0  0  0  0  0  0
  189.6000  175.2570  146.8050 C   0  0  0  0  0  0  0  0  0  0  0  0
  185.6500  179.0390  142.6400 C   0  0  0  0  0  1  0  0  0  0  0  0
  191.9600  174.8100  146.3320 C   0  0  0  0  0  2  0  0  0  0  0  0
  190.7860  174.1040  141.5810 C   0  0  0  0  0  3  0  0  0  0  0  0
  193.3160  175.2630  141.5720 C   0  0  0  0  0  3  0  0  0  0  0  0
  192.9600  174.3670  140.5650 C   0  0  0  0  0  3  0  0  0  0  0  0
  193.7140  175.5490  144.7000 C   0  0  0  0  0  2  0  0  0  0  0  0
  189.2880  176.9300  145.1920 C   0  0  1  0  0  3  0  0  0  0  0  0
  190.6230  175.1280  145.8390 N   0  0  0  0  0  0  0  0  0  0  0  0
  188.2310  176.7310  144.1370 C   0  0  2  0  0  3  0  0  0  0  0  0
  187.8160  176.8120  147.1490 O   0  0  0  0  0  0  0  0  0  0  0  0
  190.0020  175.3560  143.5750 C   0  0  2  0  0  3  0  0  0  0  0  0
  1 16  1  0  0  0  0
  1  6  1  0  0  0  0
  2  8  2  0  0  0  0
  4 20  1  0  0  0  0
  5 17  1  0  0  0  0
  5 27  2  0  0  0  0
  6 23  1  0  0  0  0
  8 14  1  0  0  0  0
  8  7  2  0  0  0  0
  9 13  2  0  0  0  0
 10  8  1  6  0  0  0
 10 28  1  0  0  0  0
 10 26  1  0  0  0  0
 12 24  1  0  0  0  0
 12 25  1  1  0  0  0
 14  9  1  0  0  0  0
 15 11  1  1  0  0  0
 15 19  1  0  0  0  0
 17  3  2  0  0  0  0
 18  9  1  0  0  0  0
 20 16  2  0  0  0  0
 21  1  2  0  0  0  0
 22  4  2  0  0  0  0
 22 21  1  0  0  0  0
 23 15  1  0  0  0  0
 24  5  1  1  0  0  0
 25 19  1  0  0  0  0
 25 17  1  0  0  0  0
 26 13  1  6  0  0  0
 26 24  1  0  0  0  0
 28 16  1  6  0  0  0
 28 12  1  0  0  0  0
M  END
>  <MODEL>
6

>  <REMARK>
 VINA RESULT:      -7.3      2.421      5.009
  Name = 
  0 active torsions:
  status: ('A' for Active; 'I' for Inactive)
                            x       y       z     vdW  Elec       q    Type
                         _______ _______ _______ _____ _____    ______ ____

>  <TORSDO>
F 0

$$$$
=
 OpenBabel11112417363D

 28 32  0  0  1  0  0  0  0  0999 V2000
  191.3840  175.5350  146.1210 C   0  0  0  0  0  0  0  0  0  0  0  0
  187.6570  176.0100  143.3860 O   0  0  0  0  0  0  0  0  0  0  0  0
  194.8300  176.7230  141.2330 O   0  0  0  0  0  0  0  0  0  0  0  0
  189.3540  177.4310  146.4950 C   0  0  0  0  0  3  0  0  0  0  0  0
  193.2030  174.9760  141.0970 C   0  0  0  0  0  0  0  0  0  0  0  0
  192.5890  174.6550  146.0260 C   0  0  0  0  0  2  0  0  0  0  0  0
  188.9820  177.2650  141.7170 O   0  0  0  0  0  0  0  0  0  0  0  0
  188.6750  175.9080  142.2860 S   0  0  0  0  0  0  0  0  0  0  0  0
  188.8990  173.7070  140.6300 C   0  0  0  0  0  0  0  0  0  0  0  0
  190.1440  175.1080  142.8640 C   0  0  1  0  0  3  0  0  0  0  0  0
  194.9720  177.6430  146.1140 C   0  0  0  0  0  1  0  0  0  0  0  0
  192.4570  175.1800  143.3490 N   0  0  1  0  0  0  0  0  0  0  0  0
  190.1610  173.6020  140.9540 N   0  0  0  0  0  0  0  0  0  0  0  0
  188.1070  174.8390  141.0410 N   0  0  0  0  0  2  0  0  0  0  0  0
  194.0130  176.6800  145.4490 C   0  0  1  0  0  3  0  0  0  0  0  0
  190.8380  176.2070  144.9950 C   0  0  0  0  0  0  0  0  0  0  0  0
  193.9190  176.0190  141.7460 C   0  0  0  0  0  0  0  0  0  0  0  0
  188.2550  172.6130  139.8570 C   0  0  0  0  0  1  0  0  0  0  0  0
  194.5690  176.2930  144.0910 C   0  0  0  0  0  2  0  0  0  0  0  0
  189.8330  177.1610  145.2130 C   0  0  0  0  0  3  0  0  0  0  0  0
  190.8960  175.8150  147.4040 C   0  0  0  0  0  3  0  0  0  0  0  0
  189.8800  176.7500  147.5910 C   0  0  0  0  0  3  0  0  0  0  0  0
  193.8560  175.4500  146.3410 C   0  0  0  0  0  2  0  0  0  0  0  0
  192.2580  174.4000  142.0880 C   0  0  1  0  0  3  0  0  0  0  0  0
  193.5180  176.0850  143.0990 N   0  0  0  0  0  0  0  0  0  0  0  0
  190.8540  174.6950  141.6290 C   0  0  2  0  0  3  0  0  0  0  0  0
  193.3590  174.5990  139.9060 O   0  0  0  0  0  0  0  0  0  0  0  0
  191.2060  175.9410  143.5440 C   0  0  2  0  0  3  0  0  0  0  0  0
  1 21  1  0  0  0  0
  3 17  2  0  0  0  0
  4 22  1  0  0  0  0
  5 17  1  0  0  0  0
  6  1  1  0  0  0  0
  6 23  1  0  0  0  0
  7  8  2  0  0  0  0
  8  2  2  0  0  0  0
  9 13  2  0  0  0  0
  9 14  1  0  0  0  0
 10  8  1  6  0  0  0
 10 28  1  0  0  0  0
 12 25  1  6  0  0  0
 12 28  1  0  0  0  0
 14  8  1  0  0  0  0
 15 11  1  1  0  0  0
 15 23  1  0  0  0  0
 16 20  1  0  0  0  0
 16  1  2  0  0  0  0
 17 25  1  0  0  0  0
 18  9  1  0  0  0  0
 19 15  1  0  0  0  0
 20  4  2  0  0  0  0
 21 22  2  0  0  0  0
 24  5  1  6  0  0  0
 24 12  1  0  0  0  0
 25 19  1  0  0  0  0
 26 13  1  1  0  0  0
 26 24  1  0  0  0  0
 26 10  1  0  0  0  0
 27  5  2  0  0  0  0
 28 16  1  1  0  0  0
M  END
>  <MODEL>
7

>  <REMARK>
 VINA RESULT:      -7.2      1.719      2.453
  Name = 
  0 active torsions:
  status: ('A' for Active; 'I' for Inactive)
                            x       y       z     vdW  Elec       q    Type
                         _______ _______ _______ _____ _____    ______ ____

>  <TORSDO>
F 0

$$$$
=
 OpenBabel11112417363D

 28 32  0  0  1  0  0  0  0  0999 V2000
  190.3640  177.2490  144.5540 C   0  0  0  0  0  0  0  0  0  0  0  0
  194.2440  175.7530  146.6290 O   0  0  0  0  0  0  0  0  0  0  0  0
  191.0690  172.7400  140.5110 O   0  0  0  0  0  0  0  0  0  0  0  0
  190.5200  176.3530  147.2060 C   0  0  0  0  0  3  0  0  0  0  0  0
  192.8900  174.2420  140.8890 C   0  0  0  0  0  0  0  0  0  0  0  0
  190.0810  177.6730  143.1490 C   0  0  0  0  0  2  0  0  0  0  0  0
  194.0300  173.5430  145.5420 O   0  0  0  0  0  0  0  0  0  0  0  0
  194.4150  174.9820  145.3510 S   0  0  0  0  0  0  0  0  0  0  0  0
  196.3410  175.5900  143.4640 C   0  0  0  0  0  0  0  0  0  0  0  0
  193.4860  175.7270  144.0410 C   0  0  1  0  0  3  0  0  0  0  0  0
  187.3030  175.0750  142.7590 C   0  0  0  0  0  1  0  0  0  0  0  0
  191.7360  175.6150  142.4550 N   0  0  1  0  0  0  0  0  0  0  0  0
  195.4090  175.6760  142.5530 N   0  0  0  0  0  0  0  0  0  0  0  0
  196.0550  175.1070  144.7920 N   0  0  0  0  0  2  0  0  0  0  0  0
  188.7420  175.5440  142.7850 C   0  0  1  0  0  3  0  0  0  0  0  0
  191.1610  176.1150  144.8640 C   0  0  0  0  0  0  0  0  0  0  0  0
  191.5750  173.7410  141.0850 C   0  0  0  0  0  0  0  0  0  0  0  0
  197.7190  176.0410  143.1380 C   0  0  0  0  0  1  0  0  0  0  0  0
  189.4870  174.9010  141.6290 C   0  0  0  0  0  2  0  0  0  0  0  0
  191.2100  175.6800  146.1970 C   0  0  0  0  0  3  0  0  0  0  0  0
  189.6740  177.9160  145.5750 C   0  0  0  0  0  3  0  0  0  0  0  0
  189.7580  177.4780  146.8950 C   0  0  0  0  0  3  0  0  0  0  0  0
  188.7650  177.0660  142.6630 C   0  0  0  0  0  2  0  0  0  0  0  0
  193.0400  175.4510  141.7400 C   0  0  1  0  0  3  0  0  0  0  0  0
  190.8770  174.6010  141.9630 N   0  0  0  0  0  0  0  0  0  0  0  0
  194.0670  175.1570  142.8020 C   0  0  2  0  0  3  0  0  0  0  0  0
  193.7610  173.7590  140.1180 O   0  0  0  0  0  0  0  0  0  0  0  0
  192.0310  175.3520  143.8780 C   0  0  2  0  0  3  0  0  0  0  0  0
  1 16  2  0  0  0  0
  1 21  1  0  0  0  0
  3 17  2  0  0  0  0
  5 17  1  0  0  0  0
  6  1  1  0  0  0  0
  8  7  2  0  0  0  0
  8  2  2  0  0  0  0
  9 14  1  0  0  0  0
 10  8  1  1  0  0  0
 12 25  1  6  0  0  0
 12 28  1  0  0  0  0
 13  9  2  0  0  0  0
 14  8  1  0  0  0  0
 15 11  1  6  0  0  0
 16 20  1  0  0  0  0
 17 25  1  0  0  0  0
 18  9  1  0  0  0  0
 19 25  1  0  0  0  0
 19 15  1  0  0  0  0
 20  4  2  0  0  0  0
 21 22  2  0  0  0  0
 22  4  1  0  0  0  0
 23 15  1  0  0  0  0
 23  6  1  0  0  0  0
 24  5  1  6  0  0  0
 24 12  1  0  0  0  0
 24 26  1  0  0  0  0
 26 13  1  6  0  0  0
 26 10  1  0  0  0  0
 27  5  2  0  0  0  0
 28 10  1  0  0  0  0
 28 16  1  1  0  0  0
M  END
>  <MODEL>
8

>  <REMARK>
 VINA RESULT:      -7.2      2.953      5.614
  Name = 
  0 active torsions:
  status: ('A' for Active; 'I' for Inactive)
                            x       y       z     vdW  Elec       q    Type
                         _______ _______ _______ _____ _____    ______ ____

>  <TORSDO>
F 0

$$$$
=
 OpenBabel11112417363D

 28 32  0  0  1  0  0  0  0  0999 V2000
  192.8260  174.9340  144.6250 C   0  0  0  0  0  0  0  0  0  0  0  0
  190.9540  171.6600  141.9100 O   0  0  0  0  0  0  0  0  0  0  0  0
  187.1550  176.6500  146.0640 O   0  0  0  0  0  0  0  0  0  0  0  0
  193.2270  172.1770  144.9310 C   0  0  0  0  0  3  0  0  0  0  0  0
  187.7620  176.5050  143.7570 C   0  0  0  0  0  0  0  0  0  0  0  0
  192.6550  176.4190  144.6650 C   0  0  0  0  0  2  0  0  0  0  0  0
  188.8020  171.8200  143.1190 O   0  0  0  0  0  0  0  0  0  0  0  0
  189.7020  172.4680  142.1060 S   0  0  0  0  0  0  0  0  0  0  0  0
  188.5500  173.9820  140.1010 C   0  0  0  0  0  0  0  0  0  0  0  0
  190.0960  174.1310  142.5680 C   0  0  1  0  0  3  0  0  0  0  0  0
  191.5670  176.3540  148.3290 C   0  0  0  0  0  1  0  0  0  0  0  0
  190.0270  175.8840  144.1530 N   0  0  1  0  0  0  0  0  0  0  0  0
  188.5990  175.0320  140.8770 N   0  0  0  0  0  0  0  0  0  0  0  0
  188.8740  172.6650  140.5920 N   0  0  0  0  0  2  0  0  0  0  0  0
  191.3560  176.2040  146.8380 C   0  0  1  0  0  3  0  0  0  0  0  0
  191.7330  174.0440  144.4510 C   0  0  0  0  0  0  0  0  0  0  0  0
  187.9960  176.4160  145.1560 C   0  0  0  0  0  0  0  0  0  0  0  0
  188.1920  174.1530  138.6680 C   0  0  0  0  0  1  0  0  0  0  0  0
  190.0230  176.8290  146.4670 C   0  0  0  0  0  2  0  0  0  0  0  0
  191.9590  172.6700  144.6240 C   0  0  0  0  0  3  0  0  0  0  0  0
  194.0940  174.4280  144.9340 C   0  0  0  0  0  3  0  0  0  0  0  0
  194.2990  173.0560  145.0780 C   0  0  0  0  0  3  0  0  0  0  0  0
  192.5020  176.9000  146.1070 C   0  0  0  0  0  2  0  0  0  0  0  0
  189.0390  176.1810  143.0690 C   0  0  1  0  0  3  0  0  0  0  0  0
  189.3580  176.1150  145.3810 N   0  0  0  0  0  0  0  0  0  0  0  0
  188.8520  174.8940  142.3080 C   0  0  2  0  0  3  0  0  0  0  0  0
  186.6760  176.8210  143.2050 O   0  0  0  0  0  0  0  0  0  0  0  0
  190.3280  174.4430  144.0290 C   0  0  2  0  0  3  0  0  0  0  0  0
  1  6  1  0  0  0  0
  1 21  1  0  0  0  0
  2  8  2  0  0  0  0
  4 22  1  0  0  0  0
  5 17  1  0  0  0  0
  6 23  1  0  0  0  0
  8  7  2  0  0  0  0
  9 14  1  0  0  0  0
  9 13  2  0  0  0  0
 10  8  1  1  0  0  0
 10 28  1  0  0  0  0
 12 25  1  1  0  0  0
 14  8  1  0  0  0  0
 15 11  1  1  0  0  0
 16 20  1  0  0  0  0
 16  1  2  0  0  0  0
 17 25  1  0  0  0  0
 17  3  2  0  0  0  0
 18  9  1  0  0  0  0
 19 15  1  0  0  0  0
 20  4  2  0  0  0  0
 21 22  2  0  0  0  0
 23 15  1  0  0  0  0
 24  5  1  1  0  0  0
 24 12  1  0  0  0  0
 25 19  1  0  0  0  0
 26 13  1  6  0  0  0
 26 10  1  0  0  0  0
 26 24  1  0  0  0  0
 27  5  2  0  0  0  0
 28 12  1  0  0  0  0
 28 16  1  6  0  0  0
M  END
>  <MODEL>
9

>  <REMARK>
 VINA RESULT:      -7.2      2.195      4.692
  Name = 
  0 active torsions:
  status: ('A' for Active; 'I' for Inactive)
                            x       y       z     vdW  Elec       q    Type
                         _______ _______ _______ _____ _____    ______ ____

>  <TORSDO>
F 0

$$$$
