=
 OpenBabel11112417563D

 34 40  0  0  1  0  0  0  0  0999 V2000
  189.9420  175.0660  142.5310 C   0  0  0  0  0  0  0  0  0  0  0  0
  192.1950  174.1220  141.8100 C   0  0  0  0  0  2  0  0  0  0  0  0
  185.9010  179.2790  146.4040 O   0  0  0  0  0  0  0  0  0  0  0  0
  187.9920  176.5320  143.0790 C   0  0  1  0  0  3  0  0  0  0  0  0
  187.9810  177.6020  145.3790 N   0  0  1  0  0  0  0  0  0  0  0  0
  187.4730  178.0530  147.7310 C   0  0  0  0  0  2  0  0  0  0  0  0
  186.0600  178.6110  147.6230 C   0  0  0  0  0  2  0  0  0  0  0  0
  184.8990  177.5050  145.0940 C   0  0  0  0  0  2  0  0  0  0  0  0
  191.9280  174.8910  144.0810 C   0  0  2  0  0  3  0  0  0  0  0  0
  194.2140  175.1880  146.1700 C   0  0  0  0  0  2  0  0  0  0  0  0
  189.4380  177.6240  145.1640 C   0  0  0  0  0  2  0  0  0  0  0  0
  185.9470  177.6620  144.0040 C   0  0  0  0  0  2  0  0  0  0  0  0
  191.5050  176.2640  144.6060 C   0  0  1  0  0  3  0  0  0  0  0  0
  193.5500  174.0230  142.5000 C   0  0  0  0  0  2  0  0  0  0  0  0
  187.2020  176.8650  144.3600 C   0  0  1  0  0  3  0  0  0  0  0  0
  184.6950  178.8070  145.8660 C   0  0  0  0  0  2  0  0  0  0  0  0
  194.1990  174.2320  144.9710 C   0  0  2  0  0  3  0  0  0  0  0  0
  189.3160  175.8830  143.4120 C   0  0  0  0  0  0  0  0  0  0  0  0
  187.7300  176.9830  146.6760 C   0  0  0  0  0  2  0  0  0  0  0  0
  189.9770  176.2630  144.7190 C   0  0  2  0  0  3  0  0  0  0  0  0
  188.0220  175.3840  140.8930 C   0  0  0  0  0  2  0  0  0  0  0  0
  192.8190  175.5090  146.7160 C   0  0  0  0  0  2  0  0  0  0  0  0
  187.1760  175.6630  142.1250 C   0  0  0  0  0  2  0  0  0  0  0  0
  192.1830  176.6580  145.9340 C   0  0  0  0  0  2  0  0  0  0  0  0
  193.4140  174.8250  143.7910 C   0  0  2  0  0  3  0  0  0  0  0  0
  189.2510  174.5670  141.2820 C   0  0  0  0  0  2  0  0  0  0  0  0
  191.2740  174.6090  142.8200 N   0  0  0  0  0  0  0  0  0  0  0  0
  193.7130  172.8470  145.4000 C   0  0  0  0  0  2  0  0  0  0  0  0
  194.6630  171.7720  144.9020 C   0  0  0  0  0  2  0  0  0  0  0  0
  197.4770  169.8780  145.8270 N   0  0  0  0  0  2  0  0  0  0  0  0
  197.1230  172.1120  145.0740 C   0  0  0  0  0  2  0  0  0  0  0  0
  195.8770  171.6820  145.8100 C   0  0  2  0  0  3  0  0  0  0  0  0
  197.8690  170.8280  144.8000 C   0  0  0  0  0  2  0  0  0  0  0  0
  196.1110  170.2320  146.1880 C   0  0  0  0  0  2  0  0  0  0  0  0
  1 27  1  0  0  0  0
  1 18  2  0  0  0  0
  2 14  1  0  0  0  0
  2 27  1  0  0  0  0
  3  7  1  0  0  0  0
  4 23  1  6  0  0  0
  4 18  1  0  0  0  0
  4 15  1  0  0  0  0
  5 11  1  6  0  0  0
  5 19  1  0  0  0  0
  7  6  1  0  0  0  0
  8 16  1  0  0  0  0
  9 27  1  6  0  0  0
  9 13  1  0  0  0  0
 10 22  1  0  0  0  0
 12  8  1  0  0  0  0
 13 20  1  0  0  0  0
 13 24  1  1  0  0  0
 15 12  1  6  0  0  0
 15  5  1  0  0  0  0
 16  3  1  0  0  0  0
 17 28  1  1  0  0  0
 17 10  1  0  0  0  0
 18 20  1  0  0  0  0
 19  6  1  0  0  0  0
 20 11  1  6  0  0  0
 21 26  1  0  0  0  0
 21 23  1  0  0  0  0
 24 22  1  0  0  0  0
 25 14  1  6  0  0  0
 25  9  1  0  0  0  0
 25 17  1  0  0  0  0
 26  1  1  0  0  0  0
 29 28  1  0  0  0  0
 30 34  1  0  0  0  0
 31 32  1  0  0  0  0
 32 29  1  6  0  0  0
 32 34  1  0  0  0  0
 33 31  1  0  0  0  0
 33 30  1  0  0  0  0
M  END
>  <MODEL>
1

>  <REMARK>
 VINA RESULT:      -8.5      0.000      0.000
  Name = 
  3 active torsions:
  status: ('A' for Active; 'I' for Inactive)
    1  A    between atoms: C_17  and  C_28
    2  A    between atoms: C_28  and  C_29
    3  A    between atoms: C_29  and  C_32
                            x       y       z     vdW  Elec       q    Type
                         _______ _______ _______ _____ _____    ______ ____

>  <TORSDO>
F 3

$$$$
=
 OpenBabel11112417563D

 34 40  0  0  1  0  0  0  0  0999 V2000
  191.7340  175.8420  144.9010 C   0  0  0  0  0  0  0  0  0  0  0  0
  190.3090  177.8510  144.2540 C   0  0  0  0  0  2  0  0  0  0  0  0
  194.7970  169.6830  143.5690 O   0  0  0  0  0  0  0  0  0  0  0  0
  193.4670  174.0460  145.0460 C   0  0  1  0  0  3  0  0  0  0  0  0
  193.0870  171.9780  143.6250 N   0  0  1  0  0  0  0  0  0  0  0  0
  192.4850  169.7050  142.9430 C   0  0  0  0  0  2  0  0  0  0  0  0
  193.6340  168.9060  143.5430 C   0  0  0  0  0  2  0  0  0  0  0  0
  194.6830  170.5140  145.8400 C   0  0  0  0  0  2  0  0  0  0  0  0
  189.8550  175.7200  143.2190 C   0  0  2  0  0  3  0  0  0  0  0  0
  187.8950  175.2410  140.8520 C   0  0  0  0  0  2  0  0  0  0  0  0
  192.4900  172.9570  142.7020 C   0  0  0  0  0  2  0  0  0  0  0  0
  194.8200  171.9520  145.3660 C   0  0  0  0  0  2  0  0  0  0  0  0
  190.7790  174.8080  142.4120 C   0  0  1  0  0  3  0  0  0  0  0  0
  189.2250  178.0610  143.2040 C   0  0  0  0  0  2  0  0  0  0  0  0
  193.4560  172.5070  144.9580 C   0  0  1  0  0  3  0  0  0  0  0  0
  195.3240  169.5370  144.8590 C   0  0  0  0  0  2  0  0  0  0  0  0
  187.8190  176.3800  141.8750 C   0  0  2  0  0  3  0  0  0  0  0  0
  192.1860  174.6300  144.4980 C   0  0  0  0  0  0  0  0  0  0  0  0
  192.1230  170.9000  143.8180 C   0  0  0  0  0  2  0  0  0  0  0  0
  191.4770  173.8670  143.4000 C   0  0  2  0  0  3  0  0  0  0  0  0
  193.7270  176.0450  146.4700 C   0  0  0  0  0  2  0  0  0  0  0  0
  188.5390  173.9640  141.4010 C   0  0  0  0  0  2  0  0  0  0  0  0
  193.7280  174.5250  146.4710 C   0  0  0  0  0  2  0  0  0  0  0  0
  190.0620  174.0340  141.2860 C   0  0  0  0  0  2  0  0  0  0  0  0
  189.2190  176.7920  142.3580 C   0  0  2  0  0  3  0  0  0  0  0  0
  192.3440  176.5620  146.0830 C   0  0  0  0  0  2  0  0  0  0  0  0
  190.6060  176.4310  144.2320 N   0  0  0  0  0  0  0  0  0  0  0  0
  186.8600  176.0160  143.0090 C   0  0  0  0  0  2  0  0  0  0  0  0
  185.7080  177.0030  143.0670 C   0  0  0  0  0  2  0  0  0  0  0  0
  184.2480  178.1090  146.0690 N   0  0  0  0  0  2  0  0  0  0  0  0
  186.3350  177.1220  145.4730 C   0  0  0  0  0  2  0  0  0  0  0  0
  185.8500  177.9080  144.2790 C   0  0  2  0  0  3  0  0  0  0  0  0
  185.1200  176.9830  146.3580 C   0  0  0  0  0  2  0  0  0  0  0  0
  184.4840  178.4370  144.6700 C   0  0  0  0  0  2  0  0  0  0  0  0
  1 26  1  0  0  0  0
  3 16  1  0  0  0  0
  4 23  1  1  0  0  0
  5 11  1  6  0  0  0
  5 19  1  0  0  0  0
  5 15  1  0  0  0  0
  6  7  1  0  0  0  0
  6 19  1  0  0  0  0
  7  3  1  0  0  0  0
  9 27  1  1  0  0  0
 10 22  1  0  0  0  0
 10 17  1  0  0  0  0
 12  8  1  0  0  0  0
 13 24  1  6  0  0  0
 13  9  1  0  0  0  0
 13 20  1  0  0  0  0
 14  2  1  0  0  0  0
 15  4  1  0  0  0  0
 15 12  1  6  0  0  0
 16  8  1  0  0  0  0
 17 25  1  0  0  0  0
 17 28  1  1  0  0  0
 18  1  2  0  0  0  0
 18  4  1  0  0  0  0
 20 11  1  6  0  0  0
 20 18  1  0  0  0  0
 21 23  1  0  0  0  0
 24 22  1  0  0  0  0
 25 14  1  1  0  0  0
 25  9  1  0  0  0  0
 26 21  1  0  0  0  0
 27  2  1  0  0  0  0
 27  1  1  0  0  0  0
 28 29  1  0  0  0  0
 30 33  1  0  0  0  0
 31 33  1  0  0  0  0
 32 29  1  6  0  0  0
 32 34  1  0  0  0  0
 32 31  1  0  0  0  0
 34 30  1  0  0  0  0
M  END
>  <MODEL>
2

>  <REMARK>
 VINA RESULT:      -8.2      2.871      9.062
  Name = 
  3 active torsions:
  status: ('A' for Active; 'I' for Inactive)
    1  A    between atoms: C_17  and  C_28
    2  A    between atoms: C_28  and  C_29
    3  A    between atoms: C_29  and  C_32
                            x       y       z     vdW  Elec       q    Type
                         _______ _______ _______ _____ _____    ______ ____

>  <TORSDO>
F 3

$$$$
=
 OpenBabel11112417563D

 34 40  0  0  1  0  0  0  0  0999 V2000
  188.4410  177.1840  146.4520 C   0  0  0  0  0  0  0  0  0  0  0  0
  190.5400  176.1510  147.4600 C   0  0  0  0  0  2  0  0  0  0  0  0
  183.4890  177.6800  141.5220 O   0  0  0  0  0  0  0  0  0  0  0  0
  186.1730  177.6150  145.4920 C   0  0  1  0  0  3  0  0  0  0  0  0
  185.8990  177.2310  142.9990 N   0  0  1  0  0  0  0  0  0  0  0  0
  185.6970  177.6370  140.5930 C   0  0  0  0  0  2  0  0  0  0  0  0
  184.2930  178.2210  140.5130 C   0  0  0  0  0  2  0  0  0  0  0  0
  183.7110  179.4160  143.1960 C   0  0  0  0  0  2  0  0  0  0  0  0
  190.2800  176.1530  145.0620 C   0  0  2  0  0  3  0  0  0  0  0  0
  192.1200  174.6660  143.0420 C   0  0  0  0  0  2  0  0  0  0  0  0
  186.8790  176.1620  143.2510 C   0  0  0  0  0  2  0  0  0  0  0  0
  184.1380  178.4040  144.2470 C   0  0  0  0  0  2  0  0  0  0  0  0
  189.1580  175.5750  144.1990 C   0  0  1  0  0  3  0  0  0  0  0  0
  191.7080  175.3770  146.8610 C   0  0  0  0  0  2  0  0  0  0  0  0
  185.6380  178.1340  144.1430 C   0  0  1  0  0  3  0  0  0  0  0  0
  182.8420  178.7710  142.1190 C   0  0  0  0  0  2  0  0  0  0  0  0
  192.5180  175.1580  144.4390 C   0  0  2  0  0  3  0  0  0  0  0  0
  187.6190  177.1900  145.3760 C   0  0  0  0  0  0  0  0  0  0  0  0
  186.3920  178.0390  141.8890 C   0  0  0  0  0  2  0  0  0  0  0  0
  188.0920  176.6640  144.0380 C   0  0  2  0  0  3  0  0  0  0  0  0
  186.5360  178.0560  147.8940 C   0  0  0  0  0  2  0  0  0  0  0  0
  191.0190  175.5050  142.3870 C   0  0  0  0  0  2  0  0  0  0  0  0
  185.9880  178.6440  146.6040 C   0  0  0  0  0  2  0  0  0  0  0  0
  189.6380  175.0300  142.8370 C   0  0  0  0  0  2  0  0  0  0  0  0
  191.3260  175.1130  145.4080 C   0  0  2  0  0  3  0  0  0  0  0  0
  188.0380  177.8230  147.7620 C   0  0  0  0  0  2  0  0  0  0  0  0
  189.7560  176.6140  146.3300 N   0  0  0  0  0  0  0  0  0  0  0  0
  193.1880  176.5290  144.3520 C   0  0  0  0  0  2  0  0  0  0  0  0
  194.6710  176.4160  144.6580 C   0  0  0  0  0  2  0  0  0  0  0  0
  197.8100  175.9700  143.1380 N   0  0  0  0  0  2  0  0  0  0  0  0
  196.0060  174.5290  143.7330 C   0  0  0  0  0  2  0  0  0  0  0  0
  195.4200  175.8900  143.4460 C   0  0  2  0  0  3  0  0  0  0  0  0
  197.4860  174.7770  143.9030 C   0  0  0  0  0  2  0  0  0  0  0  0
  196.6080  176.7910  143.1640 C   0  0  0  0  0  2  0  0  0  0  0  0
  1 26  1  0  0  0  0
  3 16  1  0  0  0  0
  4 23  1  1  0  0  0
  5 19  1  6  0  0  0
  5 11  1  0  0  0  0
  5 15  1  0  0  0  0
  6 19  1  0  0  0  0
  7  6  1  0  0  0  0
  7  3  1  0  0  0  0
  8 12  1  0  0  0  0
  9 25  1  0  0  0  0
  9 27  1  1  0  0  0
 10 17  1  0  0  0  0
 13 24  1  6  0  0  0
 13  9  1  0  0  0  0
 14  2  1  0  0  0  0
 15 12  1  1  0  0  0
 15  4  1  0  0  0  0
 16  8  1  0  0  0  0
 17 28  1  6  0  0  0
 17 25  1  0  0  0  0
 18  4  1  0  0  0  0
 18  1  2  0  0  0  0
 20 11  1  1  0  0  0
 20 13  1  0  0  0  0
 20 18  1  0  0  0  0
 22 24  1  0  0  0  0
 22 10  1  0  0  0  0
 23 21  1  0  0  0  0
 25 14  1  1  0  0  0
 26 21  1  0  0  0  0
 27  1  1  0  0  0  0
 27  2  1  0  0  0  0
 28 29  1  0  0  0  0
 30 34  1  0  0  0  0
 30 33  1  0  0  0  0
 31 33  1  0  0  0  0
 32 31  1  0  0  0  0
 32 29  1  1  0  0  0
 34 32  1  0  0  0  0
M  END
>  <MODEL>
3

>  <REMARK>
 VINA RESULT:      -8.2      2.565      4.703
  Name = 
  3 active torsions:
  status: ('A' for Active; 'I' for Inactive)
    1  A    between atoms: C_17  and  C_28
    2  A    between atoms: C_28  and  C_29
    3  A    between atoms: C_29  and  C_32
                            x       y       z     vdW  Elec       q    Type
                         _______ _______ _______ _____ _____    ______ ____

>  <TORSDO>
F 3

$$$$
=
 OpenBabel11112417563D

 34 40  0  0  1  0  0  0  0  0999 V2000
  191.2860  175.7520  145.3970 C   0  0  0  0  0  0  0  0  0  0  0  0
  193.3870  174.3140  145.3110 C   0  0  0  0  0  2  0  0  0  0  0  0
  184.8310  177.4870  143.2990 O   0  0  0  0  0  0  0  0  0  0  0  0
  188.9500  176.6200  145.5930 C   0  0  1  0  0  3  0  0  0  0  0  0
  187.5200  176.5290  143.4980 N   0  0  1  0  0  0  0  0  0  0  0  0
  186.3380  177.1950  141.4600 C   0  0  0  0  0  2  0  0  0  0  0  0
  185.1800  177.9940  142.0430 C   0  0  0  0  0  2  0  0  0  0  0  0
  186.0920  178.9950  144.7130 C   0  0  0  0  0  2  0  0  0  0  0  0
  192.0840  174.5910  143.3010 C   0  0  2  0  0  3  0  0  0  0  0  0
  192.5160  173.0440  140.6380 C   0  0  0  0  0  2  0  0  0  0  0  0
  188.2970  175.3020  143.2540 C   0  0  0  0  0  2  0  0  0  0  0  0
  186.7530  177.8320  145.4350 C   0  0  0  0  0  2  0  0  0  0  0  0
  190.6090  174.2800  143.0400 C   0  0  1  0  0  3  0  0  0  0  0  0
  193.9990  173.4320  144.2310 C   0  0  0  0  0  2  0  0  0  0  0  0
  187.9710  177.3450  144.6490 C   0  0  1  0  0  3  0  0  0  0  0  0
  184.7310  178.6010  144.1450 C   0  0  0  0  0  2  0  0  0  0  0  0
  193.5800  173.3290  141.7040 C   0  0  2  0  0  3  0  0  0  0  0  0
  190.0840  175.9900  144.8180 C   0  0  0  0  0  0  0  0  0  0  0  0
  187.6010  177.3560  142.2990 C   0  0  0  0  0  2  0  0  0  0  0  0
  189.8020  175.5320  143.4040 C   0  0  2  0  0  3  0  0  0  0  0  0
  190.4250  176.7620  147.5670 C   0  0  0  0  0  2  0  0  0  0  0  0
  191.4110  174.1020  140.5750 C   0  0  0  0  0  2  0  0  0  0  0  0
  189.4740  177.5510  146.6820 C   0  0  0  0  0  2  0  0  0  0  0  0
  190.3180  173.8040  141.6010 C   0  0  0  0  0  2  0  0  0  0  0  0
  192.9650  173.3740  143.1110 C   0  0  2  0  0  3  0  0  0  0  0  0
  191.6380  176.3150  146.7560 C   0  0  0  0  0  2  0  0  0  0  0  0
  192.2770  175.0010  144.6760 N   0  0  0  0  0  0  0  0  0  0  0  0
  194.3770  174.5820  141.3410 C   0  0  0  0  0  2  0  0  0  0  0  0
  195.8060  174.2180  140.9780 C   0  0  0  0  0  2  0  0  0  0  0  0
  196.4850  176.5490  143.5200 N   0  0  0  0  0  2  0  0  0  0  0  0
  197.6580  174.7050  142.5690 C   0  0  0  0  0  2  0  0  0  0  0  0
  196.7660  175.2760  141.4930 C   0  0  2  0  0  3  0  0  0  0  0  0
  197.1280  175.2900  143.8560 C   0  0  0  0  0  2  0  0  0  0  0  0
  195.9760  176.3810  142.1660 C   0  0  0  0  0  2  0  0  0  0  0  0
  1 26  1  0  0  0  0
  3 16  1  0  0  0  0
  4 23  1  1  0  0  0
  5 19  1  6  0  0  0
  5 15  1  0  0  0  0
  6  7  1  0  0  0  0
  6 19  1  0  0  0  0
  7  3  1  0  0  0  0
  8 12  1  0  0  0  0
  9 27  1  1  0  0  0
 10 17  1  0  0  0  0
 11  5  1  0  0  0  0
 13 24  1  6  0  0  0
 13  9  1  0  0  0  0
 13 20  1  0  0  0  0
 14  2  1  0  0  0  0
 15 12  1  1  0  0  0
 15  4  1  0  0  0  0
 16  8  1  0  0  0  0
 17 28  1  6  0  0  0
 17 25  1  0  0  0  0
 18  1  2  0  0  0  0
 18  4  1  0  0  0  0
 20 11  1  1  0  0  0
 20 18  1  0  0  0  0
 22 10  1  0  0  0  0
 22 24  1  0  0  0  0
 23 21  1  0  0  0  0
 25  9  1  0  0  0  0
 25 14  1  1  0  0  0
 26 21  1  0  0  0  0
 27  2  1  0  0  0  0
 27  1  1  0  0  0  0
 29 28  1  0  0  0  0
 30 33  1  0  0  0  0
 31 33  1  0  0  0  0
 32 29  1  1  0  0  0
 32 34  1  0  0  0  0
 32 31  1  0  0  0  0
 34 30  1  0  0  0  0
M  END
>  <MODEL>
4

>  <REMARK>
 VINA RESULT:      -8.1      2.357      4.355
  Name = 
  3 active torsions:
  status: ('A' for Active; 'I' for Inactive)
    1  A    between atoms: C_17  and  C_28
    2  A    between atoms: C_28  and  C_29
    3  A    between atoms: C_29  and  C_32
                            x       y       z     vdW  Elec       q    Type
                         _______ _______ _______ _____ _____    ______ ____

>  <TORSDO>
F 3

$$$$
=
 OpenBabel11112417563D

 34 40  0  0  1  0  0  0  0  0999 V2000
  189.6340  176.3920  145.9040 C   0  0  0  0  0  0  0  0  0  0  0  0
  191.7600  175.3020  146.7870 C   0  0  0  0  0  2  0  0  0  0  0  0
  184.6170  177.2720  141.0940 O   0  0  0  0  0  0  0  0  0  0  0  0
  187.3490  176.8760  145.0130 C   0  0  1  0  0  3  0  0  0  0  0  0
  187.0500  176.7240  142.4970 N   0  0  1  0  0  0  0  0  0  0  0  0
  186.8140  177.3500  140.1430 C   0  0  0  0  0  2  0  0  0  0  0  0
  185.4000  177.9180  140.1320 C   0  0  0  0  0  2  0  0  0  0  0  0
  184.8330  178.8460  142.9220 C   0  0  0  0  0  2  0  0  0  0  0  0
  191.4710  175.5250  144.4030 C   0  0  2  0  0  3  0  0  0  0  0  0
  193.3080  174.2640  142.2330 C   0  0  0  0  0  2  0  0  0  0  0  0
  188.0490  175.6510  142.6370 C   0  0  0  0  0  2  0  0  0  0  0  0
  185.2870  177.7470  143.8690 C   0  0  0  0  0  2  0  0  0  0  0  0
  190.3470  175.0130  143.5010 C   0  0  1  0  0  3  0  0  0  0  0  0
  192.9310  174.6060  146.1060 C   0  0  0  0  0  2  0  0  0  0  0  0
  186.7900  177.5120  143.7240 C   0  0  1  0  0  3  0  0  0  0  0  0
  183.9610  178.2920  141.7980 C   0  0  0  0  0  2  0  0  0  0  0  0
  193.7150  174.6280  143.6660 C   0  0  2  0  0  3  0  0  0  0  0  0
  188.7990  176.4860  144.8410 C   0  0  0  0  0  0  0  0  0  0  0  0
  187.5180  177.6400  141.4630 C   0  0  0  0  0  2  0  0  0  0  0  0
  189.2630  176.0960  143.4550 C   0  0  2  0  0  3  0  0  0  0  0  0
  187.7340  177.0950  147.4410 C   0  0  0  0  0  2  0  0  0  0  0  0
  192.1870  175.1420  141.6710 C   0  0  0  0  0  2  0  0  0  0  0  0
  187.1620  177.7940  146.2180 C   0  0  0  0  0  2  0  0  0  0  0  0
  190.8180  174.6060  142.0900 C   0  0  0  0  0  2  0  0  0  0  0  0
  192.5360  174.4740  144.6390 C   0  0  2  0  0  3  0  0  0  0  0  0
  189.2380  176.9000  147.2720 C   0  0  0  0  0  2  0  0  0  0  0  0
  190.9550  175.8570  145.7140 N   0  0  0  0  0  0  0  0  0  0  0  0
  194.3640  176.0110  143.7010 C   0  0  0  0  0  2  0  0  0  0  0  0
  195.8120  175.9080  144.1480 C   0  0  0  0  0  2  0  0  0  0  0  0
  197.9400  175.4210  141.3920 N   0  0  0  0  0  2  0  0  0  0  0  0
  196.0090  176.7530  141.8150 C   0  0  0  0  0  2  0  0  0  0  0  0
  196.7260  176.5690  143.1300 C   0  0  2  0  0  3  0  0  0  0  0  0
  196.6000  175.7030  140.9050 C   0  0  0  0  0  2  0  0  0  0  0  0
  197.8890  175.6440  142.8310 C   0  0  0  0  0  2  0  0  0  0  0  0
  1 26  1  0  0  0  0
  3 16  1  0  0  0  0
  4 23  1  1  0  0  0
  5 19  1  6  0  0  0
  5 11  1  0  0  0  0
  5 15  1  0  0  0  0
  6 19  1  0  0  0  0
  7  6  1  0  0  0  0
  7  3  1  0  0  0  0
  8 12  1  0  0  0  0
  9 25  1  0  0  0  0
  9 27  1  1  0  0  0
 10 17  1  0  0  0  0
 13 24  1  6  0  0  0
 13  9  1  0  0  0  0
 14  2  1  0  0  0  0
 15 12  1  1  0  0  0
 15  4  1  0  0  0  0
 16  8  1  0  0  0  0
 17 28  1  6  0  0  0
 17 25  1  0  0  0  0
 18  4  1  0  0  0  0
 18  1  2  0  0  0  0
 20 11  1  6  0  0  0
 20 13  1  0  0  0  0
 20 18  1  0  0  0  0
 22 24  1  0  0  0  0
 22 10  1  0  0  0  0
 23 21  1  0  0  0  0
 25 14  1  1  0  0  0
 26 21  1  0  0  0  0
 27  1  1  0  0  0  0
 27  2  1  0  0  0  0
 28 29  1  0  0  0  0
 30 34  1  0  0  0  0
 31 32  1  0  0  0  0
 32 29  1  1  0  0  0
 33 30  1  0  0  0  0
 33 31  1  0  0  0  0
 34 32  1  0  0  0  0
M  END
>  <MODEL>
5

>  <REMARK>
 VINA RESULT:      -8.1      2.694      4.571
  Name = 
  3 active torsions:
  status: ('A' for Active; 'I' for Inactive)
    1  A    between atoms: C_17  and  C_28
    2  A    between atoms: C_28  and  C_29
    3  A    between atoms: C_29  and  C_32
                            x       y       z     vdW  Elec       q    Type
                         _______ _______ _______ _____ _____    ______ ____

>  <TORSDO>
F 3

$$$$
=
 OpenBabel11112417563D

 34 40  0  0  1  0  0  0  0  0999 V2000
  192.1100  174.8460  144.8750 C   0  0  0  0  0  0  0  0  0  0  0  0
  191.1410  177.1580  145.3280 C   0  0  0  0  0  2  0  0  0  0  0  0
  193.0470  169.1490  140.9070 O   0  0  0  0  0  0  0  0  0  0  0  0
  193.2980  172.8590  143.9330 C   0  0  1  0  0  3  0  0  0  0  0  0
  192.0580  171.5200  142.1690 N   0  0  1  0  0  0  0  0  0  0  0  0
  190.7390  169.7680  141.0820 C   0  0  0  0  0  2  0  0  0  0  0  0
  191.7530  168.6320  141.0260 C   0  0  0  0  0  2  0  0  0  0  0  0
  193.7120  169.1280  143.2360 C   0  0  0  0  0  2  0  0  0  0  0  0
  189.9110  175.6370  143.9180 C   0  0  2  0  0  3  0  0  0  0  0  0
  187.3760  176.3540  142.2630 C   0  0  0  0  0  2  0  0  0  0  0  0
  191.5290  172.8470  141.8100 C   0  0  0  0  0  2  0  0  0  0  0  0
  194.0970  170.5970  143.1820 C   0  0  0  0  0  2  0  0  0  0  0  0
  190.3400  174.9320  142.6300 C   0  0  1  0  0  3  0  0  0  0  0  0
  189.9260  177.9000  144.7860 C   0  0  0  0  0  2  0  0  0  0  0  0
  192.8660  171.4750  143.4090 C   0  0  1  0  0  3  0  0  0  0  0  0
  193.8170  168.4710  141.8620 C   0  0  0  0  0  2  0  0  0  0  0  0
  187.8510  177.0520  143.5430 C   0  0  2  0  0  3  0  0  0  0  0  0
  192.1180  173.8000  144.0150 C   0  0  0  0  0  0  0  0  0  0  0  0
  190.9260  170.6160  142.3350 C   0  0  0  0  0  2  0  0  0  0  0  0
  190.9900  173.6020  143.0270 C   0  0  2  0  0  3  0  0  0  0  0  0
  194.4070  174.1530  145.7180 C   0  0  0  0  0  2  0  0  0  0  0  0
  187.7810  174.8790  142.1820 C   0  0  0  0  0  2  0  0  0  0  0  0
  194.0150  172.7530  145.2760 C   0  0  0  0  0  2  0  0  0  0  0  0
  189.1940  174.7360  141.6160 C   0  0  0  0  0  2  0  0  0  0  0  0
  189.3840  177.0330  143.6550 C   0  0  2  0  0  3  0  0  0  0  0  0
  193.1550  174.9910  145.9590 C   0  0  0  0  0  2  0  0  0  0  0  0
  191.0450  175.8090  144.8010 N   0  0  0  0  0  0  0  0  0  0  0  0
  187.1380  176.4720  144.7640 C   0  0  0  0  0  2  0  0  0  0  0  0
  185.6770  176.8850  144.7720 C   0  0  0  0  0  2  0  0  0  0  0  0
  186.2670  178.0920  148.0210 N   0  0  0  0  0  2  0  0  0  0  0  0
  184.4900  178.2960  146.4460 C   0  0  0  0  0  2  0  0  0  0  0  0
  185.1610  176.9670  146.1990 C   0  0  2  0  0  3  0  0  0  0  0  0
  185.4700  179.0670  147.2970 C   0  0  0  0  0  2  0  0  0  0  0  0
  186.3360  176.9220  147.1570 C   0  0  0  0  0  2  0  0  0  0  0  0
  1 26  1  0  0  0  0
  3  7  1  0  0  0  0
  3 16  1  0  0  0  0
  4 18  1  0  0  0  0
  4 23  1  1  0  0  0
  5 11  1  1  0  0  0
  5 19  1  0  0  0  0
  5 15  1  0  0  0  0
  6 19  1  0  0  0  0
  7  6  1  0  0  0  0
  9 27  1  1  0  0  0
 10 17  1  0  0  0  0
 12  8  1  0  0  0  0
 13 24  1  6  0  0  0
 13 20  1  0  0  0  0
 13  9  1  0  0  0  0
 14  2  1  0  0  0  0
 15 12  1  6  0  0  0
 15  4  1  0  0  0  0
 16  8  1  0  0  0  0
 17 25  1  0  0  0  0
 17 28  1  1  0  0  0
 18  1  2  0  0  0  0
 20 11  1  6  0  0  0
 20 18  1  0  0  0  0
 21 26  1  0  0  0  0
 22 10  1  0  0  0  0
 23 21  1  0  0  0  0
 24 22  1  0  0  0  0
 25  9  1  0  0  0  0
 25 14  1  1  0  0  0
 27  1  1  0  0  0  0
 27  2  1  0  0  0  0
 28 29  1  0  0  0  0
 31 33  1  0  0  0  0
 32 29  1  6  0  0  0
 32 31  1  0  0  0  0
 32 34  1  0  0  0  0
 33 30  1  0  0  0  0
 34 30  1  0  0  0  0
M  END
>  <MODEL>
6

>  <REMARK>
 VINA RESULT:      -8.0      3.174      9.066
  Name = 
  3 active torsions:
  status: ('A' for Active; 'I' for Inactive)
    1  A    between atoms: C_17  and  C_28
    2  A    between atoms: C_28  and  C_29
    3  A    between atoms: C_29  and  C_32
                            x       y       z     vdW  Elec       q    Type
                         _______ _______ _______ _____ _____    ______ ____

>  <TORSDO>
F 3

$$$$
=
 OpenBabel11112417563D

 34 40  0  0  1  0  0  0  0  0999 V2000
  190.5760  174.7570  145.1260 C   0  0  0  0  0  0  0  0  0  0  0  0
  192.5570  173.1550  145.1030 C   0  0  0  0  0  2  0  0  0  0  0  0
  184.8020  177.5700  142.3280 O   0  0  0  0  0  0  0  0  0  0  0  0
  188.3070  175.8070  145.0810 C   0  0  1  0  0  3  0  0  0  0  0  0
  187.3300  176.3120  142.7950 N   0  0  1  0  0  0  0  0  0  0  0  0
  186.6290  177.5140  140.7800 C   0  0  0  0  0  2  0  0  0  0  0  0
  185.4290  178.2910  141.3060 C   0  0  0  0  0  2  0  0  0  0  0  0
  185.8420  178.6030  144.2560 C   0  0  0  0  0  2  0  0  0  0  0  0
  191.7080  173.9870  143.0040 C   0  0  2  0  0  3  0  0  0  0  0  0
  192.5750  173.0000  140.1840 C   0  0  0  0  0  2  0  0  0  0  0  0
  188.0620  175.0890  142.4240 C   0  0  0  0  0  2  0  0  0  0  0  0
  186.2690  177.2500  144.8020 C   0  0  0  0  0  2  0  0  0  0  0  0
  190.3010  173.8970  142.4120 C   0  0  1  0  0  3  0  0  0  0  0  0
  193.3190  172.4620  143.9810 C   0  0  0  0  0  2  0  0  0  0  0  0
  187.5880  176.8150  144.1630 C   0  0  1  0  0  3  0  0  0  0  0  0
  184.6030  178.4840  143.3720 C   0  0  0  0  0  2  0  0  0  0  0  0
  193.4160  172.9390  141.4640 C   0  0  2  0  0  3  0  0  0  0  0  0
  189.5340  175.2380  144.4060 C   0  0  0  0  0  0  0  0  0  0  0  0
  187.7030  177.3600  141.8510 C   0  0  0  0  0  2  0  0  0  0  0  0
  189.5160  175.1210  142.8970 C   0  0  2  0  0  3  0  0  0  0  0  0
  189.3580  175.3720  147.2720 C   0  0  0  0  0  2  0  0  0  0  0  0
  191.5740  174.1590  140.1620 C   0  0  0  0  0  2  0  0  0  0  0  0
  188.6570  176.4260  146.4310 C   0  0  0  0  0  2  0  0  0  0  0  0
  190.2790  173.7680  140.8750 C   0  0  0  0  0  2  0  0  0  0  0  0
  192.5320  172.7510  142.7070 C   0  0  2  0  0  3  0  0  0  0  0  0
  190.6790  174.9800  146.6180 C   0  0  0  0  0  2  0  0  0  0  0  0
  191.6440  174.0750  144.4470 N   0  0  0  0  0  0  0  0  0  0  0  0
  194.3460  174.1490  141.5500 C   0  0  0  0  0  2  0  0  0  0  0  0
  195.7960  173.7020  141.6170 C   0  0  0  0  0  2  0  0  0  0  0  0
  197.9260  176.0720  143.1020 N   0  0  0  0  0  2  0  0  0  0  0  0
  195.6790  175.3660  143.4640 C   0  0  0  0  0  2  0  0  0  0  0  0
  196.4370  174.1870  142.9060 C   0  0  2  0  0  3  0  0  0  0  0  0
  196.5590  176.5590  143.1770 C   0  0  0  0  0  2  0  0  0  0  0  0
  197.8290  174.7060  142.6060 C   0  0  0  0  0  2  0  0  0  0  0  0
  1 26  1  0  0  0  0
  3 16  1  0  0  0  0
  4 23  1  1  0  0  0
  5 19  1  6  0  0  0
  5 15  1  0  0  0  0
  6  7  1  0  0  0  0
  6 19  1  0  0  0  0
  7  3  1  0  0  0  0
  8 12  1  0  0  0  0
  9 27  1  1  0  0  0
 10 17  1  0  0  0  0
 11  5  1  0  0  0  0
 13 24  1  6  0  0  0
 13 20  1  0  0  0  0
 13  9  1  0  0  0  0
 14  2  1  0  0  0  0
 15 12  1  1  0  0  0
 15  4  1  0  0  0  0
 16  8  1  0  0  0  0
 17 28  1  1  0  0  0
 17 25  1  0  0  0  0
 18  4  1  0  0  0  0
 18  1  2  0  0  0  0
 20 11  1  1  0  0  0
 20 18  1  0  0  0  0
 22 10  1  0  0  0  0
 22 24  1  0  0  0  0
 23 21  1  0  0  0  0
 25  9  1  0  0  0  0
 25 14  1  1  0  0  0
 26 21  1  0  0  0  0
 27  2  1  0  0  0  0
 27  1  1  0  0  0  0
 28 29  1  0  0  0  0
 30 33  1  0  0  0  0
 32 29  1  6  0  0  0
 32 31  1  0  0  0  0
 33 31  1  0  0  0  0
 34 32  1  0  0  0  0
 34 30  1  0  0  0  0
M  END
>  <MODEL>
7

>  <REMARK>
 VINA RESULT:      -7.8      2.485      4.355
  Name = 
  3 active torsions:
  status: ('A' for Active; 'I' for Inactive)
    1  A    between atoms: C_17  and  C_28
    2  A    between atoms: C_28  and  C_29
    3  A    between atoms: C_29  and  C_32
                            x       y       z     vdW  Elec       q    Type
                         _______ _______ _______ _____ _____    ______ ____

>  <TORSDO>
F 3

$$$$
=
 OpenBabel11112417563D

 34 40  0  0  1  0  0  0  0  0999 V2000
  190.7170  173.8770  140.9520 C   0  0  0  0  0  0  0  0  0  0  0  0
  188.2140  174.0690  141.3860 C   0  0  0  0  0  2  0  0  0  0  0  0
  197.4340  174.4250  142.8650 O   0  0  0  0  0  0  0  0  0  0  0  0
  193.1520  173.3150  141.0190 C   0  0  1  0  0  3  0  0  0  0  0  0
  194.6020  174.7110  142.5630 N   0  0  1  0  0  0  0  0  0  0  0  0
  196.1770  176.4000  143.3770 C   0  0  0  0  0  2  0  0  0  0  0  0
  197.5010  175.8220  142.8910 C   0  0  0  0  0  2  0  0  0  0  0  0
  196.8600  174.0860  140.5370 C   0  0  0  0  0  2  0  0  0  0  0  0
  189.7140  175.5590  142.5470 C   0  0  2  0  0  3  0  0  0  0  0  0
  188.9170  177.4950  144.8470 C   0  0  0  0  0  2  0  0  0  0  0  0
  193.3810  174.7220  143.3850 C   0  0  0  0  0  2  0  0  0  0  0  0
  195.6620  173.2310  140.9140 C   0  0  0  0  0  2  0  0  0  0  0  0
  190.8980  175.2390  143.4610 C   0  0  1  0  0  3  0  0  0  0  0  0
  187.3890  174.8940  142.3650 C   0  0  0  0  0  2  0  0  0  0  0  0
  194.4530  174.1170  141.2160 C   0  0  1  0  0  3  0  0  0  0  0  0
  197.9400  174.0430  141.6150 C   0  0  0  0  0  2  0  0  0  0  0  0
  187.9920  176.9700  143.7420 C   0  0  2  0  0  3  0  0  0  0  0  0
  191.9490  174.1160  141.4620 C   0  0  0  0  0  0  0  0  0  0  0  0
  195.0460  176.0910  142.4020 C   0  0  0  0  0  2  0  0  0  0  0  0
  192.1440  175.1200  142.5760 C   0  0  2  0  0  3  0  0  0  0  0  0
  191.6980  172.0580  139.4700 C   0  0  0  0  0  2  0  0  0  0  0  0
  190.3840  177.5980  144.4220 C   0  0  0  0  0  2  0  0  0  0  0  0
  192.9980  172.8390  139.5770 C   0  0  0  0  0  2  0  0  0  0  0  0
  191.0950  176.2560  144.6040 C   0  0  0  0  0  2  0  0  0  0  0  0
  188.3980  175.5560  143.2980 C   0  0  2  0  0  3  0  0  0  0  0  0
  190.5150  172.9790  139.7520 C   0  0  0  0  0  2  0  0  0  0  0  0
  189.5780  174.5450  141.5230 N   0  0  0  0  0  0  0  0  0  0  0  0
  187.9090  177.9750  142.5940 C   0  0  0  0  0  2  0  0  0  0  0  0
  186.5590  178.6720  142.5940 C   0  0  0  0  0  2  0  0  0  0  0  0
  183.1740  178.2990  141.7200 N   0  0  0  0  0  2  0  0  0  0  0  0
  185.2520  177.7730  140.6760 C   0  0  0  0  0  2  0  0  0  0  0  0
  185.4680  177.7060  142.1680 C   0  0  2  0  0  3  0  0  0  0  0  0
  183.9490  178.5180  140.5100 C   0  0  0  0  0  2  0  0  0  0  0  0
  184.1520  178.1360  142.7870 C   0  0  0  0  0  2  0  0  0  0  0  0
  1 18  2  0  0  0  0
  1 27  1  0  0  0  0
  2 27  1  0  0  0  0
  2 14  1  0  0  0  0
  3  7  1  0  0  0  0
  4 23  1  6  0  0  0
  4 15  1  0  0  0  0
  4 18  1  0  0  0  0
  5 19  1  6  0  0  0
  5 11  1  0  0  0  0
  7  6  1  0  0  0  0
  8 12  1  0  0  0  0
  8 16  1  0  0  0  0
  9 27  1  6  0  0  0
  9 25  1  0  0  0  0
  9 13  1  0  0  0  0
 13 24  1  1  0  0  0
 15 12  1  1  0  0  0
 15  5  1  0  0  0  0
 16  3  1  0  0  0  0
 17 28  1  6  0  0  0
 17 10  1  0  0  0  0
 18 20  1  0  0  0  0
 19  6  1  0  0  0  0
 20 11  1  1  0  0  0
 20 13  1  0  0  0  0
 21 23  1  0  0  0  0
 21 26  1  0  0  0  0
 22 24  1  0  0  0  0
 22 10  1  0  0  0  0
 25 14  1  6  0  0  0
 25 17  1  0  0  0  0
 26  1  1  0  0  0  0
 29 28  1  0  0  0  0
 30 34  1  0  0  0  0
 31 32  1  0  0  0  0
 32 29  1  6  0  0  0
 32 34  1  0  0  0  0
 33 31  1  0  0  0  0
 33 30  1  0  0  0  0
M  END
>  <MODEL>
8

>  <REMARK>
 VINA RESULT:      -7.8      3.616      9.137
  Name = 
  3 active torsions:
  status: ('A' for Active; 'I' for Inactive)
    1  A    between atoms: C_17  and  C_28
    2  A    between atoms: C_28  and  C_29
    3  A    between atoms: C_29  and  C_32
                            x       y       z     vdW  Elec       q    Type
                         _______ _______ _______ _____ _____    ______ ____

>  <TORSDO>
F 3

$$$$
=
 OpenBabel11112417563D

 34 40  0  0  1  0  0  0  0  0999 V2000
  192.5350  173.1610  144.4450 C   0  0  0  0  0  0  0  0  0  0  0  0
  192.8470  174.9440  146.2370 C   0  0  0  0  0  2  0  0  0  0  0  0
  190.7310  171.0310  138.0190 O   0  0  0  0  0  0  0  0  0  0  0  0
  192.6120  171.7760  142.3650 C   0  0  1  0  0  3  0  0  0  0  0  0
  190.9960  172.4090  140.5130 N   0  0  1  0  0  0  0  0  0  0  0  0
  189.0530  172.4140  139.0250 C   0  0  0  0  0  2  0  0  0  0  0  0
  189.3490  171.1980  138.1550 C   0  0  0  0  0  2  0  0  0  0  0  0
  191.1190  169.4040  139.7710 C   0  0  0  0  0  2  0  0  0  0  0  0
  191.1210  175.2490  144.5800 C   0  0  2  0  0  3  0  0  0  0  0  0
  189.4320  177.8310  144.1810 C   0  0  0  0  0  2  0  0  0  0  0  0
  191.2440  173.7680  141.0250 C   0  0  0  0  0  2  0  0  0  0  0  0
  192.2010  170.2720  140.3940 C   0  0  0  0  0  2  0  0  0  0  0  0
  191.2250  175.2900  143.0540 C   0  0  1  0  0  3  0  0  0  0  0  0
  192.2220  176.3160  146.4580 C   0  0  0  0  0  2  0  0  0  0  0  0
  191.5760  171.3130  141.3220 C   0  0  1  0  0  3  0  0  0  0  0  0
  190.9760  169.6740  138.2760 C   0  0  0  0  0  2  0  0  0  0  0  0
  190.1010  177.3770  145.4840 C   0  0  2  0  0  3  0  0  0  0  0  0
  192.0730  172.9180  143.1950 C   0  0  0  0  0  0  0  0  0  0  0  0
  189.5530  172.2100  140.4510 C   0  0  0  0  0  2  0  0  0  0  0  0
  191.0760  173.8520  142.5430 C   0  0  2  0  0  3  0  0  0  0  0  0
  194.0910  171.1600  144.2420 C   0  0  0  0  0  2  0  0  0  0  0  0
  189.0350  176.6740  143.2600 C   0  0  0  0  0  2  0  0  0  0  0  0
  193.0750  170.6210  143.2490 C   0  0  0  0  0  2  0  0  0  0  0  0
  190.2160  176.2480  142.3870 C   0  0  0  0  0  2  0  0  0  0  0  0
  191.3980  176.6000  145.2060 C   0  0  2  0  0  3  0  0  0  0  0  0
  193.4260  172.1750  145.1670 C   0  0  0  0  0  2  0  0  0  0  0  0
  192.1170  174.3540  145.1300 N   0  0  0  0  0  0  0  0  0  0  0  0
  189.1050  176.6170  146.3590 C   0  0  0  0  0  2  0  0  0  0  0  0
  188.0230  177.5530  146.8690 C   0  0  0  0  0  2  0  0  0  0  0  0
  184.5270  177.9240  146.9320 N   0  0  0  0  0  2  0  0  0  0  0  0
  186.0770  176.7990  145.5120 C   0  0  0  0  0  2  0  0  0  0  0  0
  186.6810  176.8420  146.8950 C   0  0  2  0  0  3  0  0  0  0  0  0
  184.9620  177.8160  145.5490 C   0  0  0  0  0  2  0  0  0  0  0  0
  185.7080  177.6430  147.7370 C   0  0  0  0  0  2  0  0  0  0  0  0
  1 27  1  0  0  0  0
  1 26  1  0  0  0  0
  2 14  1  0  0  0  0
  3  7  1  0  0  0  0
  3 16  1  0  0  0  0
  4 18  1  0  0  0  0
  4 23  1  1  0  0  0
  5 19  1  1  0  0  0
  5 11  1  0  0  0  0
  5 15  1  0  0  0  0
  6 19  1  0  0  0  0
  7  6  1  0  0  0  0
  8 12  1  0  0  0  0
  9 27  1  1  0  0  0
  9 25  1  0  0  0  0
 10 17  1  0  0  0  0
 13 24  1  6  0  0  0
 13  9  1  0  0  0  0
 15 12  1  6  0  0  0
 15  4  1  0  0  0  0
 16  8  1  0  0  0  0
 17 28  1  6  0  0  0
 18  1  2  0  0  0  0
 20 11  1  6  0  0  0
 20 13  1  0  0  0  0
 20 18  1  0  0  0  0
 21 26  1  0  0  0  0
 22 10  1  0  0  0  0
 23 21  1  0  0  0  0
 24 22  1  0  0  0  0
 25 17  1  0  0  0  0
 25 14  1  1  0  0  0
 27  2  1  0  0  0  0
 28 29  1  0  0  0  0
 30 34  1  0  0  0  0
 31 33  1  0  0  0  0
 31 32  1  0  0  0  0
 32 29  1  6  0  0  0
 32 34  1  0  0  0  0
 33 30  1  0  0  0  0
M  END
>  <MODEL>
9

>  <REMARK>
 VINA RESULT:      -7.7      3.232      8.534
  Name = 
  3 active torsions:
  status: ('A' for Active; 'I' for Inactive)
    1  A    between atoms: C_17  and  C_28
    2  A    between atoms: C_28  and  C_29
    3  A    between atoms: C_29  and  C_32
                            x       y       z     vdW  Elec       q    Type
                         _______ _______ _______ _____ _____    ______ ____

>  <TORSDO>
F 3

$$$$
