=
 OpenBabel11112416253D

 30 35  0  0  1  0  0  0  0  0999 V2000
  187.0560  177.3820  143.8950 C   0  0  0  0  0  0  0  0  0  0  0  0
  185.7960  178.9100  145.4200 C   0  0  0  0  0  0  0  0  0  0  0  0
  189.2000  175.8010  147.1360 N   0  0  0  0  0  2  0  0  0  0  0  0
  187.9780  176.3050  143.7260 C   0  0  0  0  0  0  0  0  0  0  0  0
  186.5320  178.0800  142.6700 C   0  0  0  0  0  2  0  0  0  0  0  0
  187.7490  175.9530  140.1160 O   0  0  0  0  0  0  0  0  0  0  0  0
  189.8950  173.9040  142.8330 C   0  0  1  0  0  3  0  0  0  0  0  0
  187.4090  176.2480  141.2950 C   0  0  0  0  0  0  0  0  0  0  0  0
  189.7270  173.6590  144.2960 C   0  0  1  0  0  3  0  0  0  0  0  0
  190.1090  174.8520  146.5120 C   0  0  2  0  0  3  0  0  0  0  0  0
  186.2120  177.1140  141.5460 C   0  0  2  0  0  3  0  0  0  0  0  0
  188.1120  175.6770  142.4150 N   0  0  0  0  0  0  0  0  0  0  0  0
  185.5390  179.3640  146.7170 C   0  0  0  0  0  3  0  0  0  0  0  0
  190.8510  172.7070  144.5800 C   0  0  0  0  0  2  0  0  0  0  0  0
  190.3780  172.7260  142.2430 O   0  0  0  0  0  0  0  0  0  0  0  0
  185.0860  179.4700  144.4100 F   0  0  0  0  0  0  0  0  0  0  0  0
  188.3810  176.3500  146.1210 C   0  0  0  0  0  0  0  0  0  0  0  0
  186.2150  178.8200  147.8070 C   0  0  0  0  0  3  0  0  0  0  0  0
  186.7490  177.8820  145.1950 C   0  0  0  0  0  0  0  0  0  0  0  0
  188.6750  175.8590  144.8760 C   0  0  0  0  0  0  0  0  0  0  0  0
  191.5390  175.2050  146.8710 C   0  0  0  0  0  1  0  0  0  0  0  0
  189.8990  174.9960  144.9910 C   0  0  2  0  0  3  0  0  0  0  0  0
  191.1820  172.1180  143.2240 C   0  0  0  0  0  2  0  0  0  0  0  0
  187.9040  173.4910  141.6030 O   0  0  0  0  0  0  0  0  0  0  0  0
  187.1540  177.8110  147.6100 C   0  0  0  0  0  3  0  0  0  0  0  0
  187.4200  177.3360  146.3210 C   0  0  0  0  0  0  0  0  0  0  0  0
  188.5950  174.3280  142.2470 C   0  0  0  0  0  0  0  0  0  0  0  0
  185.7940  177.8930  140.3020 C   0  0  0  0  0  2  0  0  0  0  0  0
  183.5470  177.8780  140.0660 O   0  0  0  0  0  1  0  0  0  0  0  0
  184.5640  178.6280  140.5530 N   0  0  0  0  0  2  0  0  0  0  0  0
  1 19  1  0  0  0  0
  2 13  1  0  0  0  0
  4  1  2  0  0  0  0
  4 20  1  0  0  0  0
  5  1  1  0  0  0  0
  6  8  2  0  0  0  0
  7 15  1  6  0  0  0
  7  9  1  0  0  0  0
  8 11  1  0  0  0  0
  8 12  1  0  0  0  0
  9 14  1  1  0  0  0
  9 22  1  0  0  0  0
 10 21  1  6  0  0  0
 10  3  1  0  0  0  0
 11 28  1  6  0  0  0
 11  5  1  0  0  0  0
 12  4  1  0  0  0  0
 13 18  2  0  0  0  0
 15 23  1  0  0  0  0
 16  2  1  0  0  0  0
 17 26  1  0  0  0  0
 17  3  1  0  0  0  0
 19  2  2  0  0  0  0
 19 26  1  0  0  0  0
 20 17  2  0  0  0  0
 22 20  1  1  0  0  0
 22 10  1  0  0  0  0
 23 14  1  0  0  0  0
 24 27  2  0  0  0  0
 25 18  1  0  0  0  0
 26 25  2  0  0  0  0
 27 12  1  0  0  0  0
 27  7  1  0  0  0  0
 28 30  1  0  0  0  0
 29 30  1  0  0  0  0
M  END
>  <MODEL>
1

>  <REMARK>
 VINA RESULT:      -9.0      0.000      0.000
  Name = 
  2 active torsions:
  status: ('A' for Active; 'I' for Inactive)
    1  A    between atoms: C_11  and  C_28
    2  A    between atoms: C_28  and  N_30
                            x       y       z     vdW  Elec       q    Type
                         _______ _______ _______ _____ _____    ______ ____

>  <TORSDO>
F 2

$$$$
=
 OpenBabel11112416253D

 30 35  0  0  1  0  0  0  0  0999 V2000
  189.8020  175.5150  144.1870 C   0  0  0  0  0  0  0  0  0  0  0  0
  191.6810  175.3850  145.8310 C   0  0  0  0  0  0  0  0  0  0  0  0
  187.5270  177.8090  146.8640 N   0  0  0  0  0  2  0  0  0  0  0  0
  188.5300  176.0480  143.8190 C   0  0  0  0  0  0  0  0  0  0  0  0
  190.4370  174.4840  143.2950 C   0  0  0  0  0  2  0  0  0  0  0  0
  188.2760  174.6030  140.4940 O   0  0  0  0  0  0  0  0  0  0  0  0
  185.7740  177.0190  142.5160 C   0  0  1  0  0  3  0  0  0  0  0  0
  188.8100  175.0470  141.5480 C   0  0  0  0  0  0  0  0  0  0  0  0
  185.9710  177.9960  143.6280 C   0  0  1  0  0  3  0  0  0  0  0  0
  186.2730  178.0140  146.1550 C   0  0  2  0  0  3  0  0  0  0  0  0
  190.2620  174.8050  141.8240 C   0  0  2  0  0  3  0  0  0  0  0  0
  188.0480  175.8700  142.4520 N   0  0  0  0  0  0  0  0  0  0  0  0
  192.2080  175.7330  147.0780 C   0  0  0  0  0  3  0  0  0  0  0  0
  184.6010  178.5950  143.7570 C   0  0  0  0  0  2  0  0  0  0  0  0
  184.8300  177.5500  141.6250 O   0  0  0  0  0  0  0  0  0  0  0  0
  192.4540  174.6260  145.0150 F   0  0  0  0  0  0  0  0  0  0  0  0
  188.3960  177.0890  146.0100 C   0  0  0  0  0  0  0  0  0  0  0  0
  191.4800  176.5280  147.9610 C   0  0  0  0  0  3  0  0  0  0  0  0
  190.3930  175.8410  145.4440 C   0  0  0  0  0  0  0  0  0  0  0  0
  187.8240  176.7860  144.8020 C   0  0  0  0  0  0  0  0  0  0  0  0
  185.1230  177.4950  146.9940 C   0  0  0  0  0  1  0  0  0  0  0  0
  186.3810  177.1990  144.8500 C   0  0  2  0  0  3  0  0  0  0  0  0
  183.9490  178.3070  142.4200 C   0  0  0  0  0  2  0  0  0  0  0  0
  187.3390  177.3150  140.7520 O   0  0  0  0  0  0  0  0  0  0  0  0
  190.2160  176.9860  147.6020 C   0  0  0  0  0  3  0  0  0  0  0  0
  189.6720  176.6560  146.3550 C   0  0  0  0  0  0  0  0  0  0  0  0
  187.0780  176.7530  141.8520 C   0  0  0  0  0  0  0  0  0  0  0  0
  190.8280  173.6690  140.9780 C   0  0  0  0  0  2  0  0  0  0  0  0
  190.0170  171.5690  141.1790 O   0  0  0  0  0  1  0  0  0  0  0  0
  190.8830  172.4390  141.7520 N   0  0  0  0  0  2  0  0  0  0  0  0
  1 19  1  0  0  0  0
  2 13  1  0  0  0  0
  4  1  2  0  0  0  0
  4 20  1  0  0  0  0
  5  1  1  0  0  0  0
  6  8  2  0  0  0  0
  7 15  1  6  0  0  0
  7  9  1  0  0  0  0
  8 11  1  0  0  0  0
  8 12  1  0  0  0  0
  9 14  1  1  0  0  0
  9 22  1  0  0  0  0
 10  3  1  0  0  0  0
 10 21  1  1  0  0  0
 11 28  1  6  0  0  0
 11  5  1  0  0  0  0
 12  4  1  0  0  0  0
 13 18  2  0  0  0  0
 15 23  1  0  0  0  0
 16  2  1  0  0  0  0
 17 26  1  0  0  0  0
 17  3  1  0  0  0  0
 19  2  2  0  0  0  0
 19 26  1  0  0  0  0
 20 17  2  0  0  0  0
 22 20  1  6  0  0  0
 22 10  1  0  0  0  0
 23 14  1  0  0  0  0
 24 27  2  0  0  0  0
 25 18  1  0  0  0  0
 26 25  2  0  0  0  0
 27 12  1  0  0  0  0
 27  7  1  0  0  0  0
 28 30  1  0  0  0  0
 29 30  1  0  0  0  0
M  END
>  <MODEL>
2

>  <REMARK>
 VINA RESULT:      -8.8      2.333      5.552
  Name = 
  2 active torsions:
  status: ('A' for Active; 'I' for Inactive)
    1  A    between atoms: C_11  and  C_28
    2  A    between atoms: C_28  and  N_30
                            x       y       z     vdW  Elec       q    Type
                         _______ _______ _______ _____ _____    ______ ____

>  <TORSDO>
F 2

$$$$
=
 OpenBabel11112416253D

 30 35  0  0  1  0  0  0  0  0999 V2000
  190.0220  175.9430  144.1610 C   0  0  0  0  0  0  0  0  0  0  0  0
  191.2530  174.4300  142.5980 C   0  0  0  0  0  0  0  0  0  0  0  0
  186.8190  176.2350  141.4660 N   0  0  0  0  0  2  0  0  0  0  0  0
  188.8320  176.6600  144.4900 C   0  0  0  0  0  0  0  0  0  0  0  0
  191.2290  176.1040  145.0440 C   0  0  0  0  0  2  0  0  0  0  0  0
  189.8370  177.9140  147.7500 O   0  0  0  0  0  0  0  0  0  0  0  0
  186.4020  178.3500  145.7030 C   0  0  1  0  0  3  0  0  0  0  0  0
  189.8020  177.1630  146.7360 C   0  0  0  0  0  0  0  0  0  0  0  0
  185.7380  177.5450  144.6350 C   0  0  1  0  0  3  0  0  0  0  0  0
  185.9030  177.1530  142.1260 C   0  0  2  0  0  3  0  0  0  0  0  0
  190.8670  176.1330  146.5170 C   0  0  2  0  0  3  0  0  0  0  0  0
  188.6860  177.2270  145.8280 N   0  0  0  0  0  0  0  0  0  0  0  0
  191.2910  173.7300  141.3880 C   0  0  0  0  0  3  0  0  0  0  0  0
  184.4360  178.2730  144.4660 C   0  0  0  0  0  2  0  0  0  0  0  0
  185.4100  178.8360  146.5690 O   0  0  0  0  0  0  0  0  0  0  0  0
  192.3250  174.3120  143.4210 F   0  0  0  0  0  0  0  0  0  0  0  0
  187.9180  176.0210  142.3320 C   0  0  0  0  0  0  0  0  0  0  0  0
  190.2170  173.7860  140.5020 C   0  0  0  0  0  3  0  0  0  0  0  0
  190.1150  175.2050  142.9430 C   0  0  0  0  0  0  0  0  0  0  0  0
  187.8180  176.7260  143.5040 C   0  0  0  0  0  0  0  0  0  0  0  0
  185.6270  178.3350  141.2200 C   0  0  0  0  0  1  0  0  0  0  0  0
  186.6210  177.6280  143.4050 C   0  0  2  0  0  3  0  0  0  0  0  0
  184.2760  179.0410  145.7620 C   0  0  0  0  0  2  0  0  0  0  0  0
  187.1060  177.0220  147.5430 O   0  0  0  0  0  0  0  0  0  0  0  0
  189.0910  174.5410  140.8200 C   0  0  0  0  0  3  0  0  0  0  0  0
  189.0300  175.2420  142.0290 C   0  0  0  0  0  0  0  0  0  0  0  0
  187.3980  177.5060  146.4150 C   0  0  0  0  0  0  0  0  0  0  0  0
  192.1170  176.4100  147.3480 C   0  0  0  0  0  2  0  0  0  0  0  0
  194.1960  177.1660  146.8880 O   0  0  0  0  0  1  0  0  0  0  0  0
  193.3140  176.1940  146.5520 N   0  0  0  0  0  2  0  0  0  0  0  0
  1  4  1  0  0  0  0
  1  5  1  0  0  0  0
  2 19  1  0  0  0  0
  2 16  1  0  0  0  0
  3 10  1  0  0  0  0
  3 17  1  0  0  0  0
  4 12  1  0  0  0  0
  5 11  1  0  0  0  0
  7 27  1  1  0  0  0
  7 15  1  0  0  0  0
  8  6  2  0  0  0  0
  9 14  1  6  0  0  0
  9  7  1  0  0  0  0
 10 21  1  6  0  0  0
 10 22  1  0  0  0  0
 11  8  1  0  0  0  0
 11 28  1  1  0  0  0
 12 27  1  0  0  0  0
 12  8  1  0  0  0  0
 13  2  2  0  0  0  0
 14 23  1  0  0  0  0
 17 20  1  0  0  0  0
 18 25  2  0  0  0  0
 18 13  1  0  0  0  0
 19  1  2  0  0  0  0
 20  4  2  0  0  0  0
 22 20  1  1  0  0  0
 22  9  1  0  0  0  0
 23 15  1  0  0  0  0
 25 26  1  0  0  0  0
 26 17  2  0  0  0  0
 26 19  1  0  0  0  0
 27 24  2  0  0  0  0
 30 29  1  0  0  0  0
 30 28  1  0  0  0  0
M  END
>  <MODEL>
3

>  <REMARK>
 VINA RESULT:      -8.3      3.430      7.333
  Name = 
  2 active torsions:
  status: ('A' for Active; 'I' for Inactive)
    1  A    between atoms: C_11  and  C_28
    2  A    between atoms: C_28  and  N_30
                            x       y       z     vdW  Elec       q    Type
                         _______ _______ _______ _____ _____    ______ ____

>  <TORSDO>
F 2

$$$$
=
 OpenBabel11112416253D

 30 35  0  0  1  0  0  0  0  0999 V2000
  186.7150  176.8110  144.0140 C   0  0  0  0  0  0  0  0  0  0  0  0
  185.0860  178.2170  142.7410 C   0  0  0  0  0  0  0  0  0  0  0  0
  188.2670  175.2500  140.4420 N   0  0  0  0  0  2  0  0  0  0  0  0
  187.8320  175.9220  144.0110 C   0  0  0  0  0  0  0  0  0  0  0  0
  186.0390  177.1140  145.3230 C   0  0  0  0  0  2  0  0  0  0  0  0
  188.2990  175.6210  147.6030 O   0  0  0  0  0  0  0  0  0  0  0  0
  190.3360  174.0010  144.5350 C   0  0  1  0  0  3  0  0  0  0  0  0
  187.9500  176.1220  146.4980 C   0  0  0  0  0  0  0  0  0  0  0  0
  190.5240  174.3980  143.1090 C   0  0  1  0  0  3  0  0  0  0  0  0
  189.2710  174.3000  140.8950 C   0  0  2  0  0  3  0  0  0  0  0  0
  187.0290  177.3030  146.4560 C   0  0  2  0  0  3  0  0  0  0  0  0
  188.5100  175.6200  145.2690 N   0  0  0  0  0  0  0  0  0  0  0  0
  184.5780  178.6450  141.5110 C   0  0  0  0  0  3  0  0  0  0  0  0
  191.5090  173.3720  142.6310 C   0  0  0  0  0  2  0  0  0  0  0  0
  191.5520  173.4880  145.0130 O   0  0  0  0  0  0  0  0  0  0  0  0
  184.5340  178.7410  143.8630 F   0  0  0  0  0  0  0  0  0  0  0  0
  187.7210  175.8820  141.5850 C   0  0  0  0  0  0  0  0  0  0  0  0
  185.1110  178.1660  140.3170 C   0  0  0  0  0  3  0  0  0  0  0  0
  186.1580  177.2870  142.7900 C   0  0  0  0  0  0  0  0  0  0  0  0
  188.2660  175.4260  142.7570 C   0  0  0  0  0  0  0  0  0  0  0  0
  188.9640  172.9270  140.3330 C   0  0  0  0  0  1  0  0  0  0  0  0
  189.1720  174.2730  142.4330 C   0  0  2  0  0  3  0  0  0  0  0  0
  192.1580  172.8680  143.9040 C   0  0  0  0  0  2  0  0  0  0  0  0
  190.7120  175.8010  146.0410 O   0  0  0  0  0  0  0  0  0  0  0  0
  186.1630  177.2530  140.3410 C   0  0  0  0  0  3  0  0  0  0  0  0
  186.6910  176.8170  141.5610 C   0  0  0  0  0  0  0  0  0  0  0  0
  189.8820  175.1790  145.3230 C   0  0  0  0  0  0  0  0  0  0  0  0
  186.2780  177.4950  147.7700 C   0  0  0  0  0  2  0  0  0  0  0  0
  185.9420  179.7250  147.6420 O   0  0  0  0  0  1  0  0  0  0  0  0
  185.2800  178.5440  147.6360 N   0  0  0  0  0  2  0  0  0  0  0  0
  1  5  1  0  0  0  0
  2 19  1  0  0  0  0
  2 16  1  0  0  0  0
  3 10  1  0  0  0  0
  3 17  1  0  0  0  0
  4  1  1  0  0  0  0
  4 12  1  0  0  0  0
  5 11  1  0  0  0  0
  7 15  1  1  0  0  0
  7 27  1  0  0  0  0
  8  6  2  0  0  0  0
  9 14  1  6  0  0  0
  9  7  1  0  0  0  0
 10 21  1  6  0  0  0
 10 22  1  0  0  0  0
 11  8  1  0  0  0  0
 11 28  1  1  0  0  0
 12 27  1  0  0  0  0
 12  8  1  0  0  0  0
 13  2  2  0  0  0  0
 14 23  1  0  0  0  0
 17 20  1  0  0  0  0
 18 25  2  0  0  0  0
 18 13  1  0  0  0  0
 19  1  2  0  0  0  0
 20  4  2  0  0  0  0
 22 20  1  1  0  0  0
 22  9  1  0  0  0  0
 23 15  1  0  0  0  0
 25 26  1  0  0  0  0
 26 17  2  0  0  0  0
 26 19  1  0  0  0  0
 27 24  2  0  0  0  0
 30 29  1  0  0  0  0
 30 28  1  0  0  0  0
M  END
>  <MODEL>
4

>  <REMARK>
 VINA RESULT:      -8.0      2.637      4.873
  Name = 
  2 active torsions:
  status: ('A' for Active; 'I' for Inactive)
    1  A    between atoms: C_11  and  C_28
    2  A    between atoms: C_28  and  N_30
                            x       y       z     vdW  Elec       q    Type
                         _______ _______ _______ _____ _____    ______ ____

>  <TORSDO>
F 2

$$$$
=
 OpenBabel11112416253D

 30 35  0  0  1  0  0  0  0  0999 V2000
  190.2250  174.8560  143.3050 C   0  0  0  0  0  0  0  0  0  0  0  0
  190.7550  173.7660  141.1190 C   0  0  0  0  0  0  0  0  0  0  0  0
  186.6020  176.3200  141.7770 N   0  0  0  0  0  2  0  0  0  0  0  0
  189.3000  175.5670  144.1280 C   0  0  0  0  0  0  0  0  0  0  0  0
  191.6110  174.6020  143.8320 C   0  0  0  0  0  2  0  0  0  0  0  0
  191.2470  175.6390  147.1970 O   0  0  0  0  0  0  0  0  0  0  0  0
  187.5780  177.0670  146.3690 C   0  0  1  0  0  3  0  0  0  0  0  0
  190.8380  175.2450  146.0700 C   0  0  0  0  0  0  0  0  0  0  0  0
  186.5460  176.7080  145.3510 C   0  0  1  0  0  3  0  0  0  0  0  0
  186.0530  177.0880  142.8840 C   0  0  2  0  0  3  0  0  0  0  0  0
  191.6110  174.2180  145.2990 C   0  0  2  0  0  3  0  0  0  0  0  0
  189.5750  175.7090  145.5550 N   0  0  0  0  0  0  0  0  0  0  0  0
  190.3800  173.4720  139.8050 C   0  0  0  0  0  3  0  0  0  0  0  0
  185.4020  177.5950  145.7470 C   0  0  0  0  0  2  0  0  0  0  0  0
  186.9230  177.3720  147.5710 O   0  0  0  0  0  0  0  0  0  0  0  0
  191.9450  173.2820  141.5530 F   0  0  0  0  0  0  0  0  0  0  0  0
  187.8100  175.7270  142.2170 C   0  0  0  0  0  0  0  0  0  0  0  0
  189.1620  173.9170  139.2970 C   0  0  0  0  0  3  0  0  0  0  0  0
  189.8950  174.5220  141.9580 C   0  0  0  0  0  0  0  0  0  0  0  0
  188.1170  176.0460  143.5140 C   0  0  0  0  0  0  0  0  0  0  0  0
  185.8030  178.5140  142.4380 C   0  0  0  0  0  1  0  0  0  0  0  0
  187.1220  177.0630  143.9940 C   0  0  2  0  0  3  0  0  0  0  0  0
  185.6920  177.9410  147.1940 C   0  0  0  0  0  2  0  0  0  0  0  0
  188.4240  175.1680  147.5200 O   0  0  0  0  0  0  0  0  0  0  0  0
  188.3030  174.6600  140.1020 C   0  0  0  0  0  3  0  0  0  0  0  0
  188.6550  174.9590  141.4230 C   0  0  0  0  0  0  0  0  0  0  0  0
  188.5340  175.9380  146.5270 C   0  0  0  0  0  0  0  0  0  0  0  0
  193.0470  174.0840  145.7960 C   0  0  0  0  0  2  0  0  0  0  0  0
  193.4730  171.9460  145.2020 O   0  0  0  0  0  1  0  0  0  0  0  0
  193.8130  173.2240  144.9080 N   0  0  0  0  0  2  0  0  0  0  0  0
  1  5  1  0  0  0  0
  1  4  1  0  0  0  0
  2 16  1  0  0  0  0
  2 19  1  0  0  0  0
  3 17  1  0  0  0  0
  3 10  1  0  0  0  0
  4 12  1  0  0  0  0
  5 11  1  0  0  0  0
  7 27  1  1  0  0  0
  7 15  1  0  0  0  0
  8  6  2  0  0  0  0
  9 14  1  1  0  0  0
  9  7  1  0  0  0  0
 10 21  1  6  0  0  0
 10 22  1  0  0  0  0
 11 28  1  1  0  0  0
 11  8  1  0  0  0  0
 12  8  1  0  0  0  0
 12 27  1  0  0  0  0
 13  2  2  0  0  0  0
 14 23  1  0  0  0  0
 17 20  1  0  0  0  0
 18 13  1  0  0  0  0
 18 25  2  0  0  0  0
 19  1  2  0  0  0  0
 20  4  2  0  0  0  0
 22 20  1  6  0  0  0
 22  9  1  0  0  0  0
 23 15  1  0  0  0  0
 25 26  1  0  0  0  0
 26 19  1  0  0  0  0
 26 17  2  0  0  0  0
 27 24  2  0  0  0  0
 30 29  1  0  0  0  0
 30 28  1  0  0  0  0
M  END
>  <MODEL>
5

>  <REMARK>
 VINA RESULT:      -7.8      3.314      7.268
  Name = 
  2 active torsions:
  status: ('A' for Active; 'I' for Inactive)
    1  A    between atoms: C_11  and  C_28
    2  A    between atoms: C_28  and  N_30
                            x       y       z     vdW  Elec       q    Type
                         _______ _______ _______ _____ _____    ______ ____

>  <TORSDO>
F 2

$$$$
=
 OpenBabel11112416253D

 30 35  0  0  1  0  0  0  0  0999 V2000
  189.1080  176.4760  145.6970 C   0  0  0  0  0  0  0  0  0  0  0  0
  186.9680  177.6650  146.2010 C   0  0  0  0  0  0  0  0  0  0  0  0
  187.6240  175.2370  141.9730 N   0  0  0  0  0  2  0  0  0  0  0  0
  189.9220  175.7560  144.7710 C   0  0  0  0  0  0  0  0  0  0  0  0
  189.6020  176.6480  147.1070 C   0  0  0  0  0  2  0  0  0  0  0  0
  192.9150  175.4400  146.8080 O   0  0  0  0  0  0  0  0  0  0  0  0
  192.1330  174.2000  143.0610 C   0  0  1  0  0  3  0  0  0  0  0  0
  191.8250  175.9120  146.3800 C   0  0  0  0  0  0  0  0  0  0  0  0
  191.1720  174.6530  142.0130 C   0  0  1  0  0  3  0  0  0  0  0  0
  188.7050  174.4300  141.4280 C   0  0  2  0  0  3  0  0  0  0  0  0
  191.0870  176.9500  147.1680 C   0  0  2  0  0  3  0  0  0  0  0  0
  191.3290  175.5240  145.0840 N   0  0  0  0  0  0  0  0  0  0  0  0
  185.6850  178.0460  145.7970 C   0  0  0  0  0  3  0  0  0  0  0  0
  191.5570  173.7890  140.8480 C   0  0  0  0  0  2  0  0  0  0  0  0
  193.3390  173.8540  142.4320 O   0  0  0  0  0  0  0  0  0  0  0  0
  187.3880  178.0790  147.4220 F   0  0  0  0  0  0  0  0  0  0  0  0
  188.0550  175.7580  143.2160 C   0  0  0  0  0  0  0  0  0  0  0  0
  185.1940  177.6760  144.5470 C   0  0  0  0  0  3  0  0  0  0  0  0
  187.7930  176.8970  145.3380 C   0  0  0  0  0  0  0  0  0  0  0  0
  189.3220  175.3570  143.5510 C   0  0  0  0  0  0  0  0  0  0  0  0
  188.1910  173.0410  141.1090 C   0  0  0  0  0  1  0  0  0  0  0  0
  189.7790  174.3520  142.5320 C   0  0  2  0  0  3  0  0  0  0  0  0
  192.9720  173.3530  141.1690 C   0  0  0  0  0  2  0  0  0  0  0  0
  193.3580  175.9990  144.0170 O   0  0  0  0  0  0  0  0  0  0  0  0
  185.9860  176.9220  143.6850 C   0  0  0  0  0  3  0  0  0  0  0  0
  187.2760  176.5370  144.0660 C   0  0  0  0  0  0  0  0  0  0  0  0
  192.3200  175.2810  144.0660 C   0  0  0  0  0  0  0  0  0  0  0  0
  191.5420  177.0020  148.6230 C   0  0  0  0  0  2  0  0  0  0  0  0
  191.5660  178.2280  150.5210 O   0  0  0  0  0  1  0  0  0  0  0  0
  191.1890  178.2800  149.2210 N   0  0  0  0  0  2  0  0  0  0  0  0
  1  5  1  0  0  0  0
  2 16  1  0  0  0  0
  3 17  1  0  0  0  0
  4 12  1  0  0  0  0
  4  1  2  0  0  0  0
  5 11  1  0  0  0  0
  7 15  1  6  0  0  0
  7 27  1  0  0  0  0
  8  6  2  0  0  0  0
  8 11  1  0  0  0  0
  9 14  1  6  0  0  0
  9 22  1  0  0  0  0
  9  7  1  0  0  0  0
 10 21  1  1  0  0  0
 10  3  1  0  0  0  0
 10 22  1  0  0  0  0
 11 28  1  1  0  0  0
 12  8  1  0  0  0  0
 13  2  1  0  0  0  0
 14 23  1  0  0  0  0
 17 20  2  0  0  0  0
 17 26  1  0  0  0  0
 18 13  2  0  0  0  0
 19  1  1  0  0  0  0
 19  2  2  0  0  0  0
 20  4  1  0  0  0  0
 22 20  1  1  0  0  0
 23 15  1  0  0  0  0
 24 27  2  0  0  0  0
 25 26  2  0  0  0  0
 25 18  1  0  0  0  0
 26 19  1  0  0  0  0
 27 12  1  0  0  0  0
 28 30  1  0  0  0  0
 30 29  1  0  0  0  0
M  END
>  <MODEL>
6

>  <REMARK>
 VINA RESULT:      -7.8      3.192      5.549
  Name = 
  2 active torsions:
  status: ('A' for Active; 'I' for Inactive)
    1  A    between atoms: C_11  and  C_28
    2  A    between atoms: C_28  and  N_30
                            x       y       z     vdW  Elec       q    Type
                         _______ _______ _______ _____ _____    ______ ____

>  <TORSDO>
F 2

$$$$
=
 OpenBabel11112416253D

 30 35  0  0  1  0  0  0  0  0999 V2000
  189.1350  176.6740  145.0400 C   0  0  0  0  0  0  0  0  0  0  0  0
  190.0560  177.3510  147.2630 C   0  0  0  0  0  0  0  0  0  0  0  0
  192.7880  174.8990  143.9880 N   0  0  0  0  0  2  0  0  0  0  0  0
  189.2940  175.9630  143.8120 C   0  0  0  0  0  0  0  0  0  0  0  0
  187.9020  177.5130  145.2320 C   0  0  0  0  0  2  0  0  0  0  0  0
  185.9900  176.5470  142.4140 O   0  0  0  0  0  0  0  0  0  0  0  0
  189.1300  174.4790  140.9830 C   0  0  1  0  0  3  0  0  0  0  0  0
  186.8950  176.4140  143.2850 C   0  0  0  0  0  0  0  0  0  0  0  0
  190.2990  173.8150  141.6310 C   0  0  1  0  0  3  0  0  0  0  0  0
  192.5580  174.4260  142.6320 C   0  0  2  0  0  3  0  0  0  0  0  0
  186.6530  176.8360  144.7010 C   0  0  2  0  0  3  0  0  0  0  0  0
  188.1360  175.7680  142.9430 N   0  0  0  0  0  0  0  0  0  0  0  0
  191.1220  177.3560  148.1670 C   0  0  0  0  0  3  0  0  0  0  0  0
  190.9640  173.1500  140.4610 C   0  0  0  0  0  2  0  0  0  0  0  0
  188.7010  173.6720  139.9170 O   0  0  0  0  0  0  0  0  0  0  0  0
  188.9060  177.9560  147.6500 F   0  0  0  0  0  0  0  0  0  0  0  0
  191.5810  175.4660  144.4610 C   0  0  0  0  0  0  0  0  0  0  0  0
  192.3280  176.7350  147.8470 C   0  0  0  0  0  3  0  0  0  0  0  0
  190.1860  176.7080  146.0040 C   0  0  0  0  0  0  0  0  0  0  0  0
  190.5730  175.4230  143.5330 C   0  0  0  0  0  0  0  0  0  0  0  0
  193.5890  175.0300  141.7000 C   0  0  0  0  0  1  0  0  0  0  0  0
  191.1480  174.9130  142.2430 C   0  0  2  0  0  3  0  0  0  0  0  0
  189.8640  173.0550  139.4220 C   0  0  0  0  0  2  0  0  0  0  0  0
  187.0660  173.9050  142.0130 O   0  0  0  0  0  0  0  0  0  0  0  0
  192.4780  176.0990  146.6180 C   0  0  0  0  0  3  0  0  0  0  0  0
  191.4210  176.0750  145.7010 C   0  0  0  0  0  0  0  0  0  0  0  0
  188.0560  174.6890  141.9900 C   0  0  0  0  0  0  0  0  0  0  0  0
  185.4630  177.7830  144.8250 C   0  0  0  0  0  2  0  0  0  0  0  0
  185.5670  179.8360  143.8880 O   0  0  0  0  0  1  0  0  0  0  0  0
  185.9190  179.1520  145.0030 N   0  0  0  0  0  2  0  0  0  0  0  0
  1  5  1  0  0  0  0
  1 19  1  0  0  0  0
  2 16  1  0  0  0  0
  2 13  1  0  0  0  0
  3 17  1  0  0  0  0
  4  1  2  0  0  0  0
  6  8  2  0  0  0  0
  7 15  1  6  0  0  0
  7  9  1  0  0  0  0
  7 27  1  0  0  0  0
  8 11  1  0  0  0  0
  9 14  1  6  0  0  0
  9 22  1  0  0  0  0
 10 21  1  6  0  0  0
 10  3  1  0  0  0  0
 11 28  1  6  0  0  0
 11  5  1  0  0  0  0
 12  8  1  0  0  0  0
 12  4  1  0  0  0  0
 17 26  1  0  0  0  0
 18 13  2  0  0  0  0
 19  2  2  0  0  0  0
 20  4  1  0  0  0  0
 20 17  2  0  0  0  0
 22 10  1  0  0  0  0
 22 20  1  1  0  0  0
 23 15  1  0  0  0  0
 23 14  1  0  0  0  0
 25 18  1  0  0  0  0
 26 19  1  0  0  0  0
 26 25  2  0  0  0  0
 27 24  2  0  0  0  0
 27 12  1  0  0  0  0
 28 30  1  0  0  0  0
 29 30  1  0  0  0  0
M  END
>  <MODEL>
7

>  <REMARK>
 VINA RESULT:      -7.7      2.550      3.919
  Name = 
  2 active torsions:
  status: ('A' for Active; 'I' for Inactive)
    1  A    between atoms: C_11  and  C_28
    2  A    between atoms: C_28  and  N_30
                            x       y       z     vdW  Elec       q    Type
                         _______ _______ _______ _____ _____    ______ ____

>  <TORSDO>
F 2

$$$$
=
 OpenBabel11112416253D

 30 35  0  0  1  0  0  0  0  0999 V2000
  187.3060  176.6670  143.0920 C   0  0  0  0  0  0  0  0  0  0  0  0
  185.0610  177.7380  142.8470 C   0  0  0  0  0  0  0  0  0  0  0  0
  187.5660  177.9600  147.0750 N   0  0  0  0  0  2  0  0  0  0  0  0
  188.4040  176.2980  143.9260 C   0  0  0  0  0  0  0  0  0  0  0  0
  187.4060  176.4070  141.6140 C   0  0  0  0  0  2  0  0  0  0  0  0
  190.3560  174.4540  141.4760 O   0  0  0  0  0  0  0  0  0  0  0  0
  191.0340  175.1890  145.3730 C   0  0  1  0  0  3  0  0  0  0  0  0
  189.3460  174.9660  142.0350 C   0  0  0  0  0  0  0  0  0  0  0  0
  190.1400  175.5090  146.5240 C   0  0  1  0  0  3  0  0  0  0  0  0
  188.8780  177.4930  147.4980 C   0  0  2  0  0  3  0  0  0  0  0  0
  188.0420  175.0660  141.3030 C   0  0  2  0  0  3  0  0  0  0  0  0
  189.4130  175.3750  143.4150 N   0  0  0  0  0  0  0  0  0  0  0  0
  184.0090  178.4600  143.4180 C   0  0  0  0  0  3  0  0  0  0  0  0
  191.1080  175.5240  147.6710 C   0  0  0  0  0  2  0  0  0  0  0  0
  192.0520  174.3390  145.8290 O   0  0  0  0  0  0  0  0  0  0  0  0
  184.9300  177.3620  141.5500 F   0  0  0  0  0  0  0  0  0  0  0  0
  187.3550  177.5150  145.7480 C   0  0  0  0  0  0  0  0  0  0  0  0
  184.0640  178.8610  144.7520 C   0  0  0  0  0  3  0  0  0  0  0  0
  186.2020  177.3980  143.6210 C   0  0  0  0  0  0  0  0  0  0  0  0
  188.4170  176.8070  145.2490 C   0  0  0  0  0  0  0  0  0  0  0  0
  189.7020  178.6680  147.9860 C   0  0  0  0  0  1  0  0  0  0  0  0
  189.5350  176.8720  146.2490 C   0  0  2  0  0  3  0  0  0  0  0  0
  192.2860  174.7170  147.1640 C   0  0  0  0  0  2  0  0  0  0  0  0
  190.2770  173.3170  144.1210 O   0  0  0  0  0  0  0  0  0  0  0  0
  185.1730  178.5390  145.5290 C   0  0  0  0  0  3  0  0  0  0  0  0
  186.2340  177.8100  144.9790 C   0  0  0  0  0  0  0  0  0  0  0  0
  190.2360  174.5680  144.2810 C   0  0  0  0  0  0  0  0  0  0  0  0
  188.2150  174.9150  139.7950 C   0  0  0  0  0  2  0  0  0  0  0  0
  188.1940  173.4610  138.0660 O   0  0  0  0  0  1  0  0  0  0  0  0
  188.1900  173.5100  139.4200 N   0  0  0  0  0  2  0  0  0  0  0  0
  1 19  2  0  0  0  0
  1  4  1  0  0  0  0
  2 13  2  0  0  0  0
  2 19  1  0  0  0  0
  3 10  1  0  0  0  0
  4 20  2  0  0  0  0
  5  1  1  0  0  0  0
  6  8  2  0  0  0  0
  7 27  1  6  0  0  0
  7 15  1  0  0  0  0
  7  9  1  0  0  0  0
  8 12  1  0  0  0  0
  9 14  1  1  0  0  0
 10 21  1  6  0  0  0
 11 28  1  6  0  0  0
 11  5  1  0  0  0  0
 11  8  1  0  0  0  0
 12  4  1  0  0  0  0
 12 27  1  0  0  0  0
 13 18  1  0  0  0  0
 15 23  1  0  0  0  0
 16  2  1  0  0  0  0
 17  3  1  0  0  0  0
 18 25  2  0  0  0  0
 19 26  1  0  0  0  0
 20 17  1  0  0  0  0
 22 20  1  6  0  0  0
 22  9  1  0  0  0  0
 22 10  1  0  0  0  0
 23 14  1  0  0  0  0
 24 27  2  0  0  0  0
 26 25  1  0  0  0  0
 26 17  2  0  0  0  0
 29 30  1  0  0  0  0
 30 28  1  0  0  0  0
M  END
>  <MODEL>
8

>  <REMARK>
 VINA RESULT:      -7.5      2.408      3.351
  Name = 
  2 active torsions:
  status: ('A' for Active; 'I' for Inactive)
    1  A    between atoms: C_11  and  C_28
    2  A    between atoms: C_28  and  N_30
                            x       y       z     vdW  Elec       q    Type
                         _______ _______ _______ _____ _____    ______ ____

>  <TORSDO>
F 2

$$$$
=
 OpenBabel11112416253D

 30 35  0  0  1  0  0  0  0  0999 V2000
  188.5760  175.4930  143.1450 C   0  0  0  0  0  0  0  0  0  0  0  0
  186.4350  176.5150  143.9320 C   0  0  0  0  0  0  0  0  0  0  0  0
  190.2520  175.8870  146.9710 N   0  0  0  0  0  2  0  0  0  0  0  0
  189.8760  174.9860  143.4460 C   0  0  0  0  0  0  0  0  0  0  0  0
  188.1480  175.5670  141.7050 C   0  0  0  0  0  2  0  0  0  0  0  0
  190.7770  173.7920  140.1330 O   0  0  0  0  0  0  0  0  0  0  0  0
  192.7900  173.6760  143.6150 C   0  0  1  0  0  3  0  0  0  0  0  0
  190.0460  174.1350  141.1040 C   0  0  0  0  0  0  0  0  0  0  0  0
  192.3630  173.7050  145.0450 C   0  0  1  0  0  3  0  0  0  0  0  0
  191.6060  175.3830  146.8020 C   0  0  2  0  0  3  0  0  0  0  0  0
  188.5760  174.3490  140.9100 C   0  0  2  0  0  3  0  0  0  0  0  0
  190.6040  174.2320  142.4290 N   0  0  0  0  0  0  0  0  0  0  0  0
  185.6790  177.0590  144.9740 C   0  0  0  0  0  3  0  0  0  0  0  0
  193.6670  173.5000  145.7590 C   0  0  0  0  0  2  0  0  0  0  0  0
  193.8630  172.7800  143.4940 O   0  0  0  0  0  0  0  0  0  0  0  0
  185.8480  176.4290  142.7120 F   0  0  0  0  0  0  0  0  0  0  0  0
  189.5760  175.7380  145.7360 C   0  0  0  0  0  0  0  0  0  0  0  0
  186.2080  177.1580  146.2590 C   0  0  0  0  0  3  0  0  0  0  0  0
  187.7560  176.0520  144.1690 C   0  0  0  0  0  0  0  0  0  0  0  0
  190.3670  175.1920  144.7590 C   0  0  0  0  0  0  0  0  0  0  0  0
  192.6010  176.4490  147.2170 C   0  0  0  0  0  1  0  0  0  0  0  0
  191.7630  175.0740  145.2990 C   0  0  2  0  0  3  0  0  0  0  0  0
  194.5600  172.8630  144.7130 C   0  0  0  0  0  2  0  0  0  0  0  0
  191.5630  172.0990  142.3270 O   0  0  0  0  0  0  0  0  0  0  0  0
  187.5020  176.7110  146.5140 C   0  0  0  0  0  3  0  0  0  0  0  0
  188.2730  176.1570  145.4870 C   0  0  0  0  0  0  0  0  0  0  0  0
  191.6380  173.2830  142.7600 C   0  0  0  0  0  0  0  0  0  0  0  0
  188.2110  174.5380  139.4410 C   0  0  0  0  0  2  0  0  0  0  0  0
  188.6910  173.4540  137.5170 O   0  0  0  0  0  1  0  0  0  0  0  0
  188.1790  173.2560  138.7560 N   0  0  0  0  0  2  0  0  0  0  0  0
  1  4  2  0  0  0  0
  1 19  1  0  0  0  0
  2 19  2  0  0  0  0
  2 13  1  0  0  0  0
  4 20  1  0  0  0  0
  5  1  1  0  0  0  0
  6  8  2  0  0  0  0
  7 27  1  6  0  0  0
  7  9  1  0  0  0  0
  8 12  1  0  0  0  0
  9 22  1  0  0  0  0
  9 14  1  1  0  0  0
 10  3  1  0  0  0  0
 10 21  1  6  0  0  0
 11 28  1  6  0  0  0
 11  8  1  0  0  0  0
 11  5  1  0  0  0  0
 12 27  1  0  0  0  0
 12  4  1  0  0  0  0
 13 18  2  0  0  0  0
 15  7  1  0  0  0  0
 15 23  1  0  0  0  0
 16  2  1  0  0  0  0
 17  3  1  0  0  0  0
 18 25  1  0  0  0  0
 19 26  1  0  0  0  0
 20 17  2  0  0  0  0
 22 20  1  6  0  0  0
 22 10  1  0  0  0  0
 23 14  1  0  0  0  0
 24 27  2  0  0  0  0
 26 17  1  0  0  0  0
 26 25  2  0  0  0  0
 29 30  1  0  0  0  0
 30 28  1  0  0  0  0
M  END
>  <MODEL>
9

>  <REMARK>
 VINA RESULT:      -7.4      2.614      3.297
  Name = 
  2 active torsions:
  status: ('A' for Active; 'I' for Inactive)
    1  A    between atoms: C_11  and  C_28
    2  A    between atoms: C_28  and  N_30
                            x       y       z     vdW  Elec       q    Type
                         _______ _______ _______ _____ _____    ______ ____

>  <TORSDO>
F 2

$$$$
