=
 OpenBabel11112416303D

 32 37  0  0  1  0  0  0  0  0999 V2000
  185.4130  177.8040  145.6190 C   0  0  0  0  0  2  0  0  0  0  0  0
  190.3620  175.2830  145.2850 C   0  0  1  0  0  3  0  0  0  0  0  0
  190.3900  172.8700  140.9090 C   0  0  0  0  0  2  0  0  0  0  0  0
  191.8560  172.6750  141.3060 C   0  0  0  0  0  2  0  0  0  0  0  0
  192.2220  174.7060  147.0380 C   0  0  1  0  0  3  0  0  0  0  0  0
  193.3030  175.5470  146.4430 C   0  0  0  0  0  0  0  0  0  0  0  0
  188.5900  177.0010  145.7560 C   0  0  1  0  0  3  0  0  0  0  0  0
  188.8870  175.8920  143.5290 C   0  0  0  0  0  2  0  0  0  0  0  0
  194.7330  176.3270  144.9050 C   0  0  0  0  0  0  0  0  0  0  0  0
  187.1350  177.6410  143.7260 C   0  0  0  0  0  2  0  0  0  0  0  0
  189.5370  173.5260  142.0060 C   0  0  0  0  0  2  0  0  0  0  0  0
  189.5450  174.7470  144.1700 N   0  0  1  0  0  0  0  0  0  0  0  0
  190.3880  174.1100  143.1450 C   0  0  1  0  0  3  0  0  0  0  0  0
  192.1380  173.5150  144.8340 C   0  0  1  0  0  3  0  0  0  0  0  0
  194.3100  177.3090  145.6290 N   0  0  0  0  0  0  0  0  0  0  0  0
  186.2040  177.0460  146.6980 C   0  0  0  0  0  2  0  0  0  0  0  0
  187.8750  176.5280  144.4740 C   0  0  2  0  0  3  0  0  0  0  0  0
  193.3890  176.8310  146.5630 N   0  0  0  0  0  0  0  0  0  0  0  0
  187.6480  177.5370  146.8470 C   0  0  0  0  0  2  0  0  0  0  0  0
  186.2840  178.5620  144.6100 C   0  0  1  0  0  3  0  0  0  0  0  0
  191.9740  172.1180  142.7250 C   0  0  0  0  0  2  0  0  0  0  0  0
  191.2160  172.9710  143.7570 C   0  0  2  0  0  3  0  0  0  0  0  0
  193.1900  174.4850  144.2400 C   0  0  0  0  0  2  0  0  0  0  0  0
  189.4140  175.8610  146.3410 C   0  0  0  0  0  2  0  0  0  0  0  0
  191.5330  175.3780  148.1290 N   0  0  0  0  0  1  0  0  0  0  0  0
  195.7330  176.4960  143.8180 C   0  0  0  0  0  1  0  0  0  0  0  0
  191.2770  174.1980  145.9220 C   0  0  2  0  0  3  0  0  0  0  0  0
  194.1280  175.0280  145.3210 C   0  0  2  0  0  3  0  0  0  0  0  0
  185.4030  179.4520  143.7510 C   0  0  0  0  0  2  0  0  0  0  0  0
  184.8570  178.6960  142.5880 C   0  0  0  0  0  0  0  0  0  0  0  0
  185.5410  178.6900  141.3800 O   0  0  0  0  0  0  0  0  0  0  0  0
  183.7910  178.0380  142.7090 O   0  0  0  0  0  1  0  0  0  0  0  0
  1 16  1  0  0  0  0
  2 27  1  0  0  0  0
  2 24  1  1  0  0  0
  3  4  1  0  0  0  0
  3 11  1  0  0  0  0
  4 21  1  0  0  0  0
  5 25  1  1  0  0  0
  6 18  2  0  0  0  0
  6  5  1  0  0  0  0
  7 24  1  1  0  0  0
  7 19  1  0  0  0  0
  9 28  1  0  0  0  0
  9 15  2  0  0  0  0
 10 17  1  0  0  0  0
 10 20  1  0  0  0  0
 12  8  1  6  0  0  0
 12  2  1  0  0  0  0
 13 11  1  6  0  0  0
 13 22  1  0  0  0  0
 13 12  1  0  0  0  0
 14 23  1  6  0  0  0
 14 27  1  0  0  0  0
 15 18  1  0  0  0  0
 16 19  1  0  0  0  0
 17  8  1  6  0  0  0
 17  7  1  0  0  0  0
 20 29  1  6  0  0  0
 20  1  1  0  0  0  0
 22 21  1  6  0  0  0
 22 14  1  0  0  0  0
 23 28  1  0  0  0  0
 26  9  1  0  0  0  0
 27  5  1  0  0  0  0
 28  6  1  0  0  0  0
 30 32  1  0  0  0  0
 30 29  1  0  0  0  0
 31 30  2  0  0  0  0
M  END
>  <MODEL>
1

>  <REMARK>
 VINA RESULT:      -8.9      0.000      0.000
  Name = 
  2 active torsions:
  status: ('A' for Active; 'I' for Inactive)
    1  A    between atoms: C_20  and  C_29
    2  A    between atoms: C_29  and  C_30
                            x       y       z     vdW  Elec       q    Type
                         _______ _______ _______ _____ _____    ______ ____

>  <TORSDO>
F 2

$$$$
=
 OpenBabel11112416303D

 32 37  0  0  1  0  0  0  0  0999 V2000
  187.4870  176.5730  144.8190 C   0  0  0  0  0  2  0  0  0  0  0  0
  192.7420  174.7580  145.0190 C   0  0  1  0  0  3  0  0  0  0  0  0
  192.6000  169.9590  143.6340 C   0  0  0  0  0  2  0  0  0  0  0  0
  194.1180  170.1620  143.6610 C   0  0  0  0  0  2  0  0  0  0  0  0
  194.9300  175.6680  146.1370 C   0  0  1  0  0  3  0  0  0  0  0  0
  195.7040  175.8820  144.8780 C   0  0  0  0  0  0  0  0  0  0  0  0
  190.7430  176.2320  144.6370 C   0  0  1  0  0  3  0  0  0  0  0  0
  190.9190  173.8850  143.7780 C   0  0  0  0  0  2  0  0  0  0  0  0
  196.6820  175.4000  142.9210 C   0  0  0  0  0  0  0  0  0  0  0  0
  188.8900  175.1860  143.1810 C   0  0  0  0  0  2  0  0  0  0  0  0
  191.8080  171.1640  144.1650 C   0  0  0  0  0  2  0  0  0  0  0  0
  191.8940  173.5580  144.8250 N   0  0  1  0  0  0  0  0  0  0  0  0
  192.6820  172.4160  144.3340 C   0  0  1  0  0  3  0  0  0  0  0  0
  194.7590  173.2640  145.4480 C   0  0  1  0  0  3  0  0  0  0  0  0
  196.1800  176.5880  142.8630 N   0  0  0  0  0  0  0  0  0  0  0  0
  188.5770  176.8350  145.8710 C   0  0  0  0  0  2  0  0  0  0  0  0
  189.9540  174.9610  144.2590 C   0  0  2  0  0  3  0  0  0  0  0  0
  195.5360  176.8760  144.0680 N   0  0  0  0  0  0  0  0  0  0  0  0
  189.8900  177.3450  145.2680 C   0  0  0  0  0  2  0  0  0  0  0  0
  188.0110  176.4280  143.3860 C   0  0  1  0  0  3  0  0  0  0  0  0
  194.5680  170.7790  144.9850 C   0  0  0  0  0  2  0  0  0  0  0  0
  193.8160  172.0810  145.3130 C   0  0  2  0  0  3  0  0  0  0  0  0
  195.4780  173.5680  144.1090 C   0  0  0  0  0  2  0  0  0  0  0  0
  191.8690  175.8760  145.5990 C   0  0  0  0  0  2  0  0  0  0  0  0
  194.2930  176.8870  146.6110 N   0  0  0  0  0  1  0  0  0  0  0  0
  197.4440  174.7890  141.7990 C   0  0  0  0  0  1  0  0  0  0  0  0
  193.9530  174.4820  145.9560 C   0  0  2  0  0  3  0  0  0  0  0  0
  196.4360  174.7540  144.2440 C   0  0  2  0  0  3  0  0  0  0  0  0
  186.8400  176.4110  142.4190 C   0  0  0  0  0  2  0  0  0  0  0  0
  186.0200  177.6480  142.5550 C   0  0  0  0  0  0  0  0  0  0  0  0
  186.6100  178.8950  142.3890 O   0  0  0  0  0  0  0  0  0  0  0  0
  184.7870  177.5630  142.7930 O   0  0  0  0  0  1  0  0  0  0  0  0
  1 16  1  0  0  0  0
  2 24  1  1  0  0  0
  2 27  1  0  0  0  0
  3  4  1  0  0  0  0
  3 11  1  0  0  0  0
  4 21  1  0  0  0  0
  5 25  1  6  0  0  0
  6  5  1  0  0  0  0
  7 19  1  1  0  0  0
  7 24  1  0  0  0  0
  8 17  1  0  0  0  0
  9 28  1  0  0  0  0
 10 20  1  0  0  0  0
 12  8  1  6  0  0  0
 12  2  1  0  0  0  0
 13 11  1  1  0  0  0
 13 12  1  0  0  0  0
 13 22  1  0  0  0  0
 14 23  1  6  0  0  0
 14 27  1  0  0  0  0
 15  9  2  0  0  0  0
 15 18  1  0  0  0  0
 17 10  1  6  0  0  0
 17  7  1  0  0  0  0
 18  6  2  0  0  0  0
 19 16  1  0  0  0  0
 20 29  1  6  0  0  0
 20  1  1  0  0  0  0
 22 21  1  6  0  0  0
 22 14  1  0  0  0  0
 23 28  1  0  0  0  0
 26  9  1  0  0  0  0
 27  5  1  0  0  0  0
 28  6  1  0  0  0  0
 29 30  1  0  0  0  0
 30 32  1  0  0  0  0
 31 30  2  0  0  0  0
M  END
>  <MODEL>
2

>  <REMARK>
 VINA RESULT:      -8.5      1.870      2.976
  Name = 
  2 active torsions:
  status: ('A' for Active; 'I' for Inactive)
    1  A    between atoms: C_20  and  C_29
    2  A    between atoms: C_29  and  C_30
                            x       y       z     vdW  Elec       q    Type
                         _______ _______ _______ _____ _____    ______ ____

>  <TORSDO>
F 2

$$$$
=
 OpenBabel11112416303D

 32 37  0  0  1  0  0  0  0  0999 V2000
  185.9480  177.8470  144.2460 C   0  0  0  0  0  2  0  0  0  0  0  0
  190.5660  174.9910  143.0340 C   0  0  1  0  0  3  0  0  0  0  0  0
  193.9030  176.2040  146.5510 C   0  0  0  0  0  2  0  0  0  0  0  0
  194.6700  175.0690  145.8650 C   0  0  0  0  0  2  0  0  0  0  0  0
  191.4120  173.7400  140.8930 C   0  0  1  0  0  3  0  0  0  0  0  0
  191.4630  172.3710  141.4880 C   0  0  0  0  0  0  0  0  0  0  0  0
  188.1440  175.5830  143.3480 C   0  0  1  0  0  3  0  0  0  0  0  0
  189.8890  175.8980  145.1190 C   0  0  0  0  0  2  0  0  0  0  0  0
  192.0370  170.7300  142.9000 C   0  0  0  0  0  0  0  0  0  0  0  0
  187.5390  176.4550  145.6970 C   0  0  0  0  0  2  0  0  0  0  0  0
  192.6000  176.5890  145.8310 C   0  0  0  0  0  2  0  0  0  0  0  0
  190.9400  175.9560  144.0960 N   0  0  1  0  0  0  0  0  0  0  0  0
  192.1980  175.5700  144.7540 C   0  0  1  0  0  3  0  0  0  0  0  0
  193.0230  174.4210  142.6880 C   0  0  1  0  0  3  0  0  0  0  0  0
  190.8050  170.5730  142.5440 N   0  0  0  0  0  0  0  0  0  0  0  0
  186.6150  177.5900  142.8850 C   0  0  0  0  0  2  0  0  0  0  0  0
  188.5710  176.4270  144.5660 C   0  0  2  0  0  3  0  0  0  0  0  0
  190.4340  171.6170  141.6940 N   0  0  0  0  0  0  0  0  0  0  0  0
  186.8970  176.1080  142.6180 C   0  0  0  0  0  2  0  0  0  0  0  0
  186.0910  176.6960  145.2480 C   0  0  1  0  0  3  0  0  0  0  0  0
  194.7310  175.2810  144.3530 C   0  0  0  0  0  2  0  0  0  0  0  0
  193.3390  175.4800  143.7290 C   0  0  2  0  0  3  0  0  0  0  0  0
  192.9570  173.0080  143.3210 C   0  0  0  0  0  2  0  0  0  0  0  0
  189.2920  175.4970  142.3500 C   0  0  0  0  0  2  0  0  0  0  0  0
  190.1810  173.9780  140.1540 N   0  0  0  0  0  1  0  0  0  0  0  0
  192.7450  169.7810  143.8000 C   0  0  0  0  0  1  0  0  0  0  0  0
  191.6990  174.7980  141.9850 C   0  0  2  0  0  3  0  0  0  0  0  0
  192.6490  171.9370  142.2720 C   0  0  2  0  0  3  0  0  0  0  0  0
  185.2030  176.9600  146.4510 C   0  0  0  0  0  2  0  0  0  0  0  0
  184.8850  178.4120  146.5690 C   0  0  0  0  0  0  0  0  0  0  0  0
  183.7240  178.9170  145.9970 O   0  0  0  0  0  0  0  0  0  0  0  0
  185.6530  179.1750  147.2100 O   0  0  0  0  0  1  0  0  0  0  0  0
  1 20  1  0  0  0  0
  2 24  1  6  0  0  0
  2 12  1  0  0  0  0
  4  3  1  0  0  0  0
  5 25  1  1  0  0  0
  5  6  1  0  0  0  0
  5 27  1  0  0  0  0
  6 18  2  0  0  0  0
  6 28  1  0  0  0  0
  7 24  1  6  0  0  0
  7 17  1  0  0  0  0
  9 26  1  0  0  0  0
 11  3  1  0  0  0  0
 12 13  1  0  0  0  0
 12  8  1  1  0  0  0
 13 11  1  1  0  0  0
 14 23  1  1  0  0  0
 14 22  1  0  0  0  0
 15  9  2  0  0  0  0
 16  1  1  0  0  0  0
 17  8  1  1  0  0  0
 17 10  1  0  0  0  0
 18 15  1  0  0  0  0
 19 16  1  0  0  0  0
 19  7  1  0  0  0  0
 20 10  1  0  0  0  0
 20 29  1  1  0  0  0
 21  4  1  0  0  0  0
 22 21  1  1  0  0  0
 22 13  1  0  0  0  0
 27 14  1  0  0  0  0
 27  2  1  0  0  0  0
 28  9  1  0  0  0  0
 28 23  1  0  0  0  0
 29 30  1  0  0  0  0
 30 32  1  0  0  0  0
 31 30  2  0  0  0  0
M  END
>  <MODEL>
3

>  <REMARK>
 VINA RESULT:      -8.5      2.086      4.808
  Name = 
  2 active torsions:
  status: ('A' for Active; 'I' for Inactive)
    1  A    between atoms: C_20  and  C_29
    2  A    between atoms: C_29  and  C_30
                            x       y       z     vdW  Elec       q    Type
                         _______ _______ _______ _____ _____    ______ ____

>  <TORSDO>
F 2

$$$$
=
 OpenBabel11112416303D

 32 37  0  0  1  0  0  0  0  0999 V2000
  186.0500  177.7580  146.1150 C   0  0  0  0  0  2  0  0  0  0  0  0
  190.2660  174.8090  143.9980 C   0  0  1  0  0  3  0  0  0  0  0  0
  188.5420  172.7720  139.7730 C   0  0  0  0  0  2  0  0  0  0  0  0
  190.0230  172.4050  139.6360 C   0  0  0  0  0  2  0  0  0  0  0  0
  192.5230  173.9130  144.9820 C   0  0  1  0  0  3  0  0  0  0  0  0
  193.4340  174.6930  144.0920 C   0  0  0  0  0  0  0  0  0  0  0  0
  188.9710  176.6450  145.1220 C   0  0  1  0  0  3  0  0  0  0  0  0
  188.3720  175.6990  142.8810 C   0  0  0  0  0  2  0  0  0  0  0  0
  194.3480  175.4550  142.1940 C   0  0  0  0  0  0  0  0  0  0  0  0
  187.0070  177.5860  143.7420 C   0  0  0  0  0  2  0  0  0  0  0  0
  188.1890  173.4150  141.1230 C   0  0  0  0  0  2  0  0  0  0  0  0
  189.0650  174.4470  143.2060 N   0  0  1  0  0  0  0  0  0  0  0  0
  189.4350  173.8180  141.9270 C   0  0  1  0  0  3  0  0  0  0  0  0
  191.5660  172.9210  142.8880 C   0  0  1  0  0  3  0  0  0  0  0  0
  194.3120  176.4100  143.0620 N   0  0  0  0  0  0  0  0  0  0  0  0
  187.0610  176.8410  146.8230 C   0  0  0  0  0  2  0  0  0  0  0  0
  187.8170  176.3490  144.1410 C   0  0  2  0  0  3  0  0  0  0  0  0
  193.7070  175.9480  144.2320 N   0  0  0  0  0  0  0  0  0  0  0  0
  188.5190  177.1770  146.4920 C   0  0  0  0  0  2  0  0  0  0  0  0
  186.6160  178.5090  144.9040 C   0  0  1  0  0  3  0  0  0  0  0  0
  190.5410  171.7240  140.9020 C   0  0  0  0  0  2  0  0  0  0  0  0
  190.2790  172.5580  142.1680 C   0  0  2  0  0  3  0  0  0  0  0  0
  192.4660  173.8310  142.0140 C   0  0  0  0  0  2  0  0  0  0  0  0
  189.8020  175.3860  145.3380 C   0  0  0  0  0  2  0  0  0  0  0  0
  192.3240  174.5560  146.2720 N   0  0  0  0  0  1  0  0  0  0  0  0
  194.9400  175.6160  140.8390 C   0  0  0  0  0  1  0  0  0  0  0  0
  191.2060  173.5920  144.2340 C   0  0  2  0  0  3  0  0  0  0  0  0
  193.7680  174.1910  142.7330 C   0  0  2  0  0  3  0  0  0  0  0  0
  185.6100  179.5470  144.4380 C   0  0  0  0  0  2  0  0  0  0  0  0
  184.2430  178.9600  144.3490 C   0  0  0  0  0  0  0  0  0  0  0  0
  183.8440  178.3020  143.1930 O   0  0  0  0  0  0  0  0  0  0  0  0
  183.4600  179.0350  145.3310 O   0  0  0  0  0  1  0  0  0  0  0  0
  1 16  1  0  0  0  0
  2 27  1  0  0  0  0
  2 24  1  1  0  0  0
  3 11  1  0  0  0  0
  4  3  1  0  0  0  0
  4 21  1  0  0  0  0
  5 25  1  1  0  0  0
  6 18  2  0  0  0  0
  6  5  1  0  0  0  0
  7 24  1  1  0  0  0
  7 19  1  0  0  0  0
  9 28  1  0  0  0  0
  9 15  2  0  0  0  0
 10 17  1  0  0  0  0
 10 20  1  0  0  0  0
 12  8  1  6  0  0  0
 12  2  1  0  0  0  0
 13 11  1  1  0  0  0
 13 22  1  0  0  0  0
 13 12  1  0  0  0  0
 14 23  1  6  0  0  0
 14 27  1  0  0  0  0
 15 18  1  0  0  0  0
 17  8  1  6  0  0  0
 17  7  1  0  0  0  0
 19 16  1  0  0  0  0
 20 29  1  6  0  0  0
 20  1  1  0  0  0  0
 22 21  1  6  0  0  0
 22 14  1  0  0  0  0
 23 28  1  0  0  0  0
 26  9  1  0  0  0  0
 27  5  1  0  0  0  0
 28  6  1  0  0  0  0
 30 29  1  0  0  0  0
 30 32  1  0  0  0  0
 31 30  2  0  0  0  0
M  END
>  <MODEL>
4

>  <REMARK>
 VINA RESULT:      -8.3      1.464      1.949
  Name = 
  2 active torsions:
  status: ('A' for Active; 'I' for Inactive)
    1  A    between atoms: C_20  and  C_29
    2  A    between atoms: C_29  and  C_30
                            x       y       z     vdW  Elec       q    Type
                         _______ _______ _______ _____ _____    ______ ____

>  <TORSDO>
F 2

$$$$
=
 OpenBabel11112416303D

 32 37  0  0  1  0  0  0  0  0999 V2000
  186.4750  177.3080  145.3280 C   0  0  0  0  0  2  0  0  0  0  0  0
  191.3540  174.6900  144.7820 C   0  0  1  0  0  3  0  0  0  0  0  0
  190.4410  170.6320  142.0130 C   0  0  0  0  0  2  0  0  0  0  0  0
  191.9710  170.5670  142.0460 C   0  0  0  0  0  2  0  0  0  0  0  0
  193.6440  174.8480  146.0440 C   0  0  1  0  0  3  0  0  0  0  0  0
  194.4630  175.3070  144.8830 C   0  0  0  0  0  0  0  0  0  0  0  0
  189.6330  176.5150  144.9350 C   0  0  1  0  0  3  0  0  0  0  0  0
  189.4310  174.5450  143.4000 C   0  0  0  0  0  2  0  0  0  0  0  0
  195.3790  175.2920  142.8380 C   0  0  0  0  0  0  0  0  0  0  0  0
  187.6550  176.2770  143.2980 C   0  0  0  0  0  2  0  0  0  0  0  0
  189.8510  171.7300  142.9120 C   0  0  0  0  0  2  0  0  0  0  0  0
  190.3220  173.7600  144.2630 N   0  0  1  0  0  0  0  0  0  0  0  0
  190.9180  172.7110  143.4210 C   0  0  1  0  0  3  0  0  0  0  0  0
  193.0890  172.8300  144.6650 C   0  0  1  0  0  3  0  0  0  0  0  0
  195.0810  176.5060  143.1610 N   0  0  0  0  0  0  0  0  0  0  0  0
  187.5770  177.0560  146.3700 C   0  0  0  0  0  2  0  0  0  0  0  0
  188.6500  175.5650  144.2180 C   0  0  2  0  0  3  0  0  0  0  0  0
  194.4740  176.5140  144.4190 N   0  0  0  0  0  0  0  0  0  0  0  0
  188.9660  177.5050  145.9040 C   0  0  0  0  0  2  0  0  0  0  0  0
  186.9910  177.5230  143.9010 C   0  0  1  0  0  3  0  0  0  0  0  0
  192.4960  170.6700  143.4770 C   0  0  0  0  0  2  0  0  0  0  0  0
  191.9660  171.9130  144.2120 C   0  0  2  0  0  3  0  0  0  0  0  0
  193.8700  173.4070  143.4570 C   0  0  0  0  0  2  0  0  0  0  0  0
  190.6690  175.7040  145.7030 C   0  0  0  0  0  2  0  0  0  0  0  0
  193.2100  175.9510  146.8880 N   0  0  0  0  0  1  0  0  0  0  0  0
  196.0460  174.9370  141.5580 C   0  0  0  0  0  1  0  0  0  0  0  0
  192.4870  173.9480  145.5470 C   0  0  2  0  0  3  0  0  0  0  0  0
  195.0080  174.3230  143.9110 C   0  0  2  0  0  3  0  0  0  0  0  0
  185.8490  177.9920  143.0160 C   0  0  0  0  0  2  0  0  0  0  0  0
  185.0640  179.0670  143.6870 C   0  0  0  0  0  0  0  0  0  0  0  0
  183.7380  178.8460  144.0350 O   0  0  0  0  0  1  0  0  0  0  0  0
  185.6110  180.1670  143.9640 O   0  0  0  0  0  0  0  0  0  0  0  0
  1 16  1  0  0  0  0
  2 27  1  0  0  0  0
  2 24  1  1  0  0  0
  3  4  1  0  0  0  0
  3 11  1  0  0  0  0
  4 21  1  0  0  0  0
  5 25  1  6  0  0  0
  6  5  1  0  0  0  0
  7 24  1  1  0  0  0
  7 19  1  0  0  0  0
  8 17  1  0  0  0  0
  9 15  2  0  0  0  0
  9 28  1  0  0  0  0
 10 20  1  0  0  0  0
 12  8  1  6  0  0  0
 12  2  1  0  0  0  0
 13 11  1  1  0  0  0
 13 22  1  0  0  0  0
 13 12  1  0  0  0  0
 14 23  1  6  0  0  0
 14 27  1  0  0  0  0
 15 18  1  0  0  0  0
 17 10  1  6  0  0  0
 17  7  1  0  0  0  0
 18  6  2  0  0  0  0
 19 16  1  0  0  0  0
 20 29  1  6  0  0  0
 20  1  1  0  0  0  0
 22 21  1  6  0  0  0
 22 14  1  0  0  0  0
 23 28  1  0  0  0  0
 26  9  1  0  0  0  0
 27  5  1  0  0  0  0
 28  6  1  0  0  0  0
 29 30  1  0  0  0  0
 30 32  2  0  0  0  0
 30 31  1  0  0  0  0
M  END
>  <MODEL>
5

>  <REMARK>
 VINA RESULT:      -8.2      1.490      1.892
  Name = 
  2 active torsions:
  status: ('A' for Active; 'I' for Inactive)
    1  A    between atoms: C_20  and  C_29
    2  A    between atoms: C_29  and  C_30
                            x       y       z     vdW  Elec       q    Type
                         _______ _______ _______ _____ _____    ______ ____

>  <TORSDO>
F 2

$$$$
=
 OpenBabel11112416303D

 32 37  0  0  1  0  0  0  0  0999 V2000
  187.3220  178.0110  144.9910 C   0  0  0  0  0  2  0  0  0  0  0  0
  191.1520  174.5690  142.8840 C   0  0  1  0  0  3  0  0  0  0  0  0
  195.1650  174.9980  145.8310 C   0  0  0  0  0  2  0  0  0  0  0  0
  195.6150  173.8100  144.9750 C   0  0  0  0  0  2  0  0  0  0  0  0
  191.4240  173.3580  140.5770 C   0  0  1  0  0  3  0  0  0  0  0  0
  191.3450  171.9580  141.0930 C   0  0  0  0  0  0  0  0  0  0  0  0
  188.9430  175.5050  143.6320 C   0  0  1  0  0  3  0  0  0  0  0  0
  190.9780  175.4190  145.0920 C   0  0  0  0  0  2  0  0  0  0  0  0
  191.8610  170.1520  142.3130 C   0  0  0  0  0  0  0  0  0  0  0  0
  188.8760  176.2910  146.0860 C   0  0  0  0  0  2  0  0  0  0  0  0
  193.8450  175.6310  145.3620 C   0  0  0  0  0  2  0  0  0  0  0  0
  191.8450  175.3870  143.9080 N   0  0  1  0  0  0  0  0  0  0  0  0
  193.1120  174.7650  144.3250 C   0  0  1  0  0  3  0  0  0  0  0  0
  193.3940  173.6510  142.0990 C   0  0  1  0  0  3  0  0  0  0  0  0
  190.5790  170.2130  142.1660 N   0  0  0  0  0  0  0  0  0  0  0  0
  187.7100  177.7520  143.5260 C   0  0  0  0  0  2  0  0  0  0  0  0
  189.6940  176.1840  144.7960 C   0  0  2  0  0  3  0  0  0  0  0  0
  190.2530  171.3600  141.4390 N   0  0  0  0  0  0  0  0  0  0  0  0
  187.6980  176.2670  143.1490 C   0  0  0  0  0  2  0  0  0  0  0  0
  187.4340  176.7840  145.9020 C   0  0  1  0  0  3  0  0  0  0  0  0
  195.4650  174.1160  143.4850 C   0  0  0  0  0  2  0  0  0  0  0  0
  194.0420  174.5730  143.1180 C   0  0  2  0  0  3  0  0  0  0  0  0
  193.1990  172.2250  142.6710 C   0  0  0  0  0  2  0  0  0  0  0  0
  189.8850  175.3130  142.4500 C   0  0  0  0  0  2  0  0  0  0  0  0
  190.1470  173.8340  140.0700 N   0  0  0  0  0  1  0  0  0  0  0  0
  192.5390  169.0430  143.0370 C   0  0  0  0  0  1  0  0  0  0  0  0
  192.0530  174.2780  141.6500 C   0  0  2  0  0  3  0  0  0  0  0  0
  192.5540  171.2910  141.6440 C   0  0  2  0  0  3  0  0  0  0  0  0
  186.8070  177.0970  147.2500 C   0  0  0  0  0  2  0  0  0  0  0  0
  185.4990  177.7910  147.0790 C   0  0  0  0  0  0  0  0  0  0  0  0
  184.4610  177.1630  146.4030 O   0  0  0  0  0  0  0  0  0  0  0  0
  185.3250  178.9360  147.5720 O   0  0  0  0  0  1  0  0  0  0  0  0
  1 20  1  0  0  0  0
  2 24  1  6  0  0  0
  2 12  1  0  0  0  0
  4  3  1  0  0  0  0
  5 25  1  1  0  0  0
  5  6  1  0  0  0  0
  5 27  1  0  0  0  0
  6 18  2  0  0  0  0
  6 28  1  0  0  0  0
  7 24  1  6  0  0  0
  7 17  1  0  0  0  0
  9 26  1  0  0  0  0
 11  3  1  0  0  0  0
 12 13  1  0  0  0  0
 12  8  1  1  0  0  0
 13 11  1  1  0  0  0
 14 23  1  1  0  0  0
 14 22  1  0  0  0  0
 15  9  2  0  0  0  0
 16  1  1  0  0  0  0
 17  8  1  1  0  0  0
 17 10  1  0  0  0  0
 18 15  1  0  0  0  0
 19 16  1  0  0  0  0
 19  7  1  0  0  0  0
 20 10  1  0  0  0  0
 20 29  1  1  0  0  0
 21  4  1  0  0  0  0
 22 21  1  1  0  0  0
 22 13  1  0  0  0  0
 27 14  1  0  0  0  0
 27  2  1  0  0  0  0
 28  9  1  0  0  0  0
 28 23  1  0  0  0  0
 30 29  1  0  0  0  0
 30 32  1  0  0  0  0
 31 30  2  0  0  0  0
M  END
>  <MODEL>
6

>  <REMARK>
 VINA RESULT:      -7.8      2.256      5.089
  Name = 
  2 active torsions:
  status: ('A' for Active; 'I' for Inactive)
    1  A    between atoms: C_20  and  C_29
    2  A    between atoms: C_29  and  C_30
                            x       y       z     vdW  Elec       q    Type
                         _______ _______ _______ _____ _____    ______ ____

>  <TORSDO>
F 2

$$$$
=
 OpenBabel11112416303D

 32 37  0  0  1  0  0  0  0  0999 V2000
  191.3540  172.5150  139.0010 C   0  0  0  0  0  2  0  0  0  0  0  0
  189.3800  176.1300  142.7400 C   0  0  1  0  0  3  0  0  0  0  0  0
  185.0810  177.8500  140.8610 C   0  0  0  0  0  2  0  0  0  0  0  0
  184.9970  178.4610  142.2630 C   0  0  0  0  0  2  0  0  0  0  0  0
  190.4430  177.3920  144.7750 C   0  0  1  0  0  3  0  0  0  0  0  0
  189.5930  176.7760  145.8370 C   0  0  0  0  0  0  0  0  0  0  0  0
  190.4660  174.1020  141.7290 C   0  0  1  0  0  3  0  0  0  0  0  0
  188.1980  174.9350  141.0660 C   0  0  0  0  0  2  0  0  0  0  0  0
  187.7360  176.1790  146.9390 C   0  0  0  0  0  0  0  0  0  0  0  0
  189.0190  172.8460  140.0050 C   0  0  0  0  0  2  0  0  0  0  0  0
  186.4210  177.1560  140.5700 C   0  0  0  0  0  2  0  0  0  0  0  0
  188.5410  176.2860  141.5270 N   0  0  1  0  0  0  0  0  0  0  0  0
  187.2740  176.9680  141.8340 C   0  0  1  0  0  3  0  0  0  0  0  0
  188.3090  178.2100  143.7460 C   0  0  1  0  0  3  0  0  0  0  0  0
  188.6070  175.2310  147.0300 N   0  0  0  0  0  0  0  0  0  0  0  0
  192.0950  173.5870  139.8160 C   0  0  0  0  0  2  0  0  0  0  0  0
  189.4410  174.2000  140.5800 C   0  0  2  0  0  3  0  0  0  0  0  0
  189.7510  175.5850  146.3110 N   0  0  0  0  0  0  0  0  0  0  0  0
  191.8210  173.5010  141.3210 C   0  0  0  0  0  2  0  0  0  0  0  0
  190.1710  171.8700  139.7300 C   0  0  1  0  0  3  0  0  0  0  0  0
  186.2780  179.2180  142.6120 C   0  0  0  0  0  2  0  0  0  0  0  0
  187.5390  178.3510  142.4450 C   0  0  2  0  0  3  0  0  0  0  0  0
  187.4750  177.4640  144.8180 C   0  0  0  0  0  2  0  0  0  0  0  0
  190.7060  175.4820  142.3280 C   0  0  0  0  0  2  0  0  0  0  0  0
  191.7280  176.7240  144.6380 N   0  0  0  0  0  1  0  0  0  0  0  0
  186.4050  176.1200  147.6000 C   0  0  0  0  0  1  0  0  0  0  0  0
  189.6440  177.4870  143.4530 C   0  0  2  0  0  3  0  0  0  0  0  0
  188.2440  177.3280  146.1340 C   0  0  2  0  0  3  0  0  0  0  0  0
  189.6740  170.6770  138.9320 C   0  0  0  0  0  2  0  0  0  0  0  0
  190.5100  169.4730  139.1990 C   0  0  0  0  0  0  0  0  0  0  0  0
  191.0140  169.2450  140.4730 O   0  0  0  0  0  1  0  0  0  0  0  0
  190.7360  168.6460  138.2770 O   0  0  0  0  0  0  0  0  0  0  0  0
  1 20  1  0  0  0  0
  1 16  1  0  0  0  0
  2 24  1  6  0  0  0
  2 27  1  0  0  0  0
  3  4  1  0  0  0  0
  4 21  1  0  0  0  0
  5 25  1  6  0  0  0
  5  6  1  0  0  0  0
  6 28  1  0  0  0  0
  6 18  2  0  0  0  0
  7 19  1  6  0  0  0
  7 24  1  0  0  0  0
  9 15  2  0  0  0  0
  9 26  1  0  0  0  0
 11  3  1  0  0  0  0
 12  8  1  1  0  0  0
 12 13  1  0  0  0  0
 12  2  1  0  0  0  0
 13 11  1  6  0  0  0
 13 22  1  0  0  0  0
 14 23  1  1  0  0  0
 16 19  1  0  0  0  0
 17 10  1  1  0  0  0
 17  8  1  0  0  0  0
 17  7  1  0  0  0  0
 18 15  1  0  0  0  0
 20 29  1  6  0  0  0
 20 10  1  0  0  0  0
 22 21  1  1  0  0  0
 22 14  1  0  0  0  0
 23 28  1  0  0  0  0
 27 14  1  0  0  0  0
 27  5  1  0  0  0  0
 28  9  1  0  0  0  0
 29 30  1  0  0  0  0
 30 31  1  0  0  0  0
 32 30  2  0  0  0  0
M  END
>  <MODEL>
7

>  <REMARK>
 VINA RESULT:      -7.5      3.727      7.303
  Name = 
  2 active torsions:
  status: ('A' for Active; 'I' for Inactive)
    1  A    between atoms: C_20  and  C_29
    2  A    between atoms: C_29  and  C_30
                            x       y       z     vdW  Elec       q    Type
                         _______ _______ _______ _____ _____    ______ ____

>  <TORSDO>
F 2

$$$$
=
 OpenBabel11112416303D

 32 37  0  0  1  0  0  0  0  0999 V2000
  187.2920  176.9290  145.6190 C   0  0  0  0  0  2  0  0  0  0  0  0
  191.8740  174.5380  143.5590 C   0  0  1  0  0  3  0  0  0  0  0  0
  190.4950  172.3750  139.2710 C   0  0  0  0  0  2  0  0  0  0  0  0
  192.0110  172.1900  139.1630 C   0  0  0  0  0  2  0  0  0  0  0  0
  194.2010  173.9040  144.5820 C   0  0  1  0  0  3  0  0  0  0  0  0
  195.0310  174.8010  143.7220 C   0  0  0  0  0  0  0  0  0  0  0  0
  190.3450  176.1890  144.6780 C   0  0  1  0  0  3  0  0  0  0  0  0
  189.9110  175.2130  142.4120 C   0  0  0  0  0  2  0  0  0  0  0  0
  195.8860  175.6960  141.8560 C   0  0  0  0  0  0  0  0  0  0  0  0
  188.3110  176.9090  143.2660 C   0  0  0  0  0  2  0  0  0  0  0  0
  190.0390  172.9500  140.6210 C   0  0  0  0  0  2  0  0  0  0  0  0
  190.7420  174.0480  142.7360 N   0  0  1  0  0  0  0  0  0  0  0  0
  191.2110  173.4870  141.4580 C   0  0  1  0  0  3  0  0  0  0  0  0
  193.4140  172.8370  142.4550 C   0  0  1  0  0  3  0  0  0  0  0  0
  195.7170  176.6270  142.7350 N   0  0  0  0  0  0  0  0  0  0  0  0
  188.3910  176.1290  146.3380 C   0  0  0  0  0  2  0  0  0  0  0  0
  189.2560  175.7720  143.6680 C   0  0  2  0  0  3  0  0  0  0  0  0
  195.1480  176.0770  143.8850 N   0  0  0  0  0  0  0  0  0  0  0  0
  189.8040  176.6420  146.0440 C   0  0  0  0  0  2  0  0  0  0  0  0
  187.7890  177.7610  144.4310 C   0  0  1  0  0  3  0  0  0  0  0  0
  192.5810  171.5570  140.4310 C   0  0  0  0  0  2  0  0  0  0  0  0
  192.1950  172.3340  141.7020 C   0  0  2  0  0  3  0  0  0  0  0  0
  194.2160  173.8610  141.6130 C   0  0  0  0  0  2  0  0  0  0  0  0
  191.3160  175.0360  144.8960 C   0  0  0  0  0  2  0  0  0  0  0  0
  193.9000  174.4990  145.8750 N   0  0  0  0  0  1  0  0  0  0  0  0
  196.4820  175.9470  140.5160 C   0  0  0  0  0  1  0  0  0  0  0  0
  192.9480  173.4390  143.8010 C   0  0  2  0  0  3  0  0  0  0  0  0
  195.4510  174.3630  142.3650 C   0  0  2  0  0  3  0  0  0  0  0  0
  186.6760  178.6780  143.9560 C   0  0  0  0  0  2  0  0  0  0  0  0
  185.3880  177.9360  143.8400 C   0  0  0  0  0  0  0  0  0  0  0  0
  184.4270  178.0520  144.8360 O   0  0  0  0  0  1  0  0  0  0  0  0
  185.1590  177.2270  142.8260 O   0  0  0  0  0  0  0  0  0  0  0  0
  1 16  1  0  0  0  0
  2 27  1  0  0  0  0
  2 24  1  1  0  0  0
  3 11  1  0  0  0  0
  4  3  1  0  0  0  0
  4 21  1  0  0  0  0
  5 25  1  1  0  0  0
  6 18  2  0  0  0  0
  6  5  1  0  0  0  0
  7 24  1  1  0  0  0
  7 19  1  0  0  0  0
  9 28  1  0  0  0  0
  9 15  2  0  0  0  0
 10 17  1  0  0  0  0
 10 20  1  0  0  0  0
 12  8  1  6  0  0  0
 12  2  1  0  0  0  0
 13 11  1  1  0  0  0
 13 22  1  0  0  0  0
 13 12  1  0  0  0  0
 14 23  1  6  0  0  0
 14 27  1  0  0  0  0
 15 18  1  0  0  0  0
 17  8  1  6  0  0  0
 17  7  1  0  0  0  0
 19 16  1  0  0  0  0
 20 29  1  6  0  0  0
 20  1  1  0  0  0  0
 22 21  1  6  0  0  0
 22 14  1  0  0  0  0
 23 28  1  0  0  0  0
 26  9  1  0  0  0  0
 27  5  1  0  0  0  0
 28  6  1  0  0  0  0
 30 29  1  0  0  0  0
 30 31  1  0  0  0  0
 32 30  2  0  0  0  0
M  END
>  <MODEL>
8

>  <REMARK>
 VINA RESULT:      -7.2      1.766      2.544
  Name = 
  2 active torsions:
  status: ('A' for Active; 'I' for Inactive)
    1  A    between atoms: C_20  and  C_29
    2  A    between atoms: C_29  and  C_30
                            x       y       z     vdW  Elec       q    Type
                         _______ _______ _______ _____ _____    ______ ____

>  <TORSDO>
F 2

$$$$
=
 OpenBabel11112416303D

 32 37  0  0  1  0  0  0  0  0999 V2000
  195.6400  173.7980  141.4370 C   0  0  0  0  0  2  0  0  0  0  0  0
  190.4270  174.8480  143.0740 C   0  0  1  0  0  3  0  0  0  0  0  0
  190.7910  176.8750  147.6270 C   0  0  0  0  0  2  0  0  0  0  0  0
  189.2970  177.1010  147.3760 C   0  0  0  0  0  2  0  0  0  0  0  0
  188.0740  174.0340  142.2570 C   0  0  1  0  0  3  0  0  0  0  0  0
  187.5540  175.3690  141.8370 C   0  0  0  0  0  0  0  0  0  0  0  0
  192.4740  174.6300  141.6330 C   0  0  1  0  0  3  0  0  0  0  0  0
  192.4450  175.8430  143.8250 C   0  0  0  0  0  2  0  0  0  0  0  0
  186.9590  177.5230  141.9990 C   0  0  0  0  0  0  0  0  0  0  0  0
  194.5600  175.8540  142.5240 C   0  0  0  0  0  2  0  0  0  0  0  0
  191.4780  176.0340  146.5390 C   0  0  0  0  0  2  0  0  0  0  0  0
  191.2870  175.0550  144.2640 N   0  0  1  0  0  0  0  0  0  0  0  0
  190.5970  175.8480  145.2940 C   0  0  1  0  0  3  0  0  0  0  0  0
  188.3540  175.0270  144.5420 C   0  0  1  0  0  3  0  0  0  0  0  0
  187.4730  177.3110  140.8330 N   0  0  0  0  0  0  0  0  0  0  0  0
  194.3730  172.9400  141.2900 C   0  0  0  0  0  2  0  0  0  0  0  0
  193.3100  175.0380  142.8630 C   0  0  2  0  0  3  0  0  0  0  0  0
  187.8800  175.9780  140.7440 N   0  0  0  0  0  0  0  0  0  0  0  0
  193.2010  173.6940  140.6530 C   0  0  0  0  0  2  0  0  0  0  0  0
  195.3940  175.3090  141.3570 C   0  0  1  0  0  3  0  0  0  0  0  0
  188.6090  175.8080  146.9400 C   0  0  0  0  0  2  0  0  0  0  0  0
  189.2950  175.1570  145.7260 C   0  0  2  0  0  3  0  0  0  0  0  0
  187.9030  176.4150  144.0230 C   0  0  0  0  0  2  0  0  0  0  0  0
  191.1830  173.9570  142.0830 C   0  0  0  0  0  2  0  0  0  0  0  0
  188.6200  173.2750  141.1420 N   0  0  0  0  0  1  0  0  0  0  0  0
  186.4190  178.8450  142.4150 C   0  0  0  0  0  1  0  0  0  0  0  0
  189.0590  174.2030  143.4390 C   0  0  2  0  0  3  0  0  0  0  0  0
  186.9460  176.2880  142.8350 C   0  0  2  0  0  3  0  0  0  0  0  0
  196.7270  176.0340  141.2770 C   0  0  0  0  0  2  0  0  0  0  0  0
  197.3200  176.2070  142.6330 C   0  0  0  0  0  0  0  0  0  0  0  0
  197.9400  175.1360  143.2630 O   0  0  0  0  0  1  0  0  0  0  0  0
  197.2860  177.3320  143.1960 O   0  0  0  0  0  0  0  0  0  0  0  0
  2 24  1  6  0  0  0
  2 27  1  0  0  0  0
  2 12  1  0  0  0  0
  4  3  1  0  0  0  0
  5 25  1  6  0  0  0
  5 27  1  0  0  0  0
  6  5  1  0  0  0  0
  6 28  1  0  0  0  0
  7 19  1  6  0  0  0
  7 24  1  0  0  0  0
  7 17  1  0  0  0  0
  9 26  1  0  0  0  0
  9 28  1  0  0  0  0
 11  3  1  0  0  0  0
 12  8  1  6  0  0  0
 12 13  1  0  0  0  0
 13 22  1  0  0  0  0
 13 11  1  1  0  0  0
 14 23  1  6  0  0  0
 14 22  1  0  0  0  0
 15  9  2  0  0  0  0
 16  1  1  0  0  0  0
 17 10  1  6  0  0  0
 17  8  1  0  0  0  0
 18 15  1  0  0  0  0
 18  6  2  0  0  0  0
 19 16  1  0  0  0  0
 20 29  1  1  0  0  0
 20  1  1  0  0  0  0
 20 10  1  0  0  0  0
 21  4  1  0  0  0  0
 22 21  1  1  0  0  0
 27 14  1  0  0  0  0
 28 23  1  0  0  0  0
 29 30  1  0  0  0  0
 30 32  2  0  0  0  0
 30 31  1  0  0  0  0
M  END
>  <MODEL>
9

>  <REMARK>
 VINA RESULT:      -7.2      3.806      8.042
  Name = 
  2 active torsions:
  status: ('A' for Active; 'I' for Inactive)
    1  A    between atoms: C_20  and  C_29
    2  A    between atoms: C_29  and  C_30
                            x       y       z     vdW  Elec       q    Type
                         _______ _______ _______ _____ _____    ______ ____

>  <TORSDO>
F 2

$$$$
