=
 OpenBabel11112417323D

 37 43  0  0  1  0  0  0  0  0999 V2000
  194.0210  175.6610  145.6280 C   0  0  1  0  0  0  0  0  0  0  0  0
  190.2760  175.5170  145.2230 C   0  0  1  0  0  3  0  0  0  0  0  0
  188.7320  174.1640  142.6990 O   0  0  0  0  0  0  0  0  0  0  0  0
  192.1880  175.2910  146.9860 C   0  0  2  0  0  3  0  0  0  0  0  0
  190.4950  175.4850  143.7070 C   0  0  2  0  0  3  0  0  0  0  0  0
  191.4320  174.6780  145.8010 C   0  0  2  0  0  3  0  0  0  0  0  0
  189.1950  175.4770  142.8780 C   0  0  2  0  0  3  0  0  0  0  0  0
  191.1890  175.9390  147.9300 C   0  0  0  0  0  2  0  0  0  0  0  0
  192.3750  174.3390  144.6520 C   0  0  2  0  0  3  0  0  0  0  0  0
  194.6580  174.5140  146.1310 O   0  0  0  0  0  1  0  0  0  0  0  0
  188.9350  177.6760  145.3940 C   0  0  0  0  0  2  0  0  0  0  0  0
  190.4230  177.0870  147.2630 C   0  0  0  0  0  2  0  0  0  0  0  0
  193.3120  175.3780  144.4390 O   0  0  0  0  0  0  0  0  0  0  0  0
  189.9740  174.0770  140.5680 C   0  0  0  0  0  2  0  0  0  0  0  0
  188.6380  173.9420  141.3100 C   0  0  0  0  0  2  0  0  0  0  0  0
  190.2450  176.9710  145.7390 C   0  0  1  0  0  3  0  0  0  0  0  0
  191.4120  174.2820  143.4760 C   0  0  2  0  0  3  0  0  0  0  0  0
  193.1580  176.2350  146.5880 O   0  0  0  0  0  0  0  0  0  0  0  0
  188.0890  176.4050  143.4290 C   0  0  1  0  0  3  0  0  0  0  0  0
  194.9990  176.5890  145.3260 F   0  0  0  0  0  0  0  0  0  0  0  0
  191.0720  173.2670  141.2310 C   0  0  0  0  0  2  0  0  0  0  0  0
  191.9980  174.1640  142.0520 C   0  0  2  0  0  3  0  0  0  0  0  0
  188.6540  177.7390  143.9000 C   0  0  0  0  0  2  0  0  0  0  0  0
  187.4060  177.4990  141.2560 C   0  0  0  0  0  2  0  0  0  0  0  0
  186.9470  176.6630  142.4400 C   0  0  2  0  0  3  0  0  0  0  0  0
  185.7070  177.2740  143.1040 C   0  0  0  0  0  2  0  0  0  0  0  0
  183.4700  178.3080  142.5910 N   0  0  0  0  0  1  0  0  0  0  0  0
  185.0270  178.0040  140.8590 N   0  0  0  0  0  0  0  0  0  0  0  0
  184.7200  177.8300  142.1110 C   0  0  0  0  0  0  0  0  0  0  0  0
  186.2720  177.5410  140.2430 C   0  0  0  0  0  2  0  0  0  0  0  0
  193.3920  173.5160  142.0290 C   0  0  1  0  0  3  0  0  0  0  0  0
  194.1780  173.6830  140.7160 C   0  0  2  0  0  3  0  0  0  0  0  0
  194.4770  174.5700  141.9030 C   0  0  2  0  0  3  0  0  0  0  0  0
  195.7330  174.0740  142.5910 C   0  0  0  0  0  2  0  0  0  0  0  0
  196.3990  175.1430  143.1590 F   0  0  0  0  0  0  0  0  0  0  0  0
  194.4540  175.2910  138.9800 O   0  0  0  0  0  1  0  0  0  0  0  0
  193.4990  174.5230  139.6420 C   0  0  0  0  0  2  0  0  0  0  0  0
  1 20  1  6  0  0  0
  1 10  1  0  0  0  0
  1 18  1  0  0  0  0
  2 16  1  0  0  0  0
  2  6  1  0  0  0  0
  3  7  1  0  0  0  0
  4  8  1  0  0  0  0
  5  2  1  0  0  0  0
  6  4  1  0  0  0  0
  7 19  1  0  0  0  0
  7  5  1  0  0  0  0
  9  6  1  0  0  0  0
 11 16  1  0  0  0  0
 12  8  1  0  0  0  0
 13  9  1  0  0  0  0
 13  1  1  0  0  0  0
 14 21  1  0  0  0  0
 14 15  1  0  0  0  0
 15  3  1  0  0  0  0
 16 12  1  0  0  0  0
 17  5  1  0  0  0  0
 17  9  1  0  0  0  0
 18  4  1  0  0  0  0
 19 23  1  0  0  0  0
 21 22  1  0  0  0  0
 22 17  1  0  0  0  0
 23 11  1  0  0  0  0
 24 25  1  0  0  0  0
 25 26  1  0  0  0  0
 25 19  1  0  0  0  0
 28 29  2  0  0  0  0
 29 27  1  0  0  0  0
 29 26  1  0  0  0  0
 30 28  1  0  0  0  0
 30 24  1  0  0  0  0
 31 22  1  0  0  0  0
 32 33  1  0  0  0  0
 32 31  1  0  0  0  0
 33 31  1  0  0  0  0
 33 34  1  0  0  0  0
 34 35  1  0  0  0  0
 36 37  1  0  0  0  0
 37 32  1  0  0  0  0
M  END
>  <MODEL>
1

>  <REMARK>
 VINA RESULT:      -8.2      0.000      0.000
  Name = 
  4 active torsions:
  status: ('A' for Active; 'I' for Inactive)
    1  A    between atoms: C_1  and  C_27
    2  A    between atoms: C_4  and  C_37
    3  A    between atoms: C_8  and  C_12
    4  A    between atoms: C_23  and  C_30
                            x       y       z     vdW  Elec       q    Type
                         _______ _______ _______ _____ _____    ______ ____

>  <TORSDO>
F 4

$$$$
=
 OpenBabel11112417323D

 37 43  0  0  1  0  0  0  0  0999 V2000
  187.1540  177.1170  147.3180 C   0  0  1  0  0  0  0  0  0  0  0  0
  189.3300  176.1600  144.3920 C   0  0  1  0  0  3  0  0  0  0  0  0
  188.7340  176.9580  141.2950 O   0  0  0  0  0  0  0  0  0  0  0  0
  189.4170  176.9660  146.8740 C   0  0  2  0  0  3  0  0  0  0  0  0
  188.0800  176.2250  143.5090 C   0  0  2  0  0  3  0  0  0  0  0  0
  189.1530  177.3100  145.4030 C   0  0  2  0  0  3  0  0  0  0  0  0
  188.3220  175.8400  142.0370 C   0  0  2  0  0  3  0  0  0  0  0  0
  190.6440  176.0750  146.9620 C   0  0  0  0  0  2  0  0  0  0  0  0
  187.7550  177.8860  145.2060 C   0  0  2  0  0  3  0  0  0  0  0  0
  187.3180  178.4090  147.8450 O   0  0  0  0  0  1  0  0  0  0  0  0
  189.9370  173.7090  144.0580 C   0  0  0  0  0  2  0  0  0  0  0  0
  190.4450  174.7400  146.2330 C   0  0  0  0  0  2  0  0  0  0  0  0
  186.7960  177.1600  145.9510 O   0  0  0  0  0  0  0  0  0  0  0  0
  186.3730  177.3600  140.6970 C   0  0  0  0  0  2  0  0  0  0  0  0
  187.8160  177.1160  140.2360 C   0  0  0  0  0  2  0  0  0  0  0  0
  189.4640  174.7700  145.0490 C   0  0  1  0  0  3  0  0  0  0  0  0
  187.5310  177.6380  143.7220 C   0  0  2  0  0  3  0  0  0  0  0  0
  188.3180  176.3360  147.4950 O   0  0  0  0  0  0  0  0  0  0  0  0
  189.2800  174.6410  141.8460 C   0  0  1  0  0  3  0  0  0  0  0  0
  186.1240  176.5070  148.0060 F   0  0  0  0  0  0  0  0  0  0  0  0
  186.2900  178.4660  141.7320 C   0  0  0  0  0  2  0  0  0  0  0  0
  186.1240  177.8930  143.1390 C   0  0  2  0  0  3  0  0  0  0  0  0
  189.0120  173.5380  142.8620 C   0  0  0  0  0  2  0  0  0  0  0  0
  188.2350  172.9200  140.3200 C   0  0  0  0  0  2  0  0  0  0  0  0
  189.2520  174.0440  140.4350 C   0  0  2  0  0  3  0  0  0  0  0  0
  190.6360  173.5940  139.9500 C   0  0  0  0  0  2  0  0  0  0  0  0
  191.7930  172.3400  138.0990 N   0  0  0  0  0  1  0  0  0  0  0  0
  189.4580  172.1980  138.3060 N   0  0  0  0  0  0  0  0  0  0  0  0
  190.5750  172.7190  138.7250 C   0  0  0  0  0  0  0  0  0  0  0  0
  188.1390  172.5220  138.8550 C   0  0  0  0  0  2  0  0  0  0  0  0
  185.3160  178.9170  143.9520 C   0  0  1  0  0  3  0  0  0  0  0  0
  183.8420  179.0770  143.5350 C   0  0  2  0  0  3  0  0  0  0  0  0
  184.2100  178.2340  144.7360 C   0  0  2  0  0  3  0  0  0  0  0  0
  183.9380  179.0230  146.0000 C   0  0  0  0  0  2  0  0  0  0  0  0
  183.9590  178.1710  147.0880 F   0  0  0  0  0  0  0  0  0  0  0  0
  182.1030  178.5540  141.9930 O   0  0  0  0  0  1  0  0  0  0  0  0
  183.3660  178.1530  142.4220 C   0  0  0  0  0  2  0  0  0  0  0  0
  1 18  1  0  0  0  0
  1 10  1  1  0  0  0
  1 20  1  0  0  0  0
  2 16  1  0  0  0  0
  2  6  1  0  0  0  0
  3  7  1  0  0  0  0
  4  8  1  0  0  0  0
  4 18  1  0  0  0  0
  5 17  1  0  0  0  0
  5  2  1  0  0  0  0
  6  4  1  0  0  0  0
  7  5  1  0  0  0  0
  9  6  1  0  0  0  0
  9 13  1  0  0  0  0
 11 16  1  0  0  0  0
 12  8  1  0  0  0  0
 13  1  1  0  0  0  0
 14 21  1  0  0  0  0
 15 14  1  0  0  0  0
 15  3  1  0  0  0  0
 16 12  1  0  0  0  0
 17  9  1  0  0  0  0
 19  7  1  0  0  0  0
 19 23  1  0  0  0  0
 21 22  1  0  0  0  0
 22 17  1  0  0  0  0
 22 31  1  0  0  0  0
 23 11  1  0  0  0  0
 24 25  1  0  0  0  0
 25 19  1  0  0  0  0
 26 25  1  0  0  0  0
 27 29  1  0  0  0  0
 28 29  2  0  0  0  0
 28 30  1  0  0  0  0
 29 26  1  0  0  0  0
 30 24  1  0  0  0  0
 31 33  1  0  0  0  0
 32 31  1  0  0  0  0
 32 33  1  0  0  0  0
 33 34  1  0  0  0  0
 34 35  1  0  0  0  0
 36 37  1  0  0  0  0
 37 32  1  0  0  0  0
M  END
>  <MODEL>
2

>  <REMARK>
 VINA RESULT:      -8.1      4.233      7.301
  Name = 
  4 active torsions:
  status: ('A' for Active; 'I' for Inactive)
    1  A    between atoms: C_1  and  C_27
    2  A    between atoms: C_4  and  C_37
    3  A    between atoms: C_8  and  C_12
    4  A    between atoms: C_23  and  C_30
                            x       y       z     vdW  Elec       q    Type
                         _______ _______ _______ _____ _____    ______ ____

>  <TORSDO>
F 4

$$$$
=
 OpenBabel11112417323D

 37 43  0  0  1  0  0  0  0  0999 V2000
  194.4870  174.6850  143.8080 C   0  0  1  0  0  0  0  0  0  0  0  0
  190.8310  175.1220  144.6170 C   0  0  1  0  0  3  0  0  0  0  0  0
  188.3790  174.1210  142.7270 O   0  0  0  0  0  0  0  0  0  0  0  0
  193.1420  174.5380  145.6820 C   0  0  2  0  0  3  0  0  0  0  0  0
  190.5520  175.1190  143.1100 C   0  0  2  0  0  3  0  0  0  0  0  0
  191.9650  174.0960  144.8040 C   0  0  2  0  0  3  0  0  0  0  0  0
  189.0730  175.3410  142.7380 C   0  0  2  0  0  3  0  0  0  0  0  0
  192.6050  175.2890  146.8880 C   0  0  0  0  0  2  0  0  0  0  0  0
  192.4320  173.6660  143.4180 C   0  0  2  0  0  3  0  0  0  0  0  0
  195.0630  173.4360  144.0920 O   0  0  0  0  0  1  0  0  0  0  0  0
  189.9640  177.4480  145.1870 C   0  0  0  0  0  2  0  0  0  0  0  0
  191.8550  176.5660  146.4900 C   0  0  0  0  0  2  0  0  0  0  0  0
  193.4030  174.5610  142.9080 O   0  0  0  0  0  0  0  0  0  0  0  0
  188.8540  173.9370  140.3120 C   0  0  0  0  0  2  0  0  0  0  0  0
  187.8170  173.9730  141.4420 C   0  0  0  0  0  2  0  0  0  0  0  0
  191.1900  176.5410  145.1040 C   0  0  1  0  0  3  0  0  0  0  0  0
  191.1500  173.8030  142.6100 C   0  0  2  0  0  3  0  0  0  0  0  0
  194.0700  175.3420  144.9870 O   0  0  0  0  0  0  0  0  0  0  0  0
  188.3550  176.4010  143.6040 C   0  0  1  0  0  3  0  0  0  0  0  0
  195.4510  175.4680  143.2030 F   0  0  0  0  0  0  0  0  0  0  0  0
  189.9660  172.9450  140.5980 C   0  0  0  0  0  2  0  0  0  0  0  0
  191.2310  173.6580  141.0740 C   0  0  2  0  0  3  0  0  0  0  0  0
  189.2400  177.6150  143.8600 C   0  0  0  0  0  2  0  0  0  0  0  0
  187.2000  177.6690  141.7490 C   0  0  0  0  0  2  0  0  0  0  0  0
  187.0140  176.8680  143.0280 C   0  0  2  0  0  3  0  0  0  0  0  0
  186.1610  177.6360  144.0450 C   0  0  0  0  0  2  0  0  0  0  0  0
  184.0680  179.0190  144.2590 N   0  0  0  0  0  1  0  0  0  0  0  0
  184.9280  178.5470  142.1240 N   0  0  0  0  0  0  0  0  0  0  0  0
  185.0100  178.3740  143.4120 C   0  0  0  0  0  0  0  0  0  0  0  0
  185.8250  177.9220  141.1490 C   0  0  0  0  0  2  0  0  0  0  0  0
  192.4280  172.8100  140.6150 C   0  0  1  0  0  3  0  0  0  0  0  0
  192.7340  172.8590  139.1070 C   0  0  2  0  0  3  0  0  0  0  0  0
  193.5410  173.6900  140.0780 C   0  0  2  0  0  3  0  0  0  0  0  0
  194.8740  173.0120  140.3260 C   0  0  0  0  0  2  0  0  0  0  0  0
  194.7410  172.0960  141.3510 F   0  0  0  0  0  0  0  0  0  0  0  0
  191.2090  173.0630  137.2870 O   0  0  0  0  0  1  0  0  0  0  0  0
  191.8550  173.7910  138.2850 C   0  0  0  0  0  2  0  0  0  0  0  0
  1 20  1  6  0  0  0
  1 10  1  0  0  0  0
  1 18  1  0  0  0  0
  2  6  1  0  0  0  0
  2 16  1  0  0  0  0
  3  7  1  0  0  0  0
  4  8  1  0  0  0  0
  5  2  1  0  0  0  0
  6  4  1  0  0  0  0
  7  5  1  0  0  0  0
  7 19  1  0  0  0  0
  9  6  1  0  0  0  0
 12  8  1  0  0  0  0
 13  9  1  0  0  0  0
 13  1  1  0  0  0  0
 14 21  1  0  0  0  0
 14 15  1  0  0  0  0
 15  3  1  0  0  0  0
 16 11  1  0  0  0  0
 16 12  1  0  0  0  0
 17  5  1  0  0  0  0
 17  9  1  0  0  0  0
 18  4  1  0  0  0  0
 19 23  1  0  0  0  0
 21 22  1  0  0  0  0
 22 17  1  0  0  0  0
 23 11  1  0  0  0  0
 24 25  1  0  0  0  0
 25 19  1  0  0  0  0
 25 26  1  0  0  0  0
 28 29  2  0  0  0  0
 29 26  1  0  0  0  0
 29 27  1  0  0  0  0
 30 24  1  0  0  0  0
 30 28  1  0  0  0  0
 31 22  1  0  0  0  0
 32 33  1  0  0  0  0
 32 31  1  0  0  0  0
 33 34  1  0  0  0  0
 33 31  1  0  0  0  0
 34 35  1  0  0  0  0
 36 37  1  0  0  0  0
 37 32  1  0  0  0  0
M  END
>  <MODEL>
3

>  <REMARK>
 VINA RESULT:      -7.4      1.514      1.784
  Name = 
  4 active torsions:
  status: ('A' for Active; 'I' for Inactive)
    1  A    between atoms: C_1  and  C_27
    2  A    between atoms: C_4  and  C_37
    3  A    between atoms: C_8  and  C_12
    4  A    between atoms: C_23  and  C_30
                            x       y       z     vdW  Elec       q    Type
                         _______ _______ _______ _____ _____    ______ ____

>  <TORSDO>
F 4

$$$$
=
 OpenBabel11112417323D

 37 43  0  0  1  0  0  0  0  0999 V2000
  193.1800  172.2530  143.0780 C   0  0  1  0  0  0  0  0  0  0  0  0
  190.4910  174.1970  141.2900 C   0  0  1  0  0  3  0  0  0  0  0  0
  189.5630  177.2190  142.0590 O   0  0  0  0  0  0  0  0  0  0  0  0
  192.4890  172.5640  140.8950 C   0  0  2  0  0  3  0  0  0  0  0  0
  190.2480  174.9590  142.5970 C   0  0  2  0  0  3  0  0  0  0  0  0
  192.0160  173.9800  141.2450 C   0  0  2  0  0  3  0  0  0  0  0  0
  189.0970  175.9820  142.5300 C   0  0  2  0  0  3  0  0  0  0  0  0
  191.6210  172.0140  139.7760 C   0  0  0  0  0  2  0  0  0  0  0  0
  192.5880  174.4460  142.5790 C   0  0  2  0  0  3  0  0  0  0  0  0
  194.5120  172.5200  142.7210 O   0  0  0  0  0  1  0  0  0  0  0  0
  188.1910  173.1410  141.0010 C   0  0  0  0  0  2  0  0  0  0  0  0
  190.1490  171.8910  140.1900 C   0  0  0  0  0  2  0  0  0  0  0  0
  192.5280  173.4150  143.5470 O   0  0  0  0  0  0  0  0  0  0  0  0
  189.9130  177.9160  144.4010 C   0  0  0  0  0  2  0  0  0  0  0  0
  189.2530  178.1830  143.0420 C   0  0  0  0  0  2  0  0  0  0  0  0
  189.6750  172.8880  141.2610 C   0  0  1  0  0  3  0  0  0  0  0  0
  191.6120  175.5500  142.9590 C   0  0  2  0  0  3  0  0  0  0  0  0
  192.4610  171.6880  142.0010 O   0  0  0  0  0  0  0  0  0  0  0  0
  187.8630  175.4950  141.7380 C   0  0  1  0  0  3  0  0  0  0  0  0
  193.1950  171.3320  144.1080 F   0  0  0  0  0  0  0  0  0  0  0  0
  191.4020  177.6550  144.2650 C   0  0  0  0  0  2  0  0  0  0  0  0
  191.7110  176.1630  144.3730 C   0  0  2  0  0  3  0  0  0  0  0  0
  187.5360  174.0380  142.0410 C   0  0  0  0  0  2  0  0  0  0  0  0
  186.6210  177.5980  141.0920 C   0  0  0  0  0  2  0  0  0  0  0  0
  186.6080  176.3480  141.9570 C   0  0  2  0  0  3  0  0  0  0  0  0
  186.3710  176.6940  143.4320 C   0  0  0  0  0  2  0  0  0  0  0  0
  184.9450  178.1120  144.9470 N   0  0  0  0  0  1  0  0  0  0  0  0
  184.9340  178.5210  142.6340 N   0  0  0  0  0  0  0  0  0  0  0  0
  185.3510  177.7860  143.6240 C   0  0  0  0  0  0  0  0  0  0  0  0
  185.2660  178.2770  141.2290 C   0  0  0  0  0  2  0  0  0  0  0  0
  193.1160  176.0350  144.9840 C   0  0  1  0  0  3  0  0  0  0  0  0
  193.1900  176.2060  146.5130 C   0  0  2  0  0  3  0  0  0  0  0  0
  193.2020  174.8260  145.8970 C   0  0  2  0  0  3  0  0  0  0  0  0
  194.6210  174.2960  145.8870 C   0  0  0  0  0  2  0  0  0  0  0  0
  195.4560  175.2030  146.5130 F   0  0  0  0  0  0  0  0  0  0  0  0
  191.5660  175.2910  147.9960 O   0  0  0  0  0  1  0  0  0  0  0  0
  191.8570  176.4110  147.2200 C   0  0  0  0  0  2  0  0  0  0  0  0
  1 10  1  6  0  0  0
  1 13  1  0  0  0  0
  1 20  1  0  0  0  0
  2  5  1  0  0  0  0
  3  7  1  0  0  0  0
  3 15  1  0  0  0  0
  4  6  1  0  0  0  0
  4 18  1  0  0  0  0
  5 17  1  0  0  0  0
  6  2  1  0  0  0  0
  6  9  1  0  0  0  0
  7  5  1  0  0  0  0
  8 12  1  0  0  0  0
  8  4  1  0  0  0  0
  9 17  1  0  0  0  0
  9 13  1  0  0  0  0
 11 16  1  0  0  0  0
 11 23  1  0  0  0  0
 12 16  1  0  0  0  0
 15 14  1  0  0  0  0
 16  2  1  0  0  0  0
 17 22  1  0  0  0  0
 18  1  1  0  0  0  0
 19 25  1  0  0  0  0
 19 23  1  0  0  0  0
 19  7  1  0  0  0  0
 21 22  1  0  0  0  0
 21 14  1  0  0  0  0
 22 31  1  0  0  0  0
 24 30  1  0  0  0  0
 24 25  1  0  0  0  0
 25 26  1  0  0  0  0
 26 29  1  0  0  0  0
 28 29  2  0  0  0  0
 29 27  1  0  0  0  0
 30 28  1  0  0  0  0
 31 33  1  0  0  0  0
 31 32  1  0  0  0  0
 32 37  1  0  0  0  0
 33 32  1  0  0  0  0
 34 33  1  0  0  0  0
 34 35  1  0  0  0  0
 37 36  1  0  0  0  0
M  END
>  <MODEL>
4

>  <REMARK>
 VINA RESULT:      -7.3      1.952      4.747
  Name = 
  4 active torsions:
  status: ('A' for Active; 'I' for Inactive)
    1  A    between atoms: C_1  and  C_27
    2  A    between atoms: C_4  and  C_37
    3  A    between atoms: C_8  and  C_12
    4  A    between atoms: C_23  and  C_30
                            x       y       z     vdW  Elec       q    Type
                         _______ _______ _______ _____ _____    ______ ____

>  <TORSDO>
F 4

$$$$
=
 OpenBabel11112417323D

 37 43  0  0  1  0  0  0  0  0999 V2000
  190.3750  177.4980  144.7650 C   0  0  1  0  0  0  0  0  0  0  0  0
  189.5380  174.2100  143.1230 C   0  0  1  0  0  3  0  0  0  0  0  0
  191.3290  171.5040  143.3640 O   0  0  0  0  0  0  0  0  0  0  0  0
  188.4750  176.2410  144.3720 C   0  0  2  0  0  3  0  0  0  0  0  0
  191.0370  173.8950  143.1100 C   0  0  2  0  0  3  0  0  0  0  0  0
  189.3090  174.9560  144.4510 C   0  0  2  0  0  3  0  0  0  0  0  0
  191.3990  172.5560  142.4380 C   0  0  2  0  0  3  0  0  0  0  0  0
  187.3070  176.0170  143.4280 C   0  0  0  0  0  2  0  0  0  0  0  0
  190.6740  175.2120  145.0780 C   0  0  2  0  0  3  0  0  0  0  0  0
  190.0270  177.6480  146.1180 O   0  0  0  0  0  1  0  0  0  0  0  0
  189.0900  174.1630  140.6150 C   0  0  0  0  0  2  0  0  0  0  0  0
  187.7670  175.7080  141.9990 C   0  0  0  0  0  2  0  0  0  0  0  0
  191.2490  176.4040  144.5750 O   0  0  0  0  0  0  0  0  0  0  0  0
  193.7360  171.8150  143.8130 C   0  0  0  0  0  2  0  0  0  0  0  0
  192.5950  170.8830  143.3850 C   0  0  0  0  0  2  0  0  0  0  0  0
  189.1390  175.0250  141.8750 C   0  0  1  0  0  3  0  0  0  0  0  0
  191.4700  174.0180  144.5720 C   0  0  2  0  0  3  0  0  0  0  0  0
  189.2290  177.3560  143.9500 O   0  0  0  0  0  0  0  0  0  0  0  0
  190.5860  172.2500  141.1600 C   0  0  1  0  0  3  0  0  0  0  0  0
  191.0390  178.6430  144.3700 F   0  0  0  0  0  0  0  0  0  0  0  0
  193.4100  172.5540  145.0980 C   0  0  0  0  0  2  0  0  0  0  0  0
  192.9950  173.9970  144.8130 C   0  0  2  0  0  3  0  0  0  0  0  0
  190.4140  173.4880  140.2890 C   0  0  0  0  0  2  0  0  0  0  0  0
  192.6010  171.4020  139.8930 C   0  0  0  0  0  2  0  0  0  0  0  0
  191.1680  171.1140  140.3110 C   0  0  2  0  0  3  0  0  0  0  0  0
  190.2950  170.7650  139.1000 C   0  0  0  0  0  2  0  0  0  0  0  0
  190.2640  169.3950  136.9870 N   0  0  0  0  0  1  0  0  0  0  0  0
  192.2900  169.7030  138.1350 N   0  0  0  0  0  0  0  0  0  0  0  0
  191.0030  169.8970  138.0930 C   0  0  0  0  0  0  0  0  0  0  0  0
  193.1560  170.1520  139.2270 C   0  0  0  0  0  2  0  0  0  0  0  0
  193.4220  174.8380  146.0260 C   0  0  1  0  0  3  0  0  0  0  0  0
  194.9350  175.0970  146.1520 C   0  0  2  0  0  3  0  0  0  0  0  0
  194.0220  176.1600  145.5840 C   0  0  2  0  0  3  0  0  0  0  0  0
  193.7550  177.2070  146.6460 C   0  0  0  0  0  2  0  0  0  0  0  0
  192.6780  176.8150  147.4190 F   0  0  0  0  0  0  0  0  0  0  0  0
  196.3360  175.5990  144.2910 O   0  0  0  0  0  1  0  0  0  0  0  0
  195.7960  174.5440  145.0240 C   0  0  0  0  0  2  0  0  0  0  0  0
  1 20  1  6  0  0  0
  1 10  1  0  0  0  0
  2  6  1  0  0  0  0
  3 15  1  0  0  0  0
  4  6  1  0  0  0  0
  5  2  1  0  0  0  0
  5 17  1  0  0  0  0
  6  9  1  0  0  0  0
  7  5  1  0  0  0  0
  7  3  1  0  0  0  0
  8  4  1  0  0  0  0
 11 16  1  0  0  0  0
 12  8  1  0  0  0  0
 13  1  1  0  0  0  0
 13  9  1  0  0  0  0
 14 21  1  0  0  0  0
 15 14  1  0  0  0  0
 16 12  1  0  0  0  0
 16  2  1  0  0  0  0
 17 22  1  0  0  0  0
 17  9  1  0  0  0  0
 18  4  1  0  0  0  0
 18  1  1  0  0  0  0
 19  7  1  0  0  0  0
 22 21  1  0  0  0  0
 22 31  1  0  0  0  0
 23 11  1  0  0  0  0
 23 19  1  0  0  0  0
 24 25  1  0  0  0  0
 25 19  1  0  0  0  0
 26 25  1  0  0  0  0
 27 29  1  0  0  0  0
 28 30  1  0  0  0  0
 29 28  2  0  0  0  0
 29 26  1  0  0  0  0
 30 24  1  0  0  0  0
 31 32  1  0  0  0  0
 33 31  1  0  0  0  0
 33 32  1  0  0  0  0
 33 34  1  0  0  0  0
 34 35  1  0  0  0  0
 36 37  1  0  0  0  0
 37 32  1  0  0  0  0
M  END
>  <MODEL>
5

>  <REMARK>
 VINA RESULT:      -7.2      3.637      6.043
  Name = 
  4 active torsions:
  status: ('A' for Active; 'I' for Inactive)
    1  A    between atoms: C_1  and  C_27
    2  A    between atoms: C_4  and  C_37
    3  A    between atoms: C_8  and  C_12
    4  A    between atoms: C_23  and  C_30
                            x       y       z     vdW  Elec       q    Type
                         _______ _______ _______ _____ _____    ______ ____

>  <TORSDO>
F 4

$$$$
=
 OpenBabel11112417323D

 37 43  0  0  1  0  0  0  0  0999 V2000
  195.5470  173.9190  143.4880 C   0  0  1  0  0  0  0  0  0  0  0  0
  192.1750  175.1380  144.6500 C   0  0  1  0  0  3  0  0  0  0  0  0
  189.3200  174.0280  143.5520 O   0  0  0  0  0  0  0  0  0  0  0  0
  194.5720  174.5340  145.4910 C   0  0  2  0  0  3  0  0  0  0  0  0
  191.6190  174.7420  143.2780 C   0  0  2  0  0  3  0  0  0  0  0  0
  193.2110  174.0460  144.9790 C   0  0  2  0  0  3  0  0  0  0  0  0
  190.1270  175.0750  143.0790 C   0  0  2  0  0  3  0  0  0  0  0  0
  194.3530  175.6770  146.4670 C   0  0  0  0  0  2  0  0  0  0  0  0
  193.3620  173.1650  143.7440 C   0  0  2  0  0  3  0  0  0  0  0  0
  196.0340  172.7320  144.0600 O   0  0  0  0  0  1  0  0  0  0  0  0
  191.6780  177.6350  144.5860 C   0  0  0  0  0  2  0  0  0  0  0  0
  193.6790  176.8840  145.8050 C   0  0  0  0  0  2  0  0  0  0  0  0
  194.3080  173.7100  142.8430 O   0  0  0  0  0  0  0  0  0  0  0  0
  189.3110  173.0800  141.2730 C   0  0  0  0  0  2  0  0  0  0  0  0
  188.5150  173.6040  142.4750 C   0  0  0  0  0  2  0  0  0  0  0  0
  192.7650  176.5630  144.6100 C   0  0  1  0  0  3  0  0  0  0  0  0
  191.9720  173.2600  143.1320 C   0  0  2  0  0  3  0  0  0  0  0  0
  195.4310  174.9460  144.4510 O   0  0  0  0  0  0  0  0  0  0  0  0
  189.6990  176.4390  143.6650 C   0  0  1  0  0  3  0  0  0  0  0  0
  196.4570  174.3310  142.5330 F   0  0  0  0  0  0  0  0  0  0  0  0
  190.3480  172.0520  141.6880 C   0  0  0  0  0  2  0  0  0  0  0  0
  191.7470  172.6650  141.7250 C   0  0  2  0  0  3  0  0  0  0  0  0
  190.7380  177.5210  143.3950 C   0  0  0  0  0  2  0  0  0  0  0  0
  188.4230  177.5910  141.8140 C   0  0  0  0  0  2  0  0  0  0  0  0
  188.3300  176.9230  143.1770 C   0  0  2  0  0  3  0  0  0  0  0  0
  187.6180  177.8260  144.1910 C   0  0  0  0  0  2  0  0  0  0  0  0
  185.6200  179.3340  144.4680 N   0  0  0  0  0  1  0  0  0  0  0  0
  186.2420  178.6210  142.3170 N   0  0  0  0  0  0  0  0  0  0  0  0
  186.4440  178.5640  143.6020 C   0  0  0  0  0  0  0  0  0  0  0  0
  187.0080  177.8620  141.3270 C   0  0  0  0  0  2  0  0  0  0  0  0
  192.7410  171.5440  141.3820 C   0  0  1  0  0  3  0  0  0  0  0  0
  192.8100  171.1530  139.8950 C   0  0  2  0  0  3  0  0  0  0  0  0
  193.8580  172.0620  140.4950 C   0  0  2  0  0  3  0  0  0  0  0  0
  195.1170  171.2640  140.7640 C   0  0  0  0  0  2  0  0  0  0  0  0
  196.2170  172.0960  140.6810 F   0  0  0  0  0  0  0  0  0  0  0  0
  191.0240  171.1350  138.3180 O   0  0  0  0  0  1  0  0  0  0  0  0
  191.9370  171.9730  138.9550 C   0  0  0  0  0  2  0  0  0  0  0  0
  1 20  1  6  0  0  0
  1 10  1  0  0  0  0
  1 18  1  0  0  0  0
  2  6  1  0  0  0  0
  4  8  1  0  0  0  0
  5  2  1  0  0  0  0
  6  4  1  0  0  0  0
  7  5  1  0  0  0  0
  7  3  1  0  0  0  0
  7 19  1  0  0  0  0
  9  6  1  0  0  0  0
 11 16  1  0  0  0  0
 12  8  1  0  0  0  0
 13  1  1  0  0  0  0
 13  9  1  0  0  0  0
 14 21  1  0  0  0  0
 14 15  1  0  0  0  0
 15  3  1  0  0  0  0
 16  2  1  0  0  0  0
 16 12  1  0  0  0  0
 17  5  1  0  0  0  0
 17  9  1  0  0  0  0
 18  4  1  0  0  0  0
 21 22  1  0  0  0  0
 22 17  1  0  0  0  0
 23 19  1  0  0  0  0
 23 11  1  0  0  0  0
 24 25  1  0  0  0  0
 25 19  1  0  0  0  0
 25 26  1  0  0  0  0
 28 29  2  0  0  0  0
 29 26  1  0  0  0  0
 29 27  1  0  0  0  0
 30 24  1  0  0  0  0
 30 28  1  0  0  0  0
 31 22  1  0  0  0  0
 32 33  1  0  0  0  0
 32 31  1  0  0  0  0
 33 34  1  0  0  0  0
 33 31  1  0  0  0  0
 35 34  1  0  0  0  0
 36 37  1  0  0  0  0
 37 32  1  0  0  0  0
M  END
>  <MODEL>
6

>  <REMARK>
 VINA RESULT:      -6.9      1.994      2.610
  Name = 
  4 active torsions:
  status: ('A' for Active; 'I' for Inactive)
    1  A    between atoms: C_1  and  C_27
    2  A    between atoms: C_4  and  C_37
    3  A    between atoms: C_8  and  C_12
    4  A    between atoms: C_23  and  C_30
                            x       y       z     vdW  Elec       q    Type
                         _______ _______ _______ _____ _____    ______ ____

>  <TORSDO>
F 4

$$$$
=
 OpenBabel11112417323D

 37 43  0  0  1  0  0  0  0  0999 V2000
  185.3050  178.8720  143.5650 C   0  0  1  0  0  0  0  0  0  0  0  0
  188.3760  176.7650  142.9790 C   0  0  1  0  0  3  0  0  0  0  0  0
  189.7950  174.8870  145.2240 O   0  0  0  0  0  0  0  0  0  0  0  0
  186.1370  177.5330  141.8750 C   0  0  2  0  0  3  0  0  0  0  0  0
  188.6930  176.9080  144.4710 C   0  0  2  0  0  3  0  0  0  0  0  0
  186.8400  176.6530  142.9170 C   0  0  2  0  0  3  0  0  0  0  0  0
  190.0110  176.2360  144.9060 C   0  0  2  0  0  3  0  0  0  0  0  0
  186.9410  177.5130  140.5870 C   0  0  0  0  0  2  0  0  0  0  0  0
  186.3020  176.9110  144.3200 C   0  0  2  0  0  3  0  0  0  0  0  0
  184.0600  178.2250  143.5000 O   0  0  0  0  0  1  0  0  0  0  0  0
  190.4590  177.8660  142.0120 C   0  0  0  0  0  2  0  0  0  0  0  0
  188.3470  178.0970  140.7720 C   0  0  0  0  0  2  0  0  0  0  0  0
  186.1340  178.2960  144.5550 O   0  0  0  0  0  0  0  0  0  0  0  0
  189.4730  175.5510  147.5790 C   0  0  0  0  0  2  0  0  0  0  0  0
  190.2280  174.6980  146.5520 C   0  0  0  0  0  2  0  0  0  0  0  0
  188.9440  177.9580  142.1820 C   0  0  1  0  0  3  0  0  0  0  0  0
  187.4420  176.3890  145.1820 C   0  0  2  0  0  3  0  0  0  0  0  0
  185.9590  178.8620  142.3130 O   0  0  0  0  0  0  0  0  0  0  0  0
  191.1720  176.4100  143.9000 C   0  0  1  0  0  3  0  0  0  0  0  0
  185.0800  180.1890  143.9170 F   0  0  0  0  0  0  0  0  0  0  0  0
  187.9690  175.4300  147.4160 C   0  0  0  0  0  2  0  0  0  0  0  0
  187.3920  176.6530  146.7030 C   0  0  2  0  0  3  0  0  0  0  0  0
  191.2180  177.8220  143.3300 C   0  0  0  0  0  2  0  0  0  0  0  0
  192.8470  176.8330  145.7430 C   0  0  0  0  0  2  0  0  0  0  0  0
  192.5470  176.0530  144.4730 C   0  0  2  0  0  3  0  0  0  0  0  0
  193.6790  176.2040  143.4490 C   0  0  0  0  0  2  0  0  0  0  0  0
  196.1860  176.1790  143.2230 N   0  0  0  0  0  1  0  0  0  0  0  0
  195.2190  176.2880  145.3610 N   0  0  0  0  0  0  0  0  0  0  0  0
  195.0490  176.1790  144.0750 C   0  0  0  0  0  0  0  0  0  0  0  0
  194.1320  176.2800  146.3410 C   0  0  0  0  0  2  0  0  0  0  0  0
  185.9620  176.8510  147.2300 C   0  0  1  0  0  3  0  0  0  0  0  0
  185.7980  177.9380  148.3090 C   0  0  2  0  0  3  0  0  0  0  0  0
  185.4370  178.2290  146.8700 C   0  0  2  0  0  3  0  0  0  0  0  0
  183.9320  178.1610  146.7100 C   0  0  0  0  0  2  0  0  0  0  0  0
  183.4700  179.3520  146.1830 F   0  0  0  0  0  0  0  0  0  0  0  0
  186.8440  180.0750  148.4390 O   0  0  0  0  0  1  0  0  0  0  0  0
  187.0600  178.7160  148.6580 C   0  0  0  0  0  2  0  0  0  0  0  0
  1 10  1  6  0  0  0
  1 20  1  0  0  0  0
  1 13  1  0  0  0  0
  2  5  1  0  0  0  0
  3 15  1  0  0  0  0
  4 18  1  0  0  0  0
  4  6  1  0  0  0  0
  5  7  1  0  0  0  0
  5 17  1  0  0  0  0
  6  2  1  0  0  0  0
  6  9  1  0  0  0  0
  7  3  1  0  0  0  0
  8 12  1  0  0  0  0
  8  4  1  0  0  0  0
  9 13  1  0  0  0  0
  9 17  1  0  0  0  0
 11 16  1  0  0  0  0
 11 23  1  0  0  0  0
 12 16  1  0  0  0  0
 15 14  1  0  0  0  0
 16  2  1  0  0  0  0
 17 22  1  0  0  0  0
 18  1  1  0  0  0  0
 19 25  1  0  0  0  0
 19  7  1  0  0  0  0
 21 14  1  0  0  0  0
 22 31  1  0  0  0  0
 22 21  1  0  0  0  0
 23 19  1  0  0  0  0
 24 30  1  0  0  0  0
 25 24  1  0  0  0  0
 26 29  1  0  0  0  0
 26 25  1  0  0  0  0
 27 29  1  0  0  0  0
 28 30  1  0  0  0  0
 29 28  2  0  0  0  0
 31 32  1  0  0  0  0
 32 37  1  0  0  0  0
 33 31  1  0  0  0  0
 33 32  1  0  0  0  0
 34 33  1  0  0  0  0
 35 34  1  0  0  0  0
 36 37  1  0  0  0  0
M  END
>  <MODEL>
7

>  <REMARK>
 VINA RESULT:      -6.8      4.714      8.570
  Name = 
  4 active torsions:
  status: ('A' for Active; 'I' for Inactive)
    1  A    between atoms: C_1  and  C_27
    2  A    between atoms: C_4  and  C_37
    3  A    between atoms: C_8  and  C_12
    4  A    between atoms: C_23  and  C_30
                            x       y       z     vdW  Elec       q    Type
                         _______ _______ _______ _____ _____    ______ ____

>  <TORSDO>
F 4

$$$$
=
 OpenBabel11112417323D

 37 43  0  0  1  0  0  0  0  0999 V2000
  191.6300  175.4490  147.0820 C   0  0  1  0  0  0  0  0  0  0  0  0
  192.5740  173.8110  143.8220 C   0  0  1  0  0  3  0  0  0  0  0  0
  190.9100  174.1120  141.0420 O   0  0  0  0  0  0  0  0  0  0  0  0
  193.5740  175.0220  145.9070 C   0  0  2  0  0  3  0  0  0  0  0  0
  191.0900  173.8340  143.4410 C   0  0  2  0  0  3  0  0  0  0  0  0
  192.8000  175.1290  144.5870 C   0  0  2  0  0  3  0  0  0  0  0  0
  190.7730  173.1800  142.0830 C   0  0  2  0  0  3  0  0  0  0  0  0
  194.7300  174.0530  145.7270 C   0  0  0  0  0  2  0  0  0  0  0  0
  191.4390  175.7850  144.7890 C   0  0  2  0  0  3  0  0  0  0  0  0
  192.0010  176.7930  147.2580 O   0  0  0  0  0  1  0  0  0  0  0  0
  192.9670  171.2940  143.7750 C   0  0  0  0  0  2  0  0  0  0  0  0
  194.2520  172.6360  145.3880 C   0  0  0  0  0  2  0  0  0  0  0  0
  190.8010  175.2870  145.9500 O   0  0  0  0  0  0  0  0  0  0  0  0
  188.5020  174.6130  141.2500 C   0  0  0  0  0  2  0  0  0  0  0  0
  189.6730  174.1660  140.3660 C   0  0  0  0  0  2  0  0  0  0  0  0
  192.9080  172.5490  144.6440 C   0  0  1  0  0  3  0  0  0  0  0  0
  190.6860  175.3050  143.5570 C   0  0  2  0  0  3  0  0  0  0  0  0
  192.7620  174.6090  146.9850 O   0  0  0  0  0  0  0  0  0  0  0  0
  191.5700  171.8860  141.8020 C   0  0  1  0  0  3  0  0  0  0  0  0
  190.9080  175.0620  148.1940 F   0  0  0  0  0  0  0  0  0  0  0  0
  188.8240  175.8850  142.0130 C   0  0  0  0  0  2  0  0  0  0  0  0
  189.1690  175.5800  143.4700 C   0  0  2  0  0  3  0  0  0  0  0  0
  191.6670  171.0030  143.0400 C   0  0  0  0  0  2  0  0  0  0  0  0
  191.1360  169.5660  140.9000 C   0  0  0  0  0  2  0  0  0  0  0  0
  191.0200  171.0580  140.6350 C   0  0  2  0  0  3  0  0  0  0  0  0
  191.6470  171.4340  139.2880 C   0  0  0  0  0  2  0  0  0  0  0  0
  191.7820  170.7180  136.8770 N   0  0  0  0  0  1  0  0  0  0  0  0
  190.8780  169.2480  138.4710 N   0  0  0  0  0  0  0  0  0  0  0  0
  191.3670  170.4250  138.2050 C   0  0  0  0  0  0  0  0  0  0  0  0
  190.3980  168.8330  139.7900 C   0  0  0  0  0  2  0  0  0  0  0  0
  188.7320  176.7970  144.3020 C   0  0  1  0  0  3  0  0  0  0  0  0
  187.2210  177.0930  144.2990 C   0  0  2  0  0  3  0  0  0  0  0  0
  187.8570  176.3720  145.4660 C   0  0  2  0  0  3  0  0  0  0  0  0
  188.0450  177.3460  146.6110 C   0  0  0  0  0  2  0  0  0  0  0  0
  189.3010  177.9160  146.5300 F   0  0  0  0  0  0  0  0  0  0  0  0
  185.5660  176.7910  142.6110 O   0  0  0  0  0  1  0  0  0  0  0  0
  186.3560  176.1030  143.5310 C   0  0  0  0  0  2  0  0  0  0  0  0
  1 10  1  1  0  0  0
  1 20  1  0  0  0  0
  2  6  1  0  0  0  0
  2 16  1  0  0  0  0
  3  7  1  0  0  0  0
  4 18  1  0  0  0  0
  5 17  1  0  0  0  0
  5  2  1  0  0  0  0
  6  9  1  0  0  0  0
  6  4  1  0  0  0  0
  7  5  1  0  0  0  0
  8  4  1  0  0  0  0
  9 13  1  0  0  0  0
 11 16  1  0  0  0  0
 12  8  1  0  0  0  0
 13  1  1  0  0  0  0
 14 21  1  0  0  0  0
 15  3  1  0  0  0  0
 15 14  1  0  0  0  0
 16 12  1  0  0  0  0
 17  9  1  0  0  0  0
 18  1  1  0  0  0  0
 19  7  1  0  0  0  0
 19 23  1  0  0  0  0
 21 22  1  0  0  0  0
 22 17  1  0  0  0  0
 22 31  1  0  0  0  0
 23 11  1  0  0  0  0
 25 24  1  0  0  0  0
 25 19  1  0  0  0  0
 26 25  1  0  0  0  0
 27 29  1  0  0  0  0
 28 30  1  0  0  0  0
 29 28  2  0  0  0  0
 29 26  1  0  0  0  0
 30 24  1  0  0  0  0
 31 33  1  0  0  0  0
 32 31  1  0  0  0  0
 32 33  1  0  0  0  0
 33 34  1  0  0  0  0
 35 34  1  0  0  0  0
 36 37  1  0  0  0  0
 37 32  1  0  0  0  0
M  END
>  <MODEL>
8

>  <REMARK>
 VINA RESULT:      -6.8      3.642      6.475
  Name = 
  4 active torsions:
  status: ('A' for Active; 'I' for Inactive)
    1  A    between atoms: C_1  and  C_27
    2  A    between atoms: C_4  and  C_37
    3  A    between atoms: C_8  and  C_12
    4  A    between atoms: C_23  and  C_30
                            x       y       z     vdW  Elec       q    Type
                         _______ _______ _______ _____ _____    ______ ____

>  <TORSDO>
F 4

$$$$
=
 OpenBabel11112417323D

 37 43  0  0  1  0  0  0  0  0999 V2000
  187.8240  175.7430  141.8790 C   0  0  1  0  0  0  0  0  0  0  0  0
  190.9250  173.6830  142.4680 C   0  0  1  0  0  3  0  0  0  0  0  0
  192.4660  173.4200  145.3210 O   0  0  0  0  0  0  0  0  0  0  0  0
  188.6320  173.6810  141.2200 C   0  0  2  0  0  3  0  0  0  0  0  0
  191.2890  174.6510  143.5990 C   0  0  2  0  0  3  0  0  0  0  0  0
  189.3910  173.5530  142.5460 C   0  0  2  0  0  3  0  0  0  0  0  0
  192.6360  174.3490  144.2830 C   0  0  2  0  0  3  0  0  0  0  0  0
  189.3920  172.9320  140.1390 C   0  0  0  0  0  2  0  0  0  0  0  0
  188.8940  174.5630  143.5740 C   0  0  2  0  0  3  0  0  0  0  0  0
  186.5930  175.1720  142.2460 O   0  0  0  0  0  1  0  0  0  0  0  0
  192.9460  174.0390  140.9600 C   0  0  0  0  0  2  0  0  0  0  0  0
  190.7880  173.5190  139.8990 C   0  0  0  0  0  2  0  0  0  0  0  0
  188.6990  175.8350  142.9850 O   0  0  0  0  0  0  0  0  0  0  0  0
  192.2060  175.3080  146.8900 C   0  0  0  0  0  2  0  0  0  0  0  0
  192.9480  174.0230  146.5020 C   0  0  0  0  0  2  0  0  0  0  0  0
  191.4360  174.2100  141.1110 C   0  0  1  0  0  3  0  0  0  0  0  0
  190.0750  174.6280  144.5310 C   0  0  2  0  0  3  0  0  0  0  0  0
  188.4350  175.0220  140.8290 O   0  0  0  0  0  0  0  0  0  0  0  0
  193.7580  173.9200  143.3100 C   0  0  1  0  0  3  0  0  0  0  0  0
  187.5770  177.0250  141.4280 F   0  0  0  0  0  0  0  0  0  0  0  0
  190.7010  175.1140  146.8880 C   0  0  0  0  0  2  0  0  0  0  0  0
  190.0700  175.7120  145.6310 C   0  0  2  0  0  3  0  0  0  0  0  0
  193.7500  174.7560  142.0350 C   0  0  0  0  0  2  0  0  0  0  0  0
  196.1400  174.7220  143.0500 C   0  0  0  0  0  2  0  0  0  0  0  0
  195.1610  173.9560  143.9250 C   0  0  2  0  0  3  0  0  0  0  0  0
  195.6980  172.5610  144.2700 C   0  0  0  0  0  2  0  0  0  0  0  0
  197.7720  171.3480  145.0210 N   0  0  0  0  0  1  0  0  0  0  0  0
  197.9370  173.5720  144.2830 N   0  0  0  0  0  0  0  0  0  0  0  0
  197.1760  172.5540  144.5620 C   0  0  0  0  0  0  0  0  0  0  0  0
  197.4420  174.8710  143.8220 C   0  0  0  0  0  2  0  0  0  0  0  0
  188.6540  176.1720  146.0110 C   0  0  1  0  0  3  0  0  0  0  0  0
  188.5820  177.4310  146.8950 C   0  0  2  0  0  3  0  0  0  0  0  0
  188.3440  177.5290  145.4060 C   0  0  2  0  0  3  0  0  0  0  0  0
  186.8550  177.6280  145.1440 C   0  0  0  0  0  2  0  0  0  0  0  0
  186.2500  176.4280  145.4650 F   0  0  0  0  0  0  0  0  0  0  0  0
  189.8770  178.6180  148.5060 O   0  0  0  0  0  1  0  0  0  0  0  0
  189.9170  178.0890  147.2170 C   0  0  0  0  0  2  0  0  0  0  0  0
  1 20  1  6  0  0  0
  1 10  1  0  0  0  0
  1 13  1  0  0  0  0
  2  6  1  0  0  0  0
  2  5  1  0  0  0  0
  3 15  1  0  0  0  0
  4  6  1  0  0  0  0
  5  7  1  0  0  0  0
  5 17  1  0  0  0  0
  6  9  1  0  0  0  0
  7  3  1  0  0  0  0
  8  4  1  0  0  0  0
  9 17  1  0  0  0  0
 11 16  1  0  0  0  0
 11 23  1  0  0  0  0
 12  8  1  0  0  0  0
 12 16  1  0  0  0  0
 13  9  1  0  0  0  0
 15 14  1  0  0  0  0
 16  2  1  0  0  0  0
 17 22  1  0  0  0  0
 18  4  1  0  0  0  0
 18  1  1  0  0  0  0
 19 25  1  0  0  0  0
 19  7  1  0  0  0  0
 21 14  1  0  0  0  0
 22 31  1  0  0  0  0
 22 21  1  0  0  0  0
 23 19  1  0  0  0  0
 24 30  1  0  0  0  0
 24 25  1  0  0  0  0
 25 26  1  0  0  0  0
 26 29  1  0  0  0  0
 28 29  2  0  0  0  0
 29 27  1  0  0  0  0
 30 28  1  0  0  0  0
 31 32  1  0  0  0  0
 32 37  1  0  0  0  0
 33 31  1  0  0  0  0
 33 32  1  0  0  0  0
 34 33  1  0  0  0  0
 34 35  1  0  0  0  0
 37 36  1  0  0  0  0
M  END
>  <MODEL>
9

>  <REMARK>
 VINA RESULT:      -6.6      4.401      8.279
  Name = 
  4 active torsions:
  status: ('A' for Active; 'I' for Inactive)
    1  A    between atoms: C_1  and  C_27
    2  A    between atoms: C_4  and  C_37
    3  A    between atoms: C_8  and  C_12
    4  A    between atoms: C_23  and  C_30
                            x       y       z     vdW  Elec       q    Type
                         _______ _______ _______ _____ _____    ______ ____

>  <TORSDO>
F 4

$$$$
