=
 OpenBabel11112416133D

 30 35  0  0  1  0  0  0  0  0999 V2000
  188.4360  176.2760  142.6670 C   0  0  1  0  0  3  0  0  0  0  0  0
  186.4450  177.8750  142.4650 C   0  0  0  0  0  0  0  0  0  0  0  0
  188.9680  177.5110  146.8020 C   0  0  0  0  0  2  0  0  0  0  0  0
  189.3520  175.5630  143.6930 C   0  0  1  0  0  3  0  0  0  0  0  0
  187.8330  175.2080  141.7710 C   0  0  0  0  0  2  0  0  0  0  0  0
  191.0880  173.6840  141.0690 O   0  0  0  0  0  0  0  0  0  0  0  0
  192.5520  175.4160  144.1570 C   0  0  1  0  0  3  0  0  0  0  0  0
  190.1830  174.3170  141.6810 C   0  0  0  0  0  0  0  0  0  0  0  0
  192.1950  176.1340  145.4560 C   0  0  2  0  0  3  0  0  0  0  0  0
  190.2840  176.8400  146.9360 C   0  0  0  0  0  0  0  0  0  0  0  0
  188.9060  174.5310  141.0490 N   0  0  0  0  0  0  0  0  0  0  0  0
  190.4370  174.8490  142.9980 N   0  0  0  0  0  0  0  0  0  0  0  0
  185.5650  178.8080  143.0240 C   0  0  0  0  0  3  0  0  0  0  0  0
  192.9480  175.3910  146.5380 C   0  0  0  0  0  2  0  0  0  0  0  0
  193.9310  174.8180  144.3890 C   0  0  0  0  0  2  0  0  0  0  0  0
  186.3600  177.6070  141.1050 O   0  0  0  0  0  1  0  0  0  0  0  0
  188.5220  176.9130  145.4880 C   0  0  2  0  0  3  0  0  0  0  0  0
  185.6440  179.1320  144.3800 C   0  0  0  0  0  3  0  0  0  0  0  0
  187.4060  177.2330  143.2750 C   0  0  0  0  0  0  0  0  0  0  0  0
  189.7900  176.6160  144.7100 C   0  0  1  0  0  3  0  0  0  0  0  0
  190.9500  176.8620  148.0050 O   0  0  0  0  0  0  0  0  0  0  0  0
  190.7550  176.2220  145.7320 N   0  0  0  0  0  0  0  0  0  0  0  0
  194.2280  174.9300  145.8760 C   0  0  0  0  0  2  0  0  0  0  0  0
  191.1690  173.3270  144.8110 C   0  0  0  0  0  1  0  0  0  0  0  0
  186.6150  178.5380  145.1850 C   0  0  0  0  0  3  0  0  0  0  0  0
  187.5160  177.6180  144.6340 C   0  0  0  0  0  0  0  0  0  0  0  0
  191.5860  174.3110  143.7220 C   0  0  2  0  0  3  0  0  0  0  0  0
  188.6920  174.2080  139.6460 C   0  0  0  0  0  2  0  0  0  0  0  0
  189.0850  171.9680  138.9510 O   0  0  0  0  0  1  0  0  0  0  0  0
  188.1230  172.8070  139.5120 C   0  0  0  0  0  2  0  0  0  0  0  0
  1  5  1  1  0  0  0
  1 19  1  0  0  0  0
  1  4  1  0  0  0  0
  2 13  2  0  0  0  0
  2 19  1  0  0  0  0
  3 10  1  0  0  0  0
  4 12  1  6  0  0  0
  4 20  1  0  0  0  0
  6  8  2  0  0  0  0
  7 15  1  1  0  0  0
  7  9  1  0  0  0  0
  8 12  1  0  0  0  0
  9 22  1  0  0  0  0
  9 14  1  1  0  0  0
 10 21  2  0  0  0  0
 11  8  1  0  0  0  0
 11  5  1  0  0  0  0
 12 27  1  0  0  0  0
 13 18  1  0  0  0  0
 15 23  1  0  0  0  0
 16  2  1  0  0  0  0
 17  3  1  1  0  0  0
 18 25  2  0  0  0  0
 19 26  2  0  0  0  0
 20 17  1  0  0  0  0
 20 22  1  1  0  0  0
 22 10  1  0  0  0  0
 23 14  1  0  0  0  0
 26 25  1  0  0  0  0
 26 17  1  0  0  0  0
 27  7  1  0  0  0  0
 27 24  1  1  0  0  0
 28 11  1  0  0  0  0
 29 30  1  0  0  0  0
 30 28  1  0  0  0  0
M  END
>  <MODEL>
1

>  <REMARK>
 VINA RESULT:      -8.5      0.000      0.000
  Name = 
  2 active torsions:
  status: ('A' for Active; 'I' for Inactive)
    1  A    between atoms: N_11  and  C_28
    2  A    between atoms: C_28  and  C_30
                            x       y       z     vdW  Elec       q    Type
                         _______ _______ _______ _____ _____    ______ ____

>  <TORSDO>
F 2

$$$$
=
 OpenBabel11112416133D

 30 35  0  0  1  0  0  0  0  0999 V2000
  187.8500  176.5050  145.0000 C   0  0  1  0  0  3  0  0  0  0  0  0
  186.2560  178.1830  146.0970 C   0  0  0  0  0  0  0  0  0  0  0  0
  186.4910  177.8220  141.0850 C   0  0  0  0  0  2  0  0  0  0  0  0
  188.5330  176.1420  143.6570 C   0  0  1  0  0  3  0  0  0  0  0  0
  188.9440  176.6680  146.0400 C   0  0  0  0  0  2  0  0  0  0  0  0
  190.4920  173.4570  145.2020 O   0  0  0  0  0  0  0  0  0  0  0  0
  188.6680  173.4720  141.8310 C   0  0  1  0  0  3  0  0  0  0  0  0
  189.8390  174.5300  145.0660 C   0  0  0  0  0  0  0  0  0  0  0  0
  187.9110  174.3520  140.8420 C   0  0  2  0  0  3  0  0  0  0  0  0
  187.1590  176.7090  140.3690 C   0  0  0  0  0  0  0  0  0  0  0  0
  189.6430  175.3970  146.2000 N   0  0  0  0  0  0  0  0  0  0  0  0
  189.2680  174.8720  143.7860 N   0  0  0  0  0  0  0  0  0  0  0  0
  185.3060  179.2050  146.0060 C   0  0  0  0  0  3  0  0  0  0  0  0
  188.6220  174.1610  139.5190 C   0  0  0  0  0  2  0  0  0  0  0  0
  189.2600  172.3420  141.0030 C   0  0  0  0  0  2  0  0  0  0  0  0
  186.5650  177.6660  147.3490 O   0  0  0  0  0  1  0  0  0  0  0  0
  187.1280  177.6560  142.4450 C   0  0  2  0  0  3  0  0  0  0  0  0
  184.9410  179.7250  144.7630 C   0  0  0  0  0  3  0  0  0  0  0  0
  186.8740  177.6830  144.9310 C   0  0  0  0  0  0  0  0  0  0  0  0
  187.4490  176.1800  142.5790 C   0  0  1  0  0  3  0  0  0  0  0  0
  187.1050  176.5790  139.1180 O   0  0  0  0  0  0  0  0  0  0  0  0
  187.8130  175.7660  141.2280 N   0  0  0  0  0  0  0  0  0  0  0  0
  189.1030  172.7260  139.5400 C   0  0  0  0  0  2  0  0  0  0  0  0
  190.7350  175.0310  141.7960 C   0  0  0  0  0  1  0  0  0  0  0  0
  185.5120  179.2130  143.5970 C   0  0  0  0  0  3  0  0  0  0  0  0
  186.4480  178.1750  143.6720 C   0  0  0  0  0  0  0  0  0  0  0  0
  189.7850  174.1650  142.6170 C   0  0  2  0  0  3  0  0  0  0  0  0
  190.0090  174.9790  147.5460 C   0  0  0  0  0  2  0  0  0  0  0  0
  192.3350  175.3830  147.2690 O   0  0  0  0  0  1  0  0  0  0  0  0
  191.2240  175.7530  148.0230 C   0  0  0  0  0  2  0  0  0  0  0  0
  1  5  1  1  0  0  0
  2 16  1  0  0  0  0
  4 12  1  1  0  0  0
  4  1  1  0  0  0  0
  5 11  1  0  0  0  0
  7 15  1  6  0  0  0
  7 27  1  0  0  0  0
  8  6  2  0  0  0  0
  8 11  1  0  0  0  0
  9 14  1  6  0  0  0
  9 22  1  0  0  0  0
  9  7  1  0  0  0  0
 10  3  1  0  0  0  0
 10 22  1  0  0  0  0
 11 28  1  0  0  0  0
 12  8  1  0  0  0  0
 13  2  1  0  0  0  0
 14 23  1  0  0  0  0
 17  3  1  6  0  0  0
 17 20  1  0  0  0  0
 17 26  1  0  0  0  0
 18 13  2  0  0  0  0
 19  1  1  0  0  0  0
 19  2  2  0  0  0  0
 20 22  1  6  0  0  0
 20  4  1  0  0  0  0
 21 10  2  0  0  0  0
 23 15  1  0  0  0  0
 25 26  2  0  0  0  0
 25 18  1  0  0  0  0
 26 19  1  0  0  0  0
 27 24  1  6  0  0  0
 27 12  1  0  0  0  0
 28 30  1  0  0  0  0
 29 30  1  0  0  0  0
M  END
>  <MODEL>
2

>  <REMARK>
 VINA RESULT:      -8.3      2.138      5.499
  Name = 
  2 active torsions:
  status: ('A' for Active; 'I' for Inactive)
    1  A    between atoms: N_11  and  C_28
    2  A    between atoms: C_28  and  C_30
                            x       y       z     vdW  Elec       q    Type
                         _______ _______ _______ _____ _____    ______ ____

>  <TORSDO>
F 2

$$$$
=
 OpenBabel11112416133D

 30 35  0  0  1  0  0  0  0  0999 V2000
  186.7960  177.4490  143.6980 C   0  0  1  0  0  3  0  0  0  0  0  0
  185.5580  178.9870  145.3300 C   0  0  0  0  0  0  0  0  0  0  0  0
  188.8940  175.6370  147.0480 C   0  0  0  0  0  2  0  0  0  0  0  0
  187.6390  176.1510  143.6180 C   0  0  1  0  0  3  0  0  0  0  0  0
  185.6170  177.2880  142.7540 C   0  0  0  0  0  2  0  0  0  0  0  0
  187.7460  176.2650  139.9560 O   0  0  0  0  0  0  0  0  0  0  0  0
  190.5540  175.4130  142.4200 C   0  0  1  0  0  3  0  0  0  0  0  0
  187.3490  176.4360  141.1420 C   0  0  0  0  0  0  0  0  0  0  0  0
  190.8690  175.1460  143.8890 C   0  0  2  0  0  3  0  0  0  0  0  0
  189.8530  174.9100  146.1810 C   0  0  0  0  0  0  0  0  0  0  0  0
  186.1150  177.1380  141.3910 N   0  0  0  0  0  0  0  0  0  0  0  0
  188.1430  175.9550  142.2470 N   0  0  0  0  0  0  0  0  0  0  0  0
  185.2770  179.4160  146.6310 C   0  0  0  0  0  3  0  0  0  0  0  0
  191.5730  173.8060  143.9050 C   0  0  0  0  0  2  0  0  0  0  0  0
  191.6240  174.6710  141.6330 C   0  0  0  0  0  2  0  0  0  0  0  0
  184.9980  179.6780  144.2630 O   0  0  0  0  0  1  0  0  0  0  0  0
  187.9070  176.0850  145.9960 C   0  0  2  0  0  3  0  0  0  0  0  0
  185.8510  178.7700  147.7290 C   0  0  0  0  0  3  0  0  0  0  0  0
  186.4050  177.8790  145.1150 C   0  0  0  0  0  0  0  0  0  0  0  0
  188.7010  176.2390  144.7130 C   0  0  1  0  0  3  0  0  0  0  0  0
  190.7550  174.1640  146.6460 O   0  0  0  0  0  0  0  0  0  0  0  0
  189.7030  175.1800  144.7820 N   0  0  0  0  0  0  0  0  0  0  0  0
  192.3510  173.7590  142.6080 C   0  0  0  0  0  2  0  0  0  0  0  0
  188.7510  173.5550  142.3620 C   0  0  0  0  0  1  0  0  0  0  0  0
  186.7240  177.7000  147.5330 C   0  0  0  0  0  3  0  0  0  0  0  0
  187.0300  177.2740  146.2350 C   0  0  0  0  0  0  0  0  0  0  0  0
  189.1710  174.9620  141.9450 C   0  0  2  0  0  3  0  0  0  0  0  0
  185.4080  177.8280  140.3210 C   0  0  0  0  0  2  0  0  0  0  0  0
  183.0400  177.9150  140.1380 O   0  0  0  0  0  1  0  0  0  0  0  0
  184.1210  178.4330  140.8490 C   0  0  0  0  0  2  0  0  0  0  0  0
  1  5  1  6  0  0  0
  1 19  1  0  0  0  0
  2 13  1  0  0  0  0
  4 12  1  6  0  0  0
  4  1  1  0  0  0  0
  4 20  1  0  0  0  0
  6  8  2  0  0  0  0
  7 15  1  6  0  0  0
  7  9  1  0  0  0  0
  8 11  1  0  0  0  0
  8 12  1  0  0  0  0
  9 14  1  6  0  0  0
  9 22  1  0  0  0  0
 10 21  2  0  0  0  0
 10  3  1  0  0  0  0
 11  5  1  0  0  0  0
 13 18  2  0  0  0  0
 15 23  1  0  0  0  0
 16  2  1  0  0  0  0
 17 26  1  0  0  0  0
 17  3  1  1  0  0  0
 19  2  2  0  0  0  0
 19 26  1  0  0  0  0
 20 22  1  6  0  0  0
 20 17  1  0  0  0  0
 22 10  1  0  0  0  0
 23 14  1  0  0  0  0
 25 18  1  0  0  0  0
 26 25  2  0  0  0  0
 27 12  1  0  0  0  0
 27 24  1  1  0  0  0
 27  7  1  0  0  0  0
 28 30  1  0  0  0  0
 28 11  1  0  0  0  0
 29 30  1  0  0  0  0
M  END
>  <MODEL>
3

>  <REMARK>
 VINA RESULT:      -8.3      2.179      3.563
  Name = 
  2 active torsions:
  status: ('A' for Active; 'I' for Inactive)
    1  A    between atoms: N_11  and  C_28
    2  A    between atoms: C_28  and  C_30
                            x       y       z     vdW  Elec       q    Type
                         _______ _______ _______ _____ _____    ______ ____

>  <TORSDO>
F 2

$$$$
=
 OpenBabel11112416133D

 30 35  0  0  1  0  0  0  0  0999 V2000
  188.1180  176.1090  141.9440 C   0  0  1  0  0  3  0  0  0  0  0  0
  186.2980  177.2020  140.5110 C   0  0  0  0  0  0  0  0  0  0  0  0
  186.4080  177.9720  145.4810 C   0  0  0  0  0  2  0  0  0  0  0  0
  188.4970  175.7530  143.4030 C   0  0  1  0  0  3  0  0  0  0  0  0
  188.1670  174.8260  141.1320 C   0  0  0  0  0  2  0  0  0  0  0  0
  191.5110  173.9560  142.3440 O   0  0  0  0  0  0  0  0  0  0  0  0
  191.0550  176.3590  145.2930 C   0  0  1  0  0  3  0  0  0  0  0  0
  190.3520  174.4570  142.3200 C   0  0  0  0  0  0  0  0  0  0  0  0
  190.0240  177.1520  146.0920 C   0  0  2  0  0  3  0  0  0  0  0  0
  187.5630  177.6230  146.3440 C   0  0  0  0  0  0  0  0  0  0  0  0
  189.5300  174.3050  141.1460 N   0  0  0  0  0  0  0  0  0  0  0  0
  189.8630  175.2020  143.4540 N   0  0  0  0  0  0  0  0  0  0  0  0
  185.1490  177.9910  140.3870 C   0  0  0  0  0  3  0  0  0  0  0  0
  190.2390  176.7390  147.5330 C   0  0  0  0  0  2  0  0  0  0  0  0
  192.2080  176.1080  146.2520 C   0  0  0  0  0  2  0  0  0  0  0  0
  186.9210  176.7420  139.3580 O   0  0  0  0  0  1  0  0  0  0  0  0
  186.7370  177.1210  144.2770 C   0  0  2  0  0  3  0  0  0  0  0  0
  184.5150  178.5020  141.5210 C   0  0  0  0  0  3  0  0  0  0  0  0
  186.8130  176.8950  141.7880 C   0  0  0  0  0  0  0  0  0  0  0  0
  188.2490  177.0020  144.2480 C   0  0  1  0  0  3  0  0  0  0  0  0
  187.6140  177.9300  147.5630 O   0  0  0  0  0  0  0  0  0  0  0  0
  188.6340  176.9650  145.6550 N   0  0  0  0  0  0  0  0  0  0  0  0
  191.7260  176.4800  147.6450 C   0  0  0  0  0  2  0  0  0  0  0  0
  189.8000  174.1290  145.6870 C   0  0  0  0  0  1  0  0  0  0  0  0
  185.0360  178.2440  142.7890 C   0  0  0  0  0  3  0  0  0  0  0  0
  186.1970  177.4740  142.9260 C   0  0  0  0  0  0  0  0  0  0  0  0
  190.5690  175.0250  144.7210 C   0  0  2  0  0  3  0  0  0  0  0  0
  190.0690  173.7580  139.9100 C   0  0  0  0  0  2  0  0  0  0  0  0
  188.5670  172.4070  138.6570 O   0  0  0  0  0  1  0  0  0  0  0  0
  188.9940  173.7210  138.8400 C   0  0  0  0  0  2  0  0  0  0  0  0
  1  5  1  6  0  0  0
  1  4  1  0  0  0  0
  2 19  1  0  0  0  0
  3 10  1  0  0  0  0
  4 12  1  6  0  0  0
  4 20  1  0  0  0  0
  5 11  1  0  0  0  0
  7  9  1  0  0  0  0
  7 15  1  1  0  0  0
  8  6  2  0  0  0  0
  8 12  1  0  0  0  0
  9 14  1  1  0  0  0
 10 21  2  0  0  0  0
 11  8  1  0  0  0  0
 12 27  1  0  0  0  0
 13  2  2  0  0  0  0
 13 18  1  0  0  0  0
 14 23  1  0  0  0  0
 15 23  1  0  0  0  0
 16  2  1  0  0  0  0
 17  3  1  1  0  0  0
 18 25  2  0  0  0  0
 19  1  1  0  0  0  0
 19 26  2  0  0  0  0
 20 17  1  0  0  0  0
 20 22  1  1  0  0  0
 22  9  1  0  0  0  0
 22 10  1  0  0  0  0
 25 26  1  0  0  0  0
 26 17  1  0  0  0  0
 27  7  1  0  0  0  0
 27 24  1  1  0  0  0
 28 11  1  0  0  0  0
 29 30  1  0  0  0  0
 30 28  1  0  0  0  0
M  END
>  <MODEL>
4

>  <REMARK>
 VINA RESULT:      -8.3      1.521      2.163
  Name = 
  2 active torsions:
  status: ('A' for Active; 'I' for Inactive)
    1  A    between atoms: N_11  and  C_28
    2  A    between atoms: C_28  and  C_30
                            x       y       z     vdW  Elec       q    Type
                         _______ _______ _______ _____ _____    ______ ____

>  <TORSDO>
F 2

$$$$
=
 OpenBabel11112416133D

 30 35  0  0  1  0  0  0  0  0999 V2000
  186.6270  176.9750  144.0420 C   0  0  1  0  0  3  0  0  0  0  0  0
  184.6510  178.2260  142.9970 C   0  0  0  0  0  0  0  0  0  0  0  0
  187.8150  175.6160  140.0860 C   0  0  0  0  0  2  0  0  0  0  0  0
  187.9810  176.3010  143.7070 C   0  0  1  0  0  3  0  0  0  0  0  0
  186.8880  178.0210  145.1130 C   0  0  0  0  0  2  0  0  0  0  0  0
  188.7130  175.6650  147.2420 O   0  0  0  0  0  0  0  0  0  0  0  0
  189.2380  173.3630  144.2240 C   0  0  1  0  0  3  0  0  0  0  0  0
  188.2400  176.2000  146.2000 C   0  0  0  0  0  0  0  0  0  0  0  0
  189.1910  173.2950  142.7000 C   0  0  2  0  0  3  0  0  0  0  0  0
  188.8060  174.6450  140.6100 C   0  0  0  0  0  0  0  0  0  0  0  0
  187.3890  177.3580  146.3120 N   0  0  0  0  0  0  0  0  0  0  0  0
  188.5290  175.6380  144.9030 N   0  0  0  0  0  0  0  0  0  0  0  0
  183.9130  178.6310  141.8800 C   0  0  0  0  0  3  0  0  0  0  0  0
  190.5520  172.7750  142.2870 C   0  0  0  0  0  2  0  0  0  0  0  0
  190.2350  172.2950  144.6500 C   0  0  0  0  0  2  0  0  0  0  0  0
  184.1710  178.5380  144.2630 O   0  0  0  0  0  1  0  0  0  0  0  0
  187.5290  176.3810  141.3570 C   0  0  2  0  0  3  0  0  0  0  0  0
  184.3420  178.3040  140.5920 C   0  0  0  0  0  3  0  0  0  0  0  0
  185.8510  177.5040  142.8310 C   0  0  0  0  0  0  0  0  0  0  0  0
  187.7450  175.4010  142.4940 C   0  0  1  0  0  3  0  0  0  0  0  0
  189.5060  173.9190  139.8560 O   0  0  0  0  0  0  0  0  0  0  0  0
  188.8490  174.5610  142.0400 N   0  0  0  0  0  0  0  0  0  0  0  0
  190.9640  171.8340  143.3980 C   0  0  0  0  0  2  0  0  0  0  0  0
  190.8850  175.3610  144.1880 C   0  0  0  0  0  1  0  0  0  0  0  0
  185.5040  177.5550  140.4120 C   0  0  0  0  0  3  0  0  0  0  0  0
  186.2410  177.1250  141.5220 C   0  0  0  0  0  0  0  0  0  0  0  0
  189.6550  174.7120  144.8160 C   0  0  2  0  0  3  0  0  0  0  0  0
  186.8980  177.8140  147.6050 C   0  0  0  0  0  2  0  0  0  0  0  0
  184.6200  178.4930  147.6030 O   0  0  0  0  0  1  0  0  0  0  0  0
  185.9200  178.9600  147.4190 C   0  0  0  0  0  2  0  0  0  0  0  0
  1  5  1  1  0  0  0
  2 16  1  0  0  0  0
  3 10  1  0  0  0  0
  4  1  1  0  0  0  0
  4 12  1  1  0  0  0
  5 11  1  0  0  0  0
  7 15  1  6  0  0  0
  7 27  1  0  0  0  0
  8 11  1  0  0  0  0
  8  6  2  0  0  0  0
  9 14  1  6  0  0  0
  9  7  1  0  0  0  0
 10 22  1  0  0  0  0
 11 28  1  0  0  0  0
 12  8  1  0  0  0  0
 13  2  2  0  0  0  0
 14 23  1  0  0  0  0
 17  3  1  6  0  0  0
 17 26  1  0  0  0  0
 17 20  1  0  0  0  0
 18 13  1  0  0  0  0
 19  2  1  0  0  0  0
 19  1  1  0  0  0  0
 20 22  1  6  0  0  0
 20  4  1  0  0  0  0
 21 10  2  0  0  0  0
 22  9  1  0  0  0  0
 23 15  1  0  0  0  0
 25 18  2  0  0  0  0
 25 26  1  0  0  0  0
 26 19  2  0  0  0  0
 27 24  1  6  0  0  0
 27 12  1  0  0  0  0
 30 29  1  0  0  0  0
 30 28  1  0  0  0  0
M  END
>  <MODEL>
5

>  <REMARK>
 VINA RESULT:      -7.8      2.242      5.479
  Name = 
  2 active torsions:
  status: ('A' for Active; 'I' for Inactive)
    1  A    between atoms: N_11  and  C_28
    2  A    between atoms: C_28  and  C_30
                            x       y       z     vdW  Elec       q    Type
                         _______ _______ _______ _____ _____    ______ ____

>  <TORSDO>
F 2

$$$$
=
 OpenBabel11112416133D

 30 35  0  0  1  0  0  0  0  0999 V2000
  189.0660  175.4150  143.2910 C   0  0  1  0  0  3  0  0  0  0  0  0
  186.7350  176.3270  143.8320 C   0  0  0  0  0  0  0  0  0  0  0  0
  190.4590  176.7550  147.1860 C   0  0  0  0  0  2  0  0  0  0  0  0
  190.4200  175.0170  143.9330 C   0  0  1  0  0  3  0  0  0  0  0  0
  188.5570  174.2130  142.5140 C   0  0  0  0  0  2  0  0  0  0  0  0
  191.7340  173.7600  140.7510 O   0  0  0  0  0  0  0  0  0  0  0  0
  193.5040  175.8580  143.4240 C   0  0  1  0  0  3  0  0  0  0  0  0
  190.9170  174.0860  141.6570 C   0  0  0  0  0  0  0  0  0  0  0  0
  193.3690  176.4330  144.8310 C   0  0  2  0  0  3  0  0  0  0  0  0
  191.8880  176.5190  146.8660 C   0  0  0  0  0  0  0  0  0  0  0  0
  189.5040  173.8980  141.4500 N   0  0  0  0  0  0  0  0  0  0  0  0
  191.3970  174.6710  142.8860 N   0  0  0  0  0  0  0  0  0  0  0  0
  185.8370  176.9460  144.7090 C   0  0  0  0  0  3  0  0  0  0  0  0
  194.6020  175.9570  145.5710 C   0  0  0  0  0  2  0  0  0  0  0  0
  194.9980  175.7120  143.1840 C   0  0  0  0  0  2  0  0  0  0  0  0
  186.3180  176.0460  142.5370 O   0  0  0  0  0  1  0  0  0  0  0  0
  189.8260  176.0490  146.0110 C   0  0  2  0  0  3  0  0  0  0  0  0
  186.2310  177.2790  146.0070 C   0  0  0  0  0  3  0  0  0  0  0  0
  188.0410  176.0110  144.2610 C   0  0  0  0  0  0  0  0  0  0  0  0
  190.8220  176.1550  144.8710 C   0  0  1  0  0  3  0  0  0  0  0  0
  192.8130  176.7450  147.6900 O   0  0  0  0  0  0  0  0  0  0  0  0
  192.1250  176.0760  145.5240 N   0  0  0  0  0  0  0  0  0  0  0  0
  195.6920  175.9100  144.5230 C   0  0  0  0  0  2  0  0  0  0  0  0
  193.0610  173.4460  144.2550 C   0  0  0  0  0  1  0  0  0  0  0  0
  187.5310  177.0110  146.4330 C   0  0  0  0  0  3  0  0  0  0  0  0
  188.4460  176.4120  145.5590 C   0  0  0  0  0  0  0  0  0  0  0  0
  192.8170  174.5110  143.1890 C   0  0  2  0  0  3  0  0  0  0  0  0
  188.9730  173.5240  140.1470 C   0  0  0  0  0  2  0  0  0  0  0  0
  188.0590  174.5040  138.1830 O   0  0  0  0  0  1  0  0  0  0  0  0
  188.1620  174.6660  139.5630 C   0  0  0  0  0  2  0  0  0  0  0  0
  1  5  1  1  0  0  0
  1  4  1  0  0  0  0
  1 19  1  0  0  0  0
  2 19  2  0  0  0  0
  2 13  1  0  0  0  0
  4 12  1  6  0  0  0
  4 20  1  0  0  0  0
  6  8  2  0  0  0  0
  7 15  1  1  0  0  0
  7  9  1  0  0  0  0
  8 12  1  0  0  0  0
  9 22  1  0  0  0  0
  9 14  1  1  0  0  0
 10  3  1  0  0  0  0
 10 21  2  0  0  0  0
 11  8  1  0  0  0  0
 11  5  1  0  0  0  0
 12 27  1  0  0  0  0
 13 18  2  0  0  0  0
 15 23  1  0  0  0  0
 16  2  1  0  0  0  0
 17  3  1  1  0  0  0
 18 25  1  0  0  0  0
 19 26  1  0  0  0  0
 20 22  1  1  0  0  0
 20 17  1  0  0  0  0
 22 10  1  0  0  0  0
 23 14  1  0  0  0  0
 26 17  1  0  0  0  0
 26 25  2  0  0  0  0
 27  7  1  0  0  0  0
 27 24  1  1  0  0  0
 28 11  1  0  0  0  0
 29 30  1  0  0  0  0
 30 28  1  0  0  0  0
M  END
>  <MODEL>
6

>  <REMARK>
 VINA RESULT:      -7.5      1.517      1.728
  Name = 
  2 active torsions:
  status: ('A' for Active; 'I' for Inactive)
    1  A    between atoms: N_11  and  C_28
    2  A    between atoms: C_28  and  C_30
                            x       y       z     vdW  Elec       q    Type
                         _______ _______ _______ _____ _____    ______ ____

>  <TORSDO>
F 2

$$$$
=
 OpenBabel11112416133D

 30 35  0  0  1  0  0  0  0  0999 V2000
  187.6900  176.0850  141.7050 C   0  0  1  0  0  3  0  0  0  0  0  0
  189.4410  174.3420  141.0280 C   0  0  0  0  0  0  0  0  0  0  0  0
  189.5630  176.4000  145.6160 C   0  0  0  0  0  2  0  0  0  0  0  0
  187.3800  177.1870  142.7490 C   0  0  1  0  0  3  0  0  0  0  0  0
  187.6040  176.7210  140.3280 C   0  0  0  0  0  2  0  0  0  0  0  0
  184.3210  178.1970  141.0010 O   0  0  0  0  0  0  0  0  0  0  0  0
  184.9130  177.7720  144.7630 C   0  0  1  0  0  3  0  0  0  0  0  0
  185.4770  177.7340  141.2080 C   0  0  0  0  0  0  0  0  0  0  0  0
  185.9810  177.5150  145.8230 C   0  0  2  0  0  3  0  0  0  0  0  0
  188.4510  177.1930  146.1940 C   0  0  0  0  0  0  0  0  0  0  0  0
  186.2430  177.2020  140.1100 N   0  0  0  0  0  0  0  0  0  0  0  0
  186.0190  177.7120  142.5450 N   0  0  0  0  0  0  0  0  0  0  0  0
  190.5820  173.5830  141.3080 C   0  0  0  0  0  3  0  0  0  0  0  0
  185.8340  178.6500  146.8140 C   0  0  0  0  0  2  0  0  0  0  0  0
  183.8070  178.5350  145.4740 C   0  0  0  0  0  2  0  0  0  0  0  0
  188.7640  174.1170  139.8360 O   0  0  0  0  0  1  0  0  0  0  0  0
  189.1780  176.4680  144.1570 C   0  0  2  0  0  3  0  0  0  0  0  0
  191.2680  173.7530  142.5120 C   0  0  0  0  0  3  0  0  0  0  0  0
  188.9860  175.3070  141.9520 C   0  0  0  0  0  0  0  0  0  0  0  0
  187.6670  176.5920  144.1270 C   0  0  1  0  0  3  0  0  0  0  0  0
  188.4560  177.5990  147.3860 O   0  0  0  0  0  0  0  0  0  0  0  0
  187.3490  177.3980  145.3010 N   0  0  0  0  0  0  0  0  0  0  0  0
  184.3540  178.9680  146.8250 C   0  0  0  0  0  2  0  0  0  0  0  0
  186.1870  179.8250  143.8300 C   0  0  0  0  0  1  0  0  0  0  0  0
  190.8070  174.6730  143.4540 C   0  0  0  0  0  3  0  0  0  0  0  0
  189.6540  175.4240  143.1960 C   0  0  0  0  0  0  0  0  0  0  0  0
  185.3730  178.5680  143.5380 C   0  0  2  0  0  3  0  0  0  0  0  0
  185.6470  177.0020  138.7970 C   0  0  0  0  0  2  0  0  0  0  0  0
  186.3430  176.4590  136.5900 O   0  0  0  0  0  1  0  0  0  0  0  0
  186.5560  176.1500  137.9320 C   0  0  0  0  0  2  0  0  0  0  0  0
  1  5  1  6  0  0  0
  1 19  1  0  0  0  0
  1  4  1  0  0  0  0
  2 13  2  0  0  0  0
  2 19  1  0  0  0  0
  3 10  1  0  0  0  0
  4 12  1  1  0  0  0
  4 20  1  0  0  0  0
  6  8  2  0  0  0  0
  7 15  1  1  0  0  0
  7  9  1  0  0  0  0
  8 12  1  0  0  0  0
  9 14  1  1  0  0  0
 10 21  2  0  0  0  0
 11  5  1  0  0  0  0
 11  8  1  0  0  0  0
 12 27  1  0  0  0  0
 13 18  1  0  0  0  0
 14 23  1  0  0  0  0
 15 23  1  0  0  0  0
 16  2  1  0  0  0  0
 17  3  1  1  0  0  0
 18 25  2  0  0  0  0
 19 26  2  0  0  0  0
 20 17  1  0  0  0  0
 20 22  1  1  0  0  0
 22  9  1  0  0  0  0
 22 10  1  0  0  0  0
 26 25  1  0  0  0  0
 26 17  1  0  0  0  0
 27 24  1  1  0  0  0
 27  7  1  0  0  0  0
 28 11  1  0  0  0  0
 29 30  1  0  0  0  0
 30 28  1  0  0  0  0
M  END
>  <MODEL>
7

>  <REMARK>
 VINA RESULT:      -7.3      2.269      5.771
  Name = 
  2 active torsions:
  status: ('A' for Active; 'I' for Inactive)
    1  A    between atoms: N_11  and  C_28
    2  A    between atoms: C_28  and  C_30
                            x       y       z     vdW  Elec       q    Type
                         _______ _______ _______ _____ _____    ______ ____

>  <TORSDO>
F 2

$$$$
=
 OpenBabel11112416133D

 30 35  0  0  1  0  0  0  0  0999 V2000
  188.6670  176.0730  144.3230 C   0  0  1  0  0  3  0  0  0  0  0  0
  186.9890  177.8310  145.1310 C   0  0  0  0  0  0  0  0  0  0  0  0
  187.1150  176.4940  140.2830 C   0  0  0  0  0  2  0  0  0  0  0  0
  189.3380  175.4940  143.0510 C   0  0  1  0  0  3  0  0  0  0  0  0
  189.7750  176.5100  145.2660 C   0  0  0  0  0  2  0  0  0  0  0  0
  191.5220  173.3020  145.0160 O   0  0  0  0  0  0  0  0  0  0  0  0
  189.6130  172.5270  141.7850 C   0  0  1  0  0  3  0  0  0  0  0  0
  190.7920  174.2820  144.6980 C   0  0  0  0  0  0  0  0  0  0  0  0
  188.7680  173.1430  140.6720 C   0  0  2  0  0  3  0  0  0  0  0  0
  187.8400  175.3050  139.7750 C   0  0  0  0  0  0  0  0  0  0  0  0
  190.5660  175.3440  145.6450 N   0  0  0  0  0  0  0  0  0  0  0  0
  190.1640  174.3250  143.3990 N   0  0  0  0  0  0  0  0  0  0  0  0
  185.9670  178.7520  144.8790 C   0  0  0  0  0  3  0  0  0  0  0  0
  189.4560  172.7370  139.3850 C   0  0  0  0  0  2  0  0  0  0  0  0
  190.2600  171.2960  141.1720 C   0  0  0  0  0  2  0  0  0  0  0  0
  187.3670  177.5950  146.4470 O   0  0  0  0  0  1  0  0  0  0  0  0
  187.7980  176.6430  141.6220 C   0  0  2  0  0  3  0  0  0  0  0  0
  185.5330  178.9890  143.5730 C   0  0  0  0  0  3  0  0  0  0  0  0
  187.6090  177.1490  144.0630 C   0  0  0  0  0  0  0  0  0  0  0  0
  188.2260  175.2460  142.0320 C   0  0  1  0  0  3  0  0  0  0  0  0
  187.7620  174.9250  138.5770 O   0  0  0  0  0  0  0  0  0  0  0  0
  188.5820  174.5960  140.7750 N   0  0  0  0  0  0  0  0  0  0  0  0
  190.0370  171.3690  139.6690 C   0  0  0  0  0  2  0  0  0  0  0  0
  191.5630  174.1770  141.3590 C   0  0  0  0  0  1  0  0  0  0  0  0
  186.1070  178.2930  142.5090 C   0  0  0  0  0  3  0  0  0  0  0  0
  187.1160  177.3520  142.7490 C   0  0  0  0  0  0  0  0  0  0  0  0
  190.6980  173.4330  142.3720 C   0  0  2  0  0  3  0  0  0  0  0  0
  190.9960  175.2260  147.0310 C   0  0  0  0  0  2  0  0  0  0  0  0
  191.2400  177.1700  148.3770 O   0  0  0  0  0  1  0  0  0  0  0  0
  191.8800  176.4010  147.4070 C   0  0  0  0  0  2  0  0  0  0  0  0
  1  5  1  1  0  0  0
  2 16  1  0  0  0  0
  4 12  1  1  0  0  0
  4  1  1  0  0  0  0
  5 11  1  0  0  0  0
  7 15  1  6  0  0  0
  7 27  1  0  0  0  0
  8  6  2  0  0  0  0
  8 11  1  0  0  0  0
  9 14  1  6  0  0  0
  9 22  1  0  0  0  0
  9  7  1  0  0  0  0
 10  3  1  0  0  0  0
 10 22  1  0  0  0  0
 11 28  1  0  0  0  0
 12  8  1  0  0  0  0
 13  2  1  0  0  0  0
 14 23  1  0  0  0  0
 17  3  1  6  0  0  0
 17 20  1  0  0  0  0
 17 26  1  0  0  0  0
 18 13  2  0  0  0  0
 19  1  1  0  0  0  0
 19  2  2  0  0  0  0
 20 22  1  6  0  0  0
 20  4  1  0  0  0  0
 21 10  2  0  0  0  0
 23 15  1  0  0  0  0
 25 26  2  0  0  0  0
 25 18  1  0  0  0  0
 26 19  1  0  0  0  0
 27 24  1  6  0  0  0
 27 12  1  0  0  0  0
 28 30  1  0  0  0  0
 30 29  1  0  0  0  0
M  END
>  <MODEL>
8

>  <REMARK>
 VINA RESULT:      -7.2      1.803      5.542
  Name = 
  2 active torsions:
  status: ('A' for Active; 'I' for Inactive)
    1  A    between atoms: N_11  and  C_28
    2  A    between atoms: C_28  and  C_30
                            x       y       z     vdW  Elec       q    Type
                         _______ _______ _______ _____ _____    ______ ____

>  <TORSDO>
F 2

$$$$
=
 OpenBabel11112416133D

 30 35  0  0  1  0  0  0  0  0999 V2000
  190.7930  173.7430  143.2840 C   0  0  1  0  0  3  0  0  0  0  0  0
  192.6130  171.9400  143.2660 C   0  0  0  0  0  0  0  0  0  0  0  0
  192.4080  175.2910  147.0120 C   0  0  0  0  0  2  0  0  0  0  0  0
  190.3980  175.0970  143.9250 C   0  0  1  0  0  3  0  0  0  0  0  0
  190.7840  173.9300  141.7760 C   0  0  0  0  0  2  0  0  0  0  0  0
  187.4400  175.4220  141.7860 O   0  0  0  0  0  0  0  0  0  0  0  0
  187.7990  176.1740  145.5260 C   0  0  1  0  0  3  0  0  0  0  0  0
  188.5880  175.0850  142.1880 C   0  0  0  0  0  0  0  0  0  0  0  0
  188.8010  176.2870  146.6720 C   0  0  2  0  0  3  0  0  0  0  0  0
  191.2470  176.1800  147.2600 C   0  0  0  0  0  0  0  0  0  0  0  0
  189.4320  174.2740  141.3480 N   0  0  0  0  0  0  0  0  0  0  0  0
  189.0440  175.4870  143.4970 N   0  0  0  0  0  0  0  0  0  0  0  0
  193.7460  171.3420  143.8260 C   0  0  0  0  0  3  0  0  0  0  0  0
  188.5710  177.6620  147.2630 C   0  0  0  0  0  2  0  0  0  0  0  0
  186.6360  177.0760  145.9110 C   0  0  0  0  0  2  0  0  0  0  0  0
  192.0170  171.3420  142.1630 O   0  0  0  0  0  1  0  0  0  0  0  0
  192.1150  174.9010  145.5820 C   0  0  2  0  0  3  0  0  0  0  0  0
  194.3510  171.8930  144.9570 C   0  0  0  0  0  3  0  0  0  0  0  0
  192.0830  173.1220  143.8260 C   0  0  0  0  0  0  0  0  0  0  0  0
  190.6070  174.9560  145.4330 C   0  0  1  0  0  3  0  0  0  0  0  0
  191.1700  176.9270  148.2700 O   0  0  0  0  0  0  0  0  0  0  0  0
  190.2010  176.0670  146.2870 N   0  0  0  0  0  0  0  0  0  0  0  0
  187.0890  177.9160  147.0950 C   0  0  0  0  0  2  0  0  0  0  0  0
  189.0940  177.8940  144.0870 C   0  0  0  0  0  1  0  0  0  0  0  0
  193.8160  173.0370  145.5490 C   0  0  0  0  0  3  0  0  0  0  0  0
  192.6690  173.6330  145.0120 C   0  0  0  0  0  0  0  0  0  0  0  0
  188.3210  176.5790  144.1460 C   0  0  2  0  0  3  0  0  0  0  0  0
  188.9230  173.6660  140.1260 C   0  0  0  0  0  2  0  0  0  0  0  0
  189.6940  171.5810  139.2840 O   0  0  0  0  0  1  0  0  0  0  0  0
  190.0360  172.9270  139.4060 C   0  0  0  0  0  2  0  0  0  0  0  0
  1  5  1  6  0  0  0
  1 19  1  0  0  0  0
  1  4  1  0  0  0  0
  2 19  2  0  0  0  0
  2 13  1  0  0  0  0
  3 10  1  0  0  0  0
  4 12  1  1  0  0  0
  4 20  1  0  0  0  0
  6  8  2  0  0  0  0
  7 15  1  1  0  0  0
  7  9  1  0  0  0  0
  8 12  1  0  0  0  0
  9 14  1  6  0  0  0
 10 21  2  0  0  0  0
 11  5  1  0  0  0  0
 11  8  1  0  0  0  0
 12 27  1  0  0  0  0
 13 18  2  0  0  0  0
 15 23  1  0  0  0  0
 16  2  1  0  0  0  0
 17  3  1  1  0  0  0
 18 25  1  0  0  0  0
 19 26  1  0  0  0  0
 20 17  1  0  0  0  0
 20 22  1  1  0  0  0
 22  9  1  0  0  0  0
 22 10  1  0  0  0  0
 23 14  1  0  0  0  0
 26 25  2  0  0  0  0
 26 17  1  0  0  0  0
 27 24  1  1  0  0  0
 27  7  1  0  0  0  0
 28 11  1  0  0  0  0
 29 30  1  0  0  0  0
 30 28  1  0  0  0  0
M  END
>  <MODEL>
9

>  <REMARK>
 VINA RESULT:      -7.2      1.653      5.419
  Name = 
  2 active torsions:
  status: ('A' for Active; 'I' for Inactive)
    1  A    between atoms: N_11  and  C_28
    2  A    between atoms: C_28  and  C_30
                            x       y       z     vdW  Elec       q    Type
                         _______ _______ _______ _____ _____    ______ ____

>  <TORSDO>
F 2

$$$$
