=
 OpenBabel11112417413D

 28 32  0  0  1  0  0  0  0  0999 V2000
  186.4600  178.3940  144.2630 C   0  0  0  0  0  0  0  0  0  0  0  0
  189.5690  178.2600  145.0440 O   0  0  0  0  0  0  0  0  0  0  0  0
  187.9210  174.3180  140.1170 O   0  0  0  0  0  0  0  0  0  0  0  0
  184.9210  177.3650  146.3710 C   0  0  0  0  0  3  0  0  0  0  0  0
  189.5810  174.4100  141.8600 C   0  0  1  0  0  3  0  0  0  0  0  0
  187.1070  178.9770  143.0560 C   0  0  0  0  0  2  0  0  0  0  0  0
  188.8480  177.4280  147.2430 O   0  0  0  0  0  0  0  0  0  0  0  0
  189.5460  177.0700  145.9620 S   0  0  0  0  0  0  0  0  0  0  0  0
  191.6980  175.3790  145.7740 C   0  0  0  0  0  0  0  0  0  0  0  0
  188.7180  175.6660  145.2100 C   0  0  2  0  0  3  0  0  0  0  0  0
  185.2170  177.4940  140.3430 O   0  0  0  0  0  0  0  0  0  0  0  0
  188.5360  176.4130  142.8980 C   0  0  1  0  0  3  0  0  0  0  0  0
  191.0240  174.6120  144.9670 N   0  0  0  0  0  0  0  0  0  0  0  0
  191.1620  176.5910  146.2980 N   0  0  0  0  0  2  0  0  0  0  0  0
  186.2460  177.8130  140.9920 C   0  0  0  0  0  0  0  0  0  0  0  0
  186.6500  177.0510  144.6770 C   0  0  0  0  0  0  0  0  0  0  0  0
  188.3750  174.8780  141.1510 C   0  0  0  0  0  0  0  0  0  0  0  0
  193.0560  174.9540  146.2010 C   0  0  0  0  0  1  0  0  0  0  0  0
  187.5360  177.1300  140.7000 C   0  0  0  0  0  2  0  0  0  0  0  0
  185.8610  176.5580  145.7300 C   0  0  0  0  0  3  0  0  0  0  0  0
  185.5120  179.1930  144.9150 C   0  0  0  0  0  3  0  0  0  0  0  0
  184.7520  178.6870  145.9680 C   0  0  0  0  0  3  0  0  0  0  0  0
  186.1750  178.8710  141.9450 N   0  0  0  0  0  2  0  0  0  0  0  0
  189.7470  175.4560  142.9890 C   0  0  1  0  0  3  0  0  0  0  0  0
  187.8330  176.0800  141.6640 N   0  0  0  0  0  0  0  0  0  0  0  0
  189.6950  174.8480  144.3900 C   0  0  2  0  0  3  0  0  0  0  0  0
  189.3950  172.9670  142.3190 C   0  0  0  0  0  1  0  0  0  0  0  0
  187.7040  176.0940  144.1490 C   0  0  2  0  0  3  0  0  0  0  0  0
  1 16  2  0  0  0  0
  1 21  1  0  0  0  0
  2  8  2  0  0  0  0
  3 17  2  0  0  0  0
  5 27  1  1  0  0  0
  5 24  1  0  0  0  0
  6  1  1  0  0  0  0
  8 14  1  0  0  0  0
  8  7  2  0  0  0  0
  9 18  1  0  0  0  0
  9 14  1  0  0  0  0
 10  8  1  6  0  0  0
 11 15  2  0  0  0  0
 12 25  1  6  0  0  0
 12 24  1  0  0  0  0
 12 28  1  0  0  0  0
 13  9  2  0  0  0  0
 15 23  1  0  0  0  0
 16 20  1  0  0  0  0
 17 25  1  0  0  0  0
 17  5  1  0  0  0  0
 19 15  1  0  0  0  0
 19 25  1  0  0  0  0
 20  4  2  0  0  0  0
 21 22  2  0  0  0  0
 22  4  1  0  0  0  0
 23  6  1  0  0  0  0
 24 26  1  0  0  0  0
 26 13  1  0  0  0  0
 26 10  1  0  0  0  0
 28 16  1  0  0  0  0
 28 10  1  0  0  0  0
M  END
>  <MODEL>
1

>  <REMARK>
 VINA RESULT:      -8.8      0.000      0.000
  Name = 
  0 active torsions:
  status: ('A' for Active; 'I' for Inactive)
                            x       y       z     vdW  Elec       q    Type
                         _______ _______ _______ _____ _____    ______ ____

>  <TORSDO>
F 0

$$$$
=
 OpenBabel11112417413D

 28 32  0  0  1  0  0  0  0  0999 V2000
  191.3940  174.6190  145.2310 C   0  0  0  0  0  0  0  0  0  0  0  0
  188.6440  175.5080  146.6230 O   0  0  0  0  0  0  0  0  0  0  0  0
  188.2590  174.9710  140.1340 O   0  0  0  0  0  0  0  0  0  0  0  0
  193.2970  176.6580  145.5350 C   0  0  0  0  0  3  0  0  0  0  0  0
  187.1850  176.2140  141.8970 C   0  0  1  0  0  3  0  0  0  0  0  0
  190.5270  173.4360  144.9830 C   0  0  0  0  0  2  0  0  0  0  0  0
  189.8240  177.5340  147.3660 O   0  0  0  0  0  0  0  0  0  0  0  0
  188.7510  176.9990  146.4610 S   0  0  0  0  0  0  0  0  0  0  0  0
  186.4120  178.3050  145.8670 C   0  0  0  0  0  0  0  0  0  0  0  0
  189.1240  177.4580  144.7660 C   0  0  2  0  0  3  0  0  0  0  0  0
  191.3470  172.5490  141.5670 O   0  0  0  0  0  0  0  0  0  0  0  0
  188.7560  175.3430  143.6150 C   0  0  1  0  0  3  0  0  0  0  0  0
  186.7160  178.2710  144.6020 N   0  0  0  0  0  0  0  0  0  0  0  0
  187.2430  177.7160  146.8650 N   0  0  0  0  0  2  0  0  0  0  0  0
  190.5990  172.8370  142.5360 C   0  0  0  0  0  0  0  0  0  0  0  0
  191.1370  175.9040  144.6880 C   0  0  0  0  0  0  0  0  0  0  0  0
  188.1990  175.2900  141.3520 C   0  0  0  0  0  0  0  0  0  0  0  0
  185.1810  179.0200  146.2920 C   0  0  0  0  0  1  0  0  0  0  0  0
  189.1940  173.2560  142.2740 C   0  0  0  0  0  2  0  0  0  0  0  0
  192.1090  176.9040  144.8470 C   0  0  0  0  0  3  0  0  0  0  0  0
  192.5920  174.3860  145.9210 C   0  0  0  0  0  3  0  0  0  0  0  0
  193.5360  175.4000  146.0800 C   0  0  0  0  0  3  0  0  0  0  0  0
  191.0840  172.6900  143.8670 N   0  0  0  0  0  2  0  0  0  0  0  0
  187.4950  176.2140  143.4130 C   0  0  1  0  0  3  0  0  0  0  0  0
  189.0300  174.7010  142.3340 N   0  0  0  0  0  0  0  0  0  0  0  0
  187.8490  177.5970  143.9590 C   0  0  2  0  0  3  0  0  0  0  0  0
  187.2830  177.5700  141.2030 C   0  0  0  0  0  1  0  0  0  0  0  0
  189.8500  176.3450  144.0120 C   0  0  2  0  0  3  0  0  0  0  0  0
  1 21  1  0  0  0  0
  3 17  2  0  0  0  0
  4 22  1  0  0  0  0
  5 27  1  6  0  0  0
  5 24  1  0  0  0  0
  6  1  1  0  0  0  0
  8  2  2  0  0  0  0
  8 14  1  0  0  0  0
  8  7  2  0  0  0  0
  9 18  1  0  0  0  0
  9 14  1  0  0  0  0
 10  8  1  1  0  0  0
 11 15  2  0  0  0  0
 12 25  1  6  0  0  0
 12 28  1  0  0  0  0
 13  9  2  0  0  0  0
 15 23  1  0  0  0  0
 16 20  1  0  0  0  0
 16  1  2  0  0  0  0
 17  5  1  0  0  0  0
 17 25  1  0  0  0  0
 19 25  1  0  0  0  0
 19 15  1  0  0  0  0
 20  4  2  0  0  0  0
 21 22  2  0  0  0  0
 23  6  1  0  0  0  0
 24 12  1  0  0  0  0
 24 26  1  0  0  0  0
 26 13  1  0  0  0  0
 26 10  1  0  0  0  0
 28 16  1  0  0  0  0
 28 10  1  0  0  0  0
M  END
>  <MODEL>
2

>  <REMARK>
 VINA RESULT:      -8.8      1.770      5.414
  Name = 
  0 active torsions:
  status: ('A' for Active; 'I' for Inactive)
                            x       y       z     vdW  Elec       q    Type
                         _______ _______ _______ _____ _____    ______ ____

>  <TORSDO>
F 0

$$$$
=
 OpenBabel11112417413D

 28 32  0  0  1  0  0  0  0  0999 V2000
  190.4570  175.6910  143.2530 C   0  0  0  0  0  0  0  0  0  0  0  0
  188.6160  177.6860  141.5430 O   0  0  0  0  0  0  0  0  0  0  0  0
  187.0910  177.4770  147.8800 O   0  0  0  0  0  0  0  0  0  0  0  0
  189.9680  173.0480  142.4490 C   0  0  0  0  0  3  0  0  0  0  0  0
  185.9910  177.9300  145.7860 C   0  0  1  0  0  3  0  0  0  0  0  0
  190.8510  177.0180  143.7980 C   0  0  0  0  0  2  0  0  0  0  0  0
  187.8600  175.7090  140.2910 O   0  0  0  0  0  0  0  0  0  0  0  0
  187.4520  176.7770  141.2650 S   0  0  0  0  0  0  0  0  0  0  0  0
  184.9750  177.9550  141.3470 C   0  0  0  0  0  0  0  0  0  0  0  0
  186.8380  176.0060  142.7660 C   0  0  2  0  0  3  0  0  0  0  0  0
  191.0870  176.3780  147.3570 O   0  0  0  0  0  0  0  0  0  0  0  0
  188.0030  177.3020  144.4690 C   0  0  1  0  0  3  0  0  0  0  0  0
  184.8290  177.5600  142.5780 N   0  0  0  0  0  0  0  0  0  0  0  0
  186.1650  177.7030  140.6030 N   0  0  0  0  0  2  0  0  0  0  0  0
  190.7080  176.9710  146.3150 C   0  0  0  0  0  0  0  0  0  0  0  0
  189.1530  175.1490  143.3850 C   0  0  0  0  0  0  0  0  0  0  0  0
  187.1320  177.5100  146.6210 C   0  0  0  0  0  0  0  0  0  0  0  0
  183.8470  178.6520  140.6780 C   0  0  0  0  0  1  0  0  0  0  0  0
  189.5360  177.8860  146.3800 C   0  0  0  0  0  2  0  0  0  0  0  0
  188.9370  173.8210  142.9820 C   0  0  0  0  0  3  0  0  0  0  0  0
  191.4840  174.9030  142.7160 C   0  0  0  0  0  3  0  0  0  0  0  0
  191.2420  173.5920  142.3080 C   0  0  0  0  0  3  0  0  0  0  0  0
  191.4490  176.8120  145.1070 N   0  0  0  0  0  2  0  0  0  0  0  0
  186.5670  177.8620  144.3520 C   0  0  1  0  0  3  0  0  0  0  0  0
  188.3180  177.2560  145.8920 N   0  0  0  0  0  0  0  0  0  0  0  0
  185.8120  176.8950  143.4410 C   0  0  2  0  0  3  0  0  0  0  0  0
  184.7840  177.0350  146.0560 C   0  0  0  0  0  1  0  0  0  0  0  0
  187.9160  175.9010  143.8440 C   0  0  2  0  0  3  0  0  0  0  0  0
  1 16  1  0  0  0  0
  1  6  1  0  0  0  0
  4 20  1  0  0  0  0
  5 27  1  6  0  0  0
  5 17  1  0  0  0  0
  6 23  1  0  0  0  0
  7  8  2  0  0  0  0
  8  2  2  0  0  0  0
  9 13  2  0  0  0  0
 10  8  1  6  0  0  0
 10 26  1  0  0  0  0
 10 28  1  0  0  0  0
 12 25  1  1  0  0  0
 13 26  1  0  0  0  0
 14  8  1  0  0  0  0
 14  9  1  0  0  0  0
 15 19  1  0  0  0  0
 15 11  2  0  0  0  0
 16 28  1  0  0  0  0
 17  3  2  0  0  0  0
 18  9  1  0  0  0  0
 20 16  2  0  0  0  0
 21  1  2  0  0  0  0
 22  4  2  0  0  0  0
 22 21  1  0  0  0  0
 23 15  1  0  0  0  0
 24 12  1  0  0  0  0
 24  5  1  0  0  0  0
 25 19  1  0  0  0  0
 25 17  1  0  0  0  0
 26 24  1  0  0  0  0
 28 12  1  0  0  0  0
M  END
>  <MODEL>
3

>  <REMARK>
 VINA RESULT:      -8.4      2.027      6.459
  Name = 
  0 active torsions:
  status: ('A' for Active; 'I' for Inactive)
                            x       y       z     vdW  Elec       q    Type
                         _______ _______ _______ _____ _____    ______ ____

>  <TORSDO>
F 0

$$$$
=
 OpenBabel11112417413D

 28 32  0  0  1  0  0  0  0  0999 V2000
  190.7850  174.7640  141.9740 C   0  0  0  0  0  0  0  0  0  0  0  0
  189.3300  177.6230  141.9800 O   0  0  0  0  0  0  0  0  0  0  0  0
  190.4900  175.2480  147.9410 O   0  0  0  0  0  0  0  0  0  0  0  0
  189.0510  172.8350  140.9060 C   0  0  0  0  0  3  0  0  0  0  0  0
  188.9130  176.7240  146.8760 C   0  0  1  0  0  3  0  0  0  0  0  0
  191.8360  175.6440  142.5530 C   0  0  0  0  0  2  0  0  0  0  0  0
  187.4480  176.5240  140.8400 O   0  0  0  0  0  0  0  0  0  0  0  0
  187.9010  177.1770  142.1150 S   0  0  0  0  0  0  0  0  0  0  0  0
  186.3140  178.7330  143.7230 C   0  0  0  0  0  0  0  0  0  0  0  0
  187.6890  176.0260  143.4760 C   0  0  2  0  0  3  0  0  0  0  0  0
  193.2010  173.6060  145.2200 O   0  0  0  0  0  0  0  0  0  0  0  0
  189.8320  176.2500  144.6160 C   0  0  1  0  0  3  0  0  0  0  0  0
  186.5290  177.9240  144.7180 N   0  0  0  0  0  0  0  0  0  0  0  0
  186.9160  178.5460  142.4440 N   0  0  0  0  0  2  0  0  0  0  0  0
  192.6970  174.6320  144.6950 C   0  0  0  0  0  0  0  0  0  0  0  0
  189.5410  174.5130  142.6080 C   0  0  0  0  0  0  0  0  0  0  0  0
  190.0370  175.7690  146.8870 C   0  0  0  0  0  0  0  0  0  0  0  0
  185.3710  179.8670  143.9110 C   0  0  0  0  0  1  0  0  0  0  0  0
  192.0930  175.6770  145.5660 C   0  0  0  0  0  2  0  0  0  0  0  0
  188.6960  173.5360  142.0580 C   0  0  0  0  0  3  0  0  0  0  0  0
  191.1290  174.0520  140.8170 C   0  0  0  0  0  3  0  0  0  0  0  0
  190.2660  173.0980  140.2800 C   0  0  0  0  0  3  0  0  0  0  0  0
  192.7760  174.8090  143.2830 N   0  0  0  0  0  2  0  0  0  0  0  0
  188.7990  177.1090  145.3810 C   0  0  1  0  0  3  0  0  0  0  0  0
  190.6420  175.5740  145.6230 N   0  0  0  0  0  0  0  0  0  0  0  0
  187.4390  176.7740  144.7710 C   0  0  2  0  0  3  0  0  0  0  0  0
  187.6710  176.0810  147.4880 C   0  0  0  0  0  1  0  0  0  0  0  0
  188.9770  175.2700  143.7980 C   0  0  2  0  0  3  0  0  0  0  0  0
  1  6  1  0  0  0  0
  1 16  1  0  0  0  0
  2  8  2  0  0  0  0
  4 20  1  0  0  0  0
  5 17  1  0  0  0  0
  5 27  1  6  0  0  0
  6 23  1  0  0  0  0
  7  8  2  0  0  0  0
  8 14  1  0  0  0  0
  9 18  1  0  0  0  0
  9 13  2  0  0  0  0
 10  8  1  6  0  0  0
 10 28  1  0  0  0  0
 10 26  1  0  0  0  0
 12 24  1  0  0  0  0
 12 25  1  1  0  0  0
 13 26  1  0  0  0  0
 14  9  1  0  0  0  0
 15 11  2  0  0  0  0
 15 19  1  0  0  0  0
 16 28  1  0  0  0  0
 17  3  2  0  0  0  0
 19 25  1  0  0  0  0
 20 16  2  0  0  0  0
 21  1  2  0  0  0  0
 22 21  1  0  0  0  0
 22  4  2  0  0  0  0
 23 15  1  0  0  0  0
 24  5  1  0  0  0  0
 25 17  1  0  0  0  0
 26 24  1  0  0  0  0
 28 12  1  0  0  0  0
M  END
>  <MODEL>
4

>  <REMARK>
 VINA RESULT:      -8.0      2.208      6.364
  Name = 
  0 active torsions:
  status: ('A' for Active; 'I' for Inactive)
                            x       y       z     vdW  Elec       q    Type
                         _______ _______ _______ _____ _____    ______ ____

>  <TORSDO>
F 0

$$$$
=
 OpenBabel11112417413D

 28 32  0  0  1  0  0  0  0  0999 V2000
  188.6370  175.9540  145.6440 C   0  0  0  0  0  0  0  0  0  0  0  0
  189.0790  173.4390  143.7020 O   0  0  0  0  0  0  0  0  0  0  0  0
  194.6120  176.4050  145.4690 O   0  0  0  0  0  0  0  0  0  0  0  0
  187.3060  177.9910  144.2480 C   0  0  0  0  0  3  0  0  0  0  0  0
  193.7890  175.1010  143.6180 C   0  0  1  0  0  3  0  0  0  0  0  0
  189.3340  174.9910  146.5400 C   0  0  0  0  0  2  0  0  0  0  0  0
  187.8010  174.6850  142.0100 O   0  0  0  0  0  0  0  0  0  0  0  0
  189.1550  174.1530  142.3810 S   0  0  0  0  0  0  0  0  0  0  0  0
  190.9880  173.1620  140.5960 C   0  0  0  0  0  0  0  0  0  0  0  0
  190.3320  175.5080  142.4250 C   0  0  2  0  0  3  0  0  0  0  0  0
  191.6580  177.1120  148.3360 O   0  0  0  0  0  0  0  0  0  0  0  0
  191.4770  175.0660  144.5300 C   0  0  1  0  0  3  0  0  0  0  0  0
  191.8510  174.0540  140.9870 N   0  0  0  0  0  0  0  0  0  0  0  0
  189.6920  173.0480  141.1790 N   0  0  0  0  0  2  0  0  0  0  0  0
  191.2950  176.1300  147.6400 C   0  0  0  0  0  0  0  0  0  0  0  0
  189.2360  176.5170  144.4880 C   0  0  0  0  0  0  0  0  0  0  0  0
  193.6510  175.8260  144.8940 C   0  0  0  0  0  0  0  0  0  0  0  0
  191.3490  172.2580  139.4730 C   0  0  0  0  0  1  0  0  0  0  0  0
  192.3160  175.3500  146.8880 C   0  0  0  0  0  2  0  0  0  0  0  0
  188.5520  177.5410  143.8120 C   0  0  0  0  0  3  0  0  0  0  0  0
  187.3850  176.4160  146.0710 C   0  0  0  0  0  3  0  0  0  0  0  0
  186.7170  177.4220  145.3750 C   0  0  0  0  0  3  0  0  0  0  0  0
  189.9250  175.7380  147.6380 N   0  0  0  0  0  2  0  0  0  0  0  0
  192.3690  174.5300  143.3870 C   0  0  1  0  0  3  0  0  0  0  0  0
  192.3670  175.7220  145.4820 N   0  0  0  0  0  0  0  0  0  0  0  0
  191.7250  175.0150  142.0890 C   0  0  2  0  0  3  0  0  0  0  0  0
  194.3080  176.0410  142.5320 C   0  0  0  0  0  1  0  0  0  0  0  0
  190.5290  176.0570  143.8380 C   0  0  2  0  0  3  0  0  0  0  0  0
  1 21  1  0  0  0  0
  1  6  1  0  0  0  0
  4 22  1  0  0  0  0
  5 27  1  6  0  0  0
  5 17  1  0  0  0  0
  6 23  1  0  0  0  0
  7  8  2  0  0  0  0
  8  2  2  0  0  0  0
  9 13  2  0  0  0  0
  9 14  1  0  0  0  0
 10  8  1  1  0  0  0
 10 28  1  0  0  0  0
 12 25  1  1  0  0  0
 13 26  1  0  0  0  0
 14  8  1  0  0  0  0
 15 11  2  0  0  0  0
 16  1  2  0  0  0  0
 17  3  2  0  0  0  0
 17 25  1  0  0  0  0
 18  9  1  0  0  0  0
 19 15  1  0  0  0  0
 20  4  2  0  0  0  0
 20 16  1  0  0  0  0
 22 21  2  0  0  0  0
 23 15  1  0  0  0  0
 24  5  1  0  0  0  0
 24 12  1  0  0  0  0
 25 19  1  0  0  0  0
 26 10  1  0  0  0  0
 26 24  1  0  0  0  0
 28 16  1  0  0  0  0
 28 12  1  0  0  0  0
M  END
>  <MODEL>
5

>  <REMARK>
 VINA RESULT:      -7.8      2.684      5.606
  Name = 
  0 active torsions:
  status: ('A' for Active; 'I' for Inactive)
                            x       y       z     vdW  Elec       q    Type
                         _______ _______ _______ _____ _____    ______ ____

>  <TORSDO>
F 0

$$$$
=
 OpenBabel11112417413D

 28 32  0  0  1  0  0  0  0  0999 V2000
  191.6380  174.1160  142.9230 C   0  0  0  0  0  0  0  0  0  0  0  0
  189.4860  174.1380  145.3030 O   0  0  0  0  0  0  0  0  0  0  0  0
  187.1730  176.4010  139.6410 O   0  0  0  0  0  0  0  0  0  0  0  0
  193.6810  175.9520  143.4930 C   0  0  0  0  0  3  0  0  0  0  0  0
  186.7530  176.6960  141.9940 C   0  0  1  0  0  3  0  0  0  0  0  0
  190.6560  173.0970  142.4610 C   0  0  0  0  0  2  0  0  0  0  0  0
  190.9690  175.7250  146.4560 O   0  0  0  0  0  0  0  0  0  0  0  0
  189.6430  175.5580  145.7700 S   0  0  0  0  0  0  0  0  0  0  0  0
  187.3290  176.8320  146.5090 C   0  0  0  0  0  0  0  0  0  0  0  0
  189.5320  176.7210  144.4080 C   0  0  2  0  0  3  0  0  0  0  0  0
  190.3720  173.8130  138.9200 O   0  0  0  0  0  0  0  0  0  0  0  0
  188.6970  175.2820  142.6280 C   0  0  1  0  0  3  0  0  0  0  0  0
  187.2430  177.3630  145.3250 N   0  0  0  0  0  0  0  0  0  0  0  0
  188.3740  175.9300  146.8660 N   0  0  0  0  0  2  0  0  0  0  0  0
  189.9630  173.6080  140.0920 C   0  0  0  0  0  0  0  0  0  0  0  0
  191.3200  175.4890  143.0830 C   0  0  0  0  0  0  0  0  0  0  0  0
  187.4960  176.1640  140.8360 C   0  0  0  0  0  0  0  0  0  0  0  0
  186.3290  177.2130  147.5410 C   0  0  0  0  0  1  0  0  0  0  0  0
  188.5760  174.0020  140.4610 C   0  0  0  0  0  2  0  0  0  0  0  0
  192.3630  176.3880  143.3600 C   0  0  0  0  0  3  0  0  0  0  0  0
  192.9660  173.6910  143.0590 C   0  0  0  0  0  3  0  0  0  0  0  0
  193.9820  174.6000  143.3500 C   0  0  0  0  0  3  0  0  0  0  0  0
  190.8080  172.9390  141.0240 N   0  0  0  0  0  2  0  0  0  0  0  0
  187.4950  176.0680  143.1990 C   0  0  1  0  0  3  0  0  0  0  0  0
  188.5370  175.2690  141.1780 N   0  0  0  0  0  0  0  0  0  0  0  0
  188.0870  177.1060  144.1520 C   0  0  2  0  0  3  0  0  0  0  0  0
  186.7350  178.2210  141.9520 C   0  0  0  0  0  1  0  0  0  0  0  0
  189.9250  176.0890  143.0730 C   0  0  2  0  0  3  0  0  0  0  0  0
  1 21  2  0  0  0  0
  1 16  1  0  0  0  0
  2  8  2  0  0  0  0
  3 17  2  0  0  0  0
  5 27  1  1  0  0  0
  5 24  1  0  0  0  0
  6  1  1  0  0  0  0
  8  7  2  0  0  0  0
  8 14  1  0  0  0  0
  9 14  1  0  0  0  0
  9 18  1  0  0  0  0
 10  8  1  1  0  0  0
 11 15  2  0  0  0  0
 12 25  1  6  0  0  0
 12 28  1  0  0  0  0
 12 24  1  0  0  0  0
 13  9  2  0  0  0  0
 15 19  1  0  0  0  0
 15 23  1  0  0  0  0
 16 20  2  0  0  0  0
 17 25  1  0  0  0  0
 17  5  1  0  0  0  0
 19 25  1  0  0  0  0
 20  4  1  0  0  0  0
 21 22  1  0  0  0  0
 22  4  2  0  0  0  0
 23  6  1  0  0  0  0
 24 26  1  0  0  0  0
 26 10  1  0  0  0  0
 26 13  1  0  0  0  0
 28 16  1  0  0  0  0
 28 10  1  0  0  0  0
M  END
>  <MODEL>
6

>  <REMARK>
 VINA RESULT:      -7.6      2.313      5.376
  Name = 
  0 active torsions:
  status: ('A' for Active; 'I' for Inactive)
                            x       y       z     vdW  Elec       q    Type
                         _______ _______ _______ _____ _____    ______ ____

>  <TORSDO>
F 0

$$$$
=
 OpenBabel11112417413D

 28 32  0  0  1  0  0  0  0  0999 V2000
  189.0470  175.5550  144.4100 C   0  0  0  0  0  0  0  0  0  0  0  0
  192.1250  176.2950  143.8870 O   0  0  0  0  0  0  0  0  0  0  0  0
  190.5110  170.2600  142.0130 O   0  0  0  0  0  0  0  0  0  0  0  0
  188.5660  175.4550  147.1720 C   0  0  0  0  0  3  0  0  0  0  0  0
  192.4720  171.4380  142.7680 C   0  0  1  0  0  3  0  0  0  0  0  0
  189.1120  175.5720  142.9230 C   0  0  0  0  0  2  0  0  0  0  0  0
  192.3490  176.5330  146.3240 O   0  0  0  0  0  0  0  0  0  0  0  0
  192.7380  175.7110  145.1290 S   0  0  0  0  0  0  0  0  0  0  0  0
  195.1730  174.4920  144.7960 C   0  0  0  0  0  0  0  0  0  0  0  0
  192.2230  174.0110  145.3880 C   0  0  2  0  0  3  0  0  0  0  0  0
  187.1150  172.6910  142.0060 O   0  0  0  0  0  0  0  0  0  0  0  0
  191.1780  173.5060  143.2460 C   0  0  1  0  0  3  0  0  0  0  0  0
  194.5810  173.3370  144.6960 N   0  0  0  0  0  0  0  0  0  0  0  0
  194.4480  175.7080  144.9610 N   0  0  0  0  0  2  0  0  0  0  0  0
  188.1260  173.4390  142.0130 C   0  0  0  0  0  0  0  0  0  0  0  0
  189.7620  174.6290  145.2120 C   0  0  0  0  0  0  0  0  0  0  0  0
  191.0330  171.3130  142.4690 C   0  0  0  0  0  0  0  0  0  0  0  0
  196.6580  174.5410  144.7840 C   0  0  0  0  0  1  0  0  0  0  0  0
  189.4310  172.9050  141.5330 C   0  0  0  0  0  2  0  0  0  0  0  0
  189.4960  174.5940  146.5900 C   0  0  0  0  0  3  0  0  0  0  0  0
  188.1160  176.4160  145.0070 C   0  0  0  0  0  3  0  0  0  0  0  0
  187.8810  176.3730  146.3810 C   0  0  0  0  0  3  0  0  0  0  0  0
  187.9920  174.8000  142.4110 N   0  0  0  0  0  2  0  0  0  0  0  0
  192.6040  172.9110  143.2240 C   0  0  1  0  0  3  0  0  0  0  0  0
  190.3020  172.5140  142.6310 N   0  0  0  0  0  0  0  0  0  0  0  0
  193.1410  173.0580  144.6470 C   0  0  2  0  0  3  0  0  0  0  0  0
  192.8900  170.3890  143.7940 C   0  0  0  0  0  1  0  0  0  0  0  0
  190.8740  173.7090  144.7370 C   0  0  2  0  0  3  0  0  0  0  0  0
  1 21  2  0  0  0  0
  1 16  1  0  0  0  0
  2  8  2  0  0  0  0
  3 17  2  0  0  0  0
  5 24  1  0  0  0  0
  5 27  1  1  0  0  0
  6  1  1  0  0  0  0
  8  7  2  0  0  0  0
  9 14  1  0  0  0  0
 10  8  1  6  0  0  0
 11 15  2  0  0  0  0
 12 25  1  1  0  0  0
 12 28  1  0  0  0  0
 13  9  2  0  0  0  0
 14  8  1  0  0  0  0
 15 23  1  0  0  0  0
 16 20  2  0  0  0  0
 17 25  1  0  0  0  0
 17  5  1  0  0  0  0
 18  9  1  0  0  0  0
 19 15  1  0  0  0  0
 19 25  1  0  0  0  0
 20  4  1  0  0  0  0
 21 22  1  0  0  0  0
 22  4  2  0  0  0  0
 23  6  1  0  0  0  0
 24 12  1  0  0  0  0
 24 26  1  0  0  0  0
 26 13  1  0  0  0  0
 26 10  1  0  0  0  0
 28 16  1  0  0  0  0
 28 10  1  0  0  0  0
M  END
>  <MODEL>
7

>  <REMARK>
 VINA RESULT:      -7.5      2.849      4.164
  Name = 
  0 active torsions:
  status: ('A' for Active; 'I' for Inactive)
                            x       y       z     vdW  Elec       q    Type
                         _______ _______ _______ _____ _____    ______ ____

>  <TORSDO>
F 0

$$$$
=
 OpenBabel11112417413D

 28 32  0  0  1  0  0  0  0  0999 V2000
  188.4270  176.5830  144.5310 C   0  0  0  0  0  0  0  0  0  0  0  0
  189.4960  173.7540  143.4590 O   0  0  0  0  0  0  0  0  0  0  0  0
  193.9130  177.1110  146.8880 O   0  0  0  0  0  0  0  0  0  0  0  0
  187.9580  178.2910  142.3560 C   0  0  0  0  0  3  0  0  0  0  0  0
  193.8830  175.4640  145.1310 C   0  0  1  0  0  3  0  0  0  0  0  0
  188.6070  175.8210  145.7970 C   0  0  0  0  0  2  0  0  0  0  0  0
  189.1520  174.6300  141.1870 O   0  0  0  0  0  0  0  0  0  0  0  0
  190.1790  174.2060  142.1990 S   0  0  0  0  0  0  0  0  0  0  0  0
  192.5320  172.9310  141.5960 C   0  0  0  0  0  0  0  0  0  0  0  0
  191.3070  175.5680  142.5040 C   0  0  2  0  0  3  0  0  0  0  0  0
  190.0660  178.2910  148.0110 O   0  0  0  0  0  0  0  0  0  0  0  0
  191.4060  175.5570  144.9390 C   0  0  1  0  0  3  0  0  0  0  0  0
  193.1990  173.8990  142.1540 N   0  0  0  0  0  0  0  0  0  0  0  0
  191.1070  172.9040  141.5680 N   0  0  0  0  0  2  0  0  0  0  0  0
  189.9750  177.1880  147.4150 C   0  0  0  0  0  0  0  0  0  0  0  0
  189.4990  176.9280  143.6690 C   0  0  0  0  0  0  0  0  0  0  0  0
  193.2560  176.4160  146.0670 C   0  0  0  0  0  0  0  0  0  0  0  0
  193.2810  171.8380  140.9230 C   0  0  0  0  0  1  0  0  0  0  0  0
  191.1680  176.3000  147.3340 C   0  0  0  0  0  2  0  0  0  0  0  0
  189.2390  177.7910  142.5920 C   0  0  0  0  0  3  0  0  0  0  0  0
  187.1450  177.0920  144.2820 C   0  0  0  0  0  3  0  0  0  0  0  0
  186.9080  177.9350  143.1970 C   0  0  0  0  0  3  0  0  0  0  0  0
  188.7160  176.7750  146.8890 N   0  0  0  0  0  2  0  0  0  0  0  0
  192.6660  174.8320  144.4130 C   0  0  1  0  0  3  0  0  0  0  0  0
  191.8410  176.3990  146.0470 N   0  0  0  0  0  0  0  0  0  0  0  0
  192.6750  175.0480  142.9010 C   0  0  2  0  0  3  0  0  0  0  0  0
  194.8760  176.1910  144.2280 C   0  0  0  0  0  1  0  0  0  0  0  0
  190.9130  176.3790  143.7390 C   0  0  2  0  0  3  0  0  0  0  0  0
  1  6  1  0  0  0  0
  4 20  2  0  0  0  0
  4 22  1  0  0  0  0
  5 27  1  6  0  0  0
  5 17  1  0  0  0  0
  6 23  1  0  0  0  0
  7  8  2  0  0  0  0
  8  2  2  0  0  0  0
  9 13  2  0  0  0  0
 10  8  1  1  0  0  0
 10 26  1  0  0  0  0
 10 28  1  0  0  0  0
 12 25  1  1  0  0  0
 13 26  1  0  0  0  0
 14  9  1  0  0  0  0
 14  8  1  0  0  0  0
 15 11  2  0  0  0  0
 16 28  1  0  0  0  0
 16  1  2  0  0  0  0
 17  3  2  0  0  0  0
 18  9  1  0  0  0  0
 19 15  1  0  0  0  0
 20 16  1  0  0  0  0
 21  1  1  0  0  0  0
 22 21  2  0  0  0  0
 23 15  1  0  0  0  0
 24 12  1  0  0  0  0
 24  5  1  0  0  0  0
 25 17  1  0  0  0  0
 25 19  1  0  0  0  0
 26 24  1  0  0  0  0
 28 12  1  0  0  0  0
M  END
>  <MODEL>
8

>  <REMARK>
 VINA RESULT:      -7.4      2.708      5.502
  Name = 
  0 active torsions:
  status: ('A' for Active; 'I' for Inactive)
                            x       y       z     vdW  Elec       q    Type
                         _______ _______ _______ _____ _____    ______ ____

>  <TORSDO>
F 0

$$$$
=
 OpenBabel11112417413D

 28 32  0  0  1  0  0  0  0  0999 V2000
  186.0650  177.0010  143.7870 C   0  0  0  0  0  0  0  0  0  0  0  0
  187.5710  174.4140  142.6320 O   0  0  0  0  0  0  0  0  0  0  0  0
  190.6450  177.2320  147.6470 O   0  0  0  0  0  0  0  0  0  0  0  0
  186.1010  179.0410  141.8610 C   0  0  0  0  0  3  0  0  0  0  0  0
  191.2070  175.9030  145.7180 C   0  0  1  0  0  3  0  0  0  0  0  0
  185.9400  176.0410  144.9170 C   0  0  0  0  0  2  0  0  0  0  0  0
  187.8080  175.6530  140.5210 O   0  0  0  0  0  0  0  0  0  0  0  0
  188.5430  175.0840  141.7020 S   0  0  0  0  0  0  0  0  0  0  0  0
  191.0500  173.9750  141.5960 C   0  0  0  0  0  0  0  0  0  0  0  0
  189.4510  176.3980  142.5220 C   0  0  2  0  0  3  0  0  0  0  0  0
  186.5680  178.1300  147.8100 O   0  0  0  0  0  0  0  0  0  0  0  0
  188.8780  175.9790  144.8530 C   0  0  1  0  0  3  0  0  0  0  0  0
  191.4720  174.8480  142.4640 N   0  0  0  0  0  0  0  0  0  0  0  0
  189.6920  173.9260  141.1630 N   0  0  0  0  0  2  0  0  0  0  0  0
  186.7170  177.1420  147.0470 C   0  0  0  0  0  0  0  0  0  0  0  0
  187.3070  177.5070  143.3270 C   0  0  0  0  0  0  0  0  0  0  0  0
  190.2860  176.6710  146.5770 C   0  0  0  0  0  0  0  0  0  0  0  0
  192.0250  173.0250  141.0000 C   0  0  0  0  0  1  0  0  0  0  0  0
  187.9420  176.3030  147.1690 C   0  0  0  0  0  2  0  0  0  0  0  0
  187.2970  178.5330  142.3680 C   0  0  0  0  0  3  0  0  0  0  0  0
  184.8700  177.5190  143.2690 C   0  0  0  0  0  3  0  0  0  0  0  0
  184.8860  178.5280  142.3060 C   0  0  0  0  0  3  0  0  0  0  0  0
  185.6820  176.7990  146.1300 N   0  0  0  0  0  2  0  0  0  0  0  0
  190.2780  175.3770  144.5970 C   0  0  1  0  0  3  0  0  0  0  0  0
  188.9350  176.6310  146.1560 N   0  0  0  0  0  0  0  0  0  0  0  0
  190.6880  175.8450  143.2020 C   0  0  2  0  0  3  0  0  0  0  0  0
  192.3600  176.7910  145.2580 C   0  0  0  0  0  1  0  0  0  0  0  0
  188.6810  176.9810  143.7060 C   0  0  2  0  0  3  0  0  0  0  0  0
  1  6  1  0  0  0  0
  4 22  2  0  0  0  0
  4 20  1  0  0  0  0
  5 27  1  6  0  0  0
  5 17  1  0  0  0  0
  6 23  1  0  0  0  0
  7  8  2  0  0  0  0
  8  2  2  0  0  0  0
  9 13  2  0  0  0  0
 10  8  1  1  0  0  0
 10 26  1  0  0  0  0
 10 28  1  0  0  0  0
 12 25  1  1  0  0  0
 13 26  1  0  0  0  0
 14  9  1  0  0  0  0
 14  8  1  0  0  0  0
 15 19  1  0  0  0  0
 15 11  2  0  0  0  0
 16 28  1  0  0  0  0
 16  1  1  0  0  0  0
 17  3  2  0  0  0  0
 18  9  1  0  0  0  0
 20 16  2  0  0  0  0
 21  1  2  0  0  0  0
 22 21  1  0  0  0  0
 23 15  1  0  0  0  0
 24 12  1  0  0  0  0
 24  5  1  0  0  0  0
 25 17  1  0  0  0  0
 25 19  1  0  0  0  0
 26 24  1  0  0  0  0
 28 12  1  0  0  0  0
M  END
>  <MODEL>
9

>  <REMARK>
 VINA RESULT:      -7.3      2.242      4.756
  Name = 
  0 active torsions:
  status: ('A' for Active; 'I' for Inactive)
                            x       y       z     vdW  Elec       q    Type
                         _______ _______ _______ _____ _____    ______ ____

>  <TORSDO>
F 0

$$$$
