=
 OpenBabel11112416383D

 32 38  0  0  1  0  0  0  0  0999 V2000
  192.2340  175.0030  144.1060 C   0  0  1  0  0  3  0  0  0  0  0  0
  187.5390  177.2310  143.5080 C   0  0  0  0  0  0  0  0  0  0  0  0
  186.2900  178.5610  148.0050 C   0  0  0  0  0  3  0  0  0  0  0  0
  184.8820  178.6920  147.5830 C   0  0  0  0  0  3  0  0  0  0  0  0
  185.9330  177.4330  141.6830 C   0  0  0  0  0  0  0  0  0  0  0  0
  184.6470  177.8010  141.3090 C   0  0  0  0  0  0  0  0  0  0  0  0
  189.9360  176.6090  143.0450 C   0  0  1  0  0  3  0  0  0  0  0  0
  189.2590  177.1800  145.3490 C   0  0  0  0  0  2  0  0  0  0  0  0
  182.6080  178.5040  141.5250 N   0  0  0  0  0  0  0  0  0  0  0  0
  191.3810  175.8580  145.0470 C   0  0  2  0  0  3  0  0  0  0  0  0
  187.1930  177.9770  147.2110 C   0  0  0  0  0  3  0  0  0  0  0  0
  187.8680  177.3510  144.9100 N   0  0  0  0  0  0  0  0  0  0  0  0
  186.7930  177.3320  145.9030 C   0  0  2  0  0  3  0  0  0  0  0  0
  185.2630  177.8990  144.0230 C   0  0  0  0  0  0  0  0  0  0  0  0
  182.8560  178.2700  140.2420 N   0  0  0  0  0  0  0  0  0  0  0  0
  191.5210  174.5980  142.7950 C   0  0  0  0  0  2  0  0  0  0  0  0
  189.9660  176.1340  144.5010 C   0  0  2  0  0  3  0  0  0  0  0  0
  184.1060  177.8370  140.0760 N   0  0  0  0  0  0  0  0  0  0  0  0
  190.6940  175.6860  142.0900 C   0  0  0  0  0  2  0  0  0  0  0  0
  192.5050  176.4950  144.2350 C   0  0  1  0  0  3  0  0  0  0  0  0
  184.5150  178.4050  146.3330 C   0  0  0  0  0  3  0  0  0  0  0  0
  185.5160  177.9210  145.3510 C   0  0  1  0  0  3  0  0  0  0  0  0
  183.9790  178.2800  143.5640 C   0  0  0  0  0  3  0  0  0  0  0  0
  188.5610  176.7860  142.6040 N   0  0  0  0  0  0  0  0  0  0  0  0
  186.8300  177.0340  140.6980 O   0  0  0  0  0  1  0  0  0  0  0  0
  181.3410  178.9820  142.0530 C   0  0  0  0  0  1  0  0  0  0  0  0
  186.2770  177.4960  143.0740 C   0  0  0  0  0  0  0  0  0  0  0  0
  183.7240  178.2160  142.2050 C   0  0  0  0  0  0  0  0  0  0  0  0
  193.7080  176.7100  145.1340 C   0  0  0  0  0  2  0  0  0  0  0  0
  194.7260  175.7160  144.8430 N   0  0  0  0  0  0  0  0  0  0  0  0
  195.7910  176.3940  144.1260 C   0  0  0  0  0  1  0  0  0  0  0  0
  195.2840  175.3060  146.1190 C   0  0  0  0  0  1  0  0  0  0  0  0
  1 16  1  6  0  0  0
  1 20  1  0  0  0  0
  1 10  1  0  0  0  0
  2 12  1  0  0  0  0
  4  3  1  0  0  0  0
  5 27  1  0  0  0  0
  6  5  2  0  0  0  0
  6 28  1  0  0  0  0
  7 19  1  6  0  0  0
  7 17  1  0  0  0  0
  9 26  1  0  0  0  0
  9 28  1  0  0  0  0
 11  3  2  0  0  0  0
 12  8  1  0  0  0  0
 12 13  1  0  0  0  0
 13 11  1  0  0  0  0
 14 22  1  0  0  0  0
 15  9  1  0  0  0  0
 17 10  1  0  0  0  0
 17  8  1  0  0  0  0
 18 15  2  0  0  0  0
 18  6  1  0  0  0  0
 19 16  1  0  0  0  0
 20 10  1  0  0  0  0
 20 29  1  0  0  0  0
 21  4  2  0  0  0  0
 22 13  1  0  0  0  0
 22 21  1  0  0  0  0
 23 14  1  0  0  0  0
 24  7  1  0  0  0  0
 24  2  2  0  0  0  0
 25  5  1  0  0  0  0
 27  2  1  0  0  0  0
 27 14  2  0  0  0  0
 28 23  2  0  0  0  0
 30 29  1  0  0  0  0
 30 32  1  0  0  0  0
 31 30  1  0  0  0  0
M  END
>  <MODEL>
1

>  <REMARK>
 VINA RESULT:      -9.1      0.000      0.000
  Name = 
  2 active torsions:
  status: ('A' for Active; 'I' for Inactive)
    1  A    between atoms: C_20  and  C_29
    2  A    between atoms: C_29  and  N_30
                            x       y       z     vdW  Elec       q    Type
                         _______ _______ _______ _____ _____    ______ ____

>  <TORSDO>
F 2

$$$$
=
 OpenBabel11112416383D

 32 38  0  0  1  0  0  0  0  0999 V2000
  185.2660  177.1270  146.7180 C   0  0  1  0  0  3  0  0  0  0  0  0
  189.8710  176.0690  144.4720 C   0  0  0  0  0  0  0  0  0  0  0  0
  188.6700  174.1660  140.1730 C   0  0  0  0  0  3  0  0  0  0  0  0
  190.0270  173.6030  140.0340 C   0  0  0  0  0  3  0  0  0  0  0  0
  192.1990  176.0720  145.2000 C   0  0  0  0  0  0  0  0  0  0  0  0
  193.5070  175.7180  144.8960 C   0  0  0  0  0  0  0  0  0  0  0  0
  188.1120  177.2990  145.7920 C   0  0  1  0  0  3  0  0  0  0  0  0
  187.4920  176.2290  143.6560 C   0  0  0  0  0  2  0  0  0  0  0  0
  195.1560  174.8680  143.7760 N   0  0  0  0  0  0  0  0  0  0  0  0
  185.6420  176.7570  145.2800 C   0  0  2  0  0  3  0  0  0  0  0  0
  188.2550  174.6780  141.3350 C   0  0  0  0  0  3  0  0  0  0  0  0
  188.8580  175.7100  143.5060 N   0  0  0  0  0  0  0  0  0  0  0  0
  189.1110  174.6060  142.5800 C   0  0  2  0  0  3  0  0  0  0  0  0
  191.5220  174.9190  143.1130 C   0  0  0  0  0  0  0  0  0  0  0  0
  195.6260  175.4420  144.8760 N   0  0  0  0  0  0  0  0  0  0  0  0
  186.4360  177.0280  147.7240 C   0  0  0  0  0  2  0  0  0  0  0  0
  187.1190  176.3430  145.1260 C   0  0  2  0  0  3  0  0  0  0  0  0
  194.6340  175.9780  145.5880 N   0  0  0  0  0  0  0  0  0  0  0  0
  187.7970  177.5740  147.2630 C   0  0  0  0  0  2  0  0  0  0  0  0
  185.4350  178.2180  145.6700 C   0  0  1  0  0  3  0  0  0  0  0  0
  190.9330  173.7610  141.0020 C   0  0  0  0  0  3  0  0  0  0  0  0
  190.5800  174.4830  142.2480 C   0  0  1  0  0  3  0  0  0  0  0  0
  192.8800  174.6130  142.8590 C   0  0  0  0  0  3  0  0  0  0  0  0
  189.4690  176.7960  145.6430 N   0  0  0  0  0  0  0  0  0  0  0  0
  191.9530  176.7910  146.3660 O   0  0  0  0  0  1  0  0  0  0  0  0
  195.9700  174.1890  142.7820 C   0  0  0  0  0  1  0  0  0  0  0  0
  191.1640  175.6890  144.2850 C   0  0  0  0  0  0  0  0  0  0  0  0
  193.8290  175.0350  143.7750 C   0  0  0  0  0  0  0  0  0  0  0  0
  184.0670  178.6710  145.1940 C   0  0  0  0  0  2  0  0  0  0  0  0
  184.1980  179.4160  143.9530 N   0  0  0  0  0  0  0  0  0  0  0  0
  185.5660  179.8970  143.8880 C   0  0  0  0  0  1  0  0  0  0  0  0
  184.0450  178.4570  142.8740 C   0  0  0  0  0  1  0  0  0  0  0  0
  1 16  1  1  0  0  0
  2 24  2  0  0  0  0
  3 11  2  0  0  0  0
  4  3  1  0  0  0  0
  4 21  2  0  0  0  0
  5 25  1  0  0  0  0
  6  5  1  0  0  0  0
  6 18  1  0  0  0  0
  7 19  1  1  0  0  0
  8 17  1  0  0  0  0
  9 15  1  0  0  0  0
 10 20  1  0  0  0  0
 10  1  1  0  0  0  0
 11 13  1  0  0  0  0
 12  8  1  0  0  0  0
 12  2  1  0  0  0  0
 13 12  1  0  0  0  0
 14 27  1  0  0  0  0
 15 18  2  0  0  0  0
 17 10  1  0  0  0  0
 17  7  1  0  0  0  0
 19 16  1  0  0  0  0
 20  1  1  0  0  0  0
 21 22  1  0  0  0  0
 22 13  1  0  0  0  0
 22 14  1  0  0  0  0
 23 14  2  0  0  0  0
 23 28  1  0  0  0  0
 24  7  1  0  0  0  0
 26  9  1  0  0  0  0
 27  2  1  0  0  0  0
 27  5  2  0  0  0  0
 28  9  1  0  0  0  0
 28  6  2  0  0  0  0
 29 20  1  0  0  0  0
 30 29  1  0  0  0  0
 31 30  1  0  0  0  0
 32 30  1  0  0  0  0
M  END
>  <MODEL>
2

>  <REMARK>
 VINA RESULT:      -8.6      2.266      8.709
  Name = 
  2 active torsions:
  status: ('A' for Active; 'I' for Inactive)
    1  A    between atoms: C_20  and  C_29
    2  A    between atoms: C_29  and  N_30
                            x       y       z     vdW  Elec       q    Type
                         _______ _______ _______ _____ _____    ______ ____

>  <TORSDO>
F 2

$$$$
=
 OpenBabel11112416383D

 32 38  0  0  1  0  0  0  0  0999 V2000
  185.6190  179.2640  143.4990 C   0  0  1  0  0  3  0  0  0  0  0  0
  188.9850  175.2710  143.1940 C   0  0  0  0  0  0  0  0  0  0  0  0
  191.8020  175.8090  147.1090 C   0  0  0  0  0  3  0  0  0  0  0  0
  192.8130  174.9160  146.5130 C   0  0  0  0  0  3  0  0  0  0  0  0
  189.5290  173.5840  141.5190 C   0  0  0  0  0  0  0  0  0  0  0  0
  190.4060  172.5800  141.1310 C   0  0  0  0  0  0  0  0  0  0  0  0
  186.8180  176.5510  143.0700 C   0  0  1  0  0  3  0  0  0  0  0  0
  188.3160  176.8970  145.0000 C   0  0  0  0  0  2  0  0  0  0  0  0
  192.1340  171.2740  141.2050 N   0  0  0  0  0  0  0  0  0  0  0  0
  186.6050  178.6790  144.5130 C   0  0  2  0  0  3  0  0  0  0  0  0
  190.7820  176.2730  146.3810 C   0  0  0  0  0  3  0  0  0  0  0  0
  189.2980  175.9710  144.4190 N   0  0  0  0  0  0  0  0  0  0  0  0
  190.6800  175.9950  144.8980 C   0  0  2  0  0  3  0  0  0  0  0  0
  191.0590  174.0310  143.4160 C   0  0  0  0  0  0  0  0  0  0  0  0
  191.3960  170.9610  140.1470 N   0  0  0  0  0  0  0  0  0  0  0  0
  185.7400  178.6660  142.0780 C   0  0  0  0  0  2  0  0  0  0  0  0
  187.5380  177.6120  143.9070 C   0  0  2  0  0  3  0  0  0  0  0  0
  190.3220  171.7470  140.0740 N   0  0  0  0  0  0  0  0  0  0  0  0
  185.9220  177.1430  141.9810 C   0  0  0  0  0  2  0  0  0  0  0  0
  185.1330  178.2800  144.5530 C   0  0  1  0  0  3  0  0  0  0  0  0
  192.6360  174.4000  145.2950 C   0  0  0  0  0  3  0  0  0  0  0  0
  191.4260  174.7400  144.5070 C   0  0  1  0  0  3  0  0  0  0  0  0
  191.8950  172.9780  142.9710 C   0  0  0  0  0  3  0  0  0  0  0  0
  187.7830  175.6260  142.4940 N   0  0  0  0  0  0  0  0  0  0  0  0
  188.3910  173.8120  140.7530 O   0  0  0  0  0  1  0  0  0  0  0  0
  193.3750  170.6130  141.5750 C   0  0  0  0  0  1  0  0  0  0  0  0
  189.8360  174.3290  142.7050 C   0  0  0  0  0  0  0  0  0  0  0  0
  191.5250  172.2860  141.8310 C   0  0  0  0  0  0  0  0  0  0  0  0
  184.4410  179.0410  145.6680 C   0  0  0  0  0  2  0  0  0  0  0  0
  184.4560  178.2510  146.8880 N   0  0  0  0  0  0  0  0  0  0  0  0
  184.8160  176.8950  146.5130 C   0  0  0  0  0  1  0  0  0  0  0  0
  185.5470  178.7590  147.6990 C   0  0  0  0  0  1  0  0  0  0  0  0
  1 16  1  6  0  0  0
  1 10  1  0  0  0  0
  1 20  1  0  0  0  0
  2 12  1  0  0  0  0
  4  3  1  0  0  0  0
  5 27  1  0  0  0  0
  6  5  2  0  0  0  0
  6 28  1  0  0  0  0
  7 19  1  6  0  0  0
  7 17  1  0  0  0  0
  9 26  1  0  0  0  0
  9 28  1  0  0  0  0
 10 20  1  0  0  0  0
 11  3  2  0  0  0  0
 12 13  1  0  0  0  0
 12  8  1  0  0  0  0
 13 11  1  0  0  0  0
 14 22  1  0  0  0  0
 15  9  1  0  0  0  0
 17 10  1  0  0  0  0
 17  8  1  0  0  0  0
 18 15  2  0  0  0  0
 18  6  1  0  0  0  0
 19 16  1  0  0  0  0
 20 29  1  0  0  0  0
 21  4  2  0  0  0  0
 22 13  1  0  0  0  0
 22 21  1  0  0  0  0
 23 14  1  0  0  0  0
 24  7  1  0  0  0  0
 24  2  2  0  0  0  0
 25  5  1  0  0  0  0
 27  2  1  0  0  0  0
 27 14  2  0  0  0  0
 28 23  2  0  0  0  0
 29 30  1  0  0  0  0
 30 32  1  0  0  0  0
 31 30  1  0  0  0  0
M  END
>  <MODEL>
3

>  <REMARK>
 VINA RESULT:      -8.3      2.722      7.709
  Name = 
  2 active torsions:
  status: ('A' for Active; 'I' for Inactive)
    1  A    between atoms: C_20  and  C_29
    2  A    between atoms: C_29  and  N_30
                            x       y       z     vdW  Elec       q    Type
                         _______ _______ _______ _____ _____    ______ ____

>  <TORSDO>
F 2

$$$$
=
 OpenBabel11112416383D

 32 38  0  0  1  0  0  0  0  0999 V2000
  195.3550  175.4210  145.1060 C   0  0  1  0  0  3  0  0  0  0  0  0
  190.2050  176.3310  145.2150 C   0  0  0  0  0  0  0  0  0  0  0  0
  188.6290  174.6730  140.9350 C   0  0  0  0  0  3  0  0  0  0  0  0
  187.3790  175.4410  141.0890 C   0  0  0  0  0  3  0  0  0  0  0  0
  188.6870  177.5440  146.6890 C   0  0  0  0  0  0  0  0  0  0  0  0
  187.4050  178.0440  146.8710 C   0  0  0  0  0  0  0  0  0  0  0  0
  192.5070  175.6720  146.0020 C   0  0  1  0  0  3  0  0  0  0  0  0
  191.7310  174.9300  143.7790 C   0  0  0  0  0  2  0  0  0  0  0  0
  185.3410  178.5160  146.4080 N   0  0  0  0  0  0  0  0  0  0  0  0
  194.2120  174.9320  144.2130 C   0  0  2  0  0  3  0  0  0  0  0  0
  189.6660  174.8770  141.7520 C   0  0  0  0  0  3  0  0  0  0  0  0
  190.4710  175.6630  143.9610 N   0  0  0  0  0  0  0  0  0  0  0  0
  189.6440  175.9740  142.7940 C   0  0  2  0  0  3  0  0  0  0  0  0
  187.9790  176.8720  144.4110 C   0  0  0  0  0  0  0  0  0  0  0  0
  185.6180  178.9310  147.6380 N   0  0  0  0  0  0  0  0  0  0  0  0
  194.9390  176.4950  146.1380 C   0  0  0  0  0  2  0  0  0  0  0  0
  192.8670  175.6240  144.5140 C   0  0  2  0  0  3  0  0  0  0  0  0
  186.8830  178.6540  147.9540 N   0  0  0  0  0  0  0  0  0  0  0  0
  193.6100  176.2700  146.8750 C   0  0  0  0  0  2  0  0  0  0  0  0
  194.7350  174.0520  145.3440 C   0  0  1  0  0  3  0  0  0  0  0  0
  187.1830  176.2190  142.1550 C   0  0  0  0  0  3  0  0  0  0  0  0
  188.2350  176.3450  143.1940 C   0  0  1  0  0  3  0  0  0  0  0  0
  186.6870  177.3860  144.6770 C   0  0  0  0  0  3  0  0  0  0  0  0
  191.2560  176.3920  146.1910 N   0  0  0  0  0  0  0  0  0  0  0  0
  189.6050  177.6580  147.7280 O   0  0  0  0  0  1  0  0  0  0  0  0
  184.0520  178.6650  145.7520 C   0  0  0  0  0  1  0  0  0  0  0  0
  188.9980  176.9170  145.4370 C   0  0  0  0  0  0  0  0  0  0  0  0
  186.4520  177.9560  145.9160 C   0  0  0  0  0  0  0  0  0  0  0  0
  195.6420  172.9830  144.7640 C   0  0  0  0  0  2  0  0  0  0  0  0
  195.9040  171.9610  145.7630 N   0  0  0  0  0  0  0  0  0  0  0  0
  194.8610  170.9590  145.6310 C   0  0  0  0  0  1  0  0  0  0  0  0
  197.1460  171.3160  145.3820 C   0  0  0  0  0  1  0  0  0  0  0  0
  1 20  1  0  0  0  0
  1 16  1  1  0  0  0
  2 27  1  0  0  0  0
  2 24  2  0  0  0  0
  3  4  1  0  0  0  0
  3 11  2  0  0  0  0
  4 21  2  0  0  0  0
  5  6  1  0  0  0  0
  5 25  1  0  0  0  0
  6 18  1  0  0  0  0
  7 24  1  0  0  0  0
  7 19  1  1  0  0  0
  8 12  1  0  0  0  0
  8 17  1  0  0  0  0
  9 15  1  0  0  0  0
 10 17  1  0  0  0  0
 10  1  1  0  0  0  0
 10 20  1  0  0  0  0
 11 13  1  0  0  0  0
 12  2  1  0  0  0  0
 13 22  1  0  0  0  0
 13 12  1  0  0  0  0
 14 23  2  0  0  0  0
 14 27  1  0  0  0  0
 15 18  2  0  0  0  0
 16 19  1  0  0  0  0
 17  7  1  0  0  0  0
 21 22  1  0  0  0  0
 22 14  1  0  0  0  0
 23 28  1  0  0  0  0
 26  9  1  0  0  0  0
 27  5  2  0  0  0  0
 28  9  1  0  0  0  0
 28  6  2  0  0  0  0
 29 20  1  0  0  0  0
 29 30  1  0  0  0  0
 31 30  1  0  0  0  0
 32 30  1  0  0  0  0
M  END
>  <MODEL>
4

>  <REMARK>
 VINA RESULT:      -8.2      2.992      5.194
  Name = 
  2 active torsions:
  status: ('A' for Active; 'I' for Inactive)
    1  A    between atoms: C_20  and  C_29
    2  A    between atoms: C_29  and  N_30
                            x       y       z     vdW  Elec       q    Type
                         _______ _______ _______ _____ _____    ______ ____

>  <TORSDO>
F 2

$$$$
=
 OpenBabel11112416383D

 32 38  0  0  1  0  0  0  0  0999 V2000
  190.4400  171.9360  139.5160 C   0  0  1  0  0  3  0  0  0  0  0  0
  188.7750  175.2640  143.1920 C   0  0  0  0  0  0  0  0  0  0  0  0
  192.1200  174.9190  146.6900 C   0  0  0  0  0  3  0  0  0  0  0  0
  191.1900  175.5410  147.6520 C   0  0  0  0  0  3  0  0  0  0  0  0
  186.7450  176.5630  143.5660 C   0  0  0  0  0  0  0  0  0  0  0  0
  186.0200  177.3470  144.4550 C   0  0  0  0  0  0  0  0  0  0  0  0
  189.2990  174.3300  140.9110 C   0  0  1  0  0  3  0  0  0  0  0  0
  190.9430  174.0650  142.7330 C   0  0  0  0  0  2  0  0  0  0  0  0
  185.5240  178.3660  146.3030 N   0  0  0  0  0  0  0  0  0  0  0  0
  191.1250  172.5140  140.7570 C   0  0  2  0  0  3  0  0  0  0  0  0
  191.6960  174.5090  145.4920 C   0  0  0  0  0  3  0  0  0  0  0  0
  190.0270  174.7250  143.6720 N   0  0  0  0  0  0  0  0  0  0  0  0
  190.2330  174.5640  145.1120 C   0  0  2  0  0  3  0  0  0  0  0  0
  188.3700  176.1890  145.4000 C   0  0  0  0  0  0  0  0  0  0  0  0
  184.5850  178.6190  145.3990 N   0  0  0  0  0  0  0  0  0  0  0  0
  188.9360  172.2780  139.4030 C   0  0  0  0  0  2  0  0  0  0  0  0
  190.1670  173.3160  141.6610 C   0  0  2  0  0  3  0  0  0  0  0  0
  184.8630  178.0060  144.2480 N   0  0  0  0  0  0  0  0  0  0  0  0
  188.5270  173.7210  139.7410 C   0  0  0  0  0  2  0  0  0  0  0  0
  191.3660  173.1370  139.3860 C   0  0  1  0  0  3  0  0  0  0  0  0
  189.9530  175.8800  147.2830 C   0  0  0  0  0  3  0  0  0  0  0  0
  189.4840  175.6110  145.9020 C   0  0  1  0  0  3  0  0  0  0  0  0
  187.5890  177.0170  146.2410 C   0  0  0  0  0  3  0  0  0  0  0  0
  188.3910  174.9930  141.8360 N   0  0  0  0  0  0  0  0  0  0  0  0
  186.2620  176.3960  142.2720 O   0  0  0  0  0  1  0  0  0  0  0  0
  185.5260  178.8760  147.6630 C   0  0  0  0  0  1  0  0  0  0  0  0
  187.9690  175.9750  144.0270 C   0  0  0  0  0  0  0  0  0  0  0  0
  186.4300  177.5700  145.7230 C   0  0  0  0  0  0  0  0  0  0  0  0
  192.7130  172.6760  138.8600 C   0  0  0  0  0  2  0  0  0  0  0  0
  193.3400  173.7460  138.1030 N   0  0  0  0  0  0  0  0  0  0  0  0
  192.2900  174.3980  137.3390 C   0  0  0  0  0  1  0  0  0  0  0  0
  193.8120  174.7190  139.0700 C   0  0  0  0  0  1  0  0  0  0  0  0
  1 16  1  1  0  0  0
  1 10  1  0  0  0  0
  2 12  1  0  0  0  0
  2 27  1  0  0  0  0
  3  4  1  0  0  0  0
  5 27  2  0  0  0  0
  5  6  1  0  0  0  0
  6 28  2  0  0  0  0
  7 19  1  6  0  0  0
  7 17  1  0  0  0  0
  7 24  1  0  0  0  0
  8 12  1  0  0  0  0
  9 26  1  0  0  0  0
 10 17  1  0  0  0  0
 11  3  2  0  0  0  0
 12 13  1  0  0  0  0
 13 11  1  0  0  0  0
 13 22  1  0  0  0  0
 14 22  1  0  0  0  0
 14 23  2  0  0  0  0
 15  9  1  0  0  0  0
 16 19  1  0  0  0  0
 17  8  1  0  0  0  0
 18  6  1  0  0  0  0
 18 15  2  0  0  0  0
 20  1  1  0  0  0  0
 20 10  1  0  0  0  0
 21  4  2  0  0  0  0
 22 21  1  0  0  0  0
 24  2  2  0  0  0  0
 25  5  1  0  0  0  0
 27 14  1  0  0  0  0
 28 23  1  0  0  0  0
 28  9  1  0  0  0  0
 29 20  1  0  0  0  0
 30 29  1  0  0  0  0
 30 32  1  0  0  0  0
 31 30  1  0  0  0  0
M  END
>  <MODEL>
5

>  <REMARK>
 VINA RESULT:      -8.1      2.992      5.155
  Name = 
  2 active torsions:
  status: ('A' for Active; 'I' for Inactive)
    1  A    between atoms: C_20  and  C_29
    2  A    between atoms: C_29  and  N_30
                            x       y       z     vdW  Elec       q    Type
                         _______ _______ _______ _____ _____    ______ ____

>  <TORSDO>
F 2

$$$$
=
 OpenBabel11112416383D

 32 38  0  0  1  0  0  0  0  0999 V2000
  186.3020  176.8760  145.8100 C   0  0  1  0  0  3  0  0  0  0  0  0
  190.8690  175.9710  143.4260 C   0  0  0  0  0  0  0  0  0  0  0  0
  189.6410  173.4960  139.4370 C   0  0  0  0  0  3  0  0  0  0  0  0
  191.0360  173.0410  139.2810 C   0  0  0  0  0  3  0  0  0  0  0  0
  193.2200  176.2580  144.0110 C   0  0  0  0  0  0  0  0  0  0  0  0
  194.5390  175.9860  143.6710 C   0  0  0  0  0  0  0  0  0  0  0  0
  189.0700  177.1860  144.7050 C   0  0  1  0  0  3  0  0  0  0  0  0
  188.4490  175.8310  142.7390 C   0  0  0  0  0  2  0  0  0  0  0  0
  196.2030  175.1600  142.5540 N   0  0  0  0  0  0  0  0  0  0  0  0
  186.6390  176.3780  144.4020 C   0  0  2  0  0  3  0  0  0  0  0  0
  189.2380  174.0990  140.5580 C   0  0  0  0  0  3  0  0  0  0  0  0
  189.8480  175.4190  142.5650 N   0  0  0  0  0  0  0  0  0  0  0  0
  190.1560  174.2430  141.7510 C   0  0  2  0  0  3  0  0  0  0  0  0
  192.5510  174.8220  142.1050 C   0  0  0  0  0  0  0  0  0  0  0  0
  196.6710  175.8940  143.5570 N   0  0  0  0  0  0  0  0  0  0  0  0
  187.5240  176.9920  146.7510 C   0  0  0  0  0  2  0  0  0  0  0  0
  188.1380  176.0780  144.2060 C   0  0  2  0  0  3  0  0  0  0  0  0
  195.6690  176.4190  144.2630 N   0  0  0  0  0  0  0  0  0  0  0  0
  188.8040  177.5980  146.1540 C   0  0  0  0  0  2  0  0  0  0  0  0
  186.3170  177.8500  144.6420 C   0  0  1  0  0  3  0  0  0  0  0  0
  191.9700  173.3850  140.1700 C   0  0  0  0  0  3  0  0  0  0  0  0
  191.6120  174.2110  141.3490 C   0  0  1  0  0  3  0  0  0  0  0  0
  193.9180  174.6080  141.8060 C   0  0  0  0  0  3  0  0  0  0  0  0
  190.4600  176.7880  144.5330 N   0  0  0  0  0  0  0  0  0  0  0  0
  192.9650  177.0800  145.1040 O   0  0  0  0  0  1  0  0  0  0  0  0
  197.0260  174.4450  141.5940 C   0  0  0  0  0  1  0  0  0  0  0  0
  192.1810  175.6850  143.2050 C   0  0  0  0  0  0  0  0  0  0  0  0
  194.8670  175.2100  142.6130 C   0  0  0  0  0  0  0  0  0  0  0  0
  184.8920  178.1270  144.2010 C   0  0  0  0  0  2  0  0  0  0  0  0
  184.7470  177.8300  142.7860 N   0  0  0  0  0  0  0  0  0  0  0  0
  183.4280  178.2910  142.3880 C   0  0  0  0  0  1  0  0  0  0  0  0
  185.7040  178.6660  142.0850 C   0  0  0  0  0  1  0  0  0  0  0  0
  1 16  1  1  0  0  0
  2 24  2  0  0  0  0
  3 11  2  0  0  0  0
  4  3  1  0  0  0  0
  4 21  2  0  0  0  0
  5 25  1  0  0  0  0
  6  5  1  0  0  0  0
  6 18  1  0  0  0  0
  7 19  1  1  0  0  0
  8 17  1  0  0  0  0
  9 28  1  0  0  0  0
  9 15  1  0  0  0  0
 10 20  1  0  0  0  0
 10  1  1  0  0  0  0
 11 13  1  0  0  0  0
 12  8  1  0  0  0  0
 12  2  1  0  0  0  0
 13 12  1  0  0  0  0
 14 27  1  0  0  0  0
 15 18  2  0  0  0  0
 17 10  1  0  0  0  0
 17  7  1  0  0  0  0
 19 16  1  0  0  0  0
 20  1  1  0  0  0  0
 21 22  1  0  0  0  0
 22 13  1  0  0  0  0
 22 14  1  0  0  0  0
 23 14  2  0  0  0  0
 23 28  1  0  0  0  0
 24  7  1  0  0  0  0
 26  9  1  0  0  0  0
 27  2  1  0  0  0  0
 27  5  2  0  0  0  0
 28  6  2  0  0  0  0
 29 20  1  0  0  0  0
 30 29  1  0  0  0  0
 31 30  1  0  0  0  0
 32 30  1  0  0  0  0
M  END
>  <MODEL>
6

>  <REMARK>
 VINA RESULT:      -8.1      2.380      9.051
  Name = 
  2 active torsions:
  status: ('A' for Active; 'I' for Inactive)
    1  A    between atoms: C_20  and  C_29
    2  A    between atoms: C_29  and  N_30
                            x       y       z     vdW  Elec       q    Type
                         _______ _______ _______ _____ _____    ______ ____

>  <TORSDO>
F 2

$$$$
=
 OpenBabel11112416383D

 32 38  0  0  1  0  0  0  0  0999 V2000
  186.2300  178.7960  143.1550 C   0  0  1  0  0  3  0  0  0  0  0  0
  189.5240  174.7750  143.7490 C   0  0  0  0  0  0  0  0  0  0  0  0
  192.8250  176.4180  146.9030 C   0  0  0  0  0  3  0  0  0  0  0  0
  193.7490  175.3380  146.5100 C   0  0  0  0  0  3  0  0  0  0  0  0
  189.8440  172.6180  142.6570 C   0  0  0  0  0  0  0  0  0  0  0  0
  190.6620  171.5050  142.5100 C   0  0  0  0  0  0  0  0  0  0  0  0
  187.3600  176.0390  143.4830 C   0  0  1  0  0  3  0  0  0  0  0  0
  189.0960  176.9210  145.0000 C   0  0  0  0  0  2  0  0  0  0  0  0
  192.3840  170.2190  142.7900 N   0  0  0  0  0  0  0  0  0  0  0  0
  187.3390  178.5250  144.1750 C   0  0  2  0  0  3  0  0  0  0  0  0
  191.7200  176.6680  146.1950 C   0  0  0  0  0  3  0  0  0  0  0  0
  189.9930  175.8160  144.6340 N   0  0  0  0  0  0  0  0  0  0  0  0
  191.4260  175.9330  144.9060 C   0  0  2  0  0  3  0  0  0  0  0  0
  191.6080  173.5830  144.1050 C   0  0  0  0  0  0  0  0  0  0  0  0
  191.5140  169.6150  141.9900 N   0  0  0  0  0  0  0  0  0  0  0  0
  186.1650  177.7680  142.0010 C   0  0  0  0  0  2  0  0  0  0  0  0
  188.1840  177.2800  143.8370 C   0  0  2  0  0  3  0  0  0  0  0  0
  190.4410  170.3820  141.7990 N   0  0  0  0  0  0  0  0  0  0  0  0
  186.3310  176.2880  142.3790 C   0  0  0  0  0  2  0  0  0  0  0  0
  185.8840  178.2230  144.5220 C   0  0  1  0  0  3  0  0  0  0  0  0
  193.4150  174.4670  145.5550 C   0  0  0  0  0  3  0  0  0  0  0  0
  192.1130  174.5880  144.8540 C   0  0  1  0  0  3  0  0  0  0  0  0
  192.3770  172.4090  143.9260 C   0  0  0  0  0  3  0  0  0  0  0  0
  188.2410  174.9380  143.1240 N   0  0  0  0  0  0  0  0  0  0  0  0
  188.6160  172.6370  142.0030 O   0  0  0  0  0  1  0  0  0  0  0  0
  193.6610  169.6590  143.2000 C   0  0  0  0  0  1  0  0  0  0  0  0
  190.3030  173.6900  143.4910 C   0  0  0  0  0  0  0  0  0  0  0  0
  191.8620  171.4040  143.1250 C   0  0  0  0  0  0  0  0  0  0  0  0
  185.3430  179.3300  145.4060 C   0  0  0  0  0  2  0  0  0  0  0  0
  184.8900  178.7760  146.6700 N   0  0  0  0  0  0  0  0  0  0  0  0
  184.8230  177.3350  146.5030 C   0  0  0  0  0  1  0  0  0  0  0  0
  185.9410  179.0310  147.6380 C   0  0  0  0  0  1  0  0  0  0  0  0
  1 16  1  6  0  0  0
  1 10  1  0  0  0  0
  1 20  1  0  0  0  0
  2 12  1  0  0  0  0
  4  3  1  0  0  0  0
  5 27  1  0  0  0  0
  6  5  2  0  0  0  0
  6 28  1  0  0  0  0
  7 19  1  6  0  0  0
  7 17  1  0  0  0  0
  9 28  1  0  0  0  0
  9 26  1  0  0  0  0
 10 20  1  0  0  0  0
 11  3  2  0  0  0  0
 12 13  1  0  0  0  0
 12  8  1  0  0  0  0
 13 11  1  0  0  0  0
 14 22  1  0  0  0  0
 15  9  1  0  0  0  0
 16 19  1  0  0  0  0
 17 10  1  0  0  0  0
 17  8  1  0  0  0  0
 18 15  2  0  0  0  0
 18  6  1  0  0  0  0
 20 29  1  0  0  0  0
 21  4  2  0  0  0  0
 22 13  1  0  0  0  0
 22 21  1  0  0  0  0
 23 14  1  0  0  0  0
 24  7  1  0  0  0  0
 24  2  2  0  0  0  0
 25  5  1  0  0  0  0
 27  2  1  0  0  0  0
 27 14  2  0  0  0  0
 28 23  2  0  0  0  0
 29 30  1  0  0  0  0
 30 32  1  0  0  0  0
 31 30  1  0  0  0  0
M  END
>  <MODEL>
7

>  <REMARK>
 VINA RESULT:      -8.0      2.995      8.053
  Name = 
  2 active torsions:
  status: ('A' for Active; 'I' for Inactive)
    1  A    between atoms: C_20  and  C_29
    2  A    between atoms: C_29  and  N_30
                            x       y       z     vdW  Elec       q    Type
                         _______ _______ _______ _____ _____    ______ ____

>  <TORSDO>
F 2

$$$$
=
 OpenBabel11112416383D

 32 38  0  0  1  0  0  0  0  0999 V2000
  195.2400  175.0260  145.3880 C   0  0  1  0  0  3  0  0  0  0  0  0
  190.1840  175.9240  144.3860 C   0  0  0  0  0  0  0  0  0  0  0  0
  189.4400  173.7850  140.0950 C   0  0  0  0  0  3  0  0  0  0  0  0
  188.1990  174.5610  139.9150 C   0  0  0  0  0  3  0  0  0  0  0  0
  188.4320  177.2910  145.3910 C   0  0  0  0  0  0  0  0  0  0  0  0
  187.1480  177.8050  145.2620 C   0  0  0  0  0  0  0  0  0  0  0  0
  192.2760  175.3670  145.6760 C   0  0  1  0  0  3  0  0  0  0  0  0
  191.9340  174.3750  143.4430 C   0  0  0  0  0  2  0  0  0  0  0  0
  185.2230  178.2140  144.3540 N   0  0  0  0  0  0  0  0  0  0  0  0
  194.2830  174.4350  144.3500 C   0  0  2  0  0  3  0  0  0  0  0  0
  190.3020  174.0850  141.0710 C   0  0  0  0  0  3  0  0  0  0  0  0
  190.6760  175.1190  143.2920 N   0  0  0  0  0  0  0  0  0  0  0  0
  190.0980  175.2920  141.9580 C   0  0  2  0  0  3  0  0  0  0  0  0
  188.1680  176.3630  143.1080 C   0  0  0  0  0  0  0  0  0  0  0  0
  185.2630  178.7670  145.5600 N   0  0  0  0  0  0  0  0  0  0  0  0
  194.6510  176.2090  146.1920 C   0  0  0  0  0  2  0  0  0  0  0  0
  192.9180  175.1510  144.3030 C   0  0  2  0  0  3  0  0  0  0  0  0
  186.4370  178.5320  146.1460 N   0  0  0  0  0  0  0  0  0  0  0  0
  193.2000  176.0650  146.6760 C   0  0  0  0  0  2  0  0  0  0  0  0
  194.5590  173.6910  145.6520 C   0  0  1  0  0  3  0  0  0  0  0  0
  187.8140  175.4540  140.8280 C   0  0  0  0  0  3  0  0  0  0  0  0
  188.6460  175.7010  142.0310 C   0  0  1  0  0  3  0  0  0  0  0  0
  186.8580  176.8990  143.0580 C   0  0  0  0  0  3  0  0  0  0  0  0
  191.0260  176.0990  145.5360 N   0  0  0  0  0  0  0  0  0  0  0  0
  189.1330  177.5270  146.5690 O   0  0  0  0  0  1  0  0  0  0  0  0
  184.0900  178.2830  143.4460 C   0  0  0  0  0  1  0  0  0  0  0  0
  188.9680  176.5280  144.3020 C   0  0  0  0  0  0  0  0  0  0  0  0
  186.3970  177.6060  144.1550 C   0  0  0  0  0  0  0  0  0  0  0  0
  195.5420  172.5660  145.3840 C   0  0  0  0  0  2  0  0  0  0  0  0
  194.9580  171.2950  145.7780 N   0  0  0  0  0  0  0  0  0  0  0  0
  194.1340  170.8440  144.6700 C   0  0  0  0  0  1  0  0  0  0  0  0
  196.0530  170.3510  145.8890 C   0  0  0  0  0  1  0  0  0  0  0  0
  1 20  1  0  0  0  0
  1 16  1  1  0  0  0
  2 24  2  0  0  0  0
  3 11  2  0  0  0  0
  4  3  1  0  0  0  0
  4 21  2  0  0  0  0
  5 25  1  0  0  0  0
  6  5  1  0  0  0  0
  6 18  1  0  0  0  0
  7 19  1  1  0  0  0
  8 17  1  0  0  0  0
  9 15  1  0  0  0  0
 10  1  1  0  0  0  0
 10 20  1  0  0  0  0
 11 13  1  0  0  0  0
 12  8  1  0  0  0  0
 12  2  1  0  0  0  0
 13 22  1  0  0  0  0
 13 12  1  0  0  0  0
 14 27  1  0  0  0  0
 15 18  2  0  0  0  0
 16 19  1  0  0  0  0
 17 10  1  0  0  0  0
 17  7  1  0  0  0  0
 21 22  1  0  0  0  0
 22 14  1  0  0  0  0
 23 14  2  0  0  0  0
 23 28  1  0  0  0  0
 24  7  1  0  0  0  0
 26  9  1  0  0  0  0
 27  2  1  0  0  0  0
 27  5  2  0  0  0  0
 28  9  1  0  0  0  0
 28  6  2  0  0  0  0
 29 20  1  0  0  0  0
 29 30  1  0  0  0  0
 30 32  1  0  0  0  0
 31 30  1  0  0  0  0
M  END
>  <MODEL>
8

>  <REMARK>
 VINA RESULT:      -7.9      2.596      5.147
  Name = 
  2 active torsions:
  status: ('A' for Active; 'I' for Inactive)
    1  A    between atoms: C_20  and  C_29
    2  A    between atoms: C_29  and  N_30
                            x       y       z     vdW  Elec       q    Type
                         _______ _______ _______ _____ _____    ______ ____

>  <TORSDO>
F 2

$$$$
=
 OpenBabel11112416383D

 32 38  0  0  1  0  0  0  0  0999 V2000
  186.0820  178.9520  143.6530 C   0  0  1  0  0  3  0  0  0  0  0  0
  189.1270  174.9640  142.1710 C   0  0  0  0  0  0  0  0  0  0  0  0
  192.3450  174.5400  145.7780 C   0  0  0  0  0  3  0  0  0  0  0  0
  193.2300  173.7470  144.9050 C   0  0  0  0  0  3  0  0  0  0  0  0
  189.3900  173.6440  140.1370 C   0  0  0  0  0  0  0  0  0  0  0  0
  190.1550  172.7050  139.4580 C   0  0  0  0  0  0  0  0  0  0  0  0
  187.0490  176.3380  142.5500 C   0  0  1  0  0  3  0  0  0  0  0  0
  188.7490  176.2020  144.3330 C   0  0  0  0  0  2  0  0  0  0  0  0
  191.7910  171.3360  139.0720 N   0  0  0  0  0  0  0  0  0  0  0  0
  187.1220  178.1230  144.4120 C   0  0  2  0  0  3  0  0  0  0  0  0
  191.2920  175.1920  145.2780 C   0  0  0  0  0  3  0  0  0  0  0  0
  189.6050  175.3760  143.4710 N   0  0  0  0  0  0  0  0  0  0  0  0
  191.0260  175.2370  143.7890 C   0  0  2  0  0  3  0  0  0  0  0  0
  191.1260  173.6130  141.9050 C   0  0  0  0  0  0  0  0  0  0  0  0
  190.9320  171.2860  138.0610 N   0  0  0  0  0  0  0  0  0  0  0  0
  186.0230  178.6600  142.1360 C   0  0  0  0  0  2  0  0  0  0  0  0
  187.9170  177.1660  143.5020 C   0  0  2  0  0  3  0  0  0  0  0  0
  189.9120  172.1180  138.2700 N   0  0  0  0  0  0  0  0  0  0  0  0
  186.0920  177.1850  141.7100 C   0  0  0  0  0  2  0  0  0  0  0  0
  185.6380  177.7910  144.5310 C   0  0  1  0  0  3  0  0  0  0  0  0
  192.9000  173.5070  143.6350 C   0  0  0  0  0  3  0  0  0  0  0  0
  191.6440  174.0600  143.0710 C   0  0  1  0  0  3  0  0  0  0  0  0
  191.8410  172.6410  141.1660 C   0  0  0  0  0  3  0  0  0  0  0  0
  187.8880  175.5120  141.6950 N   0  0  0  0  0  0  0  0  0  0  0  0
  188.1990  174.0790  139.5640 O   0  0  0  0  0  1  0  0  0  0  0  0
  193.0150  170.5580  139.1620 C   0  0  0  0  0  1  0  0  0  0  0  0
  189.8610  174.1090  141.4090 C   0  0  0  0  0  0  0  0  0  0  0  0
  191.3150  172.2210  139.9560 C   0  0  0  0  0  0  0  0  0  0  0  0
  185.1110  178.3300  145.8480 C   0  0  0  0  0  2  0  0  0  0  0  0
  186.1610  178.2940  146.8520 N   0  0  0  0  0  0  0  0  0  0  0  0
  185.9370  179.4200  147.7420 C   0  0  0  0  0  1  0  0  0  0  0  0
  185.9420  177.0950  147.6390 C   0  0  0  0  0  1  0  0  0  0  0  0
  1 16  1  6  0  0  0
  1 10  1  0  0  0  0
  1 20  1  0  0  0  0
  2 12  1  0  0  0  0
  4  3  1  0  0  0  0
  5 27  1  0  0  0  0
  6 28  1  0  0  0  0
  6  5  2  0  0  0  0
  7 19  1  6  0  0  0
  7 17  1  0  0  0  0
  9 26  1  0  0  0  0
  9 28  1  0  0  0  0
 10 20  1  0  0  0  0
 11  3  2  0  0  0  0
 12 13  1  0  0  0  0
 12  8  1  0  0  0  0
 13 11  1  0  0  0  0
 14 22  1  0  0  0  0
 15 18  2  0  0  0  0
 15  9  1  0  0  0  0
 17  8  1  0  0  0  0
 17 10  1  0  0  0  0
 18  6  1  0  0  0  0
 19 16  1  0  0  0  0
 20 29  1  0  0  0  0
 21  4  2  0  0  0  0
 22 21  1  0  0  0  0
 22 13  1  0  0  0  0
 23 14  1  0  0  0  0
 24  2  2  0  0  0  0
 24  7  1  0  0  0  0
 25  5  1  0  0  0  0
 27 14  2  0  0  0  0
 27  2  1  0  0  0  0
 28 23  2  0  0  0  0
 29 30  1  0  0  0  0
 30 32  1  0  0  0  0
 30 31  1  0  0  0  0
M  END
>  <MODEL>
9

>  <REMARK>
 VINA RESULT:      -7.8      3.006      7.727
  Name = 
  2 active torsions:
  status: ('A' for Active; 'I' for Inactive)
    1  A    between atoms: C_20  and  C_29
    2  A    between atoms: C_29  and  N_30
                            x       y       z     vdW  Elec       q    Type
                         _______ _______ _______ _____ _____    ______ ____

>  <TORSDO>
F 2

$$$$
