=
 OpenBabel11112417083D

 37 43  0  0  1  0  0  0  0  0999 V2000
  188.9050  174.6910  140.2370 O   0  0  0  0  0  0  0  0  0  0  0  0
  185.7780  177.7210  142.8180 C   0  0  0  0  0  0  0  0  0  0  0  0
  188.9890  175.8710  144.7030 C   0  0  0  0  0  0  0  0  0  0  0  0
  189.0030  173.6690  139.2890 C   0  0  0  0  0  0  0  0  0  0  0  0
  192.1490  175.4920  142.6400 N   0  0  0  0  0  2  0  0  0  0  0  0
  186.8090  176.8330  144.9850 C   0  0  0  0  0  0  0  0  0  0  0  0
  189.8670  175.5170  143.6470 N   0  0  0  0  0  0  0  0  0  0  0  0
  191.0720  172.7740  140.2170 C   0  0  0  0  0  0  0  0  0  0  0  0
  187.8610  176.4070  144.2040 C   0  0  0  0  0  0  0  0  0  0  0  0
  191.3150  175.3650  143.8530 C   0  0  1  0  0  3  0  0  0  0  0  0
  186.9380  176.6910  146.3800 C   0  0  0  0  0  3  0  0  0  0  0  0
  189.9910  172.8240  139.2780 N   0  0  0  0  0  0  0  0  0  0  0  0
  187.8830  176.4270  142.8030 N   0  0  0  0  0  0  0  0  0  0  0  0
  186.3890  179.1110  142.7840 C   0  0  0  0  0  1  0  0  0  0  0  0
  190.2280  174.8720  146.5710 N   0  0  0  0  0  2  0  0  0  0  0  0
  188.1110  176.1040  146.9240 C   0  0  0  0  0  3  0  0  0  0  0  0
  186.6870  176.7440  142.0300 C   0  0  0  0  0  2  0  0  0  0  0  0
  191.0360  173.5140  141.5140 C   0  0  1  0  0  3  0  0  0  0  0  0
  191.6270  174.9290  141.3860 C   0  0  0  0  0  2  0  0  0  0  0  0
  189.1460  175.6610  146.0710 C   0  0  0  0  0  0  0  0  0  0  0  0
  189.1430  175.7930  142.3860 C   0  0  2  0  0  3  0  0  0  0  0  0
  185.5520  177.2970  144.2960 C   0  0  0  0  0  2  0  0  0  0  0  0
  191.7000  174.1250  144.6780 C   0  0  2  0  0  3  0  0  0  0  0  0
  184.4320  177.7820  142.1280 C   0  0  0  0  0  1  0  0  0  0  0  0
  189.7410  173.4350  142.0850 O   0  0  0  0  0  0  0  0  0  0  0  0
  192.0760  172.0610  139.9560 O   0  0  0  0  0  0  0  0  0  0  0  0
  188.8740  174.4740  141.6480 C   0  0  2  0  0  3  0  0  0  0  0  0
  190.7330  173.7320  145.8050 C   0  0  0  0  0  2  0  0  0  0  0  0
  193.5810  175.4080  145.7750 C   0  0  0  0  0  3  0  0  0  0  0  0
  193.1040  174.2250  145.1910 C   0  0  0  0  0  0  0  0  0  0  0  0
  193.9510  173.1160  145.0820 C   0  0  0  0  0  3  0  0  0  0  0  0
  196.1220  172.0580  145.4380 N   0  0  0  0  0  1  0  0  0  0  0  0
  195.7380  174.3680  146.1330 C   0  0  0  0  0  3  0  0  0  0  0  0
  195.2660  173.1870  145.5520 C   0  0  0  0  0  0  0  0  0  0  0  0
  194.8950  175.4780  146.2450 C   0  0  0  0  0  3  0  0  0  0  0  0
  187.6410  174.8920  137.8050 O   0  0  0  0  0  1  0  0  0  0  0  0
  187.9890  173.6010  138.2030 C   0  0  0  0  0  2  0  0  0  0  0  0
  2 22  1  0  0  0  0
  3 20  1  0  0  0  0
  4  1  1  0  0  0  0
  6 11  2  0  0  0  0
  7 10  1  0  0  0  0
  7  3  1  0  0  0  0
  8 18  1  0  0  0  0
  9  3  2  0  0  0  0
  9  6  1  0  0  0  0
 10  5  1  6  0  0  0
 10 23  1  0  0  0  0
 11 16  1  0  0  0  0
 12  4  2  0  0  0  0
 12  8  1  0  0  0  0
 13  9  1  0  0  0  0
 14  2  1  0  0  0  0
 17 13  1  0  0  0  0
 17  2  1  0  0  0  0
 18 19  1  6  0  0  0
 18 25  1  0  0  0  0
 19  5  1  0  0  0  0
 20 15  1  0  0  0  0
 20 16  2  0  0  0  0
 21 13  1  1  0  0  0
 21  7  1  0  0  0  0
 22  6  1  0  0  0  0
 23 30  1  1  0  0  0
 23 28  1  0  0  0  0
 24  2  1  0  0  0  0
 26  8  2  0  0  0  0
 27  1  1  6  0  0  0
 27 25  1  0  0  0  0
 27 21  1  0  0  0  0
 28 15  1  0  0  0  0
 29 35  1  0  0  0  0
 30 29  2  0  0  0  0
 31 30  1  0  0  0  0
 31 34  2  0  0  0  0
 32 34  1  0  0  0  0
 33 35  2  0  0  0  0
 34 33  1  0  0  0  0
 36 37  1  0  0  0  0
 37  4  1  0  0  0  0
M  END
>  <MODEL>
1

>  <REMARK>
 VINA RESULT:      -8.9      0.000      0.000
  Name = 
  2 active torsions:
  status: ('A' for Active; 'I' for Inactive)
    1  A    between atoms: C_4  and  C_37
    2  A    between atoms: C_23  and  C_30
                            x       y       z     vdW  Elec       q    Type
                         _______ _______ _______ _____ _____    ______ ____

>  <TORSDO>
F 2

$$$$
=
 OpenBabel11112417083D

 37 43  0  0  1  0  0  0  0  0999 V2000
  191.7960  172.5320  141.1060 O   0  0  0  0  0  0  0  0  0  0  0  0
  195.4590  172.3460  144.5950 C   0  0  0  0  0  0  0  0  0  0  0  0
  192.2900  175.0110  144.9740 C   0  0  0  0  0  0  0  0  0  0  0  0
  191.5000  172.5310  139.7410 C   0  0  0  0  0  0  0  0  0  0  0  0
  188.9130  173.7770  143.7660 N   0  0  0  0  0  2  0  0  0  0  0  0
  194.5730  174.5470  145.5510 C   0  0  0  0  0  0  0  0  0  0  0  0
  191.2770  174.4820  144.1340 N   0  0  0  0  0  0  0  0  0  0  0  0
  189.4580  173.8360  140.0090 C   0  0  0  0  0  0  0  0  0  0  0  0
  193.4080  174.2710  144.8680 C   0  0  0  0  0  0  0  0  0  0  0  0
  189.8500  174.7470  144.3690 C   0  0  1  0  0  3  0  0  0  0  0  0
  194.5750  175.6690  146.4030 C   0  0  0  0  0  3  0  0  0  0  0  0
  190.4360  173.1040  139.2600 N   0  0  0  0  0  0  0  0  0  0  0  0
  193.2440  173.2300  143.9450 N   0  0  0  0  0  0  0  0  0  0  0  0
  194.9890  171.3810  145.6710 C   0  0  0  0  0  1  0  0  0  0  0  0
  191.1550  177.0700  145.6780 N   0  0  0  0  0  2  0  0  0  0  0  0
  193.4100  176.4760  146.5090 C   0  0  0  0  0  3  0  0  0  0  0  0
  194.3800  172.4380  143.4850 C   0  0  0  0  0  2  0  0  0  0  0  0
  189.7000  174.2860  141.4130 C   0  0  1  0  0  3  0  0  0  0  0  0
  189.2430  173.2350  142.4400 C   0  0  0  0  0  2  0  0  0  0  0  0
  192.2540  176.1590  145.7620 C   0  0  0  0  0  0  0  0  0  0  0  0
  191.8910  173.3630  143.3850 C   0  0  2  0  0  3  0  0  0  0  0  0
  195.7930  173.7170  145.2460 C   0  0  0  0  0  2  0  0  0  0  0  0
  189.4290  176.1980  144.0760 C   0  0  2  0  0  3  0  0  0  0  0  0
  196.7260  171.7870  143.9830 C   0  0  0  0  0  1  0  0  0  0  0  0
  191.0330  174.7480  141.5520 O   0  0  0  0  0  0  0  0  0  0  0  0
  188.3660  174.1360  139.4590 O   0  0  0  0  0  0  0  0  0  0  0  0
  191.9500  173.7150  141.8910 C   0  0  2  0  0  3  0  0  0  0  0  0
  190.4640  177.2850  144.4070 C   0  0  0  0  0  2  0  0  0  0  0  0
  187.8810  176.3440  146.0680 C   0  0  0  0  0  3  0  0  0  0  0  0
  188.1030  176.5180  144.6930 C   0  0  0  0  0  0  0  0  0  0  0  0
  187.0700  176.9970  143.8810 C   0  0  0  0  0  3  0  0  0  0  0  0
  184.7750  177.7860  143.6050 N   0  0  0  0  0  1  0  0  0  0  0  0
  185.6050  177.1250  145.8050 C   0  0  0  0  0  3  0  0  0  0  0  0
  185.8220  177.3000  144.4360 C   0  0  0  0  0  0  0  0  0  0  0  0
  186.6350  176.6470  146.6220 C   0  0  0  0  0  3  0  0  0  0  0  0
  191.6430  171.3120  137.7290 O   0  0  0  0  0  1  0  0  0  0  0  0
  192.3850  171.7720  138.8170 C   0  0  0  0  0  2  0  0  0  0  0  0
  2 22  1  0  0  0  0
  2 14  1  0  0  0  0
  3 20  1  0  0  0  0
  4  1  1  0  0  0  0
  6 11  2  0  0  0  0
  7 10  1  0  0  0  0
  7  3  1  0  0  0  0
  8 18  1  0  0  0  0
  9  3  2  0  0  0  0
  9  6  1  0  0  0  0
 10  5  1  6  0  0  0
 11 16  1  0  0  0  0
 12  4  2  0  0  0  0
 12  8  1  0  0  0  0
 13  9  1  0  0  0  0
 15 20  1  0  0  0  0
 17 13  1  0  0  0  0
 17  2  1  0  0  0  0
 18 25  1  0  0  0  0
 18 19  1  1  0  0  0
 19  5  1  0  0  0  0
 20 16  2  0  0  0  0
 21 13  1  1  0  0  0
 21  7  1  0  0  0  0
 22  6  1  0  0  0  0
 23 10  1  0  0  0  0
 23 28  1  0  0  0  0
 23 30  1  1  0  0  0
 24  2  1  0  0  0  0
 25 27  1  0  0  0  0
 26  8  2  0  0  0  0
 27  1  1  6  0  0  0
 27 21  1  0  0  0  0
 28 15  1  0  0  0  0
 29 35  1  0  0  0  0
 30 29  2  0  0  0  0
 31 34  2  0  0  0  0
 31 30  1  0  0  0  0
 32 34  1  0  0  0  0
 33 35  2  0  0  0  0
 34 33  1  0  0  0  0
 36 37  1  0  0  0  0
 37  4  1  0  0  0  0
M  END
>  <MODEL>
2

>  <REMARK>
 VINA RESULT:      -8.5      1.619      6.731
  Name = 
  2 active torsions:
  status: ('A' for Active; 'I' for Inactive)
    1  A    between atoms: C_4  and  C_37
    2  A    between atoms: C_23  and  C_30
                            x       y       z     vdW  Elec       q    Type
                         _______ _______ _______ _____ _____    ______ ____

>  <TORSDO>
F 2

$$$$
=
 OpenBabel11112417083D

 37 43  0  0  1  0  0  0  0  0999 V2000
  193.6970  175.3990  144.3070 O   0  0  0  0  0  0  0  0  0  0  0  0
  193.6070  173.3980  139.6590 C   0  0  0  0  0  0  0  0  0  0  0  0
  190.1160  174.7590  141.4580 C   0  0  0  0  0  0  0  0  0  0  0  0
  194.2010  175.2840  145.6050 C   0  0  0  0  0  0  0  0  0  0  0  0
  190.4520  177.8420  143.6440 N   0  0  0  0  0  2  0  0  0  0  0  0
  191.0580  173.2680  139.8320 C   0  0  0  0  0  0  0  0  0  0  0  0
  190.5600  175.6390  142.4790 N   0  0  0  0  0  0  0  0  0  0  0  0
  192.2780  176.3750  146.6320 C   0  0  0  0  0  0  0  0  0  0  0  0
  191.1710  174.1850  140.8540 C   0  0  0  0  0  0  0  0  0  0  0  0
  189.7240  176.7400  142.9800 C   0  0  1  0  0  3  0  0  0  0  0  0
  189.7590  172.9240  139.4090 C   0  0  0  0  0  3  0  0  0  0  0  0
  193.5640  175.7430  146.6420 N   0  0  0  0  0  0  0  0  0  0  0  0
  192.3780  174.6020  141.4310 N   0  0  0  0  0  0  0  0  0  0  0  0
  193.7480  174.5540  138.6820 C   0  0  0  0  0  1  0  0  0  0  0  0
  187.7060  174.8390  141.9180 N   0  0  0  0  0  2  0  0  0  0  0  0
  188.6320  173.5030  140.0520 C   0  0  0  0  0  3  0  0  0  0  0  0
  193.6400  173.9470  141.1080 C   0  0  0  0  0  2  0  0  0  0  0  0
  191.3700  176.3180  145.4480 C   0  0  1  0  0  3  0  0  0  0  0  0
  191.6070  177.4940  144.4830 C   0  0  0  0  0  2  0  0  0  0  0  0
  188.8100  174.4180  141.1140 C   0  0  0  0  0  0  0  0  0  0  0  0
  192.0320  175.5000  142.5440 C   0  0  2  0  0  3  0  0  0  0  0  0
  192.3130  172.6030  139.3290 C   0  0  0  0  0  2  0  0  0  0  0  0
  188.5160  176.2770  143.8110 C   0  0  2  0  0  3  0  0  0  0  0  0
  194.7940  172.4760  139.4700 C   0  0  0  0  0  1  0  0  0  0  0  0
  191.4080  175.0260  144.8660 O   0  0  0  0  0  0  0  0  0  0  0  0
  191.8850  176.9780  147.6660 O   0  0  0  0  0  0  0  0  0  0  0  0
  192.4320  174.8820  143.8910 C   0  0  2  0  0  3  0  0  0  0  0  0
  187.8490  174.9660  143.3690 C   0  0  0  0  0  2  0  0  0  0  0  0
  187.0330  178.0770  142.8380 C   0  0  0  0  0  3  0  0  0  0  0  0
  187.5010  177.3690  143.9560 C   0  0  0  0  0  0  0  0  0  0  0  0
  187.0150  177.6850  145.2290 C   0  0  0  0  0  3  0  0  0  0  0  0
  185.5780  179.0210  146.6830 N   0  0  0  0  0  1  0  0  0  0  0  0
  185.6060  179.4070  144.2710 C   0  0  0  0  0  3  0  0  0  0  0  0
  186.0690  178.7030  145.3870 C   0  0  0  0  0  0  0  0  0  0  0  0
  186.0880  179.0930  142.9970 C   0  0  0  0  0  3  0  0  0  0  0  0
  196.3560  174.9950  144.6970 O   0  0  0  0  0  1  0  0  0  0  0  0
  195.5540  174.6960  145.7980 C   0  0  0  0  0  2  0  0  0  0  0  0
  1  4  1  0  0  0  0
  2 17  1  0  0  0  0
  3  7  1  0  0  0  0
  4 37  1  0  0  0  0
  4 12  2  0  0  0  0
  5 19  1  0  0  0  0
  6  9  1  0  0  0  0
  7 21  1  0  0  0  0
  7 10  1  0  0  0  0
  8 12  1  0  0  0  0
  8 26  2  0  0  0  0
  9 13  1  0  0  0  0
  9  3  2  0  0  0  0
 10  5  1  1  0  0  0
 10 23  1  0  0  0  0
 11  6  2  0  0  0  0
 11 16  1  0  0  0  0
 14  2  1  0  0  0  0
 15 28  1  0  0  0  0
 16 20  2  0  0  0  0
 17 13  1  0  0  0  0
 18 19  1  6  0  0  0
 18  8  1  0  0  0  0
 20  3  1  0  0  0  0
 20 15  1  0  0  0  0
 21 13  1  6  0  0  0
 21 27  1  0  0  0  0
 22  2  1  0  0  0  0
 22  6  1  0  0  0  0
 23 30  1  6  0  0  0
 24  2  1  0  0  0  0
 25 18  1  0  0  0  0
 27  1  1  1  0  0  0
 27 25  1  0  0  0  0
 28 23  1  0  0  0  0
 29 35  2  0  0  0  0
 29 30  1  0  0  0  0
 30 31  2  0  0  0  0
 31 34  1  0  0  0  0
 33 34  2  0  0  0  0
 34 32  1  0  0  0  0
 35 33  1  0  0  0  0
 36 37  1  0  0  0  0
M  END
>  <MODEL>
3

>  <REMARK>
 VINA RESULT:      -8.3      2.673      7.616
  Name = 
  2 active torsions:
  status: ('A' for Active; 'I' for Inactive)
    1  A    between atoms: C_4  and  C_37
    2  A    between atoms: C_23  and  C_30
                            x       y       z     vdW  Elec       q    Type
                         _______ _______ _______ _____ _____    ______ ____

>  <TORSDO>
F 2

$$$$
=
 OpenBabel11112417083D

 37 43  0  0  1  0  0  0  0  0999 V2000
  190.3460  176.5650  147.4310 O   0  0  0  0  0  0  0  0  0  0  0  0
  185.5800  177.9820  146.4850 C   0  0  0  0  0  0  0  0  0  0  0  0
  187.8480  176.0630  143.5770 C   0  0  0  0  0  0  0  0  0  0  0  0
  191.5690  176.9300  148.0000 C   0  0  0  0  0  0  0  0  0  0  0  0
  190.2400  173.3910  144.8130 N   0  0  0  0  0  2  0  0  0  0  0  0
  186.0100  177.5460  144.0010 C   0  0  0  0  0  0  0  0  0  0  0  0
  188.8870  175.4230  144.2990 N   0  0  0  0  0  0  0  0  0  0  0  0
  192.8830  175.5470  146.4820 C   0  0  0  0  0  0  0  0  0  0  0  0
  187.0900  176.7950  144.4120 C   0  0  0  0  0  0  0  0  0  0  0  0
  189.5660  174.2200  143.7930 C   0  0  1  0  0  3  0  0  0  0  0  0
  185.7000  177.5380  142.6270 C   0  0  0  0  0  3  0  0  0  0  0  0
  192.7020  176.4530  147.5780 N   0  0  0  0  0  0  0  0  0  0  0  0
  187.5690  176.7270  145.7270 N   0  0  0  0  0  0  0  0  0  0  0  0
  184.6960  176.7910  146.8140 C   0  0  0  0  0  1  0  0  0  0  0  0
  188.5660  175.4870  141.3020 N   0  0  0  0  0  2  0  0  0  0  0  0
  186.5050  176.7910  141.7260 C   0  0  0  0  0  3  0  0  0  0  0  0
  187.0590  177.6140  146.7670 C   0  0  0  0  0  2  0  0  0  0  0  0
  191.8010  175.2680  145.4910 C   0  0  1  0  0  3  0  0  0  0  0  0
  190.9200  174.0800  145.9200 C   0  0  0  0  0  2  0  0  0  0  0  0
  187.6170  176.0600  142.2040 C   0  0  0  0  0  0  0  0  0  0  0  0
  188.7840  175.8980  145.6970 C   0  0  2  0  0  3  0  0  0  0  0  0
  185.3230  178.4210  145.0160 C   0  0  0  0  0  2  0  0  0  0  0  0
  190.4780  174.4830  142.5830 C   0  0  2  0  0  3  0  0  0  0  0  0
  185.1890  179.1240  147.4000 C   0  0  0  0  0  1  0  0  0  0  0  0
  191.1110  176.4650  145.1740 O   0  0  0  0  0  0  0  0  0  0  0  0
  194.0000  174.9860  146.3310 O   0  0  0  0  0  0  0  0  0  0  0  0
  190.0240  176.7330  146.0500 C   0  0  2  0  0  3  0  0  0  0  0  0
  189.9990  175.5530  141.5900 C   0  0  0  0  0  2  0  0  0  0  0  0
  189.8270  172.2880  141.5140 C   0  0  0  0  0  3  0  0  0  0  0  0
  190.8210  173.2110  141.8710 C   0  0  0  0  0  0  0  0  0  0  0  0
  192.1580  172.9420  141.5590 C   0  0  0  0  0  3  0  0  0  0  0  0
  193.8630  171.4910  140.5840 N   0  0  0  0  0  1  0  0  0  0  0  0
  191.5080  170.8420  140.5450 C   0  0  0  0  0  3  0  0  0  0  0  0
  192.5020  171.7590  140.8980 C   0  0  0  0  0  0  0  0  0  0  0  0
  190.1700  171.1060  140.8520 C   0  0  0  0  0  3  0  0  0  0  0  0
  190.4530  178.6660  149.1380 O   0  0  0  0  0  1  0  0  0  0  0  0
  191.5660  177.8280  149.1860 C   0  0  0  0  0  2  0  0  0  0  0  0
  1  4  1  0  0  0  0
  2 17  1  0  0  0  0
  2 14  1  0  0  0  0
  2 24  1  0  0  0  0
  3  7  1  0  0  0  0
  3  9  1  0  0  0  0
  4 37  1  0  0  0  0
  5 19  1  0  0  0  0
  6  9  2  0  0  0  0
  6 22  1  0  0  0  0
  8 12  1  0  0  0  0
  9 13  1  0  0  0  0
 10  7  1  0  0  0  0
 10  5  1  1  0  0  0
 11  6  1  0  0  0  0
 12  4  2  0  0  0  0
 13 17  1  0  0  0  0
 15 28  1  0  0  0  0
 15 20  1  0  0  0  0
 16 20  1  0  0  0  0
 16 11  2  0  0  0  0
 18 19  1  1  0  0  0
 18  8  1  0  0  0  0
 20  3  2  0  0  0  0
 21  7  1  6  0  0  0
 21 13  1  0  0  0  0
 21 27  1  0  0  0  0
 22  2  1  0  0  0  0
 23 30  1  6  0  0  0
 23 10  1  0  0  0  0
 25 18  1  0  0  0  0
 26  8  2  0  0  0  0
 27 25  1  6  0  0  0
 27  1  1  0  0  0  0
 28 23  1  0  0  0  0
 29 30  1  0  0  0  0
 31 30  2  0  0  0  0
 32 34  1  0  0  0  0
 33 35  1  0  0  0  0
 33 34  2  0  0  0  0
 34 31  1  0  0  0  0
 35 29  2  0  0  0  0
 36 37  1  0  0  0  0
M  END
>  <MODEL>
4

>  <REMARK>
 VINA RESULT:      -8.1      2.954      5.834
  Name = 
  2 active torsions:
  status: ('A' for Active; 'I' for Inactive)
    1  A    between atoms: C_4  and  C_37
    2  A    between atoms: C_23  and  C_30
                            x       y       z     vdW  Elec       q    Type
                         _______ _______ _______ _____ _____    ______ ____

>  <TORSDO>
F 2

$$$$
=
 OpenBabel11112417083D

 37 43  0  0  1  0  0  0  0  0999 V2000
  194.8290  175.7080  142.9050 O   0  0  0  0  0  0  0  0  0  0  0  0
  193.7780  173.7580  138.3540 C   0  0  0  0  0  0  0  0  0  0  0  0
  190.8530  173.9900  141.2990 C   0  0  0  0  0  0  0  0  0  0  0  0
  195.7480  175.7590  143.9570 C   0  0  0  0  0  0  0  0  0  0  0  0
  190.9880  177.0350  143.5560 N   0  0  0  0  0  2  0  0  0  0  0  0
  191.5880  172.8530  139.3180 C   0  0  0  0  0  0  0  0  0  0  0  0
  191.3360  174.9670  142.2060 N   0  0  0  0  0  0  0  0  0  0  0  0
  194.0490  176.2120  145.6460 C   0  0  0  0  0  0  0  0  0  0  0  0
  191.7640  173.7640  140.3360 C   0  0  0  0  0  0  0  0  0  0  0  0
  190.4340  175.7610  143.0540 C   0  0  1  0  0  3  0  0  0  0  0  0
  190.3820  172.1260  139.2990 C   0  0  0  0  0  3  0  0  0  0  0  0
  195.3890  176.0040  145.1820 N   0  0  0  0  0  0  0  0  0  0  0  0
  192.9170  174.5340  140.5360 N   0  0  0  0  0  0  0  0  0  0  0  0
  193.2430  174.8980  137.5030 C   0  0  0  0  0  1  0  0  0  0  0  0
  188.8220  173.3290  142.5080 N   0  0  0  0  0  2  0  0  0  0  0  0
  189.4180  172.3330  140.3220 C   0  0  0  0  0  3  0  0  0  0  0  0
  194.1320  174.2960  139.7640 C   0  0  0  0  0  2  0  0  0  0  0  0
  192.8560  175.8740  144.8130 C   0  0  1  0  0  3  0  0  0  0  0  0
  192.4060  177.0630  143.9450 C   0  0  0  0  0  2  0  0  0  0  0  0
  189.6660  173.2630  141.3570 C   0  0  0  0  0  0  0  0  0  0  0  0
  192.7180  175.2870  141.7840 C   0  0  2  0  0  3  0  0  0  0  0  0
  192.7380  172.6030  138.3770 C   0  0  0  0  0  2  0  0  0  0  0  0
  189.7630  174.9530  144.1770 C   0  0  2  0  0  3  0  0  0  0  0  0
  195.0470  173.2440  137.7070 C   0  0  0  0  0  1  0  0  0  0  0  0
  193.0720  174.6530  144.1260 O   0  0  0  0  0  0  0  0  0  0  0  0
  193.8670  176.6690  146.8050 O   0  0  0  0  0  0  0  0  0  0  0  0
  193.7060  174.8270  142.8660 C   0  0  2  0  0  3  0  0  0  0  0  0
  189.3980  173.4990  143.8420 C   0  0  0  0  0  2  0  0  0  0  0  0
  188.4510  175.8820  146.1270 C   0  0  0  0  0  3  0  0  0  0  0  0
  188.5830  175.6810  144.7450 C   0  0  0  0  0  0  0  0  0  0  0  0
  187.5990  176.1680  143.8780 C   0  0  0  0  0  3  0  0  0  0  0  0
  185.4900  177.3390  143.5000 N   0  0  0  0  0  1  0  0  0  0  0  0
  186.3590  177.0450  145.7640 C   0  0  0  0  0  3  0  0  0  0  0  0
  186.4880  176.8480  144.3860 C   0  0  0  0  0  0  0  0  0  0  0  0
  187.3410  176.5620  146.6350 C   0  0  0  0  0  3  0  0  0  0  0  0
  197.6750  176.7960  143.0830 O   0  0  0  0  0  1  0  0  0  0  0  0
  197.1960  175.6150  143.6490 C   0  0  0  0  0  2  0  0  0  0  0  0
  1  4  1  0  0  0  0
  2 22  1  0  0  0  0
  2 17  1  0  0  0  0
  3 20  1  0  0  0  0
  3  7  1  0  0  0  0
  4 12  2  0  0  0  0
  5 19  1  0  0  0  0
  6  9  1  0  0  0  0
  7 10  1  0  0  0  0
  8 26  2  0  0  0  0
  9 13  1  0  0  0  0
  9  3  2  0  0  0  0
 10  5  1  1  0  0  0
 10 23  1  0  0  0  0
 11  6  2  0  0  0  0
 11 16  1  0  0  0  0
 12  8  1  0  0  0  0
 14  2  1  0  0  0  0
 15 28  1  0  0  0  0
 16 20  2  0  0  0  0
 17 13  1  0  0  0  0
 18 19  1  6  0  0  0
 18  8  1  0  0  0  0
 20 15  1  0  0  0  0
 21 13  1  6  0  0  0
 21  7  1  0  0  0  0
 21 27  1  0  0  0  0
 22  6  1  0  0  0  0
 23 30  1  6  0  0  0
 24  2  1  0  0  0  0
 25 18  1  0  0  0  0
 27  1  1  1  0  0  0
 27 25  1  0  0  0  0
 28 23  1  0  0  0  0
 29 35  1  0  0  0  0
 30 29  2  0  0  0  0
 31 34  2  0  0  0  0
 31 30  1  0  0  0  0
 32 34  1  0  0  0  0
 33 35  2  0  0  0  0
 34 33  1  0  0  0  0
 36 37  1  0  0  0  0
 37  4  1  0  0  0  0
M  END
>  <MODEL>
5

>  <REMARK>
 VINA RESULT:      -8.0      2.931      7.411
  Name = 
  2 active torsions:
  status: ('A' for Active; 'I' for Inactive)
    1  A    between atoms: C_4  and  C_37
    2  A    between atoms: C_23  and  C_30
                            x       y       z     vdW  Elec       q    Type
                         _______ _______ _______ _____ _____    ______ ____

>  <TORSDO>
F 2

$$$$
=
 OpenBabel11112417083D

 37 43  0  0  1  0  0  0  0  0999 V2000
  193.1620  175.8610  144.6470 O   0  0  0  0  0  0  0  0  0  0  0  0
  194.2480  173.7760  140.1650 C   0  0  0  0  0  0  0  0  0  0  0  0
  190.3090  174.5030  141.2760 C   0  0  0  0  0  0  0  0  0  0  0  0
  193.4430  175.8710  146.0160 C   0  0  0  0  0  0  0  0  0  0  0  0
  189.6980  177.6420  143.3170 N   0  0  0  0  0  2  0  0  0  0  0  0
  191.7730  173.1770  139.9150 C   0  0  0  0  0  0  0  0  0  0  0  0
  190.4020  175.4720  142.3080 N   0  0  0  0  0  0  0  0  0  0  0  0
  191.2060  176.6080  146.6450 C   0  0  0  0  0  0  0  0  0  0  0  0
  191.5390  174.1220  140.8900 C   0  0  0  0  0  0  0  0  0  0  0  0
  189.3080  176.4100  142.6010 C   0  0  1  0  0  3  0  0  0  0  0  0
  190.6520  172.5890  139.2990 C   0  0  0  0  0  3  0  0  0  0  0  0
  192.5620  176.2260  146.9040 N   0  0  0  0  0  0  0  0  0  0  0  0
  192.5310  174.7690  141.6380 N   0  0  0  0  0  0  0  0  0  0  0  0
  194.3480  174.9150  139.1660 C   0  0  0  0  0  1  0  0  0  0  0  0
  187.8810  174.1440  141.3200 N   0  0  0  0  0  2  0  0  0  0  0  0
  189.3440  172.9610  139.7110 C   0  0  0  0  0  3  0  0  0  0  0  0
  193.9280  174.3530  141.5680 C   0  0  0  0  0  2  0  0  0  0  0  0
  190.5440  176.3570  145.3290 C   0  0  1  0  0  3  0  0  0  0  0  0
  190.7320  177.5350  144.3570 C   0  0  0  0  0  2  0  0  0  0  0  0
  189.1670  173.9170  140.7370 C   0  0  0  0  0  0  0  0  0  0  0  0
  191.8400  175.6120  142.6260 C   0  0  2  0  0  3  0  0  0  0  0  0
  193.1960  172.7460  139.6660 C   0  0  0  0  0  2  0  0  0  0  0  0
  188.0760  175.7480  143.2420 C   0  0  2  0  0  3  0  0  0  0  0  0
  195.5950  173.0870  140.2290 C   0  0  0  0  0  1  0  0  0  0  0  0
  190.9150  175.0810  144.8340 O   0  0  0  0  0  0  0  0  0  0  0  0
  190.5370  177.1490  147.5640 O   0  0  0  0  0  0  0  0  0  0  0  0
  192.1030  175.1090  144.0540 C   0  0  2  0  0  3  0  0  0  0  0  0
  187.7430  174.3260  142.7650 C   0  0  0  0  0  2  0  0  0  0  0  0
  186.1870  177.0450  144.3080 C   0  0  0  0  0  3  0  0  0  0  0  0
  186.8720  176.6350  143.1540 C   0  0  0  0  0  0  0  0  0  0  0  0
  186.4250  177.0580  141.8980 C   0  0  0  0  0  3  0  0  0  0  0  0
  184.8520  178.3110  140.5120 N   0  0  0  0  0  1  0  0  0  0  0  0
  184.6220  178.2900  142.9440 C   0  0  0  0  0  3  0  0  0  0  0  0
  185.3020  177.8840  141.7920 C   0  0  0  0  0  0  0  0  0  0  0  0
  185.0650  177.8710  144.2020 C   0  0  0  0  0  3  0  0  0  0  0  0
  195.6390  175.3300  145.3540 O   0  0  0  0  0  1  0  0  0  0  0  0
  194.8250  175.5490  146.4650 C   0  0  0  0  0  2  0  0  0  0  0  0
  1  4  1  0  0  0  0
  2 24  1  0  0  0  0
  2 17  1  0  0  0  0
  3  7  1  0  0  0  0
  4 37  1  0  0  0  0
  4 12  2  0  0  0  0
  5 19  1  0  0  0  0
  6  9  2  0  0  0  0
  7 10  1  0  0  0  0
  7 21  1  0  0  0  0
  8 12  1  0  0  0  0
  8 26  2  0  0  0  0
  9  3  1  0  0  0  0
  9 13  1  0  0  0  0
 10 23  1  0  0  0  0
 10  5  1  1  0  0  0
 11 16  2  0  0  0  0
 11  6  1  0  0  0  0
 14  2  1  0  0  0  0
 15 28  1  0  0  0  0
 16 20  1  0  0  0  0
 17 13  1  0  0  0  0
 18 19  1  6  0  0  0
 18  8  1  0  0  0  0
 20  3  2  0  0  0  0
 20 15  1  0  0  0  0
 21 13  1  6  0  0  0
 21 27  1  0  0  0  0
 22  6  1  0  0  0  0
 22  2  1  0  0  0  0
 23 30  1  6  0  0  0
 25 18  1  0  0  0  0
 27  1  1  1  0  0  0
 27 25  1  0  0  0  0
 28 23  1  0  0  0  0
 30 29  2  0  0  0  0
 31 30  1  0  0  0  0
 32 34  1  0  0  0  0
 33 35  2  0  0  0  0
 34 31  2  0  0  0  0
 34 33  1  0  0  0  0
 35 29  1  0  0  0  0
 36 37  1  0  0  0  0
M  END
>  <MODEL>
6

>  <REMARK>
 VINA RESULT:      -8.0      2.640      7.905
  Name = 
  2 active torsions:
  status: ('A' for Active; 'I' for Inactive)
    1  A    between atoms: C_4  and  C_37
    2  A    between atoms: C_23  and  C_30
                            x       y       z     vdW  Elec       q    Type
                         _______ _______ _______ _____ _____    ______ ____

>  <TORSDO>
F 2

$$$$
=
 OpenBabel11112417083D

 37 43  0  0  1  0  0  0  0  0999 V2000
  189.5960  173.9340  140.8250 O   0  0  0  0  0  0  0  0  0  0  0  0
  187.1780  176.8520  144.1790 C   0  0  0  0  0  0  0  0  0  0  0  0
  190.9700  175.3590  144.9990 C   0  0  0  0  0  0  0  0  0  0  0  0
  189.4830  172.8710  139.9230 C   0  0  0  0  0  0  0  0  0  0  0  0
  193.3440  175.1100  142.0510 N   0  0  0  0  0  2  0  0  0  0  0  0
  188.9120  176.1660  145.9310 C   0  0  0  0  0  0  0  0  0  0  0  0
  191.5010  175.0160  143.7290 N   0  0  0  0  0  0  0  0  0  0  0  0
  191.8110  172.1890  140.1720 C   0  0  0  0  0  0  0  0  0  0  0  0
  189.7000  175.7800  144.8690 C   0  0  0  0  0  0  0  0  0  0  0  0
  192.9480  174.9870  143.4690 C   0  0  1  0  0  3  0  0  0  0  0  0
  189.4840  176.1110  147.2170 C   0  0  0  0  0  3  0  0  0  0  0  0
  190.4900  172.1050  139.6230 N   0  0  0  0  0  0  0  0  0  0  0  0
  189.2800  175.7240  143.5330 N   0  0  0  0  0  0  0  0  0  0  0  0
  187.6200  178.2820  143.9140 C   0  0  0  0  0  1  0  0  0  0  0  0
  192.8170  174.5610  146.4040 N   0  0  0  0  0  2  0  0  0  0  0  0
  190.8160  175.6460  147.3770 C   0  0  0  0  0  3  0  0  0  0  0  0
  187.8780  175.9060  143.1710 C   0  0  0  0  0  2  0  0  0  0  0  0
  192.1170  172.9940  141.3920 C   0  0  1  0  0  3  0  0  0  0  0  0
  192.5090  174.4410  141.0440 C   0  0  0  0  0  2  0  0  0  0  0  0
  191.5670  175.2360  146.2520 C   0  0  0  0  0  0  0  0  0  0  0  0
  190.3970  175.1670  142.7560 C   0  0  2  0  0  3  0  0  0  0  0  0
  187.4660  176.4940  145.6640 C   0  0  0  0  0  2  0  0  0  0  0  0
  193.6820  173.8270  144.1640 C   0  0  2  0  0  3  0  0  0  0  0  0
  185.6830  176.7730  143.9500 C   0  0  0  0  0  1  0  0  0  0  0  0
  191.0780  172.8480  142.3460 O   0  0  0  0  0  0  0  0  0  0  0  0
  192.7420  171.5420  139.6260 O   0  0  0  0  0  0  0  0  0  0  0  0
  190.0290  173.7920  142.1780 C   0  0  2  0  0  3  0  0  0  0  0  0
  193.1560  173.4230  145.5500 C   0  0  0  0  0  2  0  0  0  0  0  0
  196.0300  173.1180  144.7720 C   0  0  0  0  0  3  0  0  0  0  0  0
  195.1610  174.0610  144.2020 C   0  0  0  0  0  0  0  0  0  0  0  0
  195.6800  175.2420  143.6610 C   0  0  0  0  0  3  0  0  0  0  0  0
  197.5790  176.6840  143.1380 N   0  0  0  0  0  1  0  0  0  0  0  0
  197.9200  174.5400  144.2580 C   0  0  0  0  0  3  0  0  0  0  0  0
  197.0570  175.4820  143.6890 C   0  0  0  0  0  0  0  0  0  0  0  0
  197.4060  173.3580  144.7990 C   0  0  0  0  0  3  0  0  0  0  0  0
  188.1990  173.3680  138.0110 O   0  0  0  0  0  1  0  0  0  0  0  0
  188.1900  172.6670  139.2170 C   0  0  0  0  0  2  0  0  0  0  0  0
  2 22  1  0  0  0  0
  3 20  1  0  0  0  0
  4  1  1  0  0  0  0
  6 11  2  0  0  0  0
  7  3  1  0  0  0  0
  8 18  1  0  0  0  0
  9  3  2  0  0  0  0
  9  6  1  0  0  0  0
 10  5  1  6  0  0  0
 10  7  1  0  0  0  0
 10 23  1  0  0  0  0
 11 16  1  0  0  0  0
 12  4  2  0  0  0  0
 12  8  1  0  0  0  0
 13  9  1  0  0  0  0
 14  2  1  0  0  0  0
 17 13  1  0  0  0  0
 17  2  1  0  0  0  0
 18 19  1  6  0  0  0
 18 25  1  0  0  0  0
 19  5  1  0  0  0  0
 20 15  1  0  0  0  0
 20 16  2  0  0  0  0
 21 13  1  1  0  0  0
 21  7  1  0  0  0  0
 22  6  1  0  0  0  0
 23 30  1  1  0  0  0
 23 28  1  0  0  0  0
 24  2  1  0  0  0  0
 26  8  2  0  0  0  0
 27  1  1  6  0  0  0
 27 25  1  0  0  0  0
 27 21  1  0  0  0  0
 28 15  1  0  0  0  0
 29 35  1  0  0  0  0
 30 29  2  0  0  0  0
 31 34  2  0  0  0  0
 31 30  1  0  0  0  0
 32 34  1  0  0  0  0
 33 35  2  0  0  0  0
 34 33  1  0  0  0  0
 36 37  1  0  0  0  0
 37  4  1  0  0  0  0
M  END
>  <MODEL>
7

>  <REMARK>
 VINA RESULT:      -7.8      1.758      2.295
  Name = 
  2 active torsions:
  status: ('A' for Active; 'I' for Inactive)
    1  A    between atoms: C_4  and  C_37
    2  A    between atoms: C_23  and  C_30
                            x       y       z     vdW  Elec       q    Type
                         _______ _______ _______ _____ _____    ______ ____

>  <TORSDO>
F 2

$$$$
=
 OpenBabel11112417083D

 37 43  0  0  1  0  0  0  0  0999 V2000
  191.3380  176.7110  146.3210 O   0  0  0  0  0  0  0  0  0  0  0  0
  194.7360  174.3290  143.4220 C   0  0  0  0  0  0  0  0  0  0  0  0
  190.7890  174.7340  142.1810 C   0  0  0  0  0  0  0  0  0  0  0  0
  190.8430  176.8840  147.6160 C   0  0  0  0  0  0  0  0  0  0  0  0
  189.0590  177.9720  143.1350 N   0  0  0  0  0  2  0  0  0  0  0  0
  192.8050  173.4470  141.9940 C   0  0  0  0  0  0  0  0  0  0  0  0
  190.2770  175.8030  142.9610 N   0  0  0  0  0  0  0  0  0  0  0  0
  188.5900  177.4340  146.8640 C   0  0  0  0  0  0  0  0  0  0  0  0
  192.0480  174.4510  142.5570 C   0  0  0  0  0  0  0  0  0  0  0  0
  189.1610  176.6420  142.5000 C   0  0  1  0  0  3  0  0  0  0  0  0
  192.2120  172.6840  140.9690 C   0  0  0  0  0  3  0  0  0  0  0  0
  189.6100  177.2270  147.8480 N   0  0  0  0  0  0  0  0  0  0  0  0
  192.4600  175.2710  143.6160 N   0  0  0  0  0  0  0  0  0  0  0  0
  195.3110  175.3700  142.4770 C   0  0  0  0  0  1  0  0  0  0  0  0
  188.7310  174.1220  140.9910 N   0  0  0  0  0  2  0  0  0  0  0  0
  190.8730  172.9530  140.5760 C   0  0  0  0  0  3  0  0  0  0  0  0
  193.6920  175.0020  144.3490 C   0  0  0  0  0  2  0  0  0  0  0  0
  188.7460  176.9870  145.4470 C   0  0  1  0  0  3  0  0  0  0  0  0
  189.3790  178.0780  144.5650 C   0  0  0  0  0  2  0  0  0  0  0  0
  190.1370  173.9790  141.2100 C   0  0  0  0  0  0  0  0  0  0  0  0
  191.3150  176.1260  143.9650 C   0  0  2  0  0  3  0  0  0  0  0  0
  194.1550  173.1490  142.5930 C   0  0  0  0  0  2  0  0  0  0  0  0
  187.8040  175.9170  142.4820 C   0  0  2  0  0  3  0  0  0  0  0  0
  195.8650  173.7990  144.2800 C   0  0  0  0  0  1  0  0  0  0  0  0
  189.3730  175.7160  145.4040 O   0  0  0  0  0  0  0  0  0  0  0  0
  187.5120  177.9870  147.2070 O   0  0  0  0  0  0  0  0  0  0  0  0
  190.7920  175.7960  145.3710 C   0  0  2  0  0  3  0  0  0  0  0  0
  187.8340  174.4280  142.1050 C   0  0  0  0  0  2  0  0  0  0  0  0
  186.9970  176.8470  140.2760 C   0  0  0  0  0  3  0  0  0  0  0  0
  186.8000  176.6570  141.6520 C   0  0  0  0  0  0  0  0  0  0  0  0
  185.6500  177.1660  142.2640 C   0  0  0  0  0  3  0  0  0  0  0  0
  183.5340  178.3780  142.1360 N   0  0  0  0  0  1  0  0  0  0  0  0
  184.9010  178.0500  140.1380 C   0  0  0  0  0  3  0  0  0  0  0  0
  184.7010  177.8620  141.5090 C   0  0  0  0  0  0  0  0  0  0  0  0
  186.0480  177.5420  139.5210 C   0  0  0  0  0  3  0  0  0  0  0  0
  191.7300  177.9150  149.5400 O   0  0  0  0  0  1  0  0  0  0  0  0
  191.7810  176.7580  148.7630 C   0  0  0  0  0  2  0  0  0  0  0  0
  1  4  1  0  0  0  0
  2 24  1  0  0  0  0
  2 17  1  0  0  0  0
  3  9  1  0  0  0  0
  3  7  1  0  0  0  0
  4 12  2  0  0  0  0
  4 37  1  0  0  0  0
  5 19  1  0  0  0  0
  6  9  2  0  0  0  0
  6 22  1  0  0  0  0
  8 26  2  0  0  0  0
  8 12  1  0  0  0  0
  9 13  1  0  0  0  0
 10  7  1  0  0  0  0
 10  5  1  1  0  0  0
 11  6  1  0  0  0  0
 13 21  1  0  0  0  0
 13 17  1  0  0  0  0
 14  2  1  0  0  0  0
 15 20  1  0  0  0  0
 15 28  1  0  0  0  0
 16 11  2  0  0  0  0
 16 20  1  0  0  0  0
 18 19  1  6  0  0  0
 18  8  1  0  0  0  0
 20  3  2  0  0  0  0
 21  7  1  6  0  0  0
 21 27  1  0  0  0  0
 22  2  1  0  0  0  0
 23 30  1  6  0  0  0
 23 10  1  0  0  0  0
 25 18  1  0  0  0  0
 27 25  1  6  0  0  0
 27  1  1  0  0  0  0
 28 23  1  0  0  0  0
 29 30  1  0  0  0  0
 30 31  2  0  0  0  0
 33 34  2  0  0  0  0
 34 32  1  0  0  0  0
 34 31  1  0  0  0  0
 35 33  1  0  0  0  0
 35 29  2  0  0  0  0
 37 36  1  0  0  0  0
M  END
>  <MODEL>
8

>  <REMARK>
 VINA RESULT:      -7.8      2.909      8.303
  Name = 
  2 active torsions:
  status: ('A' for Active; 'I' for Inactive)
    1  A    between atoms: C_4  and  C_37
    2  A    between atoms: C_23  and  C_30
                            x       y       z     vdW  Elec       q    Type
                         _______ _______ _______ _____ _____    ______ ____

>  <TORSDO>
F 2

$$$$
=
 OpenBabel11112417083D

 37 43  0  0  1  0  0  0  0  0999 V2000
  185.5960  178.1690  142.1600 O   0  0  0  0  0  0  0  0  0  0  0  0
  185.4460  178.3220  147.2170 C   0  0  0  0  0  0  0  0  0  0  0  0
  188.4330  176.2140  145.2380 C   0  0  0  0  0  0  0  0  0  0  0  0
  184.8520  178.0200  140.9860 C   0  0  0  0  0  0  0  0  0  0  0  0
  189.6840  177.7310  141.9950 N   0  0  0  0  0  2  0  0  0  0  0  0
  187.1630  176.4250  147.2630 C   0  0  0  0  0  0  0  0  0  0  0  0
  188.4460  176.7570  143.9280 N   0  0  0  0  0  0  0  0  0  0  0  0
  186.7120  177.0680  139.7280 C   0  0  0  0  0  0  0  0  0  0  0  0
  187.4380  176.7640  145.9560 C   0  0  0  0  0  0  0  0  0  0  0  0
  189.6490  176.7320  143.0830 C   0  0  1  0  0  3  0  0  0  0  0  0
  187.9760  175.4450  147.8640 C   0  0  0  0  0  3  0  0  0  0  0  0
  185.3690  177.5410  139.8930 N   0  0  0  0  0  0  0  0  0  0  0  0
  186.7040  177.6790  145.1900 N   0  0  0  0  0  0  0  0  0  0  0  0
  186.3250  179.4850  147.6460 C   0  0  0  0  0  1  0  0  0  0  0  0
  190.1180  174.4560  144.9290 N   0  0  0  0  0  2  0  0  0  0  0  0
  189.0160  174.8340  147.1130 C   0  0  0  0  0  3  0  0  0  0  0  0
  185.4410  178.2290  145.6700 C   0  0  0  0  0  2  0  0  0  0  0  0
  187.6080  176.7900  140.8900 C   0  0  1  0  0  3  0  0  0  0  0  0
  188.4270  178.0290  141.2940 C   0  0  0  0  0  2  0  0  0  0  0  0
  189.2340  175.2050  145.7670 C   0  0  0  0  0  0  0  0  0  0  0  0
  187.2770  177.6610  143.8360 C   0  0  2  0  0  3  0  0  0  0  0  0
  185.9410  177.0220  147.9120 C   0  0  0  0  0  2  0  0  0  0  0  0
  190.0250  175.3290  142.5770 C   0  0  2  0  0  3  0  0  0  0  0  0
  184.0340  178.6040  147.6840 C   0  0  0  0  0  1  0  0  0  0  0  0
  186.8750  176.1680  141.9330 O   0  0  0  0  0  0  0  0  0  0  0  0
  187.1450  176.8520  138.5660 O   0  0  0  0  0  0  0  0  0  0  0  0
  186.2700  177.0980  142.8220 C   0  0  2  0  0  3  0  0  0  0  0  0
  189.7570  174.1640  143.5420 C   0  0  0  0  0  2  0  0  0  0  0  0
  192.4340  176.0920  142.6470 C   0  0  0  0  0  3  0  0  0  0  0  0
  191.4350  175.2900  142.0730 C   0  0  0  0  0  0  0  0  0  0  0  0
  191.7570  174.4400  141.0100 C   0  0  0  0  0  3  0  0  0  0  0  0
  193.3880  173.5240  139.4400 N   0  0  0  0  0  1  0  0  0  0  0  0
  194.0580  175.1900  141.0960 C   0  0  0  0  0  3  0  0  0  0  0  0
  193.0670  174.3900  140.5210 C   0  0  0  0  0  0  0  0  0  0  0  0
  193.7420  176.0410  142.1600 C   0  0  0  0  0  3  0  0  0  0  0  0
  182.8540  178.2910  142.2050 O   0  0  0  0  0  1  0  0  0  0  0  0
  183.4480  178.5080  140.9620 C   0  0  0  0  0  2  0  0  0  0  0  0
  1 27  1  0  0  0  0
  2 14  1  0  0  0  0
  2 24  1  0  0  0  0
  2 22  1  0  0  0  0
  3 20  2  0  0  0  0
  3  9  1  0  0  0  0
  4  1  1  0  0  0  0
  6 11  1  0  0  0  0
  6 22  1  0  0  0  0
  7  3  1  0  0  0  0
  8 12  1  0  0  0  0
  8 18  1  0  0  0  0
  9  6  2  0  0  0  0
 10  5  1  6  0  0  0
 10  7  1  0  0  0  0
 12  4  2  0  0  0  0
 13 17  1  0  0  0  0
 13  9  1  0  0  0  0
 15 20  1  0  0  0  0
 16 11  2  0  0  0  0
 17  2  1  0  0  0  0
 18 19  1  1  0  0  0
 18 25  1  0  0  0  0
 19  5  1  0  0  0  0
 20 16  1  0  0  0  0
 21  7  1  1  0  0  0
 21 13  1  0  0  0  0
 23 30  1  1  0  0  0
 23 10  1  0  0  0  0
 23 28  1  0  0  0  0
 26  8  2  0  0  0  0
 27 25  1  6  0  0  0
 27 21  1  0  0  0  0
 28 15  1  0  0  0  0
 30 29  2  0  0  0  0
 31 30  1  0  0  0  0
 32 34  1  0  0  0  0
 33 35  2  0  0  0  0
 34 31  2  0  0  0  0
 34 33  1  0  0  0  0
 35 29  1  0  0  0  0
 37  4  1  0  0  0  0
 37 36  1  0  0  0  0
M  END
>  <MODEL>
9

>  <REMARK>
 VINA RESULT:      -7.7      2.923      4.435
  Name = 
  2 active torsions:
  status: ('A' for Active; 'I' for Inactive)
    1  A    between atoms: C_4  and  C_37
    2  A    between atoms: C_23  and  C_30
                            x       y       z     vdW  Elec       q    Type
                         _______ _______ _______ _____ _____    ______ ____

>  <TORSDO>
F 2

$$$$
