=
 OpenBabel11112417163D

 37 44  0  0  1  0  0  0  0  0999 V2000
  190.7550  173.3930  142.6190 C   0  0  0  0  0  2  0  0  0  0  0  0
  195.0840  175.2860  142.6360 C   0  0  1  0  0  0  0  0  0  0  0  0
  191.8030  176.0990  145.0880 C   0  0  0  0  0  0  0  0  0  0  0  0
  190.6060  172.2880  141.5700 C   0  0  2  0  0  3  0  0  0  0  0  0
  188.2500  176.3410  143.3950 C   0  0  0  0  0  2  0  0  0  0  0  0
  194.2020  175.8630  144.8880 C   0  0  0  0  0  0  0  0  0  0  0  0
  190.6730  176.1360  144.2060 N   0  0  0  0  0  0  0  0  0  0  0  0
  188.1970  172.9860  141.4650 C   0  0  0  0  0  0  0  0  0  0  0  0
  192.9250  175.8070  144.3790 C   0  0  0  0  0  0  0  0  0  0  0  0
  189.2880  176.5310  144.4850 C   0  0  0  0  0  0  0  0  0  0  0  0
  194.3570  176.1540  146.2470 C   0  0  0  0  0  3  0  0  0  0  0  0
  189.3620  172.4500  140.6900 C   0  0  0  0  0  2  0  0  0  0  0  0
  192.6710  175.6420  143.0180 N   0  0  0  0  0  0  0  0  0  0  0  0
  195.0870  173.7710  142.5520 C   0  0  0  0  0  1  0  0  0  0  0  0
  190.8120  176.7840  147.3060 C   0  0  0  0  0  3  0  0  0  0  0  0
  193.2090  176.4230  147.0240 C   0  0  0  0  0  3  0  0  0  0  0  0
  193.7510  175.8220  142.0510 C   0  0  0  0  0  2  0  0  0  0  0  0
  187.9790  174.4670  141.5850 C   0  0  1  0  0  3  0  0  0  0  0  0
  188.4750  174.9660  142.8550 C   0  0  1  0  0  3  0  0  0  0  0  0
  191.9190  176.4220  146.4440 C   0  0  0  0  0  0  0  0  0  0  0  0
  191.2520  175.9260  142.8320 C   0  0  1  0  0  3  0  0  0  0  0  0
  195.2790  175.6860  144.0090 O   0  0  0  0  0  0  0  0  0  0  0  0
  188.8230  176.9550  145.6950 C   0  0  0  0  0  0  0  0  0  0  0  0
  196.1300  175.7700  141.8740 F   0  0  0  0  0  0  0  0  0  0  0  0
  189.2440  175.2410  141.6300 N   0  0  1  0  0  0  0  0  0  0  0  0
  187.4240  172.2130  142.0080 O   0  0  0  0  0  0  0  0  0  0  0  0
  190.5980  174.7990  142.0040 C   0  0  2  0  0  3  0  0  0  0  0  0
  189.5480  177.0010  146.9790 C   0  0  0  0  0  3  0  0  0  0  0  0
  186.5830  176.7900  146.8030 C   0  0  0  0  0  3  0  0  0  0  0  0
  187.4130  177.3930  145.8460 C   0  0  0  0  0  0  0  0  0  0  0  0
  186.9060  178.4410  145.0600 C   0  0  0  0  0  3  0  0  0  0  0  0
  184.9600  180.1660  144.2270 Cl  0  0  0  0  0  0  0  0  0  0  0  0
  184.7610  178.2530  146.1660 C   0  0  0  0  0  3  0  0  0  0  0  0
  185.5840  178.8650  145.2180 C   0  0  0  0  0  0  0  0  0  0  0  0
  185.2610  177.2170  146.9590 C   0  0  0  0  0  3  0  0  0  0  0  0
  190.7530  169.9200  141.2930 O   0  0  0  0  0  1  0  0  0  0  0  0
  190.5890  170.9270  142.2450 C   0  0  0  0  0  2  0  0  0  0  0  0
  2 14  1  6  0  0  0
  2 22  1  0  0  0  0
  3 20  1  0  0  0  0
  4 37  1  1  0  0  0
  4  1  1  0  0  0  0
  5 10  1  0  0  0  0
  6 11  2  0  0  0  0
  7 10  1  0  0  0  0
  7  3  1  0  0  0  0
  8 26  2  0  0  0  0
  9  6  1  0  0  0  0
  9  3  2  0  0  0  0
 10 23  2  0  0  0  0
 11 16  1  0  0  0  0
 12  8  1  0  0  0  0
 12  4  1  0  0  0  0
 13  9  1  0  0  0  0
 17  2  1  0  0  0  0
 17 13  1  0  0  0  0
 18  8  1  1  0  0  0
 18 25  1  0  0  0  0
 18 19  1  0  0  0  0
 19  5  1  6  0  0  0
 20 16  2  0  0  0  0
 20 15  1  0  0  0  0
 21 13  1  1  0  0  0
 21  7  1  0  0  0  0
 22  6  1  0  0  0  0
 23 30  1  0  0  0  0
 23 28  1  0  0  0  0
 24  2  1  0  0  0  0
 25 27  1  0  0  0  0
 25 19  1  0  0  0  0
 27  1  1  0  0  0  0
 27 21  1  0  0  0  0
 28 15  2  0  0  0  0
 29 35  1  0  0  0  0
 30 29  2  0  0  0  0
 31 34  2  0  0  0  0
 31 30  1  0  0  0  0
 32 34  1  0  0  0  0
 33 35  2  0  0  0  0
 34 33  1  0  0  0  0
 36 37  1  0  0  0  0
M  END
>  <MODEL>
1

>  <REMARK>
 VINA RESULT:     -10.3      0.000      0.000
  Name = 
  2 active torsions:
  status: ('A' for Active; 'I' for Inactive)
    1  A    between atoms: C_4  and  C_37
    2  A    between atoms: C_23  and  C_30
                            x       y       z     vdW  Elec       q    Type
                         _______ _______ _______ _____ _____    ______ ____

>  <TORSDO>
F 2

$$$$
=
 OpenBabel11112417163D

 37 44  0  0  1  0  0  0  0  0999 V2000
  191.9650  174.9590  144.1510 C   0  0  0  0  0  2  0  0  0  0  0  0
  191.0710  171.7050  140.8440 C   0  0  1  0  0  0  0  0  0  0  0  0
  188.7120  174.8870  142.1680 C   0  0  0  0  0  0  0  0  0  0  0  0
  193.3620  174.8040  144.7600 C   0  0  2  0  0  3  0  0  0  0  0  0
  188.5600  175.5810  146.0460 C   0  0  0  0  0  2  0  0  0  0  0  0
  189.4460  173.5130  140.3170 C   0  0  0  0  0  0  0  0  0  0  0  0
  188.8450  174.8850  143.5960 N   0  0  0  0  0  0  0  0  0  0  0  0
  192.3440  175.7640  146.8430 C   0  0  0  0  0  0  0  0  0  0  0  0
  189.4770  173.8950  141.6380 C   0  0  0  0  0  0  0  0  0  0  0  0
  188.1230  175.6780  144.5970 C   0  0  0  0  0  0  0  0  0  0  0  0
  188.6430  174.2450  139.4380 C   0  0  0  0  0  3  0  0  0  0  0  0
  193.3610  174.8120  146.2920 C   0  0  0  0  0  2  0  0  0  0  0  0
  190.1510  173.1610  142.6120 N   0  0  0  0  0  0  0  0  0  0  0  0
  192.4530  172.3230  140.7260 C   0  0  0  0  0  1  0  0  0  0  0  0
  186.9870  176.6830  141.7610 C   0  0  0  0  0  3  0  0  0  0  0  0
  187.8660  175.3080  139.9460 C   0  0  0  0  0  3  0  0  0  0  0  0
  190.5980  171.8010  142.3170 C   0  0  0  0  0  2  0  0  0  0  0  0
  190.9390  175.3060  147.1100 C   0  0  1  0  0  3  0  0  0  0  0  0
  190.0500  175.6930  146.0280 C   0  0  1  0  0  3  0  0  0  0  0  0
  187.8750  175.6250  141.3250 C   0  0  0  0  0  0  0  0  0  0  0  0
  189.7170  173.6960  143.8990 C   0  0  1  0  0  3  0  0  0  0  0  0
  190.1730  172.3770  139.9350 O   0  0  0  0  0  0  0  0  0  0  0  0
  187.1500  176.5930  144.3190 C   0  0  0  0  0  0  0  0  0  0  0  0
  191.1550  170.3730  140.4890 F   0  0  0  0  0  0  0  0  0  0  0  0
  190.4640  174.2850  146.1440 N   0  0  1  0  0  0  0  0  0  0  0  0
  192.6600  176.9210  147.0720 O   0  0  0  0  0  0  0  0  0  0  0  0
  190.9480  173.9880  144.7850 C   0  0  2  0  0  3  0  0  0  0  0  0
  186.7000  177.0640  142.9960 C   0  0  0  0  0  3  0  0  0  0  0  0
  185.0370  177.2900  145.4680 C   0  0  0  0  0  3  0  0  0  0  0  0
  186.4390  177.2890  145.4200 C   0  0  0  0  0  0  0  0  0  0  0  0
  187.1600  177.9210  146.4460 C   0  0  0  0  0  3  0  0  0  0  0  0
  187.3970  179.3500  148.7610 Cl  0  0  0  0  0  0  0  0  0  0  0  0
  185.0920  178.5620  147.5270 C   0  0  0  0  0  3  0  0  0  0  0  0
  186.4880  178.5580  147.4920 C   0  0  0  0  0  0  0  0  0  0  0  0
  184.3660  177.9270  146.5160 C   0  0  0  0  0  3  0  0  0  0  0  0
  195.4570  175.9270  144.9880 O   0  0  0  0  0  1  0  0  0  0  0  0
  194.2820  175.8930  144.2370 C   0  0  0  0  0  2  0  0  0  0  0  0
  1  4  1  0  0  0  0
  1 27  1  0  0  0  0
  2 14  1  6  0  0  0
  2 17  1  0  0  0  0
  3  7  1  0  0  0  0
  4 37  1  6  0  0  0
  4 12  1  0  0  0  0
  6  9  2  0  0  0  0
  7 21  1  0  0  0  0
  7 10  1  0  0  0  0
  8 26  2  0  0  0  0
  9  3  1  0  0  0  0
  9 13  1  0  0  0  0
 10  5  1  0  0  0  0
 11 16  2  0  0  0  0
 11  6  1  0  0  0  0
 12  8  1  0  0  0  0
 15 28  2  0  0  0  0
 16 20  1  0  0  0  0
 17 13  1  0  0  0  0
 18  8  1  6  0  0  0
 19  5  1  1  0  0  0
 19 25  1  0  0  0  0
 19 18  1  0  0  0  0
 20 15  1  0  0  0  0
 20  3  2  0  0  0  0
 21 13  1  6  0  0  0
 21 27  1  0  0  0  0
 22  6  1  0  0  0  0
 22  2  1  0  0  0  0
 23 10  2  0  0  0  0
 23 30  1  0  0  0  0
 24  2  1  0  0  0  0
 25 18  1  0  0  0  0
 27 25  1  0  0  0  0
 28 23  1  0  0  0  0
 29 35  1  0  0  0  0
 30 29  2  0  0  0  0
 30 31  1  0  0  0  0
 31 34  2  0  0  0  0
 34 33  1  0  0  0  0
 34 32  1  0  0  0  0
 35 33  2  0  0  0  0
 37 36  1  0  0  0  0
M  END
>  <MODEL>
2

>  <REMARK>
 VINA RESULT:      -9.1      2.268      5.310
  Name = 
  2 active torsions:
  status: ('A' for Active; 'I' for Inactive)
    1  A    between atoms: C_4  and  C_37
    2  A    between atoms: C_23  and  C_30
                            x       y       z     vdW  Elec       q    Type
                         _______ _______ _______ _____ _____    ______ ____

>  <TORSDO>
F 2

$$$$
=
 OpenBabel11112417163D

 37 44  0  0  1  0  0  0  0  0999 V2000
  193.4380  174.6010  144.1620 C   0  0  0  0  0  2  0  0  0  0  0  0
  192.9480  170.2360  142.4210 C   0  0  1  0  0  0  0  0  0  0  0  0
  190.1880  173.3650  142.6030 C   0  0  0  0  0  0  0  0  0  0  0  0
  194.8550  174.8670  144.6780 C   0  0  2  0  0  3  0  0  0  0  0  0
  190.0200  175.4840  145.9230 C   0  0  0  0  0  2  0  0  0  0  0  0
  191.0720  171.4820  141.3670 C   0  0  0  0  0  0  0  0  0  0  0  0
  190.3490  173.9330  143.9090 N   0  0  0  0  0  0  0  0  0  0  0  0
  193.7540  176.4270  146.3070 C   0  0  0  0  0  0  0  0  0  0  0  0
  191.0750  172.3480  142.4360 C   0  0  0  0  0  0  0  0  0  0  0  0
  189.5420  174.9560  144.5830 C   0  0  0  0  0  0  0  0  0  0  0  0
  190.1540  171.7110  140.3370 C   0  0  0  0  0  3  0  0  0  0  0  0
  194.8840  175.4680  146.0860 C   0  0  0  0  0  2  0  0  0  0  0  0
  191.8670  172.1380  143.5640 N   0  0  0  0  0  0  0  0  0  0  0  0
  194.2250  170.9240  141.9740 C   0  0  0  0  0  1  0  0  0  0  0  0
  188.2160  174.6350  141.6710 C   0  0  0  0  0  3  0  0  0  0  0  0
  189.2450  172.7830  140.4580 C   0  0  0  0  0  3  0  0  0  0  0  0
  192.4960  170.8360  143.7770 C   0  0  0  0  0  2  0  0  0  0  0  0
  192.4340  175.9390  146.8320 C   0  0  1  0  0  3  0  0  0  0  0  0
  191.4780  175.7630  145.7540 C   0  0  1  0  0  3  0  0  0  0  0  0
  189.2370  173.6090  141.6070 C   0  0  0  0  0  0  0  0  0  0  0  0
  191.3880  173.0730  144.5780 C   0  0  1  0  0  3  0  0  0  0  0  0
  191.9440  170.3850  141.3940 O   0  0  0  0  0  0  0  0  0  0  0  0
  188.4440  175.5640  144.0510 C   0  0  0  0  0  0  0  0  0  0  0  0
  193.2130  168.8910  142.5960 F   0  0  0  0  0  0  0  0  0  0  0  0
  192.0900  174.5730  146.3670 N   0  0  1  0  0  0  0  0  0  0  0  0
  193.9070  177.6110  146.0530 O   0  0  0  0  0  0  0  0  0  0  0  0
  192.5830  173.8340  145.1920 C   0  0  2  0  0  3  0  0  0  0  0  0
  187.9040  175.4260  142.6850 C   0  0  0  0  0  3  0  0  0  0  0  0
  187.5260  176.3680  146.2380 C   0  0  0  0  0  3  0  0  0  0  0  0
  187.6640  176.5400  144.8530 C   0  0  0  0  0  0  0  0  0  0  0  0
  187.0890  177.6650  144.2410 C   0  0  0  0  0  3  0  0  0  0  0  0
  185.6520  179.9870  144.2270 Cl  0  0  0  0  0  0  0  0  0  0  0  0
  186.2310  178.4090  146.3790 C   0  0  0  0  0  3  0  0  0  0  0  0
  186.3720  178.5930  145.0020 C   0  0  0  0  0  0  0  0  0  0  0  0
  186.8100  177.2970  146.9980 C   0  0  0  0  0  3  0  0  0  0  0  0
  194.7780  176.0980  142.6330 O   0  0  0  0  0  1  0  0  0  0  0  0
  195.5990  175.7730  143.7120 C   0  0  0  0  0  2  0  0  0  0  0  0
  1  4  1  0  0  0  0
  1 27  1  0  0  0  0
  2 14  1  6  0  0  0
  2 24  1  0  0  0  0
  2 17  1  0  0  0  0
  3  7  1  0  0  0  0
  4 37  1  6  0  0  0
  4 12  1  0  0  0  0
  6 22  1  0  0  0  0
  6  9  2  0  0  0  0
  7 21  1  0  0  0  0
  7 10  1  0  0  0  0
  9  3  1  0  0  0  0
  9 13  1  0  0  0  0
 10  5  1  0  0  0  0
 11 16  2  0  0  0  0
 11  6  1  0  0  0  0
 12  8  1  0  0  0  0
 13 17  1  0  0  0  0
 15 28  2  0  0  0  0
 16 20  1  0  0  0  0
 18  8  1  6  0  0  0
 19  5  1  1  0  0  0
 19 25  1  0  0  0  0
 19 18  1  0  0  0  0
 20 15  1  0  0  0  0
 20  3  2  0  0  0  0
 21 13  1  6  0  0  0
 21 27  1  0  0  0  0
 22  2  1  0  0  0  0
 23 10  2  0  0  0  0
 23 30  1  0  0  0  0
 25 18  1  0  0  0  0
 26  8  2  0  0  0  0
 27 25  1  0  0  0  0
 28 23  1  0  0  0  0
 29 35  1  0  0  0  0
 30 29  2  0  0  0  0
 31 30  1  0  0  0  0
 31 34  2  0  0  0  0
 32 34  1  0  0  0  0
 33 35  2  0  0  0  0
 34 33  1  0  0  0  0
 36 37  1  0  0  0  0
M  END
>  <MODEL>
3

>  <REMARK>
 VINA RESULT:      -8.6      2.082      5.310
  Name = 
  2 active torsions:
  status: ('A' for Active; 'I' for Inactive)
    1  A    between atoms: C_4  and  C_37
    2  A    between atoms: C_23  and  C_30
                            x       y       z     vdW  Elec       q    Type
                         _______ _______ _______ _____ _____    ______ ____

>  <TORSDO>
F 2

$$$$
=
 OpenBabel11112417163D

 37 44  0  0  1  0  0  0  0  0999 V2000
  189.6610  175.8040  145.3100 C   0  0  0  0  0  2  0  0  0  0  0  0
  187.2910  177.0080  141.4040 C   0  0  1  0  0  0  0  0  0  0  0  0
  190.5420  174.4270  141.8670 C   0  0  0  0  0  0  0  0  0  0  0  0
  189.0750  176.4480  146.5690 C   0  0  2  0  0  3  0  0  0  0  0  0
  193.4590  175.5500  144.2710 C   0  0  0  0  0  2  0  0  0  0  0  0
  188.4590  174.9160  140.7370 C   0  0  0  0  0  0  0  0  0  0  0  0
  191.4280  175.0980  142.7740 N   0  0  0  0  0  0  0  0  0  0  0  0
  191.4220  176.3800  147.4560 C   0  0  0  0  0  0  0  0  0  0  0  0
  189.4280  175.1840  141.6770 C   0  0  0  0  0  0  0  0  0  0  0  0
  192.7910  174.7360  143.1780 C   0  0  0  0  0  0  0  0  0  0  0  0
  188.5770  173.7430  139.9860 C   0  0  0  0  0  3  0  0  0  0  0  0
  190.1270  177.1340  147.4460 C   0  0  0  0  0  2  0  0  0  0  0  0
  189.4650  176.3810  142.3900 N   0  0  0  0  0  0  0  0  0  0  0  0
  186.3900  176.6440  142.5690 C   0  0  0  0  0  1  0  0  0  0  0  0
  191.8590  172.3830  141.1940 C   0  0  0  0  0  3  0  0  0  0  0  0
  189.7000  172.9120  140.1870 C   0  0  0  0  0  3  0  0  0  0  0  0
  188.6510  177.5120  141.9530 C   0  0  0  0  0  2  0  0  0  0  0  0
  192.4780  176.6680  146.4270 C   0  0  1  0  0  3  0  0  0  0  0  0
  192.4390  175.6920  145.3530 C   0  0  1  0  0  3  0  0  0  0  0  0
  190.7090  173.2600  141.1150 C   0  0  0  0  0  0  0  0  0  0  0  0
  190.7670  176.4220  143.0500 C   0  0  1  0  0  3  0  0  0  0  0  0
  187.4410  175.8590  140.5420 O   0  0  0  0  0  0  0  0  0  0  0  0
  193.4790  173.6470  142.7290 C   0  0  0  0  0  0  0  0  0  0  0  0
  186.6940  178.0290  140.6900 F   0  0  0  0  0  0  0  0  0  0  0  0
  191.9180  177.0470  145.1060 N   0  0  1  0  0  0  0  0  0  0  0  0
  191.6160  175.5230  148.3020 O   0  0  0  0  0  0  0  0  0  0  0  0
  190.5850  176.7720  144.5430 C   0  0  2  0  0  3  0  0  0  0  0  0
  192.9880  172.5610  141.8610 C   0  0  0  0  0  3  0  0  0  0  0  0
  195.9430  173.9940  142.4430 C   0  0  0  0  0  3  0  0  0  0  0  0
  194.8820  173.4170  143.1570 C   0  0  0  0  0  0  0  0  0  0  0  0
  195.1600  172.6540  144.3020 C   0  0  0  0  0  3  0  0  0  0  0  0
  196.8160  171.4940  146.1380 Cl  0  0  0  0  0  0  0  0  0  0  0  0
  197.5320  173.0250  143.9920 C   0  0  0  0  0  3  0  0  0  0  0  0
  196.4800  172.4560  144.7150 C   0  0  0  0  0  0  0  0  0  0  0  0
  197.2630  173.7950  142.8580 C   0  0  0  0  0  3  0  0  0  0  0  0
  188.9410  174.1660  147.2630 O   0  0  0  0  0  1  0  0  0  0  0  0
  188.3200  175.4090  147.3820 C   0  0  0  0  0  2  0  0  0  0  0  0
  1  4  1  0  0  0  0
  2 17  1  0  0  0  0
  2 14  1  1  0  0  0
  3  7  1  0  0  0  0
  4 37  1  1  0  0  0
  4 12  1  0  0  0  0
  6  9  2  0  0  0  0
  7 21  1  0  0  0  0
  7 10  1  0  0  0  0
  8 26  2  0  0  0  0
  9  3  1  0  0  0  0
  9 13  1  0  0  0  0
 10  5  1  0  0  0  0
 11 16  2  0  0  0  0
 11  6  1  0  0  0  0
 12  8  1  0  0  0  0
 15 28  2  0  0  0  0
 16 20  1  0  0  0  0
 17 13  1  0  0  0  0
 18  8  1  1  0  0  0
 19  5  1  6  0  0  0
 19 18  1  0  0  0  0
 20 15  1  0  0  0  0
 20  3  2  0  0  0  0
 21 13  1  6  0  0  0
 21 27  1  0  0  0  0
 22  6  1  0  0  0  0
 22  2  1  0  0  0  0
 23 30  1  0  0  0  0
 23 10  2  0  0  0  0
 24  2  1  0  0  0  0
 25 19  1  0  0  0  0
 25 18  1  0  0  0  0
 27 25  1  0  0  0  0
 27  1  1  0  0  0  0
 28 23  1  0  0  0  0
 29 35  2  0  0  0  0
 29 30  1  0  0  0  0
 30 31  2  0  0  0  0
 31 34  1  0  0  0  0
 33 34  2  0  0  0  0
 34 32  1  0  0  0  0
 35 33  1  0  0  0  0
 36 37  1  0  0  0  0
M  END
>  <MODEL>
4

>  <REMARK>
 VINA RESULT:      -8.4      3.730      7.967
  Name = 
  2 active torsions:
  status: ('A' for Active; 'I' for Inactive)
    1  A    between atoms: C_4  and  C_37
    2  A    between atoms: C_23  and  C_30
                            x       y       z     vdW  Elec       q    Type
                         _______ _______ _______ _____ _____    ______ ____

>  <TORSDO>
F 2

$$$$
=
 OpenBabel11112417163D

 37 44  0  0  1  0  0  0  0  0999 V2000
  193.0210  172.4780  141.6590 C   0  0  0  0  0  2  0  0  0  0  0  0
  196.4980  175.1730  139.9350 C   0  0  1  0  0  0  0  0  0  0  0  0
  194.0180  175.8000  143.2370 C   0  0  0  0  0  0  0  0  0  0  0  0
  192.8570  171.1700  140.8800 C   0  0  2  0  0  3  0  0  0  0  0  0
  190.1870  174.9500  142.8520 C   0  0  0  0  0  2  0  0  0  0  0  0
  196.2190  176.0210  142.2570 C   0  0  0  0  0  0  0  0  0  0  0  0
  192.7060  175.4190  142.8000 N   0  0  0  0  0  0  0  0  0  0  0  0
  190.4350  171.3240  141.5190 C   0  0  0  0  0  0  0  0  0  0  0  0
  194.9090  175.6000  142.2290 C   0  0  0  0  0  0  0  0  0  0  0  0
  191.4180  175.5730  143.4840 C   0  0  0  0  0  0  0  0  0  0  0  0
  196.6950  176.6170  143.4280 C   0  0  0  0  0  3  0  0  0  0  0  0
  191.4090  170.8860  140.4690 C   0  0  0  0  0  2  0  0  0  0  0  0
  194.3090  175.1030  141.0740 N   0  0  0  0  0  0  0  0  0  0  0  0
  196.8730  173.7080  140.0570 C   0  0  0  0  0  1  0  0  0  0  0  0
  193.6000  176.7210  145.5490 C   0  0  0  0  0  3  0  0  0  0  0  0
  195.8070  176.8050  144.5090 C   0  0  0  0  0  3  0  0  0  0  0  0
  194.9600  175.2910  139.7790 C   0  0  0  0  0  2  0  0  0  0  0  0
  189.8830  172.7210  141.5100 C   0  0  1  0  0  3  0  0  0  0  0  0
  190.5900  173.5680  142.4540 C   0  0  1  0  0  3  0  0  0  0  0  0
  194.4490  176.4180  144.4150 C   0  0  0  0  0  0  0  0  0  0  0  0
  192.8770  175.0460  141.3510 C   0  0  1  0  0  3  0  0  0  0  0  0
  196.9870  175.8850  141.0920 O   0  0  0  0  0  0  0  0  0  0  0  0
  191.2460  176.1390  144.7130 C   0  0  0  0  0  0  0  0  0  0  0  0
  197.1010  175.6880  138.8040 F   0  0  0  0  0  0  0  0  0  0  0  0
  190.8530  173.7290  141.0140 N   0  0  1  0  0  0  0  0  0  0  0  0
  190.0930  170.5420  142.3920 O   0  0  0  0  0  0  0  0  0  0  0  0
  192.3230  173.6600  140.9550 C   0  0  2  0  0  3  0  0  0  0  0  0
  192.2860  176.6020  145.6510 C   0  0  0  0  0  3  0  0  0  0  0  0
  189.4650  175.5060  146.3560 C   0  0  0  0  0  3  0  0  0  0  0  0
  189.8840  176.3030  145.2790 C   0  0  0  0  0  0  0  0  0  0  0  0
  189.0140  177.2810  144.7710 C   0  0  0  0  0  3  0  0  0  0  0  0
  186.6610  178.6630  144.6720 Cl  0  0  0  0  0  0  0  0  0  0  0  0
  187.3270  176.6430  146.3850 C   0  0  0  0  0  3  0  0  0  0  0  0
  187.7400  177.4470  145.3200 C   0  0  0  0  0  0  0  0  0  0  0  0
  188.1900  175.6740  146.9040 C   0  0  0  0  0  3  0  0  0  0  0  0
  193.5310  170.3800  143.0320 O   0  0  0  0  0  1  0  0  0  0  0  0
  193.4020  170.0080  141.6930 C   0  0  0  0  0  2  0  0  0  0  0  0
  2 14  1  1  0  0  0
  2 22  1  0  0  0  0
  3 20  1  0  0  0  0
  4  1  1  0  0  0  0
  4 37  1  1  0  0  0
  5 10  1  0  0  0  0
  6 11  2  0  0  0  0
  7  3  1  0  0  0  0
  7 10  1  0  0  0  0
  8 26  2  0  0  0  0
  9  6  1  0  0  0  0
  9  3  2  0  0  0  0
 10 23  2  0  0  0  0
 11 16  1  0  0  0  0
 12  4  1  0  0  0  0
 12  8  1  0  0  0  0
 13  9  1  0  0  0  0
 15 28  2  0  0  0  0
 17  2  1  0  0  0  0
 17 13  1  0  0  0  0
 18  8  1  1  0  0  0
 18 19  1  0  0  0  0
 19  5  1  6  0  0  0
 20 16  2  0  0  0  0
 20 15  1  0  0  0  0
 21 13  1  1  0  0  0
 21  7  1  0  0  0  0
 22  6  1  0  0  0  0
 23 30  1  0  0  0  0
 23 28  1  0  0  0  0
 24  2  1  0  0  0  0
 25 18  1  0  0  0  0
 25 19  1  0  0  0  0
 27 25  1  0  0  0  0
 27 21  1  0  0  0  0
 27  1  1  0  0  0  0
 29 35  1  0  0  0  0
 30 29  2  0  0  0  0
 31 30  1  0  0  0  0
 31 34  2  0  0  0  0
 32 34  1  0  0  0  0
 33 35  2  0  0  0  0
 34 33  1  0  0  0  0
 37 36  1  0  0  0  0
M  END
>  <MODEL>
5

>  <REMARK>
 VINA RESULT:      -8.3      1.932      2.895
  Name = 
  2 active torsions:
  status: ('A' for Active; 'I' for Inactive)
    1  A    between atoms: C_4  and  C_37
    2  A    between atoms: C_23  and  C_30
                            x       y       z     vdW  Elec       q    Type
                         _______ _______ _______ _____ _____    ______ ____

>  <TORSDO>
F 2

$$$$
=
 OpenBabel11112417163D

 37 44  0  0  1  0  0  0  0  0999 V2000
  192.9440  173.7260  142.4810 C   0  0  0  0  0  2  0  0  0  0  0  0
  191.2160  170.5890  139.3990 C   0  0  1  0  0  0  0  0  0  0  0  0
  189.3900  173.9270  141.1210 C   0  0  0  0  0  0  0  0  0  0  0  0
  194.4110  173.4570  142.8260 C   0  0  2  0  0  3  0  0  0  0  0  0
  189.9970  174.5860  144.9610 C   0  0  0  0  0  2  0  0  0  0  0  0
  189.6670  172.5220  139.1710 C   0  0  0  0  0  0  0  0  0  0  0  0
  189.7780  173.8990  142.5010 N   0  0  0  0  0  0  0  0  0  0  0  0
  193.8650  174.4680  145.0570 C   0  0  0  0  0  0  0  0  0  0  0  0
  189.9670  172.8850  140.4640 C   0  0  0  0  0  0  0  0  0  0  0  0
  189.3130  174.7330  143.6140 C   0  0  0  0  0  0  0  0  0  0  0  0
  188.7780  173.3240  138.4500 C   0  0  0  0  0  3  0  0  0  0  0  0
  194.6880  173.4470  144.3330 C   0  0  0  0  0  2  0  0  0  0  0  0
  190.7470  172.0900  141.3010 N   0  0  0  0  0  0  0  0  0  0  0  0
  192.5960  171.0990  139.0310 C   0  0  0  0  0  1  0  0  0  0  0  0
  187.7640  175.8550  141.0290 C   0  0  0  0  0  3  0  0  0  0  0  0
  188.1910  174.4370  139.0880 C   0  0  0  0  0  3  0  0  0  0  0  0
  191.0250  170.7040  140.9340 C   0  0  0  0  0  2  0  0  0  0  0  0
  192.5000  174.1170  145.5760 C   0  0  1  0  0  3  0  0  0  0  0  0
  191.4630  174.5840  144.6720 C   0  0  1  0  0  3  0  0  0  0  0  0
  188.4740  174.7370  140.4420 C   0  0  0  0  0  0  0  0  0  0  0  0
  190.5960  172.6430  142.6440 C   0  0  1  0  0  3  0  0  0  0  0  0
  190.2220  171.3370  138.6670 O   0  0  0  0  0  0  0  0  0  0  0  0
  188.3800  175.7230  143.5150 C   0  0  0  0  0  0  0  0  0  0  0  0
  191.1300  169.2580  139.0390 F   0  0  0  0  0  0  0  0  0  0  0  0
  191.7810  173.1460  144.7150 N   0  0  1  0  0  0  0  0  0  0  0  0
  194.3060  175.5950  145.2210 O   0  0  0  0  0  0  0  0  0  0  0  0
  191.9860  172.8290  143.2920 C   0  0  2  0  0  3  0  0  0  0  0  0
  187.7360  176.2420  142.2940 C   0  0  0  0  0  3  0  0  0  0  0  0
  188.8770  177.0840  145.5580 C   0  0  0  0  0  3  0  0  0  0  0  0
  187.9360  176.4590  144.7250 C   0  0  0  0  0  0  0  0  0  0  0  0
  186.5700  176.5720  145.0280 C   0  0  0  0  0  3  0  0  0  0  0  0
  184.4490  177.4100  146.5300 Cl  0  0  0  0  0  0  0  0  0  0  0  0
  187.0980  177.8940  146.9860 C   0  0  0  0  0  3  0  0  0  0  0  0
  186.1540  177.2840  146.1570 C   0  0  0  0  0  0  0  0  0  0  0  0
  188.4590  177.7950  146.6860 C   0  0  0  0  0  3  0  0  0  0  0  0
  194.5360  175.3150  141.3310 O   0  0  0  0  0  1  0  0  0  0  0  0
  195.3030  174.4780  142.1420 C   0  0  0  0  0  2  0  0  0  0  0  0
  1  4  1  0  0  0  0
  1 27  1  0  0  0  0
  2 14  1  6  0  0  0
  2 17  1  0  0  0  0
  3  7  1  0  0  0  0
  4 37  1  6  0  0  0
  4 12  1  0  0  0  0
  6  9  2  0  0  0  0
  7 21  1  0  0  0  0
  7 10  1  0  0  0  0
  8 26  2  0  0  0  0
  9  3  1  0  0  0  0
  9 13  1  0  0  0  0
 10  5  1  0  0  0  0
 11 16  2  0  0  0  0
 11  6  1  0  0  0  0
 12  8  1  0  0  0  0
 15 28  2  0  0  0  0
 16 20  1  0  0  0  0
 17 13  1  0  0  0  0
 18  8  1  6  0  0  0
 19 25  1  0  0  0  0
 19  5  1  1  0  0  0
 19 18  1  0  0  0  0
 20 15  1  0  0  0  0
 20  3  2  0  0  0  0
 21 13  1  6  0  0  0
 21 27  1  0  0  0  0
 22  6  1  0  0  0  0
 22  2  1  0  0  0  0
 23 10  2  0  0  0  0
 23 30  1  0  0  0  0
 24  2  1  0  0  0  0
 25 18  1  0  0  0  0
 27 25  1  0  0  0  0
 28 23  1  0  0  0  0
 29 35  1  0  0  0  0
 30 31  1  0  0  0  0
 30 29  2  0  0  0  0
 31 34  2  0  0  0  0
 34 32  1  0  0  0  0
 34 33  1  0  0  0  0
 35 33  2  0  0  0  0
 36 37  1  0  0  0  0
M  END
>  <MODEL>
6

>  <REMARK>
 VINA RESULT:      -7.9      2.417      5.549
  Name = 
  2 active torsions:
  status: ('A' for Active; 'I' for Inactive)
    1  A    between atoms: C_4  and  C_37
    2  A    between atoms: C_23  and  C_30
                            x       y       z     vdW  Elec       q    Type
                         _______ _______ _______ _____ _____    ______ ____

>  <TORSDO>
F 2

$$$$
=
 OpenBabel11112417163D

 37 44  0  0  1  0  0  0  0  0999 V2000
  190.8200  175.9780  143.3130 C   0  0  0  0  0  2  0  0  0  0  0  0
  195.0130  175.4060  145.4140 C   0  0  1  0  0  0  0  0  0  0  0  0
  193.9530  174.9530  141.4000 C   0  0  0  0  0  0  0  0  0  0  0  0
  189.7380  176.4470  144.2890 C   0  0  2  0  0  3  0  0  0  0  0  0
  190.5470  173.1390  140.5860 C   0  0  0  0  0  2  0  0  0  0  0  0
  195.6110  175.6620  143.0140 C   0  0  0  0  0  0  0  0  0  0  0  0
  192.6960  174.2630  141.4190 N   0  0  0  0  0  0  0  0  0  0  0  0
  188.1400  175.2040  142.8050 C   0  0  0  0  0  0  0  0  0  0  0  0
  194.3680  175.1760  142.6760 C   0  0  0  0  0  0  0  0  0  0  0  0
  191.9280  173.7000  140.3020 C   0  0  0  0  0  0  0  0  0  0  0  0
  196.4750  176.0340  141.9800 C   0  0  0  0  0  3  0  0  0  0  0  0
  188.4500  175.6210  144.2100 C   0  0  0  0  0  2  0  0  0  0  0  0
  193.4820  174.6700  143.6240 N   0  0  0  0  0  0  0  0  0  0  0  0
  194.3040  176.6860  145.8180 C   0  0  0  0  0  1  0  0  0  0  0  0
  194.4970  175.0730  138.9390 C   0  0  0  0  0  3  0  0  0  0  0  0
  196.0610  175.8540  140.6430 C   0  0  0  0  0  3  0  0  0  0  0  0
  193.9570  174.3610  144.9710 C   0  0  0  0  0  2  0  0  0  0  0  0
  188.6840  173.9170  142.2560 C   0  0  1  0  0  3  0  0  0  0  0  0
  189.8650  174.1540  141.4450 C   0  0  1  0  0  3  0  0  0  0  0  0
  194.8000  175.2870  140.3400 C   0  0  0  0  0  0  0  0  0  0  0  0
  192.4260  173.9940  142.8750 C   0  0  1  0  0  3  0  0  0  0  0  0
  195.9650  175.7010  144.3690 O   0  0  0  0  0  0  0  0  0  0  0  0
  192.3070  173.7400  138.9930 C   0  0  0  0  0  0  0  0  0  0  0  0
  195.6910  174.9150  146.5130 F   0  0  0  0  0  0  0  0  0  0  0  0
  190.0260  173.5750  142.7890 N   0  0  1  0  0  0  0  0  0  0  0  0
  187.4450  175.9200  142.1010 O   0  0  0  0  0  0  0  0  0  0  0  0
  191.0440  174.4540  143.3880 C   0  0  2  0  0  3  0  0  0  0  0  0
  193.4690  174.4330  138.4060 C   0  0  0  0  0  3  0  0  0  0  0  0
  190.5060  173.8060  137.2540 C   0  0  0  0  0  3  0  0  0  0  0  0
  191.4800  173.0780  137.9520 C   0  0  0  0  0  0  0  0  0  0  0  0
  191.6910  171.7280  137.6290 C   0  0  0  0  0  3  0  0  0  0  0  0
  191.1900  169.4270  136.2470 Cl  0  0  0  0  0  0  0  0  0  0  0  0
  189.9500  171.8420  135.9510 C   0  0  0  0  0  3  0  0  0  0  0  0
  190.9250  171.1120  136.6350 C   0  0  0  0  0  0  0  0  0  0  0  0
  189.7410  173.1890  136.2590 C   0  0  0  0  0  3  0  0  0  0  0  0
  189.8120  178.2870  142.7670 O   0  0  0  0  0  1  0  0  0  0  0  0
  189.4260  177.9160  144.0550 C   0  0  0  0  0  2  0  0  0  0  0  0
  1 27  1  0  0  0  0
  1  4  1  0  0  0  0
  2 14  1  1  0  0  0
  2 24  1  0  0  0  0
  3  7  1  0  0  0  0
  3  9  1  0  0  0  0
  4 37  1  6  0  0  0
  6 22  1  0  0  0  0
  8 12  1  0  0  0  0
  9  6  2  0  0  0  0
  9 13  1  0  0  0  0
 10  5  1  0  0  0  0
 10  7  1  0  0  0  0
 11  6  1  0  0  0  0
 12  4  1  0  0  0  0
 13 17  1  0  0  0  0
 15 20  1  0  0  0  0
 16 11  2  0  0  0  0
 17  2  1  0  0  0  0
 18 25  1  0  0  0  0
 18  8  1  1  0  0  0
 19  5  1  6  0  0  0
 19 18  1  0  0  0  0
 19 25  1  0  0  0  0
 20 16  1  0  0  0  0
 20  3  2  0  0  0  0
 21  7  1  6  0  0  0
 21 27  1  0  0  0  0
 21 13  1  0  0  0  0
 22  2  1  0  0  0  0
 23 10  2  0  0  0  0
 25 27  1  0  0  0  0
 26  8  2  0  0  0  0
 28 15  2  0  0  0  0
 28 23  1  0  0  0  0
 29 30  1  0  0  0  0
 30 23  1  0  0  0  0
 31 30  2  0  0  0  0
 32 34  1  0  0  0  0
 33 35  1  0  0  0  0
 33 34  2  0  0  0  0
 34 31  1  0  0  0  0
 35 29  2  0  0  0  0
 36 37  1  0  0  0  0
M  END
>  <MODEL>
7

>  <REMARK>
 VINA RESULT:      -7.7      3.624      6.962
  Name = 
  2 active torsions:
  status: ('A' for Active; 'I' for Inactive)
    1  A    between atoms: C_4  and  C_37
    2  A    between atoms: C_23  and  C_30
                            x       y       z     vdW  Elec       q    Type
                         _______ _______ _______ _____ _____    ______ ____

>  <TORSDO>
F 2

$$$$
=
 OpenBabel11112417163D

 37 44  0  0  1  0  0  0  0  0999 V2000
  189.5990  174.7800  142.4030 C   0  0  0  0  0  2  0  0  0  0  0  0
  189.2620  174.7830  147.1150 C   0  0  1  0  0  0  0  0  0  0  0  0
  192.6280  175.1910  144.6770 C   0  0  0  0  0  0  0  0  0  0  0  0
  188.2330  174.6560  141.7210 C   0  0  2  0  0  3  0  0  0  0  0  0
  192.9200  172.8370  141.5270 C   0  0  0  0  0  2  0  0  0  0  0  0
  191.4750  175.8400  146.7030 C   0  0  0  0  0  0  0  0  0  0  0  0
  192.4620  174.2150  143.6400 N   0  0  0  0  0  0  0  0  0  0  0  0
  189.4800  173.4950  139.8780 C   0  0  0  0  0  0  0  0  0  0  0  0
  191.5550  175.1550  145.5120 C   0  0  0  0  0  0  0  0  0  0  0  0
  193.4040  173.8000  142.5950 C   0  0  0  0  0  0  0  0  0  0  0  0
  192.5250  176.6980  147.0410 C   0  0  0  0  0  3  0  0  0  0  0  0
  188.1910  173.5740  140.6380 C   0  0  0  0  0  2  0  0  0  0  0  0
  190.6200  174.1900  145.1410 N   0  0  0  0  0  0  0  0  0  0  0  0
  188.2320  175.6660  146.4360 C   0  0  0  0  0  1  0  0  0  0  0  0
  194.9260  176.1260  144.2130 C   0  0  0  0  0  3  0  0  0  0  0  0
  193.6380  176.7910  146.1770 C   0  0  0  0  0  3  0  0  0  0  0  0
  189.6910  173.6590  146.1360 C   0  0  0  0  0  2  0  0  0  0  0  0
  190.5900  172.6010  140.3530 C   0  0  1  0  0  3  0  0  0  0  0  0
  191.5910  173.3570  141.0850 C   0  0  1  0  0  3  0  0  0  0  0  0
  193.7100  176.0170  144.9950 C   0  0  0  0  0  0  0  0  0  0  0  0
  191.1890  173.4930  143.9920 C   0  0  1  0  0  3  0  0  0  0  0  0
  190.3770  175.5950  147.5390 O   0  0  0  0  0  0  0  0  0  0  0  0
  194.6630  174.2990  142.4330 C   0  0  0  0  0  0  0  0  0  0  0  0
  188.6790  174.2050  148.2270 F   0  0  0  0  0  0  0  0  0  0  0  0
  190.6610  172.4940  141.8310 N   0  0  1  0  0  0  0  0  0  0  0  0
  189.6300  174.1660  138.8700 O   0  0  0  0  0  0  0  0  0  0  0  0
  190.1410  173.4100  142.8600 C   0  0  2  0  0  3  0  0  0  0  0  0
  195.3000  175.4090  143.1660 C   0  0  0  0  0  3  0  0  0  0  0  0
  196.2480  172.5530  141.5880 C   0  0  0  0  0  3  0  0  0  0  0  0
  195.5550  173.7550  141.3780 C   0  0  0  0  0  0  0  0  0  0  0  0
  195.6850  174.4160  140.1460 C   0  0  0  0  0  3  0  0  0  0  0  0
  196.6710  174.7270  137.6180 Cl  0  0  0  0  0  0  0  0  0  0  0  0
  197.2040  172.6990  139.3680 C   0  0  0  0  0  3  0  0  0  0  0  0
  196.5090  173.8910  139.1470 C   0  0  0  0  0  0  0  0  0  0  0  0
  197.0720  172.0300  140.5870 C   0  0  0  0  0  3  0  0  0  0  0  0
  188.4030  177.0350  141.8580 O   0  0  0  0  0  1  0  0  0  0  0  0
  187.8230  175.9950  141.1310 C   0  0  0  0  0  2  0  0  0  0  0  0
  1 27  1  0  0  0  0
  2 14  1  6  0  0  0
  2 22  1  0  0  0  0
  2 24  1  0  0  0  0
  3 20  2  0  0  0  0
  3  9  1  0  0  0  0
  4 37  1  6  0  0  0
  4  1  1  0  0  0  0
  5 10  1  0  0  0  0
  6 11  1  0  0  0  0
  6 22  1  0  0  0  0
  7  3  1  0  0  0  0
  8 12  1  0  0  0  0
  9  6  2  0  0  0  0
 10  7  1  0  0  0  0
 12  4  1  0  0  0  0
 13  9  1  0  0  0  0
 13 17  1  0  0  0  0
 15 20  1  0  0  0  0
 16 11  2  0  0  0  0
 17  2  1  0  0  0  0
 18  8  1  1  0  0  0
 18 19  1  0  0  0  0
 18 25  1  0  0  0  0
 19  5  1  6  0  0  0
 19 25  1  0  0  0  0
 20 16  1  0  0  0  0
 21  7  1  6  0  0  0
 21 13  1  0  0  0  0
 23 10  2  0  0  0  0
 23 28  1  0  0  0  0
 25 27  1  0  0  0  0
 26  8  2  0  0  0  0
 27 21  1  0  0  0  0
 28 15  2  0  0  0  0
 30 29  1  0  0  0  0
 30 23  1  0  0  0  0
 31 30  2  0  0  0  0
 32 34  1  0  0  0  0
 33 35  1  0  0  0  0
 34 33  2  0  0  0  0
 34 31  1  0  0  0  0
 35 29  2  0  0  0  0
 37 36  1  0  0  0  0
M  END
>  <MODEL>
8

>  <REMARK>
 VINA RESULT:      -7.6      3.746      7.158
  Name = 
  2 active torsions:
  status: ('A' for Active; 'I' for Inactive)
    1  A    between atoms: C_4  and  C_37
    2  A    between atoms: C_23  and  C_30
                            x       y       z     vdW  Elec       q    Type
                         _______ _______ _______ _____ _____    ______ ____

>  <TORSDO>
F 2

$$$$
=
 OpenBabel11112417163D

 37 44  0  0  1  0  0  0  0  0999 V2000
  189.3190  176.4470  143.3040 C   0  0  0  0  0  2  0  0  0  0  0  0
  191.3190  175.9790  147.5600 C   0  0  1  0  0  0  0  0  0  0  0  0
  193.0130  175.6310  143.7580 C   0  0  0  0  0  0  0  0  0  0  0  0
  187.8390  176.8310  143.3950 C   0  0  2  0  0  3  0  0  0  0  0  0
  190.9640  173.7020  140.9960 C   0  0  0  0  0  2  0  0  0  0  0  0
  193.2640  176.3500  146.0550 C   0  0  0  0  0  0  0  0  0  0  0  0
  192.0600  174.8860  142.9880 N   0  0  0  0  0  0  0  0  0  0  0  0
  187.5860  175.5770  141.2360 C   0  0  0  0  0  0  0  0  0  0  0  0
  192.5310  175.8240  145.0150 C   0  0  0  0  0  0  0  0  0  0  0  0
  192.1870  174.3330  141.6360 C   0  0  0  0  0  0  0  0  0  0  0  0
  194.5610  176.7980  145.7860 C   0  0  0  0  0  3  0  0  0  0  0  0
  186.9300  175.9540  142.5290 C   0  0  0  0  0  2  0  0  0  0  0  0
  191.2780  175.2440  145.2040 N   0  0  0  0  0  0  0  0  0  0  0  0
  190.4410  177.2110  147.4370 C   0  0  0  0  0  1  0  0  0  0  0  0
  194.9620  175.8660  142.1730 C   0  0  0  0  0  3  0  0  0  0  0  0
  195.0790  176.6490  144.4820 C   0  0  0  0  0  3  0  0  0  0  0  0
  190.8300  174.9060  146.5520 C   0  0  0  0  0  2  0  0  0  0  0  0
  188.4260  174.3350  141.1420 C   0  0  1  0  0  3  0  0  0  0  0  0
  189.8400  174.6540  141.2450 C   0  0  1  0  0  3  0  0  0  0  0  0
  194.3160  176.0410  143.4580 C   0  0  0  0  0  0  0  0  0  0  0  0
  190.9590  174.5510  143.9590 C   0  0  1  0  0  3  0  0  0  0  0  0
  192.6950  176.3530  147.3360 O   0  0  0  0  0  0  0  0  0  0  0  0
  193.2950  174.4380  140.8470 C   0  0  0  0  0  0  0  0  0  0  0  0
  191.1930  175.4780  148.8400 F   0  0  0  0  0  0  0  0  0  0  0  0
  189.1620  174.0320  142.3950 N   0  0  1  0  0  0  0  0  0  0  0  0
  187.4410  176.2870  140.2540 O   0  0  0  0  0  0  0  0  0  0  0  0
  189.5340  174.9320  143.5000 C   0  0  2  0  0  3  0  0  0  0  0  0
  194.5280  175.2020  141.1140 C   0  0  0  0  0  3  0  0  0  0  0  0
  193.5960  172.4050  139.4160 C   0  0  0  0  0  3  0  0  0  0  0  0
  193.3340  173.7800  139.5170 C   0  0  0  0  0  0  0  0  0  0  0  0
  193.0720  174.5160  138.3510 C   0  0  0  0  0  3  0  0  0  0  0  0
  192.7710  174.8190  135.6540 Cl  0  0  0  0  0  0  0  0  0  0  0  0
  193.3610  172.5230  137.0090 C   0  0  0  0  0  3  0  0  0  0  0  0
  193.0900  173.8900  137.1020 C   0  0  0  0  0  0  0  0  0  0  0  0
  193.6120  171.7800  138.1650 C   0  0  0  0  0  3  0  0  0  0  0  0
  186.3030  178.5750  142.8430 O   0  0  0  0  0  1  0  0  0  0  0  0
  187.6570  178.2930  143.0210 C   0  0  0  0  0  2  0  0  0  0  0  0
  1  4  1  0  0  0  0
  1 27  1  0  0  0  0
  2 14  1  6  0  0  0
  2 24  1  0  0  0  0
  3  9  1  0  0  0  0
  4 37  1  6  0  0  0
  5 10  1  0  0  0  0
  6 22  1  0  0  0  0
  7  3  1  0  0  0  0
  8 12  1  0  0  0  0
  9 13  1  0  0  0  0
  9  6  2  0  0  0  0
 10  7  1  0  0  0  0
 11  6  1  0  0  0  0
 12  4  1  0  0  0  0
 13 17  1  0  0  0  0
 15 20  1  0  0  0  0
 16 11  2  0  0  0  0
 17  2  1  0  0  0  0
 18  8  1  1  0  0  0
 18 19  1  0  0  0  0
 18 25  1  0  0  0  0
 19  5  1  6  0  0  0
 19 25  1  0  0  0  0
 20  3  2  0  0  0  0
 20 16  1  0  0  0  0
 21  7  1  6  0  0  0
 21 13  1  0  0  0  0
 22  2  1  0  0  0  0
 23 28  1  0  0  0  0
 23 10  2  0  0  0  0
 25 27  1  0  0  0  0
 26  8  2  0  0  0  0
 27 21  1  0  0  0  0
 28 15  2  0  0  0  0
 29 30  1  0  0  0  0
 30 23  1  0  0  0  0
 31 30  2  0  0  0  0
 32 34  1  0  0  0  0
 33 34  2  0  0  0  0
 33 35  1  0  0  0  0
 34 31  1  0  0  0  0
 35 29  2  0  0  0  0
 36 37  1  0  0  0  0
M  END
>  <MODEL>
9

>  <REMARK>
 VINA RESULT:      -7.5      3.595      6.802
  Name = 
  2 active torsions:
  status: ('A' for Active; 'I' for Inactive)
    1  A    between atoms: C_4  and  C_37
    2  A    between atoms: C_23  and  C_30
                            x       y       z     vdW  Elec       q    Type
                         _______ _______ _______ _____ _____    ______ ____

>  <TORSDO>
F 2

$$$$
