=
 OpenBabel11112417383D

 28 32  0  0  1  0  0  0  0  0999 V2000
  190.9230  174.3010  143.1260 C   0  0  0  0  0  0  0  0  0  0  0  0
  187.8630  178.1590  144.0270 F   0  0  0  0  0  0  0  0  0  0  0  0
  193.0530  175.9290  146.8890 O   0  0  0  0  0  0  0  0  0  0  0  0
  190.0070  172.2590  144.8150 C   0  0  0  0  0  3  0  0  0  0  0  0
  190.7320  176.3820  147.3810 C   0  0  1  0  0  3  0  0  0  0  0  0
  191.4980  175.3670  142.2490 C   0  0  0  0  0  2  0  0  0  0  0  0
  186.5890  176.5030  143.1640 O   0  0  0  0  0  1  0  0  0  0  0  0
  187.1690  176.9950  144.3340 C   0  0  1  0  0  0  0  0  0  0  0  0
  186.7040  177.7060  146.6260 C   0  0  1  0  0  3  0  0  0  0  0  0
  188.0560  175.9520  144.9090 N   0  0  2  0  0  0  0  0  0  0  0  0
  194.6370  176.0550  143.8670 O   0  0  0  0  0  0  0  0  0  0  0  0
  190.2340  176.9830  145.0400 C   0  0  1  0  0  3  0  0  0  0  0  0
  187.3100  176.5590  147.1600 O   0  0  0  0  0  0  0  0  0  0  0  0
  186.0570  177.3580  145.3020 C   0  0  0  0  0  2  0  0  0  0  0  0
  193.4310  176.2180  143.5500 C   0  0  0  0  0  0  0  0  0  0  0  0
  189.9440  174.5900  144.1010 C   0  0  0  0  0  0  0  0  0  0  0  0
  191.9060  176.2600  146.4880 C   0  0  0  0  0  0  0  0  0  0  0  0
  185.6460  178.2080  147.5850 C   0  0  0  0  0  1  0  0  0  0  0  0
  192.6210  177.2360  144.2870 C   0  0  0  0  0  2  0  0  0  0  0  0
  189.5060  173.5550  144.9460 C   0  0  0  0  0  3  0  0  0  0  0  0
  191.4160  172.9960  142.9970 C   0  0  0  0  0  3  0  0  0  0  0  0
  190.9590  171.9780  143.8350 C   0  0  0  0  0  3  0  0  0  0  0  0
  192.8970  175.4790  142.4900 O   0  0  0  0  0  0  0  0  0  0  0  0
  189.6570  176.9990  146.4550 C   0  0  1  0  0  3  0  0  0  0  0  0
  191.6300  176.5990  145.1420 N   0  0  0  0  0  0  0  0  0  0  0  0
  188.3890  176.1630  146.3340 C   0  0  2  0  0  3  0  0  0  0  0  0
  190.3690  175.1140  147.8460 O   0  0  0  0  0  1  0  0  0  0  0  0
  189.3640  175.9890  144.2420 C   0  0  1  0  0  3  0  0  0  0  0  0
  1 16  1  0  0  0  0
  2  8  1  0  0  0  0
  4 20  1  0  0  0  0
  5 27  1  6  0  0  0
  6 23  1  0  0  0  0
  6  1  1  0  0  0  0
  8  7  1  6  0  0  0
  8 10  1  0  0  0  0
  8 14  1  0  0  0  0
  9 13  1  0  0  0  0
  9 18  1  1  0  0  0
 10 26  1  0  0  0  0
 12 25  1  0  0  0  0
 12 24  1  0  0  0  0
 14  9  1  0  0  0  0
 15 11  2  0  0  0  0
 15 19  1  0  0  0  0
 16 28  1  0  0  0  0
 16 20  2  0  0  0  0
 17  3  2  0  0  0  0
 17  5  1  0  0  0  0
 19 25  1  0  0  0  0
 21  1  2  0  0  0  0
 21 22  1  0  0  0  0
 22  4  2  0  0  0  0
 23 15  1  0  0  0  0
 24  5  1  0  0  0  0
 25 17  1  0  0  0  0
 26 24  1  0  0  0  0
 26 13  1  0  0  0  0
 28 10  1  0  0  0  0
 28 12  1  0  0  0  0
M  END
>  <MODEL>
1

>  <REMARK>
 VINA RESULT:      -8.5      0.000      0.000
  Name = 
  0 active torsions:
  status: ('A' for Active; 'I' for Inactive)
                            x       y       z     vdW  Elec       q    Type
                         _______ _______ _______ _____ _____    ______ ____

>  <TORSDO>
F 0

$$$$
=
 OpenBabel11112417383D

 28 32  0  0  1  0  0  0  0  0999 V2000
  191.7280  174.0950  143.3730 C   0  0  0  0  0  0  0  0  0  0  0  0
  189.1490  178.2830  142.4440 F   0  0  0  0  0  0  0  0  0  0  0  0
  192.2980  176.1120  147.4910 O   0  0  0  0  0  0  0  0  0  0  0  0
  189.9130  172.4240  144.7040 C   0  0  0  0  0  3  0  0  0  0  0  0
  190.0730  176.8240  146.8770 C   0  0  1  0  0  3  0  0  0  0  0  0
  192.7610  174.9600  142.7240 C   0  0  0  0  0  2  0  0  0  0  0  0
  188.1330  176.6220  141.2960 O   0  0  0  0  0  1  0  0  0  0  0  0
  188.2340  177.2420  142.5420 C   0  0  1  0  0  0  0  0  0  0  0  0
  186.9590  178.3380  144.3160 C   0  0  1  0  0  3  0  0  0  0  0  0
  188.6420  176.2340  143.5520 N   0  0  2  0  0  0  0  0  0  0  0  0
  194.9990  175.6330  145.4590 O   0  0  0  0  0  0  0  0  0  0  0  0
  190.6890  177.0910  144.5020 C   0  0  1  0  0  3  0  0  0  0  0  0
  187.1180  177.2440  145.1790 O   0  0  0  0  0  0  0  0  0  0  0  0
  186.8820  177.8420  142.8880 C   0  0  0  0  0  2  0  0  0  0  0  0
  194.0720  175.8430  144.6360 C   0  0  0  0  0  0  0  0  0  0  0  0
  190.4830  174.6120  143.7910 C   0  0  0  0  0  0  0  0  0  0  0  0
  191.4820  176.4680  146.6000 C   0  0  0  0  0  0  0  0  0  0  0  0
  185.6790  179.0690  144.6630 C   0  0  0  0  0  1  0  0  0  0  0  0
  193.1810  177.0260  144.8360 C   0  0  0  0  0  2  0  0  0  0  0  0
  189.5910  173.7610  144.4670 C   0  0  0  0  0  3  0  0  0  0  0  0
  192.0410  172.7500  143.6090 C   0  0  0  0  0  3  0  0  0  0  0  0
  191.1370  171.9160  144.2690 C   0  0  0  0  0  3  0  0  0  0  0  0
  193.9320  174.9940  143.5340 O   0  0  0  0  0  0  0  0  0  0  0  0
  189.5820  177.3740  145.5180 C   0  0  1  0  0  3  0  0  0  0  0  0
  191.8450  176.6140  145.2400 N   0  0  0  0  0  0  0  0  0  0  0  0
  188.3760  176.6370  144.9480 C   0  0  2  0  0  3  0  0  0  0  0  0
  189.3740  175.6780  147.2710 O   0  0  0  0  0  1  0  0  0  0  0  0
  190.1010  176.0590  143.5170 C   0  0  1  0  0  3  0  0  0  0  0  0
  1 21  2  0  0  0  0
  1 16  1  0  0  0  0
  2  8  1  0  0  0  0
  5 27  1  6  0  0  0
  6  1  1  0  0  0  0
  6 23  1  0  0  0  0
  8  7  1  6  0  0  0
  8 14  1  0  0  0  0
  8 10  1  0  0  0  0
  9 18  1  1  0  0  0
  9 13  1  0  0  0  0
 10 26  1  0  0  0  0
 12 25  1  0  0  0  0
 12 24  1  0  0  0  0
 14  9  1  0  0  0  0
 15 19  1  0  0  0  0
 15 11  2  0  0  0  0
 16 20  2  0  0  0  0
 17  5  1  0  0  0  0
 17  3  2  0  0  0  0
 19 25  1  0  0  0  0
 20  4  1  0  0  0  0
 21 22  1  0  0  0  0
 22  4  2  0  0  0  0
 23 15  1  0  0  0  0
 24  5  1  0  0  0  0
 25 17  1  0  0  0  0
 26 13  1  0  0  0  0
 26 24  1  0  0  0  0
 28 10  1  0  0  0  0
 28 16  1  0  0  0  0
 28 12  1  0  0  0  0
M  END
>  <MODEL>
2

>  <REMARK>
 VINA RESULT:      -8.2      1.393      1.508
  Name = 
  0 active torsions:
  status: ('A' for Active; 'I' for Inactive)
                            x       y       z     vdW  Elec       q    Type
                         _______ _______ _______ _____ _____    ______ ____

>  <TORSDO>
F 0

$$$$
=
 OpenBabel11112417383D

 28 32  0  0  1  0  0  0  0  0999 V2000
  190.5330  175.4360  144.0740 C   0  0  0  0  0  0  0  0  0  0  0  0
  185.8790  176.0410  145.8160 F   0  0  0  0  0  0  0  0  0  0  0  0
  188.3080  175.1730  140.0330 O   0  0  0  0  0  0  0  0  0  0  0  0
  191.3060  177.9890  143.2150 C   0  0  0  0  0  3  0  0  0  0  0  0
  186.9740  176.7800  141.2460 C   0  0  1  0  0  3  0  0  0  0  0  0
  190.1580  174.0390  144.4560 C   0  0  0  0  0  2  0  0  0  0  0  0
  187.2350  177.2820  147.1310 O   0  0  0  0  0  1  0  0  0  0  0  0
  186.5290  177.2640  145.9280 C   0  0  1  0  0  0  0  0  0  0  0  0
  184.8470  178.4410  144.6020 C   0  0  1  0  0  3  0  0  0  0  0  0
  187.4760  177.4960  144.8090 N   0  0  2  0  0  0  0  0  0  0  0  0
  189.9280  172.4240  141.2490 O   0  0  0  0  0  0  0  0  0  0  0  0
  187.2420  175.5660  143.3780 C   0  0  1  0  0  3  0  0  0  0  0  0
  185.8080  178.8950  143.6880 O   0  0  0  0  0  0  0  0  0  0  0  0
  185.4690  178.3510  145.9790 C   0  0  0  0  0  2  0  0  0  0  0  0
  189.5270  172.9910  142.2980 C   0  0  0  0  0  0  0  0  0  0  0  0
  189.5760  176.4740  144.0250 C   0  0  0  0  0  0  0  0  0  0  0  0
  187.8160  175.5700  141.1230 C   0  0  0  0  0  0  0  0  0  0  0  0
  183.6890  179.4170  144.6380 C   0  0  0  0  0  1  0  0  0  0  0  0
  188.0970  173.4190  142.3870 C   0  0  0  0  0  2  0  0  0  0  0  0
  189.9820  177.7450  143.5800 C   0  0  0  0  0  3  0  0  0  0  0  0
  191.8610  175.6920  143.7130 C   0  0  0  0  0  3  0  0  0  0  0  0
  192.2490  176.9640  143.2880 C   0  0  0  0  0  3  0  0  0  0  0  0
  190.4150  173.1620  143.3640 O   0  0  0  0  0  0  0  0  0  0  0  0
  186.4730  176.7040  142.7070 C   0  0  1  0  0  3  0  0  0  0  0  0
  187.9790  174.8680  142.3410 N   0  0  0  0  0  0  0  0  0  0  0  0
  186.8280  177.9220  143.5500 C   0  0  2  0  0  3  0  0  0  0  0  0
  187.7560  177.9160  141.0110 O   0  0  0  0  0  1  0  0  0  0  0  0
  188.1340  176.2340  144.4450 C   0  0  1  0  0  3  0  0  0  0  0  0
  1  6  1  0  0  0  0
  3 17  2  0  0  0  0
  4 22  2  0  0  0  0
  4 20  1  0  0  0  0
  5 27  1  1  0  0  0
  5 24  1  0  0  0  0
  8  2  1  6  0  0  0
  8 14  1  0  0  0  0
  8  7  1  0  0  0  0
  9 18  1  1  0  0  0
  9 14  1  0  0  0  0
 10  8  1  0  0  0  0
 11 15  2  0  0  0  0
 12 28  1  0  0  0  0
 13  9  1  0  0  0  0
 15 19  1  0  0  0  0
 15 23  1  0  0  0  0
 16  1  1  0  0  0  0
 16 28  1  0  0  0  0
 17  5  1  0  0  0  0
 17 25  1  0  0  0  0
 20 16  2  0  0  0  0
 21  1  2  0  0  0  0
 22 21  1  0  0  0  0
 23  6  1  0  0  0  0
 24 12  1  0  0  0  0
 24 26  1  0  0  0  0
 25 19  1  0  0  0  0
 25 12  1  0  0  0  0
 26 13  1  0  0  0  0
 26 10  1  0  0  0  0
 28 10  1  0  0  0  0
M  END
>  <MODEL>
3

>  <REMARK>
 VINA RESULT:      -8.0      2.534      4.670
  Name = 
  0 active torsions:
  status: ('A' for Active; 'I' for Inactive)
                            x       y       z     vdW  Elec       q    Type
                         _______ _______ _______ _____ _____    ______ ____

>  <TORSDO>
F 0

$$$$
=
 OpenBabel11112417383D

 28 32  0  0  1  0  0  0  0  0999 V2000
  189.4050  176.8400  145.6600 C   0  0  0  0  0  0  0  0  0  0  0  0
  194.2830  176.5060  144.5860 F   0  0  0  0  0  0  0  0  0  0  0  0
  189.1200  173.5190  142.4600 O   0  0  0  0  0  0  0  0  0  0  0  0
  188.9410  174.7790  147.5030 C   0  0  0  0  0  3  0  0  0  0  0  0
  191.2260  173.0170  143.5310 C   0  0  1  0  0  3  0  0  0  0  0  0
  189.5730  177.9160  144.6350 C   0  0  0  0  0  2  0  0  0  0  0  0
  194.1310  177.0080  146.7850 O   0  0  0  0  0  1  0  0  0  0  0  0
  194.0970  175.9690  145.8540 C   0  0  1  0  0  0  0  0  0  0  0  0
  195.0930  173.8220  145.2460 C   0  0  1  0  0  3  0  0  0  0  0  0
  192.8000  175.2570  145.9720 N   0  0  2  0  0  0  0  0  0  0  0  0
  187.7410  176.5800  141.8410 O   0  0  0  0  0  0  0  0  0  0  0  0
  191.8000  175.4040  143.7800 C   0  0  1  0  0  3  0  0  0  0  0  0
  193.9420  173.1190  145.6300 O   0  0  0  0  0  0  0  0  0  0  0  0
  195.2590  175.0340  146.1380 C   0  0  0  0  0  2  0  0  0  0  0  0
  188.7430  176.8690  142.5450 C   0  0  0  0  0  0  0  0  0  0  0  0
  190.4190  175.8900  145.9130 C   0  0  0  0  0  0  0  0  0  0  0  0
  190.1770  173.9230  143.0140 C   0  0  0  0  0  0  0  0  0  0  0  0
  196.3020  172.9220  145.3930 C   0  0  0  0  0  1  0  0  0  0  0  0
  190.0720  176.2900  142.1820 C   0  0  0  0  0  2  0  0  0  0  0  0
  190.1620  174.8580  146.8330 C   0  0  0  0  0  3  0  0  0  0  0  0
  188.1840  176.7570  146.3430 C   0  0  0  0  0  3  0  0  0  0  0  0
  187.9530  175.7330  147.2630 C   0  0  0  0  0  3  0  0  0  0  0  0
  188.5930  177.7580  143.6140 O   0  0  0  0  0  0  0  0  0  0  0  0
  192.3670  173.9900  143.9090 C   0  0  1  0  0  3  0  0  0  0  0  0
  190.4940  175.2950  143.1560 N   0  0  0  0  0  0  0  0  0  0  0  0
  192.7950  173.9080  145.3680 C   0  0  2  0  0  3  0  0  0  0  0  0
  190.7330  172.3190  144.6380 O   0  0  0  0  0  1  0  0  0  0  0  0
  191.7670  175.9750  145.2140 C   0  0  1  0  0  3  0  0  0  0  0  0
  1 16  2  0  0  0  0
  1 21  1  0  0  0  0
  3 17  2  0  0  0  0
  5 24  1  0  0  0  0
  5 27  1  1  0  0  0
  6  1  1  0  0  0  0
  8  2  1  6  0  0  0
  8 10  1  0  0  0  0
  8 14  1  0  0  0  0
  8  7  1  0  0  0  0
  9 18  1  1  0  0  0
  9 13  1  0  0  0  0
  9 14  1  0  0  0  0
 11 15  2  0  0  0  0
 12 24  1  0  0  0  0
 12 28  1  0  0  0  0
 15 23  1  0  0  0  0
 16 20  1  0  0  0  0
 17 25  1  0  0  0  0
 17  5  1  0  0  0  0
 19 15  1  0  0  0  0
 19 25  1  0  0  0  0
 20  4  2  0  0  0  0
 21 22  2  0  0  0  0
 22  4  1  0  0  0  0
 23  6  1  0  0  0  0
 24 26  1  0  0  0  0
 25 12  1  0  0  0  0
 26 13  1  0  0  0  0
 26 10  1  0  0  0  0
 28 16  1  0  0  0  0
 28 10  1  0  0  0  0
M  END
>  <MODEL>
4

>  <REMARK>
 VINA RESULT:      -8.0      2.645      5.936
  Name = 
  0 active torsions:
  status: ('A' for Active; 'I' for Inactive)
                            x       y       z     vdW  Elec       q    Type
                         _______ _______ _______ _____ _____    ______ ____

>  <TORSDO>
F 0

$$$$
=
 OpenBabel11112417383D

 28 32  0  0  1  0  0  0  0  0999 V2000
  188.8990  176.8630  145.3190 C   0  0  0  0  0  0  0  0  0  0  0  0
  193.3430  176.5230  143.0400 F   0  0  0  0  0  0  0  0  0  0  0  0
  187.8370  173.4680  142.3700 O   0  0  0  0  0  0  0  0  0  0  0  0
  188.9410  174.8440  147.2630 C   0  0  0  0  0  3  0  0  0  0  0  0
  190.1520  172.9990  142.8770 C   0  0  1  0  0  3  0  0  0  0  0  0
  188.7890  177.9160  144.2620 C   0  0  0  0  0  2  0  0  0  0  0  0
  193.7540  177.0750  145.1940 O   0  0  0  0  0  1  0  0  0  0  0  0
  193.4920  176.0150  144.3250 C   0  0  1  0  0  0  0  0  0  0  0  0
  194.3210  173.8580  143.5290 C   0  0  1  0  0  3  0  0  0  0  0  0
  192.2760  175.3000  144.7860 N   0  0  2  0  0  0  0  0  0  0  0  0
  186.3160  176.5090  142.0590 O   0  0  0  0  0  0  0  0  0  0  0  0
  190.7470  175.3930  142.9200 C   0  0  1  0  0  3  0  0  0  0  0  0
  193.3130  173.1600  144.2090 O   0  0  0  0  0  0  0  0  0  0  0  0
  194.6970  175.0910  144.3220 C   0  0  0  0  0  2  0  0  0  0  0  0
  187.4620  176.8180  142.4760 C   0  0  0  0  0  0  0  0  0  0  0  0
  189.9530  175.9240  145.3240 C   0  0  0  0  0  0  0  0  0  0  0  0
  188.9970  173.8890  142.6270 C   0  0  0  0  0  0  0  0  0  0  0  0
  195.5360  172.9660  143.3810 C   0  0  0  0  0  1  0  0  0  0  0  0
  188.6600  176.2360  141.7980 C   0  0  0  0  0  2  0  0  0  0  0  0
  189.9500  174.9110  146.3010 C   0  0  0  0  0  3  0  0  0  0  0  0
  187.8940  176.7920  146.2930 C   0  0  0  0  0  3  0  0  0  0  0  0
  187.9160  175.7890  147.2630 C   0  0  0  0  0  3  0  0  0  0  0  0
  187.5820  177.7300  143.5290 O   0  0  0  0  0  0  0  0  0  0  0  0
  191.3420  173.9850  142.9300 C   0  0  1  0  0  3  0  0  0  0  0  0
  189.3270  175.2650  142.6530 N   0  0  0  0  0  0  0  0  0  0  0  0
  192.1300  173.9380  144.2330 C   0  0  2  0  0  3  0  0  0  0  0  0
  189.9650  172.3250  144.0880 O   0  0  0  0  0  1  0  0  0  0  0  0
  191.0770  175.9970  144.3020 C   0  0  1  0  0  3  0  0  0  0  0  0
  1 16  2  0  0  0  0
  1 21  1  0  0  0  0
  3 17  2  0  0  0  0
  5 24  1  0  0  0  0
  5 27  1  1  0  0  0
  6  1  1  0  0  0  0
  8  2  1  6  0  0  0
  8 10  1  0  0  0  0
  8  7  1  0  0  0  0
  9 18  1  1  0  0  0
  9 13  1  0  0  0  0
  9 14  1  0  0  0  0
 11 15  2  0  0  0  0
 12 24  1  0  0  0  0
 12 28  1  0  0  0  0
 13 26  1  0  0  0  0
 14  8  1  0  0  0  0
 15 23  1  0  0  0  0
 16 20  1  0  0  0  0
 17 25  1  0  0  0  0
 17  5  1  0  0  0  0
 19 15  1  0  0  0  0
 19 25  1  0  0  0  0
 20  4  2  0  0  0  0
 21 22  2  0  0  0  0
 22  4  1  0  0  0  0
 23  6  1  0  0  0  0
 24 26  1  0  0  0  0
 25 12  1  0  0  0  0
 26 10  1  0  0  0  0
 28 10  1  0  0  0  0
 28 16  1  0  0  0  0
M  END
>  <MODEL>
5

>  <REMARK>
 VINA RESULT:      -7.6      2.345      6.017
  Name = 
  0 active torsions:
  status: ('A' for Active; 'I' for Inactive)
                            x       y       z     vdW  Elec       q    Type
                         _______ _______ _______ _____ _____    ______ ____

>  <TORSDO>
F 0

$$$$
=
 OpenBabel11112417383D

 28 32  0  0  1  0  0  0  0  0999 V2000
  187.3440  176.6410  143.7350 C   0  0  0  0  0  0  0  0  0  0  0  0
  189.3180  172.1890  144.8950 F   0  0  0  0  0  0  0  0  0  0  0  0
  189.8440  177.9900  147.3790 O   0  0  0  0  0  0  0  0  0  0  0  0
  189.3170  177.9160  142.2060 C   0  0  0  0  0  3  0  0  0  0  0  0
  191.2360  176.2690  146.4140 C   0  0  1  0  0  3  0  0  0  0  0  0
  186.2770  176.0410  144.5960 C   0  0  0  0  0  2  0  0  0  0  0  0
  189.1050  172.2430  142.6450 O   0  0  0  0  0  1  0  0  0  0  0  0
  189.9170  172.6170  143.7160 C   0  0  1  0  0  0  0  0  0  0  0  0
  192.1750  172.4590  144.6380 C   0  0  1  0  0  3  0  0  0  0  0  0
  190.1040  174.0900  143.6890 N   0  0  2  0  0  0  0  0  0  0  0  0
  186.4350  178.1100  147.5350 O   0  0  0  0  0  0  0  0  0  0  0  0
  189.2940  174.8650  145.8270 C   0  0  1  0  0  3  0  0  0  0  0  0
  192.4440  173.8050  144.3490 O   0  0  0  0  0  0  0  0  0  0  0  0
  191.2470  171.8980  143.5820 C   0  0  0  0  0  2  0  0  0  0  0  0
  186.6400  177.1050  146.8070 C   0  0  0  0  0  0  0  0  0  0  0  0
  188.6280  176.0620  143.6330 C   0  0  0  0  0  0  0  0  0  0  0  0
  189.9430  176.8850  146.7830 C   0  0  0  0  0  0  0  0  0  0  0  0
  193.4710  171.6770  144.6350 C   0  0  0  0  0  1  0  0  0  0  0  0
  187.6170  176.0690  147.2630 C   0  0  0  0  0  2  0  0  0  0  0  0
  189.6070  176.7230  142.8700 C   0  0  0  0  0  3  0  0  0  0  0  0
  187.0590  177.8340  143.0600 C   0  0  0  0  0  3  0  0  0  0  0  0
  188.0400  178.4690  142.2950 C   0  0  0  0  0  3  0  0  0  0  0  0
  185.9160  176.9630  145.6190 O   0  0  0  0  0  0  0  0  0  0  0  0
  190.8200  174.8670  145.9100 C   0  0  1  0  0  3  0  0  0  0  0  0
  188.8220  176.0890  146.4480 N   0  0  0  0  0  0  0  0  0  0  0  0
  191.2570  174.5660  144.4820 C   0  0  2  0  0  3  0  0  0  0  0  0
  191.8460  177.0340  145.4140 O   0  0  0  0  0  1  0  0  0  0  0  0
  188.9550  174.7480  144.3260 C   0  0  1  0  0  3  0  0  0  0  0  0
  1  6  1  0  0  0  0
  4 22  2  0  0  0  0
  4 20  1  0  0  0  0
  5 27  1  6  0  0  0
  5 17  1  0  0  0  0
  6 23  1  0  0  0  0
  8  7  1  6  0  0  0
  8  2  1  0  0  0  0
  9 18  1  6  0  0  0
 10  8  1  0  0  0  0
 10 28  1  0  0  0  0
 10 26  1  0  0  0  0
 12 24  1  0  0  0  0
 12 25  1  0  0  0  0
 13 26  1  0  0  0  0
 13  9  1  0  0  0  0
 14  8  1  0  0  0  0
 14  9  1  0  0  0  0
 15 19  1  0  0  0  0
 15 11  2  0  0  0  0
 16  1  1  0  0  0  0
 16 28  1  0  0  0  0
 17  3  2  0  0  0  0
 20 16  2  0  0  0  0
 21  1  2  0  0  0  0
 22 21  1  0  0  0  0
 23 15  1  0  0  0  0
 24  5  1  0  0  0  0
 25 17  1  0  0  0  0
 25 19  1  0  0  0  0
 26 24  1  0  0  0  0
 28 12  1  0  0  0  0
M  END
>  <MODEL>
6

>  <REMARK>
 VINA RESULT:      -7.2      2.301      5.633
  Name = 
  0 active torsions:
  status: ('A' for Active; 'I' for Inactive)
                            x       y       z     vdW  Elec       q    Type
                         _______ _______ _______ _____ _____    ______ ____

>  <TORSDO>
F 0

$$$$
=
 OpenBabel11112417383D

 28 32  0  0  1  0  0  0  0  0999 V2000
  194.1490  175.2470  141.4640 C   0  0  0  0  0  0  0  0  0  0  0  0
  191.5140  178.6610  144.0050 F   0  0  0  0  0  0  0  0  0  0  0  0
  195.9870  174.4860  145.6350 O   0  0  0  0  0  0  0  0  0  0  0  0
  192.7820  172.8360  141.8850 C   0  0  0  0  0  3  0  0  0  0  0  0
  193.6990  175.0360  146.1780 C   0  0  1  0  0  3  0  0  0  0  0  0
  194.9580  176.4870  141.2520 C   0  0  0  0  0  2  0  0  0  0  0  0
  190.1570  177.8640  142.3810 O   0  0  0  0  0  1  0  0  0  0  0  0
  190.6450  177.6300  143.6670 C   0  0  1  0  0  0  0  0  0  0  0  0
  189.9950  177.2250  145.9880 C   0  0  1  0  0  3  0  0  0  0  0  0
  191.3150  176.3050  143.6950 N   0  0  2  0  0  0  0  0  0  0  0  0
  197.9350  175.7700  143.1420 O   0  0  0  0  0  0  0  0  0  0  0  0
  193.5740  176.7590  144.4160 C   0  0  1  0  0  3  0  0  0  0  0  0
  190.3800  175.8780  145.9170 O   0  0  0  0  0  0  0  0  0  0  0  0
  189.4770  177.6690  144.6360 C   0  0  0  0  0  2  0  0  0  0  0  0
  196.8080  176.2680  142.8910 C   0  0  0  0  0  0  0  0  0  0  0  0
  193.1020  175.1960  142.4090 C   0  0  0  0  0  0  0  0  0  0  0  0
  194.9490  175.1580  145.3960 C   0  0  0  0  0  0  0  0  0  0  0  0
  188.8980  177.3790  147.0210 C   0  0  0  0  0  1  0  0  0  0  0  0
  196.0480  176.9300  143.9950 C   0  0  0  0  0  2  0  0  0  0  0  0
  192.4360  173.9750  142.6140 C   0  0  0  0  0  3  0  0  0  0  0  0
  194.4850  174.1010  140.7320 C   0  0  0  0  0  3  0  0  0  0  0  0
  193.8030  172.9010  140.9390 C   0  0  0  0  0  3  0  0  0  0  0  0
  196.3200  176.2290  141.5820 O   0  0  0  0  0  0  0  0  0  0  0  0
  192.8330  176.1940  145.6270 C   0  0  1  0  0  3  0  0  0  0  0  0
  194.8870  176.1410  144.3800 N   0  0  0  0  0  0  0  0  0  0  0  0
  191.4940  175.7490  145.0530 C   0  0  2  0  0  3  0  0  0  0  0  0
  193.1240  173.7830  145.9420 O   0  0  0  0  0  1  0  0  0  0  0  0
  192.6900  176.4330  143.1930 C   0  0  1  0  0  3  0  0  0  0  0  0
  1 16  1  0  0  0  0
  4 20  1  0  0  0  0
  5 27  1  6  0  0  0
  6  1  1  0  0  0  0
  6 23  1  0  0  0  0
  8  7  1  6  0  0  0
  8 10  1  0  0  0  0
  8  2  1  0  0  0  0
  8 14  1  0  0  0  0
  9 18  1  1  0  0  0
 10 26  1  0  0  0  0
 12 24  1  0  0  0  0
 13  9  1  0  0  0  0
 14  9  1  0  0  0  0
 15 11  2  0  0  0  0
 15 19  1  0  0  0  0
 16 20  2  0  0  0  0
 16 28  1  0  0  0  0
 17  3  2  0  0  0  0
 17  5  1  0  0  0  0
 19 25  1  0  0  0  0
 21 22  1  0  0  0  0
 21  1  2  0  0  0  0
 22  4  2  0  0  0  0
 23 15  1  0  0  0  0
 24  5  1  0  0  0  0
 25 12  1  0  0  0  0
 25 17  1  0  0  0  0
 26 24  1  0  0  0  0
 26 13  1  0  0  0  0
 28 10  1  0  0  0  0
 28 12  1  0  0  0  0
M  END
>  <MODEL>
7

>  <REMARK>
 VINA RESULT:      -7.2      2.493      3.594
  Name = 
  0 active torsions:
  status: ('A' for Active; 'I' for Inactive)
                            x       y       z     vdW  Elec       q    Type
                         _______ _______ _______ _____ _____    ______ ____

>  <TORSDO>
F 0

$$$$
=
 OpenBabel11112417383D

 28 32  0  0  1  0  0  0  0  0999 V2000
  191.8470  174.5840  143.7480 C   0  0  0  0  0  0  0  0  0  0  0  0
  187.8500  175.3730  146.6580 F   0  0  0  0  0  0  0  0  0  0  0  0
  188.6340  174.5580  140.4270 O   0  0  0  0  0  0  0  0  0  0  0  0
  192.5150  177.1190  142.7570 C   0  0  0  0  0  3  0  0  0  0  0  0
  187.7570  176.1940  141.9730 C   0  0  1  0  0  3  0  0  0  0  0  0
  191.5040  173.1970  144.1920 C   0  0  0  0  0  2  0  0  0  0  0  0
  189.5720  176.5030  147.5920 O   0  0  0  0  0  1  0  0  0  0  0  0
  188.5760  176.5570  146.6150 C   0  0  1  0  0  0  0  0  0  0  0  0
  186.6770  177.8590  145.7950 C   0  0  1  0  0  3  0  0  0  0  0  0
  189.2100  176.7750  145.2910 N   0  0  2  0  0  0  0  0  0  0  0  0
  190.3540  171.6950  141.1320 O   0  0  0  0  0  0  0  0  0  0  0  0
  188.5010  174.9040  143.9400 C   0  0  1  0  0  3  0  0  0  0  0  0
  187.3920  178.2910  144.6680 O   0  0  0  0  0  0  0  0  0  0  0  0
  187.6310  177.6950  146.9590 C   0  0  0  0  0  2  0  0  0  0  0  0
  190.2730  172.2490  142.2580 C   0  0  0  0  0  0  0  0  0  0  0  0
  190.9720  175.6700  143.9670 C   0  0  0  0  0  0  0  0  0  0  0  0
  188.4670  174.9470  141.6140 C   0  0  0  0  0  0  0  0  0  0  0  0
  185.6270  178.8910  146.1480 C   0  0  0  0  0  1  0  0  0  0  0  0
  188.9440  172.7460  142.7260 C   0  0  0  0  0  2  0  0  0  0  0  0
  191.3200  176.9320  143.4520 C   0  0  0  0  0  3  0  0  0  0  0  0
  193.0480  174.7830  143.0550 C   0  0  0  0  0  3  0  0  0  0  0  0
  193.3830  176.0450  142.5640 C   0  0  0  0  0  3  0  0  0  0  0  0
  191.4180  172.3410  143.0570 O   0  0  0  0  0  0  0  0  0  0  0  0
  187.6510  176.1000  143.5130 C   0  0  1  0  0  3  0  0  0  0  0  0
  188.9010  174.2010  142.7350 N   0  0  0  0  0  0  0  0  0  0  0  0
  188.2830  177.2720  144.2530 C   0  0  2  0  0  3  0  0  0  0  0  0
  188.5150  177.2950  141.5590 O   0  0  0  0  0  1  0  0  0  0  0  0
  189.6780  175.4930  144.7470 C   0  0  1  0  0  3  0  0  0  0  0  0
  1 16  1  0  0  0  0
  1  6  1  0  0  0  0
  3 17  2  0  0  0  0
  4 20  1  0  0  0  0
  5 27  1  1  0  0  0
  5 24  1  0  0  0  0
  8  2  1  6  0  0  0
  8 14  1  0  0  0  0
  8  7  1  0  0  0  0
  9 18  1  1  0  0  0
  9 14  1  0  0  0  0
 10  8  1  0  0  0  0
 11 15  2  0  0  0  0
 12 28  1  0  0  0  0
 13  9  1  0  0  0  0
 15 19  1  0  0  0  0
 15 23  1  0  0  0  0
 16 28  1  0  0  0  0
 17  5  1  0  0  0  0
 17 25  1  0  0  0  0
 19 25  1  0  0  0  0
 20 16  2  0  0  0  0
 21  1  2  0  0  0  0
 22  4  2  0  0  0  0
 22 21  1  0  0  0  0
 23  6  1  0  0  0  0
 24 12  1  0  0  0  0
 24 26  1  0  0  0  0
 25 12  1  0  0  0  0
 26 13  1  0  0  0  0
 26 10  1  0  0  0  0
 28 10  1  0  0  0  0
M  END
>  <MODEL>
8

>  <REMARK>
 VINA RESULT:      -7.1      2.220      4.300
  Name = 
  0 active torsions:
  status: ('A' for Active; 'I' for Inactive)
                            x       y       z     vdW  Elec       q    Type
                         _______ _______ _______ _____ _____    ______ ____

>  <TORSDO>
F 0

$$$$
=
 OpenBabel11112417383D

 28 32  0  0  1  0  0  0  0  0999 V2000
  188.8040  175.8690  145.5060 C   0  0  0  0  0  0  0  0  0  0  0  0
  190.7600  171.6500  143.6530 F   0  0  0  0  0  0  0  0  0  0  0  0
  193.1990  177.2730  145.2450 O   0  0  0  0  0  0  0  0  0  0  0  0
  188.3950  177.5050  143.2660 C   0  0  0  0  0  3  0  0  0  0  0  0
  193.0090  175.8290  143.3190 C   0  0  1  0  0  3  0  0  0  0  0  0
  189.0560  175.0710  146.7460 C   0  0  0  0  0  2  0  0  0  0  0  0
  188.6780  171.8380  142.7920 O   0  0  0  0  0  1  0  0  0  0  0  0
  190.0070  172.2390  142.6450 C   0  0  1  0  0  0  0  0  0  0  0  0
  191.8900  172.3180  141.0890 C   0  0  1  0  0  3  0  0  0  0  0  0
  190.0730  173.7210  142.6940 N   0  0  2  0  0  0  0  0  0  0  0  0
  191.7180  176.9230  148.3020 O   0  0  0  0  0  0  0  0  0  0  0  0
  191.5700  174.2230  144.5190 C   0  0  1  0  0  3  0  0  0  0  0  0
  191.7640  173.7050  140.9240 O   0  0  0  0  0  0  0  0  0  0  0  0
  190.5200  171.7160  141.3150 C   0  0  0  0  0  2  0  0  0  0  0  0
  191.1750  176.0100  147.6290 C   0  0  0  0  0  0  0  0  0  0  0  0
  189.3230  175.4770  144.2530 C   0  0  0  0  0  0  0  0  0  0  0  0
  192.7210  176.2370  144.7110 C   0  0  0  0  0  0  0  0  0  0  0  0
  192.5020  171.7190  139.8400 C   0  0  0  0  0  1  0  0  0  0  0  0
  192.0390  175.0840  146.8360 C   0  0  0  0  0  2  0  0  0  0  0  0
  189.1170  176.3170  143.1440 C   0  0  0  0  0  3  0  0  0  0  0  0
  188.0750  177.0600  145.6180 C   0  0  0  0  0  3  0  0  0  0  0  0
  187.8680  177.8740  144.5040 C   0  0  0  0  0  3  0  0  0  0  0  0
  189.7850  175.8590  147.6800 O   0  0  0  0  0  0  0  0  0  0  0  0
  192.3670  174.4240  143.2310 C   0  0  1  0  0  3  0  0  0  0  0  0
  191.8930  175.3250  145.4080 N   0  0  0  0  0  0  0  0  0  0  0  0
  191.3180  174.2880  142.1350 C   0  0  2  0  0  3  0  0  0  0  0  0
  192.4190  176.7390  142.4360 O   0  0  0  0  0  1  0  0  0  0  0  0
  190.0880  174.1720  144.0920 C   0  0  1  0  0  3  0  0  0  0  0  0
  1 21  1  0  0  0  0
  1  6  1  0  0  0  0
  4 22  1  0  0  0  0
  5 27  1  6  0  0  0
  5 17  1  0  0  0  0
  6 23  1  0  0  0  0
  8 10  1  0  0  0  0
  8  7  1  1  0  0  0
  8  2  1  0  0  0  0
  9 18  1  6  0  0  0
  9 14  1  0  0  0  0
 10 28  1  0  0  0  0
 12 25  1  0  0  0  0
 13  9  1  0  0  0  0
 13 26  1  0  0  0  0
 14  8  1  0  0  0  0
 15 23  1  0  0  0  0
 15 11  2  0  0  0  0
 16  1  2  0  0  0  0
 17  3  2  0  0  0  0
 17 25  1  0  0  0  0
 19 15  1  0  0  0  0
 20  4  2  0  0  0  0
 20 16  1  0  0  0  0
 22 21  2  0  0  0  0
 24  5  1  0  0  0  0
 24 12  1  0  0  0  0
 25 19  1  0  0  0  0
 26 10  1  0  0  0  0
 26 24  1  0  0  0  0
 28 16  1  0  0  0  0
 28 12  1  0  0  0  0
M  END
>  <MODEL>
9

>  <REMARK>
 VINA RESULT:      -7.1      2.364      5.646
  Name = 
  0 active torsions:
  status: ('A' for Active; 'I' for Inactive)
                            x       y       z     vdW  Elec       q    Type
                         _______ _______ _______ _____ _____    ______ ____

>  <TORSDO>
F 0

$$$$
