=
 OpenBabel11112416463D

 31 35  0  0  1  0  0  0  0  0999 V2000
  186.8620  177.8020  140.9680 C   0  0  0  0  0  0  0  0  0  0  0  0
  188.5990  177.7260  144.3400 C   0  0  2  0  0  3  0  0  0  0  0  0
  187.4510  177.8200  145.3370 C   0  0  0  0  0  0  0  0  0  0  0  0
  185.1270  178.2880  145.8860 C   0  0  0  0  0  0  0  0  0  0  0  0
  188.1640  177.2810  142.9580 C   0  0  0  0  0  0  0  0  0  0  0  0
  187.0330  176.4980  140.5060 C   0  0  0  0  0  3  0  0  0  0  0  0
  186.1550  178.1880  144.9430 C   0  0  0  0  0  3  0  0  0  0  0  0
  189.4000  175.4010  144.9050 C   0  0  2  0  0  3  0  0  0  0  0  0
  186.1350  178.6870  140.2450 F   0  0  0  0  0  0  0  0  0  0  0  0
  189.0290  177.2530  147.1190 N   0  0  0  0  0  2  0  0  0  0  0  0
  183.7570  178.6650  145.4520 C   0  0  0  0  0  1  0  0  0  0  0  0
  189.5310  174.8010  143.1980 S   0  0  0  0  0  0  0  0  0  0  0  0
  189.7610  176.8900  144.9090 C   0  0  2  0  0  3  0  0  0  0  0  0
  187.4190  178.1880  142.1880 C   0  0  0  0  0  3  0  0  0  0  0  0
  185.3880  178.0310  147.2340 C   0  0  0  0  0  3  0  0  0  0  0  0
  188.3750  175.9700  142.4620 C   0  0  0  0  0  0  0  0  0  0  0  0
  187.7950  175.5920  141.2460 C   0  0  0  0  0  3  0  0  0  0  0  0
  190.1290  177.3800  146.2470 N   0  0  0  0  0  2  0  0  0  0  0  0
  187.7090  177.6030  146.7020 C   0  0  0  0  0  0  0  0  0  0  0  0
  186.6790  177.6890  147.6420 C   0  0  0  0  0  3  0  0  0  0  0  0
  190.3520  174.5910  145.7780 C   0  0  0  0  0  2  0  0  0  0  0  0
  190.8380  172.4510  144.8020 O   0  0  0  0  0  1  0  0  0  0  0  0
  191.3010  173.7650  144.9200 C   0  0  2  0  0  3  0  0  0  0  0  0
  194.4710  175.3890  143.7540 C   0  0  1  0  0  3  0  0  0  0  0  0
  193.0220  175.2220  145.7770 C   0  0  0  0  0  2  0  0  0  0  0  0
  193.3740  171.8680  144.3200 O   0  0  0  0  0  1  0  0  0  0  0  0
  194.7280  176.1190  142.5940 O   0  0  0  0  0  1  0  0  0  0  0  0
  193.3350  176.0430  144.5240 C   0  0  0  0  0  2  0  0  0  0  0  0
  193.7260  173.1800  144.6450 C   0  0  2  0  0  3  0  0  0  0  0  0
  192.6720  173.8320  145.4570 N   0  0  0  0  0  0  0  0  0  0  0  0
  194.0870  173.9650  143.3840 C   0  0  0  0  0  2  0  0  0  0  0  0
  1 14  1  0  0  0  0
  2  5  1  6  0  0  0
  2 13  1  0  0  0  0
  2  3  1  0  0  0  0
  3 19  1  0  0  0  0
  4 15  2  0  0  0  0
  6  1  2  0  0  0  0
  6 17  1  0  0  0  0
  7  3  2  0  0  0  0
  7  4  1  0  0  0  0
  8 13  1  0  0  0  0
  8 21  1  1  0  0  0
  9  1  1  0  0  0  0
 11  4  1  0  0  0  0
 12  8  1  0  0  0  0
 13 18  1  1  0  0  0
 14  5  2  0  0  0  0
 15 20  1  0  0  0  0
 16  5  1  0  0  0  0
 16 12  1  0  0  0  0
 17 16  2  0  0  0  0
 18 10  1  0  0  0  0
 19 10  1  0  0  0  0
 19 20  2  0  0  0  0
 23 22  1  1  0  0  0
 23 30  1  0  0  0  0
 23 21  1  0  0  0  0
 24 27  1  6  0  0  0
 24 28  1  0  0  0  0
 28 25  1  0  0  0  0
 29 26  1  6  0  0  0
 29 30  1  0  0  0  0
 30 25  1  0  0  0  0
 31 24  1  0  0  0  0
 31 29  1  0  0  0  0
M  END
>  <MODEL>
1

>  <REMARK>
 VINA RESULT:      -8.1      0.000      0.000
  Name = 
  3 active torsions:
  status: ('A' for Active; 'I' for Inactive)
    1  A    between atoms: C_5  and  C_16
    2  A    between atoms: C_5  and  N_30
    3  A    between atoms: C_10  and  C_16
                            x       y       z     vdW  Elec       q    Type
                         _______ _______ _______ _____ _____    ______ ____

>  <TORSDO>
F 3

$$$$
=
 OpenBabel11112416463D

 31 35  0  0  1  0  0  0  0  0999 V2000
  186.4880  177.9260  147.4180 C   0  0  0  0  0  0  0  0  0  0  0  0
  188.9500  177.6860  144.5410 C   0  0  2  0  0  3  0  0  0  0  0  0
  190.0670  176.8140  145.0980 C   0  0  0  0  0  0  0  0  0  0  0  0
  191.2280  175.7490  146.9530 C   0  0  0  0  0  0  0  0  0  0  0  0
  187.6490  177.5630  145.3080 C   0  0  0  0  0  0  0  0  0  0  0  0
  185.4150  177.1580  146.9680 C   0  0  0  0  0  3  0  0  0  0  0  0
  190.1770  176.5340  146.4690 C   0  0  0  0  0  3  0  0  0  0  0  0
  188.1100  176.1230  142.7460 C   0  0  2  0  0  3  0  0  0  0  0  0
  186.4620  178.4630  148.6610 F   0  0  0  0  0  0  0  0  0  0  0  0
  190.9750  176.6310  142.8330 N   0  0  0  0  0  2  0  0  0  0  0  0
  191.3240  175.4500  148.4060 C   0  0  0  0  0  1  0  0  0  0  0  0
  186.3450  176.2910  143.1270 S   0  0  0  0  0  0  0  0  0  0  0  0
  188.7830  177.4720  143.0250 C   0  0  2  0  0  3  0  0  0  0  0  0
  187.5980  178.1220  146.5950 C   0  0  0  0  0  3  0  0  0  0  0  0
  192.1870  175.2440  146.0710 C   0  0  0  0  0  3  0  0  0  0  0  0
  186.5360  176.8220  144.8380 C   0  0  0  0  0  0  0  0  0  0  0  0
  185.4370  176.6190  145.6810 C   0  0  0  0  0  3  0  0  0  0  0  0
  190.0820  177.6080  142.3480 N   0  0  0  0  0  2  0  0  0  0  0  0
  191.0600  176.3330  144.2260 C   0  0  0  0  0  0  0  0  0  0  0  0
  192.1030  175.5360  144.7080 C   0  0  0  0  0  3  0  0  0  0  0  0
  188.2550  175.7170  141.2840 C   0  0  0  0  0  2  0  0  0  0  0  0
  187.7090  173.4800  141.9670 O   0  0  0  0  0  1  0  0  0  0  0  0
  188.5720  174.2330  141.1650 C   0  0  2  0  0  3  0  0  0  0  0  0
  190.8440  171.2820  140.7420 C   0  0  1  0  0  3  0  0  0  0  0  0
  190.7420  173.7230  140.2430 C   0  0  0  0  0  2  0  0  0  0  0  0
  189.5230  173.1860  143.6670 O   0  0  0  0  0  1  0  0  0  0  0  0
  190.5710  170.0060  140.2500 O   0  0  0  0  0  1  0  0  0  0  0  0
  190.4830  172.3200  139.6920 C   0  0  0  0  0  2  0  0  0  0  0  0
  190.2630  172.9500  142.5060 C   0  0  2  0  0  3  0  0  0  0  0  0
  189.9910  173.9830  141.4780 N   0  0  0  0  0  0  0  0  0  0  0  0
  190.0300  171.5250  142.0040 C   0  0  0  0  0  2  0  0  0  0  0  0
  1  9  1  0  0  0  0
  2  3  1  1  0  0  0
  2  5  1  0  0  0  0
  3  7  1  0  0  0  0
  4 11  1  0  0  0  0
  5 14  1  0  0  0  0
  6  1  1  0  0  0  0
  7  4  2  0  0  0  0
  8 21  1  6  0  0  0
  8 13  1  0  0  0  0
  8 12  1  0  0  0  0
 10 19  1  0  0  0  0
 12 16  1  0  0  0  0
 13 18  1  6  0  0  0
 13  2  1  0  0  0  0
 14  1  2  0  0  0  0
 15  4  1  0  0  0  0
 16  5  2  0  0  0  0
 16 17  1  0  0  0  0
 17  6  2  0  0  0  0
 18 10  1  0  0  0  0
 19 20  1  0  0  0  0
 19  3  2  0  0  0  0
 20 15  2  0  0  0  0
 23 21  1  0  0  0  0
 23 30  1  0  0  0  0
 23 22  1  1  0  0  0
 24 27  1  6  0  0  0
 24 31  1  0  0  0  0
 25 30  1  0  0  0  0
 28 25  1  0  0  0  0
 28 24  1  0  0  0  0
 29 26  1  1  0  0  0
 30 29  1  0  0  0  0
 31 29  1  0  0  0  0
M  END
>  <MODEL>
2

>  <REMARK>
 VINA RESULT:      -7.8      3.078      5.323
  Name = 
  3 active torsions:
  status: ('A' for Active; 'I' for Inactive)
    1  A    between atoms: C_5  and  C_16
    2  A    between atoms: C_5  and  N_30
    3  A    between atoms: C_10  and  C_16
                            x       y       z     vdW  Elec       q    Type
                         _______ _______ _______ _____ _____    ______ ____

>  <TORSDO>
F 3

$$$$
=
 OpenBabel11112416463D

 31 35  0  0  1  0  0  0  0  0999 V2000
  185.1720  178.1150  146.8960 C   0  0  0  0  0  0  0  0  0  0  0  0
  187.6690  175.7090  145.3540 C   0  0  2  0  0  3  0  0  0  0  0  0
  187.6140  176.0390  143.8690 C   0  0  0  0  0  0  0  0  0  0  0  0
  186.5530  177.0920  141.9480 C   0  0  0  0  0  0  0  0  0  0  0  0
  187.1210  176.8110  146.2390 C   0  0  0  0  0  0  0  0  0  0  0  0
  185.9920  179.0050  147.5880 C   0  0  0  0  0  3  0  0  0  0  0  0
  186.5890  176.8260  143.3200 C   0  0  0  0  0  3  0  0  0  0  0  0
  190.0420  176.4330  145.8150 C   0  0  2  0  0  3  0  0  0  0  0  0
  183.8330  178.3160  146.8570 F   0  0  0  0  0  0  0  0  0  0  0  0
  189.6100  174.6590  143.5480 N   0  0  0  0  0  2  0  0  0  0  0  0
  185.4690  177.9380  141.3840 C   0  0  0  0  0  1  0  0  0  0  0  0
  189.6860  177.3780  147.3220 S   0  0  0  0  0  0  0  0  0  0  0  0
  189.0780  175.2430  145.7680 C   0  0  2  0  0  3  0  0  0  0  0  0
  185.7350  177.0300  146.2210 C   0  0  0  0  0  3  0  0  0  0  0  0
  187.5380  176.5660  141.1080 C   0  0  0  0  0  3  0  0  0  0  0  0
  187.9450  177.6920  146.9820 C   0  0  0  0  0  0  0  0  0  0  0  0
  187.3690  178.7860  147.6380 C   0  0  0  0  0  3  0  0  0  0  0  0
  189.5410  174.1740  144.8690 N   0  0  0  0  0  2  0  0  0  0  0  0
  188.5760  175.4830  143.0070 C   0  0  0  0  0  0  0  0  0  0  0  0
  188.5490  175.7600  141.6370 C   0  0  0  0  0  3  0  0  0  0  0  0
  191.4950  175.9750  145.8610 C   0  0  0  0  0  2  0  0  0  0  0  0
  191.4830  177.4010  143.9280 O   0  0  0  0  0  1  0  0  0  0  0  0
  192.2630  176.4950  144.6540 C   0  0  2  0  0  3  0  0  0  0  0  0
  195.5330  174.6870  144.3600 C   0  0  1  0  0  3  0  0  0  0  0  0
  193.1010  174.2330  144.6760 C   0  0  0  0  0  2  0  0  0  0  0  0
  193.4750  176.7910  142.0650 O   0  0  0  0  0  1  0  0  0  0  0  0
  196.7430  174.9160  145.0130 O   0  0  0  0  0  1  0  0  0  0  0  0
  194.4390  174.4440  145.3870 C   0  0  0  0  0  2  0  0  0  0  0  0
  193.8130  175.6880  142.8520 C   0  0  2  0  0  3  0  0  0  0  0  0
  192.7390  175.3730  143.8240 N   0  0  0  0  0  0  0  0  0  0  0  0
  195.1780  175.8970  143.5100 C   0  0  0  0  0  2  0  0  0  0  0  0
  1  6  1  0  0  0  0
  2  3  1  6  0  0  0
  2 13  1  0  0  0  0
  2  5  1  0  0  0  0
  4  7  2  0  0  0  0
  5 16  2  0  0  0  0
  6 17  2  0  0  0  0
  7  3  1  0  0  0  0
  8 21  1  1  0  0  0
  8 12  1  0  0  0  0
  9  1  1  0  0  0  0
 10 18  1  0  0  0  0
 11  4  1  0  0  0  0
 13 18  1  6  0  0  0
 13  8  1  0  0  0  0
 14  5  1  0  0  0  0
 14  1  2  0  0  0  0
 15 20  2  0  0  0  0
 15  4  1  0  0  0  0
 16 12  1  0  0  0  0
 16 17  1  0  0  0  0
 19 10  1  0  0  0  0
 19  3  2  0  0  0  0
 20 19  1  0  0  0  0
 23 22  1  6  0  0  0
 23 21  1  0  0  0  0
 24 27  1  1  0  0  0
 24 28  1  0  0  0  0
 25 28  1  0  0  0  0
 29 26  1  1  0  0  0
 29 31  1  0  0  0  0
 29 30  1  0  0  0  0
 30 23  1  0  0  0  0
 30 25  1  0  0  0  0
 31 24  1  0  0  0  0
M  END
>  <MODEL>
3

>  <REMARK>
 VINA RESULT:      -7.8      2.509      4.333
  Name = 
  3 active torsions:
  status: ('A' for Active; 'I' for Inactive)
    1  A    between atoms: C_5  and  C_16
    2  A    between atoms: C_5  and  N_30
    3  A    between atoms: C_10  and  C_16
                            x       y       z     vdW  Elec       q    Type
                         _______ _______ _______ _____ _____    ______ ____

>  <TORSDO>
F 3

$$$$
=
 OpenBabel11112416463D

 31 35  0  0  1  0  0  0  0  0999 V2000
  184.9940  177.4300  146.5360 C   0  0  0  0  0  0  0  0  0  0  0  0
  187.1600  176.0400  143.7480 C   0  0  2  0  0  3  0  0  0  0  0  0
  186.6010  176.7040  142.4960 C   0  0  0  0  0  0  0  0  0  0  0  0
  184.8690  177.9500  141.3260 C   0  0  0  0  0  0  0  0  0  0  0  0
  186.7850  176.7570  145.0300 C   0  0  0  0  0  0  0  0  0  0  0  0
  185.8720  178.2740  147.2150 C   0  0  0  0  0  3  0  0  0  0  0  0
  185.3660  177.3710  142.4970 C   0  0  0  0  0  3  0  0  0  0  0  0
  189.4480  177.1030  143.7500 C   0  0  2  0  0  3  0  0  0  0  0  0
  183.6960  177.3540  146.9180 F   0  0  0  0  0  0  0  0  0  0  0  0
  188.5510  175.8860  141.2630 N   0  0  0  0  0  2  0  0  0  0  0  0
  183.5670  178.6660  141.3460 C   0  0  0  0  0  1  0  0  0  0  0  0
  189.4690  177.5590  145.5050 S   0  0  0  0  0  0  0  0  0  0  0  0
  188.6740  175.7880  143.6140 C   0  0  2  0  0  3  0  0  0  0  0  0
  185.4470  176.6820  145.4480 C   0  0  0  0  0  3  0  0  0  0  0  0
  185.5980  177.8590  140.1380 C   0  0  0  0  0  3  0  0  0  0  0  0
  187.6840  177.5800  145.7510 C   0  0  0  0  0  0  0  0  0  0  0  0
  187.2120  178.3390  146.8280 C   0  0  0  0  0  3  0  0  0  0  0  0
  188.9600  175.0890  142.3520 N   0  0  0  0  0  2  0  0  0  0  0  0
  187.3060  176.5840  141.2850 C   0  0  0  0  0  0  0  0  0  0  0  0
  186.8160  177.1760  140.1170 C   0  0  0  0  0  3  0  0  0  0  0  0
  190.8870  176.9580  143.2700 C   0  0  0  0  0  2  0  0  0  0  0  0
  192.8630  177.2250  144.6090 O   0  0  0  0  0  1  0  0  0  0  0  0
  191.7690  176.3870  144.3710 C   0  0  2  0  0  3  0  0  0  0  0  0
  194.6850  174.2410  145.3430 C   0  0  1  0  0  3  0  0  0  0  0  0
  192.1920  174.1830  145.2560 C   0  0  0  0  0  2  0  0  0  0  0  0
  193.4290  175.6760  142.1350 O   0  0  0  0  0  1  0  0  0  0  0  0
  195.7900  174.5410  146.1380 O   0  0  0  0  0  1  0  0  0  0  0  0
  193.4100  174.4710  146.1380 C   0  0  0  0  0  2  0  0  0  0  0  0
  193.4370  174.8660  143.2730 C   0  0  2  0  0  3  0  0  0  0  0  0
  192.1780  175.0090  144.0420 N   0  0  0  0  0  0  0  0  0  0  0  0
  194.6880  175.1330  144.1110 C   0  0  0  0  0  2  0  0  0  0  0  0
  1  9  1  0  0  0  0
  1  6  1  0  0  0  0
  2  3  1  6  0  0  0
  2  5  1  0  0  0  0
  3  7  1  0  0  0  0
  4 11  1  0  0  0  0
  4  7  2  0  0  0  0
  5 14  1  0  0  0  0
  5 16  2  0  0  0  0
  8 21  1  1  0  0  0
  8 12  1  0  0  0  0
 10 19  1  0  0  0  0
 10 18  1  0  0  0  0
 12 16  1  0  0  0  0
 13 18  1  6  0  0  0
 13  2  1  0  0  0  0
 13  8  1  0  0  0  0
 14  1  2  0  0  0  0
 15  4  1  0  0  0  0
 16 17  1  0  0  0  0
 17  6  2  0  0  0  0
 19  3  2  0  0  0  0
 20 15  2  0  0  0  0
 20 19  1  0  0  0  0
 21 23  1  0  0  0  0
 23 22  1  6  0  0  0
 24 27  1  1  0  0  0
 24 28  1  0  0  0  0
 25 28  1  0  0  0  0
 29 26  1  6  0  0  0
 29 30  1  0  0  0  0
 29 31  1  0  0  0  0
 30 23  1  0  0  0  0
 30 25  1  0  0  0  0
 31 24  1  0  0  0  0
M  END
>  <MODEL>
4

>  <REMARK>
 VINA RESULT:      -7.6      2.539      4.377
  Name = 
  3 active torsions:
  status: ('A' for Active; 'I' for Inactive)
    1  A    between atoms: C_5  and  C_16
    2  A    between atoms: C_5  and  N_30
    3  A    between atoms: C_10  and  C_16
                            x       y       z     vdW  Elec       q    Type
                         _______ _______ _______ _____ _____    ______ ____

>  <TORSDO>
F 3

$$$$
=
 OpenBabel11112416463D

 31 35  0  0  1  0  0  0  0  0999 V2000
  194.7470  175.4610  145.2600 C   0  0  0  0  0  0  0  0  0  0  0  0
  191.5120  175.3460  143.2810 C   0  0  2  0  0  3  0  0  0  0  0  0
  191.2000  173.8580  143.1920 C   0  0  0  0  0  0  0  0  0  0  0  0
  191.8420  171.5200  143.4000 C   0  0  0  0  0  0  0  0  0  0  0  0
  192.4850  175.6940  144.3910 C   0  0  0  0  0  0  0  0  0  0  0  0
  194.3400  175.9980  146.4810 C   0  0  0  0  0  3  0  0  0  0  0  0
  192.1520  172.8790  143.5140 C   0  0  0  0  0  3  0  0  0  0  0  0
  189.5480  176.0610  144.6950 C   0  0  2  0  0  3  0  0  0  0  0  0
  196.0320  175.0700  145.0860 F   0  0  0  0  0  0  0  0  0  0  0  0
  188.9750  174.4350  142.3500 N   0  0  0  0  0  2  0  0  0  0  0  0
  192.8570  170.4950  143.7570 C   0  0  0  0  0  1  0  0  0  0  0  0
  190.4890  177.0740  145.8690 S   0  0  0  0  0  0  0  0  0  0  0  0
  190.2190  176.1830  143.3240 C   0  0  2  0  0  3  0  0  0  0  0  0
  193.8240  175.3050  144.2260 C   0  0  0  0  0  3  0  0  0  0  0  0
  190.5790  171.1270  142.9520 C   0  0  0  0  0  3  0  0  0  0  0  0
  192.0870  176.2810  145.6170 C   0  0  0  0  0  0  0  0  0  0  0  0
  193.0190  176.4140  146.6520 C   0  0  0  0  0  3  0  0  0  0  0  0
  189.3280  175.7930  142.2200 N   0  0  0  0  0  2  0  0  0  0  0  0
  189.9450  173.4490  142.7050 C   0  0  0  0  0  0  0  0  0  0  0  0
  189.6300  172.0910  142.6050 C   0  0  0  0  0  3  0  0  0  0  0  0
  188.1100  176.5650  144.6620 C   0  0  0  0  0  2  0  0  0  0  0  0
  187.9550  175.5430  146.8300 O   0  0  0  0  0  1  0  0  0  0  0  0
  187.5300  176.6350  146.0680 C   0  0  2  0  0  3  0  0  0  0  0  0
  185.1660  179.2440  144.7820 C   0  0  1  0  0  3  0  0  0  0  0  0
  185.6090  176.7950  144.6190 C   0  0  0  0  0  2  0  0  0  0  0  0
  185.9130  177.7980  148.1400 O   0  0  0  0  0  1  0  0  0  0  0  0
  185.4310  180.4900  144.2150 O   0  0  0  0  0  1  0  0  0  0  0  0
  185.8630  178.1600  143.9760 C   0  0  0  0  0  2  0  0  0  0  0  0
  185.4560  177.8320  146.8210 C   0  0  2  0  0  3  0  0  0  0  0  0
  186.0610  176.7460  146.0150 N   0  0  0  0  0  0  0  0  0  0  0  0
  185.6710  179.2210  146.2160 C   0  0  0  0  0  2  0  0  0  0  0  0
  1  6  1  0  0  0  0
  2  3  1  1  0  0  0
  2 13  1  0  0  0  0
  2  5  1  0  0  0  0
  3  7  1  0  0  0  0
  4  7  2  0  0  0  0
  4 11  1  0  0  0  0
  5 16  2  0  0  0  0
  6 17  2  0  0  0  0
  8 21  1  6  0  0  0
  8 12  1  0  0  0  0
  9  1  1  0  0  0  0
 10 19  1  0  0  0  0
 13 18  1  6  0  0  0
 13  8  1  0  0  0  0
 14  5  1  0  0  0  0
 14  1  2  0  0  0  0
 15  4  1  0  0  0  0
 16 12  1  0  0  0  0
 16 17  1  0  0  0  0
 18 10  1  0  0  0  0
 19  3  2  0  0  0  0
 20 19  1  0  0  0  0
 20 15  2  0  0  0  0
 21 23  1  0  0  0  0
 23 22  1  1  0  0  0
 24 27  1  6  0  0  0
 24 31  1  0  0  0  0
 25 30  1  0  0  0  0
 28 25  1  0  0  0  0
 28 24  1  0  0  0  0
 29 26  1  1  0  0  0
 30 23  1  0  0  0  0
 30 29  1  0  0  0  0
 31 29  1  0  0  0  0
M  END
>  <MODEL>
5

>  <REMARK>
 VINA RESULT:      -7.6      3.865      7.708
  Name = 
  3 active torsions:
  status: ('A' for Active; 'I' for Inactive)
    1  A    between atoms: C_5  and  C_16
    2  A    between atoms: C_5  and  N_30
    3  A    between atoms: C_10  and  C_16
                            x       y       z     vdW  Elec       q    Type
                         _______ _______ _______ _____ _____    ______ ____

>  <TORSDO>
F 3

$$$$
=
 OpenBabel11112416463D

 31 35  0  0  1  0  0  0  0  0999 V2000
  186.5680  176.8890  142.6000 C   0  0  0  0  0  0  0  0  0  0  0  0
  188.8650  173.8760  142.3740 C   0  0  2  0  0  3  0  0  0  0  0  0
  189.0930  173.7120  140.8770 C   0  0  0  0  0  0  0  0  0  0  0  0
  188.5220  174.1880  138.5600 C   0  0  0  0  0  0  0  0  0  0  0  0
  188.3660  175.2550  142.7610 C   0  0  0  0  0  0  0  0  0  0  0  0
  187.4010  177.8680  143.1410 C   0  0  0  0  0  3  0  0  0  0  0  0
  188.3020  174.3780  139.9270 C   0  0  0  0  0  3  0  0  0  0  0  0
  191.2210  174.4690  143.0540 C   0  0  2  0  0  3  0  0  0  0  0  0
  185.3000  177.2000  142.2400 F   0  0  0  0  0  0  0  0  0  0  0  0
  190.8730  172.1100  141.3840 N   0  0  0  0  0  2  0  0  0  0  0  0
  187.6850  174.9110  137.5670 C   0  0  0  0  0  1  0  0  0  0  0  0
  190.7890  175.8810  144.1070 S   0  0  0  0  0  0  0  0  0  0  0  0
  190.1010  173.4300  143.1770 C   0  0  2  0  0  3  0  0  0  0  0  0
  187.0510  175.5940  142.4060 C   0  0  0  0  0  3  0  0  0  0  0  0
  189.5300  173.3230  138.1280 C   0  0  0  0  0  3  0  0  0  0  0  0
  189.1930  176.2420  143.3530 C   0  0  0  0  0  0  0  0  0  0  0  0
  188.7020  177.5410  143.5240 C   0  0  0  0  0  3  0  0  0  0  0  0
  190.5240  172.0880  142.7500 N   0  0  0  0  0  2  0  0  0  0  0  0
  190.0780  172.8140  140.4290 C   0  0  0  0  0  0  0  0  0  0  0  0
  190.3070  172.6350  139.0620 C   0  0  0  0  0  3  0  0  0  0  0  0
  192.5590  173.9070  143.5200 C   0  0  0  0  0  2  0  0  0  0  0  0
  194.0590  174.5800  141.7690 O   0  0  0  0  0  1  0  0  0  0  0  0
  193.7030  174.8190  143.1000 C   0  0  2  0  0  3  0  0  0  0  0  0
  194.5240  176.2510  146.4650 C   0  0  1  0  0  3  0  0  0  0  0  0
  194.4010  174.0600  145.2810 C   0  0  0  0  0  2  0  0  0  0  0  0
  196.0430  176.4880  143.0650 O   0  0  0  0  0  1  0  0  0  0  0  0
  193.8160  177.1660  147.2450 O   0  0  0  0  0  1  0  0  0  0  0  0
  193.6430  175.0480  146.1700 C   0  0  0  0  0  2  0  0  0  0  0  0
  195.6490  175.8930  144.2660 C   0  0  2  0  0  3  0  0  0  0  0  0
  194.8440  174.6730  144.0220 N   0  0  0  0  0  0  0  0  0  0  0  0
  194.9420  176.9120  145.1610 C   0  0  0  0  0  2  0  0  0  0  0  0
  1  6  1  0  0  0  0
  2  3  1  6  0  0  0
  2  5  1  0  0  0  0
  2 13  1  0  0  0  0
  4  7  1  0  0  0  0
  5 16  2  0  0  0  0
  6 17  2  0  0  0  0
  7  3  2  0  0  0  0
  8 13  1  0  0  0  0
  8 21  1  1  0  0  0
  8 12  1  0  0  0  0
  9  1  1  0  0  0  0
 10 18  1  0  0  0  0
 11  4  1  0  0  0  0
 13 18  1  6  0  0  0
 14  1  2  0  0  0  0
 14  5  1  0  0  0  0
 15  4  2  0  0  0  0
 15 20  1  0  0  0  0
 16 17  1  0  0  0  0
 16 12  1  0  0  0  0
 19  3  1  0  0  0  0
 19 10  1  0  0  0  0
 20 19  2  0  0  0  0
 23 22  1  6  0  0  0
 23 21  1  0  0  0  0
 23 30  1  0  0  0  0
 24 27  1  1  0  0  0
 25 28  1  0  0  0  0
 28 24  1  0  0  0  0
 29 26  1  6  0  0  0
 29 31  1  0  0  0  0
 30 29  1  0  0  0  0
 30 25  1  0  0  0  0
 31 24  1  0  0  0  0
M  END
>  <MODEL>
6

>  <REMARK>
 VINA RESULT:      -7.0      2.977      5.373
  Name = 
  3 active torsions:
  status: ('A' for Active; 'I' for Inactive)
    1  A    between atoms: C_5  and  C_16
    2  A    between atoms: C_5  and  N_30
    3  A    between atoms: C_10  and  C_16
                            x       y       z     vdW  Elec       q    Type
                         _______ _______ _______ _____ _____    ______ ____

>  <TORSDO>
F 3

$$$$
=
 OpenBabel11112416463D

 31 35  0  0  1  0  0  0  0  0999 V2000
  187.3180  177.4160  140.9940 C   0  0  0  0  0  0  0  0  0  0  0  0
  188.5060  174.0180  142.1920 C   0  0  2  0  0  3  0  0  0  0  0  0
  189.1310  173.3990  140.9480 C   0  0  0  0  0  0  0  0  0  0  0  0
  189.4980  173.3330  138.5440 C   0  0  0  0  0  0  0  0  0  0  0  0
  188.3680  175.5250  142.1110 C   0  0  0  0  0  0  0  0  0  0  0  0
  188.1990  178.2900  141.6290 C   0  0  0  0  0  3  0  0  0  0  0  0
  188.9290  173.9380  139.6680 C   0  0  0  0  0  3  0  0  0  0  0  0
  190.5890  174.2210  143.6010 C   0  0  2  0  0  3  0  0  0  0  0  0
  186.3920  177.8970  140.1300 F   0  0  0  0  0  0  0  0  0  0  0  0
  190.0660  171.6370  142.3670 N   0  0  0  0  0  2  0  0  0  0  0  0
  189.2860  173.9230  137.1960 C   0  0  0  0  0  1  0  0  0  0  0  0
  190.3120  175.9290  144.1450 S   0  0  0  0  0  0  0  0  0  0  0  0
  189.2220  173.5410  143.4690 C   0  0  2  0  0  3  0  0  0  0  0  0
  187.4070  176.0440  141.2300 C   0  0  0  0  0  3  0  0  0  0  0  0
  190.2660  172.1750  138.6860 C   0  0  0  0  0  3  0  0  0  0  0  0
  189.2310  176.4210  142.7900 C   0  0  0  0  0  0  0  0  0  0  0  0
  189.1430  177.7940  142.5300 C   0  0  0  0  0  3  0  0  0  0  0  0
  189.3160  172.0730  143.4780 N   0  0  0  0  0  2  0  0  0  0  0  0
  189.8740  172.2110  141.0740 C   0  0  0  0  0  0  0  0  0  0  0  0
  190.4540  171.6140  139.9510 C   0  0  0  0  0  3  0  0  0  0  0  0
  191.4660  173.5200  144.6320 C   0  0  0  0  0  2  0  0  0  0  0  0
  193.3390  172.6180  143.4280 O   0  0  0  0  0  1  0  0  0  0  0  0
  192.9380  173.6590  144.2720 C   0  0  2  0  0  3  0  0  0  0  0  0
  194.5850  176.4820  146.1070 C   0  0  1  0  0  3  0  0  0  0  0  0
  193.0720  174.5410  146.5130 C   0  0  0  0  0  2  0  0  0  0  0  0
  195.8040  173.4450  144.3140 O   0  0  0  0  0  1  0  0  0  0  0  0
  194.6360  177.8410  145.7970 O   0  0  0  0  0  1  0  0  0  0  0  0
  193.1340  176.0400  146.2140 C   0  0  0  0  0  2  0  0  0  0  0  0
  195.1630  174.1890  145.3070 C   0  0  2  0  0  3  0  0  0  0  0  0
  193.7620  173.7420  145.4920 N   0  0  0  0  0  0  0  0  0  0  0  0
  195.2840  175.6860  145.0160 C   0  0  0  0  0  2  0  0  0  0  0  0
  1 14  2  0  0  0  0
  1  6  1  0  0  0  0
  2  3  1  6  0  0  0
  2 13  1  0  0  0  0
  3 19  1  0  0  0  0
  4 15  2  0  0  0  0
  4  7  1  0  0  0  0
  5  2  1  0  0  0  0
  5 16  2  0  0  0  0
  6 17  2  0  0  0  0
  7  3  2  0  0  0  0
  8 12  1  0  0  0  0
  8 21  1  1  0  0  0
  9  1  1  0  0  0  0
 10 18  1  0  0  0  0
 11  4  1  0  0  0  0
 13 18  1  6  0  0  0
 13  8  1  0  0  0  0
 14  5  1  0  0  0  0
 15 20  1  0  0  0  0
 16 12  1  0  0  0  0
 17 16  1  0  0  0  0
 19 10  1  0  0  0  0
 20 19  2  0  0  0  0
 23 22  1  1  0  0  0
 23 21  1  0  0  0  0
 23 30  1  0  0  0  0
 24 27  1  6  0  0  0
 24 28  1  0  0  0  0
 28 25  1  0  0  0  0
 29 26  1  6  0  0  0
 29 30  1  0  0  0  0
 30 25  1  0  0  0  0
 31 29  1  0  0  0  0
 31 24  1  0  0  0  0
M  END
>  <MODEL>
7

>  <REMARK>
 VINA RESULT:      -7.0      3.083      5.194
  Name = 
  3 active torsions:
  status: ('A' for Active; 'I' for Inactive)
    1  A    between atoms: C_5  and  C_16
    2  A    between atoms: C_5  and  N_30
    3  A    between atoms: C_10  and  C_16
                            x       y       z     vdW  Elec       q    Type
                         _______ _______ _______ _____ _____    ______ ____

>  <TORSDO>
F 3

$$$$
=
 OpenBabel11112416463D

 31 35  0  0  1  0  0  0  0  0999 V2000
  187.4510  176.6060  140.6670 C   0  0  0  0  0  0  0  0  0  0  0  0
  189.5740  177.2660  143.7410 C   0  0  2  0  0  3  0  0  0  0  0  0
  188.5590  177.3050  144.8760 C   0  0  0  0  0  0  0  0  0  0  0  0
  186.2740  177.4570  145.6990 C   0  0  0  0  0  0  0  0  0  0  0  0
  189.0600  176.5750  142.4940 C   0  0  0  0  0  0  0  0  0  0  0  0
  187.7950  175.2970  140.3320 C   0  0  0  0  0  3  0  0  0  0  0  0
  187.1790  177.4000  144.6350 C   0  0  0  0  0  3  0  0  0  0  0  0
  190.8430  175.2000  144.4380 C   0  0  2  0  0  3  0  0  0  0  0  0
  186.4940  177.2560  139.9620 F   0  0  0  0  0  0  0  0  0  0  0  0
  190.4200  177.2460  146.4640 N   0  0  0  0  0  2  0  0  0  0  0  0
  184.8150  177.5440  145.4280 C   0  0  0  0  0  1  0  0  0  0  0  0
  190.8680  174.4060  142.8080 S   0  0  0  0  0  0  0  0  0  0  0  0
  190.9280  176.7140  144.2260 C   0  0  2  0  0  3  0  0  0  0  0  0
  188.0750  177.2370  141.7440 C   0  0  0  0  0  3  0  0  0  0  0  0
  186.7400  177.4280  147.0150 C   0  0  0  0  0  3  0  0  0  0  0  0
  189.4400  175.2620  142.1210 C   0  0  0  0  0  0  0  0  0  0  0  0
  188.7920  174.6350  141.0500 C   0  0  0  0  0  3  0  0  0  0  0  0
  191.3630  177.4330  145.4340 N   0  0  0  0  0  2  0  0  0  0  0  0
  189.0170  177.3170  146.2050 C   0  0  0  0  0  0  0  0  0  0  0  0
  188.1120  177.3590  147.2690 C   0  0  0  0  0  3  0  0  0  0  0  0
  192.0240  174.6800  145.2490 C   0  0  0  0  0  2  0  0  0  0  0  0
  193.9390  173.3150  144.7580 O   0  0  0  0  0  1  0  0  0  0  0  0
  193.2350  174.4550  144.3550 C   0  0  2  0  0  3  0  0  0  0  0  0
  196.7550  175.1220  143.2530 C   0  0  1  0  0  3  0  0  0  0  0  0
  194.4390  175.9930  142.9390 C   0  0  0  0  0  2  0  0  0  0  0  0
  194.9430  175.2910  146.5100 O   0  0  0  0  0  1  0  0  0  0  0  0
  197.7190  174.2450  142.7580 O   0  0  0  0  0  1  0  0  0  0  0  0
  195.5150  175.0620  142.3760 C   0  0  0  0  0  2  0  0  0  0  0  0
  195.2810  175.6380  145.2010 C   0  0  2  0  0  3  0  0  0  0  0  0
  194.0860  175.6590  144.3250 N   0  0  0  0  0  0  0  0  0  0  0  0
  196.3950  174.7300  144.6770 C   0  0  0  0  0  2  0  0  0  0  0  0
  1 14  1  0  0  0  0
  2  5  1  6  0  0  0
  2 13  1  0  0  0  0
  2  3  1  0  0  0  0
  3 19  1  0  0  0  0
  4 15  2  0  0  0  0
  6  1  2  0  0  0  0
  6 17  1  0  0  0  0
  7  3  2  0  0  0  0
  7  4  1  0  0  0  0
  8 21  1  1  0  0  0
  9  1  1  0  0  0  0
 11  4  1  0  0  0  0
 12  8  1  0  0  0  0
 13  8  1  0  0  0  0
 13 18  1  1  0  0  0
 14  5  2  0  0  0  0
 15 20  1  0  0  0  0
 16  5  1  0  0  0  0
 16 12  1  0  0  0  0
 17 16  2  0  0  0  0
 18 10  1  0  0  0  0
 19 10  1  0  0  0  0
 19 20  2  0  0  0  0
 23 22  1  1  0  0  0
 23 21  1  0  0  0  0
 24 27  1  6  0  0  0
 24 31  1  0  0  0  0
 25 30  1  0  0  0  0
 28 25  1  0  0  0  0
 28 24  1  0  0  0  0
 29 26  1  1  0  0  0
 30 23  1  0  0  0  0
 30 29  1  0  0  0  0
 31 29  1  0  0  0  0
M  END
>  <MODEL>
8

>  <REMARK>
 VINA RESULT:      -7.0      1.650      2.115
  Name = 
  3 active torsions:
  status: ('A' for Active; 'I' for Inactive)
    1  A    between atoms: C_5  and  C_16
    2  A    between atoms: C_5  and  N_30
    3  A    between atoms: C_10  and  C_16
                            x       y       z     vdW  Elec       q    Type
                         _______ _______ _______ _____ _____    ______ ____

>  <TORSDO>
F 3

$$$$
=
 OpenBabel11112416463D

 31 35  0  0  1  0  0  0  0  0999 V2000
  187.6030  177.3370  141.5970 C   0  0  0  0  0  0  0  0  0  0  0  0
  188.8950  174.2670  143.4130 C   0  0  2  0  0  3  0  0  0  0  0  0
  189.3130  173.3330  142.2850 C   0  0  0  0  0  0  0  0  0  0  0  0
  189.3090  172.6690  139.9430 C   0  0  0  0  0  0  0  0  0  0  0  0
  188.7750  175.7160  142.9840 C   0  0  0  0  0  0  0  0  0  0  0  0
  188.5860  178.2880  141.8650 C   0  0  0  0  0  3  0  0  0  0  0  0
  188.9290  173.5580  140.9530 C   0  0  0  0  0  3  0  0  0  0  0  0
  191.1710  174.6880  144.4170 C   0  0  2  0  0  3  0  0  0  0  0  0
  186.5650  177.6460  140.7820 F   0  0  0  0  0  0  0  0  0  0  0  0
  190.4190  171.9160  143.9460 N   0  0  0  0  0  2  0  0  0  0  0  0
  188.9060  172.9290  138.5370 C   0  0  0  0  0  1  0  0  0  0  0  0
  191.0120  176.4890  144.5570 S   0  0  0  0  0  0  0  0  0  0  0  0
  189.7880  174.0730  144.6530 C   0  0  2  0  0  3  0  0  0  0  0  0
  187.7010  176.0590  142.1480 C   0  0  0  0  0  3  0  0  0  0  0  0
  190.0690  171.5400  140.2560 C   0  0  0  0  0  3  0  0  0  0  0  0
  189.7470  176.7000  143.2910 C   0  0  0  0  0  0  0  0  0  0  0  0
  189.6460  177.9720  142.7160 C   0  0  0  0  0  3  0  0  0  0  0  0
  189.8550  172.6470  145.0100 N   0  0  0  0  0  2  0  0  0  0  0  0
  190.0430  172.1710  142.5920 C   0  0  0  0  0  0  0  0  0  0  0  0
  190.4360  171.2900  141.5800 C   0  0  0  0  0  3  0  0  0  0  0  0
  192.1810  174.2090  145.4530 C   0  0  0  0  0  2  0  0  0  0  0  0
  193.4450  172.3220  144.6710 O   0  0  0  0  0  1  0  0  0  0  0  0
  193.4540  173.7160  144.7790 C   0  0  2  0  0  3  0  0  0  0  0  0
  196.2030  176.1030  143.8880 C   0  0  1  0  0  3  0  0  0  0  0  0
  194.5370  175.6680  145.6930 C   0  0  0  0  0  2  0  0  0  0  0  0
  196.0400  172.4650  144.7020 O   0  0  0  0  0  1  0  0  0  0  0  0
  196.4400  176.7900  142.6980 O   0  0  0  0  0  1  0  0  0  0  0  0
  194.8180  176.4510  144.4080 C   0  0  0  0  0  2  0  0  0  0  0  0
  195.9570  173.8420  144.9180 C   0  0  2  0  0  3  0  0  0  0  0  0
  194.6430  174.2170  145.4920 N   0  0  0  0  0  0  0  0  0  0  0  0
  196.2940  174.6060  143.6360 C   0  0  0  0  0  2  0  0  0  0  0  0
  1  6  2  0  0  0  0
  1 14  1  0  0  0  0
  2  3  1  6  0  0  0
  2 13  1  0  0  0  0
  3 19  1  0  0  0  0
  4 15  2  0  0  0  0
  4  7  1  0  0  0  0
  5 16  1  0  0  0  0
  5  2  1  0  0  0  0
  6 17  1  0  0  0  0
  7  3  2  0  0  0  0
  8 12  1  0  0  0  0
  8 13  1  0  0  0  0
  8 21  1  1  0  0  0
  9  1  1  0  0  0  0
 10 18  1  0  0  0  0
 11  4  1  0  0  0  0
 13 18  1  6  0  0  0
 14  5  2  0  0  0  0
 15 20  1  0  0  0  0
 16 12  1  0  0  0  0
 17 16  2  0  0  0  0
 19 10  1  0  0  0  0
 20 19  2  0  0  0  0
 23 22  1  1  0  0  0
 23 21  1  0  0  0  0
 23 30  1  0  0  0  0
 24 27  1  6  0  0  0
 24 28  1  0  0  0  0
 28 25  1  0  0  0  0
 29 26  1  6  0  0  0
 29 30  1  0  0  0  0
 30 25  1  0  0  0  0
 31 24  1  0  0  0  0
 31 29  1  0  0  0  0
M  END
>  <MODEL>
9

>  <REMARK>
 VINA RESULT:      -6.9      2.917      4.764
  Name = 
  3 active torsions:
  status: ('A' for Active; 'I' for Inactive)
    1  A    between atoms: C_5  and  C_16
    2  A    between atoms: C_5  and  N_30
    3  A    between atoms: C_10  and  C_16
                            x       y       z     vdW  Elec       q    Type
                         _______ _______ _______ _____ _____    ______ ____

>  <TORSDO>
F 3

$$$$
