=
 OpenBabel11112417583D

 34 40  0  0  1  0  0  0  0  0999 V2000
  185.9140  178.7060  145.6010 C   0  0  0  0  0  0  0  0  0  0  0  0
  183.6820  179.0620  144.7080 N   0  0  0  0  0  2  0  0  0  0  0  0
  189.5180  174.1570  145.9500 C   0  0  0  0  0  2  0  0  0  0  0  0
  188.0690  177.8780  146.4050 C   0  0  0  0  0  0  0  0  0  0  0  0
  189.6820  176.9540  144.7730 C   0  0  0  0  0  0  0  0  0  0  0  0
  190.8240  174.9050  143.9130 C   0  0  0  0  0  2  0  0  0  0  0  0
  190.7020  173.8650  145.0280 C   0  0  0  0  0  2  0  0  0  0  0  0
  190.9750  175.7550  147.2910 C   0  0  0  0  0  2  0  0  0  0  0  0
  185.4620  178.8570  143.1720 C   0  0  1  0  0  3  0  0  0  0  0  0
  185.1540  178.4460  140.2580 C   0  0  0  0  0  2  0  0  0  0  0  0
  188.8040  177.1460  143.8350 N   0  0  0  0  0  0  0  0  0  0  0  0
  190.3270  177.1400  147.2320 C   0  0  0  0  0  2  0  0  0  0  0  0
  186.5970  177.9390  142.9860 N   0  0  2  0  0  0  0  0  0  0  0  0
  183.0680  178.8370  143.4660 N   0  0  0  0  0  2  0  0  0  0  0  0
  189.3610  177.2980  146.1370 N   0  0  0  0  0  0  0  0  0  0  0  0
  189.9760  174.6010  147.3410 C   0  0  0  0  0  2  0  0  0  0  0  0
  183.9240  178.6890  141.1460 C   0  0  2  0  0  3  0  0  0  0  0  0
  187.1840  178.1380  145.3360 C   0  0  0  0  0  0  0  0  0  0  0  0
  190.8880  176.2520  144.4660 N   0  0  0  0  0  2  0  0  0  0  0  0
  187.5270  177.7630  144.0800 C   0  0  1  0  0  3  0  0  0  0  0  0
  186.3870  178.6550  147.9800 C   0  0  0  0  0  3  0  0  0  0  0  0
  185.9690  177.2270  140.6790 C   0  0  0  0  0  2  0  0  0  0  0  0
  187.6590  178.1430  147.7210 C   0  0  0  0  0  3  0  0  0  0  0  0
  187.0810  177.6540  141.6320 C   0  0  0  0  0  2  0  0  0  0  0  0
  184.1480  178.3150  142.6120 C   0  0  1  0  0  3  0  0  0  0  0  0
  185.5150  178.9290  146.9260 C   0  0  0  0  0  3  0  0  0  0  0  0
  185.0850  178.9840  144.5880 C   0  0  2  0  0  3  0  0  0  0  0  0
  182.7320  177.9180  140.6000 C   0  0  0  0  0  2  0  0  0  0  0  0
  181.5820  178.7980  140.4730 N   0  0  0  0  0  2  0  0  0  0  0  0
  178.4860  179.2210  141.6010 O   0  0  0  0  0  0  0  0  0  0  0  0
  179.3770  177.9700  139.9930 C   0  0  0  0  0  3  0  0  0  0  0  0
  180.4400  178.0950  141.0320 C   0  0  2  0  0  3  0  0  0  0  0  0
  178.2960  178.6270  140.3690 C   0  0  0  0  0  3  0  0  0  0  0  0
  179.7800  178.9540  142.1100 C   0  0  0  0  0  2  0  0  0  0  0  0
  1 26  1  0  0  0  0
  3 16  1  0  0  0  0
  4 23  2  0  0  0  0
  5 15  1  0  0  0  0
  6 19  1  0  0  0  0
  6  7  1  0  0  0  0
  7  3  1  0  0  0  0
  8 16  1  0  0  0  0
  9 27  1  0  0  0  0
 10 22  1  0  0  0  0
 10 17  1  0  0  0  0
 11 20  1  0  0  0  0
 11  5  2  0  0  0  0
 12  8  1  0  0  0  0
 13  9  1  0  0  0  0
 13 20  1  0  0  0  0
 14  2  1  0  0  0  0
 15  4  1  0  0  0  0
 15 12  1  0  0  0  0
 17 25  1  0  0  0  0
 18  1  2  0  0  0  0
 18  4  1  0  0  0  0
 19  5  1  0  0  0  0
 20 18  1  0  0  0  0
 22 24  1  0  0  0  0
 23 21  1  0  0  0  0
 24 13  1  0  0  0  0
 25  9  1  0  0  0  0
 25 14  1  0  0  0  0
 26 21  2  0  0  0  0
 27  2  1  0  0  0  0
 27  1  1  0  0  0  0
 28 17  1  0  0  0  0
 29 28  1  0  0  0  0
 29 32  1  0  0  0  0
 30 34  1  0  0  0  0
 31 33  2  0  0  0  0
 31 32  1  0  0  0  0
 32 34  1  0  0  0  0
 33 30  1  0  0  0  0
M  END
>  <MODEL>
1

>  <REMARK>
 VINA RESULT:      -9.0      0.000      0.000
  Name = 
  3 active torsions:
  status: ('A' for Active; 'I' for Inactive)
    1  A    between atoms: C_17  and  C_28
    2  A    between atoms: C_28  and  N_29
    3  A    between atoms: N_29  and  C_32
                            x       y       z     vdW  Elec       q    Type
                         _______ _______ _______ _____ _____    ______ ____

>  <TORSDO>
F 3

$$$$
=
 OpenBabel11112417583D

 34 40  0  0  1  0  0  0  0  0999 V2000
  190.8290  176.4460  146.4480 C   0  0  0  0  0  0  0  0  0  0  0  0
  193.1720  176.5750  147.0780 N   0  0  0  0  0  2  0  0  0  0  0  0
  187.7050  178.2180  141.8750 C   0  0  0  0  0  2  0  0  0  0  0  0
  188.6050  176.6090  145.4470 C   0  0  0  0  0  0  0  0  0  0  0  0
  188.1990  175.5530  143.2480 C   0  0  0  0  0  0  0  0  0  0  0  0
  187.7620  175.9190  140.8160 C   0  0  0  0  0  2  0  0  0  0  0  0
  187.2480  177.3550  140.7000 C   0  0  0  0  0  2  0  0  0  0  0  0
  185.7280  177.3810  143.2410 C   0  0  0  0  0  2  0  0  0  0  0  0
  192.5660  175.0270  145.4020 C   0  0  1  0  0  3  0  0  0  0  0  0
  194.4650  173.6240  143.6180 C   0  0  0  0  0  2  0  0  0  0  0  0
  189.4500  175.2050  143.2140 N   0  0  0  0  0  0  0  0  0  0  0  0
  186.2810  176.6850  144.4870 C   0  0  0  0  0  2  0  0  0  0  0  0
  191.7440  175.0580  144.1830 N   0  0  2  0  0  0  0  0  0  0  0  0
  194.3820  176.2090  146.4660 N   0  0  0  0  0  2  0  0  0  0  0  0
  187.6940  176.3000  144.3740 N   0  0  0  0  0  0  0  0  0  0  0  0
  186.5400  178.5950  142.7930 C   0  0  0  0  0  2  0  0  0  0  0  0
  194.9800  174.5170  144.7570 C   0  0  2  0  0  3  0  0  0  0  0  0
  189.9350  176.1380  145.3940 C   0  0  0  0  0  0  0  0  0  0  0  0
  187.3830  175.3350  142.0960 N   0  0  0  0  0  2  0  0  0  0  0  0
  190.3610  175.4700  144.2960 C   0  0  1  0  0  3  0  0  0  0  0  0
  189.1010  177.7590  147.5320 C   0  0  0  0  0  3  0  0  0  0  0  0
  193.5680  174.3640  142.6300 C   0  0  0  0  0  2  0  0  0  0  0  0
  188.2010  177.4170  146.5220 C   0  0  0  0  0  3  0  0  0  0  0  0
  192.1080  174.2100  143.0450 C   0  0  0  0  0  2  0  0  0  0  0  0
  193.9750  175.5840  145.1960 C   0  0  1  0  0  3  0  0  0  0  0  0
  190.4110  177.2820  147.4920 C   0  0  0  0  0  3  0  0  0  0  0  0
  192.0810  175.9750  146.4170 C   0  0  2  0  0  3  0  0  0  0  0  0
  196.2810  175.1860  144.3400 C   0  0  0  0  0  2  0  0  0  0  0  0
  196.0100  176.5000  143.7790 N   0  0  0  0  0  2  0  0  0  0  0  0
  197.5020  174.9820  141.2270 O   0  0  0  0  0  0  0  0  0  0  0  0
  196.2100  176.7840  141.4000 C   0  0  0  0  0  3  0  0  0  0  0  0
  196.9520  176.7040  142.6910 C   0  0  2  0  0  3  0  0  0  0  0  0
  196.5610  175.7850  140.6130 C   0  0  0  0  0  3  0  0  0  0  0  0
  197.8230  175.4600  142.5210 C   0  0  0  0  0  2  0  0  0  0  0  0
  1 26  1  0  0  0  0
  3 16  1  0  0  0  0
  4 23  2  0  0  0  0
  5 15  1  0  0  0  0
  6 19  1  0  0  0  0
  7  6  1  0  0  0  0
  7  3  1  0  0  0  0
  8 12  1  0  0  0  0
  9 27  1  0  0  0  0
 10 17  1  0  0  0  0
 11  5  2  0  0  0  0
 11 20  1  0  0  0  0
 13 20  1  0  0  0  0
 13  9  1  0  0  0  0
 14  2  1  0  0  0  0
 15 12  1  0  0  0  0
 15  4  1  0  0  0  0
 16  8  1  0  0  0  0
 17 25  1  0  0  0  0
 18  4  1  0  0  0  0
 18  1  2  0  0  0  0
 19  5  1  0  0  0  0
 20 18  1  0  0  0  0
 22 24  1  0  0  0  0
 22 10  1  0  0  0  0
 23 21  1  0  0  0  0
 24 13  1  0  0  0  0
 25  9  1  0  0  0  0
 25 14  1  0  0  0  0
 26 21  2  0  0  0  0
 27  1  1  0  0  0  0
 27  2  1  0  0  0  0
 28 17  1  0  0  0  0
 29 28  1  0  0  0  0
 30 34  1  0  0  0  0
 31 32  1  0  0  0  0
 32 29  1  0  0  0  0
 33 30  1  0  0  0  0
 33 31  2  0  0  0  0
 34 32  1  0  0  0  0
M  END
>  <MODEL>
2

>  <REMARK>
 VINA RESULT:      -8.5      4.778      9.867
  Name = 
  3 active torsions:
  status: ('A' for Active; 'I' for Inactive)
    1  A    between atoms: C_17  and  C_28
    2  A    between atoms: C_28  and  N_29
    3  A    between atoms: N_29  and  C_32
                            x       y       z     vdW  Elec       q    Type
                         _______ _______ _______ _____ _____    ______ ____

>  <TORSDO>
F 3

$$$$
=
 OpenBabel11112417583D

 34 40  0  0  1  0  0  0  0  0999 V2000
  192.0100  176.2120  145.2080 C   0  0  0  0  0  0  0  0  0  0  0  0
  190.0610  177.4420  145.9770 N   0  0  0  0  0  2  0  0  0  0  0  0
  193.2710  170.5900  144.4260 C   0  0  0  0  0  2  0  0  0  0  0  0
  193.7180  174.5820  144.5710 C   0  0  0  0  0  0  0  0  0  0  0  0
  193.2780  173.0670  142.6660 C   0  0  0  0  0  0  0  0  0  0  0  0
  192.8010  170.7250  141.9410 C   0  0  0  0  0  2  0  0  0  0  0  0
  193.2560  169.8340  143.0980 C   0  0  0  0  0  2  0  0  0  0  0  0
  195.6000  171.4630  143.8850 C   0  0  0  0  0  2  0  0  0  0  0  0
  189.9930  176.5160  143.8060 C   0  0  1  0  0  3  0  0  0  0  0  0
  187.5560  176.2470  142.1500 C   0  0  0  0  0  2  0  0  0  0  0  0
  192.0960  173.5950  142.5530 N   0  0  0  0  0  0  0  0  0  0  0  0
  195.5300  172.9920  143.8560 C   0  0  0  0  0  2  0  0  0  0  0  0
  190.3140  175.2140  143.2030 N   0  0  2  0  0  0  0  0  0  0  0  0
  188.7070  177.4790  145.6070 N   0  0  0  0  0  2  0  0  0  0  0  0
  194.1690  173.5220  143.7050 N   0  0  0  0  0  0  0  0  0  0  0  0
  194.6960  170.8190  144.9340 C   0  0  0  0  0  2  0  0  0  0  0  0
  187.5030  176.9780  143.5000 C   0  0  2  0  0  3  0  0  0  0  0  0
  192.4540  175.1730  144.3540 C   0  0  0  0  0  0  0  0  0  0  0  0
  193.6140  171.9320  141.8670 N   0  0  0  0  0  2  0  0  0  0  0  0
  191.6470  174.6820  143.3820 C   0  0  1  0  0  3  0  0  0  0  0  0
  194.0320  175.9900  146.5300 C   0  0  0  0  0  3  0  0  0  0  0  0
  188.0390  174.8040  142.2640 C   0  0  0  0  0  2  0  0  0  0  0  0
  194.4960  175.0000  145.6620 C   0  0  0  0  0  3  0  0  0  0  0  0
  189.5480  174.7470  142.0440 C   0  0  0  0  0  2  0  0  0  0  0  0
  188.6140  176.5550  144.4650 C   0  0  1  0  0  3  0  0  0  0  0  0
  192.7920  176.5880  146.3080 C   0  0  0  0  0  3  0  0  0  0  0  0
  190.8280  176.7970  144.9850 C   0  0  2  0  0  3  0  0  0  0  0  0
  186.1490  176.7560  144.1560 C   0  0  0  0  0  2  0  0  0  0  0  0
  185.4710  178.0290  144.3440 N   0  0  0  0  0  2  0  0  0  0  0  0
  185.8820  177.1760  147.5290 O   0  0  0  0  0  0  0  0  0  0  0  0
  185.3030  179.0650  146.5070 C   0  0  0  0  0  3  0  0  0  0  0  0
  184.7970  177.9690  145.6300 C   0  0  2  0  0  3  0  0  0  0  0  0
  185.9070  178.5560  147.5640 C   0  0  0  0  0  3  0  0  0  0  0  0
  185.2140  176.7010  146.3740 C   0  0  0  0  0  2  0  0  0  0  0  0
  1 26  1  0  0  0  0
  3 16  1  0  0  0  0
  4 23  2  0  0  0  0
  5 15  1  0  0  0  0
  6  7  1  0  0  0  0
  7  3  1  0  0  0  0
  8 16  1  0  0  0  0
  9 25  1  0  0  0  0
  9 27  1  0  0  0  0
 10 22  1  0  0  0  0
 10 17  1  0  0  0  0
 11  5  2  0  0  0  0
 11 20  1  0  0  0  0
 12  8  1  0  0  0  0
 13 20  1  0  0  0  0
 13  9  1  0  0  0  0
 14  2  1  0  0  0  0
 15 12  1  0  0  0  0
 15  4  1  0  0  0  0
 17 28  1  0  0  0  0
 17 25  1  0  0  0  0
 18  4  1  0  0  0  0
 18  1  2  0  0  0  0
 19  6  1  0  0  0  0
 19  5  1  0  0  0  0
 20 18  1  0  0  0  0
 23 21  1  0  0  0  0
 24 22  1  0  0  0  0
 24 13  1  0  0  0  0
 25 14  1  0  0  0  0
 26 21  2  0  0  0  0
 27  1  1  0  0  0  0
 27  2  1  0  0  0  0
 28 29  1  0  0  0  0
 29 32  1  0  0  0  0
 30 33  1  0  0  0  0
 31 33  2  0  0  0  0
 32 34  1  0  0  0  0
 32 31  1  0  0  0  0
 34 30  1  0  0  0  0
M  END
>  <MODEL>
3

>  <REMARK>
 VINA RESULT:      -8.3      3.805      6.406
  Name = 
  3 active torsions:
  status: ('A' for Active; 'I' for Inactive)
    1  A    between atoms: C_17  and  C_28
    2  A    between atoms: C_28  and  N_29
    3  A    between atoms: N_29  and  C_32
                            x       y       z     vdW  Elec       q    Type
                         _______ _______ _______ _____ _____    ______ ____

>  <TORSDO>
F 3

$$$$
=
 OpenBabel11112417583D

 34 40  0  0  1  0  0  0  0  0999 V2000
  189.7860  176.5310  146.1730 C   0  0  0  0  0  0  0  0  0  0  0  0
  187.3650  176.6750  146.3040 N   0  0  0  0  0  2  0  0  0  0  0  0
  193.5480  173.5260  142.9130 C   0  0  0  0  0  2  0  0  0  0  0  0
  192.1360  176.0170  145.7330 C   0  0  0  0  0  0  0  0  0  0  0  0
  193.0610  176.4700  143.4840 C   0  0  0  0  0  0  0  0  0  0  0  0
  193.9230  175.4880  141.3560 C   0  0  0  0  0  2  0  0  0  0  0  0
  194.3070  174.0460  141.6920 C   0  0  0  0  0  2  0  0  0  0  0  0
  195.2960  174.5830  144.4310 C   0  0  0  0  0  2  0  0  0  0  0  0
  188.4320  177.7240  144.4790 C   0  0  1  0  0  3  0  0  0  0  0  0
  187.0620  178.7250  142.0550 C   0  0  0  0  0  2  0  0  0  0  0  0
  191.8810  176.8570  143.1050 N   0  0  0  0  0  0  0  0  0  0  0  0
  194.5820  175.5940  145.3320 C   0  0  0  0  0  2  0  0  0  0  0  0
  189.4680  177.3500  143.5050 N   0  0  2  0  0  0  0  0  0  0  0  0
  186.3390  176.9330  145.3810 N   0  0  0  0  0  2  0  0  0  0  0  0
  193.2630  176.0050  144.8350 N   0  0  0  0  0  0  0  0  0  0  0  0
  194.4720  173.3360  144.1180 C   0  0  0  0  0  2  0  0  0  0  0  0
  186.2510  178.1700  143.2360 C   0  0  2  0  0  3  0  0  0  0  0  0
  190.8940  176.5230  145.2910 C   0  0  0  0  0  0  0  0  0  0  0  0
  194.1030  176.3540  142.5140 N   0  0  0  0  0  2  0  0  0  0  0  0
  190.7560  176.9150  144.0010 C   0  0  1  0  0  3  0  0  0  0  0  0
  191.1350  175.4510  147.8760 C   0  0  0  0  0  3  0  0  0  0  0  0
  188.0570  177.7200  141.4810 C   0  0  0  0  0  2  0  0  0  0  0  0
  192.2430  175.4860  147.0280 C   0  0  0  0  0  3  0  0  0  0  0  0
  189.4170  177.9030  142.1480 C   0  0  0  0  0  2  0  0  0  0  0  0
  187.0430  177.2010  144.1160 C   0  0  1  0  0  3  0  0  0  0  0  0
  189.9100  175.9640  147.4480 C   0  0  0  0  0  3  0  0  0  0  0  0
  188.6170  177.0380  145.7670 C   0  0  2  0  0  3  0  0  0  0  0  0
  184.9960  177.4810  142.7220 C   0  0  0  0  0  2  0  0  0  0  0  0
  183.8150  178.2250  143.1280 N   0  0  0  0  0  2  0  0  0  0  0  0
  182.5260  177.7180  140.1080 O   0  0  0  0  0  0  0  0  0  0  0  0
  181.8230  178.8070  141.9150 C   0  0  0  0  0  3  0  0  0  0  0  0
  183.3110  178.9060  141.9470 C   0  0  2  0  0  3  0  0  0  0  0  0
  181.4370  178.1250  140.8540 C   0  0  0  0  0  3  0  0  0  0  0  0
  183.7420  178.1510  140.6910 C   0  0  0  0  0  2  0  0  0  0  0  0
  1 26  1  0  0  0  0
  3 16  1  0  0  0  0
  4 23  2  0  0  0  0
  5 15  1  0  0  0  0
  6  7  1  0  0  0  0
  6 19  1  0  0  0  0
  7  3  1  0  0  0  0
  8 12  1  0  0  0  0
  9 27  1  0  0  0  0
 10 17  1  0  0  0  0
 11  5  2  0  0  0  0
 11 20  1  0  0  0  0
 13 20  1  0  0  0  0
 13  9  1  0  0  0  0
 14  2  1  0  0  0  0
 15 12  1  0  0  0  0
 15  4  1  0  0  0  0
 16  8  1  0  0  0  0
 17 25  1  0  0  0  0
 18  4  1  0  0  0  0
 18  1  2  0  0  0  0
 19  5  1  0  0  0  0
 20 18  1  0  0  0  0
 22 10  1  0  0  0  0
 22 24  1  0  0  0  0
 23 21  1  0  0  0  0
 24 13  1  0  0  0  0
 25  9  1  0  0  0  0
 25 14  1  0  0  0  0
 26 21  2  0  0  0  0
 27  1  1  0  0  0  0
 27  2  1  0  0  0  0
 28 29  1  0  0  0  0
 28 17  1  0  0  0  0
 30 34  1  0  0  0  0
 30 33  1  0  0  0  0
 31 32  1  0  0  0  0
 32 29  1  0  0  0  0
 33 31  2  0  0  0  0
 34 32  1  0  0  0  0
M  END
>  <MODEL>
4

>  <REMARK>
 VINA RESULT:      -8.3      2.386      4.112
  Name = 
  3 active torsions:
  status: ('A' for Active; 'I' for Inactive)
    1  A    between atoms: C_17  and  C_28
    2  A    between atoms: C_28  and  N_29
    3  A    between atoms: N_29  and  C_32
                            x       y       z     vdW  Elec       q    Type
                         _______ _______ _______ _____ _____    ______ ____

>  <TORSDO>
F 3

$$$$
=
 OpenBabel11112417583D

 34 40  0  0  1  0  0  0  0  0999 V2000
  187.7640  177.5860  145.2480 C   0  0  0  0  0  0  0  0  0  0  0  0
  185.4010  178.1520  145.2680 N   0  0  0  0  0  2  0  0  0  0  0  0
  190.8760  173.0190  143.4410 C   0  0  0  0  0  2  0  0  0  0  0  0
  189.9850  176.5790  145.0810 C   0  0  0  0  0  0  0  0  0  0  0  0
  190.8730  175.9990  142.8460 C   0  0  0  0  0  0  0  0  0  0  0  0
  191.4830  174.1640  141.2650 C   0  0  0  0  0  2  0  0  0  0  0  0
  191.6530  172.9140  142.1290 C   0  0  0  0  0  2  0  0  0  0  0  0
  192.8290  174.2780  144.4790 C   0  0  0  0  0  2  0  0  0  0  0  0
  186.5400  178.2530  143.2020 C   0  0  1  0  0  3  0  0  0  0  0  0
  185.2390  178.4720  140.5540 C   0  0  0  0  0  2  0  0  0  0  0  0
  189.7520  176.3970  142.3260 N   0  0  0  0  0  0  0  0  0  0  0  0
  192.3180  175.6530  144.9180 C   0  0  0  0  0  2  0  0  0  0  0  0
  187.4640  177.3810  142.4620 N   0  0  2  0  0  0  0  0  0  0  0  0
  184.3890  178.2040  144.2960 N   0  0  0  0  0  2  0  0  0  0  0  0
  191.0580  176.0510  144.2760 N   0  0  0  0  0  0  0  0  0  0  0  0
  191.8090  173.1530  144.6460 C   0  0  0  0  0  2  0  0  0  0  0  0
  184.4030  178.5390  141.8410 C   0  0  2  0  0  3  0  0  0  0  0  0
  188.8190  177.0710  144.4560 C   0  0  0  0  0  0  0  0  0  0  0  0
  191.8430  175.3620  142.0120 N   0  0  0  0  0  2  0  0  0  0  0  0
  188.6880  176.9660  143.1110 C   0  0  1  0  0  3  0  0  0  0  0  0
  189.0000  177.0270  147.2590 C   0  0  0  0  0  3  0  0  0  0  0  0
  186.0420  177.1810  140.4220 C   0  0  0  0  0  2  0  0  0  0  0  0
  190.0630  176.5650  146.4820 C   0  0  0  0  0  3  0  0  0  0  0  0
  187.4400  177.3830  140.9970 C   0  0  0  0  0  2  0  0  0  0  0  0
  185.0720  177.8600  143.0370 C   0  0  1  0  0  3  0  0  0  0  0  0
  187.8530  177.5300  146.6450 C   0  0  0  0  0  3  0  0  0  0  0  0
  186.6710  178.0830  144.6580 C   0  0  2  0  0  3  0  0  0  0  0  0
  183.0360  177.9160  141.6010 C   0  0  0  0  0  2  0  0  0  0  0  0
  181.9890  178.8850  141.8810 N   0  0  0  0  0  2  0  0  0  0  0  0
  178.6830  178.8520  141.5570 O   0  0  0  0  0  0  0  0  0  0  0  0
  180.3170  179.9410  140.5130 C   0  0  0  0  0  3  0  0  0  0  0  0
  180.9140  178.6400  140.9340 C   0  0  2  0  0  3  0  0  0  0  0  0
  179.0550  180.0040  140.8930 C   0  0  0  0  0  3  0  0  0  0  0  0
  179.7570  177.9320  141.6380 C   0  0  0  0  0  2  0  0  0  0  0  0
  1 26  1  0  0  0  0
  3 16  1  0  0  0  0
  4 23  2  0  0  0  0
  5 15  1  0  0  0  0
  6 19  1  0  0  0  0
  6  7  1  0  0  0  0
  7  3  1  0  0  0  0
  8 16  1  0  0  0  0
  8 12  1  0  0  0  0
  9 27  1  0  0  0  0
 10 17  1  0  0  0  0
 11  5  2  0  0  0  0
 11 20  1  0  0  0  0
 13 20  1  0  0  0  0
 13  9  1  0  0  0  0
 14  2  1  0  0  0  0
 15 12  1  0  0  0  0
 15  4  1  0  0  0  0
 17 25  1  0  0  0  0
 18  4  1  0  0  0  0
 18  1  2  0  0  0  0
 19  5  1  0  0  0  0
 20 18  1  0  0  0  0
 22 10  1  0  0  0  0
 22 24  1  0  0  0  0
 23 21  1  0  0  0  0
 24 13  1  0  0  0  0
 25  9  1  0  0  0  0
 25 14  1  0  0  0  0
 26 21  2  0  0  0  0
 27  1  1  0  0  0  0
 27  2  1  0  0  0  0
 28 17  1  0  0  0  0
 28 29  1  0  0  0  0
 30 34  1  0  0  0  0
 31 33  2  0  0  0  0
 31 32  1  0  0  0  0
 32 34  1  0  0  0  0
 32 29  1  0  0  0  0
 33 30  1  0  0  0  0
M  END
>  <MODEL>
5

>  <REMARK>
 VINA RESULT:      -8.2      1.477      2.212
  Name = 
  3 active torsions:
  status: ('A' for Active; 'I' for Inactive)
    1  A    between atoms: C_17  and  C_28
    2  A    between atoms: C_28  and  N_29
    3  A    between atoms: N_29  and  C_32
                            x       y       z     vdW  Elec       q    Type
                         _______ _______ _______ _____ _____    ______ ____

>  <TORSDO>
F 3

$$$$
=
 OpenBabel11112417583D

 34 40  0  0  1  0  0  0  0  0999 V2000
  194.3630  175.4010  145.4630 C   0  0  0  0  0  0  0  0  0  0  0  0
  192.5930  175.4570  147.1260 N   0  0  0  0  0  2  0  0  0  0  0  0
  195.0460  172.8540  140.2810 C   0  0  0  0  0  2  0  0  0  0  0  0
  195.8650  175.0060  143.5750 C   0  0  0  0  0  0  0  0  0  0  0  0
  195.1570  175.7100  141.3120 C   0  0  0  0  0  0  0  0  0  0  0  0
  194.4190  174.9720  139.0430 C   0  0  0  0  0  2  0  0  0  0  0  0
  194.8690  173.5160  138.9150 C   0  0  0  0  0  2  0  0  0  0  0  0
  197.4020  173.8070  140.4220 C   0  0  0  0  0  2  0  0  0  0  0  0
  192.2890  176.7160  145.1530 C   0  0  1  0  0  3  0  0  0  0  0  0
  189.7280  177.9120  144.2780 C   0  0  0  0  0  2  0  0  0  0  0  0
  194.0230  176.0970  141.8150 N   0  0  0  0  0  0  0  0  0  0  0  0
  197.4710  174.7000  141.6630 C   0  0  0  0  0  2  0  0  0  0  0  0
  192.4460  176.4730  143.7110 N   0  0  2  0  0  0  0  0  0  0  0  0
  191.2250  175.7750  147.1040 N   0  0  0  0  0  2  0  0  0  0  0  0
  196.1560  175.1190  142.1680 N   0  0  0  0  0  0  0  0  0  0  0  0
  196.5170  172.5730  140.5910 C   0  0  0  0  0  2  0  0  0  0  0  0
  189.8370  177.2170  145.6430 C   0  0  2  0  0  3  0  0  0  0  0  0
  194.6490  175.5150  144.0810 C   0  0  0  0  0  0  0  0  0  0  0  0
  195.3310  175.7230  139.8940 N   0  0  0  0  0  2  0  0  0  0  0  0
  193.7350  176.0300  143.2240 C   0  0  1  0  0  3  0  0  0  0  0  0
  196.4430  174.1970  145.7950 C   0  0  0  0  0  3  0  0  0  0  0  0
  190.0840  177.0000  143.1070 C   0  0  0  0  0  2  0  0  0  0  0  0
  196.7530  174.3510  144.4430 C   0  0  0  0  0  3  0  0  0  0  0  0
  191.5620  177.1570  142.7630 C   0  0  0  0  0  2  0  0  0  0  0  0
  190.9680  176.1890  145.7140 C   0  0  1  0  0  3  0  0  0  0  0  0
  195.2500  174.7130  146.3010 C   0  0  0  0  0  3  0  0  0  0  0  0
  193.2260  175.9100  145.9510 C   0  0  2  0  0  3  0  0  0  0  0  0
  188.5170  176.5440  145.9870 C   0  0  0  0  0  2  0  0  0  0  0  0
  187.5610  177.5330  146.4600 N   0  0  0  0  0  2  0  0  0  0  0  0
  184.2660  177.9580  146.4800 O   0  0  0  0  0  0  0  0  0  0  0  0
  185.9090  178.7440  145.2030 C   0  0  0  0  0  3  0  0  0  0  0  0
  186.3640  177.3950  145.6480 C   0  0  2  0  0  3  0  0  0  0  0  0
  184.7170  179.0080  145.7040 C   0  0  0  0  0  3  0  0  0  0  0  0
  185.2060  176.9000  146.5130 C   0  0  0  0  0  2  0  0  0  0  0  0
  1 27  1  0  0  0  0
  1 26  1  0  0  0  0
  3 16  1  0  0  0  0
  4 18  1  0  0  0  0
  4 23  2  0  0  0  0
  5 11  2  0  0  0  0
  5 15  1  0  0  0  0
  6 19  1  0  0  0  0
  7  6  1  0  0  0  0
  7  3  1  0  0  0  0
  8 16  1  0  0  0  0
  8 12  1  0  0  0  0
  9 25  1  0  0  0  0
  9 27  1  0  0  0  0
 10 17  1  0  0  0  0
 11 20  1  0  0  0  0
 12 15  1  0  0  0  0
 13  9  1  0  0  0  0
 14  2  1  0  0  0  0
 15  4  1  0  0  0  0
 17 25  1  0  0  0  0
 17 28  1  0  0  0  0
 18  1  2  0  0  0  0
 19  5  1  0  0  0  0
 20 13  1  0  0  0  0
 20 18  1  0  0  0  0
 21 26  2  0  0  0  0
 22 10  1  0  0  0  0
 23 21  1  0  0  0  0
 24 22  1  0  0  0  0
 24 13  1  0  0  0  0
 25 14  1  0  0  0  0
 27  2  1  0  0  0  0
 28 29  1  0  0  0  0
 30 34  1  0  0  0  0
 31 32  1  0  0  0  0
 31 33  2  0  0  0  0
 32 29  1  0  0  0  0
 32 34  1  0  0  0  0
 33 30  1  0  0  0  0
M  END
>  <MODEL>
6

>  <REMARK>
 VINA RESULT:      -8.1      4.420      8.095
  Name = 
  3 active torsions:
  status: ('A' for Active; 'I' for Inactive)
    1  A    between atoms: C_17  and  C_28
    2  A    between atoms: C_28  and  N_29
    3  A    between atoms: N_29  and  C_32
                            x       y       z     vdW  Elec       q    Type
                         _______ _______ _______ _____ _____    ______ ____

>  <TORSDO>
F 3

$$$$
=
 OpenBabel11112417583D

 34 40  0  0  1  0  0  0  0  0999 V2000
  192.3820  176.2590  145.1230 C   0  0  0  0  0  0  0  0  0  0  0  0
  190.3610  177.4770  145.6980 N   0  0  0  0  0  2  0  0  0  0  0  0
  193.9020  170.6470  145.0130 C   0  0  0  0  0  2  0  0  0  0  0  0
  194.1750  174.6470  144.7180 C   0  0  0  0  0  0  0  0  0  0  0  0
  193.8580  172.9100  142.9860 C   0  0  0  0  0  0  0  0  0  0  0  0
  193.5030  170.4830  142.5180 C   0  0  0  0  0  2  0  0  0  0  0  0
  193.9590  169.7470  143.7790 C   0  0  0  0  0  2  0  0  0  0  0  0
  196.2070  171.5590  144.4370 C   0  0  0  0  0  2  0  0  0  0  0  0
  190.3970  176.3130  143.6450 C   0  0  1  0  0  3  0  0  0  0  0  0
  188.0250  175.7500  141.9690 C   0  0  0  0  0  2  0  0  0  0  0  0
  192.6590  173.3680  142.7840 N   0  0  0  0  0  0  0  0  0  0  0  0
  196.0740  173.0710  144.2340 C   0  0  0  0  0  2  0  0  0  0  0  0
  190.7910  174.9670  143.2010 N   0  0  2  0  0  0  0  0  0  0  0  0
  189.0180  177.4120  145.2930 N   0  0  0  0  0  2  0  0  0  0  0  0
  194.6970  173.5190  143.9890 N   0  0  0  0  0  0  0  0  0  0  0  0
  195.3000  170.9960  145.5290 C   0  0  0  0  0  2  0  0  0  0  0  0
  187.9010  176.6240  143.2260 C   0  0  2  0  0  3  0  0  0  0  0  0
  192.8950  175.1520  144.4030 C   0  0  0  0  0  0  0  0  0  0  0  0
  194.2660  171.7090  142.3290 N   0  0  0  0  0  2  0  0  0  0  0  0
  192.1390  174.5190  143.4740 C   0  0  1  0  0  3  0  0  0  0  0  0
  194.3700  176.2770  146.5130 C   0  0  0  0  0  3  0  0  0  0  0  0
  188.5650  174.3520  142.2570 C   0  0  0  0  0  2  0  0  0  0  0  0
  194.9020  175.2190  145.7740 C   0  0  0  0  0  3  0  0  0  0  0  0
  190.0810  174.3390  142.0840 C   0  0  0  0  0  2  0  0  0  0  0  0
  188.9990  176.3620  144.2590 C   0  0  1  0  0  3  0  0  0  0  0  0
  193.1140  176.7900  146.1930 C   0  0  0  0  0  3  0  0  0  0  0  0
  191.1840  176.7610  144.8050 C   0  0  2  0  0  3  0  0  0  0  0  0
  186.5380  176.4160  143.8670 C   0  0  0  0  0  2  0  0  0  0  0  0
  185.6520  177.5160  143.5250 N   0  0  0  0  0  2  0  0  0  0  0  0
  183.7260  179.0410  145.7620 O   0  0  0  0  0  0  0  0  0  0  0  0
  185.4920  177.6990  145.9170 C   0  0  0  0  0  3  0  0  0  0  0  0
  185.6750  178.4480  144.6400 C   0  0  2  0  0  3  0  0  0  0  0  0
  184.3740  178.0750  146.5070 C   0  0  0  0  0  3  0  0  0  0  0  0
  184.4450  179.3540  144.5840 C   0  0  0  0  0  2  0  0  0  0  0  0
  1 26  1  0  0  0  0
  3 16  1  0  0  0  0
  4 23  2  0  0  0  0
  5 15  1  0  0  0  0
  6  7  1  0  0  0  0
  7  3  1  0  0  0  0
  8 16  1  0  0  0  0
  9 25  1  0  0  0  0
  9 27  1  0  0  0  0
 10 22  1  0  0  0  0
 10 17  1  0  0  0  0
 11  5  2  0  0  0  0
 11 20  1  0  0  0  0
 12  8  1  0  0  0  0
 13 20  1  0  0  0  0
 13  9  1  0  0  0  0
 14  2  1  0  0  0  0
 15 12  1  0  0  0  0
 15  4  1  0  0  0  0
 17 28  1  0  0  0  0
 17 25  1  0  0  0  0
 18  4  1  0  0  0  0
 18  1  2  0  0  0  0
 19  6  1  0  0  0  0
 19  5  1  0  0  0  0
 20 18  1  0  0  0  0
 23 21  1  0  0  0  0
 24 22  1  0  0  0  0
 24 13  1  0  0  0  0
 25 14  1  0  0  0  0
 26 21  2  0  0  0  0
 27  1  1  0  0  0  0
 27  2  1  0  0  0  0
 29 28  1  0  0  0  0
 29 32  1  0  0  0  0
 30 33  1  0  0  0  0
 31 33  2  0  0  0  0
 32 31  1  0  0  0  0
 34 32  1  0  0  0  0
 34 30  1  0  0  0  0
M  END
>  <MODEL>
7

>  <REMARK>
 VINA RESULT:      -8.1      3.445      6.383
  Name = 
  3 active torsions:
  status: ('A' for Active; 'I' for Inactive)
    1  A    between atoms: C_17  and  C_28
    2  A    between atoms: C_28  and  N_29
    3  A    between atoms: N_29  and  C_32
                            x       y       z     vdW  Elec       q    Type
                         _______ _______ _______ _____ _____    ______ ____

>  <TORSDO>
F 3

$$$$
=
 OpenBabel11112417583D

 34 40  0  0  1  0  0  0  0  0999 V2000
  190.0870  174.1810  141.9230 C   0  0  0  0  0  0  0  0  0  0  0  0
  187.8320  175.0730  142.0840 N   0  0  0  0  0  2  0  0  0  0  0  0
  195.4050  176.5050  141.5740 C   0  0  0  0  0  2  0  0  0  0  0  0
  192.4820  173.7490  141.6890 C   0  0  0  0  0  0  0  0  0  0  0  0
  194.0220  174.5540  143.4490 C   0  0  0  0  0  0  0  0  0  0  0  0
  195.8210  176.1790  144.0510 C   0  0  0  0  0  2  0  0  0  0  0  0
  196.4030  176.6630  142.7210 C   0  0  0  0  0  2  0  0  0  0  0  0
  196.1500  174.0890  141.2790 C   0  0  0  0  0  2  0  0  0  0  0  0
  189.1960  175.1730  144.0080 C   0  0  1  0  0  3  0  0  0  0  0  0
  188.6070  176.7730  146.4270 C   0  0  0  0  0  2  0  0  0  0  0  0
  193.0070  175.0900  144.0560 N   0  0  0  0  0  0  0  0  0  0  0  0
  194.9270  173.1930  141.4930 C   0  0  0  0  0  2  0  0  0  0  0  0
  190.5750  175.5890  144.3050 N   0  0  2  0  0  0  0  0  0  0  0  0
  187.1870  175.9790  142.9410 N   0  0  0  0  0  2  0  0  0  0  0  0
  193.8240  173.8540  142.2030 N   0  0  0  0  0  0  0  0  0  0  0  0
  195.8380  175.4160  140.5900 C   0  0  0  0  0  2  0  0  0  0  0  0
  187.5860  176.6860  145.2820 C   0  0  2  0  0  3  0  0  0  0  0  0
  191.4050  174.2820  142.4310 C   0  0  0  0  0  0  0  0  0  0  0  0
  195.3410  174.8080  143.9370 N   0  0  0  0  0  2  0  0  0  0  0  0
  191.6560  174.9580  143.5780 C   0  0  1  0  0  3  0  0  0  0  0  0
  190.9400  173.1160  139.9180 C   0  0  0  0  0  3  0  0  0  0  0  0
  189.9600  177.3250  145.9880 C   0  0  0  0  0  2  0  0  0  0  0  0
  192.2350  173.1680  140.4360 C   0  0  0  0  0  3  0  0  0  0  0  0
  190.8880  176.1740  145.6110 C   0  0  0  0  0  2  0  0  0  0  0  0
  188.2150  176.3430  143.9300 C   0  0  1  0  0  3  0  0  0  0  0  0
  189.8720  173.6260  140.6540 C   0  0  0  0  0  3  0  0  0  0  0  0
  189.0610  174.6560  142.6380 C   0  0  2  0  0  3  0  0  0  0  0  0
  186.8230  177.9970  145.1700 C   0  0  0  0  0  2  0  0  0  0  0  0
  185.3940  177.7380  145.0960 N   0  0  0  0  0  2  0  0  0  0  0  0
  185.7790  179.0650  142.0750 O   0  0  0  0  0  0  0  0  0  0  0  0
  184.1130  177.9840  143.0770 C   0  0  0  0  0  3  0  0  0  0  0  0
  184.8310  178.7050  144.1680 C   0  0  2  0  0  3  0  0  0  0  0  0
  184.6940  178.2250  141.9170 C   0  0  0  0  0  3  0  0  0  0  0  0
  185.9560  179.4300  143.4310 C   0  0  0  0  0  2  0  0  0  0  0  0
  1 18  1  0  0  0  0
  1 27  1  0  0  0  0
  2 27  1  0  0  0  0
  2 14  1  0  0  0  0
  3  7  1  0  0  0  0
  4 15  1  0  0  0  0
  4 18  2  0  0  0  0
  5 19  1  0  0  0  0
  5 11  2  0  0  0  0
  7  6  1  0  0  0  0
  8 12  1  0  0  0  0
  9 13  1  0  0  0  0
 12 15  1  0  0  0  0
 13 24  1  0  0  0  0
 14 25  1  0  0  0  0
 15  5  1  0  0  0  0
 16  8  1  0  0  0  0
 16  3  1  0  0  0  0
 17 10  1  0  0  0  0
 18 20  1  0  0  0  0
 19  6  1  0  0  0  0
 20 11  1  0  0  0  0
 20 13  1  0  0  0  0
 21 23  2  0  0  0  0
 21 26  1  0  0  0  0
 22 10  1  0  0  0  0
 23  4  1  0  0  0  0
 24 22  1  0  0  0  0
 25  9  1  0  0  0  0
 25 17  1  0  0  0  0
 26  1  2  0  0  0  0
 27  9  1  0  0  0  0
 28 17  1  0  0  0  0
 29 28  1  0  0  0  0
 30 34  1  0  0  0  0
 31 32  1  0  0  0  0
 32 29  1  0  0  0  0
 33 30  1  0  0  0  0
 33 31  2  0  0  0  0
 34 32  1  0  0  0  0
M  END
>  <MODEL>
8

>  <REMARK>
 VINA RESULT:      -8.0      3.458      6.769
  Name = 
  3 active torsions:
  status: ('A' for Active; 'I' for Inactive)
    1  A    between atoms: C_17  and  C_28
    2  A    between atoms: C_28  and  N_29
    3  A    between atoms: N_29  and  C_32
                            x       y       z     vdW  Elec       q    Type
                         _______ _______ _______ _____ _____    ______ ____

>  <TORSDO>
F 3

$$$$
=
 OpenBabel11112417583D

 34 40  0  0  1  0  0  0  0  0999 V2000
  187.6740  176.2860  141.1050 C   0  0  0  0  0  0  0  0  0  0  0  0
  188.2220  174.4290  139.6370 N   0  0  0  0  0  2  0  0  0  0  0  0
  184.9870  176.8090  146.2350 C   0  0  0  0  0  2  0  0  0  0  0  0
  186.8710  177.8200  142.8320 C   0  0  0  0  0  0  0  0  0  0  0  0
  187.7180  177.5730  145.1430 C   0  0  0  0  0  0  0  0  0  0  0  0
  187.1840  176.9110  147.4910 C   0  0  0  0  0  2  0  0  0  0  0  0
  185.6590  176.9640  147.5990 C   0  0  0  0  0  2  0  0  0  0  0  0
  185.2710  179.3050  145.8280 C   0  0  0  0  0  2  0  0  0  0  0  0
  189.4970  174.6880  141.6070 C   0  0  1  0  0  3  0  0  0  0  0  0
  191.3300  172.6530  142.7240 C   0  0  0  0  0  2  0  0  0  0  0  0
  188.4000  176.5390  144.7540 N   0  0  0  0  0  0  0  0  0  0  0  0
  186.1250  179.4790  144.5690 C   0  0  0  0  0  2  0  0  0  0  0  0
  189.2070  174.9280  143.0290 N   0  0  2  0  0  0  0  0  0  0  0  0
  188.8960  173.2090  139.7980 N   0  0  0  0  0  2  0  0  0  0  0  0
  186.8870  178.2790  144.1970 N   0  0  0  0  0  0  0  0  0  0  0  0
  184.3230  178.1090  145.7770 C   0  0  0  0  0  2  0  0  0  0  0  0
  190.6450  172.4240  141.3690 C   0  0  2  0  0  3  0  0  0  0  0  0
  187.6940  176.7390  142.4470 C   0  0  0  0  0  0  0  0  0  0  0  0
  187.6700  177.8960  146.5330 N   0  0  0  0  0  2  0  0  0  0  0  0
  188.4280  176.0940  143.3860 C   0  0  1  0  0  3  0  0  0  0  0  0
  185.9580  177.9180  140.5790 C   0  0  0  0  0  3  0  0  0  0  0  0
  190.3450  172.8730  143.8690 C   0  0  0  0  0  2  0  0  0  0  0  0
  186.0100  178.4010  141.8880 C   0  0  0  0  0  3  0  0  0  0  0  0
  190.0940  174.3670  144.0510 C   0  0  0  0  0  2  0  0  0  0  0  0
  189.3510  173.2230  141.1980 C   0  0  1  0  0  3  0  0  0  0  0  0
  186.7810  176.8610  140.1920 C   0  0  0  0  0  3  0  0  0  0  0  0
  188.4760  175.2830  140.7300 C   0  0  2  0  0  3  0  0  0  0  0  0
  190.3570  170.9430  141.1790 C   0  0  0  0  0  2  0  0  0  0  0  0
  191.4720  170.2990  140.5040 N   0  0  0  0  0  2  0  0  0  0  0  0
  191.6670  168.8980  137.4980 O   0  0  0  0  0  0  0  0  0  0  0  0
  190.0510  169.9610  138.5940 C   0  0  0  0  0  3  0  0  0  0  0  0
  191.3250  170.5660  139.0830 C   0  0  2  0  0  3  0  0  0  0  0  0
  190.3070  169.0250  137.7010 C   0  0  0  0  0  3  0  0  0  0  0  0
  192.3970  169.8080  138.3000 C   0  0  0  0  0  2  0  0  0  0  0  0
  1 18  1  0  0  0  0
  2 14  1  0  0  0  0
  2 27  1  0  0  0  0
  3  7  1  0  0  0  0
  4 15  1  0  0  0  0
  5 19  1  0  0  0  0
  6  7  1  0  0  0  0
  9 13  1  0  0  0  0
 10 22  1  0  0  0  0
 11  5  2  0  0  0  0
 12  8  1  0  0  0  0
 13 20  1  0  0  0  0
 13 24  1  0  0  0  0
 14 25  1  0  0  0  0
 15 12  1  0  0  0  0
 15  5  1  0  0  0  0
 16  8  1  0  0  0  0
 16  3  1  0  0  0  0
 17 10  1  0  0  0  0
 18  4  2  0  0  0  0
 18 20  1  0  0  0  0
 19  6  1  0  0  0  0
 20 11  1  0  0  0  0
 21 23  2  0  0  0  0
 22 24  1  0  0  0  0
 23  4  1  0  0  0  0
 25 17  1  0  0  0  0
 25  9  1  0  0  0  0
 26 21  1  0  0  0  0
 26  1  2  0  0  0  0
 27  1  1  0  0  0  0
 27  9  1  0  0  0  0
 28 17  1  0  0  0  0
 29 28  1  0  0  0  0
 30 33  1  0  0  0  0
 30 34  1  0  0  0  0
 31 32  1  0  0  0  0
 32 29  1  0  0  0  0
 33 31  2  0  0  0  0
 34 32  1  0  0  0  0
M  END
>  <MODEL>
9

>  <REMARK>
 VINA RESULT:      -7.9      4.697      8.443
  Name = 
  3 active torsions:
  status: ('A' for Active; 'I' for Inactive)
    1  A    between atoms: C_17  and  C_28
    2  A    between atoms: C_28  and  N_29
    3  A    between atoms: N_29  and  C_32
                            x       y       z     vdW  Elec       q    Type
                         _______ _______ _______ _____ _____    ______ ____

>  <TORSDO>
F 3

$$$$
