=
 OpenBabel11112417173D

 37 44  0  0  1  0  0  0  0  0999 V2000
  188.7090  175.1930  141.3890 C   0  0  0  0  0  2  0  0  0  0  0  0
  193.7940  174.4760  142.1530 C   0  0  1  0  0  0  0  0  0  0  0  0
  190.7710  174.8100  145.1240 C   0  0  1  0  0  3  0  0  0  0  0  0
  188.1370  175.5780  140.0140 C   0  0  2  0  0  3  0  0  0  0  0  0
  188.7050  177.9010  144.3690 C   0  0  0  0  0  2  0  0  0  0  0  0
  193.2070  174.4290  144.3980 C   0  0  1  0  0  3  0  0  0  0  0  0
  189.8330  175.7110  144.4050 N   0  0  1  0  0  0  0  0  0  0  0  0
  186.5770  177.4140  140.8810 C   0  0  0  0  0  0  0  0  0  0  0  0
  191.7260  174.2500  144.0660 C   0  0  2  0  0  3  0  0  0  0  0  0
  189.4970  176.9020  145.1540 N   0  0  2  0  0  0  0  0  0  0  0  0
  193.4710  173.8110  145.7450 C   0  0  0  0  0  2  0  0  0  0  0  0
  186.8280  176.2370  140.1030 N   0  0  0  0  0  2  0  0  0  0  0  0
  191.3830  174.8520  142.7750 N   0  0  2  0  0  0  0  0  0  0  0  0
  193.6910  173.4350  141.0560 C   0  0  0  0  0  1  0  0  0  0  0  0
  190.5600  175.3670  147.5830 C   0  0  0  0  0  2  0  0  0  0  0  0
  192.7400  174.5980  146.8320 C   0  0  0  0  0  2  0  0  0  0  0  0
  192.5500  175.3970  142.0620 C   0  0  0  0  0  2  0  0  0  0  0  0
  187.4610  177.7140  141.9460 N   0  0  0  0  0  0  0  0  0  0  0  0
  187.9570  177.1960  143.2730 C   0  0  1  0  0  3  0  0  0  0  0  0
  191.4930  175.3890  146.3840 C   0  0  1  0  0  3  0  0  0  0  0  0
  190.5350  175.9830  143.1200 C   0  0  1  0  0  3  0  0  0  0  0  0
  193.9620  173.8000  143.3950 O   0  0  0  0  0  0  0  0  0  0  0  0
  188.7300  176.4730  146.3550 C   0  0  1  0  0  3  0  0  0  0  0  0
  194.9180  175.2430  141.9100 F   0  0  0  0  0  0  0  0  0  0  0  0
  188.8710  177.5900  142.3300 C   0  0  1  0  0  3  0  0  0  0  0  0
  185.1160  178.1350  140.8140 S   0  0  0  0  0  0  0  0  0  0  0  0
  189.6000  176.3300  141.9310 C   0  0  2  0  0  3  0  0  0  0  0  0
  189.6170  176.5460  147.5790 C   0  0  0  0  0  2  0  0  0  0  0  0
  186.2290  176.5290  146.1510 C   0  0  0  0  0  3  0  0  0  0  0  0
  187.3980  177.1400  146.6190 C   0  0  0  0  0  0  0  0  0  0  0  0
  187.3150  178.3680  147.2950 C   0  0  0  0  0  3  0  0  0  0  0  0
  185.9960  180.1560  148.1580 F   0  0  0  0  0  0  0  0  0  0  0  0
  184.9090  178.3550  147.0360 C   0  0  0  0  0  3  0  0  0  0  0  0
  186.0720  178.9720  147.5050 C   0  0  0  0  0  0  0  0  0  0  0  0
  184.9870  177.1360  146.3590 C   0  0  0  0  0  3  0  0  0  0  0  0
  187.6990  174.7100  137.8340 O   0  0  0  0  0  1  0  0  0  0  0  0
  188.0100  174.3420  139.1430 C   0  0  0  0  0  2  0  0  0  0  0  0
  1 27  1  0  0  0  0
  2 14  1  6  0  0  0
  2 22  1  0  0  0  0
  3 20  1  0  0  0  0
  4 12  1  0  0  0  0
  4  1  1  0  0  0  0
  5 10  1  0  0  0  0
  6 11  1  0  0  0  0
  7  3  1  0  0  0  0
  7 10  1  0  0  0  0
  8 18  1  0  0  0  0
  9  6  1  0  0  0  0
  9  3  1  0  0  0  0
 10 23  1  0  0  0  0
 11 16  1  0  0  0  0
 12  8  1  0  0  0  0
 13 21  1  0  0  0  0
 13  9  1  0  0  0  0
 17  2  1  0  0  0  0
 17 13  1  0  0  0  0
 18 25  1  0  0  0  0
 18 19  1  0  0  0  0
 19  5  1  0  0  0  0
 20 16  1  0  0  0  0
 20 15  1  0  0  0  0
 21  7  1  0  0  0  0
 22  6  1  0  0  0  0
 23 30  1  0  0  0  0
 23 28  1  0  0  0  0
 24  2  1  0  0  0  0
 25 19  1  0  0  0  0
 26  8  2  0  0  0  0
 27 25  1  0  0  0  0
 27 21  1  0  0  0  0
 28 15  1  0  0  0  0
 29 35  2  0  0  0  0
 29 30  1  0  0  0  0
 30 31  2  0  0  0  0
 31 34  1  0  0  0  0
 33 34  2  0  0  0  0
 34 32  1  0  0  0  0
 35 33  1  0  0  0  0
 36 37  1  0  0  0  0
 37  4  1  0  0  0  0
M  END
>  <MODEL>
1

>  <REMARK>
 VINA RESULT:      -8.7      0.000      0.000
  Name = 
  2 active torsions:
  status: ('A' for Active; 'I' for Inactive)
    1  A    between atoms: CA_4  and  C_37
    2  A    between atoms: C_23  and  C_30
                            x       y       z     vdW  Elec       q    Type
                         _______ _______ _______ _____ _____    ______ ____

>  <TORSDO>
F 2

$$$$
=
 OpenBabel11112417173D

 37 44  0  0  1  0  0  0  0  0999 V2000
  188.2650  176.5550  141.9060 C   0  0  0  0  0  2  0  0  0  0  0  0
  186.6790  177.5740  146.7440 C   0  0  1  0  0  0  0  0  0  0  0  0
  190.6540  176.7910  145.4540 C   0  0  1  0  0  3  0  0  0  0  0  0
  187.2740  176.2380  140.7730 C   0  0  2  0  0  3  0  0  0  0  0  0
  190.6180  173.6270  143.3580 C   0  0  0  0  0  2  0  0  0  0  0  0
  188.9350  177.4020  147.2630 C   0  0  1  0  0  3  0  0  0  0  0  0
  190.3570  175.8830  144.3140 N   0  0  1  0  0  0  0  0  0  0  0  0
  188.5660  174.2330  139.8440 C   0  0  0  0  0  0  0  0  0  0  0  0
  189.3400  177.4990  145.7940 C   0  0  2  0  0  3  0  0  0  0  0  0
  191.0490  174.6160  144.3970 N   0  0  2  0  0  0  0  0  0  0  0  0
  190.0660  177.9290  148.1050 C   0  0  0  0  0  2  0  0  0  0  0  0
  187.8860  175.4820  139.6720 N   0  0  0  0  0  2  0  0  0  0  0  0
  188.2960  176.9770  144.9080 N   0  0  2  0  0  0  0  0  0  0  0  0
  185.8650  178.6870  146.1160 C   0  0  0  0  0  1  0  0  0  0  0  0
  192.8640  176.0280  146.4220 C   0  0  0  0  0  2  0  0  0  0  0  0
  191.2800  177.0090  147.9830 C   0  0  0  0  0  2  0  0  0  0  0  0
  187.0750  176.5750  145.6260 C   0  0  0  0  0  2  0  0  0  0  0  0
  189.0690  173.9150  141.1280 N   0  0  0  0  0  0  0  0  0  0  0  0
  190.0660  174.3610  142.1690 C   0  0  1  0  0  3  0  0  0  0  0  0
  191.3750  176.1670  146.6920 C   0  0  1  0  0  3  0  0  0  0  0  0
  188.8730  175.7640  144.3480 C   0  0  1  0  0  3  0  0  0  0  0  0
  187.7680  178.1600  147.4500 O   0  0  0  0  0  0  0  0  0  0  0  0
  192.5060  174.8930  144.2620 C   0  0  1  0  0  3  0  0  0  0  0  0
  185.8710  176.9110  147.6470 F   0  0  0  0  0  0  0  0  0  0  0  0
  188.7740  174.1090  142.5510 C   0  0  1  0  0  3  0  0  0  0  0  0
  189.1030  173.4160  138.5380 S   0  0  0  0  0  0  0  0  0  0  0  0
  188.2180  175.4460  142.9770 C   0  0  2  0  0  3  0  0  0  0  0  0
  193.1710  174.7880  145.6170 C   0  0  0  0  0  2  0  0  0  0  0  0
  193.6600  172.7960  143.5070 C   0  0  0  0  0  3  0  0  0  0  0  0
  193.2810  174.1130  143.2230 C   0  0  0  0  0  0  0  0  0  0  0  0
  193.6510  174.6920  141.9980 C   0  0  0  0  0  3  0  0  0  0  0  0
  194.7410  174.5150  139.8860 F   0  0  0  0  0  0  0  0  0  0  0  0
  194.7600  172.6390  141.3560 C   0  0  0  0  0  3  0  0  0  0  0  0
  194.3860  173.9540  141.0670 C   0  0  0  0  0  0  0  0  0  0  0  0
  194.3980  172.0600  142.5750 C   0  0  0  0  0  3  0  0  0  0  0  0
  186.1560  178.2910  141.2610 O   0  0  0  0  0  1  0  0  0  0  0  0
  186.6910  177.5270  140.2230 C   0  0  0  0  0  2  0  0  0  0  0  0
  1 27  1  0  0  0  0
  2 14  1  6  0  0  0
  2 22  1  0  0  0  0
  2 24  1  0  0  0  0
  3  9  1  0  0  0  0
  3 20  1  0  0  0  0
  4  1  1  0  0  0  0
  5 10  1  0  0  0  0
  6 22  1  0  0  0  0
  6 11  1  0  0  0  0
  7 21  1  0  0  0  0
  7 10  1  0  0  0  0
  7  3  1  0  0  0  0
  8 18  1  0  0  0  0
  9  6  1  0  0  0  0
 12  8  1  0  0  0  0
 12  4  1  0  0  0  0
 13 17  1  0  0  0  0
 13  9  1  0  0  0  0
 15 20  1  0  0  0  0
 16 11  1  0  0  0  0
 17  2  1  0  0  0  0
 18 19  1  0  0  0  0
 18 25  1  0  0  0  0
 19 25  1  0  0  0  0
 19  5  1  0  0  0  0
 20 16  1  0  0  0  0
 21 13  1  0  0  0  0
 23 10  1  0  0  0  0
 23 28  1  0  0  0  0
 25 27  1  0  0  0  0
 26  8  2  0  0  0  0
 27 21  1  0  0  0  0
 28 15  1  0  0  0  0
 30 29  1  0  0  0  0
 30 23  1  0  0  0  0
 31 30  2  0  0  0  0
 32 34  1  0  0  0  0
 33 35  1  0  0  0  0
 34 33  2  0  0  0  0
 34 31  1  0  0  0  0
 35 29  2  0  0  0  0
 37  4  1  0  0  0  0
 37 36  1  0  0  0  0
M  END
>  <MODEL>
2

>  <REMARK>
 VINA RESULT:      -8.5      2.478      6.584
  Name = 
  2 active torsions:
  status: ('A' for Active; 'I' for Inactive)
    1  A    between atoms: CA_4  and  C_37
    2  A    between atoms: C_23  and  C_30
                            x       y       z     vdW  Elec       q    Type
                         _______ _______ _______ _____ _____    ______ ____

>  <TORSDO>
F 2

$$$$
=
 OpenBabel11112417173D

 37 44  0  0  1  0  0  0  0  0999 V2000
  188.4900  176.2340  141.9600 C   0  0  0  0  0  2  0  0  0  0  0  0
  186.7300  177.6030  146.6500 C   0  0  1  0  0  0  0  0  0  0  0  0
  190.7490  176.7350  145.5650 C   0  0  1  0  0  3  0  0  0  0  0  0
  187.5410  175.8330  140.8180 C   0  0  2  0  0  3  0  0  0  0  0  0
  190.7860  173.4260  143.7080 C   0  0  0  0  0  2  0  0  0  0  0  0
  188.9660  177.4740  147.2620 C   0  0  1  0  0  3  0  0  0  0  0  0
  190.4930  175.7450  144.4860 N   0  0  1  0  0  0  0  0  0  0  0  0
  188.8640  173.7680  140.0870 C   0  0  0  0  0  0  0  0  0  0  0  0
  189.4240  177.4640  145.8040 C   0  0  2  0  0  3  0  0  0  0  0  0
  191.1810  174.4890  144.6860 N   0  0  2  0  0  0  0  0  0  0  0  0
  190.0660  178.0640  148.1030 C   0  0  0  0  0  2  0  0  0  0  0  0
  188.1910  175.0000  139.8000 N   0  0  0  0  0  2  0  0  0  0  0  0
  188.4130  176.8760  144.9220 N   0  0  2  0  0  0  0  0  0  0  0  0
  185.9410  178.6660  145.9120 C   0  0  0  0  0  1  0  0  0  0  0  0
  192.9210  176.0500  146.6670 C   0  0  0  0  0  2  0  0  0  0  0  0
  191.2820  177.1390  148.0930 C   0  0  0  0  0  2  0  0  0  0  0  0
  187.1660  176.5260  145.6230 C   0  0  0  0  0  2  0  0  0  0  0  0
  189.3200  173.5450  141.4090 N   0  0  0  0  0  0  0  0  0  0  0  0
  190.2790  174.0690  142.4490 C   0  0  1  0  0  3  0  0  0  0  0  0
  191.4240  176.2060  146.8720 C   0  0  1  0  0  3  0  0  0  0  0  0
  189.0080  175.6260  144.4740 C   0  0  1  0  0  3  0  0  0  0  0  0
  187.7930  178.2420  147.3500 O   0  0  0  0  0  0  0  0  0  0  0  0
  192.6410  174.7590  144.5850 C   0  0  1  0  0  3  0  0  0  0  0  0
  185.8890  177.0070  147.5700 F   0  0  0  0  0  0  0  0  0  0  0  0
  188.9740  173.8430  142.8020 C   0  0  1  0  0  3  0  0  0  0  0  0
  189.4470  172.8580  138.8650 S   0  0  0  0  0  0  0  0  0  0  0  0
  188.4030  175.2070  143.1080 C   0  0  2  0  0  3  0  0  0  0  0  0
  193.2570  174.7550  145.9670 C   0  0  0  0  0  2  0  0  0  0  0  0
  193.8380  174.4430  142.4010 C   0  0  0  0  0  3  0  0  0  0  0  0
  193.4530  173.9060  143.6350 C   0  0  0  0  0  0  0  0  0  0  0  0
  193.8020  172.5830  143.9530 C   0  0  0  0  0  3  0  0  0  0  0  0
  194.8670  170.5370  143.3570 F   0  0  0  0  0  0  0  0  0  0  0  0
  194.9160  172.3550  141.8170 C   0  0  0  0  0  3  0  0  0  0  0  0
  194.5330  171.8110  143.0460 C   0  0  0  0  0  0  0  0  0  0  0  0
  194.5680  173.6690  141.4940 C   0  0  0  0  0  3  0  0  0  0  0  0
  186.0030  177.6540  140.9680 O   0  0  0  0  0  1  0  0  0  0  0  0
  186.9790  177.0770  140.1540 C   0  0  0  0  0  2  0  0  0  0  0  0
  1 27  1  0  0  0  0
  2 14  1  6  0  0  0
  2 22  1  0  0  0  0
  2 24  1  0  0  0  0
  3  9  1  0  0  0  0
  3 20  1  0  0  0  0
  4  1  1  0  0  0  0
  5 10  1  0  0  0  0
  6 22  1  0  0  0  0
  6 11  1  0  0  0  0
  7 10  1  0  0  0  0
  7  3  1  0  0  0  0
  8 18  1  0  0  0  0
  9  6  1  0  0  0  0
 12  8  1  0  0  0  0
 12  4  1  0  0  0  0
 13 17  1  0  0  0  0
 13  9  1  0  0  0  0
 15 20  1  0  0  0  0
 16 11  1  0  0  0  0
 17  2  1  0  0  0  0
 18 19  1  0  0  0  0
 18 25  1  0  0  0  0
 19 25  1  0  0  0  0
 19  5  1  0  0  0  0
 20 16  1  0  0  0  0
 21  7  1  0  0  0  0
 21 13  1  0  0  0  0
 23 10  1  0  0  0  0
 23 28  1  0  0  0  0
 25 27  1  0  0  0  0
 26  8  2  0  0  0  0
 27 21  1  0  0  0  0
 28 15  1  0  0  0  0
 29 30  1  0  0  0  0
 30 31  2  0  0  0  0
 30 23  1  0  0  0  0
 33 34  2  0  0  0  0
 34 32  1  0  0  0  0
 34 31  1  0  0  0  0
 35 33  1  0  0  0  0
 35 29  2  0  0  0  0
 37  4  1  0  0  0  0
 37 36  1  0  0  0  0
M  END
>  <MODEL>
3

>  <REMARK>
 VINA RESULT:      -8.3      2.629      6.658
  Name = 
  2 active torsions:
  status: ('A' for Active; 'I' for Inactive)
    1  A    between atoms: CA_4  and  C_37
    2  A    between atoms: C_23  and  C_30
                            x       y       z     vdW  Elec       q    Type
                         _______ _______ _______ _____ _____    ______ ____

>  <TORSDO>
F 2

$$$$
=
 OpenBabel11112417173D

 37 44  0  0  1  0  0  0  0  0999 V2000
  190.7810  173.4980  140.1460 C   0  0  0  0  0  2  0  0  0  0  0  0
  187.0750  176.3240  142.4360 C   0  0  1  0  0  0  0  0  0  0  0  0
  191.0540  175.7110  143.8030 C   0  0  1  0  0  3  0  0  0  0  0  0
  190.4740  172.5430  138.9800 C   0  0  2  0  0  3  0  0  0  0  0  0
  191.7670  171.9840  143.7440 C   0  0  0  0  0  2  0  0  0  0  0  0
  188.7280  176.7820  144.0020 C   0  0  1  0  0  3  0  0  0  0  0  0
  191.2860  174.3500  143.2520 N   0  0  1  0  0  0  0  0  0  0  0  0
  191.8500  170.5800  139.8780 C   0  0  0  0  0  0  0  0  0  0  0  0
  189.8280  176.2680  143.0760 C   0  0  2  0  0  3  0  0  0  0  0  0
  191.7100  173.3930  144.2490 N   0  0  2  0  0  0  0  0  0  0  0  0
  189.3230  177.8140  144.9220 C   0  0  0  0  0  2  0  0  0  0  0  0
  191.4790  171.4830  138.8300 N   0  0  0  0  0  2  0  0  0  0  0  0
  189.3300  175.2360  142.1630 N   0  0  2  0  0  0  0  0  0  0  0  0
  186.8080  176.8790  141.0520 C   0  0  0  0  0  1  0  0  0  0  0  0
  192.3800  175.8490  145.9550 C   0  0  0  0  0  2  0  0  0  0  0  0
  190.3320  177.1530  145.8620 C   0  0  0  0  0  2  0  0  0  0  0  0
  187.8810  175.0080  142.2820 C   0  0  0  0  0  2  0  0  0  0  0  0
  191.5980  170.9670  141.2160 N   0  0  0  0  0  0  0  0  0  0  0  0
  191.9700  171.9950  142.2560 C   0  0  1  0  0  3  0  0  0  0  0  0
  190.9820  175.8470  145.3590 C   0  0  1  0  0  3  0  0  0  0  0  0
  189.9860  174.0150  142.6070 C   0  0  1  0  0  3  0  0  0  0  0  0
  187.7100  177.3380  143.2100 O   0  0  0  0  0  0  0  0  0  0  0  0
  193.0530  173.8160  144.7320 C   0  0  1  0  0  3  0  0  0  0  0  0
  185.8590  176.0190  143.0170 F   0  0  0  0  0  0  0  0  0  0  0  0
  190.6450  171.7340  142.0240 C   0  0  1  0  0  3  0  0  0  0  0  0
  192.8880  169.3610  139.5700 S   0  0  0  0  0  0  0  0  0  0  0  0
  190.0860  173.0060  141.4330 C   0  0  2  0  0  3  0  0  0  0  0  0
  192.9270  174.4490  146.1000 C   0  0  0  0  0  2  0  0  0  0  0  0
  195.0960  172.8120  143.6730 C   0  0  0  0  0  3  0  0  0  0  0  0
  194.1650  172.7900  144.7180 C   0  0  0  0  0  0  0  0  0  0  0  0
  194.2640  171.8020  145.7120 C   0  0  0  0  0  3  0  0  0  0  0  0
  195.3810  169.9040  146.6210 F   0  0  0  0  0  0  0  0  0  0  0  0
  196.2160  170.8830  144.6150 C   0  0  0  0  0  3  0  0  0  0  0  0
  195.2890  170.8540  145.6610 C   0  0  0  0  0  0  0  0  0  0  0  0
  196.1190  171.8610  143.6210 C   0  0  0  0  0  3  0  0  0  0  0  0
  189.2280  174.1080  137.6780 O   0  0  0  0  0  1  0  0  0  0  0  0
  190.3830  173.3250  137.6830 C   0  0  0  0  0  2  0  0  0  0  0  0
  1 27  1  0  0  0  0
  2 14  1  6  0  0  0
  2 24  1  0  0  0  0
  2 22  1  0  0  0  0
  3 20  1  0  0  0  0
  4  1  1  0  0  0  0
  5 10  1  0  0  0  0
  6 11  1  0  0  0  0
  7  3  1  0  0  0  0
  7 10  1  0  0  0  0
  8 18  1  0  0  0  0
  9  3  1  0  0  0  0
  9  6  1  0  0  0  0
 10 23  1  0  0  0  0
 11 16  1  0  0  0  0
 12  4  1  0  0  0  0
 12  8  1  0  0  0  0
 13 17  1  0  0  0  0
 13 21  1  0  0  0  0
 13  9  1  0  0  0  0
 15 28  1  0  0  0  0
 17  2  1  0  0  0  0
 18 25  1  0  0  0  0
 18 19  1  0  0  0  0
 19  5  1  0  0  0  0
 20 16  1  0  0  0  0
 20 15  1  0  0  0  0
 21  7  1  0  0  0  0
 22  6  1  0  0  0  0
 23 28  1  0  0  0  0
 25 19  1  0  0  0  0
 26  8  2  0  0  0  0
 27 25  1  0  0  0  0
 27 21  1  0  0  0  0
 29 30  1  0  0  0  0
 30 23  1  0  0  0  0
 30 31  2  0  0  0  0
 33 34  2  0  0  0  0
 34 31  1  0  0  0  0
 34 32  1  0  0  0  0
 35 29  2  0  0  0  0
 35 33  1  0  0  0  0
 36 37  1  0  0  0  0
 37  4  1  0  0  0  0
M  END
>  <MODEL>
4

>  <REMARK>
 VINA RESULT:      -7.9      3.591      7.152
  Name = 
  2 active torsions:
  status: ('A' for Active; 'I' for Inactive)
    1  A    between atoms: CA_4  and  C_37
    2  A    between atoms: C_23  and  C_30
                            x       y       z     vdW  Elec       q    Type
                         _______ _______ _______ _____ _____    ______ ____

>  <TORSDO>
F 2

$$$$
=
 OpenBabel11112417173D

 37 44  0  0  1  0  0  0  0  0999 V2000
  189.4130  175.4640  141.8010 C   0  0  0  0  0  2  0  0  0  0  0  0
  189.4920  175.4980  146.9920 C   0  0  1  0  0  0  0  0  0  0  0  0
  192.7860  176.0800  144.3680 C   0  0  1  0  0  3  0  0  0  0  0  0
  188.1910  174.9690  141.0070 C   0  0  2  0  0  3  0  0  0  0  0  0
  192.7860  173.2650  141.8240 C   0  0  0  0  0  2  0  0  0  0  0  0
  191.7490  175.9700  146.7160 C   0  0  1  0  0  3  0  0  0  0  0  0
  192.3340  175.2360  143.2310 N   0  0  1  0  0  0  0  0  0  0  0  0
  189.5160  173.5460  139.3430 C   0  0  0  0  0  0  0  0  0  0  0  0
  191.5530  176.3220  145.2420 C   0  0  2  0  0  3  0  0  0  0  0  0
  193.3020  174.2360  142.8390 N   0  0  2  0  0  0  0  0  0  0  0  0
  192.9370  176.7350  147.2350 C   0  0  0  0  0  2  0  0  0  0  0  0
  188.5300  174.5400  139.6450 N   0  0  0  0  0  2  0  0  0  0  0  0
  190.4260  175.5930  144.6550 N   0  0  2  0  0  0  0  0  0  0  0  0
  188.2550  176.3660  146.8870 C   0  0  0  0  0  1  0  0  0  0  0  0
  195.3120  175.9360  144.4080 C   0  0  0  0  0  2  0  0  0  0  0  0
  194.2120  176.2400  146.5540 C   0  0  0  0  0  2  0  0  0  0  0  0
  189.6920  174.7760  145.6350 C   0  0  0  0  0  2  0  0  0  0  0  0
  190.5140  173.2760  140.3100 N   0  0  0  0  0  0  0  0  0  0  0  0
  191.6750  173.9040  141.0410 C   0  0  1  0  0  3  0  0  0  0  0  0
  194.0400  175.5920  145.1640 C   0  0  1  0  0  3  0  0  0  0  0  0
  191.0440  174.6700  143.7160 C   0  0  1  0  0  3  0  0  0  0  0  0
  190.5790  176.3180  147.4110 O   0  0  0  0  0  0  0  0  0  0  0  0
  194.4910  174.9530  142.3010 C   0  0  1  0  0  3  0  0  0  0  0  0
  189.2620  174.5400  147.9610 F   0  0  0  0  0  0  0  0  0  0  0  0
  190.7180  173.2380  141.7610 C   0  0  1  0  0  3  0  0  0  0  0  0
  189.7280  173.0550  137.8020 S   0  0  0  0  0  0  0  0  0  0  0  0
  190.0380  174.2970  142.5940 C   0  0  2  0  0  3  0  0  0  0  0  0
  195.6070  174.9280  143.3220 C   0  0  0  0  0  2  0  0  0  0  0  0
  195.8240  173.4150  140.8310 C   0  0  0  0  0  3  0  0  0  0  0  0
  195.0040  174.5450  140.9380 C   0  0  0  0  0  0  0  0  0  0  0  0
  194.7000  175.2900  139.7860 C   0  0  0  0  0  3  0  0  0  0  0  0
  194.9120  175.6240  137.4370 F   0  0  0  0  0  0  0  0  0  0  0  0
  196.0240  173.7720  138.4450 C   0  0  0  0  0  3  0  0  0  0  0  0
  195.2070  174.9020  138.5440 C   0  0  0  0  0  0  0  0  0  0  0  0
  196.3320  173.0290  139.5880 C   0  0  0  0  0  3  0  0  0  0  0  0
  186.6800  176.3680  142.2150 O   0  0  0  0  0  1  0  0  0  0  0  0
  187.1450  176.0660  140.9350 C   0  0  0  0  0  2  0  0  0  0  0  0
  1 27  1  0  0  0  0
  2 14  1  6  0  0  0
  2 22  1  0  0  0  0
  2 24  1  0  0  0  0
  3 20  1  0  0  0  0
  3  9  1  0  0  0  0
  4  1  1  0  0  0  0
  5 10  1  0  0  0  0
  6 11  1  0  0  0  0
  6 22  1  0  0  0  0
  7 21  1  0  0  0  0
  7  3  1  0  0  0  0
  8 12  1  0  0  0  0
  8 18  1  0  0  0  0
  9  6  1  0  0  0  0
 10  7  1  0  0  0  0
 12  4  1  0  0  0  0
 13  9  1  0  0  0  0
 13 17  1  0  0  0  0
 15 20  1  0  0  0  0
 16 11  1  0  0  0  0
 17  2  1  0  0  0  0
 18 19  1  0  0  0  0
 18 25  1  0  0  0  0
 19 25  1  0  0  0  0
 19  5  1  0  0  0  0
 20 16  1  0  0  0  0
 21 13  1  0  0  0  0
 23 10  1  0  0  0  0
 23 28  1  0  0  0  0
 25 27  1  0  0  0  0
 26  8  2  0  0  0  0
 27 21  1  0  0  0  0
 28 15  1  0  0  0  0
 29 30  1  0  0  0  0
 30 23  1  0  0  0  0
 31 30  2  0  0  0  0
 32 34  1  0  0  0  0
 33 34  2  0  0  0  0
 33 35  1  0  0  0  0
 34 31  1  0  0  0  0
 35 29  2  0  0  0  0
 37  4  1  0  0  0  0
 37 36  1  0  0  0  0
M  END
>  <MODEL>
5

>  <REMARK>
 VINA RESULT:      -7.8      2.872      7.118
  Name = 
  2 active torsions:
  status: ('A' for Active; 'I' for Inactive)
    1  A    between atoms: CA_4  and  C_37
    2  A    between atoms: C_23  and  C_30
                            x       y       z     vdW  Elec       q    Type
                         _______ _______ _______ _____ _____    ______ ____

>  <TORSDO>
F 2

$$$$
=
 OpenBabel11112417173D

 37 44  0  0  1  0  0  0  0  0999 V2000
  189.1870  175.6510  141.8700 C   0  0  0  0  0  2  0  0  0  0  0  0
  189.3990  175.5130  147.0570 C   0  0  1  0  0  0  0  0  0  0  0  0
  192.6570  175.9630  144.3620 C   0  0  1  0  0  3  0  0  0  0  0  0
  187.9160  175.2640  141.0960 C   0  0  2  0  0  3  0  0  0  0  0  0
  192.4070  173.2370  141.7340 C   0  0  0  0  0  2  0  0  0  0  0  0
  191.6740  175.8450  146.7330 C   0  0  1  0  0  3  0  0  0  0  0  0
  192.1220  175.1870  143.2130 N   0  0  1  0  0  0  0  0  0  0  0  0
  189.1020  173.8110  139.3530 C   0  0  0  0  0  0  0  0  0  0  0  0
  191.4660  176.2560  145.2770 C   0  0  2  0  0  3  0  0  0  0  0  0
  193.0120  174.1400  142.7650 N   0  0  2  0  0  0  0  0  0  0  0  0
  192.9230  176.5130  147.2430 C   0  0  0  0  0  2  0  0  0  0  0  0
  188.1910  174.8570  139.7120 N   0  0  0  0  0  2  0  0  0  0  0  0
  190.2780  175.6220  144.6990 N   0  0  2  0  0  0  0  0  0  0  0  0
  188.2190  176.4620  147.0120 C   0  0  0  0  0  1  0  0  0  0  0  0
  195.1690  175.6530  144.3290 C   0  0  0  0  0  2  0  0  0  0  0  0
  194.1460  175.9590  146.5130 C   0  0  0  0  0  2  0  0  0  0  0  0
  189.5160  174.8230  145.6730 C   0  0  0  0  0  2  0  0  0  0  0  0
  190.1030  173.4460  140.2840 N   0  0  0  0  0  0  0  0  0  0  0  0
  191.3210  173.9730  141.0020 C   0  0  1  0  0  3  0  0  0  0  0  0
  193.8960  175.3680  145.1090 C   0  0  1  0  0  3  0  0  0  0  0  0
  190.8100  174.6920  143.7150 C   0  0  1  0  0  3  0  0  0  0  0  0
  190.5480  176.2460  147.4700 O   0  0  0  0  0  0  0  0  0  0  0  0
  194.2310  174.7940  142.2160 C   0  0  1  0  0  3  0  0  0  0  0  0
  189.1300  174.5410  148.0020 F   0  0  0  0  0  0  0  0  0  0  0  0
  190.3410  173.3480  141.7280 C   0  0  1  0  0  3  0  0  0  0  0  0
  189.2420  173.3580  137.7930 S   0  0  0  0  0  0  0  0  0  0  0  0
  189.7540  174.4220  142.6110 C   0  0  2  0  0  3  0  0  0  0  0  0
  195.3690  174.6640  143.2060 C   0  0  0  0  0  2  0  0  0  0  0  0
  194.4330  175.2670  139.7590 C   0  0  0  0  0  3  0  0  0  0  0  0
  194.6820  174.3980  140.8280 C   0  0  0  0  0  0  0  0  0  0  0  0
  195.3180  173.1690  140.5860 C   0  0  0  0  0  3  0  0  0  0  0  0
  196.3160  171.6340  139.0610 F   0  0  0  0  0  0  0  0  0  0  0  0
  195.4530  173.6930  138.2280 C   0  0  0  0  0  3  0  0  0  0  0  0
  195.7040  172.8200  139.2890 C   0  0  0  0  0  0  0  0  0  0  0  0
  194.8170  174.9160  138.4620 C   0  0  0  0  0  3  0  0  0  0  0  0
  187.6330  177.6250  140.8910 O   0  0  0  0  0  1  0  0  0  0  0  0
  186.9430  176.4280  141.0850 C   0  0  0  0  0  2  0  0  0  0  0  0
  1 27  1  0  0  0  0
  2 14  1  6  0  0  0
  2 22  1  0  0  0  0
  2 24  1  0  0  0  0
  3 20  1  0  0  0  0
  3  9  1  0  0  0  0
  4  1  1  0  0  0  0
  5 10  1  0  0  0  0
  6 11  1  0  0  0  0
  6 22  1  0  0  0  0
  7 21  1  0  0  0  0
  7  3  1  0  0  0  0
  8 12  1  0  0  0  0
  8 18  1  0  0  0  0
  9  6  1  0  0  0  0
 10  7  1  0  0  0  0
 12  4  1  0  0  0  0
 13  9  1  0  0  0  0
 13 17  1  0  0  0  0
 15 20  1  0  0  0  0
 16 11  1  0  0  0  0
 17  2  1  0  0  0  0
 18 19  1  0  0  0  0
 18 25  1  0  0  0  0
 19 25  1  0  0  0  0
 19  5  1  0  0  0  0
 20 16  1  0  0  0  0
 21 13  1  0  0  0  0
 23 10  1  0  0  0  0
 23 28  1  0  0  0  0
 25 27  1  0  0  0  0
 26  8  2  0  0  0  0
 27 21  1  0  0  0  0
 28 15  1  0  0  0  0
 29 30  1  0  0  0  0
 30 23  1  0  0  0  0
 31 30  2  0  0  0  0
 32 34  1  0  0  0  0
 33 35  1  0  0  0  0
 33 34  2  0  0  0  0
 34 31  1  0  0  0  0
 35 29  2  0  0  0  0
 36 37  1  0  0  0  0
 37  4  1  0  0  0  0
M  END
>  <MODEL>
6

>  <REMARK>
 VINA RESULT:      -7.7      2.756      7.103
  Name = 
  2 active torsions:
  status: ('A' for Active; 'I' for Inactive)
    1  A    between atoms: CA_4  and  C_37
    2  A    between atoms: C_23  and  C_30
                            x       y       z     vdW  Elec       q    Type
                         _______ _______ _______ _____ _____    ______ ____

>  <TORSDO>
F 2

$$$$
=
 OpenBabel11112417173D

 37 44  0  0  1  0  0  0  0  0999 V2000
  192.5660  176.3150  145.3290 C   0  0  0  0  0  2  0  0  0  0  0  0
  192.8610  172.3800  141.9540 C   0  0  1  0  0  0  0  0  0  0  0  0
  189.7580  175.2690  142.2690 C   0  0  1  0  0  3  0  0  0  0  0  0
  193.5050  176.4190  146.5430 C   0  0  2  0  0  3  0  0  0  0  0  0
  188.6740  175.4540  145.9000 C   0  0  0  0  0  2  0  0  0  0  0  0
  190.8640  173.2420  141.1420 C   0  0  1  0  0  3  0  0  0  0  0  0
  189.8340  175.5390  143.7280 N   0  0  1  0  0  0  0  0  0  0  0  0
  191.6800  177.0110  148.2380 C   0  0  0  0  0  0  0  0  0  0  0  0
  191.0600  174.5580  141.8930 C   0  0  2  0  0  3  0  0  0  0  0  0
  188.5700  175.3660  144.4090 N   0  0  2  0  0  0  0  0  0  0  0  0
  190.0240  173.5100  139.9220 C   0  0  0  0  0  2  0  0  0  0  0  0
  192.9530  177.2460  147.6240 N   0  0  0  0  0  2  0  0  0  0  0  0
  191.8490  174.3730  143.1140 N   0  0  2  0  0  0  0  0  0  0  0  0
  194.3020  172.8080  141.7630 C   0  0  0  0  0  1  0  0  0  0  0  0
  187.3290  175.5470  141.6130 C   0  0  0  0  0  2  0  0  0  0  0  0
  188.6140  173.9230  140.3400 C   0  0  0  0  0  2  0  0  0  0  0  0
  192.3460  172.9970  143.2800 C   0  0  0  0  0  2  0  0  0  0  0  0
  190.7180  176.2600  147.5210 N   0  0  0  0  0  0  0  0  0  0  0  0
  189.8750  176.2780  146.2690 C   0  0  1  0  0  3  0  0  0  0  0  0
  188.4720  174.5530  141.7420 C   0  0  1  0  0  3  0  0  0  0  0  0
  190.9030  174.6120  144.1930 C   0  0  1  0  0  3  0  0  0  0  0  0
  192.1280  172.7440  140.7880 O   0  0  0  0  0  0  0  0  0  0  0  0
  187.6420  176.4130  143.9010 C   0  0  1  0  0  3  0  0  0  0  0  0
  192.8360  171.0040  142.0810 F   0  0  0  0  0  0  0  0  0  0  0  0
  190.6140  175.1590  146.5580 C   0  0  1  0  0  3  0  0  0  0  0  0
  191.2150  177.9160  149.5130 S   0  0  0  0  0  0  0  0  0  0  0  0
  191.6550  175.0770  145.4690 C   0  0  2  0  0  3  0  0  0  0  0  0
  186.6510  175.7930  142.9400 C   0  0  0  0  0  2  0  0  0  0  0  0
  186.5640  178.5840  144.5560 C   0  0  0  0  0  3  0  0  0  0  0  0
  186.9320  177.2820  144.9150 C   0  0  0  0  0  0  0  0  0  0  0  0
  186.6600  176.8190  146.2140 C   0  0  0  0  0  3  0  0  0  0  0  0
  185.7620  177.2020  148.3870 F   0  0  0  0  0  0  0  0  0  0  0  0
  185.6570  178.9500  146.7710 C   0  0  0  0  0  3  0  0  0  0  0  0
  186.0220  177.6520  147.1370 C   0  0  0  0  0  0  0  0  0  0  0  0
  185.9290  179.4160  145.4820 C   0  0  0  0  0  3  0  0  0  0  0  0
  195.0340  176.7880  144.7470 O   0  0  0  0  0  1  0  0  0  0  0  0
  194.8410  176.9960  146.1130 C   0  0  0  0  0  2  0  0  0  0  0  0
  1 27  1  0  0  0  0
  1  4  1  0  0  0  0
  2 14  1  6  0  0  0
  2 24  1  0  0  0  0
  2 17  1  0  0  0  0
  3  7  1  0  0  0  0
  4 12  1  0  0  0  0
  5 19  1  0  0  0  0
  6  9  1  0  0  0  0
  7 21  1  0  0  0  0
  7 10  1  0  0  0  0
  8 26  2  0  0  0  0
  9  3  1  0  0  0  0
  9 13  1  0  0  0  0
 10  5  1  0  0  0  0
 11 16  1  0  0  0  0
 11  6  1  0  0  0  0
 12  8  1  0  0  0  0
 13 17  1  0  0  0  0
 13 21  1  0  0  0  0
 15 20  1  0  0  0  0
 15 28  1  0  0  0  0
 16 20  1  0  0  0  0
 18  8  1  0  0  0  0
 19 25  1  0  0  0  0
 19 18  1  0  0  0  0
 20  3  1  0  0  0  0
 21 27  1  0  0  0  0
 22  6  1  0  0  0  0
 22  2  1  0  0  0  0
 23 10  1  0  0  0  0
 23 30  1  0  0  0  0
 25 18  1  0  0  0  0
 27 25  1  0  0  0  0
 28 23  1  0  0  0  0
 29 30  2  0  0  0  0
 29 35  1  0  0  0  0
 30 31  1  0  0  0  0
 31 34  2  0  0  0  0
 33 34  1  0  0  0  0
 34 32  1  0  0  0  0
 35 33  2  0  0  0  0
 36 37  1  0  0  0  0
 37  4  1  0  0  0  0
M  END
>  <MODEL>
7

>  <REMARK>
 VINA RESULT:      -7.7      2.772      5.333
  Name = 
  2 active torsions:
  status: ('A' for Active; 'I' for Inactive)
    1  A    between atoms: CA_4  and  C_37
    2  A    between atoms: C_23  and  C_30
                            x       y       z     vdW  Elec       q    Type
                         _______ _______ _______ _____ _____    ______ ____

>  <TORSDO>
F 2

$$$$
=
 OpenBabel11112417173D

 37 44  0  0  1  0  0  0  0  0999 V2000
  193.6450  171.4030  141.6520 C   0  0  0  0  0  2  0  0  0  0  0  0
  190.2450  170.6590  137.7990 C   0  0  1  0  0  0  0  0  0  0  0  0
  190.2150  173.7800  140.6860 C   0  0  1  0  0  3  0  0  0  0  0  0
  194.6740  170.3310  142.0500 C   0  0  2  0  0  3  0  0  0  0  0  0
  190.5730  172.2170  144.1250 C   0  0  0  0  0  2  0  0  0  0  0  0
  189.2710  172.6070  138.6040 C   0  0  1  0  0  3  0  0  0  0  0  0
  190.8400  173.0550  141.8230 N   0  0  1  0  0  0  0  0  0  0  0  0
  194.2960  170.5260  144.5740 C   0  0  0  0  0  0  0  0  0  0  0  0
  190.5070  172.9500  139.4330 C   0  0  2  0  0  3  0  0  0  0  0  0
  190.0470  173.0950  143.0320 N   0  0  2  0  0  0  0  0  0  0  0  0
  188.5640  173.8880  138.2500 C   0  0  0  0  0  2  0  0  0  0  0  0
  195.1550  170.4840  143.4280 N   0  0  0  0  0  2  0  0  0  0  0  0
  191.2380  171.7480  139.8410 N   0  0  2  0  0  0  0  0  0  0  0  0
  191.4630  170.4180  136.9300 C   0  0  0  0  0  1  0  0  0  0  0  0
  188.5890  175.4360  141.6950 C   0  0  0  0  0  2  0  0  0  0  0  0
  188.0050  174.5410  139.5130 C   0  0  0  0  0  2  0  0  0  0  0  0
  190.6720  170.5090  139.2820 C   0  0  0  0  0  2  0  0  0  0  0  0
  192.9390  170.8800  144.3810 N   0  0  0  0  0  0  0  0  0  0  0  0
  192.0490  172.0130  143.9340 C   0  0  1  0  0  3  0  0  0  0  0  0
  188.7140  174.1880  140.8380 C   0  0  1  0  0  3  0  0  0  0  0  0
  191.0480  171.6830  141.2820 C   0  0  1  0  0  3  0  0  0  0  0  0
  189.6900  171.9240  137.4500 O   0  0  0  0  0  0  0  0  0  0  0  0
  190.0040  174.5100  143.4910 C   0  0  1  0  0  3  0  0  0  0  0  0
  189.3160  169.6750  137.5160 F   0  0  0  0  0  0  0  0  0  0  0  0
  191.8560  170.7660  143.3990 C   0  0  1  0  0  3  0  0  0  0  0  0
  194.9410  170.5750  146.0710 S   0  0  0  0  0  0  0  0  0  0  0  0
  192.2150  170.8990  141.9390 C   0  0  2  0  0  3  0  0  0  0  0  0
  188.6520  175.1100  143.1690 C   0  0  0  0  0  2  0  0  0  0  0  0
  189.4320  174.6320  145.9320 C   0  0  0  0  0  3  0  0  0  0  0  0
  190.3890  174.8000  144.9250 C   0  0  0  0  0  0  0  0  0  0  0  0
  191.6730  175.2610  145.2600 C   0  0  0  0  0  3  0  0  0  0  0  0
  193.2330  175.9850  146.9100 F   0  0  0  0  0  0  0  0  0  0  0  0
  191.0330  175.3690  147.5920 C   0  0  0  0  0  3  0  0  0  0  0  0
  191.9930  175.5420  146.5910 C   0  0  0  0  0  0  0  0  0  0  0  0
  189.7530  174.9160  147.2630 C   0  0  0  0  0  3  0  0  0  0  0  0
  196.4830  171.6250  141.1820 O   0  0  0  0  0  1  0  0  0  0  0  0
  195.8600  170.3790  141.1040 C   0  0  0  0  0  2  0  0  0  0  0  0
  1 27  1  0  0  0  0
  1  4  1  0  0  0  0
  2 14  1  6  0  0  0
  2 17  1  0  0  0  0
  3 20  1  0  0  0  0
  3  7  1  0  0  0  0
  4 12  1  0  0  0  0
  6  9  1  0  0  0  0
  7 10  1  0  0  0  0
  8 26  2  0  0  0  0
  9 13  1  0  0  0  0
  9  3  1  0  0  0  0
 10 23  1  0  0  0  0
 10  5  1  0  0  0  0
 11  6  1  0  0  0  0
 11 16  1  0  0  0  0
 12  8  1  0  0  0  0
 13 21  1  0  0  0  0
 15 28  1  0  0  0  0
 16 20  1  0  0  0  0
 17 13  1  0  0  0  0
 18  8  1  0  0  0  0
 19  5  1  0  0  0  0
 19 18  1  0  0  0  0
 20 15  1  0  0  0  0
 21  7  1  0  0  0  0
 21 27  1  0  0  0  0
 22  2  1  0  0  0  0
 22  6  1  0  0  0  0
 23 30  1  0  0  0  0
 24  2  1  0  0  0  0
 25 19  1  0  0  0  0
 25 18  1  0  0  0  0
 27 25  1  0  0  0  0
 28 23  1  0  0  0  0
 29 35  1  0  0  0  0
 30 31  1  0  0  0  0
 30 29  2  0  0  0  0
 31 34  2  0  0  0  0
 34 32  1  0  0  0  0
 34 33  1  0  0  0  0
 35 33  2  0  0  0  0
 37 36  1  0  0  0  0
 37  4  1  0  0  0  0
M  END
>  <MODEL>
8

>  <REMARK>
 VINA RESULT:      -7.3      4.067      7.196
  Name = 
  2 active torsions:
  status: ('A' for Active; 'I' for Inactive)
    1  A    between atoms: CA_4  and  C_37
    2  A    between atoms: C_23  and  C_30
                            x       y       z     vdW  Elec       q    Type
                         _______ _______ _______ _____ _____    ______ ____

>  <TORSDO>
F 2

$$$$
=
 OpenBabel11112417173D

 37 44  0  0  1  0  0  0  0  0999 V2000
  190.2010  174.2530  141.6320 C   0  0  0  0  0  2  0  0  0  0  0  0
  189.3250  175.3040  146.6410 C   0  0  1  0  0  0  0  0  0  0  0  0
  193.0260  175.5810  144.5650 C   0  0  1  0  0  3  0  0  0  0  0  0
  189.1620  173.5330  140.7560 C   0  0  2  0  0  3  0  0  0  0  0  0
  193.5780  172.3310  142.6880 C   0  0  0  0  0  2  0  0  0  0  0  0
  191.5790  175.8620  146.6700 C   0  0  1  0  0  3  0  0  0  0  0  0
  192.8160  174.5040  143.5630 N   0  0  1  0  0  0  0  0  0  0  0  0
  190.8120  171.9040  139.6720 C   0  0  0  0  0  0  0  0  0  0  0  0
  191.6470  175.9060  145.1450 C   0  0  2  0  0  3  0  0  0  0  0  0
  193.8700  173.5140  143.5580 N   0  0  2  0  0  0  0  0  0  0  0  0
  192.6280  176.7910  147.2210 C   0  0  0  0  0  2  0  0  0  0  0  0
  189.7580  172.8700  139.5890 N   0  0  0  0  0  2  0  0  0  0  0  0
  190.6690  175.0040  144.5320 N   0  0  2  0  0  0  0  0  0  0  0  0
  188.1020  176.0500  146.1480 C   0  0  0  0  0  1  0  0  0  0  0  0
  195.5050  175.6170  145.0720 C   0  0  0  0  0  2  0  0  0  0  0  0
  194.0210  176.2590  146.8870 C   0  0  0  0  0  2  0  0  0  0  0  0
  189.7920  174.3450  145.5150 C   0  0  0  0  0  2  0  0  0  0  0  0
  191.6230  171.8950  140.8320 N   0  0  0  0  0  0  0  0  0  0  0  0
  192.6110  172.7300  141.6100 C   0  0  1  0  0  3  0  0  0  0  0  0
  194.1260  175.3420  145.6500 C   0  0  1  0  0  3  0  0  0  0  0  0
  191.4770  173.9590  143.9220 C   0  0  1  0  0  3  0  0  0  0  0  0
  190.2920  176.2600  147.0660 O   0  0  0  0  0  0  0  0  0  0  0  0
  195.1140  174.1890  143.1000 C   0  0  1  0  0  3  0  0  0  0  0  0
  188.9500  174.5390  147.7300 F   0  0  0  0  0  0  0  0  0  0  0  0
  191.5590  172.1550  142.2740 C   0  0  1  0  0  3  0  0  0  0  0  0
  191.3180  171.1380  138.3240 S   0  0  0  0  0  0  0  0  0  0  0  0
  190.7050  173.3080  142.7430 C   0  0  2  0  0  3  0  0  0  0  0  0
  196.0240  174.4390  144.2820 C   0  0  0  0  0  2  0  0  0  0  0  0
  195.8690  174.1830  140.7050 C   0  0  0  0  0  3  0  0  0  0  0  0
  195.8820  173.5590  141.9580 C   0  0  0  0  0  0  0  0  0  0  0  0
  196.5790  172.3510  142.1230 C   0  0  0  0  0  3  0  0  0  0  0  0
  197.9330  170.6160  141.2080 F   0  0  0  0  0  0  0  0  0  0  0  0
  197.2450  172.4100  139.7970 C   0  0  0  0  0  3  0  0  0  0  0  0
  197.2610  171.7800  141.0450 C   0  0  0  0  0  0  0  0  0  0  0  0
  196.5490  173.6100  139.6270 C   0  0  0  0  0  3  0  0  0  0  0  0
  188.1630  175.6810  141.0580 O   0  0  0  0  0  1  0  0  0  0  0  0
  188.1140  174.5230  140.2810 C   0  0  0  0  0  2  0  0  0  0  0  0
  1 27  1  0  0  0  0
  2 14  1  6  0  0  0
  2 22  1  0  0  0  0
  2 24  1  0  0  0  0
  3  9  1  0  0  0  0
  3 20  1  0  0  0  0
  4  1  1  0  0  0  0
  5 10  1  0  0  0  0
  6 22  1  0  0  0  0
  6 11  1  0  0  0  0
  7 21  1  0  0  0  0
  7  3  1  0  0  0  0
  8 18  1  0  0  0  0
  9  6  1  0  0  0  0
 10  7  1  0  0  0  0
 12  8  1  0  0  0  0
 12  4  1  0  0  0  0
 13  9  1  0  0  0  0
 13 17  1  0  0  0  0
 15 20  1  0  0  0  0
 16 11  1  0  0  0  0
 17  2  1  0  0  0  0
 18 19  1  0  0  0  0
 18 25  1  0  0  0  0
 19 25  1  0  0  0  0
 19  5  1  0  0  0  0
 20 16  1  0  0  0  0
 21 13  1  0  0  0  0
 23 10  1  0  0  0  0
 23 28  1  0  0  0  0
 25 27  1  0  0  0  0
 26  8  2  0  0  0  0
 27 21  1  0  0  0  0
 28 15  1  0  0  0  0
 29 30  1  0  0  0  0
 30 31  2  0  0  0  0
 30 23  1  0  0  0  0
 33 34  2  0  0  0  0
 34 32  1  0  0  0  0
 34 31  1  0  0  0  0
 35 33  1  0  0  0  0
 35 29  2  0  0  0  0
 37  4  1  0  0  0  0
 37 36  1  0  0  0  0
M  END
>  <MODEL>
9

>  <REMARK>
 VINA RESULT:      -7.1      3.285      7.661
  Name = 
  2 active torsions:
  status: ('A' for Active; 'I' for Inactive)
    1  A    between atoms: CA_4  and  C_37
    2  A    between atoms: C_23  and  C_30
                            x       y       z     vdW  Elec       q    Type
                         _______ _______ _______ _____ _____    ______ ____

>  <TORSDO>
F 2

$$$$
