=
 OpenBabel11112417153D

 37 44  0  0  1  0  0  0  0  0999 V2000
  191.5880  172.5820  143.3380 O   0  0  0  0  0  0  0  0  0  0  0  0
  194.8990  176.3110  144.6120 C   0  0  1  0  0  0  0  0  0  0  0  0
  190.9730  175.1970  145.6790 C   0  0  1  0  0  3  0  0  0  0  0  0
  191.4250  171.4700  142.4950 C   0  0  2  0  0  3  0  0  0  0  0  0
  189.3220  176.1200  142.2200 C   0  0  0  0  0  2  0  0  0  0  0  0
  193.0490  176.5790  146.2400 C   0  0  1  0  0  3  0  0  0  0  0  0
  190.5350  175.0320  144.2260 C   0  0  1  0  0  3  0  0  0  0  0  0
  189.0630  172.4180  142.1350 C   0  0  0  0  0  0  0  0  0  0  0  0
  192.4900  175.2850  145.6350 C   0  0  2  0  0  3  0  0  0  0  0  0
  189.5130  176.0870  143.7430 C   0  0  2  0  0  3  0  0  0  0  0  0
  192.5720  176.7620  147.6750 C   0  0  0  0  0  2  0  0  0  0  0  0
  189.9360  171.1910  142.2660 C   0  0  0  0  0  2  0  0  0  0  0  0
  192.9920  175.0550  144.2650 N   0  0  2  0  0  0  0  0  0  0  0  0
  195.2710  175.3820  145.7600 C   0  0  0  0  0  2  0  0  0  0  0  0
  188.8280  176.2290  146.6640 C   0  0  0  0  0  2  0  0  0  0  0  0
  191.0400  176.6270  147.7880 C   0  0  0  0  0  2  0  0  0  0  0  0
  193.7310  176.1190  143.8110 O   0  0  0  0  0  0  0  0  0  0  0  0
  189.5720  173.7030  141.7210 N   0  0  0  0  0  0  0  0  0  0  0  0
  188.6760  174.8540  141.6430 C   0  0  0  0  0  2  0  0  0  0  0  0
  190.3360  176.3830  146.4420 C   0  0  1  0  0  3  0  0  0  0  0  0
  191.8220  174.9810  143.3920 C   0  0  1  0  0  3  0  0  0  0  0  0
  194.5660  176.7140  146.0460 C   0  0  1  0  0  3  0  0  0  0  0  0
  188.1500  175.9440  144.4570 C   0  0  1  0  0  3  0  0  0  0  0  0
  196.0060  177.1520  144.0140 C   0  0  0  0  0  1  0  0  0  0  0  0
  190.9640  173.8700  141.3170 C   0  0  0  0  0  2  0  0  0  0  0  0
  187.8350  172.2910  142.3880 O   0  0  0  0  0  0  0  0  0  0  0  0
  191.8890  173.7120  142.5380 C   0  0  2  0  0  3  0  0  0  0  0  0
  188.2130  175.3540  145.7440 O   0  0  0  0  0  0  0  0  0  0  0  0
  187.4930  178.1070  143.3790 C   0  0  0  0  0  3  0  0  0  0  0  0
  187.2670  177.1590  144.3830 C   0  0  0  0  0  0  0  0  0  0  0  0
  186.2050  177.3420  145.2820 C   0  0  0  0  0  3  0  0  0  0  0  0
  184.2660  178.6610  146.1380 C   0  0  0  0  0  1  0  0  0  0  0  0
  185.6220  179.4170  144.1800 C   0  0  0  0  0  3  0  0  0  0  0  0
  185.3860  178.4700  145.1810 C   0  0  0  0  0  0  0  0  0  0  0  0
  186.6740  179.2350  143.2790 C   0  0  0  0  0  3  0  0  0  0  0  0
  192.8720  170.6400  144.2630 N   0  0  0  0  0  1  0  0  0  0  0  0
  192.0810  170.2480  143.1090 C   0  0  0  0  0  2  0  0  0  0  0  0
  2 24  1  6  0  0  0
  2 14  1  0  0  0  0
  2 22  1  0  0  0  0
  3 20  1  0  0  0  0
  4 37  1  0  0  0  0
  4  1  1  0  0  0  0
  5 10  1  0  0  0  0
  6 11  1  0  0  0  0
  7  3  1  0  0  0  0
  8 12  1  0  0  0  0
  8 26  2  0  0  0  0
  9  3  1  0  0  0  0
  9  6  1  0  0  0  0
 10  7  1  0  0  0  0
 10 23  1  0  0  0  0
 11 16  1  0  0  0  0
 12  4  1  0  0  0  0
 13  9  1  0  0  0  0
 14 22  1  0  0  0  0
 17 13  1  0  0  0  0
 17  2  1  0  0  0  0
 18  8  1  0  0  0  0
 19 18  1  0  0  0  0
 19  5  1  0  0  0  0
 20 15  1  0  0  0  0
 20 16  1  0  0  0  0
 21  7  1  0  0  0  0
 21 13  1  0  0  0  0
 22  6  1  0  0  0  0
 23 28  1  0  0  0  0
 25 18  1  0  0  0  0
 25 27  1  0  0  0  0
 27  1  1  0  0  0  0
 27 21  1  0  0  0  0
 28 15  1  0  0  0  0
 29 30  1  0  0  0  0
 30 23  1  0  0  0  0
 30 31  2  0  0  0  0
 33 34  2  0  0  0  0
 34 31  1  0  0  0  0
 34 32  1  0  0  0  0
 35 29  2  0  0  0  0
 35 33  1  0  0  0  0
 37 36  1  0  0  0  0
M  END
>  <MODEL>
1

>  <REMARK>
 VINA RESULT:      -9.3      0.000      0.000
  Name = 
  2 active torsions:
  status: ('A' for Active; 'I' for Inactive)
    1  A    between atoms: C_4  and  C_37
    2  A    between atoms: C_23  and  C_30
                            x       y       z     vdW  Elec       q    Type
                         _______ _______ _______ _____ _____    ______ ____

>  <TORSDO>
F 2

$$$$
=
 OpenBabel11112417153D

 37 44  0  0  1  0  0  0  0  0999 V2000
  192.3780  172.0790  142.8700 O   0  0  0  0  0  0  0  0  0  0  0  0
  195.5940  176.0970  142.8550 C   0  0  1  0  0  0  0  0  0  0  0  0
  192.2400  174.8610  145.0940 C   0  0  1  0  0  3  0  0  0  0  0  0
  192.0740  170.8870  142.1930 C   0  0  2  0  0  3  0  0  0  0  0  0
  189.6020  175.3610  142.2070 C   0  0  0  0  0  2  0  0  0  0  0  0
  194.2690  176.4070  144.9260 C   0  0  1  0  0  3  0  0  0  0  0  0
  191.4230  174.5360  143.8470 C   0  0  1  0  0  3  0  0  0  0  0  0
  189.6370  171.6580  142.4670 C   0  0  0  0  0  0  0  0  0  0  0  0
  193.6700  175.0320  144.6050 C   0  0  2  0  0  3  0  0  0  0  0  0
  190.2220  175.4810  143.6070 C   0  0  2  0  0  3  0  0  0  0  0  0
  194.2060  176.6940  146.4210 C   0  0  0  0  0  2  0  0  0  0  0  0
  190.6100  170.5010  142.4270 C   0  0  0  0  0  2  0  0  0  0  0  0
  193.7780  174.7060  143.1680 N   0  0  2  0  0  0  0  0  0  0  0  0
  196.3530  175.3020  143.9090 C   0  0  0  0  0  2  0  0  0  0  0  0
  190.3870  175.8530  146.5830 C   0  0  0  0  0  2  0  0  0  0  0  0
  192.7870  176.4810  146.9840 C   0  0  0  0  0  2  0  0  0  0  0  0
  194.2670  175.7650  142.4440 O   0  0  0  0  0  0  0  0  0  0  0  0
  189.9000  172.9270  141.8320 N   0  0  0  0  0  0  0  0  0  0  0  0
  188.9260  174.0110  141.9350 C   0  0  0  0  0  2  0  0  0  0  0  0
  191.7510  176.0730  145.9220 C   0  0  1  0  0  3  0  0  0  0  0  0
  192.4180  174.4830  142.6810 C   0  0  1  0  0  3  0  0  0  0  0  0
  195.6510  176.6120  144.2910 C   0  0  1  0  0  3  0  0  0  0  0  0
  189.1350  175.3250  144.6950 C   0  0  1  0  0  3  0  0  0  0  0  0
  196.4120  176.9430  141.9020 C   0  0  0  0  0  1  0  0  0  0  0  0
  191.0990  173.1360  141.0300 C   0  0  0  0  0  2  0  0  0  0  0  0
  188.5470  171.4830  143.0750 O   0  0  0  0  0  0  0  0  0  0  0  0
  192.3430  173.1470  141.9380 C   0  0  2  0  0  3  0  0  0  0  0  0
  189.6100  174.8610  145.9460 O   0  0  0  0  0  0  0  0  0  0  0  0
  188.2480  177.5120  143.8590 C   0  0  0  0  0  3  0  0  0  0  0  0
  188.1700  176.4740  144.7930 C   0  0  0  0  0  0  0  0  0  0  0  0
  187.1770  176.5070  145.7840 C   0  0  0  0  0  3  0  0  0  0  0  0
  185.2340  177.6090  146.8980 C   0  0  0  0  0  1  0  0  0  0  0  0
  186.3680  178.6150  144.9120 C   0  0  0  0  0  3  0  0  0  0  0  0
  186.2800  177.5770  145.8440 C   0  0  0  0  0  0  0  0  0  0  0  0
  187.3510  178.5820  143.9190 C   0  0  0  0  0  3  0  0  0  0  0  0
  192.9220  169.6810  144.1260 N   0  0  0  0  0  1  0  0  0  0  0  0
  192.9760  169.7680  142.6760 C   0  0  0  0  0  2  0  0  0  0  0  0
  2 24  1  6  0  0  0
  2 14  1  0  0  0  0
  2 22  1  0  0  0  0
  3 20  1  0  0  0  0
  4 12  1  0  0  0  0
  4 37  1  0  0  0  0
  4  1  1  0  0  0  0
  5 10  1  0  0  0  0
  6 11  1  0  0  0  0
  7  3  1  0  0  0  0
  8 26  2  0  0  0  0
  9  6  1  0  0  0  0
  9  3  1  0  0  0  0
 10  7  1  0  0  0  0
 10 23  1  0  0  0  0
 11 16  1  0  0  0  0
 12  8  1  0  0  0  0
 13  9  1  0  0  0  0
 14 22  1  0  0  0  0
 17  2  1  0  0  0  0
 17 13  1  0  0  0  0
 18 19  1  0  0  0  0
 18  8  1  0  0  0  0
 19  5  1  0  0  0  0
 20 15  1  0  0  0  0
 20 16  1  0  0  0  0
 21 13  1  0  0  0  0
 21  7  1  0  0  0  0
 22  6  1  0  0  0  0
 23 30  1  0  0  0  0
 23 28  1  0  0  0  0
 25 18  1  0  0  0  0
 25 27  1  0  0  0  0
 27 21  1  0  0  0  0
 27  1  1  0  0  0  0
 28 15  1  0  0  0  0
 29 35  2  0  0  0  0
 29 30  1  0  0  0  0
 30 31  2  0  0  0  0
 31 34  1  0  0  0  0
 33 34  2  0  0  0  0
 34 32  1  0  0  0  0
 35 33  1  0  0  0  0
 37 36  1  0  0  0  0
M  END
>  <MODEL>
2

>  <REMARK>
 VINA RESULT:      -9.0      1.117      1.401
  Name = 
  2 active torsions:
  status: ('A' for Active; 'I' for Inactive)
    1  A    between atoms: C_4  and  C_37
    2  A    between atoms: C_23  and  C_30
                            x       y       z     vdW  Elec       q    Type
                         _______ _______ _______ _____ _____    ______ ____

>  <TORSDO>
F 2

$$$$
=
 OpenBabel11112417153D

 37 44  0  0  1  0  0  0  0  0999 V2000
  188.0040  175.9950  143.5620 O   0  0  0  0  0  0  0  0  0  0  0  0
  188.8680  173.5660  139.1080 C   0  0  1  0  0  0  0  0  0  0  0  0
  190.2720  173.2890  143.0760 C   0  0  1  0  0  3  0  0  0  0  0  0
  187.2850  177.0560  144.1370 C   0  0  2  0  0  3  0  0  0  0  0  0
  192.2670  176.6900  143.0520 C   0  0  0  0  0  2  0  0  0  0  0  0
  190.0720  172.1870  140.7780 C   0  0  1  0  0  3  0  0  0  0  0  0
  190.5170  174.7910  143.1830 C   0  0  1  0  0  3  0  0  0  0  0  0
  189.4910  177.5410  145.3650 C   0  0  0  0  0  0  0  0  0  0  0  0
  189.4280  173.1060  141.8230 C   0  0  2  0  0  3  0  0  0  0  0  0
  192.0080  175.1910  143.2680 C   0  0  2  0  0  3  0  0  0  0  0  0
  190.3950  170.8230  141.3760 C   0  0  0  0  0  2  0  0  0  0  0  0
  187.9800  177.5380  145.4150 C   0  0  0  0  0  2  0  0  0  0  0  0
  189.0490  174.4130  141.2490 N   0  0  2  0  0  0  0  0  0  0  0  0
  187.8180  172.5850  139.6120 C   0  0  0  0  0  2  0  0  0  0  0  0
  192.3090  172.4220  144.3920 C   0  0  0  0  0  2  0  0  0  0  0  0
  191.2040  170.9500  142.6820 C   0  0  0  0  0  2  0  0  0  0  0  0
  189.4820  174.5410  139.9520 O   0  0  0  0  0  0  0  0  0  0  0  0
  190.2360  177.6180  144.1310 N   0  0  0  0  0  0  0  0  0  0  0  0
  191.6960  177.5890  144.1560 C   0  0  0  0  0  2  0  0  0  0  0  0
  191.5390  172.4000  143.0680 C   0  0  1  0  0  3  0  0  0  0  0  0
  189.7640  175.4350  142.0110 C   0  0  1  0  0  3  0  0  0  0  0  0
  189.2790  172.1400  139.4640 C   0  0  1  0  0  3  0  0  0  0  0  0
  192.6610  174.7130  144.5840 C   0  0  1  0  0  3  0  0  0  0  0  0
  188.9140  173.8280  137.6180 C   0  0  0  0  0  1  0  0  0  0  0  0
  189.5590  177.7870  142.8500 C   0  0  0  0  0  2  0  0  0  0  0  0
  190.1110  177.4890  146.4610 O   0  0  0  0  0  0  0  0  0  0  0  0
  188.7820  176.5060  142.4930 C   0  0  2  0  0  3  0  0  0  0  0  0
  192.0560  173.5730  145.1680 O   0  0  0  0  0  0  0  0  0  0  0  0
  194.8640  174.6040  145.7720 C   0  0  0  0  0  3  0  0  0  0  0  0
  194.1650  174.6660  144.5620 C   0  0  0  0  0  0  0  0  0  0  0  0
  194.8730  174.6520  143.3510 C   0  0  0  0  0  3  0  0  0  0  0  0
  197.0150  174.5780  142.0700 C   0  0  0  0  0  1  0  0  0  0  0  0
  196.9630  174.5350  144.5670 C   0  0  0  0  0  3  0  0  0  0  0  0
  196.2690  174.5890  143.3540 C   0  0  0  0  0  0  0  0  0  0  0  0
  196.2600  174.5410  145.7750 C   0  0  0  0  0  3  0  0  0  0  0  0
  185.6130  176.7980  145.8820 N   0  0  0  0  0  1  0  0  0  0  0  0
  185.8730  176.6130  144.4650 C   0  0  0  0  0  2  0  0  0  0  0  0
  1  4  1  0  0  0  0
  2 24  1  6  0  0  0
  2 22  1  0  0  0  0
  2 14  1  0  0  0  0
  2 17  1  0  0  0  0
  3  7  1  0  0  0  0
  4 37  1  0  0  0  0
  4 12  1  0  0  0  0
  5 10  1  0  0  0  0
  5 19  1  0  0  0  0
  6 11  1  0  0  0  0
  6  9  1  0  0  0  0
  7 10  1  0  0  0  0
  8 12  1  0  0  0  0
  8 26  2  0  0  0  0
  9  3  1  0  0  0  0
 10 23  1  0  0  0  0
 11 16  1  0  0  0  0
 13  9  1  0  0  0  0
 13 21  1  0  0  0  0
 15 28  1  0  0  0  0
 16 20  1  0  0  0  0
 17 13  1  0  0  0  0
 18 19  1  0  0  0  0
 18  8  1  0  0  0  0
 20  3  1  0  0  0  0
 20 15  1  0  0  0  0
 21 27  1  0  0  0  0
 21  7  1  0  0  0  0
 22 14  1  0  0  0  0
 22  6  1  0  0  0  0
 23 28  1  0  0  0  0
 25 18  1  0  0  0  0
 27 25  1  0  0  0  0
 27  1  1  0  0  0  0
 29 35  1  0  0  0  0
 30 23  1  0  0  0  0
 30 29  2  0  0  0  0
 31 34  2  0  0  0  0
 31 30  1  0  0  0  0
 32 34  1  0  0  0  0
 33 35  2  0  0  0  0
 34 33  1  0  0  0  0
 37 36  1  0  0  0  0
M  END
>  <MODEL>
3

>  <REMARK>
 VINA RESULT:      -8.6      2.336      7.497
  Name = 
  2 active torsions:
  status: ('A' for Active; 'I' for Inactive)
    1  A    between atoms: C_4  and  C_37
    2  A    between atoms: C_23  and  C_30
                            x       y       z     vdW  Elec       q    Type
                         _______ _______ _______ _____ _____    ______ ____

>  <TORSDO>
F 2

$$$$
=
 OpenBabel11112417153D

 37 44  0  0  1  0  0  0  0  0999 V2000
  194.0290  174.5850  143.1220 O   0  0  0  0  0  0  0  0  0  0  0  0
  191.0520  170.6850  141.5690 C   0  0  1  0  0  0  0  0  0  0  0  0
  190.6420  174.8560  142.0470 C   0  0  1  0  0  3  0  0  0  0  0  0
  195.3030  174.8870  143.6310 C   0  0  2  0  0  3  0  0  0  0  0  0
  190.7670  174.8400  145.9870 C   0  0  0  0  0  2  0  0  0  0  0  0
  189.7160  172.7010  141.0290 C   0  0  1  0  0  3  0  0  0  0  0  0
  191.2470  174.8390  143.4470 C   0  0  1  0  0  3  0  0  0  0  0  0
  194.0150  176.4580  145.2060 C   0  0  0  0  0  0  0  0  0  0  0  0
  190.9600  173.4920  141.4540 C   0  0  2  0  0  3  0  0  0  0  0  0
  190.2470  175.1680  144.5790 C   0  0  2  0  0  3  0  0  0  0  0  0
  188.8730  173.4990  140.0420 C   0  0  0  0  0  2  0  0  0  0  0  0
  195.2680  176.2130  144.3970 C   0  0  0  0  0  2  0  0  0  0  0  0
  191.8250  172.7110  142.3620 N   0  0  2  0  0  0  0  0  0  0  0  0
  191.5180  171.0820  140.1750 C   0  0  0  0  0  2  0  0  0  0  0  0
  188.8070  176.6320  142.3880 C   0  0  0  0  0  2  0  0  0  0  0  0
  188.5660  174.9160  140.5680 C   0  0  0  0  0  2  0  0  0  0  0  0
  191.2440  171.5180  142.7140 O   0  0  0  0  0  0  0  0  0  0  0  0
  193.1650  175.3920  145.6800 N   0  0  0  0  0  0  0  0  0  0  0  0
  191.9540  175.7030  146.4330 C   0  0  0  0  0  2  0  0  0  0  0  0
  189.1340  175.1940  141.9710 C   0  0  1  0  0  3  0  0  0  0  0  0
  191.9400  173.4790  143.6010 C   0  0  1  0  0  3  0  0  0  0  0  0
  190.0500  171.2720  140.5780 C   0  0  1  0  0  3  0  0  0  0  0  0
  189.7550  176.6310  144.5120 C   0  0  1  0  0  3  0  0  0  0  0  0
  190.8160  169.2120  141.8290 C   0  0  0  0  0  1  0  0  0  0  0  0
  193.5230  173.9930  145.4740 C   0  0  0  0  0  2  0  0  0  0  0  0
  193.7230  177.6530  145.4820 O   0  0  0  0  0  0  0  0  0  0  0  0
  193.4150  173.6380  143.9790 C   0  0  2  0  0  3  0  0  0  0  0  0
  189.7900  177.2100  143.2190 O   0  0  0  0  0  0  0  0  0  0  0  0
  188.2070  176.1640  146.4240 C   0  0  0  0  0  3  0  0  0  0  0  0
  188.4880  176.9070  145.2740 C   0  0  0  0  0  0  0  0  0  0  0  0
  187.6010  177.9160  144.8660 C   0  0  0  0  0  3  0  0  0  0  0  0
  185.5000  179.2320  145.1640 C   0  0  0  0  0  1  0  0  0  0  0  0
  186.1600  177.4150  146.7460 C   0  0  0  0  0  3  0  0  0  0  0  0
  186.4380  178.1660  145.6010 C   0  0  0  0  0  0  0  0  0  0  0  0
  187.0450  176.4140  147.1580 C   0  0  0  0  0  3  0  0  0  0  0  0
  196.4460  176.3640  142.0750 N   0  0  0  0  0  1  0  0  0  0  0  0
  196.3080  174.9810  142.5000 C   0  0  0  0  0  2  0  0  0  0  0  0
  1  4  1  0  0  0  0
  1 27  1  0  0  0  0
  2 24  1  1  0  0  0
  2 17  1  0  0  0  0
  3  7  1  0  0  0  0
  4 12  1  0  0  0  0
  5 19  1  0  0  0  0
  6  9  1  0  0  0  0
  7 21  1  0  0  0  0
  7 10  1  0  0  0  0
  8 26  2  0  0  0  0
  8 18  1  0  0  0  0
  9  3  1  0  0  0  0
  9 13  1  0  0  0  0
 10  5  1  0  0  0  0
 11 16  1  0  0  0  0
 11  6  1  0  0  0  0
 12  8  1  0  0  0  0
 13 17  1  0  0  0  0
 13 21  1  0  0  0  0
 14 22  1  0  0  0  0
 14  2  1  0  0  0  0
 15 28  1  0  0  0  0
 16 20  1  0  0  0  0
 18 19  1  0  0  0  0
 20  3  1  0  0  0  0
 20 15  1  0  0  0  0
 21 27  1  0  0  0  0
 22  6  1  0  0  0  0
 22  2  1  0  0  0  0
 23 10  1  0  0  0  0
 23 30  1  0  0  0  0
 25 18  1  0  0  0  0
 27 25  1  0  0  0  0
 28 23  1  0  0  0  0
 29 35  1  0  0  0  0
 30 29  2  0  0  0  0
 31 30  1  0  0  0  0
 31 34  2  0  0  0  0
 32 34  1  0  0  0  0
 33 35  2  0  0  0  0
 34 33  1  0  0  0  0
 36 37  1  0  0  0  0
 37  4  1  0  0  0  0
M  END
>  <MODEL>
4

>  <REMARK>
 VINA RESULT:      -8.6      1.695      5.472
  Name = 
  2 active torsions:
  status: ('A' for Active; 'I' for Inactive)
    1  A    between atoms: C_4  and  C_37
    2  A    between atoms: C_23  and  C_30
                            x       y       z     vdW  Elec       q    Type
                         _______ _______ _______ _____ _____    ______ ____

>  <TORSDO>
F 2

$$$$
=
 OpenBabel11112417153D

 37 44  0  0  1  0  0  0  0  0999 V2000
  189.3470  173.3770  140.9790 O   0  0  0  0  0  0  0  0  0  0  0  0
  187.8000  176.5300  144.7400 C   0  0  1  0  0  0  0  0  0  0  0  0
  191.3960  175.7460  142.6800 C   0  0  1  0  0  3  0  0  0  0  0  0
  188.9110  172.3410  140.1360 C   0  0  2  0  0  3  0  0  0  0  0  0
  191.9850  172.1630  144.2160 C   0  0  0  0  0  2  0  0  0  0  0  0
  190.0850  177.3260  144.2040 C   0  0  1  0  0  3  0  0  0  0  0  0
  191.2620  174.2350  142.8500 C   0  0  1  0  0  3  0  0  0  0  0  0
  191.1810  171.2770  140.7020 C   0  0  0  0  0  0  0  0  0  0  0  0
  190.0350  176.3160  143.0500 C   0  0  2  0  0  3  0  0  0  0  0  0
  192.3110  173.6040  143.7940 C   0  0  2  0  0  3  0  0  0  0  0  0
  191.0440  178.4670  143.8880 C   0  0  0  0  0  2  0  0  0  0  0  0
  190.1020  171.5010  139.6670 C   0  0  0  0  0  2  0  0  0  0  0  0
  189.0630  175.2330  143.3070 N   0  0  2  0  0  0  0  0  0  0  0  0
  187.5940  177.5320  143.6120 C   0  0  0  0  0  2  0  0  0  0  0  0
  193.9410  175.9930  142.9880 C   0  0  0  0  0  2  0  0  0  0  0  0
  192.4280  177.9450  143.4510 C   0  0  0  0  0  2  0  0  0  0  0  0
  188.5350  175.3170  144.5720 O   0  0  0  0  0  0  0  0  0  0  0  0
  190.9340  171.3490  142.1220 N   0  0  0  0  0  0  0  0  0  0  0  0
  192.0300  171.1490  143.0660 C   0  0  0  0  0  2  0  0  0  0  0  0
  192.5480  176.4120  143.4690 C   0  0  1  0  0  3  0  0  0  0  0  0
  189.8090  173.9760  143.2690 C   0  0  1  0  0  3  0  0  0  0  0  0
  188.6880  177.7690  144.6600 C   0  0  1  0  0  3  0  0  0  0  0  0
  193.7400  173.6870  143.2120 C   0  0  1  0  0  3  0  0  0  0  0  0
  186.8310  176.5850  145.9020 C   0  0  0  0  0  1  0  0  0  0  0  0
  189.5890  171.5600  142.6440 C   0  0  0  0  0  2  0  0  0  0  0  0
  192.3390  171.0020  140.2880 O   0  0  0  0  0  0  0  0  0  0  0  0
  189.1180  172.9900  142.3230 C   0  0  2  0  0  3  0  0  0  0  0  0
  193.9510  174.7570  142.3080 O   0  0  0  0  0  0  0  0  0  0  0  0
  194.9720  174.4300  145.2620 C   0  0  0  0  0  3  0  0  0  0  0  0
  194.8430  173.5080  144.2180 C   0  0  0  0  0  0  0  0  0  0  0  0
  195.7240  172.4180  144.1440 C   0  0  0  0  0  3  0  0  0  0  0  0
  197.6630  171.1090  145.0160 C   0  0  0  0  0  1  0  0  0  0  0  0
  196.8580  173.1910  146.1380 C   0  0  0  0  0  3  0  0  0  0  0  0
  196.7300  172.2620  145.1010 C   0  0  0  0  0  0  0  0  0  0  0  0
  195.9780  174.2740  146.2190 C   0  0  0  0  0  3  0  0  0  0  0  0
  188.2060  174.3680  138.9940 N   0  0  0  0  0  1  0  0  0  0  0  0
  188.1900  172.9160  138.9320 C   0  0  0  0  0  2  0  0  0  0  0  0
  1 27  1  0  0  0  0
  2 24  1  1  0  0  0
  3  7  1  0  0  0  0
  3  9  1  0  0  0  0
  3 20  1  0  0  0  0
  4  1  1  0  0  0  0
  6 22  1  0  0  0  0
  7 21  1  0  0  0  0
  7 10  1  0  0  0  0
  8 18  1  0  0  0  0
  9 13  1  0  0  0  0
  9  6  1  0  0  0  0
 10  5  1  0  0  0  0
 11  6  1  0  0  0  0
 12  4  1  0  0  0  0
 12  8  1  0  0  0  0
 13 17  1  0  0  0  0
 14 22  1  0  0  0  0
 14  2  1  0  0  0  0
 15 20  1  0  0  0  0
 16 20  1  0  0  0  0
 16 11  1  0  0  0  0
 17  2  1  0  0  0  0
 18 25  1  0  0  0  0
 18 19  1  0  0  0  0
 19  5  1  0  0  0  0
 21 13  1  0  0  0  0
 22  2  1  0  0  0  0
 23 10  1  0  0  0  0
 23 30  1  0  0  0  0
 26  8  2  0  0  0  0
 27 25  1  0  0  0  0
 27 21  1  0  0  0  0
 28 15  1  0  0  0  0
 28 23  1  0  0  0  0
 29 35  1  0  0  0  0
 30 29  2  0  0  0  0
 31 30  1  0  0  0  0
 31 34  2  0  0  0  0
 32 34  1  0  0  0  0
 33 35  2  0  0  0  0
 34 33  1  0  0  0  0
 37 36  1  0  0  0  0
 37  4  1  0  0  0  0
M  END
>  <MODEL>
5

>  <REMARK>
 VINA RESULT:      -8.3      2.225      6.831
  Name = 
  2 active torsions:
  status: ('A' for Active; 'I' for Inactive)
    1  A    between atoms: C_4  and  C_37
    2  A    between atoms: C_23  and  C_30
                            x       y       z     vdW  Elec       q    Type
                         _______ _______ _______ _____ _____    ______ ____

>  <TORSDO>
F 2

$$$$
=
 OpenBabel11112417153D

 37 44  0  0  1  0  0  0  0  0999 V2000
  191.2140  173.0700  141.6630 O   0  0  0  0  0  0  0  0  0  0  0  0
  189.9130  175.0210  146.2450 C   0  0  1  0  0  0  0  0  0  0  0  0
  193.4750  173.8740  144.2980 C   0  0  1  0  0  3  0  0  0  0  0  0
  190.6760  172.6020  140.4530 C   0  0  2  0  0  3  0  0  0  0  0  0
  192.7440  170.0000  144.3370 C   0  0  0  0  0  2  0  0  0  0  0  0
  192.3880  175.1550  146.2250 C   0  0  1  0  0  3  0  0  0  0  0  0
  192.8980  172.5350  143.8500 C   0  0  1  0  0  3  0  0  0  0  0  0
  192.4120  170.7230  140.7110 C   0  0  0  0  0  0  0  0  0  0  0  0
  192.2810  174.6920  144.7670 C   0  0  2  0  0  3  0  0  0  0  0  0
  193.5310  171.3040  144.5400 C   0  0  2  0  0  3  0  0  0  0  0  0
  193.6670  175.9510  146.4520 C   0  0  0  0  0  2  0  0  0  0  0  0
  191.6550  171.6380  139.7750 C   0  0  0  0  0  2  0  0  0  0  0  0
  191.0170  173.9720  144.5080 N   0  0  2  0  0  0  0  0  0  0  0  0
  190.2110  176.3630  145.5900 C   0  0  0  0  0  2  0  0  0  0  0  0
  195.8820  173.1460  144.8560 C   0  0  0  0  0  2  0  0  0  0  0  0
  194.9090  175.1920  145.9430 C   0  0  0  0  0  2  0  0  0  0  0  0
  190.3010  173.7750  145.6640 O   0  0  0  0  0  0  0  0  0  0  0  0
  191.9280  170.3690  142.0230 N   0  0  0  0  0  0  0  0  0  0  0  0
  192.7260  169.5010  142.8870 C   0  0  0  0  0  2  0  0  0  0  0  0
  194.5940  173.8020  145.3640 C   0  0  1  0  0  3  0  0  0  0  0  0
  191.3780  172.6380  144.0310 C   0  0  1  0  0  3  0  0  0  0  0  0
  191.1080  175.8430  146.7210 C   0  0  1  0  0  3  0  0  0  0  0  0
  195.0110  171.1120  144.1390 C   0  0  1  0  0  3  0  0  0  0  0  0
  188.7940  174.9790  147.2630 C   0  0  0  0  0  1  0  0  0  0  0  0
  190.6200  170.8120  142.4920 C   0  0  0  0  0  2  0  0  0  0  0  0
  193.5050  170.2460  140.3040 O   0  0  0  0  0  0  0  0  0  0  0  0
  190.6340  172.3340  142.7270 C   0  0  2  0  0  3  0  0  0  0  0  0
  195.6780  172.2980  143.7460 O   0  0  0  0  0  0  0  0  0  0  0  0
  197.1760  170.0640  144.8350 C   0  0  0  0  0  3  0  0  0  0  0  0
  195.8080  170.2380  145.0680 C   0  0  0  0  0  0  0  0  0  0  0  0
  195.2100  169.6220  146.1780 C   0  0  0  0  0  3  0  0  0  0  0  0
  195.3380  168.1760  148.2090 C   0  0  0  0  0  1  0  0  0  0  0  0
  197.3410  168.6530  146.7950 C   0  0  0  0  0  3  0  0  0  0  0  0
  195.9760  168.8290  147.0380 C   0  0  0  0  0  0  0  0  0  0  0  0
  197.9410  169.2710  145.6940 C   0  0  0  0  0  3  0  0  0  0  0  0
  189.0770  173.5990  138.9190 N   0  0  0  0  0  1  0  0  0  0  0  0
  190.3870  173.7660  139.5260 C   0  0  0  0  0  2  0  0  0  0  0  0
  1 27  1  0  0  0  0
  2 22  1  0  0  0  0
  2 24  1  1  0  0  0
  3  9  1  0  0  0  0
  3 20  1  0  0  0  0
  4  1  1  0  0  0  0
  5 10  1  0  0  0  0
  6 11  1  0  0  0  0
  6 22  1  0  0  0  0
  7 21  1  0  0  0  0
  7  3  1  0  0  0  0
  7 10  1  0  0  0  0
  8 18  1  0  0  0  0
  9  6  1  0  0  0  0
 12  4  1  0  0  0  0
 12  8  1  0  0  0  0
 13  9  1  0  0  0  0
 13 17  1  0  0  0  0
 14  2  1  0  0  0  0
 14 22  1  0  0  0  0
 15 20  1  0  0  0  0
 16 11  1  0  0  0  0
 17  2  1  0  0  0  0
 18 25  1  0  0  0  0
 18 19  1  0  0  0  0
 19  5  1  0  0  0  0
 20 16  1  0  0  0  0
 21 13  1  0  0  0  0
 23 10  1  0  0  0  0
 23 30  1  0  0  0  0
 25 27  1  0  0  0  0
 26  8  2  0  0  0  0
 27 21  1  0  0  0  0
 28 23  1  0  0  0  0
 28 15  1  0  0  0  0
 29 30  2  0  0  0  0
 29 35  1  0  0  0  0
 30 31  1  0  0  0  0
 31 34  2  0  0  0  0
 33 34  1  0  0  0  0
 34 32  1  0  0  0  0
 35 33  2  0  0  0  0
 36 37  1  0  0  0  0
 37  4  1  0  0  0  0
M  END
>  <MODEL>
6

>  <REMARK>
 VINA RESULT:      -8.2      3.113      7.592
  Name = 
  2 active torsions:
  status: ('A' for Active; 'I' for Inactive)
    1  A    between atoms: C_4  and  C_37
    2  A    between atoms: C_23  and  C_30
                            x       y       z     vdW  Elec       q    Type
                         _______ _______ _______ _____ _____    ______ ____

>  <TORSDO>
F 2

$$$$
=
 OpenBabel11112417153D

 37 44  0  0  1  0  0  0  0  0999 V2000
  190.9430  175.9210  143.8620 O   0  0  0  0  0  0  0  0  0  0  0  0
  195.7930  174.2940  144.4310 C   0  0  1  0  0  0  0  0  0  0  0  0
  193.0210  174.6320  141.2690 C   0  0  1  0  0  3  0  0  0  0  0  0
  189.8400  176.4210  144.5730 C   0  0  2  0  0  3  0  0  0  0  0  0
  190.5940  171.7940  142.5350 C   0  0  0  0  0  2  0  0  0  0  0  0
  195.4570  174.3060  141.9750 C   0  0  1  0  0  3  0  0  0  0  0  0
  191.9000  173.9770  142.0710 C   0  0  1  0  0  3  0  0  0  0  0  0
  188.4900  174.7990  143.1060 C   0  0  0  0  0  0  0  0  0  0  0  0
  194.1040  174.9610  142.2850 C   0  0  2  0  0  3  0  0  0  0  0  0
  191.4790  172.5810  141.5560 C   0  0  2  0  0  3  0  0  0  0  0  0
  195.9380  174.6840  140.5800 C   0  0  0  0  0  2  0  0  0  0  0  0
  188.5430  176.1360  143.8100 C   0  0  0  0  0  2  0  0  0  0  0  0
  193.6470  174.6590  143.6570 N   0  0  2  0  0  0  0  0  0  0  0  0
  196.1590  175.7100  144.0090 C   0  0  0  0  0  2  0  0  0  0  0  0
  192.5420  173.6230  138.9480 C   0  0  0  0  0  2  0  0  0  0  0  0
  194.8560  174.4240  139.5130 C   0  0  0  0  0  2  0  0  0  0  0  0
  194.4760  173.7590  144.2800 O   0  0  0  0  0  0  0  0  0  0  0  0
  189.2900  173.6680  143.5070 N   0  0  0  0  0  0  0  0  0  0  0  0
  189.2090  172.4140  142.7630 C   0  0  0  0  0  2  0  0  0  0  0  0
  193.5630  173.8100  140.0750 C   0  0  1  0  0  3  0  0  0  0  0  0
  192.3530  173.9910  143.5370 C   0  0  1  0  0  3  0  0  0  0  0  0
  196.4880  174.5250  143.0910 C   0  0  1  0  0  3  0  0  0  0  0  0
  190.8130  172.6530  140.1630 C   0  0  1  0  0  3  0  0  0  0  0  0
  196.6920  173.6170  145.4420 C   0  0  0  0  0  1  0  0  0  0  0  0
  190.1430  173.7270  144.6890 C   0  0  0  0  0  2  0  0  0  0  0  0
  187.6950  174.6820  142.1350 O   0  0  0  0  0  0  0  0  0  0  0  0
  191.3250  174.6830  144.4360 C   0  0  2  0  0  3  0  0  0  0  0  0
  191.2050  173.7630  139.3750 O   0  0  0  0  0  0  0  0  0  0  0  0
  189.7370  171.1140  138.5060 C   0  0  0  0  0  3  0  0  0  0  0  0
  190.7760  171.3500  139.4130 C   0  0  0  0  0  0  0  0  0  0  0  0
  191.7790  170.3830  139.5860 C   0  0  0  0  0  3  0  0  0  0  0  0
  192.7940  168.1660  139.0530 C   0  0  0  0  0  1  0  0  0  0  0  0
  190.6880  168.9540  137.9640 C   0  0  0  0  0  3  0  0  0  0  0  0
  191.7330  169.1880  138.8640 C   0  0  0  0  0  0  0  0  0  0  0  0
  189.6920  169.9180  137.7850 C   0  0  0  0  0  3  0  0  0  0  0  0
  191.0040  178.4420  143.8870 N   0  0  0  0  0  1  0  0  0  0  0  0
  189.9870  177.9160  144.7820 C   0  0  0  0  0  2  0  0  0  0  0  0
  1 27  1  0  0  0  0
  1  4  1  0  0  0  0
  2 24  1  1  0  0  0
  3  7  1  0  0  0  0
  3  9  1  0  0  0  0
  4 37  1  0  0  0  0
  5 19  1  0  0  0  0
  6  9  1  0  0  0  0
  6 22  1  0  0  0  0
  7 21  1  0  0  0  0
  8 18  1  0  0  0  0
  8 12  1  0  0  0  0
  9 13  1  0  0  0  0
 10  7  1  0  0  0  0
 10  5  1  0  0  0  0
 11  6  1  0  0  0  0
 12  4  1  0  0  0  0
 13 17  1  0  0  0  0
 14  2  1  0  0  0  0
 15 28  1  0  0  0  0
 15 20  1  0  0  0  0
 16 20  1  0  0  0  0
 16 11  1  0  0  0  0
 17  2  1  0  0  0  0
 18 25  1  0  0  0  0
 19 18  1  0  0  0  0
 20  3  1  0  0  0  0
 21 13  1  0  0  0  0
 21 27  1  0  0  0  0
 22 14  1  0  0  0  0
 22  2  1  0  0  0  0
 23 10  1  0  0  0  0
 26  8  2  0  0  0  0
 27 25  1  0  0  0  0
 28 23  1  0  0  0  0
 29 30  1  0  0  0  0
 30 31  2  0  0  0  0
 30 23  1  0  0  0  0
 33 34  2  0  0  0  0
 34 32  1  0  0  0  0
 34 31  1  0  0  0  0
 35 33  1  0  0  0  0
 35 29  2  0  0  0  0
 36 37  1  0  0  0  0
M  END
>  <MODEL>
7

>  <REMARK>
 VINA RESULT:      -7.5      2.785      6.874
  Name = 
  2 active torsions:
  status: ('A' for Active; 'I' for Inactive)
    1  A    between atoms: C_4  and  C_37
    2  A    between atoms: C_23  and  C_30
                            x       y       z     vdW  Elec       q    Type
                         _______ _______ _______ _____ _____    ______ ____

>  <TORSDO>
F 2

$$$$
=
 OpenBabel11112417153D

 37 44  0  0  1  0  0  0  0  0999 V2000
  195.2240  174.2180  144.7800 O   0  0  0  0  0  0  0  0  0  0  0  0
  190.8010  176.2140  146.4940 C   0  0  1  0  0  0  0  0  0  0  0  0
  191.9610  173.0230  143.9910 C   0  0  1  0  0  3  0  0  0  0  0  0
  196.6170  174.3960  144.8080 C   0  0  2  0  0  3  0  0  0  0  0  0
  193.2830  175.2710  141.0340 C   0  0  0  0  0  2  0  0  0  0  0  0
  190.1090  174.1130  145.3760 C   0  0  1  0  0  3  0  0  0  0  0  0
  192.9280  173.8920  143.1920 C   0  0  1  0  0  3  0  0  0  0  0  0
  196.4740  173.8580  142.2980 C   0  0  0  0  0  0  0  0  0  0  0  0
  191.6110  173.8400  145.2250 C   0  0  2  0  0  3  0  0  0  0  0  0
  192.4940  174.1520  141.7310 C   0  0  2  0  0  3  0  0  0  0  0  0
  189.3160  172.8120  145.3880 C   0  0  0  0  0  2  0  0  0  0  0  0
  197.2610  173.7380  143.5840 C   0  0  0  0  0  2  0  0  0  0  0  0
  192.4050  175.0850  145.2750 N   0  0  2  0  0  0  0  0  0  0  0  0
  190.9170  175.1530  147.5810 C   0  0  0  0  0  2  0  0  0  0  0  0
  191.0170  171.5620  142.0910 C   0  0  0  0  0  2  0  0  0  0  0  0
  189.6740  171.9160  144.1850 C   0  0  0  0  0  2  0  0  0  0  0  0
  191.6000  176.1980  145.3100 O   0  0  0  0  0  0  0  0  0  0  0  0
  195.5100  174.9050  142.0630 N   0  0  0  0  0  0  0  0  0  0  0  0
  194.7640  174.9440  140.8080 C   0  0  0  0  0  2  0  0  0  0  0  0
  190.7040  172.5390  143.2280 C   0  0  1  0  0  3  0  0  0  0  0  0
  193.1430  175.1680  144.0160 C   0  0  1  0  0  3  0  0  0  0  0  0
  189.7950  175.0660  146.5380 C   0  0  1  0  0  3  0  0  0  0  0  0
  192.5170  172.8620  140.8800 C   0  0  1  0  0  3  0  0  0  0  0  0
  190.1840  177.5410  146.8830 C   0  0  0  0  0  1  0  0  0  0  0  0
  195.3030  175.9740  143.0340 C   0  0  0  0  0  2  0  0  0  0  0  0
  196.6930  173.0040  141.3980 O   0  0  0  0  0  0  0  0  0  0  0  0
  194.6280  175.4110  144.2990 C   0  0  2  0  0  3  0  0  0  0  0  0
  192.3410  171.6640  141.6140 O   0  0  0  0  0  0  0  0  0  0  0  0
  192.2410  172.3770  138.4390 C   0  0  0  0  0  3  0  0  0  0  0  0
  191.7130  172.9280  139.6100 C   0  0  0  0  0  0  0  0  0  0  0  0
  190.4340  173.5050  139.5900 C   0  0  0  0  0  3  0  0  0  0  0  0
  188.3460  174.1530  138.3850 C   0  0  0  0  0  1  0  0  0  0  0  0
  190.2340  172.9920  137.2330 C   0  0  0  0  0  3  0  0  0  0  0  0
  189.6970  173.5380  138.4030 C   0  0  0  0  0  0  0  0  0  0  0  0
  191.5050  172.4100  137.2510 C   0  0  0  0  0  3  0  0  0  0  0  0
  196.8180  172.3910  146.1670 N   0  0  0  0  0  1  0  0  0  0  0  0
  197.1960  173.7910  146.0720 C   0  0  0  0  0  2  0  0  0  0  0  0
  1  4  1  0  0  0  0
  2 22  1  0  0  0  0
  2 24  1  1  0  0  0
  2 14  1  0  0  0  0
  3  9  1  0  0  0  0
  4 37  1  0  0  0  0
  5 10  1  0  0  0  0
  6 11  1  0  0  0  0
  6 22  1  0  0  0  0
  7  3  1  0  0  0  0
  7 21  1  0  0  0  0
  8 12  1  0  0  0  0
  9 13  1  0  0  0  0
  9  6  1  0  0  0  0
 10  7  1  0  0  0  0
 12  4  1  0  0  0  0
 13 17  1  0  0  0  0
 15 20  1  0  0  0  0
 16 11  1  0  0  0  0
 17  2  1  0  0  0  0
 18  8  1  0  0  0  0
 18 25  1  0  0  0  0
 19  5  1  0  0  0  0
 19 18  1  0  0  0  0
 20  3  1  0  0  0  0
 20 16  1  0  0  0  0
 21 27  1  0  0  0  0
 21 13  1  0  0  0  0
 22 14  1  0  0  0  0
 23 28  1  0  0  0  0
 23 10  1  0  0  0  0
 25 27  1  0  0  0  0
 26  8  2  0  0  0  0
 27  1  1  0  0  0  0
 28 15  1  0  0  0  0
 29 30  1  0  0  0  0
 30 23  1  0  0  0  0
 31 30  2  0  0  0  0
 32 34  1  0  0  0  0
 33 35  1  0  0  0  0
 33 34  2  0  0  0  0
 34 31  1  0  0  0  0
 35 29  2  0  0  0  0
 37 36  1  0  0  0  0
M  END
>  <MODEL>
8

>  <REMARK>
 VINA RESULT:      -7.4      3.087      6.305
  Name = 
  2 active torsions:
  status: ('A' for Active; 'I' for Inactive)
    1  A    between atoms: C_4  and  C_37
    2  A    between atoms: C_23  and  C_30
                            x       y       z     vdW  Elec       q    Type
                         _______ _______ _______ _____ _____    ______ ____

>  <TORSDO>
F 2

$$$$
=
 OpenBabel11112417153D

 37 44  0  0  1  0  0  0  0  0999 V2000
  189.4990  174.0020  141.3640 O   0  0  0  0  0  0  0  0  0  0  0  0
  189.0300  176.2080  145.9910 C   0  0  1  0  0  0  0  0  0  0  0  0
  192.1930  175.0280  143.4610 C   0  0  1  0  0  3  0  0  0  0  0  0
  188.7570  173.4450  140.3100 C   0  0  2  0  0  3  0  0  0  0  0  0
  191.6240  171.1470  143.8640 C   0  0  0  0  0  2  0  0  0  0  0  0
  191.4480  176.4020  145.4850 C   0  0  1  0  0  3  0  0  0  0  0  0
  191.5890  173.6490  143.2120 C   0  0  1  0  0  3  0  0  0  0  0  0
  190.5770  171.6290  140.3360 C   0  0  0  0  0  0  0  0  0  0  0  0
  191.0810  175.8440  144.1040 C   0  0  2  0  0  3  0  0  0  0  0  0
  192.3870  172.4810  143.8360 C   0  0  2  0  0  3  0  0  0  0  0  0
  192.7180  177.2410  145.4140 C   0  0  0  0  0  2  0  0  0  0  0  0
  189.6230  172.4640  139.5120 C   0  0  0  0  0  2  0  0  0  0  0  0
  189.8180  175.0780  144.1370 N   0  0  2  0  0  0  0  0  0  0  0  0
  189.1480  177.5130  145.2140 C   0  0  0  0  0  2  0  0  0  0  0  0
  194.6870  174.3950  143.5840 C   0  0  0  0  0  2  0  0  0  0  0  0
  193.8660  176.4820  144.7190 C   0  0  0  0  0  2  0  0  0  0  0  0
  189.3450  174.9380  145.4180 O   0  0  0  0  0  0  0  0  0  0  0  0
  190.3670  171.3480  141.7350 N   0  0  0  0  0  0  0  0  0  0  0  0
  191.3460  170.5560  142.4760 C   0  0  0  0  0  2  0  0  0  0  0  0
  193.4970  175.0500  144.2930 C   0  0  1  0  0  3  0  0  0  0  0  0
  190.1290  173.7270  143.6760 C   0  0  1  0  0  3  0  0  0  0  0  0
  190.2630  177.0880  146.1780 C   0  0  1  0  0  3  0  0  0  0  0  0
  193.7680  172.2990  143.1680 C   0  0  1  0  0  3  0  0  0  0  0  0
  188.1290  176.2040  147.2070 C   0  0  0  0  0  1  0  0  0  0  0  0
  189.1570  171.7880  142.4210 C   0  0  0  0  0  2  0  0  0  0  0  0
  191.5890  171.1550  139.7530 O   0  0  0  0  0  0  0  0  0  0  0  0
  189.1610  173.3220  142.5610 C   0  0  2  0  0  3  0  0  0  0  0  0
  194.3050  173.4740  142.5860 O   0  0  0  0  0  0  0  0  0  0  0  0
  194.6680  171.5140  145.3700 C   0  0  0  0  0  3  0  0  0  0  0  0
  194.7600  171.5060  143.9740 C   0  0  0  0  0  0  0  0  0  0  0  0
  195.7550  170.7380  143.3500 C   0  0  0  0  0  3  0  0  0  0  0  0
  197.7080  169.1860  143.4540 C   0  0  0  0  0  1  0  0  0  0  0  0
  196.5610  170.0120  145.5140 C   0  0  0  0  0  3  0  0  0  0  0  0
  196.6540  169.9940  144.1190 C   0  0  0  0  0  0  0  0  0  0  0  0
  195.5670  170.7700  146.1390 C   0  0  0  0  0  3  0  0  0  0  0  0
  187.8150  175.6820  140.1750 N   0  0  0  0  0  1  0  0  0  0  0  0
  188.2540  174.5400  139.3900 C   0  0  0  0  0  2  0  0  0  0  0  0
  1 27  1  0  0  0  0
  2 22  1  0  0  0  0
  2 24  1  1  0  0  0
  3  9  1  0  0  0  0
  3 20  1  0  0  0  0
  4  1  1  0  0  0  0
  6 22  1  0  0  0  0
  7  3  1  0  0  0  0
  7 21  1  0  0  0  0
  7 10  1  0  0  0  0
  8 18  1  0  0  0  0
  9 13  1  0  0  0  0
  9  6  1  0  0  0  0
 10  5  1  0  0  0  0
 11  6  1  0  0  0  0
 12  4  1  0  0  0  0
 12  8  1  0  0  0  0
 13 17  1  0  0  0  0
 14  2  1  0  0  0  0
 14 22  1  0  0  0  0
 15 20  1  0  0  0  0
 16 11  1  0  0  0  0
 17  2  1  0  0  0  0
 18 25  1  0  0  0  0
 18 19  1  0  0  0  0
 19  5  1  0  0  0  0
 20 16  1  0  0  0  0
 21 13  1  0  0  0  0
 23 10  1  0  0  0  0
 23 30  1  0  0  0  0
 25 27  1  0  0  0  0
 26  8  2  0  0  0  0
 27 21  1  0  0  0  0
 28 23  1  0  0  0  0
 28 15  1  0  0  0  0
 29 35  1  0  0  0  0
 30 29  2  0  0  0  0
 31 30  1  0  0  0  0
 31 34  2  0  0  0  0
 32 34  1  0  0  0  0
 33 35  2  0  0  0  0
 34 33  1  0  0  0  0
 37 36  1  0  0  0  0
 37  4  1  0  0  0  0
M  END
>  <MODEL>
9

>  <REMARK>
 VINA RESULT:      -7.4      2.596      7.097
  Name = 
  2 active torsions:
  status: ('A' for Active; 'I' for Inactive)
    1  A    between atoms: C_4  and  C_37
    2  A    between atoms: C_23  and  C_30
                            x       y       z     vdW  Elec       q    Type
                         _______ _______ _______ _____ _____    ______ ____

>  <TORSDO>
F 2

$$$$
