=
 OpenBabel11112416573D

 31 35  0  0  1  0  0  0  0  0999 V2000
  184.4960  178.2500  146.3860 C   0  0  0  0  0  0  0  0  0  0  0  0
  187.0570  177.0240  143.8630 C   0  0  0  0  0  0  0  0  0  0  0  0
  186.4810  177.2870  142.5830 C   0  0  0  0  0  0  0  0  0  0  0  0
  184.6420  178.0440  141.1660 C   0  0  0  0  0  0  0  0  0  0  0  0
  186.3870  177.2600  145.0960 C   0  0  0  0  0  0  0  0  0  0  0  0
  185.3430  178.2770  147.6180 C   0  0  0  0  0  2  0  0  0  0  0  0
  185.1800  177.7990  142.4300 C   0  0  0  0  0  3  0  0  0  0  0  0
  188.9820  176.2280  145.1540 C   0  0  0  0  0  0  0  0  0  0  0  0
  183.3110  178.6690  146.4240 O   0  0  0  0  0  0  0  0  0  0  0  0
  188.5250  176.5170  141.4940 C   0  0  0  0  0  3  0  0  0  0  0  0
  183.3550  178.5500  141.0480 O   0  0  0  0  0  1  0  0  0  0  0  0
  188.2940  176.4530  146.3030 N   0  0  0  0  0  0  0  0  0  0  0  0
  188.3810  176.5030  143.9150 C   0  0  0  0  0  0  0  0  0  0  0  0
  190.3100  175.6940  145.2140 N   0  0  0  0  0  2  0  0  0  0  0  0
  185.0630  177.8120  145.1510 N   0  0  0  0  0  2  0  0  0  0  0  0
  185.3960  177.7830  140.0220 C   0  0  0  0  0  3  0  0  0  0  0  0
  187.0400  176.9640  146.3080 C   0  0  0  0  0  0  0  0  0  0  0  0
  186.3140  177.0970  147.6170 C   0  0  0  0  0  2  0  0  0  0  0  0
  189.0930  176.2580  142.7350 C   0  0  0  0  0  3  0  0  0  0  0  0
  187.2330  177.0250  141.4080 C   0  0  0  0  0  0  0  0  0  0  0  0
  186.6890  177.2740  140.1440 C   0  0  0  0  0  3  0  0  0  0  0  0
  190.8160  176.5680  147.4400 C   0  0  0  0  0  1  0  0  0  0  0  0
  190.9980  175.4140  146.4670 C   0  0  2  0  0  3  0  0  0  0  0  0
  195.1730  174.6720  145.7440 C   0  0  0  0  0  0  0  0  0  0  0  0
  193.4200  176.1020  146.6030 C   0  0  0  0  0  3  0  0  0  0  0  0
  191.9440  173.0450  145.2090 F   0  0  0  0  0  0  0  0  0  0  0  0
  196.5200  174.4310  145.5100 O   0  0  0  0  0  1  0  0  0  0  0  0
  194.7760  175.8580  146.3670 C   0  0  0  0  0  3  0  0  0  0  0  0
  192.8600  173.9710  145.5920 C   0  0  0  0  0  0  0  0  0  0  0  0
  192.4530  175.1600  146.2160 C   0  0  0  0  0  0  0  0  0  0  0  0
  194.2170  173.7310  145.3570 C   0  0  0  0  0  3  0  0  0  0  0  0
  1  9  2  0  0  0  0
  1  6  1  0  0  0  0
  2 13  1  0  0  0  0
  2  5  1  0  0  0  0
  3  2  2  0  0  0  0
  4  7  2  0  0  0  0
  5 15  1  0  0  0  0
  5 17  2  0  0  0  0
  7  3  1  0  0  0  0
  8 14  1  0  0  0  0
  8 12  2  0  0  0  0
 10 19  1  0  0  0  0
 11  4  1  0  0  0  0
 12 17  1  0  0  0  0
 13  8  1  0  0  0  0
 14 23  1  0  0  0  0
 15  1  1  0  0  0  0
 16 21  2  0  0  0  0
 16  4  1  0  0  0  0
 17 18  1  0  0  0  0
 18  6  1  0  0  0  0
 19 13  2  0  0  0  0
 20 10  2  0  0  0  0
 20  3  1  0  0  0  0
 21 20  1  0  0  0  0
 23 22  1  1  0  0  0
 24 28  1  0  0  0  0
 26 29  1  0  0  0  0
 27 24  1  0  0  0  0
 28 25  2  0  0  0  0
 29 30  2  0  0  0  0
 30 23  1  0  0  0  0
 30 25  1  0  0  0  0
 31 29  1  0  0  0  0
 31 24  2  0  0  0  0
M  END
>  <MODEL>
1

>  <REMARK>
 VINA RESULT:      -9.5      0.000      0.000
  Name = 
  2 active torsions:
  status: ('A' for Active; 'I' for Inactive)
    1  A    between atoms: C_5  and  N_16
    2  A    between atoms: C_5  and  C_30
                            x       y       z     vdW  Elec       q    Type
                         _______ _______ _______ _____ _____    ______ ____

>  <TORSDO>
F 2

$$$$
=
 OpenBabel11112416573D

 31 35  0  0  1  0  0  0  0  0999 V2000
  185.1900  178.0680  141.0370 C   0  0  0  0  0  0  0  0  0  0  0  0
  187.2550  177.1400  144.0860 C   0  0  0  0  0  0  0  0  0  0  0  0
  186.4380  177.4710  145.2090 C   0  0  0  0  0  0  0  0  0  0  0  0
  184.4120  178.4160  146.1930 C   0  0  0  0  0  0  0  0  0  0  0  0
  186.8890  177.4050  142.7370 C   0  0  0  0  0  0  0  0  0  0  0  0
  185.9600  177.3470  139.9770 C   0  0  0  0  0  2  0  0  0  0  0  0
  185.1890  178.1030  145.0760 C   0  0  0  0  0  3  0  0  0  0  0  0
  189.3400  176.1640  143.2460 C   0  0  0  0  0  0  0  0  0  0  0  0
  184.1220  178.6660  140.7470 O   0  0  0  0  0  0  0  0  0  0  0  0
  188.1140  176.5340  146.7170 C   0  0  0  0  0  3  0  0  0  0  0  0
  183.1840  179.0410  146.0290 O   0  0  0  0  0  1  0  0  0  0  0  0
  188.9550  176.4540  141.9770 N   0  0  0  0  0  0  0  0  0  0  0  0
  188.5060  176.5030  144.3240 C   0  0  0  0  0  0  0  0  0  0  0  0
  190.6050  175.5320  143.4780 N   0  0  0  0  0  2  0  0  0  0  0  0
  185.6380  178.0150  142.3920 N   0  0  0  0  0  2  0  0  0  0  0  0
  184.8680  178.1010  147.4730 C   0  0  0  0  0  3  0  0  0  0  0  0
  187.7680  177.0440  141.6970 C   0  0  0  0  0  0  0  0  0  0  0  0
  187.4570  177.4140  140.2740 C   0  0  0  0  0  2  0  0  0  0  0  0
  188.9150  176.2100  145.6300 C   0  0  0  0  0  3  0  0  0  0  0  0
  186.8870  177.1590  146.5200 C   0  0  0  0  0  0  0  0  0  0  0  0
  186.1040  177.4730  147.6340 C   0  0  0  0  0  3  0  0  0  0  0  0
  191.4510  173.6250  142.2030 C   0  0  0  0  0  1  0  0  0  0  0  0
  191.5020  175.1320  142.4030 C   0  0  2  0  0  3  0  0  0  0  0  0
  195.5230  176.4060  143.2440 C   0  0  0  0  0  0  0  0  0  0  0  0
  193.2750  175.9370  144.0040 C   0  0  0  0  0  3  0  0  0  0  0  0
  193.5160  175.2910  140.4000 F   0  0  0  0  0  0  0  0  0  0  0  0
  196.8220  176.8170  143.5130 O   0  0  0  0  0  1  0  0  0  0  0  0
  194.5820  176.3510  144.2750 C   0  0  0  0  0  3  0  0  0  0  0  0
  193.8520  175.6340  141.6690 C   0  0  0  0  0  0  0  0  0  0  0  0
  192.9010  175.5780  142.6990 C   0  0  0  0  0  0  0  0  0  0  0  0
  195.1580  176.0490  141.9440 C   0  0  0  0  0  3  0  0  0  0  0  0
  1 15  1  0  0  0  0
  2 13  2  0  0  0  0
  2  3  1  0  0  0  0
  3 20  1  0  0  0  0
  4 16  2  0  0  0  0
  5  2  1  0  0  0  0
  6 18  1  0  0  0  0
  6  1  1  0  0  0  0
  7  3  2  0  0  0  0
  7  4  1  0  0  0  0
  8 14  1  0  0  0  0
  8 13  1  0  0  0  0
  9  1  2  0  0  0  0
 11  4  1  0  0  0  0
 12  8  2  0  0  0  0
 13 19  1  0  0  0  0
 15  5  1  0  0  0  0
 16 21  1  0  0  0  0
 17 12  1  0  0  0  0
 17  5  2  0  0  0  0
 18 17  1  0  0  0  0
 19 10  2  0  0  0  0
 20 10  1  0  0  0  0
 20 21  2  0  0  0  0
 23 22  1  1  0  0  0
 23 30  1  0  0  0  0
 23 14  1  0  0  0  0
 24 27  1  0  0  0  0
 24 28  1  0  0  0  0
 25 28  2  0  0  0  0
 26 29  1  0  0  0  0
 29 31  1  0  0  0  0
 29 30  2  0  0  0  0
 30 25  1  0  0  0  0
 31 24  2  0  0  0  0
M  END
>  <MODEL>
2

>  <REMARK>
 VINA RESULT:      -9.3      2.254      4.552
  Name = 
  2 active torsions:
  status: ('A' for Active; 'I' for Inactive)
    1  A    between atoms: C_5  and  N_16
    2  A    between atoms: C_5  and  C_30
                            x       y       z     vdW  Elec       q    Type
                         _______ _______ _______ _____ _____    ______ ____

>  <TORSDO>
F 2

$$$$
=
 OpenBabel11112416573D

 31 35  0  0  1  0  0  0  0  0999 V2000
  185.0260  178.0300  146.8150 C   0  0  0  0  0  0  0  0  0  0  0  0
  186.7540  177.3360  143.5050 C   0  0  0  0  0  0  0  0  0  0  0  0
  185.7810  177.6330  142.5030 C   0  0  0  0  0  0  0  0  0  0  0  0
  183.5280  178.2790  141.8140 C   0  0  0  0  0  0  0  0  0  0  0  0
  186.4900  177.3860  144.9020 C   0  0  0  0  0  0  0  0  0  0  0  0
  186.2130  178.0560  147.7230 C   0  0  0  0  0  2  0  0  0  0  0  0
  184.4590  177.9950  142.8160 C   0  0  0  0  0  3  0  0  0  0  0  0
  189.0510  176.6730  144.0430 C   0  0  0  0  0  0  0  0  0  0  0  0
  183.8820  178.2980  147.2630 O   0  0  0  0  0  0  0  0  0  0  0  0
  187.4350  177.2090  140.7580 C   0  0  0  0  0  3  0  0  0  0  0  0
  182.2310  178.6340  142.1560 O   0  0  0  0  0  1  0  0  0  0  0  0
  188.7450  176.7180  145.3650 N   0  0  0  0  0  0  0  0  0  0  0  0
  188.0670  176.9760  143.0880 C   0  0  0  0  0  0  0  0  0  0  0  0
  190.3710  176.3000  143.6300 N   0  0  0  0  0  2  0  0  0  0  0  0
  185.2090  177.7670  145.4230 N   0  0  0  0  0  2  0  0  0  0  0  0
  183.9010  178.2060  140.4730 C   0  0  0  0  0  3  0  0  0  0  0  0
  187.5170  177.0710  145.8130 C   0  0  0  0  0  0  0  0  0  0  0  0
  187.2340  177.0060  147.2870 C   0  0  0  0  0  2  0  0  0  0  0  0
  188.3860  176.9180  141.7260 C   0  0  0  0  0  3  0  0  0  0  0  0
  186.1420  177.5630  141.1310 C   0  0  0  0  0  0  0  0  0  0  0  0
  185.2060  177.8490  140.1330 C   0  0  0  0  0  3  0  0  0  0  0  0
  192.5300  177.0610  144.4880 C   0  0  0  0  0  1  0  0  0  0  0  0
  191.4430  176.0020  144.5710 C   0  0  2  0  0  3  0  0  0  0  0  0
  193.0770  172.0980  143.8020 C   0  0  0  0  0  0  0  0  0  0  0  0
  191.8790  174.0540  143.0310 C   0  0  0  0  0  3  0  0  0  0  0  0
  192.8200  174.4940  146.5510 F   0  0  0  0  0  0  0  0  0  0  0  0
  193.6050  170.8380  143.5560 O   0  0  0  0  0  1  0  0  0  0  0  0
  192.4110  172.7850  142.7840 C   0  0  0  0  0  3  0  0  0  0  0  0
  192.6810  173.9460  145.3170 C   0  0  0  0  0  0  0  0  0  0  0  0
  192.0090  174.6420  144.2990 C   0  0  0  0  0  0  0  0  0  0  0  0
  193.2110  172.6780  145.0660 C   0  0  0  0  0  3  0  0  0  0  0  0
  1  9  2  0  0  0  0
  1  6  1  0  0  0  0
  2  5  1  0  0  0  0
  3  7  1  0  0  0  0
  3  2  2  0  0  0  0
  4 11  1  0  0  0  0
  4  7  2  0  0  0  0
  5 15  1  0  0  0  0
  5 17  2  0  0  0  0
  8 12  2  0  0  0  0
 10 20  2  0  0  0  0
 10 19  1  0  0  0  0
 12 17  1  0  0  0  0
 13  2  1  0  0  0  0
 13  8  1  0  0  0  0
 14  8  1  0  0  0  0
 14 23  1  0  0  0  0
 15  1  1  0  0  0  0
 16  4  1  0  0  0  0
 17 18  1  0  0  0  0
 18  6  1  0  0  0  0
 19 13  2  0  0  0  0
 20  3  1  0  0  0  0
 21 16  2  0  0  0  0
 21 20  1  0  0  0  0
 23 22  1  6  0  0  0
 24 31  1  0  0  0  0
 25 30  2  0  0  0  0
 27 24  1  0  0  0  0
 28 25  1  0  0  0  0
 28 24  2  0  0  0  0
 29 26  1  0  0  0  0
 30 23  1  0  0  0  0
 30 29  1  0  0  0  0
 31 29  2  0  0  0  0
M  END
>  <MODEL>
3

>  <REMARK>
 VINA RESULT:      -9.3      1.687      2.138
  Name = 
  2 active torsions:
  status: ('A' for Active; 'I' for Inactive)
    1  A    between atoms: C_5  and  N_16
    2  A    between atoms: C_5  and  C_30
                            x       y       z     vdW  Elec       q    Type
                         _______ _______ _______ _____ _____    ______ ____

>  <TORSDO>
F 2

$$$$
=
 OpenBabel11112416573D

 31 35  0  0  1  0  0  0  0  0999 V2000
  188.6030  174.1560  140.3450 C   0  0  0  0  0  0  0  0  0  0  0  0
  188.0220  176.4120  143.3440 C   0  0  0  0  0  0  0  0  0  0  0  0
  186.8980  177.2210  142.9950 C   0  0  0  0  0  0  0  0  0  0  0  0
  185.1950  177.9710  141.4130 C   0  0  0  0  0  0  0  0  0  0  0  0
  188.6270  175.4750  142.4600 C   0  0  0  0  0  0  0  0  0  0  0  0
  189.5130  173.1410  140.9600 C   0  0  0  0  0  2  0  0  0  0  0  0
  186.2920  177.1670  141.7280 C   0  0  0  0  0  3  0  0  0  0  0  0
  189.6750  175.7660  145.0340 C   0  0  0  0  0  0  0  0  0  0  0  0
  188.2060  174.0140  139.1600 O   0  0  0  0  0  0  0  0  0  0  0  0
  186.9160  178.2240  145.2210 C   0  0  0  0  0  3  0  0  0  0  0  0
  184.6180  177.8950  140.1530 O   0  0  0  0  0  1  0  0  0  0  0  0
  190.2290  174.8980  144.1480 N   0  0  0  0  0  0  0  0  0  0  0  0
  188.5680  176.5410  144.6530 C   0  0  0  0  0  0  0  0  0  0  0  0
  190.2360  175.8980  146.3450 N   0  0  0  0  0  2  0  0  0  0  0  0
  188.1320  175.2500  141.1330 N   0  0  0  0  0  2  0  0  0  0  0  0
  184.6780  178.8510  142.3650 C   0  0  0  0  0  3  0  0  0  0  0  0
  189.7360  174.7260  142.8980 C   0  0  0  0  0  0  0  0  0  0  0  0
  190.4620  173.8150  141.9490 C   0  0  0  0  0  2  0  0  0  0  0  0
  188.0100  177.4410  145.5680 C   0  0  0  0  0  3  0  0  0  0  0  0
  186.3590  178.1230  143.9500 C   0  0  0  0  0  0  0  0  0  0  0  0
  185.2600  178.9250  143.6300 C   0  0  0  0  0  3  0  0  0  0  0  0
  191.5660  175.2900  148.3050 C   0  0  0  0  0  1  0  0  0  0  0  0
  191.3660  175.1030  146.8090 C   0  0  2  0  0  3  0  0  0  0  0  0
  194.9350  176.1660  144.6570 C   0  0  0  0  0  0  0  0  0  0  0  0
  193.0970  176.7930  146.1000 C   0  0  0  0  0  3  0  0  0  0  0  0
  192.8420  173.2300  145.2590 F   0  0  0  0  0  0  0  0  0  0  0  0
  196.0870  176.5070  143.9610 O   0  0  0  0  0  1  0  0  0  0  0  0
  194.2570  177.1360  145.4000 C   0  0  0  0  0  3  0  0  0  0  0  0
  193.2950  174.5090  145.3130 C   0  0  0  0  0  0  0  0  0  0  0  0
  192.6080  175.4780  146.0600 C   0  0  0  0  0  0  0  0  0  0  0  0
  194.4550  174.8560  144.6140 C   0  0  0  0  0  3  0  0  0  0  0  0
  1  6  1  0  0  0  0
  1 15  1  0  0  0  0
  2 13  1  0  0  0  0
  3  2  2  0  0  0  0
  3 20  1  0  0  0  0
  4  7  2  0  0  0  0
  4 16  1  0  0  0  0
  5 17  2  0  0  0  0
  5  2  1  0  0  0  0
  6 18  1  0  0  0  0
  7  3  1  0  0  0  0
  8 14  1  0  0  0  0
  9  1  2  0  0  0  0
 10 19  1  0  0  0  0
 11  4  1  0  0  0  0
 12  8  2  0  0  0  0
 13  8  1  0  0  0  0
 13 19  2  0  0  0  0
 14 23  1  0  0  0  0
 15  5  1  0  0  0  0
 16 21  2  0  0  0  0
 17 12  1  0  0  0  0
 18 17  1  0  0  0  0
 20 10  2  0  0  0  0
 21 20  1  0  0  0  0
 23 22  1  1  0  0  0
 24 28  1  0  0  0  0
 26 29  1  0  0  0  0
 27 24  1  0  0  0  0
 28 25  2  0  0  0  0
 29 30  2  0  0  0  0
 30 25  1  0  0  0  0
 30 23  1  0  0  0  0
 31 24  2  0  0  0  0
 31 29  1  0  0  0  0
M  END
>  <MODEL>
4

>  <REMARK>
 VINA RESULT:      -9.1      2.118      3.983
  Name = 
  2 active torsions:
  status: ('A' for Active; 'I' for Inactive)
    1  A    between atoms: C_5  and  N_16
    2  A    between atoms: C_5  and  C_30
                            x       y       z     vdW  Elec       q    Type
                         _______ _______ _______ _____ _____    ______ ____

>  <TORSDO>
F 2

$$$$
=
 OpenBabel11112416573D

 31 35  0  0  1  0  0  0  0  0999 V2000
  191.4710  170.8500  142.8150 C   0  0  0  0  0  0  0  0  0  0  0  0
  192.1060  174.2560  144.3700 C   0  0  0  0  0  0  0  0  0  0  0  0
  193.4330  174.1890  144.8940 C   0  0  0  0  0  0  0  0  0  0  0  0
  195.4930  172.9740  145.3880 C   0  0  0  0  0  0  0  0  0  0  0  0
  191.4380  173.1540  143.7670 C   0  0  0  0  0  0  0  0  0  0  0  0
  190.2570  171.1630  141.9990 C   0  0  0  0  0  2  0  0  0  0  0  0
  194.1980  173.0100  144.8670 C   0  0  0  0  0  3  0  0  0  0  0  0
  190.1020  175.6010  143.9460 C   0  0  0  0  0  0  0  0  0  0  0  0
  192.0010  169.7110  142.7470 O   0  0  0  0  0  0  0  0  0  0  0  0
  193.3120  176.5440  145.5270 C   0  0  0  0  0  3  0  0  0  0  0  0
  196.2230  171.7950  145.3460 O   0  0  0  0  0  1  0  0  0  0  0  0
  189.5000  174.5150  143.3960 N   0  0  0  0  0  0  0  0  0  0  0  0
  191.4100  175.4960  144.4460 C   0  0  0  0  0  0  0  0  0  0  0  0
  189.3920  176.8430  144.0280 N   0  0  0  0  0  2  0  0  0  0  0  0
  192.0640  171.8720  143.6160 N   0  0  0  0  0  2  0  0  0  0  0  0
  196.0530  174.1210  145.9490 C   0  0  0  0  0  3  0  0  0  0  0  0
  190.1250  173.3190  143.2840 C   0  0  0  0  0  0  0  0  0  0  0  0
  189.3570  172.1440  142.7480 C   0  0  0  0  0  2  0  0  0  0  0  0
  192.0200  176.6160  145.0210 C   0  0  0  0  0  3  0  0  0  0  0  0
  194.0190  175.3470  145.4700 C   0  0  0  0  0  0  0  0  0  0  0  0
  195.3160  175.3050  145.9890 C   0  0  0  0  0  3  0  0  0  0  0  0
  188.0540  178.0190  142.3540 C   0  0  0  0  0  1  0  0  0  0  0  0
  188.0460  177.0240  143.5030 C   0  0  2  0  0  3  0  0  0  0  0  0
  185.3920  178.3260  146.6280 C   0  0  0  0  0  0  0  0  0  0  0  0
  186.3170  178.6190  144.4110 C   0  0  0  0  0  3  0  0  0  0  0  0
  187.8170  175.6660  145.9920 F   0  0  0  0  0  0  0  0  0  0  0  0
  184.5360  178.7440  147.6380 O   0  0  0  0  0  1  0  0  0  0  0  0
  185.4550  179.0400  145.4280 C   0  0  0  0  0  3  0  0  0  0  0  0
  187.0510  176.7690  145.7960 C   0  0  0  0  0  0  0  0  0  0  0  0
  187.1210  177.4810  144.5890 C   0  0  0  0  0  0  0  0  0  0  0  0
  186.1880  177.1930  146.8110 C   0  0  0  0  0  3  0  0  0  0  0  0
  1 15  1  0  0  0  0
  2 13  2  0  0  0  0
  2  3  1  0  0  0  0
  3 20  1  0  0  0  0
  4 16  2  0  0  0  0
  5  2  1  0  0  0  0
  6 18  1  0  0  0  0
  6  1  1  0  0  0  0
  7  3  2  0  0  0  0
  7  4  1  0  0  0  0
  8 14  1  0  0  0  0
  8 13  1  0  0  0  0
  9  1  2  0  0  0  0
 11  4  1  0  0  0  0
 12  8  2  0  0  0  0
 13 19  1  0  0  0  0
 15  5  1  0  0  0  0
 16 21  1  0  0  0  0
 17 12  1  0  0  0  0
 17  5  2  0  0  0  0
 18 17  1  0  0  0  0
 19 10  2  0  0  0  0
 20 10  1  0  0  0  0
 20 21  2  0  0  0  0
 23 22  1  6  0  0  0
 23 14  1  0  0  0  0
 23 30  1  0  0  0  0
 24 31  1  0  0  0  0
 24 27  1  0  0  0  0
 25 30  2  0  0  0  0
 25 28  1  0  0  0  0
 28 24  2  0  0  0  0
 29 26  1  0  0  0  0
 29 31  2  0  0  0  0
 30 29  1  0  0  0  0
M  END
>  <MODEL>
5

>  <REMARK>
 VINA RESULT:      -9.0      2.700      8.626
  Name = 
  2 active torsions:
  status: ('A' for Active; 'I' for Inactive)
    1  A    between atoms: C_5  and  N_16
    2  A    between atoms: C_5  and  C_30
                            x       y       z     vdW  Elec       q    Type
                         _______ _______ _______ _____ _____    ______ ____

>  <TORSDO>
F 2

$$$$
=
 OpenBabel11112416573D

 31 35  0  0  1  0  0  0  0  0999 V2000
  195.3960  176.0500  143.8970 C   0  0  0  0  0  0  0  0  0  0  0  0
  191.9630  175.0220  142.6360 C   0  0  0  0  0  0  0  0  0  0  0  0
  192.2000  174.3760  141.3850 C   0  0  0  0  0  0  0  0  0  0  0  0
  193.6790  173.6610  139.5770 C   0  0  0  0  0  0  0  0  0  0  0  0
  192.9850  175.6360  143.4140 C   0  0  0  0  0  0  0  0  0  0  0  0
  195.0650  176.3510  145.3230 C   0  0  0  0  0  2  0  0  0  0  0  0
  193.4770  174.2980  140.8030 C   0  0  0  0  0  3  0  0  0  0  0  0
  190.3590  175.6810  144.3670 C   0  0  0  0  0  0  0  0  0  0  0  0
  196.5880  176.1030  143.4990 O   0  0  0  0  0  0  0  0  0  0  0  0
  189.8270  173.8290  141.2080 C   0  0  0  0  0  3  0  0  0  0  0  0
  194.9520  173.6000  139.0290 O   0  0  0  0  0  1  0  0  0  0  0  0
  191.3650  176.2680  145.0650 N   0  0  0  0  0  0  0  0  0  0  0  0
  190.6330  175.0520  143.1420 C   0  0  0  0  0  0  0  0  0  0  0  0
  189.0210  175.7230  144.8780 N   0  0  0  0  0  2  0  0  0  0  0  0
  194.3600  175.6330  143.0060 N   0  0  0  0  0  2  0  0  0  0  0  0
  192.6020  173.0840  138.9050 C   0  0  0  0  0  3  0  0  0  0  0  0
  192.6490  176.2530  144.6350 C   0  0  0  0  0  0  0  0  0  0  0  0
  193.6880  177.0050  145.4190 C   0  0  0  0  0  2  0  0  0  0  0  0
  189.5890  174.4570  142.4240 C   0  0  0  0  0  3  0  0  0  0  0  0
  191.1150  173.7840  140.6850 C   0  0  0  0  0  0  0  0  0  0  0  0
  191.3230  173.1460  139.4590 C   0  0  0  0  0  3  0  0  0  0  0  0
  188.6340  175.2840  147.2510 C   0  0  0  0  0  1  0  0  0  0  0  0
  188.6760  176.3350  146.1540 C   0  0  2  0  0  3  0  0  0  0  0  0
  184.9040  178.3800  145.8540 C   0  0  0  0  0  0  0  0  0  0  0  0
  186.3270  176.7650  146.9600 C   0  0  0  0  0  3  0  0  0  0  0  0
  188.1390  178.2870  144.1560 F   0  0  0  0  0  0  0  0  0  0  0  0
  183.6870  179.0410  145.7560 O   0  0  0  0  0  1  0  0  0  0  0  0
  185.1020  177.4310  146.8610 C   0  0  0  0  0  3  0  0  0  0  0  0
  187.1550  177.9990  145.0450 C   0  0  0  0  0  0  0  0  0  0  0  0
  187.3600  177.0440  146.0520 C   0  0  0  0  0  0  0  0  0  0  0  0
  185.9280  178.6630  144.9480 C   0  0  0  0  0  3  0  0  0  0  0  0
  1  6  1  0  0  0  0
  2 13  1  0  0  0  0
  2  5  1  0  0  0  0
  3  2  2  0  0  0  0
  4  7  2  0  0  0  0
  5 17  2  0  0  0  0
  6 18  1  0  0  0  0
  7  3  1  0  0  0  0
  8 14  1  0  0  0  0
  8 12  2  0  0  0  0
  9  1  2  0  0  0  0
 10 19  1  0  0  0  0
 11  4  1  0  0  0  0
 13  8  1  0  0  0  0
 14 23  1  0  0  0  0
 15  5  1  0  0  0  0
 15  1  1  0  0  0  0
 16 21  2  0  0  0  0
 16  4  1  0  0  0  0
 17 12  1  0  0  0  0
 17 18  1  0  0  0  0
 19 13  2  0  0  0  0
 20 10  2  0  0  0  0
 20  3  1  0  0  0  0
 21 20  1  0  0  0  0
 23 22  1  1  0  0  0
 24 28  1  0  0  0  0
 26 29  1  0  0  0  0
 27 24  1  0  0  0  0
 28 25  2  0  0  0  0
 29 30  2  0  0  0  0
 30 23  1  0  0  0  0
 30 25  1  0  0  0  0
 31 29  1  0  0  0  0
 31 24  2  0  0  0  0
M  END
>  <MODEL>
6

>  <REMARK>
 VINA RESULT:      -8.8      3.238      7.915
  Name = 
  2 active torsions:
  status: ('A' for Active; 'I' for Inactive)
    1  A    between atoms: C_5  and  N_16
    2  A    between atoms: C_5  and  C_30
                            x       y       z     vdW  Elec       q    Type
                         _______ _______ _______ _____ _____    ______ ____

>  <TORSDO>
F 2

$$$$
=
 OpenBabel11112416573D

 31 35  0  0  1  0  0  0  0  0999 V2000
  191.3210  176.7610  147.6640 C   0  0  0  0  0  0  0  0  0  0  0  0
  188.8470  176.0590  144.8690 C   0  0  0  0  0  0  0  0  0  0  0  0
  187.6620  176.7710  145.2280 C   0  0  0  0  0  0  0  0  0  0  0  0
  186.3630  178.1490  146.7700 C   0  0  0  0  0  0  0  0  0  0  0  0
  190.0060  175.9870  145.6920 C   0  0  0  0  0  0  0  0  0  0  0  0
  192.5850  176.3030  147.0080 C   0  0  0  0  0  2  0  0  0  0  0  0
  187.5340  177.4620  146.4450 C   0  0  0  0  0  3  0  0  0  0  0  0
  190.0240  174.6730  143.2270 C   0  0  0  0  0  0  0  0  0  0  0  0
  191.3570  177.2910  148.8040 O   0  0  0  0  0  0  0  0  0  0  0  0
  186.6230  176.1240  143.1160 C   0  0  0  0  0  3  0  0  0  0  0  0
  186.2670  178.8220  147.9800 O   0  0  0  0  0  1  0  0  0  0  0  0
  191.0990  174.6190  144.0560 N   0  0  0  0  0  0  0  0  0  0  0  0
  188.8790  175.3870  143.6150 C   0  0  0  0  0  0  0  0  0  0  0  0
  190.0600  173.9850  141.9700 N   0  0  0  0  0  2  0  0  0  0  0  0
  190.0840  176.6550  146.9590 N   0  0  0  0  0  2  0  0  0  0  0  0
  185.2890  178.1580  145.8800 C   0  0  0  0  0  3  0  0  0  0  0  0
  191.1250  175.2550  145.2510 C   0  0  0  0  0  0  0  0  0  0  0  0
  192.3160  175.0700  146.1480 C   0  0  0  0  0  2  0  0  0  0  0  0
  187.7710  175.4290  142.7600 C   0  0  0  0  0  3  0  0  0  0  0  0
  186.5580  176.7910  144.3350 C   0  0  0  0  0  0  0  0  0  0  0  0
  185.3880  177.4810  144.6650 C   0  0  0  0  0  3  0  0  0  0  0  0
  192.2430  174.2060  140.8930 C   0  0  0  0  0  1  0  0  0  0  0  0
  191.2270  173.2520  141.4990 C   0  0  2  0  0  3  0  0  0  0  0  0
  190.0650  170.2580  138.6370 C   0  0  0  0  0  0  0  0  0  0  0  0
  190.0620  172.5640  139.3710 C   0  0  0  0  0  3  0  0  0  0  0  0
  191.9290  170.5090  141.7710 F   0  0  0  0  0  0  0  0  0  0  0  0
  189.6910  169.2910  137.7140 O   0  0  0  0  0  1  0  0  0  0  0  0
  189.6860  171.5890  138.4430 C   0  0  0  0  0  3  0  0  0  0  0  0
  191.1970  170.8740  140.6880 C   0  0  0  0  0  0  0  0  0  0  0  0
  190.8190  172.2120  140.5010 C   0  0  0  0  0  0  0  0  0  0  0  0
  190.8190  169.9020  139.7570 C   0  0  0  0  0  3  0  0  0  0  0  0
  1  9  2  0  0  0  0
  2  3  1  0  0  0  0
  2  5  1  0  0  0  0
  3  7  1  0  0  0  0
  4 11  1  0  0  0  0
  5 15  1  0  0  0  0
  6  1  1  0  0  0  0
  7  4  2  0  0  0  0
  8 13  1  0  0  0  0
  8 12  2  0  0  0  0
 10 20  1  0  0  0  0
 12 17  1  0  0  0  0
 13  2  2  0  0  0  0
 14  8  1  0  0  0  0
 15  1  1  0  0  0  0
 16  4  1  0  0  0  0
 17  5  2  0  0  0  0
 17 18  1  0  0  0  0
 18  6  1  0  0  0  0
 19 10  2  0  0  0  0
 19 13  1  0  0  0  0
 20 21  1  0  0  0  0
 20  3  2  0  0  0  0
 21 16  2  0  0  0  0
 23 22  1  6  0  0  0
 23 14  1  0  0  0  0
 24 31  1  0  0  0  0
 25 30  2  0  0  0  0
 27 24  1  0  0  0  0
 28 24  2  0  0  0  0
 28 25  1  0  0  0  0
 29 26  1  0  0  0  0
 30 29  1  0  0  0  0
 30 23  1  0  0  0  0
 31 29  2  0  0  0  0
M  END
>  <MODEL>
7

>  <REMARK>
 VINA RESULT:      -8.8      4.023      6.159
  Name = 
  2 active torsions:
  status: ('A' for Active; 'I' for Inactive)
    1  A    between atoms: C_5  and  N_16
    2  A    between atoms: C_5  and  C_30
                            x       y       z     vdW  Elec       q    Type
                         _______ _______ _______ _____ _____    ______ ____

>  <TORSDO>
F 2

$$$$
=
 OpenBabel11112416573D

 31 35  0  0  1  0  0  0  0  0999 V2000
  191.5080  176.7170  147.5740 C   0  0  0  0  0  0  0  0  0  0  0  0
  189.0870  176.0230  144.7320 C   0  0  0  0  0  0  0  0  0  0  0  0
  187.8530  176.6200  145.1340 C   0  0  0  0  0  0  0  0  0  0  0  0
  186.4590  177.7920  146.7610 C   0  0  0  0  0  0  0  0  0  0  0  0
  190.2490  175.9820  145.5520 C   0  0  0  0  0  0  0  0  0  0  0  0
  192.8010  176.3990  146.8930 C   0  0  0  0  0  2  0  0  0  0  0  0
  187.6780  177.2170  146.3950 C   0  0  0  0  0  3  0  0  0  0  0  0
  190.3600  174.8400  143.0040 C   0  0  0  0  0  0  0  0  0  0  0  0
  191.5070  177.1720  148.7470 O   0  0  0  0  0  0  0  0  0  0  0  0
  186.8600  176.0410  142.9810 C   0  0  0  0  0  3  0  0  0  0  0  0
  186.3170  178.3750  148.0130 O   0  0  0  0  0  1  0  0  0  0  0  0
  191.4370  174.8100  143.8310 N   0  0  0  0  0  0  0  0  0  0  0  0
  189.1650  175.4400  143.4360 C   0  0  0  0  0  0  0  0  0  0  0  0
  190.4430  174.2420  141.7050 N   0  0  0  0  0  2  0  0  0  0  0  0
  190.2810  176.5680  146.8610 N   0  0  0  0  0  2  0  0  0  0  0  0
  185.3860  177.7820  145.8710 C   0  0  0  0  0  3  0  0  0  0  0  0
  191.4180  175.3650  145.0660 C   0  0  0  0  0  0  0  0  0  0  0  0
  192.6220  175.2090  145.9520 C   0  0  0  0  0  2  0  0  0  0  0  0
  188.0560  175.4570  142.5830 C   0  0  0  0  0  3  0  0  0  0  0  0
  186.7490  176.6180  144.2420 C   0  0  0  0  0  0  0  0  0  0  0  0
  185.5320  177.1960  144.6130 C   0  0  0  0  0  3  0  0  0  0  0  0
  191.7160  173.7550  139.6750 C   0  0  0  0  0  1  0  0  0  0  0  0
  191.6600  173.6300  141.1890 C   0  0  2  0  0  3  0  0  0  0  0  0
  191.8820  169.5010  142.3780 C   0  0  0  0  0  0  0  0  0  0  0  0
  190.7420  171.2810  141.2010 C   0  0  0  0  0  3  0  0  0  0  0  0
  193.7720  172.6030  142.7940 F   0  0  0  0  0  0  0  0  0  0  0  0
  191.9560  168.1700  142.7630 O   0  0  0  0  0  1  0  0  0  0  0  0
  190.8160  169.9410  141.5880 C   0  0  0  0  0  3  0  0  0  0  0  0
  192.8010  171.7430  142.3940 C   0  0  0  0  0  0  0  0  0  0  0  0
  191.7330  172.1910  141.6020 C   0  0  0  0  0  0  0  0  0  0  0  0
  192.8720  170.4010  142.7800 C   0  0  0  0  0  3  0  0  0  0  0  0
  1  9  2  0  0  0  0
  2  3  1  0  0  0  0
  2  5  1  0  0  0  0
  3  7  1  0  0  0  0
  4 11  1  0  0  0  0
  5 15  1  0  0  0  0
  6  1  1  0  0  0  0
  7  4  2  0  0  0  0
  8 13  1  0  0  0  0
  8 12  2  0  0  0  0
 10 20  1  0  0  0  0
 12 17  1  0  0  0  0
 13  2  2  0  0  0  0
 14  8  1  0  0  0  0
 15  1  1  0  0  0  0
 16  4  1  0  0  0  0
 17  5  2  0  0  0  0
 17 18  1  0  0  0  0
 18  6  1  0  0  0  0
 19 10  2  0  0  0  0
 19 13  1  0  0  0  0
 20 21  1  0  0  0  0
 20  3  2  0  0  0  0
 21 16  2  0  0  0  0
 23 22  1  6  0  0  0
 23 30  1  0  0  0  0
 23 14  1  0  0  0  0
 24 27  1  0  0  0  0
 24 31  1  0  0  0  0
 25 28  1  0  0  0  0
 25 30  2  0  0  0  0
 28 24  2  0  0  0  0
 29 31  2  0  0  0  0
 29 26  1  0  0  0  0
 30 29  1  0  0  0  0
M  END
>  <MODEL>
8

>  <REMARK>
 VINA RESULT:      -8.6      3.418      5.604
  Name = 
  2 active torsions:
  status: ('A' for Active; 'I' for Inactive)
    1  A    between atoms: C_5  and  N_16
    2  A    between atoms: C_5  and  C_30
                            x       y       z     vdW  Elec       q    Type
                         _______ _______ _______ _____ _____    ______ ____

>  <TORSDO>
F 2

$$$$
=
 OpenBabel11112416573D

 31 35  0  0  1  0  0  0  0  0999 V2000
  188.3350  174.5460  139.7100 C   0  0  0  0  0  0  0  0  0  0  0  0
  188.9780  175.4050  143.3530 C   0  0  0  0  0  0  0  0  0  0  0  0
  187.8260  176.1370  143.7760 C   0  0  0  0  0  0  0  0  0  0  0  0
  185.6750  177.2070  143.3370 C   0  0  0  0  0  0  0  0  0  0  0  0
  189.1830  174.9580  142.0180 C   0  0  0  0  0  0  0  0  0  0  0  0
  189.3820  173.4980  139.5050 C   0  0  0  0  0  2  0  0  0  0  0  0
  186.7890  176.4900  142.8950 C   0  0  0  0  0  3  0  0  0  0  0  0
  191.1250  174.3830  143.9420 C   0  0  0  0  0  0  0  0  0  0  0  0
  187.5200  174.8130  138.7900 O   0  0  0  0  0  0  0  0  0  0  0  0
  188.7020  176.2160  146.0530 C   0  0  0  0  0  3  0  0  0  0  0  0
  184.6670  177.5400  142.4430 O   0  0  0  0  0  1  0  0  0  0  0  0
  191.2840  173.9930  142.6510 N   0  0  0  0  0  0  0  0  0  0  0  0
  189.9770  175.0980  144.3200 C   0  0  0  0  0  0  0  0  0  0  0  0
  192.1400  174.0790  144.9080 N   0  0  0  0  0  2  0  0  0  0  0  0
  188.2220  175.1910  140.9790 N   0  0  0  0  0  2  0  0  0  0  0  0
  185.5750  177.5880  144.6750 C   0  0  0  0  0  3  0  0  0  0  0  0
  190.3560  174.2460  141.6980 C   0  0  0  0  0  0  0  0  0  0  0  0
  190.6500  173.8610  140.2760 C   0  0  0  0  0  2  0  0  0  0  0  0
  189.8250  175.5060  145.6500 C   0  0  0  0  0  3  0  0  0  0  0  0
  187.7070  176.5340  145.1340 C   0  0  0  0  0  0  0  0  0  0  0  0
  186.5900  177.2510  145.5710 C   0  0  0  0  0  3  0  0  0  0  0  0
  193.7450  172.4450  145.7630 C   0  0  0  0  0  1  0  0  0  0  0  0
  193.3390  173.3180  144.5860 C   0  0  2  0  0  3  0  0  0  0  0  0
  196.5500  175.9630  143.4920 C   0  0  0  0  0  0  0  0  0  0  0  0
  194.4910  175.5590  144.6950 C   0  0  0  0  0  3  0  0  0  0  0  0
  195.4670  172.5270  142.8720 F   0  0  0  0  0  0  0  0  0  0  0  0
  197.5880  176.8150  143.1370 O   0  0  0  0  0  1  0  0  0  0  0  0
  195.5350  176.4160  144.3380 C   0  0  0  0  0  3  0  0  0  0  0  0
  195.4790  173.7950  143.3570 C   0  0  0  0  0  0  0  0  0  0  0  0
  194.4550  174.2430  144.2060 C   0  0  0  0  0  0  0  0  0  0  0  0
  196.5220  174.6550  143.0020 C   0  0  0  0  0  3  0  0  0  0  0  0
  1 15  1  0  0  0  0
  2  3  2  0  0  0  0
  2 13  1  0  0  0  0
  3 20  1  0  0  0  0
  4 16  1  0  0  0  0
  5  2  1  0  0  0  0
  6  1  1  0  0  0  0
  6 18  1  0  0  0  0
  7  4  2  0  0  0  0
  7  3  1  0  0  0  0
  8 13  1  0  0  0  0
  8 14  1  0  0  0  0
  9  1  2  0  0  0  0
 11  4  1  0  0  0  0
 12  8  2  0  0  0  0
 13 19  2  0  0  0  0
 15  5  1  0  0  0  0
 16 21  2  0  0  0  0
 17  5  2  0  0  0  0
 17 12  1  0  0  0  0
 18 17  1  0  0  0  0
 19 10  1  0  0  0  0
 20 21  1  0  0  0  0
 20 10  2  0  0  0  0
 23 14  1  0  0  0  0
 23 22  1  1  0  0  0
 24 28  1  0  0  0  0
 26 29  1  0  0  0  0
 27 24  1  0  0  0  0
 28 25  2  0  0  0  0
 29 30  2  0  0  0  0
 30 23  1  0  0  0  0
 30 25  1  0  0  0  0
 31 29  1  0  0  0  0
 31 24  2  0  0  0  0
M  END
>  <MODEL>
9

>  <REMARK>
 VINA RESULT:      -8.4      2.587      4.897
  Name = 
  2 active torsions:
  status: ('A' for Active; 'I' for Inactive)
    1  A    between atoms: C_5  and  N_16
    2  A    between atoms: C_5  and  C_30
                            x       y       z     vdW  Elec       q    Type
                         _______ _______ _______ _____ _____    ______ ____

>  <TORSDO>
F 2

$$$$
