=
 OpenBabel11112416543D

 31 35  0  0  1  0  0  0  0  0999 V2000
  186.3750  177.1010  146.7520 C   0  0  0  0  0  0  0  0  0  0  0  0
  189.4520  177.9330  144.6610 C   0  0  2  0  0  3  0  0  0  0  0  0
  190.5330  176.9710  145.0940 C   0  0  0  0  0  0  0  0  0  0  0  0
  191.4370  175.5350  146.7660 C   0  0  0  0  0  0  0  0  0  0  0  0
  188.0520  177.4940  145.0370 C   0  0  0  0  0  0  0  0  0  0  0  0
  185.4400  176.7680  145.7690 C   0  0  0  0  0  3  0  0  0  0  0  0
  190.4460  176.3410  146.2980 N   0  0  0  0  0  0  0  0  0  0  0  0
  188.8280  177.3360  142.2260 C   0  0  1  0  0  3  0  0  0  0  0  0
  186.0230  177.0760  148.0590 F   0  0  0  0  0  0  0  0  0  0  0  0
  191.8320  177.4470  142.9630 C   0  0  0  0  0  2  0  0  0  0  0  0
  191.2840  174.8590  148.0810 C   0  0  0  0  0  1  0  0  0  0  0  0
  187.4400  177.2270  142.6610 N   0  0  0  0  0  2  0  0  0  0  0  0
  189.5650  178.3070  143.1700 C   0  0  2  0  0  3  0  0  0  0  0  0
  187.6720  177.4730  146.3870 C   0  0  0  0  0  3  0  0  0  0  0  0
  192.5970  175.3470  146.0150 C   0  0  0  0  0  3  0  0  0  0  0  0
  187.1000  177.1570  144.0490 C   0  0  0  0  0  0  0  0  0  0  0  0
  185.8010  176.8030  144.4210 C   0  0  0  0  0  3  0  0  0  0  0  0
  190.9470  178.6030  142.7740 N   0  0  0  0  0  2  0  0  0  0  0  0
  191.7060  176.8300  144.3250 C   0  0  0  0  0  0  0  0  0  0  0  0
  192.7260  175.9960  144.7870 C   0  0  0  0  0  3  0  0  0  0  0  0
  188.2230  175.1810  140.4340 O   0  0  0  0  0  0  0  0  0  0  0  0
  189.0710  174.9640  141.3420 C   0  0  0  0  0  0  0  0  0  0  0  0
  189.4410  176.0110  142.2430 N   0  0  0  0  0  2  0  0  0  0  0  0
  189.8700  171.9730  143.7650 N   0  0  0  0  0  0  0  0  0  0  0  0
  188.6530  172.5610  141.7050 C   0  0  0  0  0  2  0  0  0  0  0  0
  191.9460  174.4800  141.7990 C   0  0  0  0  0  1  0  0  0  0  0  0
  189.6970  171.8160  145.1980 C   0  0  0  0  0  1  0  0  0  0  0  0
  188.5480  172.2850  143.2090 C   0  0  0  0  0  2  0  0  0  0  0  0
  190.9330  173.3820  142.0810 C   0  0  2  0  0  3  0  0  0  0  0  0
  189.6100  173.6420  141.5060 N   0  0  0  0  0  0  0  0  0  0  0  0
  190.7740  173.1120  143.5730 C   0  0  0  0  0  2  0  0  0  0  0  0
  1  9  1  0  0  0  0
  2  5  1  6  0  0  0
  2  3  1  0  0  0  0
  3  7  1  0  0  0  0
  4 11  1  0  0  0  0
  5 14  2  0  0  0  0
  6  1  2  0  0  0  0
  7  4  2  0  0  0  0
  8 23  1  1  0  0  0
  8 12  1  0  0  0  0
  8 13  1  0  0  0  0
 10 19  1  0  0  0  0
 12 16  1  0  0  0  0
 13 18  1  6  0  0  0
 13  2  1  0  0  0  0
 14  1  1  0  0  0  0
 15  4  1  0  0  0  0
 16 17  2  0  0  0  0
 16  5  1  0  0  0  0
 17  6  1  0  0  0  0
 18 10  1  0  0  0  0
 19 20  1  0  0  0  0
 19  3  2  0  0  0  0
 20 15  2  0  0  0  0
 21 22  2  0  0  0  0
 22 30  1  0  0  0  0
 22 23  1  0  0  0  0
 24 27  1  0  0  0  0
 25 28  1  0  0  0  0
 28 24  1  0  0  0  0
 29 26  1  1  0  0  0
 29 31  1  0  0  0  0
 30 25  1  0  0  0  0
 30 29  1  0  0  0  0
 31 24  1  0  0  0  0
M  END
>  <MODEL>
1

>  <REMARK>
 VINA RESULT:      -7.5      0.000      0.000
  Name = 
  1 active torsions:
  status: ('A' for Active; 'I' for Inactive)
    1  A    between atoms: C_10  and  N_16
                            x       y       z     vdW  Elec       q    Type
                         _______ _______ _______ _____ _____    ______ ____

>  <TORSDO>
F 1

$$$$
=
 OpenBabel11112416543D

 31 35  0  0  1  0  0  0  0  0999 V2000
  188.3100  177.3230  141.6360 C   0  0  0  0  0  0  0  0  0  0  0  0
  189.2840  173.9760  143.1780 C   0  0  2  0  0  3  0  0  0  0  0  0
  190.0630  173.2310  142.1200 C   0  0  0  0  0  0  0  0  0  0  0  0
  190.5570  172.8840  139.8160 C   0  0  0  0  0  0  0  0  0  0  0  0
  189.1900  175.4680  142.9360 C   0  0  0  0  0  0  0  0  0  0  0  0
  188.9230  178.2290  142.5030 C   0  0  0  0  0  3  0  0  0  0  0  0
  189.9440  173.5810  140.8090 N   0  0  0  0  0  0  0  0  0  0  0  0
  190.9320  174.5360  145.0870 C   0  0  1  0  0  3  0  0  0  0  0  0
  187.5840  177.7750  140.5860 F   0  0  0  0  0  0  0  0  0  0  0  0
  191.0200  171.6830  143.8920 C   0  0  0  0  0  2  0  0  0  0  0  0
  190.4070  173.3180  138.4020 C   0  0  0  0  0  1  0  0  0  0  0  0
  190.5360  175.9330  144.9520 N   0  0  0  0  0  2  0  0  0  0  0  0
  189.7700  173.6460  144.6030 C   0  0  2  0  0  3  0  0  0  0  0  0
  188.4340  175.9490  141.8580 C   0  0  0  0  0  3  0  0  0  0  0  0
  191.3230  171.7590  140.1220 C   0  0  0  0  0  3  0  0  0  0  0  0
  189.8070  176.3920  143.8090 C   0  0  0  0  0  0  0  0  0  0  0  0
  189.6640  177.7640  143.5910 C   0  0  0  0  0  3  0  0  0  0  0  0
  189.9900  172.2070  144.7960 N   0  0  0  0  0  2  0  0  0  0  0  0
  190.8010  172.0800  142.4620 C   0  0  0  0  0  0  0  0  0  0  0  0
  191.4460  171.3610  141.4540 C   0  0  0  0  0  3  0  0  0  0  0  0
  193.4450  175.8720  145.4380 O   0  0  0  0  0  0  0  0  0  0  0  0
  193.3590  175.0290  144.5040 C   0  0  0  0  0  0  0  0  0  0  0  0
  192.1420  174.3040  144.3030 N   0  0  0  0  0  2  0  0  0  0  0  0
  194.6270  174.8280  140.7890 N   0  0  0  0  0  0  0  0  0  0  0  0
  194.9460  176.0390  142.9110 C   0  0  0  0  0  2  0  0  0  0  0  0
  194.2920  172.3590  143.6610 C   0  0  0  0  0  1  0  0  0  0  0  0
  193.9230  174.8960  139.5210 C   0  0  0  0  0  1  0  0  0  0  0  0
  194.3150  176.0660  141.5140 C   0  0  0  0  0  2  0  0  0  0  0  0
  194.7250  173.5970  142.8920 C   0  0  2  0  0  3  0  0  0  0  0  0
  194.4640  174.8520  143.6050 N   0  0  0  0  0  0  0  0  0  0  0  0
  194.0820  173.6750  141.5120 C   0  0  0  0  0  2  0  0  0  0  0  0
  1 14  2  0  0  0  0
  1  6  1  0  0  0  0
  2  3  1  6  0  0  0
  2 13  1  0  0  0  0
  3 19  1  0  0  0  0
  4 15  2  0  0  0  0
  4  7  1  0  0  0  0
  5  2  1  0  0  0  0
  5 16  2  0  0  0  0
  6 17  2  0  0  0  0
  7  3  2  0  0  0  0
  8 23  1  6  0  0  0
  9  1  1  0  0  0  0
 10 18  1  0  0  0  0
 11  4  1  0  0  0  0
 12  8  1  0  0  0  0
 13 18  1  6  0  0  0
 13  8  1  0  0  0  0
 14  5  1  0  0  0  0
 15 20  1  0  0  0  0
 16 12  1  0  0  0  0
 17 16  1  0  0  0  0
 19 10  1  0  0  0  0
 20 19  2  0  0  0  0
 22 21  2  0  0  0  0
 23 22  1  0  0  0  0
 24 31  1  0  0  0  0
 24 28  1  0  0  0  0
 25 30  1  0  0  0  0
 27 24  1  0  0  0  0
 28 25  1  0  0  0  0
 29 30  1  0  0  0  0
 29 26  1  1  0  0  0
 30 22  1  0  0  0  0
 31 29  1  0  0  0  0
M  END
>  <MODEL>
2

>  <REMARK>
 VINA RESULT:      -6.7      3.045      5.756
  Name = 
  1 active torsions:
  status: ('A' for Active; 'I' for Inactive)
    1  A    between atoms: C_10  and  N_16
                            x       y       z     vdW  Elec       q    Type
                         _______ _______ _______ _____ _____    ______ ____

>  <TORSDO>
F 1

$$$$
=
 OpenBabel11112416543D

 31 35  0  0  1  0  0  0  0  0999 V2000
  189.7800  172.7540  143.7060 C   0  0  0  0  0  0  0  0  0  0  0  0
  192.8680  174.1520  145.4480 C   0  0  2  0  0  3  0  0  0  0  0  0
  193.9230  173.0740  145.3740 C   0  0  0  0  0  0  0  0  0  0  0  0
  194.4690  170.7650  145.1630 C   0  0  0  0  0  0  0  0  0  0  0  0
  191.7410  173.9800  144.4510 C   0  0  0  0  0  0  0  0  0  0  0  0
  189.5910  173.6740  142.6720 C   0  0  0  0  0  3  0  0  0  0  0  0
  193.5630  171.7790  145.1510 N   0  0  0  0  0  0  0  0  0  0  0  0
  193.6770  176.1150  143.9750 C   0  0  1  0  0  3  0  0  0  0  0  0
  188.9250  171.7140  143.8520 F   0  0  0  0  0  0  0  0  0  0  0  0
  195.7320  174.7880  145.8700 C   0  0  0  0  0  2  0  0  0  0  0  0
  194.0260  169.3710  144.8980 C   0  0  0  0  0  1  0  0  0  0  0  0
  192.4060  176.0390  143.2640 N   0  0  0  0  0  2  0  0  0  0  0  0
  193.4750  175.5690  145.4030 C   0  0  2  0  0  3  0  0  0  0  0  0
  190.8440  172.9120  144.5970 C   0  0  0  0  0  3  0  0  0  0  0  0
  195.8120  171.0310  145.4290 C   0  0  0  0  0  3  0  0  0  0  0  0
  191.5430  174.9070  143.4030 C   0  0  0  0  0  0  0  0  0  0  0  0
  190.4660  174.7520  142.5260 C   0  0  0  0  0  3  0  0  0  0  0  0
  194.6520  175.6970  146.2710 N   0  0  0  0  0  2  0  0  0  0  0  0
  195.2660  173.3740  145.6800 C   0  0  0  0  0  0  0  0  0  0  0  0
  196.2090  172.3440  145.6830 C   0  0  0  0  0  3  0  0  0  0  0  0
  194.5340  176.5890  141.2800 O   0  0  0  0  0  0  0  0  0  0  0  0
  195.0410  175.6080  141.8890 C   0  0  0  0  0  0  0  0  0  0  0  0
  194.6790  175.3420  143.2470 N   0  0  0  0  0  2  0  0  0  0  0  0
  195.9850  171.9120  140.9380 N   0  0  0  0  0  0  0  0  0  0  0  0
  195.4170  174.1050  139.9700 C   0  0  0  0  0  2  0  0  0  0  0  0
  197.5580  174.6320  143.0800 C   0  0  0  0  0  1  0  0  0  0  0  0
  195.4030  170.6360  141.3170 C   0  0  0  0  0  1  0  0  0  0  0  0
  194.9130  172.7000  140.3190 C   0  0  0  0  0  2  0  0  0  0  0  0
  196.9760  173.9430  141.8560 C   0  0  2  0  0  3  0  0  0  0  0  0
  195.9270  174.7210  141.1880 N   0  0  0  0  0  0  0  0  0  0  0  0
  196.4270  172.5570  142.1780 C   0  0  0  0  0  2  0  0  0  0  0  0
  1  9  1  0  0  0  0
  1 14  1  0  0  0  0
  2  5  1  6  0  0  0
  3  2  1  0  0  0  0
  3 19  1  0  0  0  0
  4 15  2  0  0  0  0
  5 14  2  0  0  0  0
  6  1  2  0  0  0  0
  7  4  1  0  0  0  0
  7  3  2  0  0  0  0
  8 23  1  6  0  0  0
  8 13  1  0  0  0  0
 10 18  1  0  0  0  0
 11  4  1  0  0  0  0
 12 16  1  0  0  0  0
 12  8  1  0  0  0  0
 13  2  1  0  0  0  0
 13 18  1  6  0  0  0
 15 20  1  0  0  0  0
 16  5  1  0  0  0  0
 17  6  1  0  0  0  0
 17 16  2  0  0  0  0
 19 20  2  0  0  0  0
 19 10  1  0  0  0  0
 21 22  2  0  0  0  0
 22 23  1  0  0  0  0
 24 27  1  0  0  0  0
 24 31  1  0  0  0  0
 25 28  1  0  0  0  0
 25 30  1  0  0  0  0
 28 24  1  0  0  0  0
 29 31  1  0  0  0  0
 29 26  1  1  0  0  0
 30 29  1  0  0  0  0
 30 22  1  0  0  0  0
M  END
>  <MODEL>
3

>  <REMARK>
 VINA RESULT:      -6.6      4.167      5.932
  Name = 
  1 active torsions:
  status: ('A' for Active; 'I' for Inactive)
    1  A    between atoms: C_10  and  N_16
                            x       y       z     vdW  Elec       q    Type
                         _______ _______ _______ _____ _____    ______ ____

>  <TORSDO>
F 1

$$$$
=
 OpenBabel11112416543D

 31 35  0  0  1  0  0  0  0  0999 V2000
  191.2880  175.2910  147.7280 C   0  0  0  0  0  0  0  0  0  0  0  0
  193.1770  175.9350  144.4810 C   0  0  2  0  0  3  0  0  0  0  0  0
  193.8000  174.6180  144.0820 C   0  0  0  0  0  0  0  0  0  0  0  0
  194.6110  172.4700  144.7160 C   0  0  0  0  0  0  0  0  0  0  0  0
  192.0430  175.8030  145.4750 C   0  0  0  0  0  0  0  0  0  0  0  0
  189.9800  175.6270  147.3720 C   0  0  0  0  0  3  0  0  0  0  0  0
  193.9770  173.6370  145.0100 N   0  0  0  0  0  0  0  0  0  0  0  0
  191.3730  176.4910  142.7170 C   0  0  1  0  0  3  0  0  0  0  0  0
  191.5630  174.8810  148.9890 F   0  0  0  0  0  0  0  0  0  0  0  0
  194.1130  175.4660  141.7080 C   0  0  0  0  0  2  0  0  0  0  0  0
  194.7650  171.4260  145.7630 C   0  0  0  0  0  1  0  0  0  0  0  0
  190.4170  176.6260  143.8100 N   0  0  0  0  0  2  0  0  0  0  0  0
  192.7850  176.7900  143.2590 C   0  0  2  0  0  3  0  0  0  0  0  0
  192.3160  175.3890  146.7860 C   0  0  0  0  0  3  0  0  0  0  0  0
  195.1220  172.2560  143.4360 C   0  0  0  0  0  3  0  0  0  0  0  0
  190.7170  176.1420  145.1230 C   0  0  0  0  0  0  0  0  0  0  0  0
  189.6970  176.0590  146.0740 C   0  0  0  0  0  3  0  0  0  0  0  0
  193.8350  176.8080  142.2330 N   0  0  0  0  0  2  0  0  0  0  0  0
  194.3330  174.4480  142.7890 C   0  0  0  0  0  0  0  0  0  0  0  0
  194.9760  173.2510  142.4700 C   0  0  0  0  0  3  0  0  0  0  0  0
  188.9780  175.1810  141.8400 O   0  0  0  0  0  0  0  0  0  0  0  0
  190.0560  174.5280  141.7800 C   0  0  0  0  0  0  0  0  0  0  0  0
  191.2880  175.1410  142.1700 N   0  0  0  0  0  2  0  0  0  0  0  0
  191.1280  170.8240  142.5450 N   0  0  0  0  0  0  0  0  0  0  0  0
  189.1640  172.2600  142.1550 C   0  0  0  0  0  2  0  0  0  0  0  0
  192.0070  173.3910  139.8810 C   0  0  0  0  0  1  0  0  0  0  0  0
  191.9410  170.2500  143.6020 C   0  0  0  0  0  1  0  0  0  0  0  0
  190.0260  171.5410  143.1990 C   0  0  0  0  0  2  0  0  0  0  0  0
  191.1610  172.4720  140.7470 C   0  0  2  0  0  3  0  0  0  0  0  0
  190.0260  173.1470  141.3850 N   0  0  0  0  0  0  0  0  0  0  0  0
  191.9820  171.7720  141.8240 C   0  0  0  0  0  2  0  0  0  0  0  0
  1  9  1  0  0  0  0
  2  3  1  6  0  0  0
  2  5  1  0  0  0  0
  3  7  1  0  0  0  0
  4  7  2  0  0  0  0
  4 11  1  0  0  0  0
  5 14  1  0  0  0  0
  6  1  1  0  0  0  0
  8 23  1  1  0  0  0
  8 13  1  0  0  0  0
  8 12  1  0  0  0  0
 10 18  1  0  0  0  0
 10 19  1  0  0  0  0
 12 16  1  0  0  0  0
 13 18  1  6  0  0  0
 13  2  1  0  0  0  0
 14  1  2  0  0  0  0
 15  4  1  0  0  0  0
 16  5  2  0  0  0  0
 16 17  1  0  0  0  0
 17  6  2  0  0  0  0
 19  3  2  0  0  0  0
 20 19  1  0  0  0  0
 20 15  2  0  0  0  0
 22 21  2  0  0  0  0
 22 23  1  0  0  0  0
 24 28  1  0  0  0  0
 24 27  1  0  0  0  0
 25 28  1  0  0  0  0
 29 26  1  1  0  0  0
 29 30  1  0  0  0  0
 29 31  1  0  0  0  0
 30 22  1  0  0  0  0
 30 25  1  0  0  0  0
 31 24  1  0  0  0  0
M  END
>  <MODEL>
4

>  <REMARK>
 VINA RESULT:      -6.2      2.537      3.708
  Name = 
  1 active torsions:
  status: ('A' for Active; 'I' for Inactive)
    1  A    between atoms: C_10  and  N_16
                            x       y       z     vdW  Elec       q    Type
                         _______ _______ _______ _____ _____    ______ ____

>  <TORSDO>
F 1

$$$$
=
 OpenBabel11112416543D

 31 35  0  0  1  0  0  0  0  0999 V2000
  191.2500  175.4070  147.7100 C   0  0  0  0  0  0  0  0  0  0  0  0
  192.7870  176.3440  144.3510 C   0  0  2  0  0  3  0  0  0  0  0  0
  194.0660  175.5500  144.2320 C   0  0  0  0  0  0  0  0  0  0  0  0
  195.8560  174.3940  145.2960 C   0  0  0  0  0  0  0  0  0  0  0  0
  191.8190  175.8000  145.3810 C   0  0  0  0  0  0  0  0  0  0  0  0
  190.0150  174.8790  147.3250 C   0  0  0  0  0  3  0  0  0  0  0  0
  194.6600  175.0390  145.3460 N   0  0  0  0  0  0  0  0  0  0  0  0
  191.1590  175.4420  142.5580 C   0  0  1  0  0  3  0  0  0  0  0  0
  191.5780  175.4760  149.0220 F   0  0  0  0  0  0  0  0  0  0  0  0
  194.0970  175.9440  141.7220 C   0  0  0  0  0  2  0  0  0  0  0  0
  196.4530  173.8420  146.5410 C   0  0  0  0  0  1  0  0  0  0  0  0
  190.1840  175.2310  143.6210 N   0  0  0  0  0  2  0  0  0  0  0  0
  192.1140  176.5760  142.9830 C   0  0  2  0  0  3  0  0  0  0  0  0
  192.1430  175.8750  146.7420 C   0  0  0  0  0  3  0  0  0  0  0  0
  196.5250  174.2550  144.0800 C   0  0  0  0  0  3  0  0  0  0  0  0
  190.5680  175.2660  144.9990 C   0  0  0  0  0  0  0  0  0  0  0  0
  189.6730  174.8160  145.9730 C   0  0  0  0  0  3  0  0  0  0  0  0
  193.0770  176.9750  141.9500 N   0  0  0  0  0  2  0  0  0  0  0  0
  194.7310  175.4580  142.9930 C   0  0  0  0  0  0  0  0  0  0  0  0
  195.9530  174.7870  142.9250 C   0  0  0  0  0  3  0  0  0  0  0  0
  190.0010  172.9500  141.7410 O   0  0  0  0  0  0  0  0  0  0  0  0
  191.2450  172.9750  141.9460 C   0  0  0  0  0  0  0  0  0  0  0  0
  191.8850  174.1980  142.3200 N   0  0  0  0  0  2  0  0  0  0  0  0
  193.8510  170.5620  143.6310 N   0  0  0  0  0  0  0  0  0  0  0  0
  191.5630  170.6550  142.7190 C   0  0  0  0  0  2  0  0  0  0  0  0
  193.8520  172.8210  140.5730 C   0  0  0  0  0  1  0  0  0  0  0  0
  194.5990  170.6600  144.8720 C   0  0  0  0  0  1  0  0  0  0  0  0
  192.4290  170.6560  143.9850 C   0  0  0  0  0  2  0  0  0  0  0  0
  193.4250  171.7160  141.5250 C   0  0  2  0  0  3  0  0  0  0  0  0
  192.0000  171.7550  141.8690 N   0  0  0  0  0  0  0  0  0  0  0  0
  194.2390  171.7150  142.8140 C   0  0  0  0  0  2  0  0  0  0  0  0
  1  9  1  0  0  0  0
  2  3  1  6  0  0  0
  2  5  1  0  0  0  0
  3  7  1  0  0  0  0
  4  7  2  0  0  0  0
  4 11  1  0  0  0  0
  5 14  1  0  0  0  0
  6  1  1  0  0  0  0
  8 23  1  1  0  0  0
  8 13  1  0  0  0  0
  8 12  1  0  0  0  0
 10 18  1  0  0  0  0
 10 19  1  0  0  0  0
 12 16  1  0  0  0  0
 13 18  1  6  0  0  0
 13  2  1  0  0  0  0
 14  1  2  0  0  0  0
 15  4  1  0  0  0  0
 16  5  2  0  0  0  0
 16 17  1  0  0  0  0
 17  6  2  0  0  0  0
 19  3  2  0  0  0  0
 20 19  1  0  0  0  0
 20 15  2  0  0  0  0
 21 22  2  0  0  0  0
 22 23  1  0  0  0  0
 24 28  1  0  0  0  0
 24 27  1  0  0  0  0
 25 28  1  0  0  0  0
 29 26  1  6  0  0  0
 29 30  1  0  0  0  0
 29 31  1  0  0  0  0
 30 22  1  0  0  0  0
 30 25  1  0  0  0  0
 31 24  1  0  0  0  0
M  END
>  <MODEL>
5

>  <REMARK>
 VINA RESULT:      -6.2      2.962      4.054
  Name = 
  1 active torsions:
  status: ('A' for Active; 'I' for Inactive)
    1  A    between atoms: C_10  and  N_16
                            x       y       z     vdW  Elec       q    Type
                         _______ _______ _______ _____ _____    ______ ____

>  <TORSDO>
F 1

$$$$
=
 OpenBabel11112416543D

 31 35  0  0  1  0  0  0  0  0999 V2000
  189.8130  173.2720  139.5710 C   0  0  0  0  0  0  0  0  0  0  0  0
  192.0670  172.2020  142.4520 C   0  0  2  0  0  3  0  0  0  0  0  0
  193.0910  173.3000  142.6230 C   0  0  0  0  0  0  0  0  0  0  0  0
  194.3110  175.1150  141.6800 C   0  0  0  0  0  0  0  0  0  0  0  0
  190.8360  172.6230  141.6780 C   0  0  0  0  0  0  0  0  0  0  0  0
  188.5620  173.3260  140.1890 C   0  0  0  0  0  3  0  0  0  0  0  0
  193.3380  174.1680  141.6020 N   0  0  0  0  0  0  0  0  0  0  0  0
  190.5710  172.2200  144.5590 C   0  0  1  0  0  3  0  0  0  0  0  0
  189.9310  173.5560  138.2520 F   0  0  0  0  0  0  0  0  0  0  0  0
  193.6310  172.4570  144.9570 C   0  0  0  0  0  2  0  0  0  0  0  0
  194.5290  176.0490  140.5430 C   0  0  0  0  0  1  0  0  0  0  0  0
  189.4160  172.3330  143.6760 N   0  0  0  0  0  2  0  0  0  0  0  0
  191.7110  171.5220  143.7900 C   0  0  2  0  0  3  0  0  0  0  0  0
  190.9430  172.9110  140.3100 C   0  0  0  0  0  3  0  0  0  0  0  0
  195.1060  175.2090  142.8220 C   0  0  0  0  0  3  0  0  0  0  0  0
  189.5670  172.6800  142.2950 C   0  0  0  0  0  0  0  0  0  0  0  0
  188.4390  173.0240  141.5470 C   0  0  0  0  0  3  0  0  0  0  0  0
  192.9010  171.2350  144.6010 N   0  0  0  0  0  2  0  0  0  0  0  0
  193.8980  173.3440  143.7760 C   0  0  0  0  0  0  0  0  0  0  0  0
  194.8920  174.3200  143.8750 C   0  0  0  0  0  3  0  0  0  0  0  0
  189.1670  173.8450  146.4590 O   0  0  0  0  0  0  0  0  0  0  0  0
  190.2040  174.3300  145.9300 C   0  0  0  0  0  0  0  0  0  0  0  0
  190.9680  173.5520  145.0030 N   0  0  0  0  0  2  0  0  0  0  0  0
  191.2480  177.8550  144.5380 N   0  0  0  0  0  0  0  0  0  0  0  0
  189.5750  176.7140  145.9430 C   0  0  0  0  0  2  0  0  0  0  0  0
  192.9880  175.1140  146.5190 C   0  0  0  0  0  1  0  0  0  0  0  0
  191.4830  178.3310  143.1870 C   0  0  0  0  0  1  0  0  0  0  0  0
  189.8790  177.3260  144.5700 C   0  0  0  0  0  2  0  0  0  0  0  0
  191.9580  176.1710  146.1540 C   0  0  2  0  0  3  0  0  0  0  0  0
  190.5740  175.6880  146.2140 N   0  0  0  0  0  0  0  0  0  0  0  0
  192.2070  176.7720  144.7750 C   0  0  0  0  0  2  0  0  0  0  0  0
  1  6  2  0  0  0  0
  1 14  1  0  0  0  0
  2  5  1  1  0  0  0
  2  3  1  0  0  0  0
  2 13  1  0  0  0  0
  3 19  1  0  0  0  0
  4 15  2  0  0  0  0
  5 16  1  0  0  0  0
  6 17  1  0  0  0  0
  7  4  1  0  0  0  0
  7  3  2  0  0  0  0
  8 23  1  6  0  0  0
  9  1  1  0  0  0  0
 11  4  1  0  0  0  0
 12  8  1  0  0  0  0
 13  8  1  0  0  0  0
 13 18  1  1  0  0  0
 14  5  2  0  0  0  0
 15 20  1  0  0  0  0
 16 12  1  0  0  0  0
 17 16  2  0  0  0  0
 18 10  1  0  0  0  0
 19 20  2  0  0  0  0
 19 10  1  0  0  0  0
 22 30  1  0  0  0  0
 22 21  2  0  0  0  0
 23 22  1  0  0  0  0
 24 28  1  0  0  0  0
 24 31  1  0  0  0  0
 25 30  1  0  0  0  0
 27 24  1  0  0  0  0
 28 25  1  0  0  0  0
 29 30  1  0  0  0  0
 29 26  1  6  0  0  0
 31 29  1  0  0  0  0
M  END
>  <MODEL>
6

>  <REMARK>
 VINA RESULT:      -6.2      3.105      6.239
  Name = 
  1 active torsions:
  status: ('A' for Active; 'I' for Inactive)
    1  A    between atoms: C_10  and  N_16
                            x       y       z     vdW  Elec       q    Type
                         _______ _______ _______ _____ _____    ______ ____

>  <TORSDO>
F 1

$$$$
=
 OpenBabel11112416543D

 31 35  0  0  1  0  0  0  0  0999 V2000
  191.0380  175.0610  145.4430 C   0  0  0  0  0  0  0  0  0  0  0  0
  194.6100  173.7700  145.7550 C   0  0  2  0  0  3  0  0  0  0  0  0
  194.6900  172.5260  144.9010 C   0  0  0  0  0  0  0  0  0  0  0  0
  193.5830  170.6900  143.8640 C   0  0  0  0  0  0  0  0  0  0  0  0
  193.4360  174.6680  145.4260 C   0  0  0  0  0  0  0  0  0  0  0  0
  191.2380  176.3360  144.9100 C   0  0  0  0  0  3  0  0  0  0  0  0
  193.5530  171.8600  144.5560 N   0  0  0  0  0  0  0  0  0  0  0  0
  196.1030  175.5590  144.6370 C   0  0  1  0  0  3  0  0  0  0  0  0
  189.7840  174.6280  145.7130 F   0  0  0  0  0  0  0  0  0  0  0  0
  197.2250  172.6840  144.8770 C   0  0  0  0  0  2  0  0  0  0  0  0
  192.3110  170.0110  143.5000 C   0  0  0  0  0  1  0  0  0  0  0  0
  194.9510  176.4520  144.6430 N   0  0  0  0  0  2  0  0  0  0  0  0
  195.9450  174.5430  145.7860 C   0  0  2  0  0  3  0  0  0  0  0  0
  192.1330  174.2350  145.7100 C   0  0  0  0  0  3  0  0  0  0  0  0
  194.8040  170.1240  143.5010 C   0  0  0  0  0  3  0  0  0  0  0  0
  193.6300  175.9600  144.8870 C   0  0  0  0  0  0  0  0  0  0  0  0
  192.5310  176.7860  144.6400 C   0  0  0  0  0  3  0  0  0  0  0  0
  197.0980  173.6540  145.9710 N   0  0  0  0  0  2  0  0  0  0  0  0
  195.9420  171.9650  144.5800 C   0  0  0  0  0  0  0  0  0  0  0  0
  195.9870  170.7710  143.8590 C   0  0  0  0  0  3  0  0  0  0  0  0
  196.4420  176.8440  142.0960 O   0  0  0  0  0  0  0  0  0  0  0  0
  196.3180  175.5890  142.1030 C   0  0  0  0  0  0  0  0  0  0  0  0
  196.1830  174.8880  143.3430 N   0  0  0  0  0  2  0  0  0  0  0  0
  194.4310  172.9520  139.8800 N   0  0  0  0  0  0  0  0  0  0  0  0
  195.2070  175.2910  139.9220 C   0  0  0  0  0  2  0  0  0  0  0  0
  197.8050  173.0840  141.6300 C   0  0  0  0  0  1  0  0  0  0  0  0
  193.2690  172.1210  140.1410 C   0  0  0  0  0  1  0  0  0  0  0  0
  194.0120  174.3440  140.0860 C   0  0  0  0  0  2  0  0  0  0  0  0
  196.6650  173.4810  140.7060 C   0  0  2  0  0  3  0  0  0  0  0  0
  196.2460  174.8780  140.8570 N   0  0  0  0  0  0  0  0  0  0  0  0
  195.4440  172.5840  140.8740 C   0  0  0  0  0  2  0  0  0  0  0  0
  1 14  1  0  0  0  0
  1  9  1  0  0  0  0
  2  3  1  6  0  0  0
  2 13  1  0  0  0  0
  4  7  1  0  0  0  0
  5 14  2  0  0  0  0
  5  2  1  0  0  0  0
  6  1  2  0  0  0  0
  7  3  2  0  0  0  0
  8 23  1  6  0  0  0
  8 12  1  0  0  0  0
  8 13  1  0  0  0  0
 10 18  1  0  0  0  0
 11  4  1  0  0  0  0
 12 16  1  0  0  0  0
 13 18  1  6  0  0  0
 15 20  1  0  0  0  0
 15  4  2  0  0  0  0
 16  5  1  0  0  0  0
 17 16  2  0  0  0  0
 17  6  1  0  0  0  0
 19 10  1  0  0  0  0
 19  3  1  0  0  0  0
 20 19  2  0  0  0  0
 21 22  2  0  0  0  0
 22 23  1  0  0  0  0
 24 28  1  0  0  0  0
 24 27  1  0  0  0  0
 24 31  1  0  0  0  0
 25 28  1  0  0  0  0
 25 30  1  0  0  0  0
 29 30  1  0  0  0  0
 29 31  1  0  0  0  0
 29 26  1  1  0  0  0
 30 22  1  0  0  0  0
M  END
>  <MODEL>
7

>  <REMARK>
 VINA RESULT:      -6.1      4.473      6.643
  Name = 
  1 active torsions:
  status: ('A' for Active; 'I' for Inactive)
    1  A    between atoms: C_10  and  N_16
                            x       y       z     vdW  Elec       q    Type
                         _______ _______ _______ _____ _____    ______ ____

>  <TORSDO>
F 1

$$$$
=
 OpenBabel11112416543D

 31 35  0  0  1  0  0  0  0  0999 V2000
  189.5920  176.7430  142.8560 C   0  0  0  0  0  0  0  0  0  0  0  0
  191.8140  174.1840  144.6000 C   0  0  2  0  0  3  0  0  0  0  0  0
  192.2820  173.2260  143.5300 C   0  0  0  0  0  0  0  0  0  0  0  0
  191.9310  172.2170  141.4010 C   0  0  0  0  0  0  0  0  0  0  0  0
  191.2980  175.5020  144.0630 C   0  0  0  0  0  0  0  0  0  0  0  0
  190.2640  177.9380  143.1230 C   0  0  0  0  0  3  0  0  0  0  0  0
  191.5980  173.1260  142.3560 N   0  0  0  0  0  0  0  0  0  0  0  0
  193.8880  175.4930  145.4130 C   0  0  1  0  0  3  0  0  0  0  0  0
  188.4400  176.7570  142.1450 F   0  0  0  0  0  0  0  0  0  0  0  0
  194.1650  172.4330  145.0390 C   0  0  0  0  0  2  0  0  0  0  0  0
  191.1610  172.1600  140.1300 C   0  0  0  0  0  1  0  0  0  0  0  0
  193.1630  176.7240  145.1220 N   0  0  0  0  0  2  0  0  0  0  0  0
  192.8660  174.3780  145.7110 C   0  0  2  0  0  3  0  0  0  0  0  0
  190.1010  175.5320  143.3330 C   0  0  0  0  0  3  0  0  0  0  0  0
  192.9910  171.3360  141.6140 C   0  0  0  0  0  3  0  0  0  0  0  0
  191.9710  176.7160  144.3300 C   0  0  0  0  0  0  0  0  0  0  0  0
  191.4470  177.9240  143.8640 C   0  0  0  0  0  3  0  0  0  0  0  0
  193.4640  173.1070  146.1380 N   0  0  0  0  0  2  0  0  0  0  0  0
  193.3360  172.3290  143.7920 C   0  0  0  0  0  0  0  0  0  0  0  0
  193.6960  171.3980  142.8160 C   0  0  0  0  0  3  0  0  0  0  0  0
  195.9200  177.1580  144.2630 O   0  0  0  0  0  0  0  0  0  0  0  0
  195.7050  176.0410  143.7190 C   0  0  0  0  0  0  0  0  0  0  0  0
  194.7290  175.1510  144.2690 N   0  0  0  0  0  2  0  0  0  0  0  0
  195.4840  174.7270  140.0200 N   0  0  0  0  0  0  0  0  0  0  0  0
  196.2610  176.6240  141.3880 C   0  0  0  0  0  2  0  0  0  0  0  0
  196.8950  173.3760  143.2820 C   0  0  0  0  0  1  0  0  0  0  0  0
  194.3610  174.2690  139.2210 C   0  0  0  0  0  1  0  0  0  0  0  0
  195.1660  176.0920  140.4560 C   0  0  0  0  0  2  0  0  0  0  0  0
  196.6770  174.3160  142.1080 C   0  0  2  0  0  3  0  0  0  0  0  0
  196.3950  175.6990  142.5060 N   0  0  0  0  0  0  0  0  0  0  0  0
  195.5640  173.8370  141.1820 C   0  0  0  0  0  2  0  0  0  0  0  0
  1  6  2  0  0  0  0
  1 14  1  0  0  0  0
  2  3  1  6  0  0  0
  2 13  1  0  0  0  0
  3 19  1  0  0  0  0
  4 15  2  0  0  0  0
  4  7  1  0  0  0  0
  5 16  1  0  0  0  0
  5  2  1  0  0  0  0
  6 17  1  0  0  0  0
  7  3  2  0  0  0  0
  8 23  1  6  0  0  0
  8 13  1  0  0  0  0
  9  1  1  0  0  0  0
 10 18  1  0  0  0  0
 11  4  1  0  0  0  0
 12  8  1  0  0  0  0
 13 18  1  6  0  0  0
 14  5  2  0  0  0  0
 15 20  1  0  0  0  0
 16 12  1  0  0  0  0
 17 16  2  0  0  0  0
 19 10  1  0  0  0  0
 20 19  2  0  0  0  0
 22 21  2  0  0  0  0
 22 23  1  0  0  0  0
 24 28  1  0  0  0  0
 24 31  1  0  0  0  0
 25 30  1  0  0  0  0
 27 24  1  0  0  0  0
 28 25  1  0  0  0  0
 29 30  1  0  0  0  0
 29 26  1  1  0  0  0
 30 22  1  0  0  0  0
 31 29  1  0  0  0  0
M  END
>  <MODEL>
8

>  <REMARK>
 VINA RESULT:      -6.1      3.777      6.238
  Name = 
  1 active torsions:
  status: ('A' for Active; 'I' for Inactive)
    1  A    between atoms: C_10  and  N_16
                            x       y       z     vdW  Elec       q    Type
                         _______ _______ _______ _____ _____    ______ ____

>  <TORSDO>
F 1

$$$$
=
 OpenBabel11112416543D

 31 35  0  0  1  0  0  0  0  0999 V2000
  194.0250  173.8430  140.8540 C   0  0  0  0  0  0  0  0  0  0  0  0
  191.6650  172.9440  143.7090 C   0  0  2  0  0  3  0  0  0  0  0  0
  191.8240  174.0270  144.7500 C   0  0  0  0  0  0  0  0  0  0  0  0
  193.1650  175.7350  145.7280 C   0  0  0  0  0  0  0  0  0  0  0  0
  192.1660  173.3340  142.3340 C   0  0  0  0  0  0  0  0  0  0  0  0
  193.1410  173.9740  139.7800 C   0  0  0  0  0  3  0  0  0  0  0  0
  192.9400  174.8080  144.7590 N   0  0  0  0  0  0  0  0  0  0  0  0
  189.2790  173.1590  142.7420 C   0  0  1  0  0  3  0  0  0  0  0  0
  195.3540  174.0230  140.6650 F   0  0  0  0  0  0  0  0  0  0  0  0
  189.6170  173.3530  145.8120 C   0  0  0  0  0  2  0  0  0  0  0  0
  194.3920  176.5730  145.6820 C   0  0  0  0  0  1  0  0  0  0  0  0
  189.8780  173.2320  141.4140 N   0  0  0  0  0  2  0  0  0  0  0  0
  190.2310  172.3770  143.6690 C   0  0  2  0  0  3  0  0  0  0  0  0
  193.5400  173.5140  142.1230 C   0  0  0  0  0  3  0  0  0  0  0  0
  192.2480  175.8970  146.7660 C   0  0  0  0  0  3  0  0  0  0  0  0
  191.2790  173.4680  141.2430 C   0  0  0  0  0  0  0  0  0  0  0  0
  191.7720  173.7800  139.9740 C   0  0  0  0  0  3  0  0  0  0  0  0
  189.6960  172.1250  145.0120 N   0  0  0  0  0  2  0  0  0  0  0  0
  190.8940  174.1400  145.8030 C   0  0  0  0  0  0  0  0  0  0  0  0
  191.1070  175.0970  146.7970 C   0  0  0  0  0  3  0  0  0  0  0  0
  187.6180  175.1400  141.5020 O   0  0  0  0  0  0  0  0  0  0  0  0
  188.2310  175.4690  142.5540 C   0  0  0  0  0  0  0  0  0  0  0  0
  189.0460  174.5120  143.2370 N   0  0  0  0  0  2  0  0  0  0  0  0
  190.1540  178.6680  143.7870 N   0  0  0  0  0  0  0  0  0  0  0  0
  188.5640  177.8660  142.0840 C   0  0  0  0  0  2  0  0  0  0  0  0
  187.8180  176.1370  145.3980 C   0  0  0  0  0  1  0  0  0  0  0  0
  191.5660  178.9210  144.0140 C   0  0  0  0  0  1  0  0  0  0  0  0
  190.0180  178.2460  142.3880 C   0  0  0  0  0  2  0  0  0  0  0  0
  188.3170  177.1970  144.4300 C   0  0  2  0  0  3  0  0  0  0  0  0
  188.1610  176.8250  143.0200 N   0  0  0  0  0  0  0  0  0  0  0  0
  189.7750  177.5680  144.6790 C   0  0  0  0  0  2  0  0  0  0  0  0
  1 14  1  0  0  0  0
  2  5  1  6  0  0  0
  2  3  1  0  0  0  0
  3  7  2  0  0  0  0
  3 19  1  0  0  0  0
  4 15  2  0  0  0  0
  6 17  1  0  0  0  0
  6  1  2  0  0  0  0
  7  4  1  0  0  0  0
  8 23  1  1  0  0  0
  8 13  1  0  0  0  0
  9  1  1  0  0  0  0
 11  4  1  0  0  0  0
 12  8  1  0  0  0  0
 13  2  1  0  0  0  0
 13 18  1  1  0  0  0
 14  5  2  0  0  0  0
 15 20  1  0  0  0  0
 16 12  1  0  0  0  0
 16  5  1  0  0  0  0
 17 16  2  0  0  0  0
 18 10  1  0  0  0  0
 19 10  1  0  0  0  0
 19 20  2  0  0  0  0
 21 22  2  0  0  0  0
 22 30  1  0  0  0  0
 22 23  1  0  0  0  0
 24 27  1  0  0  0  0
 24 31  1  0  0  0  0
 25 28  1  0  0  0  0
 25 30  1  0  0  0  0
 28 24  1  0  0  0  0
 29 31  1  0  0  0  0
 29 26  1  1  0  0  0
 30 29  1  0  0  0  0
M  END
>  <MODEL>
9

>  <REMARK>
 VINA RESULT:      -6.0      2.665      5.931
  Name = 
  1 active torsions:
  status: ('A' for Active; 'I' for Inactive)
    1  A    between atoms: C_10  and  N_16
                            x       y       z     vdW  Elec       q    Type
                         _______ _______ _______ _____ _____    ______ ____

>  <TORSDO>
F 1

$$$$
