=
 OpenBabel11112416273D

 32 38  0  0  1  0  0  0  0  0999 V2000
  192.2070  174.5590  146.1460 C   0  0  1  0  0  3  0  0  0  0  0  0
  188.3890  177.4570  144.0210 C   0  0  1  0  0  3  0  0  0  0  0  0
  185.9560  178.2150  148.2310 C   0  0  0  0  0  3  0  0  0  0  0  0
  184.7580  178.3090  147.5300 C   0  0  0  0  0  3  0  0  0  0  0  0
  187.0840  177.6550  141.9600 C   0  0  0  0  0  0  0  0  0  0  0  0
  185.8720  177.8030  141.2970 C   0  0  0  0  0  0  0  0  0  0  0  0
  190.2490  175.8950  144.3930 N   0  0  1  0  0  0  0  0  0  0  0  0
  189.6170  177.4320  146.2320 C   0  0  0  0  0  2  0  0  0  0  0  0
  183.7080  178.0900  140.9660 C   0  0  0  0  0  0  0  0  0  0  0  0
  191.4860  175.8270  146.5850 C   0  0  2  0  0  3  0  0  0  0  0  0
  187.1490  178.0040  147.5410 C   0  0  0  0  0  3  0  0  0  0  0  0
  188.3300  177.6720  145.5020 C   0  0  0  0  0  0  0  0  0  0  0  0
  187.1670  177.8840  146.1390 C   0  0  0  0  0  0  0  0  0  0  0  0
  185.9250  177.8770  144.0630 C   0  0  0  0  0  0  0  0  0  0  0  0
  184.2870  177.9940  139.8110 N   0  0  0  0  0  0  0  0  0  0  0  0
  191.4240  173.7530  145.0950 C   0  0  0  0  0  2  0  0  0  0  0  0
  190.1430  176.0430  145.8630 C   0  0  2  0  0  3  0  0  0  0  0  0
  185.6670  177.8100  140.0200 N   0  0  0  0  0  0  0  0  0  0  0  0
  190.7280  174.5650  143.9880 C   0  0  0  0  0  2  0  0  0  0  0  0
  192.6970  175.9130  145.6590 C   0  0  1  0  0  3  0  0  0  0  0  0
  184.7550  178.1920  146.1400 C   0  0  0  0  0  3  0  0  0  0  0  0
  185.9490  177.9780  145.4170 C   0  0  0  0  0  0  0  0  0  0  0  0
  184.6950  178.0240  143.3720 C   0  0  0  0  0  3  0  0  0  0  0  0
  188.9200  176.0410  143.7900 C   0  0  0  0  0  2  0  0  0  0  0  0
  188.1490  177.5140  141.2980 O   0  0  0  0  0  0  0  0  0  0  0  0
  182.2480  178.2960  141.1580 C   0  0  0  0  0  1  0  0  0  0  0  0
  187.0960  177.6640  143.3410 N   0  0  0  0  0  0  0  0  0  0  0  0
  184.7200  177.9690  141.9910 C   0  0  0  0  0  0  0  0  0  0  0  0
  193.8170  176.2930  146.4000 O   0  0  0  0  0  0  0  0  0  0  0  0
  194.8840  176.2190  145.5020 C   0  0  0  0  0  3  0  0  0  0  0  0
  194.3600  176.3010  144.0830 C   0  0  0  0  0  1  0  0  0  0  0  0
  195.6150  174.9040  145.6910 C   0  0  0  0  0  1  0  0  0  0  0  0
  1 16  1  6  0  0  0
  1 10  1  0  0  0  0
  2 24  1  1  0  0  0
  2 12  1  0  0  0  0
  4  3  1  0  0  0  0
  5 27  1  0  0  0  0
  6  5  1  0  0  0  0
  6 28  1  0  0  0  0
  7 24  1  6  0  0  0
  7 17  1  0  0  0  0
  9 26  1  0  0  0  0
  9 28  1  0  0  0  0
 11  3  2  0  0  0  0
 12 13  2  0  0  0  0
 12  8  1  0  0  0  0
 13 11  1  0  0  0  0
 14 22  2  0  0  0  0
 15 18  1  0  0  0  0
 15  9  2  0  0  0  0
 17  8  1  0  0  0  0
 17 10  1  0  0  0  0
 18  6  2  0  0  0  0
 19  7  1  0  0  0  0
 19 16  1  0  0  0  0
 20  1  1  0  0  0  0
 20 29  1  0  0  0  0
 20 10  1  0  0  0  0
 21  4  2  0  0  0  0
 22 13  1  0  0  0  0
 22 21  1  0  0  0  0
 23 14  1  0  0  0  0
 25  5  2  0  0  0  0
 27  2  1  0  0  0  0
 27 14  1  0  0  0  0
 28 23  2  0  0  0  0
 30 32  1  0  0  0  0
 30 29  1  0  0  0  0
 31 30  1  0  0  0  0
M  END
>  <MODEL>
1

>  <REMARK>
 VINA RESULT:      -9.9      0.000      0.000
  Name = 
  2 active torsions:
  status: ('A' for Active; 'I' for Inactive)
    1  A    between atoms: C_20  and  O_29
    2  A    between atoms: O_29  and  C_30
                            x       y       z     vdW  Elec       q    Type
                         _______ _______ _______ _____ _____    ______ ____

>  <TORSDO>
F 2

$$$$
=
 OpenBabel11112416273D

 32 38  0  0  1  0  0  0  0  0999 V2000
  190.7800  171.9450  139.1930 C   0  0  1  0  0  3  0  0  0  0  0  0
  188.7070  175.8650  141.9900 C   0  0  1  0  0  3  0  0  0  0  0  0
  190.9100  174.6600  146.2220 C   0  0  0  0  0  3  0  0  0  0  0  0
  189.8480  175.2040  146.9370 C   0  0  0  0  0  3  0  0  0  0  0  0
  186.6530  177.1850  142.1690 C   0  0  0  0  0  0  0  0  0  0  0  0
  185.6370  177.7580  142.9250 C   0  0  0  0  0  0  0  0  0  0  0  0
  189.1640  174.1560  140.2850 N   0  0  1  0  0  0  0  0  0  0  0  0
  190.9130  174.6280  141.9780 C   0  0  0  0  0  2  0  0  0  0  0  0
  184.4540  178.3770  144.6840 C   0  0  0  0  0  0  0  0  0  0  0  0
  191.3410  172.8900  140.2490 C   0  0  2  0  0  3  0  0  0  0  0  0
  190.9040  174.7070  144.8280 C   0  0  0  0  0  3  0  0  0  0  0  0
  189.8550  175.3200  142.7830 C   0  0  0  0  0  0  0  0  0  0  0  0
  189.8380  175.2980  144.1250 C   0  0  0  0  0  0  0  0  0  0  0  0
  187.7080  176.4420  144.2070 C   0  0  0  0  0  0  0  0  0  0  0  0
  183.8590  178.8120  143.6190 N   0  0  0  0  0  0  0  0  0  0  0  0
  189.2460  171.8470  139.2250 C   0  0  0  0  0  2  0  0  0  0  0  0
  190.2490  173.5630  141.1020 C   0  0  2  0  0  3  0  0  0  0  0  0
  184.6120  178.4180  142.4960 N   0  0  0  0  0  0  0  0  0  0  0  0
  188.4790  173.1640  139.4430 C   0  0  0  0  0  2  0  0  0  0  0  0
  191.3130  173.3080  138.7810 C   0  0  1  0  0  3  0  0  0  0  0  0
  188.7820  175.7940  146.2580 C   0  0  0  0  0  3  0  0  0  0  0  0
  188.7510  175.8540  144.8480 C   0  0  0  0  0  0  0  0  0  0  0  0
  186.6630  177.0300  144.9650 C   0  0  0  0  0  3  0  0  0  0  0  0
  188.1340  174.7080  141.1690 C   0  0  0  0  0  2  0  0  0  0  0  0
  186.6370  177.2900  140.9120 O   0  0  0  0  0  0  0  0  0  0  0  0
  183.9630  178.5990  146.0700 C   0  0  0  0  0  1  0  0  0  0  0  0
  187.6660  176.5050  142.8170 N   0  0  0  0  0  0  0  0  0  0  0  0
  185.6460  177.6660  144.2770 C   0  0  0  0  0  0  0  0  0  0  0  0
  192.5890  173.1610  138.2360 O   0  0  0  0  0  0  0  0  0  0  0  0
  192.5910  173.9740  137.1010 C   0  0  0  0  0  3  0  0  0  0  0  0
  193.4350  175.2050  137.3600 C   0  0  0  0  0  1  0  0  0  0  0  0
  191.1720  174.3990  136.7780 C   0  0  0  0  0  1  0  0  0  0  0  0
  1 16  1  1  0  0  0
  1 10  1  0  0  0  0
  2 24  1  1  0  0  0
  2 12  1  0  0  0  0
  2 27  1  0  0  0  0
  3  4  1  0  0  0  0
  5 27  1  0  0  0  0
  5  6  1  0  0  0  0
  6 28  1  0  0  0  0
  7 19  1  6  0  0  0
  7 17  1  0  0  0  0
  7 24  1  0  0  0  0
  8 12  1  0  0  0  0
  9 26  1  0  0  0  0
 10 17  1  0  0  0  0
 11  3  2  0  0  0  0
 12 13  2  0  0  0  0
 13 11  1  0  0  0  0
 13 22  1  0  0  0  0
 14 22  2  0  0  0  0
 14 23  1  0  0  0  0
 15  9  2  0  0  0  0
 16 19  1  0  0  0  0
 17  8  1  0  0  0  0
 18  6  2  0  0  0  0
 18 15  1  0  0  0  0
 20  1  1  0  0  0  0
 20 10  1  0  0  0  0
 21  4  2  0  0  0  0
 22 21  1  0  0  0  0
 25  5  2  0  0  0  0
 27 14  1  0  0  0  0
 28  9  1  0  0  0  0
 28 23  2  0  0  0  0
 29 20  1  0  0  0  0
 30 31  1  0  0  0  0
 30 29  1  0  0  0  0
 32 30  1  0  0  0  0
M  END
>  <MODEL>
2

>  <REMARK>
 VINA RESULT:      -8.4      3.642      5.303
  Name = 
  2 active torsions:
  status: ('A' for Active; 'I' for Inactive)
    1  A    between atoms: C_20  and  O_29
    2  A    between atoms: O_29  and  C_30
                            x       y       z     vdW  Elec       q    Type
                         _______ _______ _______ _____ _____    ______ ____

>  <TORSDO>
F 2

$$$$
=
 OpenBabel11112416273D

 32 38  0  0  1  0  0  0  0  0999 V2000
  195.2620  175.1600  143.8030 C   0  0  1  0  0  3  0  0  0  0  0  0
  190.1600  175.5750  144.9380 C   0  0  1  0  0  3  0  0  0  0  0  0
  188.5710  174.6580  140.3720 C   0  0  0  0  0  3  0  0  0  0  0  0
  187.4440  175.4410  140.6000 C   0  0  0  0  0  3  0  0  0  0  0  0
  188.6380  176.8280  146.3890 C   0  0  0  0  0  0  0  0  0  0  0  0
  187.4740  177.5620  146.5870 C   0  0  0  0  0  0  0  0  0  0  0  0
  192.6120  175.7330  144.9610 N   0  0  1  0  0  0  0  0  0  0  0  0
  191.5480  174.1710  143.3580 C   0  0  0  0  0  2  0  0  0  0  0  0
  185.5410  178.5410  146.1680 C   0  0  0  0  0  0  0  0  0  0  0  0
  194.0290  174.3640  143.3920 C   0  0  2  0  0  3  0  0  0  0  0  0
  189.5080  174.4780  141.3890 C   0  0  0  0  0  3  0  0  0  0  0  0
  190.2590  174.8940  143.6070 C   0  0  0  0  0  0  0  0  0  0  0  0
  189.3360  175.0770  142.6500 C   0  0  0  0  0  0  0  0  0  0  0  0
  187.9800  176.4640  144.0970 C   0  0  0  0  0  0  0  0  0  0  0  0
  185.8410  178.7490  147.4100 N   0  0  0  0  0  0  0  0  0  0  0  0
  194.9260  176.5680  144.3220 C   0  0  0  0  0  2  0  0  0  0  0  0
  192.7110  175.1320  143.6110 C   0  0  2  0  0  3  0  0  0  0  0  0
  187.0750  178.1260  147.6800 N   0  0  0  0  0  2  0  0  0  0  0  0
  193.6970  176.6850  145.2410 C   0  0  0  0  0  2  0  0  0  0  0  0
  194.7620  174.0300  144.6890 C   0  0  1  0  0  3  0  0  0  0  0  0
  187.2550  176.0420  141.8440 C   0  0  0  0  0  3  0  0  0  0  0  0
  188.1890  175.8770  142.8900 C   0  0  0  0  0  0  0  0  0  0  0  0
  186.7980  177.2180  144.3140 C   0  0  0  0  0  2  0  0  0  0  0  0
  191.3690  176.5050  145.0620 C   0  0  0  0  0  2  0  0  0  0  0  0
  189.4380  176.6480  147.3470 O   0  0  0  0  0  0  0  0  0  0  0  0
  184.3050  179.0410  145.5080 C   0  0  0  0  0  1  0  0  0  0  0  0
  188.8960  176.3100  145.1340 N   0  0  0  0  0  0  0  0  0  0  0  0
  186.5980  177.7540  145.5720 C   0  0  0  0  0  0  0  0  0  0  0  0
  195.5560  172.9000  144.4900 O   0  0  0  0  0  0  0  0  0  0  0  0
  196.0110  172.5520  145.7630 C   0  0  0  0  0  3  0  0  0  0  0  0
  197.1880  173.4300  146.1380 C   0  0  0  0  0  1  0  0  0  0  0  0
  196.4490  171.1010  145.7670 C   0  0  0  0  0  1  0  0  0  0  0  0
  1 16  1  1  0  0  0
  1 20  1  0  0  0  0
  2 24  1  6  0  0  0
  2 27  1  0  0  0  0
  3  4  1  0  0  0  0
  3 11  2  0  0  0  0
  4 21  2  0  0  0  0
  5  6  1  0  0  0  0
  5 25  2  0  0  0  0
  6 18  1  0  0  0  0
  7 24  1  6  0  0  0
  7 19  1  0  0  0  0
  8 12  1  0  0  0  0
  8 17  1  0  0  0  0
  9 15  2  0  0  0  0
 10 17  1  0  0  0  0
 10  1  1  0  0  0  0
 10 20  1  0  0  0  0
 11 13  1  0  0  0  0
 12  2  1  0  0  0  0
 13 22  1  0  0  0  0
 13 12  2  0  0  0  0
 14 23  1  0  0  0  0
 14 27  1  0  0  0  0
 15 18  1  0  0  0  0
 16 19  1  0  0  0  0
 17  7  1  0  0  0  0
 21 22  1  0  0  0  0
 22 14  2  0  0  0  0
 23 28  1  0  0  0  0
 26  9  1  0  0  0  0
 27  5  1  0  0  0  0
 28  9  1  0  0  0  0
 28  6  2  0  0  0  0
 29 20  1  0  0  0  0
 29 30  1  0  0  0  0
 30 32  1  0  0  0  0
 30 31  1  0  0  0  0
M  END
>  <MODEL>
3

>  <REMARK>
 VINA RESULT:      -8.0      2.852      4.981
  Name = 
  2 active torsions:
  status: ('A' for Active; 'I' for Inactive)
    1  A    between atoms: C_20  and  O_29
    2  A    between atoms: O_29  and  C_30
                            x       y       z     vdW  Elec       q    Type
                         _______ _______ _______ _____ _____    ______ ____

>  <TORSDO>
F 2

$$$$
=
 OpenBabel11112416273D

 32 38  0  0  1  0  0  0  0  0999 V2000
  187.6990  178.2920  143.0850 C   0  0  1  0  0  3  0  0  0  0  0  0
  190.4280  173.9850  144.3080 C   0  0  1  0  0  3  0  0  0  0  0  0
  194.1230  176.3640  146.5200 C   0  0  0  0  0  3  0  0  0  0  0  0
  195.0020  175.3480  146.1590 C   0  0  0  0  0  3  0  0  0  0  0  0
  190.9350  171.7530  143.4390 C   0  0  0  0  0  0  0  0  0  0  0  0
  191.8390  170.7400  143.1420 C   0  0  0  0  0  0  0  0  0  0  0  0
  188.8770  175.5970  143.2910 N   0  0  1  0  0  0  0  0  0  0  0  0
  190.0350  176.2380  145.3860 C   0  0  0  0  0  2  0  0  0  0  0  0
  193.7430  169.6320  143.0010 C   0  0  0  0  0  0  0  0  0  0  0  0
  188.4710  177.8570  144.3240 C   0  0  2  0  0  3  0  0  0  0  0  0
  192.7760  176.2710  146.1730 C   0  0  0  0  0  3  0  0  0  0  0  0
  190.9820  175.1050  145.1330 C   0  0  0  0  0  0  0  0  0  0  0  0
  192.2830  175.1620  145.4620 C   0  0  0  0  0  0  0  0  0  0  0  0
  192.7350  173.0300  144.4110 C   0  0  0  0  0  0  0  0  0  0  0  0
  192.8070  168.9000  142.4830 N   0  0  0  0  0  0  0  0  0  0  0  0
  188.1070  177.5200  141.8180 C   0  0  0  0  0  2  0  0  0  0  0  0
  189.4750  176.7220  144.0460 C   0  0  2  0  0  3  0  0  0  0  0  0
  191.5920  169.6060  142.5720 N   0  0  0  0  0  0  0  0  0  0  0  0
  188.3450  176.0080  141.9830 C   0  0  0  0  0  2  0  0  0  0  0  0
  187.0140  177.4410  144.1430 C   0  0  1  0  0  3  0  0  0  0  0  0
  194.5330  174.2400  145.4540 C   0  0  0  0  0  3  0  0  0  0  0  0
  193.1740  174.1220  145.0900 C   0  0  0  0  0  0  0  0  0  0  0  0
  193.6460  171.9880  144.0990 C   0  0  0  0  0  3  0  0  0  0  0  0
  189.9100  174.5970  143.0040 C   0  0  0  0  0  2  0  0  0  0  0  0
  189.7150  171.6110  143.1520 O   0  0  0  0  0  0  0  0  0  0  0  0
  195.1700  169.2250  143.0960 C   0  0  0  0  0  1  0  0  0  0  0  0
  191.3980  172.9050  144.0460 N   0  0  0  0  0  0  0  0  0  0  0  0
  193.1500  170.8700  143.4550 C   0  0  0  0  0  0  0  0  0  0  0  0
  186.2020  178.2530  144.9350 O   0  0  0  0  0  0  0  0  0  0  0  0
  185.3760  177.3670  145.6300 C   0  0  0  0  0  3  0  0  0  0  0  0
  184.2470  178.1350  146.2870 C   0  0  0  0  0  1  0  0  0  0  0  0
  186.1830  176.6540  146.6970 C   0  0  0  0  0  1  0  0  0  0  0  0
  1 16  1  6  0  0  0
  1 20  1  0  0  0  0
  1 10  1  0  0  0  0
  2 24  1  6  0  0  0
  2 12  1  0  0  0  0
  4  3  1  0  0  0  0
  5 27  1  0  0  0  0
  6  5  1  0  0  0  0
  6 28  1  0  0  0  0
  7 19  1  6  0  0  0
  7 17  1  0  0  0  0
  9 26  1  0  0  0  0
  9 28  1  0  0  0  0
 11  3  2  0  0  0  0
 12  8  1  0  0  0  0
 12 13  2  0  0  0  0
 13 11  1  0  0  0  0
 14 22  2  0  0  0  0
 15 18  1  0  0  0  0
 15  9  2  0  0  0  0
 16 19  1  0  0  0  0
 17 10  1  0  0  0  0
 17  8  1  0  0  0  0
 18  6  2  0  0  0  0
 20 10  1  0  0  0  0
 20 29  1  0  0  0  0
 21  4  2  0  0  0  0
 22 21  1  0  0  0  0
 22 13  1  0  0  0  0
 23 14  1  0  0  0  0
 24  7  1  0  0  0  0
 25  5  2  0  0  0  0
 27  2  1  0  0  0  0
 27 14  1  0  0  0  0
 28 23  2  0  0  0  0
 29 30  1  0  0  0  0
 30 31  1  0  0  0  0
 30 32  1  0  0  0  0
M  END
>  <MODEL>
4

>  <REMARK>
 VINA RESULT:      -7.9      3.119      8.333
  Name = 
  2 active torsions:
  status: ('A' for Active; 'I' for Inactive)
    1  A    between atoms: C_20  and  O_29
    2  A    between atoms: O_29  and  C_30
                            x       y       z     vdW  Elec       q    Type
                         _______ _______ _______ _____ _____    ______ ____

>  <TORSDO>
F 2

$$$$
=
 OpenBabel11112416273D

 32 38  0  0  1  0  0  0  0  0999 V2000
  186.8400  178.6660  142.6500 C   0  0  1  0  0  3  0  0  0  0  0  0
  189.7300  174.4190  143.6980 C   0  0  1  0  0  3  0  0  0  0  0  0
  193.6680  176.8960  145.3020 C   0  0  0  0  0  3  0  0  0  0  0  0
  194.4990  175.8650  144.8760 C   0  0  0  0  0  3  0  0  0  0  0  0
  190.1340  172.1510  142.8700 C   0  0  0  0  0  0  0  0  0  0  0  0
  190.9970  171.1260  142.5040 C   0  0  0  0  0  0  0  0  0  0  0  0
  188.0510  175.9840  142.8200 N   0  0  1  0  0  0  0  0  0  0  0  0
  189.4680  176.7190  144.7170 C   0  0  0  0  0  2  0  0  0  0  0  0
  192.8740  170.0120  142.1650 C   0  0  0  0  0  0  0  0  0  0  0  0
  187.7690  178.2880  143.7960 C   0  0  2  0  0  3  0  0  0  0  0  0
  192.2870  176.7880  145.1390 C   0  0  0  0  0  3  0  0  0  0  0  0
  190.3810  175.5750  144.3930 C   0  0  0  0  0  0  0  0  0  0  0  0
  191.7120  175.6480  144.5470 C   0  0  0  0  0  0  0  0  0  0  0  0
  192.0380  173.4710  143.5430 C   0  0  0  0  0  0  0  0  0  0  0  0
  191.8830  169.2590  141.8070 N   0  0  0  0  0  0  0  0  0  0  0  0
  187.0850  177.8390  141.3770 C   0  0  0  0  0  2  0  0  0  0  0  0
  188.7350  177.1410  143.4410 C   0  0  2  0  0  3  0  0  0  0  0  0
  190.6850  169.9670  142.0220 N   0  0  0  0  0  0  0  0  0  0  0  0
  187.3510  176.3360  141.5760 C   0  0  0  0  0  2  0  0  0  0  0  0
  186.3030  177.8640  143.8250 C   0  0  1  0  0  3  0  0  0  0  0  0
  193.9480  174.7260  144.2880 C   0  0  0  0  0  3  0  0  0  0  0  0
  192.5540  174.5920  144.1090 C   0  0  0  0  0  0  0  0  0  0  0  0
  192.9060  172.4160  143.1610 C   0  0  0  0  0  3  0  0  0  0  0  0
  189.0440  174.9720  142.4470 C   0  0  0  0  0  2  0  0  0  0  0  0
  188.8870  171.9960  142.7510 O   0  0  0  0  0  0  0  0  0  0  0  0
  194.3040  169.6100  142.0920 C   0  0  0  0  0  1  0  0  0  0  0  0
  190.6650  173.3290  143.3600 N   0  0  0  0  0  0  0  0  0  0  0  0
  192.3380  171.2700  142.6370 C   0  0  0  0  0  0  0  0  0  0  0  0
  185.5960  178.7110  144.6790 O   0  0  0  0  0  0  0  0  0  0  0  0
  184.7920  177.8620  145.4420 C   0  0  0  0  0  3  0  0  0  0  0  0
  184.0970  178.6600  146.5260 C   0  0  0  0  0  1  0  0  0  0  0  0
  185.6510  176.7900  146.0830 C   0  0  0  0  0  1  0  0  0  0  0  0
  1 16  1  6  0  0  0
  1 10  1  0  0  0  0
  1 20  1  0  0  0  0
  2 24  1  6  0  0  0
  2 12  1  0  0  0  0
  4  3  1  0  0  0  0
  5 27  1  0  0  0  0
  6 28  1  0  0  0  0
  6  5  1  0  0  0  0
  7 19  1  6  0  0  0
  7 17  1  0  0  0  0
  9 28  1  0  0  0  0
 10 20  1  0  0  0  0
 11  3  2  0  0  0  0
 12 13  2  0  0  0  0
 12  8  1  0  0  0  0
 13 11  1  0  0  0  0
 14 22  2  0  0  0  0
 15 18  1  0  0  0  0
 15  9  2  0  0  0  0
 16 19  1  0  0  0  0
 17 10  1  0  0  0  0
 17  8  1  0  0  0  0
 18  6  2  0  0  0  0
 20 29  1  0  0  0  0
 21  4  2  0  0  0  0
 22 21  1  0  0  0  0
 22 13  1  0  0  0  0
 23 14  1  0  0  0  0
 24  7  1  0  0  0  0
 25  5  2  0  0  0  0
 26  9  1  0  0  0  0
 27 14  1  0  0  0  0
 27  2  1  0  0  0  0
 28 23  2  0  0  0  0
 29 30  1  0  0  0  0
 30 32  1  0  0  0  0
 30 31  1  0  0  0  0
M  END
>  <MODEL>
5

>  <REMARK>
 VINA RESULT:      -7.7      3.013      8.064
  Name = 
  2 active torsions:
  status: ('A' for Active; 'I' for Inactive)
    1  A    between atoms: C_20  and  O_29
    2  A    between atoms: O_29  and  C_30
                            x       y       z     vdW  Elec       q    Type
                         _______ _______ _______ _____ _____    ______ ____

>  <TORSDO>
F 2

$$$$
=
 OpenBabel11112416273D

 32 38  0  0  1  0  0  0  0  0999 V2000
  185.1110  177.1030  146.5280 C   0  0  1  0  0  3  0  0  0  0  0  0
  189.6350  176.5370  143.9380 C   0  0  1  0  0  3  0  0  0  0  0  0
  188.2520  172.5460  141.4150 C   0  0  0  0  0  3  0  0  0  0  0  0
  189.5720  172.1080  141.3700 C   0  0  0  0  0  3  0  0  0  0  0  0
  192.0430  176.8540  144.2410 C   0  0  0  0  0  0  0  0  0  0  0  0
  193.3530  176.4020  144.1300 C   0  0  0  0  0  0  0  0  0  0  0  0
  187.8970  177.1500  145.5640 N   0  0  1  0  0  0  0  0  0  0  0  0
  187.1940  176.1370  143.4140 C   0  0  0  0  0  2  0  0  0  0  0  0
  195.0660  175.1050  143.6230 C   0  0  0  0  0  0  0  0  0  0  0  0
  185.4560  176.7520  145.0870 C   0  0  2  0  0  3  0  0  0  0  0  0
  187.9420  173.7530  142.0380 C   0  0  0  0  0  3  0  0  0  0  0  0
  188.6150  175.7000  143.2290 C   0  0  0  0  0  0  0  0  0  0  0  0
  188.9440  174.5460  142.6270 C   0  0  0  0  0  0  0  0  0  0  0  0
  191.2910  174.8470  143.1330 C   0  0  0  0  0  0  0  0  0  0  0  0
  195.5200  176.1730  144.1980 N   0  0  0  0  0  0  0  0  0  0  0  0
  186.2780  176.8670  147.5030 C   0  0  0  0  0  2  0  0  0  0  0  0
  186.9060  176.2620  144.9120 C   0  0  2  0  0  3  0  0  0  0  0  0
  194.4290  177.0020  144.5220 N   0  0  0  0  0  2  0  0  0  0  0  0
  187.6760  177.2830  147.0110 C   0  0  0  0  0  2  0  0  0  0  0  0
  185.3540  178.2140  145.5180 C   0  0  1  0  0  3  0  0  0  0  0  0
  190.5800  172.8800  141.9480 C   0  0  0  0  0  3  0  0  0  0  0  0
  190.2930  174.1060  142.5860 C   0  0  0  0  0  0  0  0  0  0  0  0
  192.6330  174.3980  143.0310 C   0  0  0  0  0  2  0  0  0  0  0  0
  189.2380  176.5770  145.4160 C   0  0  0  0  0  2  0  0  0  0  0  0
  191.8070  177.9750  144.7690 O   0  0  0  0  0  0  0  0  0  0  0  0
  195.9180  173.9900  143.1290 C   0  0  0  0  0  1  0  0  0  0  0  0
  191.0190  176.0560  143.7670 N   0  0  0  0  0  0  0  0  0  0  0  0
  193.6250  175.2060  143.5540 C   0  0  0  0  0  0  0  0  0  0  0  0
  184.1290  178.7320  145.0970 O   0  0  0  0  0  0  0  0  0  0  0  0
  184.4290  179.4860  143.9610 C   0  0  0  0  0  3  0  0  0  0  0  0
  184.2250  178.6400  142.7210 C   0  0  0  0  0  1  0  0  0  0  0  0
  185.8740  179.9430  144.0220 C   0  0  0  0  0  1  0  0  0  0  0  0
  1 16  1  1  0  0  0
  2 24  1  1  0  0  0
  3 11  2  0  0  0  0
  4  3  1  0  0  0  0
  4 21  2  0  0  0  0
  5 25  2  0  0  0  0
  6  5  1  0  0  0  0
  6 18  1  0  0  0  0
  7 24  1  1  0  0  0
  7 19  1  0  0  0  0
  8 17  1  0  0  0  0
  9 15  2  0  0  0  0
 10 20  1  0  0  0  0
 10  1  1  0  0  0  0
 11 13  1  0  0  0  0
 12  8  1  0  0  0  0
 12  2  1  0  0  0  0
 13 12  2  0  0  0  0
 14 27  1  0  0  0  0
 15 18  1  0  0  0  0
 17 10  1  0  0  0  0
 17  7  1  0  0  0  0
 19 16  1  0  0  0  0
 20  1  1  0  0  0  0
 21 22  1  0  0  0  0
 22 13  1  0  0  0  0
 22 14  2  0  0  0  0
 23 14  1  0  0  0  0
 23 28  1  0  0  0  0
 26  9  1  0  0  0  0
 27  2  1  0  0  0  0
 27  5  1  0  0  0  0
 28  9  1  0  0  0  0
 28  6  2  0  0  0  0
 29 20  1  0  0  0  0
 30 32  1  0  0  0  0
 30 29  1  0  0  0  0
 31 30  1  0  0  0  0
M  END
>  <MODEL>
6

>  <REMARK>
 VINA RESULT:      -7.6      2.506      8.016
  Name = 
  2 active torsions:
  status: ('A' for Active; 'I' for Inactive)
    1  A    between atoms: C_20  and  O_29
    2  A    between atoms: O_29  and  C_30
                            x       y       z     vdW  Elec       q    Type
                         _______ _______ _______ _____ _____    ______ ____

>  <TORSDO>
F 2

$$$$
=
 OpenBabel11112416273D

 32 38  0  0  1  0  0  0  0  0999 V2000
  186.6420  176.8750  144.9370 C   0  0  1  0  0  3  0  0  0  0  0  0
  191.4880  175.0770  144.0540 C   0  0  1  0  0  3  0  0  0  0  0  0
  190.0680  170.9660  141.7520 C   0  0  0  0  0  3  0  0  0  0  0  0
  191.2140  170.3140  142.1950 C   0  0  0  0  0  3  0  0  0  0  0  0
  193.7100  175.0380  145.0790 C   0  0  0  0  0  0  0  0  0  0  0  0
  194.8630  174.3610  145.4600 C   0  0  0  0  0  0  0  0  0  0  0  0
  189.5280  176.2700  144.9330 N   0  0  1  0  0  0  0  0  0  0  0  0
  189.2820  174.9980  142.8200 C   0  0  0  0  0  2  0  0  0  0  0  0
  196.3220  172.7240  145.7080 C   0  0  0  0  0  0  0  0  0  0  0  0
  187.3090  176.2030  143.7430 C   0  0  2  0  0  3  0  0  0  0  0  0
  189.8610  172.3050  142.0800 C   0  0  0  0  0  3  0  0  0  0  0  0
  190.5640  174.3030  143.1650 C   0  0  0  0  0  0  0  0  0  0  0  0
  190.7940  173.0170  142.8560 C   0  0  0  0  0  0  0  0  0  0  0  0
  192.8960  173.0120  144.0550 C   0  0  0  0  0  0  0  0  0  0  0  0
  196.8100  173.7900  146.2570 N   0  0  0  0  0  0  0  0  0  0  0  0
  187.3910  176.6370  146.2590 C   0  0  0  0  0  2  0  0  0  0  0  0
  188.6030  175.4530  144.1140 C   0  0  2  0  0  3  0  0  0  0  0  0
  195.8810  174.8360  146.1000 N   0  0  0  0  0  2  0  0  0  0  0  0
  188.9270  176.7120  146.2000 C   0  0  0  0  0  2  0  0  0  0  0  0
  187.4070  177.7150  143.9260 C   0  0  1  0  0  3  0  0  0  0  0  0
  192.1520  171.0020  142.9650 C   0  0  0  0  0  3  0  0  0  0  0  0
  191.9660  172.3580  143.3120 C   0  0  0  0  0  0  0  0  0  0  0  0
  194.0770  172.3340  144.4530 C   0  0  0  0  0  2  0  0  0  0  0  0
  190.6940  175.4640  145.3040 C   0  0  0  0  0  2  0  0  0  0  0  0
  193.5810  176.2630  145.3540 O   0  0  0  0  0  0  0  0  0  0  0  0
  197.0160  171.4090  145.6650 C   0  0  0  0  0  1  0  0  0  0  0  0
  192.7210  174.3480  144.4050 N   0  0  0  0  0  0  0  0  0  0  0  0
  195.0230  173.0490  145.1610 C   0  0  0  0  0  0  0  0  0  0  0  0
  186.5040  178.3420  143.0670 O   0  0  0  0  0  0  0  0  0  0  0  0
  185.4280  178.7040  143.8800 C   0  0  0  0  0  3  0  0  0  0  0  0
  184.1290  178.4920  143.1290 C   0  0  0  0  0  1  0  0  0  0  0  0
  185.5510  180.1660  144.2630 C   0  0  0  0  0  1  0  0  0  0  0  0
  1 16  1  1  0  0  0
  2 27  1  0  0  0  0
  2 24  1  1  0  0  0
  3 11  2  0  0  0  0
  3  4  1  0  0  0  0
  4 21  2  0  0  0  0
  5 25  2  0  0  0  0
  5  6  1  0  0  0  0
  6 18  1  0  0  0  0
  7 24  1  1  0  0  0
  7 19  1  0  0  0  0
  8 12  1  0  0  0  0
  8 17  1  0  0  0  0
  9 15  2  0  0  0  0
 10 20  1  0  0  0  0
 10 17  1  0  0  0  0
 10  1  1  0  0  0  0
 11 13  1  0  0  0  0
 12  2  1  0  0  0  0
 13 12  2  0  0  0  0
 13 22  1  0  0  0  0
 14 27  1  0  0  0  0
 14 23  1  0  0  0  0
 17  7  1  0  0  0  0
 18 15  1  0  0  0  0
 19 16  1  0  0  0  0
 20  1  1  0  0  0  0
 21 22  1  0  0  0  0
 22 14  2  0  0  0  0
 23 28  1  0  0  0  0
 26  9  1  0  0  0  0
 27  5  1  0  0  0  0
 28  6  2  0  0  0  0
 28  9  1  0  0  0  0
 29 30  1  0  0  0  0
 29 20  1  0  0  0  0
 30 32  1  0  0  0  0
 31 30  1  0  0  0  0
M  END
>  <MODEL>
7

>  <REMARK>
 VINA RESULT:      -7.5      2.704      9.052
  Name = 
  2 active torsions:
  status: ('A' for Active; 'I' for Inactive)
    1  A    between atoms: C_20  and  O_29
    2  A    between atoms: O_29  and  C_30
                            x       y       z     vdW  Elec       q    Type
                         _______ _______ _______ _____ _____    ______ ____

>  <TORSDO>
F 2

$$$$
=
 OpenBabel11112416273D

 32 38  0  0  1  0  0  0  0  0999 V2000
  187.0690  176.4150  146.3770 C   0  0  1  0  0  3  0  0  0  0  0  0
  191.5400  176.1040  143.6550 C   0  0  1  0  0  3  0  0  0  0  0  0
  189.7620  173.1570  140.1380 C   0  0  0  0  0  3  0  0  0  0  0  0
  191.0260  172.6080  139.9500 C   0  0  0  0  0  3  0  0  0  0  0  0
  193.9640  176.0560  143.9920 C   0  0  0  0  0  0  0  0  0  0  0  0
  195.2170  175.5130  143.7370 C   0  0  0  0  0  0  0  0  0  0  0  0
  189.8570  176.4240  145.4160 N   0  0  1  0  0  0  0  0  0  0  0  0
  189.0770  176.1380  143.0810 C   0  0  0  0  0  2  0  0  0  0  0  0
  196.7840  174.2290  142.8580 C   0  0  0  0  0  0  0  0  0  0  0  0
  187.3950  176.4470  144.8890 C   0  0  2  0  0  3  0  0  0  0  0  0
  189.5780  174.1690  141.0800 C   0  0  0  0  0  3  0  0  0  0  0  0
  190.4450  175.6170  142.7570 C   0  0  0  0  0  0  0  0  0  0  0  0
  190.6530  174.6490  141.8500 C   0  0  0  0  0  0  0  0  0  0  0  0
  193.0110  174.5360  142.3800 C   0  0  0  0  0  0  0  0  0  0  0  0
  197.3450  175.0370  143.7010 N   0  0  0  0  0  0  0  0  0  0  0  0
  188.1880  175.7890  147.2260 C   0  0  0  0  0  2  0  0  0  0  0  0
  188.7840  175.8690  144.5590 C   0  0  2  0  0  3  0  0  0  0  0  0
  196.3470  175.8560  144.2630 N   0  0  0  0  0  2  0  0  0  0  0  0
  189.6310  176.1690  146.8470 C   0  0  0  0  0  2  0  0  0  0  0  0
  187.4480  177.7310  145.7140 C   0  0  1  0  0  3  0  0  0  0  0  0
  192.1050  173.0710  140.7030 C   0  0  0  0  0  3  0  0  0  0  0  0
  191.9450  174.0930  141.6640 C   0  0  0  0  0  0  0  0  0  0  0  0
  194.2960  173.9890  142.1330 C   0  0  0  0  0  2  0  0  0  0  0  0
  191.1280  175.7710  145.0910 C   0  0  0  0  0  2  0  0  0  0  0  0
  193.8460  177.0030  144.8180 O   0  0  0  0  0  0  0  0  0  0  0  0
  197.5140  173.2110  142.0570 C   0  0  0  0  0  1  0  0  0  0  0  0
  192.8650  175.5420  143.3320 N   0  0  0  0  0  0  0  0  0  0  0  0
  195.3640  174.5040  142.8440 C   0  0  0  0  0  0  0  0  0  0  0  0
  186.2940  178.4780  145.4760 O   0  0  0  0  0  0  0  0  0  0  0  0
  185.5370  178.3490  146.6420 C   0  0  0  0  0  3  0  0  0  0  0  0
  184.0670  178.5160  146.3150 C   0  0  0  0  0  1  0  0  0  0  0  0
  185.9520  179.4150  147.6370 C   0  0  0  0  0  1  0  0  0  0  0  0
  1 16  1  1  0  0  0
  2 24  1  1  0  0  0
  3 11  2  0  0  0  0
  4  3  1  0  0  0  0
  4 21  2  0  0  0  0
  5 25  2  0  0  0  0
  6  5  1  0  0  0  0
  6 18  1  0  0  0  0
  7 24  1  6  0  0  0
  7 19  1  0  0  0  0
  8 17  1  0  0  0  0
  9 15  2  0  0  0  0
 10 20  1  0  0  0  0
 10  1  1  0  0  0  0
 11 13  1  0  0  0  0
 12  8  1  0  0  0  0
 12  2  1  0  0  0  0
 13 12  2  0  0  0  0
 14 27  1  0  0  0  0
 15 18  1  0  0  0  0
 17 10  1  0  0  0  0
 17  7  1  0  0  0  0
 19 16  1  0  0  0  0
 20  1  1  0  0  0  0
 21 22  1  0  0  0  0
 22 13  1  0  0  0  0
 22 14  2  0  0  0  0
 23 14  1  0  0  0  0
 23 28  1  0  0  0  0
 26  9  1  0  0  0  0
 27  2  1  0  0  0  0
 27  5  1  0  0  0  0
 28  9  1  0  0  0  0
 28  6  2  0  0  0  0
 29 20  1  0  0  0  0
 29 30  1  0  0  0  0
 30 32  1  0  0  0  0
 31 30  1  0  0  0  0
M  END
>  <MODEL>
8

>  <REMARK>
 VINA RESULT:      -7.5      3.103      8.625
  Name = 
  2 active torsions:
  status: ('A' for Active; 'I' for Inactive)
    1  A    between atoms: C_20  and  O_29
    2  A    between atoms: O_29  and  C_30
                            x       y       z     vdW  Elec       q    Type
                         _______ _______ _______ _____ _____    ______ ____

>  <TORSDO>
F 2

$$$$
=
 OpenBabel11112416273D

 32 38  0  0  1  0  0  0  0  0999 V2000
  189.4160  177.1590  146.1470 C   0  0  1  0  0  3  0  0  0  0  0  0
  189.3910  173.8130  142.1100 C   0  0  1  0  0  3  0  0  0  0  0  0
  192.6750  170.6990  144.0410 C   0  0  0  0  0  3  0  0  0  0  0  0
  193.0980  170.3420  142.7640 C   0  0  0  0  0  3  0  0  0  0  0  0
  189.1680  173.7860  139.6730 C   0  0  0  0  0  0  0  0  0  0  0  0
  189.5890  173.3660  138.4170 C   0  0  0  0  0  0  0  0  0  0  0  0
  189.1630  175.7940  143.5460 N   0  0  1  0  0  0  0  0  0  0  0  0
  189.6430  173.6110  144.6180 C   0  0  0  0  0  2  0  0  0  0  0  0
  190.7420  172.3050  136.8620 C   0  0  0  0  0  0  0  0  0  0  0  0
  189.4230  175.6390  146.0460 C   0  0  2  0  0  3  0  0  0  0  0  0
  191.6440  171.6240  144.1970 C   0  0  0  0  0  3  0  0  0  0  0  0
  190.0330  173.1040  143.2630 C   0  0  0  0  0  0  0  0  0  0  0  0
  191.0160  172.2090  143.0820 C   0  0  0  0  0  0  0  0  0  0  0  0
  190.8560  172.3850  140.6740 C   0  0  0  0  0  0  0  0  0  0  0  0
  189.8400  173.0280  136.2770 N   0  0  0  0  0  0  0  0  0  0  0  0
  189.8800  177.8510  144.8540 C   0  0  0  0  0  2  0  0  0  0  0  0
  189.8680  175.1250  144.6630 C   0  0  2  0  0  3  0  0  0  0  0  0
  189.1030  173.7060  137.2680 N   0  0  0  0  0  0  0  0  0  0  0  0
  189.3700  177.2500  143.5330 C   0  0  0  0  0  2  0  0  0  0  0  0
  188.1020  176.4030  146.0160 C   0  0  1  0  0  3  0  0  0  0  0  0
  192.4880  170.9110  141.6460 C   0  0  0  0  0  3  0  0  0  0  0  0
  191.4430  171.8510  141.7770 C   0  0  0  0  0  0  0  0  0  0  0  0
  191.2770  171.9670  139.3860 C   0  0  0  0  0  3  0  0  0  0  0  0
  189.6940  175.3040  142.2700 C   0  0  0  0  0  2  0  0  0  0  0  0
  188.1990  174.5890  139.7740 O   0  0  0  0  0  0  0  0  0  0  0  0
  191.7160  171.4380  136.1460 C   0  0  0  0  0  1  0  0  0  0  0  0
  189.8260  173.3140  140.7920 N   0  0  0  0  0  0  0  0  0  0  0  0
  190.6190  172.4940  138.2900 C   0  0  0  0  0  0  0  0  0  0  0  0
  187.4930  176.3160  147.2680 O   0  0  0  0  0  0  0  0  0  0  0  0
  186.2190  176.8590  147.0860 C   0  0  0  0  0  3  0  0  0  0  0  0
  185.8520  176.8100  145.6160 C   0  0  0  0  0  1  0  0  0  0  0  0
  186.2090  178.3000  147.5560 C   0  0  0  0  0  1  0  0  0  0  0  0
  1 16  1  6  0  0  0
  2 24  1  6  0  0  0
  2 12  1  0  0  0  0
  3 11  2  0  0  0  0
  4  3  1  0  0  0  0
  5 25  2  0  0  0  0
  5 27  1  0  0  0  0
  6  5  1  0  0  0  0
  7 24  1  6  0  0  0
  7 17  1  0  0  0  0
  8 17  1  0  0  0  0
  9 28  1  0  0  0  0
 10  1  1  0  0  0  0
 12  8  1  0  0  0  0
 13 12  2  0  0  0  0
 13 11  1  0  0  0  0
 14 27  1  0  0  0  0
 14 22  2  0  0  0  0
 15  9  2  0  0  0  0
 15 18  1  0  0  0  0
 17 10  1  0  0  0  0
 18  6  2  0  0  0  0
 19  7  1  0  0  0  0
 19 16  1  0  0  0  0
 20 10  1  0  0  0  0
 20  1  1  0  0  0  0
 20 29  1  0  0  0  0
 21 22  1  0  0  0  0
 21  4  2  0  0  0  0
 22 13  1  0  0  0  0
 23 14  1  0  0  0  0
 26  9  1  0  0  0  0
 27  2  1  0  0  0  0
 28  6  1  0  0  0  0
 28 23  2  0  0  0  0
 30 29  1  0  0  0  0
 30 32  1  0  0  0  0
 31 30  1  0  0  0  0
M  END
>  <MODEL>
9

>  <REMARK>
 VINA RESULT:      -7.4      4.068      7.440
  Name = 
  2 active torsions:
  status: ('A' for Active; 'I' for Inactive)
    1  A    between atoms: C_20  and  O_29
    2  A    between atoms: O_29  and  C_30
                            x       y       z     vdW  Elec       q    Type
                         _______ _______ _______ _____ _____    ______ ____

>  <TORSDO>
F 2

$$$$
