=
 OpenBabel11112416453D

 32 36  0  0  1  0  0  0  0  0999 V2000
  189.0480  175.8380  143.9860 C   0  0  1  0  0  3  0  0  0  0  0  0
  190.7450  173.1580  140.0490 C   0  0  0  0  0  2  0  0  0  0  0  0
  191.4640  172.2330  141.0140 C   0  0  0  0  0  2  0  0  0  0  0  0
  190.0570  175.4120  146.2820 C   0  0  2  0  0  3  0  0  0  0  0  0
  191.4860  175.4000  146.6460 N   0  0  2  0  0  0  0  0  0  0  0  0
  187.5060  177.4730  143.8030 C   0  0  2  0  0  3  0  0  0  0  0  0
  188.0790  176.1630  141.7380 C   0  0  0  0  0  2  0  0  0  0  0  0
  193.6550  174.8330  145.7510 C   0  0  2  0  0  3  0  0  0  0  0  0
  189.4810  173.6840  140.7170 C   0  0  0  0  0  2  0  0  0  0  0  0
  188.6320  175.1140  142.6990 C   0  0  1  0  0  3  0  0  0  0  0  0
  189.7440  174.2820  142.0820 C   0  0  1  0  0  3  0  0  0  0  0  0
  191.0310  174.4270  144.2150 C   0  0  2  0  0  3  0  0  0  0  0  0
  193.4000  176.2860  145.4470 C   0  0  0  0  0  2  0  0  0  0  0  0
  186.9920  176.9920  142.4310 C   0  0  2  0  0  3  0  0  0  0  0  0
  192.1060  176.6340  146.1640 C   0  0  0  0  0  2  0  0  0  0  0  0
  191.9140  173.0350  142.2290 C   0  0  0  0  0  2  0  0  0  0  0  0
  190.7930  173.8450  142.8400 C   0  0  2  0  0  3  0  0  0  0  0  0
  191.6930  173.5320  145.0650 O   0  0  0  0  0  0  0  0  0  0  0  0
  187.9000  176.3740  144.5940 O   0  0  0  0  0  0  0  0  0  0  0  0
  189.2520  174.6700  147.3320 C   0  0  0  0  0  1  0  0  0  0  0  0
  194.2040  174.1920  144.6370 O   0  0  0  0  0  1  0  0  0  0  0  0
  189.7460  174.8420  144.8940 C   0  0  2  0  0  3  0  0  0  0  0  0
  192.2940  174.2700  146.1240 C   0  0  2  0  0  3  0  0  0  0  0  0
  185.5340  177.3000  145.3120 C   0  0  0  0  0  1  0  0  0  0  0  0
  186.4230  178.2490  144.5330 C   0  0  0  0  0  2  0  0  0  0  0  0
  186.6640  178.0860  141.6200 O   0  0  0  0  0  0  0  0  0  0  0  0
  186.4540  177.4090  139.3420 C   0  0  0  0  0  1  0  0  0  0  0  0
  185.7540  177.5960  140.6750 C   0  0  2  0  0  3  0  0  0  0  0  0
  184.6140  178.5850  140.4870 C   0  0  0  0  0  2  0  0  0  0  0  0
  183.4230  178.1940  141.2930 C   0  0  0  0  0  0  0  0  0  0  0  0
  183.4830  178.1900  142.5500 O   0  0  0  0  0  1  0  0  0  0  0  0
  182.2410  177.8440  140.6540 O   0  0  0  0  0  0  0  0  0  0  0  0
  1 19  1  1  0  0  0
  1 22  1  0  0  0  0
  2  9  1  0  0  0  0
  2  3  1  0  0  0  0
  3 16  1  0  0  0  0
  4  5  1  0  0  0  0
  4 20  1  1  0  0  0
  5 15  1  6  0  0  0
  6 25  1  1  0  0  0
  6 19  1  0  0  0  0
  7 14  1  0  0  0  0
  8 21  1  6  0  0  0
  8 23  1  0  0  0  0
 10  7  1  6  0  0  0
 10  1  1  0  0  0  0
 11  9  1  1  0  0  0
 11 10  1  0  0  0  0
 11 17  1  0  0  0  0
 12 22  1  0  0  0  0
 12 18  1  1  0  0  0
 13  8  1  0  0  0  0
 13 15  1  0  0  0  0
 14 26  1  6  0  0  0
 14  6  1  0  0  0  0
 17 16  1  6  0  0  0
 17 12  1  0  0  0  0
 18 23  1  0  0  0  0
 22  4  1  0  0  0  0
 23  5  1  0  0  0  0
 25 24  1  0  0  0  0
 27 28  1  0  0  0  0
 28 26  1  0  0  0  0
 29 28  1  0  0  0  0
 29 30  1  0  0  0  0
 30 31  1  0  0  0  0
 32 30  2  0  0  0  0
M  END
>  <MODEL>
1

>  <REMARK>
 VINA RESULT:      -7.4      0.000      0.000
  Name = 
  5 active torsions:
  status: ('A' for Active; 'I' for Inactive)
    1  A    between atoms: C_7  and  C_19
    2  A    between atoms: O_10  and  C_17
    3  A    between atoms: O_10  and  C_20
    4  A    between atoms: C_20  and  C_29
    5  A    between atoms: C_29  and  C_30
                            x       y       z     vdW  Elec       q    Type
                         _______ _______ _______ _____ _____    ______ ____

>  <TORSDO>
F 5

$$$$
=
 OpenBabel11112416453D

 32 36  0  0  1  0  0  0  0  0999 V2000
  190.9720  175.3920  144.1550 C   0  0  1  0  0  3  0  0  0  0  0  0
  188.6170  174.1130  139.8680 C   0  0  0  0  0  2  0  0  0  0  0  0
  189.6970  173.0800  139.6060 C   0  0  0  0  0  2  0  0  0  0  0  0
  193.3300  174.5250  144.5610 C   0  0  2  0  0  3  0  0  0  0  0  0
  194.4900  174.6230  143.6550 N   0  0  2  0  0  0  0  0  0  0  0  0
  190.0840  176.7790  145.6940 C   0  0  2  0  0  3  0  0  0  0  0  0
  188.6650  176.1550  143.7170 C   0  0  0  0  0  2  0  0  0  0  0  0
  195.0550  174.6270  141.3090 C   0  0  2  0  0  3  0  0  0  0  0  0
  188.4250  174.2590  141.3720 C   0  0  0  0  0  2  0  0  0  0  0  0
  189.6250  174.9800  143.5480 C   0  0  1  0  0  3  0  0  0  0  0  0
  189.7250  174.5070  142.1070 C   0  0  1  0  0  3  0  0  0  0  0  0
  192.1960  174.2680  142.3600 C   0  0  2  0  0  3  0  0  0  0  0  0
  194.8400  176.0570  141.7300 C   0  0  0  0  0  2  0  0  0  0  0  0
  188.6400  176.6080  145.1810 C   0  0  2  0  0  3  0  0  0  0  0  0
  194.6470  176.0160  143.2370 C   0  0  0  0  0  2  0  0  0  0  0  0
  191.0190  173.5890  140.1670 C   0  0  0  0  0  2  0  0  0  0  0  0
  190.9060  174.0410  141.6050 C   0  0  2  0  0  3  0  0  0  0  0  0
  193.1550  173.2860  142.0860 O   0  0  0  0  0  0  0  0  0  0  0  0
  190.8080  175.5790  145.5380 O   0  0  0  0  0  0  0  0  0  0  0  0
  193.5620  173.4260  145.5790 C   0  0  0  0  0  1  0  0  0  0  0  0
  194.4450  174.3860  140.0750 O   0  0  0  0  0  1  0  0  0  0  0  0
  191.9870  174.3020  143.8570 C   0  0  2  0  0  3  0  0  0  0  0  0
  194.4400  173.7970  142.4240 C   0  0  2  0  0  3  0  0  0  0  0  0
  191.2430  176.5160  147.8810 C   0  0  0  0  0  1  0  0  0  0  0  0
  190.0820  177.1730  147.1610 C   0  0  0  0  0  2  0  0  0  0  0  0
  187.9410  177.8190  145.2740 O   0  0  0  0  0  0  0  0  0  0  0  0
  185.8970  178.7800  144.5030 C   0  0  0  0  0  1  0  0  0  0  0  0
  186.6160  177.5160  144.9350 C   0  0  2  0  0  3  0  0  0  0  0  0
  185.8900  176.9370  146.1400 C   0  0  0  0  0  2  0  0  0  0  0  0
  185.6230  177.9870  147.1630 C   0  0  0  0  0  0  0  0  0  0  0  0
  184.4520  178.4110  147.3440 O   0  0  0  0  0  0  0  0  0  0  0  0
  186.6670  178.4900  147.9270 O   0  0  0  0  0  1  0  0  0  0  0  0
  1 19  1  1  0  0  0
  2  9  1  0  0  0  0
  3  2  1  0  0  0  0
  3 16  1  0  0  0  0
  4 20  1  1  0  0  0
  5 15  1  6  0  0  0
  5  4  1  0  0  0  0
  6 25  1  1  0  0  0
  7 14  1  0  0  0  0
  8 21  1  6  0  0  0
  8 13  1  0  0  0  0
  8 23  1  0  0  0  0
 10  7  1  6  0  0  0
 10  1  1  0  0  0  0
 11  9  1  1  0  0  0
 11 10  1  0  0  0  0
 12 18  1  1  0  0  0
 12 22  1  0  0  0  0
 13 15  1  0  0  0  0
 14 26  1  6  0  0  0
 14  6  1  0  0  0  0
 17 16  1  6  0  0  0
 17 11  1  0  0  0  0
 17 12  1  0  0  0  0
 18 23  1  0  0  0  0
 19  6  1  0  0  0  0
 22  1  1  0  0  0  0
 22  4  1  0  0  0  0
 23  5  1  0  0  0  0
 25 24  1  0  0  0  0
 27 28  1  0  0  0  0
 28 26  1  0  0  0  0
 28 29  1  0  0  0  0
 29 30  1  0  0  0  0
 30 31  2  0  0  0  0
 30 32  1  0  0  0  0
M  END
>  <MODEL>
2

>  <REMARK>
 VINA RESULT:      -7.2      2.719      4.065
  Name = 
  5 active torsions:
  status: ('A' for Active; 'I' for Inactive)
    1  A    between atoms: C_7  and  C_19
    2  A    between atoms: O_10  and  C_17
    3  A    between atoms: O_10  and  C_20
    4  A    between atoms: C_20  and  C_29
    5  A    between atoms: C_29  and  C_30
                            x       y       z     vdW  Elec       q    Type
                         _______ _______ _______ _____ _____    ______ ____

>  <TORSDO>
F 5

$$$$
=
 OpenBabel11112416453D

 32 36  0  0  1  0  0  0  0  0999 V2000
  191.5320  175.2680  144.1980 C   0  0  1  0  0  3  0  0  0  0  0  0
  189.7280  171.8160  140.9750 C   0  0  0  0  0  2  0  0  0  0  0  0
  188.9410  172.9090  140.2760 C   0  0  0  0  0  2  0  0  0  0  0  0
  190.4690  177.5790  144.2380 C   0  0  2  0  0  3  0  0  0  0  0  0
  189.0360  177.9050  144.3730 N   0  0  2  0  0  0  0  0  0  0  0  0
  193.1730  174.8420  145.6850 C   0  0  2  0  0  3  0  0  0  0  0  0
  192.5490  173.0210  144.0690 C   0  0  0  0  0  2  0  0  0  0  0  0
  186.8490  177.0700  143.7840 C   0  0  2  0  0  3  0  0  0  0  0  0
  191.0130  172.4130  141.5350 C   0  0  0  0  0  2  0  0  0  0  0  0
  191.9200  174.1360  143.2380 C   0  0  1  0  0  3  0  0  0  0  0  0
  190.7680  173.6460  142.3760 C   0  0  1  0  0  3  0  0  0  0  0  0
  189.4640  175.6910  142.9650 C   0  0  2  0  0  3  0  0  0  0  0  0
  187.1960  176.5250  145.1450 C   0  0  0  0  0  2  0  0  0  0  0  0
  193.6750  173.5870  144.9420 C   0  0  2  0  0  3  0  0  0  0  0  0
  188.4990  177.2010  145.5380 C   0  0  0  0  0  2  0  0  0  0  0  0
  188.5250  173.9560  141.3020 C   0  0  0  0  0  2  0  0  0  0  0  0
  189.6850  174.4440  142.1400 C   0  0  2  0  0  3  0  0  0  0  0  0
  188.7370  176.6670  142.2730 O   0  0  0  0  0  0  0  0  0  0  0  0
  192.7020  175.8020  144.7650 O   0  0  0  0  0  0  0  0  0  0  0  0
  191.2120  178.7600  143.6460 C   0  0  0  0  0  1  0  0  0  0  0  0
  186.2780  176.0720  142.9910 O   0  0  0  0  0  1  0  0  0  0  0  0
  190.7620  176.3180  143.4180 C   0  0  2  0  0  3  0  0  0  0  0  0
  188.1690  177.5680  143.2170 C   0  0  2  0  0  3  0  0  0  0  0  0
  194.1830  176.9630  146.5080 C   0  0  0  0  0  1  0  0  0  0  0  0
  194.2920  175.4510  146.5120 C   0  0  0  0  0  2  0  0  0  0  0  0
  194.0810  172.6060  145.8580 O   0  0  0  0  0  0  0  0  0  0  0  0
  195.1550  170.4950  145.5740 C   0  0  0  0  0  1  0  0  0  0  0  0
  195.1900  171.9820  145.2750 C   0  0  2  0  0  3  0  0  0  0  0  0
  196.4750  172.5590  145.8510 C   0  0  0  0  0  2  0  0  0  0  0  0
  197.2790  173.2380  144.7970 C   0  0  0  0  0  0  0  0  0  0  0  0
  197.9410  172.5590  143.9700 O   0  0  0  0  0  0  0  0  0  0  0  0
  197.2880  174.6240  144.7190 O   0  0  0  0  0  1  0  0  0  0  0  0
  1 19  1  6  0  0  0
  2  9  1  0  0  0  0
  3  2  1  0  0  0  0
  3 16  1  0  0  0  0
  4 20  1  6  0  0  0
  4  5  1  0  0  0  0
  5 15  1  1  0  0  0
  6 25  1  6  0  0  0
  7 14  1  0  0  0  0
  8 21  1  6  0  0  0
  8 13  1  0  0  0  0
 10  7  1  1  0  0  0
 10  1  1  0  0  0  0
 11  9  1  6  0  0  0
 11 10  1  0  0  0  0
 12 18  1  6  0  0  0
 12 22  1  0  0  0  0
 13 15  1  0  0  0  0
 14  6  1  0  0  0  0
 14 26  1  1  0  0  0
 17 16  1  1  0  0  0
 17 11  1  0  0  0  0
 17 12  1  0  0  0  0
 18 23  1  0  0  0  0
 19  6  1  0  0  0  0
 22  1  1  0  0  0  0
 22  4  1  0  0  0  0
 23  8  1  0  0  0  0
 23  5  1  0  0  0  0
 24 25  1  0  0  0  0
 28 27  1  0  0  0  0
 28 29  1  0  0  0  0
 28 26  1  0  0  0  0
 30 29  1  0  0  0  0
 31 30  2  0  0  0  0
 32 30  1  0  0  0  0
M  END
>  <MODEL>
3

>  <REMARK>
 VINA RESULT:      -7.0      2.455      7.933
  Name = 
  5 active torsions:
  status: ('A' for Active; 'I' for Inactive)
    1  A    between atoms: C_7  and  C_19
    2  A    between atoms: O_10  and  C_17
    3  A    between atoms: O_10  and  C_20
    4  A    between atoms: C_20  and  C_29
    5  A    between atoms: C_29  and  C_30
                            x       y       z     vdW  Elec       q    Type
                         _______ _______ _______ _____ _____    ______ ____

>  <TORSDO>
F 5

$$$$
=
 OpenBabel11112416453D

 32 36  0  0  1  0  0  0  0  0999 V2000
  190.3340  175.4310  143.2320 C   0  0  1  0  0  3  0  0  0  0  0  0
  188.9550  173.7800  138.6570 C   0  0  0  0  0  2  0  0  0  0  0  0
  190.0810  172.7630  138.7060 C   0  0  0  0  0  2  0  0  0  0  0  0
  192.5640  174.6660  144.1880 C   0  0  2  0  0  3  0  0  0  0  0  0
  193.8880  174.7330  143.5410 N   0  0  2  0  0  0  0  0  0  0  0  0
  189.1210  176.8970  144.4410 C   0  0  2  0  0  3  0  0  0  0  0  0
  188.1600  176.0920  142.2640 C   0  0  0  0  0  2  0  0  0  0  0  0
  194.9360  174.5870  141.3710 C   0  0  2  0  0  3  0  0  0  0  0  0
  188.4480  174.0260  140.0720 C   0  0  0  0  0  2  0  0  0  0  0  0
  189.1510  174.9370  142.3900 C   0  0  1  0  0  3  0  0  0  0  0  0
  189.5590  174.3660  141.0420 C   0  0  1  0  0  3  0  0  0  0  0  0
  191.9250  174.2190  141.8250 C   0  0  2  0  0  3  0  0  0  0  0  0
  194.6160  176.0360  141.6280 C   0  0  0  0  0  2  0  0  0  0  0  0
  187.8200  176.6470  143.6520 C   0  0  2  0  0  3  0  0  0  0  0  0
  194.1100  176.0970  143.0600 C   0  0  0  0  0  2  0  0  0  0  0  0
  191.2470  173.3500  139.4910 C   0  0  0  0  0  2  0  0  0  0  0  0
  190.8270  173.9000  140.8360 C   0  0  2  0  0  3  0  0  0  0  0  0
  192.9340  173.2490  141.8330 O   0  0  0  0  0  0  0  0  0  0  0  0
  189.8780  175.7110  144.5320 O   0  0  0  0  0  0  0  0  0  0  0  0
  192.5920  173.6500  145.3130 C   0  0  0  0  0  1  0  0  0  0  0  0
  194.6040  174.2410  140.0590 O   0  0  0  0  0  1  0  0  0  0  0  0
  191.4040  174.3530  143.2380 C   0  0  2  0  0  3  0  0  0  0  0  0
  194.1110  173.8200  142.3930 C   0  0  2  0  0  3  0  0  0  0  0  0
  188.5870  176.2220  146.7770 C   0  0  0  0  0  1  0  0  0  0  0  0
  188.8040  177.3940  145.8410 C   0  0  0  0  0  2  0  0  0  0  0  0
  187.1000  177.8400  143.5040 O   0  0  0  0  0  0  0  0  0  0  0  0
  184.8790  177.6710  142.6490 C   0  0  0  0  0  1  0  0  0  0  0  0
  185.7810  177.5310  143.8600 C   0  0  2  0  0  3  0  0  0  0  0  0
  185.2950  178.4890  144.9370 C   0  0  0  0  0  2  0  0  0  0  0  0
  184.9290  177.7580  146.1830 C   0  0  0  0  0  0  0  0  0  0  0  0
  185.1150  176.5170  146.2650 O   0  0  0  0  0  0  0  0  0  0  0  0
  184.3940  178.4520  147.2590 O   0  0  0  0  0  1  0  0  0  0  0  0
  1 22  1  0  0  0  0
  1 19  1  1  0  0  0
  2  3  1  0  0  0  0
  2  9  1  0  0  0  0
  3 16  1  0  0  0  0
  4 20  1  1  0  0  0
  5 15  1  6  0  0  0
  5  4  1  0  0  0  0
  6 19  1  0  0  0  0
  6 25  1  1  0  0  0
  7 14  1  0  0  0  0
  8 21  1  6  0  0  0
  8 13  1  0  0  0  0
  8 23  1  0  0  0  0
 10  7  1  6  0  0  0
 10  1  1  0  0  0  0
 11  9  1  1  0  0  0
 11 10  1  0  0  0  0
 12 18  1  1  0  0  0
 12 22  1  0  0  0  0
 13 15  1  0  0  0  0
 14 26  1  6  0  0  0
 14  6  1  0  0  0  0
 17 16  1  6  0  0  0
 17 11  1  0  0  0  0
 17 12  1  0  0  0  0
 18 23  1  0  0  0  0
 22  4  1  0  0  0  0
 23  5  1  0  0  0  0
 25 24  1  0  0  0  0
 26 28  1  0  0  0  0
 27 28  1  0  0  0  0
 28 29  1  0  0  0  0
 29 30  1  0  0  0  0
 30 31  2  0  0  0  0
 30 32  1  0  0  0  0
M  END
>  <MODEL>
4

>  <REMARK>
 VINA RESULT:      -7.0      2.294      3.358
  Name = 
  5 active torsions:
  status: ('A' for Active; 'I' for Inactive)
    1  A    between atoms: C_7  and  C_19
    2  A    between atoms: O_10  and  C_17
    3  A    between atoms: O_10  and  C_20
    4  A    between atoms: C_20  and  C_29
    5  A    between atoms: C_29  and  C_30
                            x       y       z     vdW  Elec       q    Type
                         _______ _______ _______ _____ _____    ______ ____

>  <TORSDO>
F 5

$$$$
=
 OpenBabel11112416453D

 32 36  0  0  1  0  0  0  0  0999 V2000
  188.3470  175.7660  144.0190 C   0  0  1  0  0  3  0  0  0  0  0  0
  185.7220  177.3980  140.0180 C   0  0  0  0  0  2  0  0  0  0  0  0
  185.4970  178.7190  140.7300 C   0  0  0  0  0  2  0  0  0  0  0  0
  188.2550  177.1130  146.1750 C   0  0  2  0  0  3  0  0  0  0  0  0
  187.0520  177.5720  146.8950 N   0  0  2  0  0  0  0  0  0  0  0  0
  189.5240  173.8430  144.0320 C   0  0  2  0  0  3  0  0  0  0  0  0
  188.4310  174.5370  141.8790 C   0  0  0  0  0  2  0  0  0  0  0  0
  184.7910  178.3220  146.5040 C   0  0  2  0  0  3  0  0  0  0  0  0
  187.0670  176.8270  140.4480 C   0  0  0  0  0  2  0  0  0  0  0  0
  188.3740  175.9320  142.4940 C   0  0  1  0  0  3  0  0  0  0  0  0
  187.2240  176.7660  141.9520 C   0  0  1  0  0  3  0  0  0  0  0  0
  186.7490  177.6010  144.2550 C   0  0  2  0  0  3  0  0  0  0  0  0
  184.7510  176.8290  146.7040 C   0  0  0  0  0  2  0  0  0  0  0  0
  189.5840  173.7360  142.4950 C   0  0  2  0  0  3  0  0  0  0  0  0
  186.1620  176.4300  147.1030 C   0  0  0  0  0  2  0  0  0  0  0  0
  185.4050  178.4670  142.2290 C   0  0  0  0  0  2  0  0  0  0  0  0
  186.5630  177.6500  142.7560 C   0  0  2  0  0  3  0  0  0  0  0  0
  186.5330  178.8450  144.8600 O   0  0  0  0  0  0  0  0  0  0  0  0
  189.5620  175.1940  144.4330 O   0  0  0  0  0  0  0  0  0  0  0  0
  189.4550  177.9360  146.6000 C   0  0  0  0  0  1  0  0  0  0  0  0
  183.9710  178.6920  145.4350 O   0  0  0  0  0  1  0  0  0  0  0  0
  188.1310  177.1310  144.6480 C   0  0  2  0  0  3  0  0  0  0  0  0
  186.2550  178.6390  146.2410 C   0  0  2  0  0  3  0  0  0  0  0  0
  191.8130  174.0730  144.9850 C   0  0  0  0  0  1  0  0  0  0  0  0
  190.6930  173.1040  144.6600 C   0  0  0  0  0  2  0  0  0  0  0  0
  189.4790  172.3980  142.0930 O   0  0  0  0  0  0  0  0  0  0  0  0
  189.8790  171.8050  139.8160 C   0  0  0  0  0  1  0  0  0  0  0  0
  190.4920  172.2080  141.1450 C   0  0  2  0  0  3  0  0  0  0  0  0
  191.4300  171.1000  141.5990 C   0  0  0  0  0  2  0  0  0  0  0  0
  192.8020  171.6240  141.8470 C   0  0  0  0  0  0  0  0  0  0  0  0
  193.7540  170.8290  142.0600 O   0  0  0  0  0  1  0  0  0  0  0  0
  193.0330  172.9930  141.8310 O   0  0  0  0  0  0  0  0  0  0  0  0
  1 19  1  1  0  0  0
  1 22  1  0  0  0  0
  2  9  1  0  0  0  0
  2  3  1  0  0  0  0
  3 16  1  0  0  0  0
  4 20  1  6  0  0  0
  4  5  1  0  0  0  0
  5 15  1  6  0  0  0
  6 19  1  0  0  0  0
  6 25  1  1  0  0  0
  7 14  1  0  0  0  0
  8 21  1  6  0  0  0
  8 13  1  0  0  0  0
 10  7  1  6  0  0  0
 10  1  1  0  0  0  0
 11  9  1  6  0  0  0
 11 10  1  0  0  0  0
 11 17  1  0  0  0  0
 12 22  1  0  0  0  0
 12 18  1  6  0  0  0
 13 15  1  0  0  0  0
 14 26  1  1  0  0  0
 14  6  1  0  0  0  0
 17 16  1  1  0  0  0
 17 12  1  0  0  0  0
 18 23  1  0  0  0  0
 22  4  1  0  0  0  0
 23  8  1  0  0  0  0
 23  5  1  0  0  0  0
 25 24  1  0  0  0  0
 27 28  1  0  0  0  0
 28 29  1  0  0  0  0
 28 26  1  0  0  0  0
 29 30  1  0  0  0  0
 30 31  1  0  0  0  0
 32 30  2  0  0  0  0
M  END
>  <MODEL>
5

>  <REMARK>
 VINA RESULT:      -6.9      2.220      7.030
  Name = 
  5 active torsions:
  status: ('A' for Active; 'I' for Inactive)
    1  A    between atoms: C_7  and  C_19
    2  A    between atoms: O_10  and  C_17
    3  A    between atoms: O_10  and  C_20
    4  A    between atoms: C_20  and  C_29
    5  A    between atoms: C_29  and  C_30
                            x       y       z     vdW  Elec       q    Type
                         _______ _______ _______ _____ _____    ______ ____

>  <TORSDO>
F 5

$$$$
=
 OpenBabel11112416453D

 32 36  0  0  1  0  0  0  0  0999 V2000
  188.1960  176.2100  142.1650 C   0  0  1  0  0  3  0  0  0  0  0  0
  192.4510  177.3380  144.6510 C   0  0  0  0  0  2  0  0  0  0  0  0
  193.2040  176.3640  143.7640 C   0  0  0  0  0  2  0  0  0  0  0  0
  188.1870  174.2020  140.6030 C   0  0  2  0  0  3  0  0  0  0  0  0
  188.6130  172.8240  140.9110 N   0  0  2  0  0  0  0  0  0  0  0  0
  186.2610  177.3330  142.4420 C   0  0  2  0  0  3  0  0  0  0  0  0
  188.2910  178.1730  143.6600 C   0  0  0  0  0  2  0  0  0  0  0  0
  190.2130  171.5970  142.2380 C   0  0  2  0  0  3  0  0  0  0  0  0
  191.3010  177.9440  143.8570 C   0  0  0  0  0  2  0  0  0  0  0  0
  189.0910  177.3590  142.6460 C   0  0  1  0  0  3  0  0  0  0  0  0
  190.4320  176.8980  143.1920 C   0  0  1  0  0  3  0  0  0  0  0  0
  190.0870  174.6600  142.1430 C   0  0  2  0  0  3  0  0  0  0  0  0
  188.9590  171.7490  143.0580 C   0  0  0  0  0  2  0  0  0  0  0  0
  186.9370  178.5730  143.0630 C   0  0  2  0  0  3  0  0  0  0  0  0
  187.9350  172.3810  142.1280 C   0  0  0  0  0  2  0  0  0  0  0  0
  192.2780  175.2140  143.3890 C   0  0  0  0  0  2  0  0  0  0  0  0
  190.9540  175.6880  142.8340 C   0  0  2  0  0  3  0  0  0  0  0  0
  190.8300  173.7910  141.3350 O   0  0  0  0  0  0  0  0  0  0  0  0
  187.1000  176.7500  141.4700 O   0  0  0  0  0  0  0  0  0  0  0  0
  188.1820  174.4170  139.1020 C   0  0  0  0  0  1  0  0  0  0  0  0
  191.3410  171.8420  143.0250 O   0  0  0  0  0  1  0  0  0  0  0  0
  189.0210  175.2950  141.2790 C   0  0  2  0  0  3  0  0  0  0  0  0
  190.0670  172.6100  141.1140 C   0  0  2  0  0  3  0  0  0  0  0  0
  185.1710  178.1630  140.3630 C   0  0  0  0  0  1  0  0  0  0  0  0
  184.9420  177.7190  141.7940 C   0  0  0  0  0  2  0  0  0  0  0  0
  186.1320  179.1130  144.0750 O   0  0  0  0  0  0  0  0  0  0  0  0
  184.4360  178.0790  145.3970 C   0  0  0  0  0  1  0  0  0  0  0  0
  185.8910  178.0610  144.9670 C   0  0  2  0  0  3  0  0  0  0  0  0
  186.7610  178.2170  146.2040 C   0  0  0  0  0  2  0  0  0  0  0  0
  186.9250  176.9170  146.9150 C   0  0  0  0  0  0  0  0  0  0  0  0
  186.2340  176.6630  147.9350 O   0  0  0  0  0  1  0  0  0  0  0  0
  187.8320  175.9790  146.4410 O   0  0  0  0  0  0  0  0  0  0  0  0
  1 19  1  6  0  0  0
  1 10  1  0  0  0  0
  3  2  1  0  0  0  0
  4 20  1  6  0  0  0
  4  5  1  0  0  0  0
  4 22  1  0  0  0  0
  5 23  1  0  0  0  0
  5 15  1  1  0  0  0
  6 25  1  6  0  0  0
  6 14  1  0  0  0  0
  8 21  1  1  0  0  0
  8 13  1  0  0  0  0
  9  2  1  0  0  0  0
 10 11  1  0  0  0  0
 10  7  1  1  0  0  0
 11  9  1  6  0  0  0
 12 18  1  6  0  0  0
 12 17  1  0  0  0  0
 14  7  1  0  0  0  0
 14 26  1  1  0  0  0
 15 13  1  0  0  0  0
 16  3  1  0  0  0  0
 17 11  1  0  0  0  0
 17 16  1  1  0  0  0
 19  6  1  0  0  0  0
 22 12  1  0  0  0  0
 22  1  1  0  0  0  0
 23 18  1  0  0  0  0
 23  8  1  0  0  0  0
 24 25  1  0  0  0  0
 26 28  1  0  0  0  0
 28 27  1  0  0  0  0
 28 29  1  0  0  0  0
 29 30  1  0  0  0  0
 30 31  1  0  0  0  0
 32 30  2  0  0  0  0
M  END
>  <MODEL>
6

>  <REMARK>
 VINA RESULT:      -6.8      2.456      5.046
  Name = 
  5 active torsions:
  status: ('A' for Active; 'I' for Inactive)
    1  A    between atoms: C_7  and  C_19
    2  A    between atoms: O_10  and  C_17
    3  A    between atoms: O_10  and  C_20
    4  A    between atoms: C_20  and  C_29
    5  A    between atoms: C_29  and  C_30
                            x       y       z     vdW  Elec       q    Type
                         _______ _______ _______ _____ _____    ______ ____

>  <TORSDO>
F 5

$$$$
=
 OpenBabel11112416453D

 32 36  0  0  1  0  0  0  0  0999 V2000
  189.7600  175.1090  142.5070 C   0  0  1  0  0  3  0  0  0  0  0  0
  185.4930  177.7260  141.7980 C   0  0  0  0  0  2  0  0  0  0  0  0
  186.0180  178.7990  142.7350 C   0  0  0  0  0  2  0  0  0  0  0  0
  191.3300  175.8130  144.3810 C   0  0  2  0  0  3  0  0  0  0  0  0
  190.9900  176.0360  145.8000 N   0  0  2  0  0  0  0  0  0  0  0  0
  190.3070  173.2780  141.3120 C   0  0  2  0  0  3  0  0  0  0  0  0
  188.2140  174.5140  140.6760 C   0  0  0  0  0  2  0  0  0  0  0  0
  189.1940  176.8240  147.2070 C   0  0  2  0  0  3  0  0  0  0  0  0
  186.6680  177.0840  141.0720 C   0  0  0  0  0  2  0  0  0  0  0  0
  188.8130  175.6870  141.4470 C   0  0  1  0  0  3  0  0  0  0  0  0
  187.7540  176.6160  142.0160 C   0  0  1  0  0  3  0  0  0  0  0  0
  189.0490  176.7810  144.1440 C   0  0  2  0  0  3  0  0  0  0  0  0
  189.0380  175.3330  147.0580 C   0  0  0  0  0  2  0  0  0  0  0  0
  189.3300  173.5960  140.1620 C   0  0  2  0  0  3  0  0  0  0  0  0
  190.2720  174.8660  146.3030 C   0  0  0  0  0  2  0  0  0  0  0  0
  186.8840  178.1440  143.8030 C   0  0  0  0  0  2  0  0  0  0  0  0
  187.9420  177.2350  143.2190 C   0  0  2  0  0  3  0  0  0  0  0  0
  189.4990  177.8080  144.9830 O   0  0  0  0  0  0  0  0  0  0  0  0
  190.8290  174.4680  141.8590 O   0  0  0  0  0  0  0  0  0  0  0  0
  192.6340  176.5100  144.0480 C   0  0  0  0  0  1  0  0  0  0  0  0
  187.9560  177.4580  147.0840 O   0  0  0  0  0  1  0  0  0  0  0  0
  190.2450  176.2460  143.3900 C   0  0  2  0  0  3  0  0  0  0  0  0
  190.1580  177.2270  146.1020 C   0  0  2  0  0  3  0  0  0  0  0  0
  192.7110  173.2470  140.6690 C   0  0  0  0  0  1  0  0  0  0  0  0
  191.4520  172.4150  140.8100 C   0  0  0  0  0  2  0  0  0  0  0  0
  188.7600  172.4170  139.6630 O   0  0  0  0  0  0  0  0  0  0  0  0
  189.6200  171.3230  137.7250 C   0  0  0  0  0  1  0  0  0  0  0  0
  188.8540  172.5140  138.2690 C   0  0  2  0  0  3  0  0  0  0  0  0
  189.5980  173.7830  137.8840 C   0  0  0  0  0  2  0  0  0  0  0  0
  188.8500  174.5540  136.8520 C   0  0  0  0  0  0  0  0  0  0  0  0
  189.3320  174.7010  135.6990 O   0  0  0  0  0  0  0  0  0  0  0  0
  187.6120  175.1010  137.1600 O   0  0  0  0  0  1  0  0  0  0  0  0
  1 19  1  6  0  0  0
  1 22  1  0  0  0  0
  2  3  1  0  0  0  0
  3 16  1  0  0  0  0
  4 20  1  6  0  0  0
  4  5  1  0  0  0  0
  5 23  1  0  0  0  0
  5 15  1  6  0  0  0
  6 25  1  6  0  0  0
  6 19  1  0  0  0  0
  8 21  1  6  0  0  0
  9  2  1  0  0  0  0
 10  7  1  1  0  0  0
 10 11  1  0  0  0  0
 10  1  1  0  0  0  0
 11  9  1  6  0  0  0
 11 17  1  0  0  0  0
 12 18  1  6  0  0  0
 13  8  1  0  0  0  0
 14 26  1  1  0  0  0
 14  7  1  0  0  0  0
 14  6  1  0  0  0  0
 15 13  1  0  0  0  0
 17 16  1  1  0  0  0
 17 12  1  0  0  0  0
 18 23  1  0  0  0  0
 22 12  1  0  0  0  0
 22  4  1  0  0  0  0
 23  8  1  0  0  0  0
 24 25  1  0  0  0  0
 27 28  1  0  0  0  0
 28 26  1  0  0  0  0
 29 28  1  0  0  0  0
 30 32  1  0  0  0  0
 30 29  1  0  0  0  0
 31 30  2  0  0  0  0
M  END
>  <MODEL>
7

>  <REMARK>
 VINA RESULT:      -6.8      2.615      5.752
  Name = 
  5 active torsions:
  status: ('A' for Active; 'I' for Inactive)
    1  A    between atoms: C_7  and  C_19
    2  A    between atoms: O_10  and  C_17
    3  A    between atoms: O_10  and  C_20
    4  A    between atoms: C_20  and  C_29
    5  A    between atoms: C_29  and  C_30
                            x       y       z     vdW  Elec       q    Type
                         _______ _______ _______ _____ _____    ______ ____

>  <TORSDO>
F 5

$$$$
=
 OpenBabel11112416453D

 32 36  0  0  1  0  0  0  0  0999 V2000
  190.6410  174.6120  143.1900 C   0  0  1  0  0  3  0  0  0  0  0  0
  193.7160  176.2250  146.8650 C   0  0  0  0  0  2  0  0  0  0  0  0
  194.8980  175.6730  146.0910 C   0  0  0  0  0  2  0  0  0  0  0  0
  191.5680  173.0310  141.4250 C   0  0  2  0  0  3  0  0  0  0  0  0
  192.2990  171.7690  141.6470 N   0  0  2  0  0  0  0  0  0  0  0  0
  188.4520  175.1390  143.0810 C   0  0  2  0  0  3  0  0  0  0  0  0
  189.8230  176.1880  144.9070 C   0  0  0  0  0  2  0  0  0  0  0  0
  193.8500  170.7320  143.1790 C   0  0  2  0  0  3  0  0  0  0  0  0
  192.6460  176.6770  145.8790 C   0  0  0  0  0  2  0  0  0  0  0  0
  191.0310  175.8230  144.0470 C   0  0  1  0  0  3  0  0  0  0  0  0
  192.2920  175.6080  144.8680 C   0  0  1  0  0  3  0  0  0  0  0  0
  192.8580  173.6200  143.4710 C   0  0  2  0  0  3  0  0  0  0  0  0
  192.4560  170.3950  143.6410 C   0  0  0  0  0  2  0  0  0  0  0  0
  188.5800  176.3520  144.0250 C   0  0  2  0  0  3  0  0  0  0  0  0
  191.5270  170.9310  142.5640 C   0  0  0  0  0  2  0  0  0  0  0  0
  194.4570  174.4310  145.3270 C   0  0  0  0  0  2  0  0  0  0  0  0
  193.2110  174.6660  144.5030 C   0  0  2  0  0  3  0  0  0  0  0  0
  193.9840  173.1480  142.7840 O   0  0  0  0  0  0  0  0  0  0  0  0
  189.6190  174.9950  142.3040 O   0  0  0  0  0  0  0  0  0  0  0  0
  191.8360  173.5420  140.0230 C   0  0  0  0  0  1  0  0  0  0  0  0
  194.6520  171.0810  144.2670 O   0  0  0  0  0  1  0  0  0  0  0  0
  191.8740  174.1340  142.4440 C   0  0  2  0  0  3  0  0  0  0  0  0
  193.6690  171.8860  142.2060 C   0  0  2  0  0  3  0  0  0  0  0  0
  187.4480  176.5250  141.2740 C   0  0  0  0  0  1  0  0  0  0  0  0
  187.2570  175.3090  142.1590 C   0  0  0  0  0  2  0  0  0  0  0  0
  187.4480  176.4560  144.8450 O   0  0  0  0  0  0  0  0  0  0  0  0
  187.1360  177.6670  146.8770 C   0  0  0  0  0  1  0  0  0  0  0  0
  187.5070  177.7370  145.4070 C   0  0  2  0  0  3  0  0  0  0  0  0
  186.5220  178.6600  144.7050 C   0  0  0  0  0  2  0  0  0  0  0  0
  185.1830  178.0190  144.5750 C   0  0  0  0  0  0  0  0  0  0  0  0
  184.8120  177.5500  143.4680 O   0  0  0  0  0  0  0  0  0  0  0  0
  184.3500  177.9280  145.6810 O   0  0  0  0  0  1  0  0  0  0  0  0
  1 19  1  6  0  0  0
  1 10  1  0  0  0  0
  3  2  1  0  0  0  0
  4 20  1  6  0  0  0
  4  5  1  0  0  0  0
  4 22  1  0  0  0  0
  5 23  1  0  0  0  0
  5 15  1  1  0  0  0
  6 25  1  6  0  0  0
  6 14  1  0  0  0  0
  8 13  1  0  0  0  0
  8 21  1  1  0  0  0
  9  2  1  0  0  0  0
 10 11  1  0  0  0  0
 10  7  1  1  0  0  0
 11  9  1  6  0  0  0
 12 18  1  6  0  0  0
 12 17  1  0  0  0  0
 14 26  1  1  0  0  0
 14  7  1  0  0  0  0
 15 13  1  0  0  0  0
 16  3  1  0  0  0  0
 17 11  1  0  0  0  0
 17 16  1  1  0  0  0
 19  6  1  0  0  0  0
 22  1  1  0  0  0  0
 22 12  1  0  0  0  0
 23 18  1  0  0  0  0
 23  8  1  0  0  0  0
 24 25  1  0  0  0  0
 26 28  1  0  0  0  0
 28 27  1  0  0  0  0
 29 28  1  0  0  0  0
 30 29  1  0  0  0  0
 30 32  1  0  0  0  0
 31 30  2  0  0  0  0
M  END
>  <MODEL>
8

>  <REMARK>
 VINA RESULT:      -6.6      2.191      4.843
  Name = 
  5 active torsions:
  status: ('A' for Active; 'I' for Inactive)
    1  A    between atoms: C_7  and  C_19
    2  A    between atoms: O_10  and  C_17
    3  A    between atoms: O_10  and  C_20
    4  A    between atoms: C_20  and  C_29
    5  A    between atoms: C_29  and  C_30
                            x       y       z     vdW  Elec       q    Type
                         _______ _______ _______ _____ _____    ______ ____

>  <TORSDO>
F 5

$$$$
=
 OpenBabel11112416453D

 32 36  0  0  1  0  0  0  0  0999 V2000
  189.8240  175.1200  142.7480 C   0  0  1  0  0  3  0  0  0  0  0  0
  185.6310  177.6220  141.4360 C   0  0  0  0  0  2  0  0  0  0  0  0
  186.0260  178.7400  142.3820 C   0  0  0  0  0  2  0  0  0  0  0  0
  191.1510  175.9290  144.7630 C   0  0  2  0  0  3  0  0  0  0  0  0
  190.6440  176.2020  146.1210 N   0  0  2  0  0  0  0  0  0  0  0  0
  190.5350  173.2530  141.7040 C   0  0  2  0  0  3  0  0  0  0  0  0
  188.5140  174.4220  140.7750 C   0  0  0  0  0  2  0  0  0  0  0  0
  188.6830  177.0090  147.2750 C   0  0  2  0  0  3  0  0  0  0  0  0
  186.8930  176.9740  140.8810 C   0  0  0  0  0  2  0  0  0  0  0  0
  189.0000  175.6360  141.5620 C   0  0  1  0  0  3  0  0  0  0  0  0
  187.8670  176.5660  141.9640 C   0  0  1  0  0  3  0  0  0  0  0  0
  188.9000  176.8410  144.2200 C   0  0  2  0  0  3  0  0  0  0  0  0
  188.5680  175.5110  147.1700 C   0  0  0  0  0  2  0  0  0  0  0  0
  189.6960  173.5070  140.4350 C   0  0  2  0  0  3  0  0  0  0  0  0
  189.8890  175.0380  146.5850 C   0  0  0  0  0  2  0  0  0  0  0  0
  186.7700  178.1460  143.5710 C   0  0  0  0  0  2  0  0  0  0  0  0
  187.9030  177.2360  143.1540 C   0  0  2  0  0  3  0  0  0  0  0  0
  189.2320  177.9100  145.0620 O   0  0  0  0  0  0  0  0  0  0  0  0
  190.9710  174.4750  142.2570 O   0  0  0  0  0  0  0  0  0  0  0  0
  192.4750  176.6380  144.5560 C   0  0  0  0  0  1  0  0  0  0  0  0
  187.4580  177.6130  146.9810 O   0  0  0  0  0  1  0  0  0  0  0  0
  190.1840  176.3000  143.6340 C   0  0  2  0  0  3  0  0  0  0  0  0
  189.7640  177.3860  146.2740 C   0  0  2  0  0  3  0  0  0  0  0  0
  192.8120  173.2310  140.6980 C   0  0  0  0  0  1  0  0  0  0  0  0
  191.7450  172.3950  141.3760 C   0  0  0  0  0  2  0  0  0  0  0  0
  189.2060  172.2980  139.9220 O   0  0  0  0  0  0  0  0  0  0  0  0
  188.7720  173.0170  137.6890 C   0  0  0  0  0  1  0  0  0  0  0  0
  189.6840  172.2250  138.6080 C   0  0  2  0  0  3  0  0  0  0  0  0
  189.7000  170.7780  138.1390 C   0  0  0  0  0  2  0  0  0  0  0  0
  190.7540  169.9960  138.8450 C   0  0  0  0  0  0  0  0  0  0  0  0
  190.4390  169.1880  139.7570 O   0  0  0  0  0  1  0  0  0  0  0  0
  192.0860  170.1500  138.4860 O   0  0  0  0  0  0  0  0  0  0  0  0
  1 19  1  6  0  0  0
  1 22  1  0  0  0  0
  2  3  1  0  0  0  0
  3 16  1  0  0  0  0
  4 20  1  6  0  0  0
  4  5  1  0  0  0  0
  5 23  1  0  0  0  0
  5 15  1  6  0  0  0
  6 25  1  6  0  0  0
  6 19  1  0  0  0  0
  8 21  1  6  0  0  0
  9  2  1  0  0  0  0
 10  7  1  1  0  0  0
 10 11  1  0  0  0  0
 10  1  1  0  0  0  0
 11  9  1  6  0  0  0
 11 17  1  0  0  0  0
 12 18  1  6  0  0  0
 13  8  1  0  0  0  0
 14 26  1  1  0  0  0
 14  7  1  0  0  0  0
 14  6  1  0  0  0  0
 15 13  1  0  0  0  0
 17 16  1  1  0  0  0
 17 12  1  0  0  0  0
 18 23  1  0  0  0  0
 22 12  1  0  0  0  0
 22  4  1  0  0  0  0
 23  8  1  0  0  0  0
 24 25  1  0  0  0  0
 27 28  1  0  0  0  0
 28 26  1  0  0  0  0
 29 28  1  0  0  0  0
 29 30  1  0  0  0  0
 30 31  1  0  0  0  0
 32 30  2  0  0  0  0
M  END
>  <MODEL>
9

>  <REMARK>
 VINA RESULT:      -6.5      2.678      6.412
  Name = 
  5 active torsions:
  status: ('A' for Active; 'I' for Inactive)
    1  A    between atoms: C_7  and  C_19
    2  A    between atoms: O_10  and  C_17
    3  A    between atoms: O_10  and  C_20
    4  A    between atoms: C_20  and  C_29
    5  A    between atoms: C_29  and  C_30
                            x       y       z     vdW  Elec       q    Type
                         _______ _______ _______ _____ _____    ______ ____

>  <TORSDO>
F 5

$$$$
