=
 OpenBabel11112418033D

 34 40  0  0  1  0  0  0  0  0999 V2000
  186.2520  178.2060  145.7130 C   0  0  0  0  0  0  0  0  0  0  0  0
  183.9150  178.8890  144.8600 C   0  0  0  0  0  2  0  0  0  0  0  0
  191.5170  174.4460  145.0830 C   0  0  0  0  0  0  0  0  0  0  0  0
  188.4960  177.4460  146.3200 C   0  0  0  0  0  0  0  0  0  0  0  0
  189.8070  176.2270  144.6630 C   0  0  0  0  0  0  0  0  0  0  0  0
  191.0100  175.1320  142.7010 C   0  0  0  0  0  1  0  0  0  0  0  0
  191.3640  173.0080  144.7040 C   0  0  0  0  0  1  0  0  0  0  0  0
  192.1240  176.1010  146.6800 C   0  0  0  0  0  2  0  0  0  0  0  0
  185.3790  177.7140  143.4370 C   0  0  0  0  0  0  0  0  0  0  0  0
  185.3760  178.2640  140.4280 C   0  0  0  0  0  3  0  0  0  0  0  0
  188.7650  176.3500  143.7930 N   0  0  0  0  0  0  0  0  0  0  0  0
  190.7520  176.6430  147.0680 C   0  0  0  0  0  2  0  0  0  0  0  0
  186.5040  177.0630  143.1080 C   0  0  0  0  0  0  0  0  0  0  0  0
  183.2730  178.7840  143.4720 C   0  0  0  0  0  2  0  0  0  0  0  0
  189.6980  176.7830  145.9750 C   0  0  0  0  0  0  0  0  0  0  0  0
  192.0090  174.7330  146.2360 N   0  0  0  0  0  0  0  0  0  0  0  0
  184.2610  178.3280  141.1740 C   0  0  0  0  0  0  0  0  0  0  0  0
  187.4500  177.5440  145.3810 C   0  0  0  0  0  0  0  0  0  0  0  0
  191.0700  175.5580  144.1670 C   0  0  2  0  0  3  0  0  0  0  0  0
  187.6040  176.9760  144.1060 C   0  0  0  0  0  0  0  0  0  0  0  0
  187.1210  178.6700  147.9210 C   0  0  0  0  0  3  0  0  0  0  0  0
  186.7460  177.7950  140.8180 C   0  0  0  0  0  2  0  0  0  0  0  0
  188.3130  178.0160  147.5930 C   0  0  0  0  0  3  0  0  0  0  0  0
  186.7010  176.5760  141.7160 C   0  0  0  0  0  2  0  0  0  0  0  0
  184.1380  177.8380  142.6170 C   0  0  1  0  0  3  0  0  0  0  0  0
  186.0910  178.7660  146.9830 C   0  0  0  0  0  3  0  0  0  0  0  0
  185.2220  178.2860  144.7200 N   0  0  0  0  0  0  0  0  0  0  0  0
  183.1240  178.7830  140.4980 O   0  0  0  0  0  0  0  0  0  0  0  0
  181.9830  178.0170  140.3770 N   0  0  0  0  0  0  0  0  0  0  0  0
  178.4780  178.6880  140.6770 N   0  0  0  0  0  2  0  0  0  0  0  0
  180.5540  179.9610  140.7670 C   0  0  0  0  0  2  0  0  0  0  0  0
  180.8070  178.5410  140.4960 C   0  0  0  0  0  0  0  0  0  0  0  0
  179.0400  180.0440  140.6930 C   0  0  0  0  0  2  0  0  0  0  0  0
  179.5670  177.7630  140.3770 C   0  0  0  0  0  2  0  0  0  0  0  0
  1 26  1  0  0  0  0
  3 16  2  0  0  0  0
  4 23  2  0  0  0  0
  5 15  2  0  0  0  0
  7  3  1  0  0  0  0
  8 12  1  0  0  0  0
  9 27  1  0  0  0  0
 10 22  1  0  0  0  0
 10 17  2  0  0  0  0
 11 20  2  0  0  0  0
 11  5  1  0  0  0  0
 13  9  2  0  0  0  0
 13 20  1  0  0  0  0
 14  2  1  0  0  0  0
 15  4  1  0  0  0  0
 15 12  1  0  0  0  0
 16  8  1  0  0  0  0
 17 25  1  0  0  0  0
 18  1  2  0  0  0  0
 18  4  1  0  0  0  0
 19  6  1  6  0  0  0
 19  5  1  0  0  0  0
 19  3  1  0  0  0  0
 20 18  1  0  0  0  0
 22 24  1  0  0  0  0
 23 21  1  0  0  0  0
 24 13  1  0  0  0  0
 25  9  1  0  0  0  0
 25 14  1  1  0  0  0
 26 21  2  0  0  0  0
 27  2  1  0  0  0  0
 27  1  1  0  0  0  0
 28 17  1  0  0  0  0
 29 32  2  0  0  0  0
 29 28  1  0  0  0  0
 30 33  1  0  0  0  0
 32 31  1  0  0  0  0
 33 31  1  0  0  0  0
 34 32  1  0  0  0  0
 34 30  1  0  0  0  0
M  END
>  <MODEL>
1

>  <REMARK>
 VINA RESULT:      -9.5      0.000      0.000
  Name = 
  2 active torsions:
  status: ('A' for Active; 'I' for Inactive)
    1  A    between atoms: C_17  and  O_28
    2  A    between atoms: O_28  and  N_29
                            x       y       z     vdW  Elec       q    Type
                         _______ _______ _______ _____ _____    ______ ____

>  <TORSDO>
F 2

$$$$
=
 OpenBabel11112418033D

 34 40  0  0  1  0  0  0  0  0999 V2000
  192.7240  175.7820  145.2790 C   0  0  0  0  0  0  0  0  0  0  0  0
  190.7230  177.3890  145.0180 C   0  0  0  0  0  2  0  0  0  0  0  0
  194.9110  169.7100  146.0500 C   0  0  0  0  0  0  0  0  0  0  0  0
  194.4730  174.0850  145.4850 C   0  0  0  0  0  0  0  0  0  0  0  0
  193.9070  171.7590  145.0170 C   0  0  0  0  0  0  0  0  0  0  0  0
  193.0870  169.4500  144.3160 C   0  0  0  0  0  1  0  0  0  0  0  0
  194.1860  168.7670  146.9570 C   0  0  0  0  0  1  0  0  0  0  0  0
  196.8410  171.0040  145.5430 C   0  0  0  0  0  2  0  0  0  0  0  0
  190.4330  175.0880  144.6050 C   0  0  0  0  0  0  0  0  0  0  0  0
  188.4810  174.1430  142.4480 C   0  0  0  0  0  3  0  0  0  0  0  0
  192.6290  172.1540  144.7530 N   0  0  0  0  0  0  0  0  0  0  0  0
  196.3170  172.4130  145.8000 C   0  0  0  0  0  2  0  0  0  0  0  0
  190.8030  173.8010  144.5440 C   0  0  0  0  0  0  0  0  0  0  0  0
  189.2990  177.1590  144.4960 C   0  0  0  0  0  2  0  0  0  0  0  0
  194.8810  172.7330  145.3970 C   0  0  0  0  0  0  0  0  0  0  0  0
  196.1140  170.0520  146.3470 N   0  0  0  0  0  0  0  0  0  0  0  0
  188.2600  175.2410  143.1900 C   0  0  0  0  0  0  0  0  0  0  0  0
  193.1390  174.4390  145.2000 C   0  0  0  0  0  0  0  0  0  0  0  0
  194.2500  170.2980  144.8290 C   0  0  2  0  0  3  0  0  0  0  0  0
  192.2170  173.4440  144.8370 C   0  0  0  0  0  0  0  0  0  0  0  0
  194.9590  176.4330  145.9360 C   0  0  0  0  0  3  0  0  0  0  0  0
  189.5610  173.1120  142.5890 C   0  0  0  0  0  2  0  0  0  0  0  0
  195.3740  175.1000  145.8550 C   0  0  0  0  0  3  0  0  0  0  0  0
  189.8500  172.7770  144.0380 C   0  0  0  0  0  2  0  0  0  0  0  0
  189.0570  175.6380  144.4340 C   0  0  1  0  0  3  0  0  0  0  0  0
  193.6350  176.7750  145.6480 C   0  0  0  0  0  3  0  0  0  0  0  0
  191.3590  176.0910  144.9720 N   0  0  0  0  0  0  0  0  0  0  0  0
  187.1360  175.9870  142.8190 O   0  0  0  0  0  0  0  0  0  0  0  0
  186.1170  176.2710  143.7040 N   0  0  0  0  0  0  0  0  0  0  0  0
  184.6750  179.2960  144.9660 N   0  0  0  0  0  2  0  0  0  0  0  0
  186.3860  178.6740  143.3460 C   0  0  0  0  0  2  0  0  0  0  0  0
  185.7650  177.4910  143.9520 C   0  0  0  0  0  0  0  0  0  0  0  0
  185.5310  179.8060  143.8890 C   0  0  0  0  0  2  0  0  0  0  0  0
  184.6870  177.8390  144.8880 C   0  0  0  0  0  2  0  0  0  0  0  0
  1 26  1  0  0  0  0
  3 16  2  0  0  0  0
  3  7  1  0  0  0  0
  4 23  2  0  0  0  0
  5 15  2  0  0  0  0
  8 12  1  0  0  0  0
  8 16  1  0  0  0  0
  9 27  1  0  0  0  0
 10 22  1  0  0  0  0
 10 17  2  0  0  0  0
 11 20  2  0  0  0  0
 11  5  1  0  0  0  0
 13  9  2  0  0  0  0
 13 20  1  0  0  0  0
 14  2  1  0  0  0  0
 15  4  1  0  0  0  0
 15 12  1  0  0  0  0
 17 25  1  0  0  0  0
 18  1  2  0  0  0  0
 18  4  1  0  0  0  0
 19  6  1  1  0  0  0
 19  5  1  0  0  0  0
 19  3  1  0  0  0  0
 20 18  1  0  0  0  0
 22 24  1  0  0  0  0
 23 21  1  0  0  0  0
 24 13  1  0  0  0  0
 25 14  1  6  0  0  0
 25  9  1  0  0  0  0
 26 21  2  0  0  0  0
 27  2  1  0  0  0  0
 27  1  1  0  0  0  0
 28 17  1  0  0  0  0
 28 29  1  0  0  0  0
 29 32  2  0  0  0  0
 31 33  1  0  0  0  0
 31 32  1  0  0  0  0
 32 34  1  0  0  0  0
 33 30  1  0  0  0  0
 34 30  1  0  0  0  0
M  END
>  <MODEL>
2

>  <REMARK>
 VINA RESULT:      -8.9      3.470      6.441
  Name = 
  2 active torsions:
  status: ('A' for Active; 'I' for Inactive)
    1  A    between atoms: C_17  and  O_28
    2  A    between atoms: O_28  and  N_29
                            x       y       z     vdW  Elec       q    Type
                         _______ _______ _______ _____ _____    ______ ____

>  <TORSDO>
F 2

$$$$
=
 OpenBabel11112418033D

 34 40  0  0  1  0  0  0  0  0999 V2000
  188.9480  175.3580  142.6320 C   0  0  0  0  0  0  0  0  0  0  0  0
  190.8570  173.6340  142.4470 C   0  0  0  0  0  2  0  0  0  0  0  0
  184.7410  178.6090  146.3710 C   0  0  0  0  0  0  0  0  0  0  0  0
  187.1750  176.9940  143.0370 C   0  0  0  0  0  0  0  0  0  0  0  0
  186.8760  177.8590  145.2980 C   0  0  0  0  0  0  0  0  0  0  0  0
  186.8910  178.7130  147.6990 C   0  0  0  0  0  1  0  0  0  0  0  0
  184.0670  177.9150  147.5110 C   0  0  0  0  0  1  0  0  0  0  0  0
  184.6210  179.6630  144.2420 C   0  0  0  0  0  2  0  0  0  0  0  0
  190.3810  174.6280  144.5290 C   0  0  0  0  0  0  0  0  0  0  0  0
  192.6350  175.2000  146.5160 C   0  0  0  0  0  3  0  0  0  0  0  0
  187.9110  177.0710  145.7040 N   0  0  0  0  0  0  0  0  0  0  0  0
  185.2820  178.6070  143.3620 C   0  0  0  0  0  2  0  0  0  0  0  0
  189.7060  175.4080  145.3850 C   0  0  0  0  0  0  0  0  0  0  0  0
  191.9070  173.1700  143.4650 C   0  0  0  0  0  2  0  0  0  0  0  0
  186.4730  177.8410  143.9260 C   0  0  0  0  0  0  0  0  0  0  0  0
  184.0210  179.0400  145.3960 N   0  0  0  0  0  0  0  0  0  0  0  0
  192.6490  174.1360  145.6970 C   0  0  0  0  0  0  0  0  0  0  0  0
  188.2390  176.2000  143.5100 C   0  0  0  0  0  0  0  0  0  0  0  0
  186.2390  178.7750  146.3190 C   0  0  2  0  0  3  0  0  0  0  0  0
  188.5930  176.2480  144.8680 C   0  0  0  0  0  0  0  0  0  0  0  0
  187.5390  176.0800  140.8040 C   0  0  0  0  0  3  0  0  0  0  0  0
  191.5380  176.1950  146.7500 C   0  0  0  0  0  2  0  0  0  0  0  0
  186.8360  176.9200  141.6740 C   0  0  0  0  0  3  0  0  0  0  0  0
  190.1710  175.5430  146.7910 C   0  0  0  0  0  2  0  0  0  0  0  0
  191.4630  173.6550  144.8590 C   0  0  1  0  0  3  0  0  0  0  0  0
  188.5940  175.3000  141.2820 C   0  0  0  0  0  3  0  0  0  0  0  0
  190.0260  174.5770  143.1620 N   0  0  0  0  0  0  0  0  0  0  0  0
  193.8240  173.3780  145.7330 O   0  0  0  0  0  0  0  0  0  0  0  0
  195.0740  173.9610  145.7630 N   0  0  0  0  0  0  0  0  0  0  0  0
  197.7730  174.2060  143.4210 N   0  0  0  0  0  2  0  0  0  0  0  0
  195.5090  173.3040  143.4490 C   0  0  0  0  0  2  0  0  0  0  0  0
  195.8510  173.9350  144.7290 C   0  0  0  0  0  0  0  0  0  0  0  0
  196.7010  173.6620  142.5790 C   0  0  0  0  0  2  0  0  0  0  0  0
  197.1900  174.5410  144.7170 C   0  0  0  0  0  2  0  0  0  0  0  0
  1 27  1  0  0  0  0
  1 18  1  0  0  0  0
  2 27  1  0  0  0  0
  2 14  1  0  0  0  0
  3  7  1  0  0  0  0
  4 18  2  0  0  0  0
  4 15  1  0  0  0  0
  5 11  1  0  0  0  0
  5 19  1  0  0  0  0
  8 16  1  0  0  0  0
  9 25  1  0  0  0  0
  9 13  2  0  0  0  0
 10 22  1  0  0  0  0
 12 15  1  0  0  0  0
 12  8  1  0  0  0  0
 13 24  1  0  0  0  0
 15  5  2  0  0  0  0
 16  3  2  0  0  0  0
 17 28  1  0  0  0  0
 17 10  2  0  0  0  0
 18 20  1  0  0  0  0
 19  3  1  0  0  0  0
 19  6  1  1  0  0  0
 20 13  1  0  0  0  0
 20 11  2  0  0  0  0
 21 26  1  0  0  0  0
 21 23  2  0  0  0  0
 22 24  1  0  0  0  0
 23  4  1  0  0  0  0
 25 14  1  6  0  0  0
 25 17  1  0  0  0  0
 26  1  2  0  0  0  0
 27  9  1  0  0  0  0
 28 29  1  0  0  0  0
 30 34  1  0  0  0  0
 31 32  1  0  0  0  0
 32 29  2  0  0  0  0
 33 30  1  0  0  0  0
 33 31  1  0  0  0  0
 34 32  1  0  0  0  0
M  END
>  <MODEL>
3

>  <REMARK>
 VINA RESULT:      -8.7      3.660      9.944
  Name = 
  2 active torsions:
  status: ('A' for Active; 'I' for Inactive)
    1  A    between atoms: C_17  and  O_28
    2  A    between atoms: O_28  and  N_29
                            x       y       z     vdW  Elec       q    Type
                         _______ _______ _______ _____ _____    ______ ____

>  <TORSDO>
F 2

$$$$
=
 OpenBabel11112418033D

 34 40  0  0  1  0  0  0  0  0999 V2000
  188.9460  175.2510  142.6190 C   0  0  0  0  0  0  0  0  0  0  0  0
  190.8060  173.4710  142.4620 C   0  0  0  0  0  2  0  0  0  0  0  0
  184.7570  178.6030  146.2880 C   0  0  0  0  0  0  0  0  0  0  0  0
  187.2160  176.9390  142.9970 C   0  0  0  0  0  0  0  0  0  0  0  0
  186.8920  177.7950  145.2580 C   0  0  0  0  0  0  0  0  0  0  0  0
  186.8780  178.6290  147.6660 C   0  0  0  0  0  1  0  0  0  0  0  0
  184.0360  177.9210  147.4060 C   0  0  0  0  0  1  0  0  0  0  0  0
  184.7190  179.6760  144.1650 C   0  0  0  0  0  2  0  0  0  0  0  0
  190.3130  174.4630  144.5410 C   0  0  0  0  0  0  0  0  0  0  0  0
  192.5370  174.9500  146.5840 C   0  0  0  0  0  3  0  0  0  0  0  0
  187.8920  176.9720  145.6810 N   0  0  0  0  0  0  0  0  0  0  0  0
  185.3660  178.6070  143.2920 C   0  0  0  0  0  2  0  0  0  0  0  0
  189.6420  175.2570  145.3880 C   0  0  0  0  0  0  0  0  0  0  0  0
  191.8170  172.9670  143.5000 C   0  0  0  0  0  2  0  0  0  0  0  0
  186.5200  177.8000  143.8770 C   0  0  0  0  0  0  0  0  0  0  0  0
  184.0730  179.0630  145.3000 N   0  0  0  0  0  0  0  0  0  0  0  0
  192.5360  173.8910  145.7570 C   0  0  0  0  0  0  0  0  0  0  0  0
  188.2440  176.1080  143.4870 C   0  0  0  0  0  0  0  0  0  0  0  0
  186.2600  178.7230  146.2710 C   0  0  2  0  0  3  0  0  0  0  0  0
  188.5680  176.1350  144.8540 C   0  0  0  0  0  0  0  0  0  0  0  0
  187.6030  176.0310  140.7650 C   0  0  0  0  0  3  0  0  0  0  0  0
  191.4650  175.9760  146.8020 C   0  0  0  0  0  2  0  0  0  0  0  0
  186.9060  176.8860  141.6250 C   0  0  0  0  0  3  0  0  0  0  0  0
  190.0790  175.3660  146.8060 C   0  0  0  0  0  2  0  0  0  0  0  0
  191.3560  173.4540  144.8870 C   0  0  1  0  0  3  0  0  0  0  0  0
  188.6230  175.2150  141.2600 C   0  0  0  0  0  3  0  0  0  0  0  0
  189.9880  174.4330  143.1660 N   0  0  0  0  0  0  0  0  0  0  0  0
  193.6870  173.0980  145.8130 O   0  0  0  0  0  0  0  0  0  0  0  0
  194.7970  173.3540  145.0350 N   0  0  0  0  0  0  0  0  0  0  0  0
  197.9410  171.7110  144.5490 N   0  0  0  0  0  2  0  0  0  0  0  0
  195.8900  171.3070  145.8010 C   0  0  0  0  0  2  0  0  0  0  0  0
  195.8060  172.5460  145.0190 C   0  0  0  0  0  0  0  0  0  0  0  0
  197.2030  170.7090  145.3270 C   0  0  0  0  0  2  0  0  0  0  0  0
  197.0080  172.7800  144.2080 C   0  0  0  0  0  2  0  0  0  0  0  0
  1 27  1  0  0  0  0
  1 18  1  0  0  0  0
  2 27  1  0  0  0  0
  2 14  1  0  0  0  0
  3  7  1  0  0  0  0
  4 18  2  0  0  0  0
  4 15  1  0  0  0  0
  5 11  1  0  0  0  0
  5 19  1  0  0  0  0
  8 16  1  0  0  0  0
  9 25  1  0  0  0  0
  9 13  2  0  0  0  0
 10 22  1  0  0  0  0
 12 15  1  0  0  0  0
 12  8  1  0  0  0  0
 13 24  1  0  0  0  0
 15  5  2  0  0  0  0
 16  3  2  0  0  0  0
 17 28  1  0  0  0  0
 17 10  2  0  0  0  0
 18 20  1  0  0  0  0
 19  3  1  0  0  0  0
 19  6  1  1  0  0  0
 20 13  1  0  0  0  0
 20 11  2  0  0  0  0
 21 26  1  0  0  0  0
 21 23  2  0  0  0  0
 22 24  1  0  0  0  0
 23  4  1  0  0  0  0
 25 14  1  6  0  0  0
 25 17  1  0  0  0  0
 26  1  2  0  0  0  0
 27  9  1  0  0  0  0
 29 28  1  0  0  0  0
 30 33  1  0  0  0  0
 32 29  2  0  0  0  0
 32 31  1  0  0  0  0
 33 31  1  0  0  0  0
 34 30  1  0  0  0  0
 34 32  1  0  0  0  0
M  END
>  <MODEL>
4

>  <REMARK>
 VINA RESULT:      -8.7      3.681     10.238
  Name = 
  2 active torsions:
  status: ('A' for Active; 'I' for Inactive)
    1  A    between atoms: C_17  and  O_28
    2  A    between atoms: O_28  and  N_29
                            x       y       z     vdW  Elec       q    Type
                         _______ _______ _______ _____ _____    ______ ____

>  <TORSDO>
F 2

$$$$
=
 OpenBabel11112418033D

 34 40  0  0  1  0  0  0  0  0999 V2000
  190.5310  174.9520  144.9080 C   0  0  0  0  0  0  0  0  0  0  0  0
  192.3560  173.7760  143.5150 C   0  0  0  0  0  2  0  0  0  0  0  0
  185.4050  178.9440  145.1130 C   0  0  0  0  0  0  0  0  0  0  0  0
  188.6950  176.1170  146.0290 C   0  0  0  0  0  0  0  0  0  0  0  0
  186.8300  176.9300  144.6820 C   0  0  0  0  0  0  0  0  0  0  0  0
  184.9480  177.5240  143.0700 C   0  0  0  0  0  1  0  0  0  0  0  0
  185.3850  180.1750  144.2650 C   0  0  0  0  0  1  0  0  0  0  0  0
  185.4830  177.9240  147.2610 C   0  0  0  0  0  2  0  0  0  0  0  0
  190.4420  174.6360  142.4430 C   0  0  0  0  0  0  0  0  0  0  0  0
  189.2760  173.2160  139.9970 C   0  0  0  0  0  3  0  0  0  0  0  0
  187.4510  176.4320  143.5760 N   0  0  0  0  0  0  0  0  0  0  0  0
  186.9020  177.3660  147.2620 C   0  0  0  0  0  2  0  0  0  0  0  0
  189.2730  175.2870  142.3670 C   0  0  0  0  0  0  0  0  0  0  0  0
  192.4050  173.3860  142.0330 C   0  0  0  0  0  2  0  0  0  0  0  0
  187.4480  176.7830  145.9630 C   0  0  0  0  0  0  0  0  0  0  0  0
  185.4040  179.0740  146.3930 N   0  0  0  0  0  0  0  0  0  0  0  0
  190.5940  173.2480  140.2530 C   0  0  0  0  0  0  0  0  0  0  0  0
  189.2930  175.6210  144.8530 C   0  0  0  0  0  0  0  0  0  0  0  0
  185.4690  177.5650  144.5060 C   0  0  2  0  0  3  0  0  0  0  0  0
  188.6490  175.7960  143.6170 C   0  0  0  0  0  0  0  0  0  0  0  0
  190.5960  175.2750  147.3040 C   0  0  0  0  0  3  0  0  0  0  0  0
  188.1630  173.9380  140.6970 C   0  0  0  0  0  2  0  0  0  0  0  0
  189.3650  175.9360  147.2520 C   0  0  0  0  0  3  0  0  0  0  0  0
  188.5440  175.3550  141.0710 C   0  0  0  0  0  2  0  0  0  0  0  0
  191.2660  174.1290  141.3070 C   0  0  1  0  0  3  0  0  0  0  0  0
  191.1790  174.7830  146.1340 C   0  0  0  0  0  3  0  0  0  0  0  0
  191.0920  174.4590  143.6850 N   0  0  0  0  0  0  0  0  0  0  0  0
  191.3820  172.4810  139.3870 O   0  0  0  0  0  0  0  0  0  0  0  0
  190.8320  171.6900  138.3990 N   0  0  0  0  0  0  0  0  0  0  0  0
  190.3230  168.1660  138.0140 N   0  0  0  0  0  2  0  0  0  0  0  0
  191.1770  169.6700  139.7310 C   0  0  0  0  0  2  0  0  0  0  0  0
  190.7320  170.4090  138.5440 C   0  0  0  0  0  0  0  0  0  0  0  0
  190.7270  168.2530  139.4220 C   0  0  0  0  0  2  0  0  0  0  0  0
  190.1570  169.5290  137.5170 C   0  0  0  0  0  2  0  0  0  0  0  0
  1 26  1  0  0  0  0
  2 27  1  0  0  0  0
  3 16  2  0  0  0  0
  4 23  2  0  0  0  0
  5 15  2  0  0  0  0
  7  3  1  0  0  0  0
  8 12  1  0  0  0  0
  9 27  1  0  0  0  0
 10 17  2  0  0  0  0
 10 22  1  0  0  0  0
 11 20  2  0  0  0  0
 11  5  1  0  0  0  0
 13  9  2  0  0  0  0
 13 20  1  0  0  0  0
 14  2  1  0  0  0  0
 15  4  1  0  0  0  0
 15 12  1  0  0  0  0
 16  8  1  0  0  0  0
 17 25  1  0  0  0  0
 18  1  2  0  0  0  0
 18  4  1  0  0  0  0
 19  6  1  6  0  0  0
 19  5  1  0  0  0  0
 19  3  1  0  0  0  0
 20 18  1  0  0  0  0
 22 24  1  0  0  0  0
 23 21  1  0  0  0  0
 24 13  1  0  0  0  0
 25 14  1  1  0  0  0
 25  9  1  0  0  0  0
 26 21  2  0  0  0  0
 27  1  1  0  0  0  0
 28 17  1  0  0  0  0
 29 32  2  0  0  0  0
 29 28  1  0  0  0  0
 30 33  1  0  0  0  0
 32 31  1  0  0  0  0
 33 31  1  0  0  0  0
 34 30  1  0  0  0  0
 34 32  1  0  0  0  0
M  END
>  <MODEL>
5

>  <REMARK>
 VINA RESULT:      -8.6      3.999      8.277
  Name = 
  2 active torsions:
  status: ('A' for Active; 'I' for Inactive)
    1  A    between atoms: C_17  and  O_28
    2  A    between atoms: O_28  and  N_29
                            x       y       z     vdW  Elec       q    Type
                         _______ _______ _______ _____ _____    ______ ____

>  <TORSDO>
F 2

$$$$
=
 OpenBabel11112418033D

 34 40  0  0  1  0  0  0  0  0999 V2000
  190.5890  174.8430  144.9390 C   0  0  0  0  0  0  0  0  0  0  0  0
  192.3730  173.5650  143.5830 C   0  0  0  0  0  2  0  0  0  0  0  0
  185.5090  178.8970  145.0060 C   0  0  0  0  0  0  0  0  0  0  0  0
  188.7890  176.0940  146.0240 C   0  0  0  0  0  0  0  0  0  0  0  0
  186.9050  176.8450  144.6690 C   0  0  0  0  0  0  0  0  0  0  0  0
  184.9950  177.3610  143.0630 C   0  0  0  0  0  1  0  0  0  0  0  0
  185.4830  180.0740  144.0850 C   0  0  0  0  0  1  0  0  0  0  0  0
  185.6220  178.0080  147.2100 C   0  0  0  0  0  2  0  0  0  0  0  0
  190.4460  174.3790  142.5000 C   0  0  0  0  0  0  0  0  0  0  0  0
  189.2140  172.8270  140.1700 C   0  0  0  0  0  3  0  0  0  0  0  0
  187.4970  176.2740  143.5820 N   0  0  0  0  0  0  0  0  0  0  0  0
  187.0360  177.4360  147.2150 C   0  0  0  0  0  2  0  0  0  0  0  0
  189.2810  175.0370  142.4080 C   0  0  0  0  0  0  0  0  0  0  0  0
  192.3870  173.0840  142.1270 C   0  0  0  0  0  2  0  0  0  0  0  0
  187.5480  176.7680  145.9440 C   0  0  0  0  0  0  0  0  0  0  0  0
  185.5360  179.1040  146.2750 N   0  0  0  0  0  0  0  0  0  0  0  0
  190.5380  172.8590  140.3960 C   0  0  0  0  0  0  0  0  0  0  0  0
  189.3570  175.5210  144.8690 C   0  0  0  0  0  0  0  0  0  0  0  0
  185.5460  177.4830  144.4820 C   0  0  2  0  0  3  0  0  0  0  0  0
  188.6890  175.6280  143.6380 C   0  0  0  0  0  0  0  0  0  0  0  0
  190.7090  175.3100  147.3090 C   0  0  0  0  0  3  0  0  0  0  0  0
  188.1230  173.6020  140.8470 C   0  0  0  0  0  2  0  0  0  0  0  0
  189.4830  175.9800  147.2420 C   0  0  0  0  0  3  0  0  0  0  0  0
  188.5260  175.0350  141.1260 C   0  0  0  0  0  2  0  0  0  0  0  0
  191.2400  173.7950  141.3810 C   0  0  1  0  0  3  0  0  0  0  0  0
  191.2620  174.7410  146.1600 C   0  0  0  0  0  3  0  0  0  0  0  0
  191.1200  174.2710  143.7380 N   0  0  0  0  0  0  0  0  0  0  0  0
  191.2990  172.0330  139.5620 O   0  0  0  0  0  0  0  0  0  0  0  0
  191.8270  172.4770  138.3680 N   0  0  0  0  0  0  0  0  0  0  0  0
  191.1950  171.7300  134.9230 N   0  0  0  0  0  2  0  0  0  0  0  0
  190.2710  171.0940  137.0870 C   0  0  0  0  0  2  0  0  0  0  0  0
  191.3670  172.0590  137.2340 C   0  0  0  0  0  0  0  0  0  0  0  0
  190.0720  171.0520  135.5820 C   0  0  0  0  0  2  0  0  0  0  0  0
  191.9010  172.5040  135.9390 C   0  0  0  0  0  2  0  0  0  0  0  0
  1 26  1  0  0  0  0
  2 27  1  0  0  0  0
  3 16  2  0  0  0  0
  4 23  2  0  0  0  0
  5 15  2  0  0  0  0
  7  3  1  0  0  0  0
  8 12  1  0  0  0  0
  9 27  1  0  0  0  0
 10 17  2  0  0  0  0
 10 22  1  0  0  0  0
 11 20  2  0  0  0  0
 11  5  1  0  0  0  0
 13  9  2  0  0  0  0
 13 20  1  0  0  0  0
 14  2  1  0  0  0  0
 15  4  1  0  0  0  0
 15 12  1  0  0  0  0
 16  8  1  0  0  0  0
 17 25  1  0  0  0  0
 18  1  2  0  0  0  0
 18  4  1  0  0  0  0
 19  6  1  6  0  0  0
 19  5  1  0  0  0  0
 19  3  1  0  0  0  0
 20 18  1  0  0  0  0
 22 24  1  0  0  0  0
 23 21  1  0  0  0  0
 24 13  1  0  0  0  0
 25 14  1  1  0  0  0
 25  9  1  0  0  0  0
 26 21  2  0  0  0  0
 27  1  1  0  0  0  0
 28 17  1  0  0  0  0
 29 28  1  0  0  0  0
 30 33  1  0  0  0  0
 30 34  1  0  0  0  0
 31 32  1  0  0  0  0
 32 29  2  0  0  0  0
 33 31  1  0  0  0  0
 34 32  1  0  0  0  0
M  END
>  <MODEL>
6

>  <REMARK>
 VINA RESULT:      -8.6      4.122      8.165
  Name = 
  2 active torsions:
  status: ('A' for Active; 'I' for Inactive)
    1  A    between atoms: C_17  and  O_28
    2  A    between atoms: O_28  and  N_29
                            x       y       z     vdW  Elec       q    Type
                         _______ _______ _______ _____ _____    ______ ____

>  <TORSDO>
F 2

$$$$
=
 OpenBabel11112418033D

 34 40  0  0  1  0  0  0  0  0999 V2000
  191.5410  176.2050  145.5980 C   0  0  0  0  0  0  0  0  0  0  0  0
  193.6590  175.3560  144.3940 C   0  0  0  0  0  2  0  0  0  0  0  0
  185.5670  178.7360  145.2130 C   0  0  0  0  0  0  0  0  0  0  0  0
  189.4270  177.0020  146.5350 C   0  0  0  0  0  0  0  0  0  0  0  0
  187.4720  177.1160  145.0790 C   0  0  0  0  0  0  0  0  0  0  0  0
  185.5670  176.9790  143.3930 C   0  0  0  0  0  1  0  0  0  0  0  0
  185.2700  179.7920  144.1970 C   0  0  0  0  0  1  0  0  0  0  0  0
  185.8160  178.0770  147.4850 C   0  0  0  0  0  2  0  0  0  0  0  0
  191.6340  175.5400  143.2040 C   0  0  0  0  0  0  0  0  0  0  0  0
  190.9640  173.5460  140.9830 C   0  0  0  0  0  3  0  0  0  0  0  0
  188.2430  176.6470  144.0580 N   0  0  0  0  0  0  0  0  0  0  0  0
  187.3290  177.9070  147.5700 C   0  0  0  0  0  2  0  0  0  0  0  0
  190.3420  175.8520  143.0310 C   0  0  0  0  0  0  0  0  0  0  0  0
  193.8640  174.7910  142.9830 C   0  0  0  0  0  2  0  0  0  0  0  0
  188.0560  177.3100  146.3700 C   0  0  0  0  0  0  0  0  0  0  0  0
  185.4830  179.0360  146.4610 N   0  0  0  0  0  0  0  0  0  0  0  0
  192.2200  173.9500  141.2350 C   0  0  0  0  0  0  0  0  0  0  0  0
  190.1770  176.5190  145.4440 C   0  0  0  0  0  0  0  0  0  0  0  0
  186.0030  177.3500  144.8100 C   0  0  2  0  0  3  0  0  0  0  0  0
  189.5600  176.3510  144.1940 C   0  0  0  0  0  0  0  0  0  0  0  0
  191.4270  176.8600  147.9240 C   0  0  0  0  0  3  0  0  0  0  0  0
  189.6780  174.0470  141.5680 C   0  0  0  0  0  2  0  0  0  0  0  0
  190.0720  177.1690  147.7730 C   0  0  0  0  0  3  0  0  0  0  0  0
  189.6720  175.5520  141.7370 C   0  0  0  0  0  2  0  0  0  0  0  0
  192.6040  175.1100  142.1550 C   0  0  1  0  0  3  0  0  0  0  0  0
  192.1620  176.3770  146.8380 C   0  0  0  0  0  3  0  0  0  0  0  0
  192.2570  175.7090  144.4610 N   0  0  0  0  0  0  0  0  0  0  0  0
  193.2100  173.2990  140.4910 O   0  0  0  0  0  0  0  0  0  0  0  0
  193.4710  173.6190  139.1750 N   0  0  0  0  0  0  0  0  0  0  0  0
  196.1560  175.2900  137.4950 N   0  0  0  0  0  2  0  0  0  0  0  0
  195.6370  174.5840  139.7690 C   0  0  0  0  0  2  0  0  0  0  0  0
  194.5730  174.2030  138.8320 C   0  0  0  0  0  0  0  0  0  0  0  0
  196.7150  175.1140  138.8410 C   0  0  0  0  0  2  0  0  0  0  0  0
  194.8910  174.5650  137.4440 C   0  0  0  0  0  2  0  0  0  0  0  0
  1 26  1  0  0  0  0
  2 27  1  0  0  0  0
  3 16  2  0  0  0  0
  4 23  2  0  0  0  0
  5 15  2  0  0  0  0
  7  3  1  0  0  0  0
  8 12  1  0  0  0  0
  9 27  1  0  0  0  0
 10 17  2  0  0  0  0
 10 22  1  0  0  0  0
 11 20  2  0  0  0  0
 11  5  1  0  0  0  0
 13  9  2  0  0  0  0
 13 20  1  0  0  0  0
 14  2  1  0  0  0  0
 15  4  1  0  0  0  0
 15 12  1  0  0  0  0
 16  8  1  0  0  0  0
 17 25  1  0  0  0  0
 18  1  2  0  0  0  0
 18  4  1  0  0  0  0
 19  6  1  6  0  0  0
 19  5  1  0  0  0  0
 19  3  1  0  0  0  0
 20 18  1  0  0  0  0
 22 24  1  0  0  0  0
 23 21  1  0  0  0  0
 24 13  1  0  0  0  0
 25 14  1  1  0  0  0
 25  9  1  0  0  0  0
 26 21  2  0  0  0  0
 27  1  1  0  0  0  0
 28 17  1  0  0  0  0
 29 28  1  0  0  0  0
 30 33  1  0  0  0  0
 32 29  2  0  0  0  0
 32 31  1  0  0  0  0
 33 31  1  0  0  0  0
 34 30  1  0  0  0  0
 34 32  1  0  0  0  0
M  END
>  <MODEL>
7

>  <REMARK>
 VINA RESULT:      -8.2      3.849      8.953
  Name = 
  2 active torsions:
  status: ('A' for Active; 'I' for Inactive)
    1  A    between atoms: C_17  and  O_28
    2  A    between atoms: O_28  and  N_29
                            x       y       z     vdW  Elec       q    Type
                         _______ _______ _______ _____ _____    ______ ____

>  <TORSDO>
F 2

$$$$
=
 OpenBabel11112418033D

 34 40  0  0  1  0  0  0  0  0999 V2000
  189.0780  174.0200  140.8850 C   0  0  0  0  0  0  0  0  0  0  0  0
  188.1240  176.3140  141.5800 C   0  0  0  0  0  2  0  0  0  0  0  0
  193.4890  169.3320  141.7860 C   0  0  0  0  0  0  0  0  0  0  0  0
  190.1020  171.8470  140.4250 C   0  0  0  0  0  0  0  0  0  0  0  0
  191.5160  170.8340  142.1350 C   0  0  0  0  0  0  0  0  0  0  0  0
  192.8020  169.9370  144.1450 C   0  0  0  0  0  1  0  0  0  0  0  0
  194.9050  169.6930  142.1040 C   0  0  0  0  0  1  0  0  0  0  0  0
  191.8870  168.3980  140.2970 C   0  0  0  0  0  2  0  0  0  0  0  0
  189.5090  175.1260  143.0700 C   0  0  0  0  0  0  0  0  0  0  0  0
  189.0350  175.3010  146.0870 C   0  0  0  0  0  3  0  0  0  0  0  0
  191.2830  171.9190  142.9270 N   0  0  0  0  0  0  0  0  0  0  0  0
  191.1670  169.6560  139.8250 C   0  0  0  0  0  2  0  0  0  0  0  0
  190.3060  174.1210  143.4610 C   0  0  0  0  0  0  0  0  0  0  0  0
  188.1800  177.0730  142.9110 C   0  0  0  0  0  2  0  0  0  0  0  0
  190.9200  170.7690  140.8380 C   0  0  0  0  0  0  0  0  0  0  0  0
  193.2400  168.7180  140.6850 N   0  0  0  0  0  0  0  0  0  0  0  0
  188.8130  176.3360  145.2610 C   0  0  0  0  0  0  0  0  0  0  0  0
  189.8940  172.9440  141.2840 C   0  0  0  0  0  0  0  0  0  0  0  0
  192.3520  169.7090  142.7030 C   0  0  2  0  0  3  0  0  0  0  0  0
  190.5070  172.9650  142.5470 C   0  0  0  0  0  0  0  0  0  0  0  0
  188.6760  172.9260  138.7660 C   0  0  0  0  0  3  0  0  0  0  0  0
  189.6640  173.9730  145.7860 C   0  0  0  0  0  2  0  0  0  0  0  0
  189.4830  171.8560  139.1620 C   0  0  0  0  0  3  0  0  0  0  0  0
  190.8460  174.0980  144.8470 C   0  0  0  0  0  2  0  0  0  0  0  0
  189.2490  176.4030  143.7960 C   0  0  1  0  0  3  0  0  0  0  0  0
  188.4720  174.0080  139.6260 C   0  0  0  0  0  3  0  0  0  0  0  0
  188.8920  175.1080  141.7990 N   0  0  0  0  0  0  0  0  0  0  0  0
  188.2330  177.4580  145.8630 O   0  0  0  0  0  0  0  0  0  0  0  0
  187.0100  177.4010  146.5000 N   0  0  0  0  0  0  0  0  0  0  0  0
  183.8140  178.9070  145.9130 N   0  0  0  0  0  2  0  0  0  0  0  0
  185.9900  178.8500  144.8160 C   0  0  0  0  0  2  0  0  0  0  0  0
  185.9810  178.0290  146.0330 C   0  0  0  0  0  0  0  0  0  0  0  0
  184.5300  179.2450  144.6770 C   0  0  0  0  0  2  0  0  0  0  0  0
  184.6620  177.9990  146.6800 C   0  0  0  0  0  2  0  0  0  0  0  0
  1 18  1  0  0  0  0
  1 27  1  0  0  0  0
  2 27  1  0  0  0  0
  2 14  1  0  0  0  0
  3  7  1  0  0  0  0
  3 19  1  0  0  0  0
  4 15  2  0  0  0  0
  4 18  1  0  0  0  0
  5 19  1  0  0  0  0
  5 11  2  0  0  0  0
  8 16  1  0  0  0  0
  9 13  2  0  0  0  0
  9 25  1  0  0  0  0
 12  8  1  0  0  0  0
 12 15  1  0  0  0  0
 13 24  1  0  0  0  0
 15  5  1  0  0  0  0
 16  3  2  0  0  0  0
 17 28  1  0  0  0  0
 17 10  2  0  0  0  0
 18 20  2  0  0  0  0
 19  6  1  1  0  0  0
 20 11  1  0  0  0  0
 20 13  1  0  0  0  0
 21 23  2  0  0  0  0
 21 26  1  0  0  0  0
 22 10  1  0  0  0  0
 23  4  1  0  0  0  0
 24 22  1  0  0  0  0
 25 14  1  6  0  0  0
 25 17  1  0  0  0  0
 26  1  2  0  0  0  0
 27  9  1  0  0  0  0
 28 29  1  0  0  0  0
 30 34  1  0  0  0  0
 31 32  1  0  0  0  0
 32 29  2  0  0  0  0
 32 34  1  0  0  0  0
 33 31  1  0  0  0  0
 33 30  1  0  0  0  0
M  END
>  <MODEL>
8

>  <REMARK>
 VINA RESULT:      -8.0      3.756      7.240
  Name = 
  2 active torsions:
  status: ('A' for Active; 'I' for Inactive)
    1  A    between atoms: C_17  and  O_28
    2  A    between atoms: O_28  and  N_29
                            x       y       z     vdW  Elec       q    Type
                         _______ _______ _______ _____ _____    ______ ____

>  <TORSDO>
F 2

$$$$
=
 OpenBabel11112418033D

 34 40  0  0  1  0  0  0  0  0999 V2000
  191.2410  175.9150  145.3210 C   0  0  0  0  0  0  0  0  0  0  0  0
  193.1860  174.8600  143.9950 C   0  0  0  0  0  2  0  0  0  0  0  0
  185.4910  178.9460  145.2870 C   0  0  0  0  0  0  0  0  0  0  0  0
  189.2760  176.9140  146.3810 C   0  0  0  0  0  0  0  0  0  0  0  0
  187.2380  177.1640  145.0650 C   0  0  0  0  0  0  0  0  0  0  0  0
  185.2090  177.1560  143.5220 C   0  0  0  0  0  1  0  0  0  0  0  0
  185.2120  180.0010  144.2650 C   0  0  0  0  0  1  0  0  0  0  0  0
  185.8480  178.3180  147.5530 C   0  0  0  0  0  2  0  0  0  0  0  0
  191.1030  175.1920  142.9460 C   0  0  0  0  0  0  0  0  0  0  0  0
  190.1060  173.2140  140.8350 C   0  0  0  0  0  3  0  0  0  0  0  0
  187.8890  176.6070  144.0050 N   0  0  0  0  0  0  0  0  0  0  0  0
  187.3430  178.0200  147.5360 C   0  0  0  0  0  2  0  0  0  0  0  0
  189.8330  175.6110  142.8560 C   0  0  0  0  0  0  0  0  0  0  0  0
  193.2390  174.2470  142.5900 C   0  0  0  0  0  2  0  0  0  0  0  0
  187.9280  177.3350  146.3050 C   0  0  0  0  0  0  0  0  0  0  0  0
  185.5240  179.2800  146.5280 N   0  0  0  0  0  0  0  0  0  0  0  0
  191.4070  173.5130  140.9870 C   0  0  0  0  0  0  0  0  0  0  0  0
  189.9010  176.3430  145.2550 C   0  0  0  0  0  0  0  0  0  0  0  0
  185.7770  177.5180  144.8930 C   0  0  2  0  0  3  0  0  0  0  0  0
  189.1830  176.2020  144.0570 C   0  0  0  0  0  0  0  0  0  0  0  0
  191.3530  176.6290  147.6290 C   0  0  0  0  0  3  0  0  0  0  0  0
  188.9130  173.8380  141.4960 C   0  0  0  0  0  2  0  0  0  0  0  0
  190.0220  177.0520  147.5660 C   0  0  0  0  0  3  0  0  0  0  0  0
  189.0470  175.3420  141.6220 C   0  0  0  0  0  2  0  0  0  0  0  0
  191.9540  174.6560  141.8440 C   0  0  1  0  0  3  0  0  0  0  0  0
  191.9630  176.0610  146.5090 C   0  0  0  0  0  3  0  0  0  0  0  0
  191.8280  175.3340  144.1500 N   0  0  0  0  0  0  0  0  0  0  0  0
  192.2810  172.7620  140.1930 O   0  0  0  0  0  0  0  0  0  0  0  0
  191.8740  171.6300  139.5190 N   0  0  0  0  0  0  0  0  0  0  0  0
  192.7680  168.1660  139.6860 N   0  0  0  0  0  2  0  0  0  0  0  0
  193.3340  170.2150  140.8760 C   0  0  0  0  0  2  0  0  0  0  0  0
  192.3450  170.4640  139.8210 C   0  0  0  0  0  0  0  0  0  0  0  0
  193.4390  168.7010  140.8770 C   0  0  0  0  0  2  0  0  0  0  0  0
  191.9410  169.2320  139.1290 C   0  0  0  0  0  2  0  0  0  0  0  0
  1 26  1  0  0  0  0
  2 27  1  0  0  0  0
  3 16  2  0  0  0  0
  4 23  2  0  0  0  0
  5 15  2  0  0  0  0
  7  3  1  0  0  0  0
  9 27  1  0  0  0  0
 10 17  2  0  0  0  0
 10 22  1  0  0  0  0
 11 20  2  0  0  0  0
 11  5  1  0  0  0  0
 12  8  1  0  0  0  0
 13  9  2  0  0  0  0
 13 20  1  0  0  0  0
 14  2  1  0  0  0  0
 15  4  1  0  0  0  0
 15 12  1  0  0  0  0
 16  8  1  0  0  0  0
 17 25  1  0  0  0  0
 18  1  2  0  0  0  0
 18  4  1  0  0  0  0
 19  6  1  6  0  0  0
 19  5  1  0  0  0  0
 19  3  1  0  0  0  0
 20 18  1  0  0  0  0
 22 24  1  0  0  0  0
 23 21  1  0  0  0  0
 24 13  1  0  0  0  0
 25 14  1  1  0  0  0
 25  9  1  0  0  0  0
 26 21  2  0  0  0  0
 27  1  1  0  0  0  0
 28 17  1  0  0  0  0
 29 32  2  0  0  0  0
 29 28  1  0  0  0  0
 30 33  1  0  0  0  0
 31 33  1  0  0  0  0
 32 31  1  0  0  0  0
 34 30  1  0  0  0  0
 34 32  1  0  0  0  0
M  END
>  <MODEL>
9

>  <REMARK>
 VINA RESULT:      -8.0      3.785      8.753
  Name = 
  2 active torsions:
  status: ('A' for Active; 'I' for Inactive)
    1  A    between atoms: C_17  and  O_28
    2  A    between atoms: O_28  and  N_29
                            x       y       z     vdW  Elec       q    Type
                         _______ _______ _______ _____ _____    ______ ____

>  <TORSDO>
F 2

$$$$
