=
 OpenBabel11112416233D

 30 35  0  0  1  0  0  0  0  0999 V2000
  186.8210  177.1970  143.9780 C   0  0  2  0  0  3  0  0  0  0  0  0
  185.0260  178.3720  145.4260 C   0  0  0  0  0  0  0  0  0  0  0  0
  189.3290  176.8790  147.3310 N   0  0  0  0  0  0  0  0  0  0  0  0
  188.3590  177.1610  143.8060 C   0  0  2  0  0  3  0  0  0  0  0  0
  186.2610  177.8140  142.7130 C   0  0  0  0  0  2  0  0  0  0  0  0
  188.1650  175.5910  140.4810 O   0  0  0  0  0  0  0  0  0  0  0  0
  191.2200  176.5260  143.0780 C   0  0  1  0  0  3  0  0  0  0  0  0
  187.8200  176.2240  141.5170 C   0  0  0  0  0  0  0  0  0  0  0  0
  191.3720  176.2130  144.4820 N   0  0  0  0  0  0  0  0  0  0  0  0
  190.4570  176.4630  146.7750 N   0  0  0  0  0  0  0  0  0  0  0  0
  186.4340  176.8270  141.5630 C   0  0  2  0  0  3  0  0  0  0  0  0
  188.7190  176.3030  142.6550 N   0  0  0  0  0  0  0  0  0  0  0  0
  184.5880  178.8390  146.6680 C   0  0  0  0  0  3  0  0  0  0  0  0
  192.7080  175.7690  144.8200 C   0  0  0  0  0  2  0  0  0  0  0  0
  192.5340  176.1390  142.4170 C   0  0  0  0  0  2  0  0  0  0  0  0
  184.1460  178.4400  144.3520 O   0  0  0  0  0  1  0  0  0  0  0  0
  188.4490  177.0780  146.3300 C   0  0  0  0  0  0  0  0  0  0  0  0
  185.4080  178.7430  147.7920 C   0  0  0  0  0  3  0  0  0  0  0  0
  186.3280  177.8300  145.2850 C   0  0  0  0  0  0  0  0  0  0  0  0
  189.0090  176.7700  145.1140 C   0  0  0  0  0  0  0  0  0  0  0  0
  191.6610  176.2070  147.5460 C   0  0  0  0  0  1  0  0  0  0  0  0
  190.3130  176.4220  145.4290 C   0  0  0  0  0  0  0  0  0  0  0  0
  193.5260  175.9050  143.5480 C   0  0  0  0  0  2  0  0  0  0  0  0
  190.2300  174.6540  141.9620 O   0  0  0  0  0  0  0  0  0  0  0  0
  186.6710  178.1640  147.6850 C   0  0  0  0  0  3  0  0  0  0  0  0
  187.1250  177.6950  146.4480 C   0  0  0  0  0  0  0  0  0  0  0  0
  190.0530  175.7760  142.5100 C   0  0  0  0  0  0  0  0  0  0  0  0
  186.0950  177.5150  140.2460 C   0  0  0  0  0  2  0  0  0  0  0  0
  183.8160  178.0420  140.2730 C   0  0  0  0  0  1  0  0  0  0  0  0
  185.1460  178.5950  140.4670 N   0  0  0  0  0  2  0  0  0  0  0  0
  1  5  1  6  0  0  0
  1 19  1  0  0  0  0
  2 13  1  0  0  0  0
  4  1  1  0  0  0  0
  4 20  1  1  0  0  0
  6  8  2  0  0  0  0
  7 15  1  6  0  0  0
  7  9  1  0  0  0  0
  8 11  1  0  0  0  0
  8 12  1  0  0  0  0
  9 14  1  0  0  0  0
  9 22  1  0  0  0  0
 10  3  1  0  0  0  0
 10 21  1  0  0  0  0
 11 28  1  6  0  0  0
 11  5  1  0  0  0  0
 12  4  1  0  0  0  0
 13 18  2  0  0  0  0
 15 23  1  0  0  0  0
 16  2  1  0  0  0  0
 17 26  1  0  0  0  0
 17  3  2  0  0  0  0
 19  2  2  0  0  0  0
 19 26  1  0  0  0  0
 20 22  2  0  0  0  0
 20 17  1  0  0  0  0
 22 10  1  0  0  0  0
 23 14  1  0  0  0  0
 24 27  2  0  0  0  0
 25 18  1  0  0  0  0
 26 25  2  0  0  0  0
 27 12  1  0  0  0  0
 27  7  1  0  0  0  0
 28 30  1  0  0  0  0
 29 30  1  0  0  0  0
M  END
>  <MODEL>
1

>  <REMARK>
 VINA RESULT:      -8.7      0.000      0.000
  Name = 
  2 active torsions:
  status: ('A' for Active; 'I' for Inactive)
    1  A    between atoms: C_11  and  C_28
    2  A    between atoms: C_28  and  N_30
                            x       y       z     vdW  Elec       q    Type
                         _______ _______ _______ _____ _____    ______ ____

>  <TORSDO>
F 2

$$$$
=
 OpenBabel11112416233D

 30 35  0  0  1  0  0  0  0  0999 V2000
  188.0030  176.9300  144.6970 C   0  0  2  0  0  3  0  0  0  0  0  0
  186.2530  178.4880  145.7970 C   0  0  0  0  0  0  0  0  0  0  0  0
  186.2760  177.6330  140.9350 N   0  0  0  0  0  0  0  0  0  0  0  0
  188.0940  175.8620  143.5810 C   0  0  2  0  0  3  0  0  0  0  0  0
  188.2400  176.2060  146.0060 C   0  0  0  0  0  2  0  0  0  0  0  0
  191.2950  174.5310  144.8230 O   0  0  0  0  0  0  0  0  0  0  0  0
  188.9640  173.8580  141.4960 C   0  0  1  0  0  3  0  0  0  0  0  0
  190.1900  175.1390  144.8040 C   0  0  0  0  0  0  0  0  0  0  0  0
  188.4100  174.7990  140.5470 N   0  0  0  0  0  0  0  0  0  0  0  0
  186.9090  176.7420  140.1860 N   0  0  0  0  0  0  0  0  0  0  0  0
  189.7030  175.7860  146.0820 C   0  0  2  0  0  3  0  0  0  0  0  0
  189.4500  175.2670  143.5610 N   0  0  0  0  0  0  0  0  0  0  0  0
  185.1670  179.3600  145.6820 C   0  0  0  0  0  3  0  0  0  0  0  0
  188.5470  174.3620  139.1730 C   0  0  0  0  0  2  0  0  0  0  0  0
  189.6290  172.7700  140.6680 C   0  0  0  0  0  2  0  0  0  0  0  0
  186.8350  178.3260  147.0480 O   0  0  0  0  0  1  0  0  0  0  0  0
  186.7100  177.4610  142.1990 C   0  0  0  0  0  0  0  0  0  0  0  0
  184.5800  179.6040  144.4410 C   0  0  0  0  0  3  0  0  0  0  0  0
  186.7460  177.8080  144.6550 C   0  0  0  0  0  0  0  0  0  0  0  0
  187.6470  176.4600  142.2660 C   0  0  0  0  0  0  0  0  0  0  0  0
  186.6460  176.5850  138.7660 C   0  0  0  0  0  1  0  0  0  0  0  0
  187.7200  175.9870  140.9650 C   0  0  0  0  0  0  0  0  0  0  0  0
  189.1470  172.9690  139.2380 C   0  0  0  0  0  2  0  0  0  0  0  0
  191.1610  174.5790  142.1180 O   0  0  0  0  0  0  0  0  0  0  0  0
  185.0850  178.9870  143.2990 C   0  0  0  0  0  3  0  0  0  0  0  0
  186.1690  178.1080  143.3970 C   0  0  0  0  0  0  0  0  0  0  0  0
  189.9320  174.5570  142.4030 C   0  0  0  0  0  0  0  0  0  0  0  0
  189.9060  174.8560  147.2730 C   0  0  0  0  0  2  0  0  0  0  0  0
  191.2200  176.6570  147.9810 C   0  0  0  0  0  1  0  0  0  0  0  0
  191.1210  175.2080  147.9910 N   0  0  0  0  0  2  0  0  0  0  0  0
  1  5  1  1  0  0  0
  2 16  1  0  0  0  0
  3 17  2  0  0  0  0
  4 20  1  6  0  0  0
  4  1  1  0  0  0  0
  5 11  1  0  0  0  0
  7 15  1  6  0  0  0
  7 27  1  0  0  0  0
  8  6  2  0  0  0  0
  8 11  1  0  0  0  0
  9 22  1  0  0  0  0
  9  7  1  0  0  0  0
 10  3  1  0  0  0  0
 10 22  1  0  0  0  0
 11 28  1  1  0  0  0
 12  4  1  0  0  0  0
 12  8  1  0  0  0  0
 13  2  1  0  0  0  0
 14 23  1  0  0  0  0
 14  9  1  0  0  0  0
 17 20  1  0  0  0  0
 17 26  1  0  0  0  0
 18 13  2  0  0  0  0
 19  1  1  0  0  0  0
 19  2  2  0  0  0  0
 21 10  1  0  0  0  0
 22 20  2  0  0  0  0
 23 15  1  0  0  0  0
 24 27  2  0  0  0  0
 25 26  2  0  0  0  0
 25 18  1  0  0  0  0
 26 19  1  0  0  0  0
 27 12  1  0  0  0  0
 28 30  1  0  0  0  0
 29 30  1  0  0  0  0
M  END
>  <MODEL>
2

>  <REMARK>
 VINA RESULT:      -8.6      2.011      5.441
  Name = 
  2 active torsions:
  status: ('A' for Active; 'I' for Inactive)
    1  A    between atoms: C_11  and  C_28
    2  A    between atoms: C_28  and  N_30
                            x       y       z     vdW  Elec       q    Type
                         _______ _______ _______ _____ _____    ______ ____

>  <TORSDO>
F 2

$$$$
=
 OpenBabel11112416233D

 30 35  0  0  1  0  0  0  0  0999 V2000
  187.5750  176.6300  144.2010 C   0  0  2  0  0  3  0  0  0  0  0  0
  185.3840  177.7790  144.9620 C   0  0  0  0  0  0  0  0  0  0  0  0
  189.3310  177.4990  147.9150 N   0  0  0  0  0  0  0  0  0  0  0  0
  189.1070  176.8160  144.3200 C   0  0  2  0  0  3  0  0  0  0  0  0
  187.2270  176.8440  142.7420 C   0  0  0  0  0  2  0  0  0  0  0  0
  189.8160  174.5310  141.5200 O   0  0  0  0  0  0  0  0  0  0  0  0
  192.1130  176.5260  144.2950 C   0  0  1  0  0  3  0  0  0  0  0  0
  189.1850  175.3130  142.2840 C   0  0  0  0  0  0  0  0  0  0  0  0
  191.9980  176.5660  145.7360 N   0  0  0  0  0  0  0  0  0  0  0  0
  190.5930  177.1650  147.6920 N   0  0  0  0  0  0  0  0  0  0  0  0
  187.7580  175.6680  141.9290 C   0  0  2  0  0  3  0  0  0  0  0  0
  189.8050  175.7950  143.5060 N   0  0  0  0  0  0  0  0  0  0  0  0
  184.6390  178.4320  145.9480 C   0  0  0  0  0  3  0  0  0  0  0  0
  193.2760  176.4400  146.4070 C   0  0  0  0  0  2  0  0  0  0  0  0
  193.5730  176.2280  143.9980 C   0  0  0  0  0  2  0  0  0  0  0  0
  184.7520  177.4560  143.7680 O   0  0  0  0  0  1  0  0  0  0  0  0
  188.6660  177.3170  146.7570 C   0  0  0  0  0  0  0  0  0  0  0  0
  185.2060  178.7300  147.1860 C   0  0  0  0  0  3  0  0  0  0  0  0
  186.7420  177.4470  145.1970 C   0  0  0  0  0  0  0  0  0  0  0  0
  189.5060  176.8430  145.7780 C   0  0  0  0  0  0  0  0  0  0  0  0
  191.6280  177.2960  148.7030 C   0  0  0  0  0  1  0  0  0  0  0  0
  190.7450  176.8000  146.3970 C   0  0  0  0  0  0  0  0  0  0  0  0
  194.3230  176.4240  145.3080 C   0  0  0  0  0  2  0  0  0  0  0  0
  191.6160  174.3120  143.5320 O   0  0  0  0  0  0  0  0  0  0  0  0
  186.5230  178.3630  147.4550 C   0  0  0  0  0  3  0  0  0  0  0  0
  187.2840  177.7120  146.4780 C   0  0  0  0  0  0  0  0  0  0  0  0
  191.1920  175.4820  143.7370 C   0  0  0  0  0  0  0  0  0  0  0  0
  187.6270  175.9770  140.4420 C   0  0  0  0  0  2  0  0  0  0  0  0
  186.2570  177.2150  139.0070 C   0  0  0  0  0  1  0  0  0  0  0  0
  187.0100  177.2800  140.2470 N   0  0  0  0  0  2  0  0  0  0  0  0
  1  5  1  6  0  0  0
  1  4  1  0  0  0  0
  1 19  1  0  0  0  0
  2 19  2  0  0  0  0
  2 13  1  0  0  0  0
  4 20  1  1  0  0  0
  6  8  2  0  0  0  0
  7 15  1  1  0  0  0
  7  9  1  0  0  0  0
  8 12  1  0  0  0  0
  9 22  1  0  0  0  0
  9 14  1  0  0  0  0
 10  3  1  0  0  0  0
 10 21  1  0  0  0  0
 11 28  1  6  0  0  0
 11  8  1  0  0  0  0
 11  5  1  0  0  0  0
 12 27  1  0  0  0  0
 12  4  1  0  0  0  0
 13 18  2  0  0  0  0
 15 23  1  0  0  0  0
 16  2  1  0  0  0  0
 17  3  2  0  0  0  0
 18 25  1  0  0  0  0
 19 26  1  0  0  0  0
 20 22  2  0  0  0  0
 20 17  1  0  0  0  0
 22 10  1  0  0  0  0
 23 14  1  0  0  0  0
 24 27  2  0  0  0  0
 26 17  1  0  0  0  0
 26 25  2  0  0  0  0
 27  7  1  0  0  0  0
 29 30  1  0  0  0  0
 30 28  1  0  0  0  0
M  END
>  <MODEL>
3

>  <REMARK>
 VINA RESULT:      -8.3      1.274      1.517
  Name = 
  2 active torsions:
  status: ('A' for Active; 'I' for Inactive)
    1  A    between atoms: C_11  and  C_28
    2  A    between atoms: C_28  and  N_30
                            x       y       z     vdW  Elec       q    Type
                         _______ _______ _______ _____ _____    ______ ____

>  <TORSDO>
F 2

$$$$
=
 OpenBabel11112416233D

 30 35  0  0  1  0  0  0  0  0999 V2000
  188.0030  175.9890  143.8050 C   0  0  2  0  0  3  0  0  0  0  0  0
  185.8030  177.3430  143.9500 C   0  0  0  0  0  0  0  0  0  0  0  0
  189.2350  177.5790  147.4900 N   0  0  0  0  0  0  0  0  0  0  0  0
  189.5090  176.1470  144.1260 C   0  0  2  0  0  3  0  0  0  0  0  0
  187.8930  175.8940  142.2970 C   0  0  0  0  0  2  0  0  0  0  0  0
  190.4800  173.2920  142.0130 O   0  0  0  0  0  0  0  0  0  0  0  0
  192.4590  175.7630  144.6450 C   0  0  1  0  0  3  0  0  0  0  0  0
  189.7940  174.2390  142.4870 C   0  0  0  0  0  0  0  0  0  0  0  0
  192.1330  176.1150  146.0090 N   0  0  0  0  0  0  0  0  0  0  0  0
  190.4920  177.1650  147.5470 N   0  0  0  0  0  0  0  0  0  0  0  0
  188.4620  174.5550  141.8410 C   0  0  2  0  0  3  0  0  0  0  0  0
  190.2530  174.9530  143.6650 N   0  0  0  0  0  0  0  0  0  0  0  0
  184.9630  178.2160  144.6460 C   0  0  0  0  0  3  0  0  0  0  0  0
  193.2840  176.0970  146.8880 C   0  0  0  0  0  2  0  0  0  0  0  0
  193.9260  175.3620  144.6540 C   0  0  0  0  0  2  0  0  0  0  0  0
  185.3370  176.7910  142.7620 O   0  0  0  0  0  1  0  0  0  0  0  0
  188.7420  177.1730  146.3040 C   0  0  0  0  0  0  0  0  0  0  0  0
  185.3560  178.7550  145.8700 C   0  0  0  0  0  3  0  0  0  0  0  0
  187.0860  177.0260  144.4630 C   0  0  0  0  0  0  0  0  0  0  0  0
  189.6860  176.4740  145.5920 C   0  0  0  0  0  0  0  0  0  0  0  0
  191.3700  177.4770  148.6620 C   0  0  0  0  0  1  0  0  0  0  0  0
  190.8120  176.5260  146.3970 C   0  0  0  0  0  0  0  0  0  0  0  0
  194.4810  175.8110  145.9980 C   0  0  0  0  0  2  0  0  0  0  0  0
  191.9390  173.4530  144.2880 O   0  0  0  0  0  0  0  0  0  0  0  0
  186.5910  178.4130  146.4170 C   0  0  0  0  0  3  0  0  0  0  0  0
  187.4450  177.5440  145.7310 C   0  0  0  0  0  0  0  0  0  0  0  0
  191.5670  174.6530  144.1760 C   0  0  0  0  0  0  0  0  0  0  0  0
  188.5770  174.5410  140.3220 C   0  0  0  0  0  2  0  0  0  0  0  0
  188.5660  173.2170  138.3930 C   0  0  0  0  0  1  0  0  0  0  0  0
  188.1910  173.2400  139.7960 N   0  0  0  0  0  2  0  0  0  0  0  0
  1  5  1  6  0  0  0
  1  4  1  0  0  0  0
  1 19  1  0  0  0  0
  2 19  2  0  0  0  0
  2 13  1  0  0  0  0
  3 10  1  0  0  0  0
  4 20  1  1  0  0  0
  6  8  2  0  0  0  0
  7 15  1  1  0  0  0
  7  9  1  0  0  0  0
  8 12  1  0  0  0  0
  9 22  1  0  0  0  0
  9 14  1  0  0  0  0
 10 21  1  0  0  0  0
 11 28  1  6  0  0  0
 11  5  1  0  0  0  0
 11  8  1  0  0  0  0
 12  4  1  0  0  0  0
 12 27  1  0  0  0  0
 13 18  2  0  0  0  0
 15 23  1  0  0  0  0
 16  2  1  0  0  0  0
 17  3  2  0  0  0  0
 18 25  1  0  0  0  0
 19 26  1  0  0  0  0
 20 17  1  0  0  0  0
 20 22  2  0  0  0  0
 22 10  1  0  0  0  0
 23 14  1  0  0  0  0
 26 17  1  0  0  0  0
 26 25  2  0  0  0  0
 27 24  2  0  0  0  0
 27  7  1  0  0  0  0
 29 30  1  0  0  0  0
 30 28  1  0  0  0  0
M  END
>  <MODEL>
4

>  <REMARK>
 VINA RESULT:      -8.1      2.095      2.729
  Name = 
  2 active torsions:
  status: ('A' for Active; 'I' for Inactive)
    1  A    between atoms: C_11  and  C_28
    2  A    between atoms: C_28  and  N_30
                            x       y       z     vdW  Elec       q    Type
                         _______ _______ _______ _____ _____    ______ ____

>  <TORSDO>
F 2

$$$$
=
 OpenBabel11112416233D

 30 35  0  0  1  0  0  0  0  0999 V2000
  189.5780  174.6600  144.1510 C   0  0  2  0  0  3  0  0  0  0  0  0
  191.3410  173.3760  142.7580 C   0  0  0  0  0  0  0  0  0  0  0  0
  187.6850  175.9110  140.6180 N   0  0  0  0  0  0  0  0  0  0  0  0
  188.7860  175.9890  144.1140 C   0  0  2  0  0  3  0  0  0  0  0  0
  190.5210  174.7540  145.3330 C   0  0  0  0  0  2  0  0  0  0  0  0
  187.8870  175.8010  147.6800 O   0  0  0  0  0  0  0  0  0  0  0  0
  186.8690  178.2810  144.5550 C   0  0  1  0  0  3  0  0  0  0  0  0
  188.4950  175.5830  146.5960 C   0  0  0  0  0  0  0  0  0  0  0  0
  186.3780  177.9540  143.2350 N   0  0  0  0  0  0  0  0  0  0  0  0
  186.8150  176.7940  141.0850 N   0  0  0  0  0  0  0  0  0  0  0  0
  189.7090  174.6810  146.6210 C   0  0  2  0  0  3  0  0  0  0  0  0
  187.9890  176.1380  145.3530 N   0  0  0  0  0  0  0  0  0  0  0  0
  191.8330  172.9550  141.5200 C   0  0  0  0  0  3  0  0  0  0  0  0
  185.2850  178.8060  142.8120 C   0  0  0  0  0  2  0  0  0  0  0  0
  185.9410  179.3590  145.0930 C   0  0  0  0  0  2  0  0  0  0  0  0
  191.9570  172.8950  143.9070 O   0  0  0  0  0  1  0  0  0  0  0  0
  188.4050  175.4750  141.6700 C   0  0  0  0  0  0  0  0  0  0  0  0
  191.2180  173.3620  140.3360 C   0  0  0  0  0  3  0  0  0  0  0  0
  190.2320  174.2560  142.8240 C   0  0  0  0  0  0  0  0  0  0  0  0
  187.9850  176.0700  142.8340 C   0  0  0  0  0  0  0  0  0  0  0  0
  185.9060  177.5290  140.2230 C   0  0  0  0  0  1  0  0  0  0  0  0
  186.9940  176.9450  142.4190 C   0  0  0  0  0  0  0  0  0  0  0  0
  185.1210  179.8450  143.9070 C   0  0  0  0  0  2  0  0  0  0  0  0
  185.8840  176.7880  146.1470 O   0  0  0  0  0  0  0  0  0  0  0  0
  190.0940  174.1840  140.3830 C   0  0  0  0  0  3  0  0  0  0  0  0
  189.5920  174.6170  141.6140 C   0  0  0  0  0  0  0  0  0  0  0  0
  186.8780  177.0530  145.4160 C   0  0  0  0  0  0  0  0  0  0  0  0
  190.6070  175.0090  147.8080 C   0  0  0  0  0  2  0  0  0  0  0  0
  191.4090  177.1190  148.4250 C   0  0  0  0  0  1  0  0  0  0  0  0
  191.5590  176.0500  147.4520 N   0  0  0  0  0  2  0  0  0  0  0  0
  1  5  1  1  0  0  0
  2 19  1  0  0  0  0
  2 16  1  0  0  0  0
  3 10  1  0  0  0  0
  3 17  2  0  0  0  0
  4 20  1  6  0  0  0
  4  1  1  0  0  0  0
  4 12  1  0  0  0  0
  5 11  1  0  0  0  0
  7 15  1  1  0  0  0
  7 27  1  0  0  0  0
  8 11  1  0  0  0  0
  8  6  2  0  0  0  0
  9  7  1  0  0  0  0
 10 22  1  0  0  0  0
 11 28  1  1  0  0  0
 12 27  1  0  0  0  0
 12  8  1  0  0  0  0
 13  2  2  0  0  0  0
 14  9  1  0  0  0  0
 14 23  1  0  0  0  0
 17 20  1  0  0  0  0
 18 25  2  0  0  0  0
 18 13  1  0  0  0  0
 19  1  1  0  0  0  0
 21 10  1  0  0  0  0
 22 20  2  0  0  0  0
 22  9  1  0  0  0  0
 23 15  1  0  0  0  0
 25 26  1  0  0  0  0
 26 17  1  0  0  0  0
 26 19  2  0  0  0  0
 27 24  2  0  0  0  0
 30 28  1  0  0  0  0
 30 29  1  0  0  0  0
M  END
>  <MODEL>
5

>  <REMARK>
 VINA RESULT:      -8.0      2.301      7.296
  Name = 
  2 active torsions:
  status: ('A' for Active; 'I' for Inactive)
    1  A    between atoms: C_11  and  C_28
    2  A    between atoms: C_28  and  N_30
                            x       y       z     vdW  Elec       q    Type
                         _______ _______ _______ _____ _____    ______ ____

>  <TORSDO>
F 2

$$$$
=
 OpenBabel11112416233D

 30 35  0  0  1  0  0  0  0  0999 V2000
  188.6130  176.1670  144.0330 C   0  0  2  0  0  3  0  0  0  0  0  0
  186.7480  177.9390  144.3120 C   0  0  0  0  0  0  0  0  0  0  0  0
  187.5820  175.7050  139.9890 N   0  0  0  0  0  0  0  0  0  0  0  0
  188.8640  174.8220  143.3090 C   0  0  2  0  0  3  0  0  0  0  0  0
  188.5990  175.8610  145.5170 C   0  0  0  0  0  2  0  0  0  0  0  0
  191.7610  173.9800  145.4200 O   0  0  0  0  0  0  0  0  0  0  0  0
  190.0190  172.3170  142.0800 C   0  0  1  0  0  3  0  0  0  0  0  0
  190.6950  174.5330  145.0330 C   0  0  0  0  0  0  0  0  0  0  0  0
  189.6650  172.9280  140.8190 N   0  0  0  0  0  0  0  0  0  0  0  0
  188.3070  174.6490  139.6530 N   0  0  0  0  0  0  0  0  0  0  0  0
  190.0150  175.5130  145.9640 C   0  0  2  0  0  3  0  0  0  0  0  0
  190.1840  174.2760  143.6990 N   0  0  0  0  0  0  0  0  0  0  0  0
  185.7250  178.7160  143.7620 C   0  0  0  0  0  3  0  0  0  0  0  0
  190.0230  172.1130  139.6760 C   0  0  0  0  0  2  0  0  0  0  0  0
  190.7830  171.0500  141.7330 C   0  0  0  0  0  2  0  0  0  0  0  0
  187.1010  178.1610  145.6380 O   0  0  0  0  0  1  0  0  0  0  0  0
  187.7870  175.9190  141.3040 C   0  0  0  0  0  0  0  0  0  0  0  0
  185.3680  178.5760  142.4220 C   0  0  0  0  0  3  0  0  0  0  0  0
  187.4100  176.9670  143.5210 C   0  0  0  0  0  0  0  0  0  0  0  0
  188.6680  175.0010  141.8200 C   0  0  0  0  0  0  0  0  0  0  0  0
  188.2880  174.0790  138.3170 C   0  0  0  0  0  1  0  0  0  0  0  0
  188.9490  174.1710  140.7460 C   0  0  0  0  0  0  0  0  0  0  0  0
  190.5610  170.8130  140.2460 C   0  0  0  0  0  2  0  0  0  0  0  0
  192.0970  173.2360  142.8380 O   0  0  0  0  0  0  0  0  0  0  0  0
  186.0440  177.6630  141.6140 C   0  0  0  0  0  3  0  0  0  0  0  0
  187.0670  176.8750  142.1490 C   0  0  0  0  0  0  0  0  0  0  0  0
  190.8370  173.2710  142.8990 C   0  0  0  0  0  0  0  0  0  0  0  0
  189.9810  174.9760  147.3900 C   0  0  0  0  0  2  0  0  0  0  0  0
  191.2500  176.8420  148.0070 C   0  0  0  0  0  1  0  0  0  0  0  0
  191.1670  175.3960  148.1190 N   0  0  0  0  0  2  0  0  0  0  0  0
  1  5  1  1  0  0  0
  2 16  1  0  0  0  0
  3 17  2  0  0  0  0
  4 20  1  6  0  0  0
  4 12  1  0  0  0  0
  4  1  1  0  0  0  0
  5 11  1  0  0  0  0
  7 15  1  6  0  0  0
  7 27  1  0  0  0  0
  8  6  2  0  0  0  0
  8 11  1  0  0  0  0
  9  7  1  0  0  0  0
 10  3  1  0  0  0  0
 10 22  1  0  0  0  0
 11 28  1  1  0  0  0
 12  8  1  0  0  0  0
 13  2  1  0  0  0  0
 14 23  1  0  0  0  0
 14  9  1  0  0  0  0
 17 20  1  0  0  0  0
 17 26  1  0  0  0  0
 18 13  2  0  0  0  0
 19  1  1  0  0  0  0
 19  2  2  0  0  0  0
 21 10  1  0  0  0  0
 22  9  1  0  0  0  0
 22 20  2  0  0  0  0
 23 15  1  0  0  0  0
 24 27  2  0  0  0  0
 25 26  2  0  0  0  0
 25 18  1  0  0  0  0
 26 19  1  0  0  0  0
 27 12  1  0  0  0  0
 28 30  1  0  0  0  0
 29 30  1  0  0  0  0
M  END
>  <MODEL>
6

>  <REMARK>
 VINA RESULT:      -7.6      2.688      5.808
  Name = 
  2 active torsions:
  status: ('A' for Active; 'I' for Inactive)
    1  A    between atoms: C_11  and  C_28
    2  A    between atoms: C_28  and  N_30
                            x       y       z     vdW  Elec       q    Type
                         _______ _______ _______ _____ _____    ______ ____

>  <TORSDO>
F 2

$$$$
=
 OpenBabel11112416233D

 30 35  0  0  1  0  0  0  0  0999 V2000
  188.0730  175.7590  142.4940 C   0  0  2  0  0  3  0  0  0  0  0  0
  186.2400  177.5630  142.2090 C   0  0  0  0  0  0  0  0  0  0  0  0
  188.9900  177.2790  146.2980 N   0  0  0  0  0  0  0  0  0  0  0  0
  189.4990  175.6080  143.0750 C   0  0  2  0  0  3  0  0  0  0  0  0
  188.2000  175.5930  140.9930 C   0  0  0  0  0  2  0  0  0  0  0  0
  190.1470  172.4810  141.2420 O   0  0  0  0  0  0  0  0  0  0  0  0
  192.1570  174.6300  144.1230 C   0  0  1  0  0  3  0  0  0  0  0  0
  189.6210  173.5820  141.5620 C   0  0  0  0  0  0  0  0  0  0  0  0
  191.6930  175.1310  145.3970 N   0  0  0  0  0  0  0  0  0  0  0  0
  190.0940  176.6080  146.5900 N   0  0  0  0  0  0  0  0  0  0  0  0
  188.5230  174.1360  140.6810 C   0  0  2  0  0  3  0  0  0  0  0  0
  190.0240  174.2540  142.7840 N   0  0  0  0  0  0  0  0  0  0  0  0
  185.5110  178.6400  142.7210 C   0  0  0  0  0  3  0  0  0  0  0  0
  192.6460  174.9210  146.4680 C   0  0  0  0  0  2  0  0  0  0  0  0
  193.4730  173.9220  144.4040 C   0  0  0  0  0  2  0  0  0  0  0  0
  185.8690  177.0490  140.9720 O   0  0  0  0  0  1  0  0  0  0  0  0
  188.6250  176.9140  145.0540 C   0  0  0  0  0  0  0  0  0  0  0  0
  185.8030  179.1590  143.9820 C   0  0  0  0  0  3  0  0  0  0  0  0
  187.3130  177.0100  142.9510 C   0  0  0  0  0  0  0  0  0  0  0  0
  189.4950  175.9830  144.5400 C   0  0  0  0  0  0  0  0  0  0  0  0
  190.8180  176.7940  147.8350 C   0  0  0  0  0  1  0  0  0  0  0  0
  190.4520  175.8410  145.5320 C   0  0  0  0  0  0  0  0  0  0  0  0
  193.8810  174.3270  145.8140 C   0  0  0  0  0  2  0  0  0  0  0  0
  191.2010  172.4690  143.7370 O   0  0  0  0  0  0  0  0  0  0  0  0
  186.8200  178.5940  144.7490 C   0  0  0  0  0  3  0  0  0  0  0  0
  187.5610  177.5180  144.2490 C   0  0  0  0  0  0  0  0  0  0  0  0
  191.1310  173.7110  143.5300 C   0  0  0  0  0  0  0  0  0  0  0  0
  188.8860  174.0000  139.2070 C   0  0  0  0  0  2  0  0  0  0  0  0
  188.3410  174.7520  137.0600 C   0  0  0  0  0  1  0  0  0  0  0  0
  187.7870  174.4560  138.3690 N   0  0  0  0  0  2  0  0  0  0  0  0
  1  5  1  6  0  0  0
  1 19  1  0  0  0  0
  1  4  1  0  0  0  0
  2 13  2  0  0  0  0
  2 19  1  0  0  0  0
  3 10  1  0  0  0  0
  4 20  1  1  0  0  0
  6  8  2  0  0  0  0
  7 15  1  1  0  0  0
  7  9  1  0  0  0  0
  8 12  1  0  0  0  0
  9 22  1  0  0  0  0
  9 14  1  0  0  0  0
 10 21  1  0  0  0  0
 11 28  1  6  0  0  0
 11  5  1  0  0  0  0
 11  8  1  0  0  0  0
 12  4  1  0  0  0  0
 12 27  1  0  0  0  0
 13 18  1  0  0  0  0
 15 23  1  0  0  0  0
 16  2  1  0  0  0  0
 17  3  2  0  0  0  0
 18 25  2  0  0  0  0
 19 26  2  0  0  0  0
 20 17  1  0  0  0  0
 20 22  2  0  0  0  0
 22 10  1  0  0  0  0
 23 14  1  0  0  0  0
 26 25  1  0  0  0  0
 26 17  1  0  0  0  0
 27 24  2  0  0  0  0
 27  7  1  0  0  0  0
 29 30  1  0  0  0  0
 30 28  1  0  0  0  0
M  END
>  <MODEL>
7

>  <REMARK>
 VINA RESULT:      -7.5      2.161      3.092
  Name = 
  2 active torsions:
  status: ('A' for Active; 'I' for Inactive)
    1  A    between atoms: C_11  and  C_28
    2  A    between atoms: C_28  and  N_30
                            x       y       z     vdW  Elec       q    Type
                         _______ _______ _______ _____ _____    ______ ____

>  <TORSDO>
F 2

$$$$
=
 OpenBabel11112416233D

 30 35  0  0  1  0  0  0  0  0999 V2000
  189.7660  175.7790  143.5650 C   0  0  2  0  0  3  0  0  0  0  0  0
  191.8470  174.4620  144.3600 C   0  0  0  0  0  0  0  0  0  0  0  0
  189.4200  177.5410  147.3610 N   0  0  0  0  0  0  0  0  0  0  0  0
  188.3850  176.2330  144.0960 C   0  0  2  0  0  3  0  0  0  0  0  0
  189.4950  174.7670  142.4710 C   0  0  0  0  0  2  0  0  0  0  0  0
  187.0780  176.9230  140.7220 O   0  0  0  0  0  0  0  0  0  0  0  0
  185.6910  177.5190  144.5530 C   0  0  1  0  0  3  0  0  0  0  0  0
  187.8050  176.4530  141.6410 C   0  0  0  0  0  0  0  0  0  0  0  0
  186.3320  178.1570  145.6810 N   0  0  0  0  0  0  0  0  0  0  0  0
  188.2450  178.1450  147.2630 N   0  0  0  0  0  0  0  0  0  0  0  0
  188.9080  175.4900  141.2630 C   0  0  2  0  0  3  0  0  0  0  0  0
  187.6190  176.8920  143.0120 N   0  0  0  0  0  0  0  0  0  0  0  0
  192.7850  174.1650  145.3530 C   0  0  0  0  0  3  0  0  0  0  0  0
  185.4440  179.0410  146.4090 C   0  0  0  0  0  2  0  0  0  0  0  0
  184.3010  178.1280  144.4600 C   0  0  0  0  0  2  0  0  0  0  0  0
  192.0280  173.9060  143.1000 O   0  0  0  0  0  1  0  0  0  0  0  0
  189.6180  176.8790  146.2030 C   0  0  0  0  0  0  0  0  0  0  0  0
  192.6850  174.7390  146.6200 C   0  0  0  0  0  3  0  0  0  0  0  0
  190.7580  175.3240  144.6420 C   0  0  0  0  0  0  0  0  0  0  0  0
  188.5670  177.0710  145.3410 C   0  0  0  0  0  0  0  0  0  0  0  0
  187.6630  178.9060  148.3540 C   0  0  0  0  0  1  0  0  0  0  0  0
  187.6810  177.8510  146.0670 C   0  0  0  0  0  0  0  0  0  0  0  0
  184.0800  178.8840  145.7630 C   0  0  0  0  0  2  0  0  0  0  0  0
  186.2380  178.7270  142.5590 O   0  0  0  0  0  0  0  0  0  0  0  0
  191.6510  175.6310  146.9000 C   0  0  0  0  0  3  0  0  0  0  0  0
  190.7030  175.9370  145.9190 C   0  0  0  0  0  0  0  0  0  0  0  0
  186.4980  177.7470  143.3100 C   0  0  0  0  0  0  0  0  0  0  0  0
  188.4130  174.4660  140.2480 C   0  0  0  0  0  2  0  0  0  0  0  0
  189.1410  172.3500  139.5660 C   0  0  0  0  0  1  0  0  0  0  0  0
  188.6880  173.1150  140.7140 N   0  0  0  0  0  2  0  0  0  0  0  0
  1  5  1  6  0  0  0
  1  4  1  0  0  0  0
  1 19  1  0  0  0  0
  2 19  2  0  0  0  0
  2 13  1  0  0  0  0
  4 20  1  1  0  0  0
  6  8  2  0  0  0  0
  7 15  1  6  0  0  0
  7  9  1  0  0  0  0
  8 12  1  0  0  0  0
  9 22  1  0  0  0  0
  9 14  1  0  0  0  0
 10  3  1  0  0  0  0
 10 21  1  0  0  0  0
 11 28  1  6  0  0  0
 11  8  1  0  0  0  0
 11  5  1  0  0  0  0
 12 27  1  0  0  0  0
 12  4  1  0  0  0  0
 13 18  2  0  0  0  0
 15 23  1  0  0  0  0
 16  2  1  0  0  0  0
 17  3  2  0  0  0  0
 18 25  1  0  0  0  0
 19 26  1  0  0  0  0
 20 22  2  0  0  0  0
 20 17  1  0  0  0  0
 22 10  1  0  0  0  0
 23 14  1  0  0  0  0
 24 27  2  0  0  0  0
 26 17  1  0  0  0  0
 26 25  2  0  0  0  0
 27  7  1  0  0  0  0
 28 30  1  0  0  0  0
 29 30  1  0  0  0  0
M  END
>  <MODEL>
8

>  <REMARK>
 VINA RESULT:      -7.5      1.883      5.622
  Name = 
  2 active torsions:
  status: ('A' for Active; 'I' for Inactive)
    1  A    between atoms: C_11  and  C_28
    2  A    between atoms: C_28  and  N_30
                            x       y       z     vdW  Elec       q    Type
                         _______ _______ _______ _____ _____    ______ ____

>  <TORSDO>
F 2

$$$$
=
 OpenBabel11112416233D

 30 35  0  0  1  0  0  0  0  0999 V2000
  189.1050  175.4510  143.2720 C   0  0  2  0  0  3  0  0  0  0  0  0
  186.9860  176.4740  144.3510 C   0  0  0  0  0  0  0  0  0  0  0  0
  191.4070  176.7640  146.5290 N   0  0  0  0  0  0  0  0  0  0  0  0
  190.6080  175.7720  143.0910 C   0  0  2  0  0  3  0  0  0  0  0  0
  188.4820  175.5140  141.8930 C   0  0  0  0  0  2  0  0  0  0  0  0
  191.0200  173.3300  140.3660 O   0  0  0  0  0  0  0  0  0  0  0  0
  193.5750  175.7300  142.5270 C   0  0  1  0  0  3  0  0  0  0  0  0
  190.4640  174.1170  141.1800 C   0  0  0  0  0  0  0  0  0  0  0  0
  193.7180  175.8780  143.9580 N   0  0  0  0  0  0  0  0  0  0  0  0
  192.6350  176.5180  146.0980 N   0  0  0  0  0  0  0  0  0  0  0  0
  188.9690  174.3230  141.0750 C   0  0  2  0  0  3  0  0  0  0  0  0
  191.2440  174.7480  142.2310 N   0  0  0  0  0  0  0  0  0  0  0  0
  186.3710  177.1420  145.4130 C   0  0  0  0  0  3  0  0  0  0  0  0
  195.1010  175.9140  144.3870 C   0  0  0  0  0  2  0  0  0  0  0  0
  194.9800  175.5300  141.9830 C   0  0  0  0  0  2  0  0  0  0  0  0
  186.1840  176.0020  143.3190 O   0  0  0  0  0  1  0  0  0  0  0  0
  190.5660  176.4330  145.5290 C   0  0  0  0  0  0  0  0  0  0  0  0
  187.1190  177.5860  146.5020 C   0  0  0  0  0  3  0  0  0  0  0  0
  188.3900  176.2750  144.3500 C   0  0  0  0  0  0  0  0  0  0  0  0
  191.2580  175.9520  144.4450 C   0  0  0  0  0  0  0  0  0  0  0  0
  193.8160  176.8160  146.8880 C   0  0  0  0  0  1  0  0  0  0  0  0
  192.5860  176.0610  144.8240 C   0  0  0  0  0  0  0  0  0  0  0  0
  195.9300  175.8940  143.1150 C   0  0  0  0  0  2  0  0  0  0  0  0
  193.1640  173.4260  142.0170 O   0  0  0  0  0  0  0  0  0  0  0  0
  188.4920  177.3520  146.5440 C   0  0  0  0  0  3  0  0  0  0  0  0
  189.1240  176.6890  145.4880 C   0  0  0  0  0  0  0  0  0  0  0  0
  192.6740  174.5710  142.2200 C   0  0  0  0  0  0  0  0  0  0  0  0
  188.5450  174.4970  139.6210 C   0  0  0  0  0  2  0  0  0  0  0  0
  188.7460  173.1820  137.6970 C   0  0  0  0  0  1  0  0  0  0  0  0
  188.1910  173.2120  139.0390 N   0  0  0  0  0  2  0  0  0  0  0  0
  1  5  1  6  0  0  0
  1 19  1  0  0  0  0
  2 13  1  0  0  0  0
  4  1  1  0  0  0  0
  4 20  1  1  0  0  0
  6  8  2  0  0  0  0
  7 15  1  6  0  0  0
  7  9  1  0  0  0  0
  8 12  1  0  0  0  0
  9 14  1  0  0  0  0
  9 22  1  0  0  0  0
 10  3  1  0  0  0  0
 10 21  1  0  0  0  0
 11 28  1  6  0  0  0
 11  8  1  0  0  0  0
 11  5  1  0  0  0  0
 12  4  1  0  0  0  0
 13 18  2  0  0  0  0
 15 23  1  0  0  0  0
 16  2  1  0  0  0  0
 17  3  2  0  0  0  0
 18 25  1  0  0  0  0
 19  2  2  0  0  0  0
 19 26  1  0  0  0  0
 20 22  2  0  0  0  0
 20 17  1  0  0  0  0
 22 10  1  0  0  0  0
 23 14  1  0  0  0  0
 24 27  2  0  0  0  0
 26 17  1  0  0  0  0
 26 25  2  0  0  0  0
 27 12  1  0  0  0  0
 27  7  1  0  0  0  0
 29 30  1  0  0  0  0
 30 28  1  0  0  0  0
M  END
>  <MODEL>
9

>  <REMARK>
 VINA RESULT:      -7.4      2.396      3.259
  Name = 
  2 active torsions:
  status: ('A' for Active; 'I' for Inactive)
    1  A    between atoms: C_11  and  C_28
    2  A    between atoms: C_28  and  N_30
                            x       y       z     vdW  Elec       q    Type
                         _______ _______ _______ _____ _____    ______ ____

>  <TORSDO>
F 2

$$$$
