=
 OpenBabel11112417353D

 28 32  0  0  1  0  0  0  0  0999 V2000
  185.9390  178.7430  144.2140 C   0  0  0  0  0  0  0  0  0  0  0  0
  188.0250  177.0830  147.6010 O   0  0  0  0  0  1  0  0  0  0  0  0
  188.5730  174.4200  140.7300 O   0  0  0  0  0  0  0  0  0  0  0  0
  184.5700  177.6990  146.4290 C   0  0  0  0  0  3  0  0  0  0  0  0
  189.8960  175.6120  142.2610 N   0  0  0  0  0  0  0  0  0  0  0  0
  186.4920  179.2880  142.9330 C   0  0  0  0  0  2  0  0  0  0  0  0
  188.4420  175.0420  146.6880 O   0  0  0  0  0  1  0  0  0  0  0  0
  188.8770  176.3680  146.7610 C   0  0  0  0  0  0  0  0  0  0  0  0
  191.3790  176.5140  146.5750 C   0  0  0  0  0  0  0  0  0  0  0  0
  188.8800  177.0050  145.3600 C   0  0  1  0  0  3  0  0  0  0  0  0
  184.9270  177.2980  140.2880 O   0  0  0  0  0  0  0  0  0  0  0  0
  188.2350  177.0940  143.0730 C   0  0  1  0  0  3  0  0  0  0  0  0
  191.3350  176.8320  145.1080 C   0  0  0  0  0  2  0  0  0  0  0  0
  190.1970  176.4000  147.3290 O   0  0  0  0  0  0  0  0  0  0  0  0
  185.8750  177.7620  140.9730 C   0  0  0  0  0  0  0  0  0  0  0  0
  186.4290  177.5680  144.8540 C   0  0  0  0  0  0  0  0  0  0  0  0
  188.6860  175.3370  141.5860 C   0  0  0  0  0  0  0  0  0  0  0  0
  192.4930  176.4140  147.1500 O   0  0  0  0  0  0  0  0  0  0  0  0
  187.2340  177.1560  140.8220 C   0  0  0  0  0  2  0  0  0  0  0  0
  185.7080  177.0560  145.9430 C   0  0  0  0  0  3  0  0  0  0  0  0
  184.7960  179.3790  144.7160 C   0  0  0  0  0  3  0  0  0  0  0  0
  184.1210  178.8690  145.8230 C   0  0  0  0  0  3  0  0  0  0  0  0
  185.6290  178.8840  141.8290 N   0  0  0  0  0  2  0  0  0  0  0  0
  189.7390  176.7640  143.1220 C   0  0  1  0  0  3  0  0  0  0  0  0
  187.5830  176.2390  141.9850 C   0  0  2  0  0  3  0  0  0  0  0  0
  189.9980  176.3770  144.5620 C   0  0  2  0  0  3  0  0  0  0  0  0
  191.1420  175.1160  141.8540 N   0  0  0  0  0  1  0  0  0  0  0  0
  187.6710  176.7900  144.4560 C   0  0  2  0  0  3  0  0  0  0  0  0
  1 21  2  0  0  0  0
  1 16  1  0  0  0  0
  3 17  2  0  0  0  0
  5 24  1  0  0  0  0
  6  1  1  0  0  0  0
  7  8  1  0  0  0  0
  8 14  1  0  0  0  0
  8  2  1  0  0  0  0
  9 18  2  0  0  0  0
  9 14  1  0  0  0  0
 10  8  1  1  0  0  0
 11 15  2  0  0  0  0
 12 24  1  0  0  0  0
 12 28  1  0  0  0  0
 13  9  1  0  0  0  0
 15 23  1  0  0  0  0
 16 20  2  0  0  0  0
 17 25  1  0  0  0  0
 17  5  1  0  0  0  0
 19 15  1  0  0  0  0
 19 25  1  0  0  0  0
 20  4  1  0  0  0  0
 21 22  1  0  0  0  0
 22  4  2  0  0  0  0
 23  6  1  0  0  0  0
 24 26  1  0  0  0  0
 25 12  1  0  0  0  0
 26 13  1  0  0  0  0
 26 10  1  0  0  0  0
 27  5  1  0  0  0  0
 28 16  1  0  0  0  0
 28 10  1  0  0  0  0
M  END
>  <MODEL>
1

>  <REMARK>
 VINA RESULT:      -9.2      0.000      0.000
  Name = 
  0 active torsions:
  status: ('A' for Active; 'I' for Inactive)
                            x       y       z     vdW  Elec       q    Type
                         _______ _______ _______ _____ _____    ______ ____

>  <TORSDO>
F 0

$$$$
=
 OpenBabel11112417353D

 28 32  0  0  1  0  0  0  0  0999 V2000
  185.6910  177.2170  144.0610 C   0  0  0  0  0  0  0  0  0  0  0  0
  188.5790  175.4170  141.4150 O   0  0  0  0  0  1  0  0  0  0  0  0
  190.2310  178.0610  148.1150 O   0  0  0  0  0  0  0  0  0  0  0  0
  186.2510  178.2910  141.5290 C   0  0  0  0  0  3  0  0  0  0  0  0
  190.0250  175.9770  147.0530 N   0  0  0  0  0  0  0  0  0  0  0  0
  185.3050  176.8240  145.4530 C   0  0  0  0  0  2  0  0  0  0  0  0
  190.4300  176.3110  142.3880 O   0  0  0  0  0  1  0  0  0  0  0  0
  189.4910  175.2790  142.4600 C   0  0  0  0  0  0  0  0  0  0  0  0
  190.5220  173.1760  143.3730 C   0  0  0  0  0  0  0  0  0  0  0  0
  188.7500  175.3280  143.8070 C   0  0  1  0  0  3  0  0  0  0  0  0
  185.9410  179.7910  147.5010 O   0  0  0  0  0  0  0  0  0  0  0  0
  188.0580  176.4160  145.8060 C   0  0  1  0  0  3  0  0  0  0  0  0
  190.0270  173.4390  144.7660 C   0  0  0  0  0  2  0  0  0  0  0  0
  190.1640  174.0180  142.3050 O   0  0  0  0  0  0  0  0  0  0  0  0
  186.0780  178.5970  147.1290 C   0  0  0  0  0  0  0  0  0  0  0  0
  187.0310  177.2210  143.5790 C   0  0  0  0  0  0  0  0  0  0  0  0
  189.6020  177.2930  147.3400 C   0  0  0  0  0  0  0  0  0  0  0  0
  191.2120  172.1500  143.1490 O   0  0  0  0  0  0  0  0  0  0  0  0
  187.2280  177.8050  147.6650 C   0  0  0  0  0  2  0  0  0  0  0  0
  187.2840  177.7870  142.3200 C   0  0  0  0  0  3  0  0  0  0  0  0
  184.6640  177.7230  143.2520 C   0  0  0  0  0  3  0  0  0  0  0  0
  184.9380  178.2470  141.9900 C   0  0  0  0  0  3  0  0  0  0  0  0
  185.1000  178.0270  146.2510 N   0  0  0  0  0  2  0  0  0  0  0  0
  189.0640  175.3160  146.1960 C   0  0  1  0  0  3  0  0  0  0  0  0
  188.3480  177.6620  146.6440 C   0  0  2  0  0  3  0  0  0  0  0  0
  189.7160  174.9160  144.8910 C   0  0  2  0  0  3  0  0  0  0  0  0
  190.9910  175.2910  147.8010 N   0  0  0  0  0  1  0  0  0  0  0  0
  188.2430  176.6740  144.3140 C   0  0  2  0  0  3  0  0  0  0  0  0
  1  6  1  0  0  0  0
  2  8  1  0  0  0  0
  4 22  2  0  0  0  0
  4 20  1  0  0  0  0
  5 17  1  0  0  0  0
  5 27  1  0  0  0  0
  6 23  1  0  0  0  0
  7  8  1  0  0  0  0
  9 13  1  0  0  0  0
 10  8  1  6  0  0  0
 10 28  1  0  0  0  0
 10 26  1  0  0  0  0
 12 24  1  0  0  0  0
 12 25  1  0  0  0  0
 13 26  1  0  0  0  0
 14  8  1  0  0  0  0
 14  9  1  0  0  0  0
 15 11  2  0  0  0  0
 15 19  1  0  0  0  0
 16  1  1  0  0  0  0
 16 28  1  0  0  0  0
 17  3  2  0  0  0  0
 18  9  2  0  0  0  0
 20 16  2  0  0  0  0
 21  1  2  0  0  0  0
 22 21  1  0  0  0  0
 23 15  1  0  0  0  0
 24  5  1  0  0  0  0
 25 17  1  0  0  0  0
 25 19  1  0  0  0  0
 26 24  1  0  0  0  0
 28 12  1  0  0  0  0
M  END
>  <MODEL>
2

>  <REMARK>
 VINA RESULT:      -8.8      2.531      4.836
  Name = 
  0 active torsions:
  status: ('A' for Active; 'I' for Inactive)
                            x       y       z     vdW  Elec       q    Type
                         _______ _______ _______ _____ _____    ______ ____

>  <TORSDO>
F 0

$$$$
=
 OpenBabel11112417353D

 28 32  0  0  1  0  0  0  0  0999 V2000
  186.4470  177.4770  145.7090 C   0  0  0  0  0  0  0  0  0  0  0  0
  185.9060  177.2220  141.4400 O   0  0  0  0  0  1  0  0  0  0  0  0
  192.5140  177.5410  144.7340 O   0  0  0  0  0  0  0  0  0  0  0  0
  185.0720  179.4550  144.2700 C   0  0  0  0  0  3  0  0  0  0  0  0
  191.1940  175.9660  143.5970 N   0  0  0  0  0  0  0  0  0  0  0  0
  187.1910  176.5580  146.6280 C   0  0  0  0  0  2  0  0  0  0  0  0
  187.9650  177.9970  140.8610 O   0  0  0  0  0  1  0  0  0  0  0  0
  187.2440  176.8700  141.2640 C   0  0  0  0  0  0  0  0  0  0  0  0
  188.1910  174.7740  140.2510 C   0  0  0  0  0  0  0  0  0  0  0  0
  187.8130  176.3180  142.5820 C   0  0  1  0  0  3  0  0  0  0  0  0
  189.6910  178.6650  148.2750 O   0  0  0  0  0  0  0  0  0  0  0  0
  189.1010  176.4990  144.5740 C   0  0  1  0  0  3  0  0  0  0  0  0
  188.9890  174.4430  141.4790 C   0  0  0  0  0  2  0  0  0  0  0  0
  187.3120  175.8730  140.2320 O   0  0  0  0  0  0  0  0  0  0  0  0
  189.2730  177.7200  147.5580 C   0  0  0  0  0  0  0  0  0  0  0  0
  186.9170  177.8660  144.4220 C   0  0  0  0  0  0  0  0  0  0  0  0
  191.3910  177.0080  144.5290 C   0  0  0  0  0  0  0  0  0  0  0  0
  188.2630  174.0200  139.2480 O   0  0  0  0  0  0  0  0  0  0  0  0
  190.2520  176.9840  146.6980 C   0  0  0  0  0  2  0  0  0  0  0  0
  186.2240  178.8760  143.7380 C   0  0  0  0  0  3  0  0  0  0  0  0
  185.2860  178.0660  146.2280 C   0  0  0  0  0  3  0  0  0  0  0  0
  184.5950  179.0410  145.5110 C   0  0  0  0  0  3  0  0  0  0  0  0
  187.8920  177.3490  147.6320 N   0  0  0  0  0  2  0  0  0  0  0  0
  189.8210  175.5080  143.6390 C   0  0  1  0  0  3  0  0  0  0  0  0
  190.1490  177.3950  145.2370 C   0  0  2  0  0  3  0  0  0  0  0  0
  189.1630  175.7080  142.2910 C   0  0  2  0  0  3  0  0  0  0  0  0
  192.2380  175.2230  143.0300 N   0  0  0  0  0  1  0  0  0  0  0  0
  188.1310  177.2960  143.7090 C   0  0  2  0  0  3  0  0  0  0  0  0
  1 21  1  0  0  0  0
  1  6  1  0  0  0  0
  4 22  1  0  0  0  0
  5 24  1  0  0  0  0
  5 17  1  0  0  0  0
  6 23  1  0  0  0  0
  7  8  1  0  0  0  0
  8  2  1  0  0  0  0
  9 13  1  0  0  0  0
 10  8  1  6  0  0  0
 10 28  1  0  0  0  0
 12 25  1  0  0  0  0
 13 26  1  0  0  0  0
 14  9  1  0  0  0  0
 14  8  1  0  0  0  0
 15 23  1  0  0  0  0
 15 11  2  0  0  0  0
 16  1  2  0  0  0  0
 17  3  2  0  0  0  0
 17 25  1  0  0  0  0
 18  9  2  0  0  0  0
 19 15  1  0  0  0  0
 20  4  2  0  0  0  0
 20 16  1  0  0  0  0
 22 21  2  0  0  0  0
 24 12  1  0  0  0  0
 25 19  1  0  0  0  0
 26 10  1  0  0  0  0
 26 24  1  0  0  0  0
 27  5  1  0  0  0  0
 28 16  1  0  0  0  0
 28 12  1  0  0  0  0
M  END
>  <MODEL>
3

>  <REMARK>
 VINA RESULT:      -8.7      1.944      5.082
  Name = 
  0 active torsions:
  status: ('A' for Active; 'I' for Inactive)
                            x       y       z     vdW  Elec       q    Type
                         _______ _______ _______ _____ _____    ______ ____

>  <TORSDO>
F 0

$$$$
=
 OpenBabel11112417353D

 28 32  0  0  1  0  0  0  0  0999 V2000
  187.6870  176.3430  146.1600 C   0  0  0  0  0  0  0  0  0  0  0  0
  186.3070  176.8300  142.1060 O   0  0  0  0  0  1  0  0  0  0  0  0
  193.4380  176.7830  144.0420 O   0  0  0  0  0  0  0  0  0  0  0  0
  186.0570  178.4970  145.4000 C   0  0  0  0  0  3  0  0  0  0  0  0
  191.9150  175.3910  142.9220 N   0  0  0  0  0  0  0  0  0  0  0  0
  188.5970  175.3010  146.7340 C   0  0  0  0  0  2  0  0  0  0  0  0
  188.2110  177.7640  141.2830 O   0  0  0  0  0  1  0  0  0  0  0  0
  187.5820  176.5600  141.6110 C   0  0  0  0  0  0  0  0  0  0  0  0
  188.3040  174.7100  140.0700 C   0  0  0  0  0  0  0  0  0  0  0  0
  188.4010  175.8030  142.6700 C   0  0  1  0  0  3  0  0  0  0  0  0
  191.3800  177.1660  148.2120 O   0  0  0  0  0  0  0  0  0  0  0  0
  190.0600  175.6710  144.3690 C   0  0  1  0  0  3  0  0  0  0  0  0
  189.3300  174.1930  141.0380 C   0  0  0  0  0  2  0  0  0  0  0  0
  187.4410  175.7640  140.4220 O   0  0  0  0  0  0  0  0  0  0  0  0
  190.8250  176.3490  147.4330 C   0  0  0  0  0  0  0  0  0  0  0  0
  187.8930  176.9700  144.8980 C   0  0  0  0  0  0  0  0  0  0  0  0
  192.2960  176.2570  143.9690 C   0  0  0  0  0  0  0  0  0  0  0  0
  188.1730  174.1480  138.9540 O   0  0  0  0  0  0  0  0  0  0  0  0
  191.6110  175.8110  146.2780 C   0  0  0  0  0  2  0  0  0  0  0  0
  187.0790  178.0600  144.5570 C   0  0  0  0  0  3  0  0  0  0  0  0
  186.6530  176.7910  146.9950 C   0  0  0  0  0  3  0  0  0  0  0  0
  185.8360  177.8530  146.6140 C   0  0  0  0  0  3  0  0  0  0  0  0
  189.4850  175.9250  147.7080 N   0  0  0  0  0  2  0  0  0  0  0  0
  190.5780  174.8870  143.1490 C   0  0  1  0  0  3  0  0  0  0  0  0
  191.2210  176.4700  144.9640 C   0  0  2  0  0  3  0  0  0  0  0  0
  189.6650  175.3000  142.0150 C   0  0  2  0  0  3  0  0  0  0  0  0
  192.8240  174.7960  142.0360 N   0  0  0  0  0  1  0  0  0  0  0  0
  188.9390  176.5760  143.8700 C   0  0  2  0  0  3  0  0  0  0  0  0
  1  6  1  0  0  0  0
  1 21  1  0  0  0  0
  4 22  1  0  0  0  0
  5 24  1  0  0  0  0
  5 17  1  0  0  0  0
  6 23  1  0  0  0  0
  7  8  1  0  0  0  0
  8  2  1  0  0  0  0
  9 14  1  0  0  0  0
  9 13  1  0  0  0  0
 10  8  1  6  0  0  0
 10 28  1  0  0  0  0
 12 25  1  0  0  0  0
 13 26  1  0  0  0  0
 14  8  1  0  0  0  0
 15 23  1  0  0  0  0
 15 11  2  0  0  0  0
 16  1  2  0  0  0  0
 17  3  2  0  0  0  0
 17 25  1  0  0  0  0
 18  9  2  0  0  0  0
 19 15  1  0  0  0  0
 20 16  1  0  0  0  0
 20  4  2  0  0  0  0
 22 21  2  0  0  0  0
 24 12  1  0  0  0  0
 25 19  1  0  0  0  0
 26 10  1  0  0  0  0
 26 24  1  0  0  0  0
 27  5  1  0  0  0  0
 28 12  1  0  0  0  0
 28 16  1  0  0  0  0
M  END
>  <MODEL>
4

>  <REMARK>
 VINA RESULT:      -8.7      2.163      5.368
  Name = 
  0 active torsions:
  status: ('A' for Active; 'I' for Inactive)
                            x       y       z     vdW  Elec       q    Type
                         _______ _______ _______ _____ _____    ______ ____

>  <TORSDO>
F 0

$$$$
=
 OpenBabel11112417353D

 28 32  0  0  1  0  0  0  0  0999 V2000
  191.7840  175.4870  144.2210 C   0  0  0  0  0  0  0  0  0  0  0  0
  189.2000  174.6940  140.8630 O   0  0  0  0  0  1  0  0  0  0  0  0
  186.7790  176.9660  147.4650 O   0  0  0  0  0  0  0  0  0  0  0  0
  191.6290  172.9460  143.0390 C   0  0  0  0  0  3  0  0  0  0  0  0
  187.0250  177.8280  145.2940 N   0  0  0  0  0  0  0  0  0  0  0  0
  191.9550  176.7490  145.0090 C   0  0  0  0  0  2  0  0  0  0  0  0
  187.2790  174.4400  142.0540 O   0  0  0  0  0  1  0  0  0  0  0  0
  188.1480  175.3710  141.4780 C   0  0  0  0  0  0  0  0  0  0  0  0
  186.9000  177.3950  140.6650 C   0  0  0  0  0  0  0  0  0  0  0  0
  188.6990  176.3210  142.5540 C   0  0  1  0  0  3  0  0  0  0  0  0
  191.1910  175.8320  148.4700 O   0  0  0  0  0  0  0  0  0  0  0  0
  189.1630  176.9300  144.8060 C   0  0  1  0  0  3  0  0  0  0  0  0
  187.2120  178.1870  141.9030 C   0  0  0  0  0  2  0  0  0  0  0  0
  187.4410  176.1120  140.4690 O   0  0  0  0  0  0  0  0  0  0  0  0
  191.0490  176.4500  147.3830 C   0  0  0  0  0  0  0  0  0  0  0  0
  190.5240  174.9930  143.7760 C   0  0  0  0  0  0  0  0  0  0  0  0
  187.4690  177.1000  146.4200 C   0  0  0  0  0  0  0  0  0  0  0  0
  186.1960  177.9160  139.7630 O   0  0  0  0  0  0  0  0  0  0  0  0
  189.7980  177.2420  147.1660 C   0  0  0  0  0  2  0  0  0  0  0  0
  190.4740  173.7090  143.2130 C   0  0  0  0  0  3  0  0  0  0  0  0
  192.9350  174.7100  144.0360 C   0  0  0  0  0  3  0  0  0  0  0  0
  192.8620  173.4520  143.4400 C   0  0  0  0  0  3  0  0  0  0  0  0
  192.1080  176.4150  146.4200 N   0  0  0  0  0  2  0  0  0  0  0  0
  188.0610  177.8710  144.2850 C   0  0  1  0  0  3  0  0  0  0  0  0
  188.8230  176.5280  146.2420 C   0  0  2  0  0  3  0  0  0  0  0  0
  187.5740  177.2190  143.0090 C   0  0  2  0  0  3  0  0  0  0  0  0
  185.9330  178.7050  145.3180 N   0  0  0  0  0  1  0  0  0  0  0  0
  189.1980  175.7280  143.8680 C   0  0  2  0  0  3  0  0  0  0  0  0
  1  6  1  0  0  0  0
  2  8  1  0  0  0  0
  4 20  2  0  0  0  0
  4 22  1  0  0  0  0
  5 27  1  0  0  0  0
  5 17  1  0  0  0  0
  6 23  1  0  0  0  0
  8  7  1  0  0  0  0
  9 13  1  0  0  0  0
 10  8  1  6  0  0  0
 10 26  1  0  0  0  0
 10 28  1  0  0  0  0
 12 25  1  0  0  0  0
 13 26  1  0  0  0  0
 14  9  1  0  0  0  0
 14  8  1  0  0  0  0
 15 11  2  0  0  0  0
 16 28  1  0  0  0  0
 16  1  2  0  0  0  0
 17  3  2  0  0  0  0
 18  9  2  0  0  0  0
 19 15  1  0  0  0  0
 20 16  1  0  0  0  0
 21  1  1  0  0  0  0
 22 21  2  0  0  0  0
 23 15  1  0  0  0  0
 24 12  1  0  0  0  0
 24  5  1  0  0  0  0
 25 17  1  0  0  0  0
 25 19  1  0  0  0  0
 26 24  1  0  0  0  0
 28 12  1  0  0  0  0
M  END
>  <MODEL>
5

>  <REMARK>
 VINA RESULT:      -8.5      2.207      6.755
  Name = 
  0 active torsions:
  status: ('A' for Active; 'I' for Inactive)
                            x       y       z     vdW  Elec       q    Type
                         _______ _______ _______ _____ _____    ______ ____

>  <TORSDO>
F 0

$$$$
=
 OpenBabel11112417353D

 28 32  0  0  1  0  0  0  0  0999 V2000
  187.8470  176.3170  144.0900 C   0  0  0  0  0  0  0  0  0  0  0  0
  190.2410  177.3750  147.5150 O   0  0  0  0  0  1  0  0  0  0  0  0
  191.2840  171.2560  143.5070 O   0  0  0  0  0  0  0  0  0  0  0  0
  186.7270  176.6070  146.6470 C   0  0  0  0  0  3  0  0  0  0  0  0
  192.3460  173.3180  143.8690 N   0  0  0  0  0  0  0  0  0  0  0  0
  188.2730  176.0650  142.6770 C   0  0  0  0  0  2  0  0  0  0  0  0
  191.0570  175.2930  147.9290 O   0  0  0  0  0  1  0  0  0  0  0  0
  191.2160  176.4460  147.1560 C   0  0  0  0  0  0  0  0  0  0  0  0
  193.6360  176.8470  146.6100 C   0  0  0  0  0  0  0  0  0  0  0  0
  191.0840  176.1070  145.6610 C   0  0  1  0  0  3  0  0  0  0  0  0
  187.1300  172.6700  141.9200 O   0  0  0  0  0  0  0  0  0  0  0  0
  190.4240  174.7040  143.8570 C   0  0  1  0  0  3  0  0  0  0  0  0
  193.5220  176.2100  145.2550 C   0  0  0  0  0  2  0  0  0  0  0  0
  192.5040  177.0210  147.4280 O   0  0  0  0  0  0  0  0  0  0  0  0
  187.9670  173.5950  142.0790 C   0  0  0  0  0  0  0  0  0  0  0  0
  188.5670  175.8570  145.2310 C   0  0  0  0  0  0  0  0  0  0  0  0
  191.2130  172.5060  143.6410 C   0  0  0  0  0  0  0  0  0  0  0  0
  194.7490  177.2900  146.9900 O   0  0  0  0  0  0  0  0  0  0  0  0
  189.4210  173.2450  142.1440 C   0  0  0  0  0  2  0  0  0  0  0  0
  187.9700  175.9930  146.4930 C   0  0  0  0  0  3  0  0  0  0  0  0
  186.6020  176.9360  144.2620 C   0  0  0  0  0  3  0  0  0  0  0  0
  186.0480  177.0910  145.5320 C   0  0  0  0  0  3  0  0  0  0  0  0
  187.5050  174.9490  142.1370 N   0  0  0  0  0  2  0  0  0  0  0  0
  191.9640  174.7140  143.9040 C   0  0  1  0  0  3  0  0  0  0  0  0
  189.9520  173.2780  143.5690 C   0  0  2  0  0  3  0  0  0  0  0  0
  192.3010  175.3140  145.2510 C   0  0  2  0  0  3  0  0  0  0  0  0
  193.6640  172.8840  143.6800 N   0  0  0  0  0  1  0  0  0  0  0  0
  189.9390  175.2050  145.2140 C   0  0  2  0  0  3  0  0  0  0  0  0
  1 21  2  0  0  0  0
  1 16  1  0  0  0  0
  3 17  2  0  0  0  0
  5 24  1  0  0  0  0
  6  1  1  0  0  0  0
  8 14  1  0  0  0  0
  8  2  1  0  0  0  0
  8  7  1  0  0  0  0
  9 18  2  0  0  0  0
  9 14  1  0  0  0  0
 10  8  1  1  0  0  0
 11 15  2  0  0  0  0
 12 24  1  0  0  0  0
 12 28  1  0  0  0  0
 13  9  1  0  0  0  0
 15 23  1  0  0  0  0
 15 19  1  0  0  0  0
 16 20  2  0  0  0  0
 17  5  1  0  0  0  0
 19 25  1  0  0  0  0
 20  4  1  0  0  0  0
 21 22  1  0  0  0  0
 22  4  2  0  0  0  0
 23  6  1  0  0  0  0
 24 26  1  0  0  0  0
 25 17  1  0  0  0  0
 25 12  1  0  0  0  0
 26 13  1  0  0  0  0
 26 10  1  0  0  0  0
 27  5  1  0  0  0  0
 28 16  1  0  0  0  0
 28 10  1  0  0  0  0
M  END
>  <MODEL>
6

>  <REMARK>
 VINA RESULT:      -8.2      2.271      3.404
  Name = 
  0 active torsions:
  status: ('A' for Active; 'I' for Inactive)
                            x       y       z     vdW  Elec       q    Type
                         _______ _______ _______ _____ _____    ______ ____

>  <TORSDO>
F 0

$$$$
=
 OpenBabel11112417353D

 28 32  0  0  1  0  0  0  0  0999 V2000
  190.0170  173.3340  143.6430 C   0  0  0  0  0  0  0  0  0  0  0  0
  189.6370  176.0730  146.9490 O   0  0  0  0  0  1  0  0  0  0  0  0
  187.3350  177.5680  140.0880 O   0  0  0  0  0  0  0  0  0  0  0  0
  192.2570  174.3040  145.0260 C   0  0  0  0  0  3  0  0  0  0  0  0
  186.3990  177.0840  142.1870 N   0  0  0  0  0  0  0  0  0  0  0  0
  188.9530  172.7590  142.7590 C   0  0  0  0  0  2  0  0  0  0  0  0
  189.3790  177.9610  145.7070 O   0  0  0  0  0  1  0  0  0  0  0  0
  188.7220  176.8470  146.2380 C   0  0  0  0  0  0  0  0  0  0  0  0
  186.3410  177.3930  146.8270 C   0  0  0  0  0  0  0  0  0  0  0  0
  188.0990  176.0090  145.1080 C   0  0  1  0  0  3  0  0  0  0  0  0
  189.8960  173.7360  139.3590 O   0  0  0  0  0  0  0  0  0  0  0  0
  187.8790  175.3500  142.8340 C   0  0  1  0  0  3  0  0  0  0  0  0
  185.8060  176.8310  145.5410 C   0  0  0  0  0  2  0  0  0  0  0  0
  187.7060  177.2920  147.1510 O   0  0  0  0  0  0  0  0  0  0  0  0
  189.1680  173.6870  140.3840 C   0  0  0  0  0  0  0  0  0  0  0  0
  190.0430  174.6900  144.0760 C   0  0  0  0  0  0  0  0  0  0  0  0
  187.3310  176.8830  141.1440 C   0  0  0  0  0  0  0  0  0  0  0  0
  185.5430  177.9040  147.6530 O   0  0  0  0  0  0  0  0  0  0  0  0
  188.0030  174.6220  140.4830 C   0  0  0  0  0  2  0  0  0  0  0  0
  191.1870  175.1530  144.7430 C   0  0  0  0  0  3  0  0  0  0  0  0
  191.0980  172.4920  143.9380 C   0  0  0  0  0  3  0  0  0  0  0  0
  192.2070  172.9690  144.6340 C   0  0  0  0  0  3  0  0  0  0  0  0
  189.4460  172.7050  141.3880 N   0  0  0  0  0  2  0  0  0  0  0  0
  186.5930  176.1000  143.2300 C   0  0  1  0  0  3  0  0  0  0  0  0
  188.2830  175.7840  141.4240 C   0  0  2  0  0  3  0  0  0  0  0  0
  186.9370  176.7840  144.5350 C   0  0  2  0  0  3  0  0  0  0  0  0
  185.2270  177.8390  142.0450 N   0  0  0  0  0  1  0  0  0  0  0  0
  188.9380  175.7110  143.8700 C   0  0  2  0  0  3  0  0  0  0  0  0
  1 21  2  0  0  0  0
  1 16  1  0  0  0  0
  3 17  2  0  0  0  0
  5 24  1  0  0  0  0
  6  1  1  0  0  0  0
  7  8  1  0  0  0  0
  8  2  1  0  0  0  0
  8 14  1  0  0  0  0
  9 14  1  0  0  0  0
  9 18  2  0  0  0  0
 10  8  1  1  0  0  0
 11 15  2  0  0  0  0
 12 24  1  0  0  0  0
 12 28  1  0  0  0  0
 13  9  1  0  0  0  0
 15 19  1  0  0  0  0
 15 23  1  0  0  0  0
 16 20  2  0  0  0  0
 17 25  1  0  0  0  0
 17  5  1  0  0  0  0
 19 25  1  0  0  0  0
 20  4  1  0  0  0  0
 21 22  1  0  0  0  0
 22  4  2  0  0  0  0
 23  6  1  0  0  0  0
 24 26  1  0  0  0  0
 25 12  1  0  0  0  0
 26 10  1  0  0  0  0
 26 13  1  0  0  0  0
 27  5  1  0  0  0  0
 28 16  1  0  0  0  0
 28 10  1  0  0  0  0
M  END
>  <MODEL>
7

>  <REMARK>
 VINA RESULT:      -8.2      2.060      5.250
  Name = 
  0 active torsions:
  status: ('A' for Active; 'I' for Inactive)
                            x       y       z     vdW  Elec       q    Type
                         _______ _______ _______ _____ _____    ______ ____

>  <TORSDO>
F 0

$$$$
=
 OpenBabel11112417353D

 28 32  0  0  1  0  0  0  0  0999 V2000
  188.4770  175.7100  146.4170 C   0  0  0  0  0  0  0  0  0  0  0  0
  186.6880  175.5760  142.4990 O   0  0  0  0  0  1  0  0  0  0  0  0
  193.9650  176.0780  143.6770 O   0  0  0  0  0  0  0  0  0  0  0  0
  186.6690  177.6720  145.5480 C   0  0  0  0  0  3  0  0  0  0  0  0
  192.4160  174.4860  142.9160 N   0  0  0  0  0  0  0  0  0  0  0  0
  189.4930  174.7950  147.0290 C   0  0  0  0  0  2  0  0  0  0  0  0
  188.4500  176.4610  141.3660 O   0  0  0  0  0  1  0  0  0  0  0  0
  187.9210  175.2900  141.9150 C   0  0  0  0  0  0  0  0  0  0  0  0
  188.5880  173.2750  140.5700 C   0  0  0  0  0  0  0  0  0  0  0  0
  188.8780  174.7200  142.9760 C   0  0  1  0  0  3  0  0  0  0  0  0
  192.3030  176.9540  147.9480 O   0  0  0  0  0  0  0  0  0  0  0  0
  190.6980  174.8910  144.4970 C   0  0  1  0  0  3  0  0  0  0  0  0
  189.7280  172.9380  141.4870 C   0  0  0  0  0  2  0  0  0  0  0  0
  187.7080  174.3320  140.8650 O   0  0  0  0  0  0  0  0  0  0  0  0
  191.7190  176.0160  147.3460 C   0  0  0  0  0  0  0  0  0  0  0  0
  188.5260  176.1630  145.0680 C   0  0  0  0  0  0  0  0  0  0  0  0
  192.8500  175.5030  143.7930 C   0  0  0  0  0  0  0  0  0  0  0  0
  188.3790  172.5590  139.5580 O   0  0  0  0  0  0  0  0  0  0  0  0
  192.4170  175.3540  146.2000 C   0  0  0  0  0  2  0  0  0  0  0  0
  187.6270  177.1630  144.6700 C   0  0  0  0  0  3  0  0  0  0  0  0
  187.5070  176.2280  147.2860 C   0  0  0  0  0  3  0  0  0  0  0  0
  186.6010  177.1950  146.8540 C   0  0  0  0  0  3  0  0  0  0  0  0
  190.4370  175.5820  147.8130 N   0  0  0  0  0  2  0  0  0  0  0  0
  191.1360  173.9660  143.3450 C   0  0  1  0  0  3  0  0  0  0  0  0
  191.8670  175.8100  144.8570 C   0  0  2  0  0  3  0  0  0  0  0  0
  190.0970  174.1810  142.2670 C   0  0  2  0  0  3  0  0  0  0  0  0
  193.2650  173.8100  142.0300 N   0  0  0  0  0  1  0  0  0  0  0  0
  189.4870  175.6720  143.9990 C   0  0  2  0  0  3  0  0  0  0  0  0
  1  6  1  0  0  0  0
  1 21  1  0  0  0  0
  3 17  2  0  0  0  0
  4 22  1  0  0  0  0
  5 24  1  0  0  0  0
  5 17  1  0  0  0  0
  6 23  1  0  0  0  0
  7  8  1  0  0  0  0
  8  2  1  0  0  0  0
  9 14  1  0  0  0  0
  9 13  1  0  0  0  0
 10  8  1  6  0  0  0
 10 28  1  0  0  0  0
 12 25  1  0  0  0  0
 13 26  1  0  0  0  0
 14  8  1  0  0  0  0
 15 23  1  0  0  0  0
 15 11  2  0  0  0  0
 16  1  2  0  0  0  0
 17 25  1  0  0  0  0
 18  9  2  0  0  0  0
 19 15  1  0  0  0  0
 20 16  1  0  0  0  0
 20  4  2  0  0  0  0
 22 21  2  0  0  0  0
 24 12  1  0  0  0  0
 25 19  1  0  0  0  0
 26 10  1  0  0  0  0
 26 24  1  0  0  0  0
 27  5  1  0  0  0  0
 28 12  1  0  0  0  0
 28 16  1  0  0  0  0
M  END
>  <MODEL>
8

>  <REMARK>
 VINA RESULT:      -8.1      2.648      5.677
  Name = 
  0 active torsions:
  status: ('A' for Active; 'I' for Inactive)
                            x       y       z     vdW  Elec       q    Type
                         _______ _______ _______ _____ _____    ______ ____

>  <TORSDO>
F 0

$$$$
=
 OpenBabel11112417353D

 28 32  0  0  1  0  0  0  0  0999 V2000
  192.0150  175.6350  142.7070 C   0  0  0  0  0  0  0  0  0  0  0  0
  188.2600  175.6430  140.5920 O   0  0  0  0  0  1  0  0  0  0  0  0
  188.8840  174.4220  147.8530 O   0  0  0  0  0  0  0  0  0  0  0  0
  191.4820  173.8240  140.6310 C   0  0  0  0  0  3  0  0  0  0  0  0
  188.1070  176.1100  146.4180 N   0  0  0  0  0  0  0  0  0  0  0  0
  192.4540  176.4780  143.8650 C   0  0  0  0  0  2  0  0  0  0  0  0
  187.0750  174.4720  142.1420 O   0  0  0  0  0  1  0  0  0  0  0  0
  187.5540  175.7370  141.7900 C   0  0  0  0  0  0  0  0  0  0  0  0
  185.9770  177.5450  142.5410 C   0  0  0  0  0  0  0  0  0  0  0  0
  188.4750  176.2820  142.8950 C   0  0  1  0  0  3  0  0  0  0  0  0
  193.3390  174.1000  146.5040 O   0  0  0  0  0  0  0  0  0  0  0  0
  189.8530  176.0350  144.8180 C   0  0  1  0  0  3  0  0  0  0  0  0
  186.7630  177.8270  143.7890 C   0  0  0  0  0  2  0  0  0  0  0  0
  186.4400  176.6220  141.5850 O   0  0  0  0  0  0  0  0  0  0  0  0
  192.7020  175.0440  145.9700 C   0  0  0  0  0  0  0  0  0  0  0  0
  190.7150  175.0680  142.5850 C   0  0  0  0  0  0  0  0  0  0  0  0
  189.0370  175.1260  146.8210 C   0  0  0  0  0  0  0  0  0  0  0  0
  184.9230  178.1930  142.3170 O   0  0  0  0  0  0  0  0  0  0  0  0
  191.4460  175.5240  146.6270 C   0  0  0  0  0  2  0  0  0  0  0  0
  190.4850  174.1460  141.5530 C   0  0  0  0  0  3  0  0  0  0  0  0
  193.0050  175.3050  141.7710 C   0  0  0  0  0  3  0  0  0  0  0  0
  192.7390  174.4130  140.7330 C   0  0  0  0  0  3  0  0  0  0  0  0
  193.2290  175.6570  144.7880 N   0  0  0  0  0  2  0  0  0  0  0  0
  188.5880  176.8050  145.2440 C   0  0  1  0  0  3  0  0  0  0  0  0
  190.2000  175.0230  145.9110 C   0  0  2  0  0  3  0  0  0  0  0  0
  187.6220  176.6190  144.0940 C   0  0  2  0  0  3  0  0  0  0  0  0
  187.0950  176.6090  147.2490 N   0  0  0  0  0  1  0  0  0  0  0  0
  189.5300  175.3560  143.4910 C   0  0  2  0  0  3  0  0  0  0  0  0
  1  6  1  0  0  0  0
  2  8  1  0  0  0  0
  4 22  2  0  0  0  0
  4 20  1  0  0  0  0
  5 17  1  0  0  0  0
  5 27  1  0  0  0  0
  6 23  1  0  0  0  0
  8  7  1  0  0  0  0
  9 13  1  0  0  0  0
 10  8  1  6  0  0  0
 10 28  1  0  0  0  0
 10 26  1  0  0  0  0
 12 24  1  0  0  0  0
 12 25  1  0  0  0  0
 13 26  1  0  0  0  0
 14  8  1  0  0  0  0
 14  9  1  0  0  0  0
 15 11  2  0  0  0  0
 15 19  1  0  0  0  0
 16  1  1  0  0  0  0
 16 28  1  0  0  0  0
 17  3  2  0  0  0  0
 18  9  2  0  0  0  0
 20 16  2  0  0  0  0
 21  1  2  0  0  0  0
 22 21  1  0  0  0  0
 23 15  1  0  0  0  0
 24  5  1  0  0  0  0
 25 19  1  0  0  0  0
 25 17  1  0  0  0  0
 26 24  1  0  0  0  0
 28 12  1  0  0  0  0
M  END
>  <MODEL>
9

>  <REMARK>
 VINA RESULT:      -7.8      2.474      6.857
  Name = 
  0 active torsions:
  status: ('A' for Active; 'I' for Inactive)
                            x       y       z     vdW  Elec       q    Type
                         _______ _______ _______ _____ _____    ______ ____

>  <TORSDO>
F 0

$$$$
