=
 OpenBabel11112416573D

 31 35  0  0  0  0  0  0  0  0999 V2000
  185.0250  178.0020  146.8040 C   0  0  0  0  0  0  0  0  0  0  0  0
  186.8880  177.6500  143.5510 C   0  0  0  0  0  0  0  0  0  0  0  0
  185.9410  177.8180  142.4990 C   0  0  0  0  0  0  0  0  0  0  0  0
  191.5270  176.8100  145.8880 O   0  0  0  0  0  0  0  0  0  0  0  0
  191.6960  176.7740  144.6400 C   0  0  0  0  0  0  0  0  0  0  0  0
  183.6820  178.2280  141.6650 C   0  0  0  0  0  0  0  0  0  0  0  0
  186.5800  177.7110  144.9430 C   0  0  0  0  0  0  0  0  0  0  0  0
  186.0620  177.8160  147.7170 C   0  0  0  0  0  3  0  0  0  0  0  0
  184.5760  178.0690  142.7270 C   0  0  0  0  0  3  0  0  0  0  0  0
  189.2230  177.2240  144.1570 C   0  0  0  0  0  0  0  0  0  0  0  0
  183.7340  178.2400  147.2570 O   0  0  0  0  0  1  0  0  0  0  0  0
  187.6890  177.4920  140.8910 N   0  0  0  0  0  0  0  0  0  0  0  0
  182.3400  178.4740  141.9190 O   0  0  0  0  0  1  0  0  0  0  0  0
  188.8900  177.2910  145.4710 N   0  0  0  0  0  0  0  0  0  0  0  0
  188.2360  177.4010  143.1780 C   0  0  0  0  0  0  0  0  0  0  0  0
  190.5790  176.9750  143.7610 N   0  0  0  0  0  2  0  0  0  0  0  0
  185.2840  177.9500  145.4330 C   0  0  0  0  0  3  0  0  0  0  0  0
  184.1390  178.1400  140.3500 C   0  0  0  0  0  3  0  0  0  0  0  0
  187.6220  177.5240  145.8860 C   0  0  0  0  0  0  0  0  0  0  0  0
  187.3580  177.5780  147.2580 C   0  0  0  0  0  3  0  0  0  0  0  0
  188.5810  177.3330  141.8660 N   0  0  0  0  0  0  0  0  0  0  0  0
  186.3850  177.7330  141.1580 C   0  0  0  0  0  0  0  0  0  0  0  0
  185.4870  177.8930  140.0980 C   0  0  0  0  0  3  0  0  0  0  0  0
  195.5210  176.0290  142.8190 C   0  0  0  0  0  0  0  0  0  0  0  0
  193.1160  176.2070  142.6950 C   0  0  0  0  0  3  0  0  0  0  0  0
  194.3110  176.9810  146.5220 Cl  0  0  0  0  0  0  0  0  0  0  0  0
  196.7130  175.7900  142.2230 F   0  0  0  0  0  0  0  0  0  0  0  0
  194.3430  175.9600  142.0770 C   0  0  0  0  0  3  0  0  0  0  0  0
  194.2460  176.5940  144.8080 C   0  0  0  0  0  0  0  0  0  0  0  0
  193.0410  176.5260  144.0600 C   0  0  0  0  0  0  0  0  0  0  0  0
  195.4700  176.3440  144.1770 C   0  0  0  0  0  3  0  0  0  0  0  0
  1 11  1  0  0  0  0
  1  8  1  0  0  0  0
  2  7  1  0  0  0  0
  3  9  1  0  0  0  0
  3  2  2  0  0  0  0
  5  4  2  0  0  0  0
  6 13  1  0  0  0  0
  6  9  2  0  0  0  0
  7 17  1  0  0  0  0
  7 19  2  0  0  0  0
 10 14  2  0  0  0  0
 12 22  2  0  0  0  0
 12 21  1  0  0  0  0
 14 19  1  0  0  0  0
 15  2  1  0  0  0  0
 15 10  1  0  0  0  0
 16 10  1  0  0  0  0
 16  5  1  0  0  0  0
 17  1  2  0  0  0  0
 18  6  1  0  0  0  0
 19 20  1  0  0  0  0
 20  8  2  0  0  0  0
 21 15  2  0  0  0  0
 22  3  1  0  0  0  0
 23 18  2  0  0  0  0
 23 22  1  0  0  0  0
 24 31  1  0  0  0  0
 25 30  2  0  0  0  0
 27 24  1  0  0  0  0
 28 25  1  0  0  0  0
 28 24  2  0  0  0  0
 29 26  1  0  0  0  0
 30  5  1  0  0  0  0
 30 29  1  0  0  0  0
 31 29  2  0  0  0  0
M  END
>  <MODEL>
1

>  <REMARK>
 VINA RESULT:     -10.0      0.000      0.000
  Name = 
  1 active torsions:
  status: ('A' for Active; 'I' for Inactive)
    1  A    between atoms: C_5  and  C_30
                            x       y       z     vdW  Elec       q    Type
                         _______ _______ _______ _____ _____    ______ ____

>  <TORSDO>
F 1

$$$$
=
 OpenBabel11112416573D

 31 35  0  0  0  0  0  0  0  0999 V2000
  184.9750  178.1280  146.4730 C   0  0  0  0  0  0  0  0  0  0  0  0
  187.4310  177.0330  143.8370 C   0  0  0  0  0  0  0  0  0  0  0  0
  186.8180  177.2530  142.5690 C   0  0  0  0  0  0  0  0  0  0  0  0
  191.0920  175.6020  147.3340 O   0  0  0  0  0  0  0  0  0  0  0  0
  191.5390  175.3840  146.1770 C   0  0  0  0  0  0  0  0  0  0  0  0
  184.9640  177.9880  141.1580 C   0  0  0  0  0  0  0  0  0  0  0  0
  186.8240  177.3200  145.0960 C   0  0  0  0  0  0  0  0  0  0  0  0
  185.7020  177.8570  147.6310 C   0  0  0  0  0  3  0  0  0  0  0  0
  185.5260  177.7890  142.4220 C   0  0  0  0  0  3  0  0  0  0  0  0
  189.4080  176.2410  145.0480 C   0  0  0  0  0  0  0  0  0  0  0  0
  183.6980  178.6630  146.5630 O   0  0  0  0  0  1  0  0  0  0  0  0
  188.7830  176.4050  141.4880 N   0  0  0  0  0  0  0  0  0  0  0  0
  183.6870  178.5170  141.0430 O   0  0  0  0  0  1  0  0  0  0  0  0
  188.7970  176.5290  146.2250 N   0  0  0  0  0  0  0  0  0  0  0  0
  188.7420  176.4860  143.8390 C   0  0  0  0  0  0  0  0  0  0  0  0
  190.7320  175.6890  145.0290 N   0  0  0  0  0  2  0  0  0  0  0  0
  185.5320  177.8620  145.2200 C   0  0  0  0  0  3  0  0  0  0  0  0
  185.6880  177.6550  140.0130 C   0  0  0  0  0  3  0  0  0  0  0  0
  187.5480  177.0510  146.2850 C   0  0  0  0  0  0  0  0  0  0  0  0
  186.9860  177.3190  147.5360 C   0  0  0  0  0  3  0  0  0  0  0  0
  189.3630  176.1950  142.6670 N   0  0  0  0  0  0  0  0  0  0  0  0
  187.5370  176.9230  141.3940 C   0  0  0  0  0  0  0  0  0  0  0  0
  186.9710  177.1240  140.1320 C   0  0  0  0  0  3  0  0  0  0  0  0
  195.3990  173.5940  145.5550 C   0  0  0  0  0  0  0  0  0  0  0  0
  192.9880  173.4930  145.5090 C   0  0  0  0  0  3  0  0  0  0  0  0
  194.1400  177.1820  146.8270 Cl  0  0  0  0  0  0  0  0  0  0  0  0
  196.6030  173.0070  145.3510 F   0  0  0  0  0  0  0  0  0  0  0  0
  194.2270  172.8860  145.2980 C   0  0  0  0  0  3  0  0  0  0  0  0
  194.0960  175.5260  146.2380 C   0  0  0  0  0  0  0  0  0  0  0  0
  192.8950  174.8130  145.9790 C   0  0  0  0  0  0  0  0  0  0  0  0
  195.3320  174.9060  146.0220 C   0  0  0  0  0  3  0  0  0  0  0  0
  1 11  1  0  0  0  0
  1  8  1  0  0  0  0
  2 15  1  0  0  0  0
  2  7  1  0  0  0  0
  3  2  2  0  0  0  0
  5  4  2  0  0  0  0
  6  9  2  0  0  0  0
  7 17  1  0  0  0  0
  7 19  2  0  0  0  0
  9  3  1  0  0  0  0
 10 14  2  0  0  0  0
 12 21  1  0  0  0  0
 13  6  1  0  0  0  0
 14 19  1  0  0  0  0
 15 10  1  0  0  0  0
 16 10  1  0  0  0  0
 16  5  1  0  0  0  0
 17  1  2  0  0  0  0
 18 23  2  0  0  0  0
 18  6  1  0  0  0  0
 19 20  1  0  0  0  0
 20  8  2  0  0  0  0
 21 15  2  0  0  0  0
 22 12  2  0  0  0  0
 22  3  1  0  0  0  0
 23 22  1  0  0  0  0
 24 31  1  0  0  0  0
 25 30  2  0  0  0  0
 27 24  1  0  0  0  0
 28 25  1  0  0  0  0
 28 24  2  0  0  0  0
 29 26  1  0  0  0  0
 30  5  1  0  0  0  0
 30 29  1  0  0  0  0
 31 29  2  0  0  0  0
M  END
>  <MODEL>
2

>  <REMARK>
 VINA RESULT:     -10.0      1.841      1.965
  Name = 
  1 active torsions:
  status: ('A' for Active; 'I' for Inactive)
    1  A    between atoms: C_5  and  C_30
                            x       y       z     vdW  Elec       q    Type
                         _______ _______ _______ _____ _____    ______ ____

>  <TORSDO>
F 1

$$$$
=
 OpenBabel11112416573D

 31 35  0  0  0  0  0  0  0  0999 V2000
  186.0010  177.4700  141.1670 C   0  0  0  0  0  0  0  0  0  0  0  0
  187.6150  177.0600  144.5440 C   0  0  0  0  0  0  0  0  0  0  0  0
  186.6920  177.5460  145.5170 C   0  0  0  0  0  0  0  0  0  0  0  0
  192.0260  174.9730  142.5800 O   0  0  0  0  0  0  0  0  0  0  0  0
  192.1370  175.0330  143.8330 C   0  0  0  0  0  0  0  0  0  0  0  0
  184.5560  178.5320  146.1720 C   0  0  0  0  0  0  0  0  0  0  0  0
  187.3810  177.0410  143.1370 C   0  0  0  0  0  0  0  0  0  0  0  0
  187.0020  176.9630  140.3400 C   0  0  0  0  0  3  0  0  0  0  0  0
  185.4290  178.0660  145.1860 C   0  0  0  0  0  3  0  0  0  0  0  0
  189.8140  176.0680  144.1230 C   0  0  0  0  0  0  0  0  0  0  0  0
  184.8160  177.9380  140.6180 O   0  0  0  0  0  1  0  0  0  0  0  0
  188.2610  177.0140  147.2500 N   0  0  0  0  0  0  0  0  0  0  0  0
  183.3150  179.0410  145.8160 O   0  0  0  0  0  1  0  0  0  0  0  0
  189.5530  176.0660  142.7910 N   0  0  0  0  0  0  0  0  0  0  0  0
  188.8570  176.5620  145.0190 C   0  0  0  0  0  0  0  0  0  0  0  0
  191.0630  175.5680  144.6210 N   0  0  0  0  0  2  0  0  0  0  0  0
  186.1910  177.5070  142.5500 C   0  0  0  0  0  3  0  0  0  0  0  0
  184.9320  178.4840  147.5140 C   0  0  0  0  0  3  0  0  0  0  0  0
  188.3870  176.5290  142.2800 C   0  0  0  0  0  0  0  0  0  0  0  0
  188.1920  176.4940  140.8960 C   0  0  0  0  0  3  0  0  0  0  0  0
  189.1290  176.5590  146.3500 N   0  0  0  0  0  0  0  0  0  0  0  0
  187.0550  177.5060  146.8850 C   0  0  0  0  0  0  0  0  0  0  0  0
  186.1790  177.9720  147.8690 C   0  0  0  0  0  3  0  0  0  0  0  0
  195.6630  173.5030  145.7630 C   0  0  0  0  0  0  0  0  0  0  0  0
  193.6190  173.1750  144.5210 C   0  0  0  0  0  3  0  0  0  0  0  0
  194.1230  177.1660  145.2230 Cl  0  0  0  0  0  0  0  0  0  0  0  0
  196.7660  172.9960  146.3640 F   0  0  0  0  0  0  0  0  0  0  0  0
  194.7550  172.6490  145.1390 C   0  0  0  0  0  3  0  0  0  0  0  0
  194.3000  175.4180  145.1510 C   0  0  0  0  0  0  0  0  0  0  0  0
  193.3690  174.5570  144.5130 C   0  0  0  0  0  0  0  0  0  0  0  0
  195.4350  174.8790  145.7670 C   0  0  0  0  0  3  0  0  0  0  0  0
  1 17  1  0  0  0  0
  2 15  2  0  0  0  0
  2  3  1  0  0  0  0
  3 22  1  0  0  0  0
  4  5  2  0  0  0  0
  5 30  1  0  0  0  0
  5 16  1  0  0  0  0
  6 18  2  0  0  0  0
  7  2  1  0  0  0  0
  8 20  1  0  0  0  0
  8  1  2  0  0  0  0
  9  3  2  0  0  0  0
  9  6  1  0  0  0  0
 10 16  1  0  0  0  0
 10 15  1  0  0  0  0
 11  1  1  0  0  0  0
 13  6  1  0  0  0  0
 14 10  2  0  0  0  0
 15 21  1  0  0  0  0
 17  7  2  0  0  0  0
 18 23  1  0  0  0  0
 19 14  1  0  0  0  0
 19  7  1  0  0  0  0
 20 19  2  0  0  0  0
 21 12  2  0  0  0  0
 22 12  1  0  0  0  0
 22 23  2  0  0  0  0
 24 31  1  0  0  0  0
 24 27  1  0  0  0  0
 25 28  1  0  0  0  0
 28 24  2  0  0  0  0
 29 26  1  0  0  0  0
 29 31  2  0  0  0  0
 30 25  2  0  0  0  0
 30 29  1  0  0  0  0
M  END
>  <MODEL>
3

>  <REMARK>
 VINA RESULT:      -9.2      2.051      4.368
  Name = 
  1 active torsions:
  status: ('A' for Active; 'I' for Inactive)
    1  A    between atoms: C_5  and  C_30
                            x       y       z     vdW  Elec       q    Type
                         _______ _______ _______ _____ _____    ______ ____

>  <TORSDO>
F 1

$$$$
=
 OpenBabel11112416573D

 31 35  0  0  0  0  0  0  0  0999 V2000
  190.8150  176.7820  147.1510 C   0  0  0  0  0  0  0  0  0  0  0  0
  188.2210  176.4680  144.4400 C   0  0  0  0  0  0  0  0  0  0  0  0
  187.0840  177.2220  144.8520 C   0  0  0  0  0  0  0  0  0  0  0  0
  191.2370  173.3940  141.4180 O   0  0  0  0  0  0  0  0  0  0  0  0
  190.1360  173.5740  140.8310 C   0  0  0  0  0  0  0  0  0  0  0  0
  185.8900  178.6520  146.4320 C   0  0  0  0  0  0  0  0  0  0  0  0
  189.4260  176.3320  145.1930 C   0  0  0  0  0  0  0  0  0  0  0  0
  191.8440  176.0100  146.6150 C   0  0  0  0  0  3  0  0  0  0  0  0
  187.0270  177.9260  146.0680 C   0  0  0  0  0  3  0  0  0  0  0  0
  189.2210  175.0460  142.7150 C   0  0  0  0  0  0  0  0  0  0  0  0
  190.9770  177.3950  148.3860 O   0  0  0  0  0  1  0  0  0  0  0  0
  185.9610  176.6100  142.8240 N   0  0  0  0  0  0  0  0  0  0  0  0
  185.8630  179.3370  147.6390 O   0  0  0  0  0  1  0  0  0  0  0  0
  190.3500  174.9410  143.4610 N   0  0  0  0  0  0  0  0  0  0  0  0
  188.1430  175.8060  143.1860 C   0  0  0  0  0  0  0  0  0  0  0  0
  189.1230  174.3840  141.4450 N   0  0  0  0  0  2  0  0  0  0  0  0
  189.6200  176.9410  146.4460 C   0  0  0  0  0  3  0  0  0  0  0  0
  184.7850  178.6890  145.5830 C   0  0  0  0  0  3  0  0  0  0  0  0
  190.4830  175.5500  144.6640 C   0  0  0  0  0  0  0  0  0  0  0  0
  191.6770  175.3950  145.3740 C   0  0  0  0  0  3  0  0  0  0  0  0
  187.0180  175.9040  142.4300 N   0  0  0  0  0  0  0  0  0  0  0  0
  185.9510  177.2720  144.0030 C   0  0  0  0  0  0  0  0  0  0  0  0
  184.8160  178.0000  144.3710 C   0  0  0  0  0  3  0  0  0  0  0  0
  189.3160  171.9370  136.9400 C   0  0  0  0  0  0  0  0  0  0  0  0
  189.3810  173.7910  138.4850 C   0  0  0  0  0  3  0  0  0  0  0  0
  190.6860  170.4240  140.3910 Cl  0  0  0  0  0  0  0  0  0  0  0  0
  189.0500  171.4450  135.7060 F   0  0  0  0  0  0  0  0  0  0  0  0
  189.1060  173.2870  137.2120 C   0  0  0  0  0  3  0  0  0  0  0  0
  190.0800  171.5840  139.2180 C   0  0  0  0  0  0  0  0  0  0  0  0
  189.8700  172.9590  139.5060 C   0  0  0  0  0  0  0  0  0  0  0  0
  189.8010  171.0920  137.9380 C   0  0  0  0  0  3  0  0  0  0  0  0
  1 11  1  0  0  0  0
  2  3  1  0  0  0  0
  2  7  1  0  0  0  0
  3  9  1  0  0  0  0
  5  4  2  0  0  0  0
  5 16  1  0  0  0  0
  6 13  1  0  0  0  0
  7 17  1  0  0  0  0
  8  1  1  0  0  0  0
  9  6  2  0  0  0  0
 10 15  1  0  0  0  0
 10 14  2  0  0  0  0
 12 22  1  0  0  0  0
 14 19  1  0  0  0  0
 15  2  2  0  0  0  0
 16 10  1  0  0  0  0
 17  1  2  0  0  0  0
 18  6  1  0  0  0  0
 19  7  2  0  0  0  0
 19 20  1  0  0  0  0
 20  8  2  0  0  0  0
 21 12  2  0  0  0  0
 21 15  1  0  0  0  0
 22 23  1  0  0  0  0
 22  3  2  0  0  0  0
 23 18  2  0  0  0  0
 24 28  2  0  0  0  0
 24 31  1  0  0  0  0
 25 30  2  0  0  0  0
 27 24  1  0  0  0  0
 28 25  1  0  0  0  0
 29 30  1  0  0  0  0
 29 26  1  0  0  0  0
 30  5  1  0  0  0  0
 31 29  2  0  0  0  0
M  END
>  <MODEL>
4

>  <REMARK>
 VINA RESULT:      -9.2      4.442      5.897
  Name = 
  1 active torsions:
  status: ('A' for Active; 'I' for Inactive)
    1  A    between atoms: C_5  and  C_30
                            x       y       z     vdW  Elec       q    Type
                         _______ _______ _______ _____ _____    ______ ____

>  <TORSDO>
F 1

$$$$
=
 OpenBabel11112416573D

 31 35  0  0  0  0  0  0  0  0999 V2000
  185.2150  177.6490  146.8270 C   0  0  0  0  0  0  0  0  0  0  0  0
  186.8260  177.2740  143.4450 C   0  0  0  0  0  0  0  0  0  0  0  0
  185.8410  177.6010  142.4670 C   0  0  0  0  0  0  0  0  0  0  0  0
  191.4760  175.8160  145.4260 O   0  0  0  0  0  0  0  0  0  0  0  0
  191.5650  175.8290  144.1690 C   0  0  0  0  0  0  0  0  0  0  0  0
  183.5950  178.2960  141.8050 C   0  0  0  0  0  0  0  0  0  0  0  0
  186.6120  177.2930  144.8560 C   0  0  0  0  0  0  0  0  0  0  0  0
  186.2780  177.3040  147.6590 C   0  0  0  0  0  3  0  0  0  0  0  0
  184.5290  177.9840  142.7960 C   0  0  0  0  0  3  0  0  0  0  0  0
  189.1320  176.5680  143.8740 C   0  0  0  0  0  0  0  0  0  0  0  0
  183.9880  177.9990  147.3750 O   0  0  0  0  0  1  0  0  0  0  0  0
  187.4410  177.1760  140.7330 N   0  0  0  0  0  0  0  0  0  0  0  0
  182.3070  178.6700  142.1590 O   0  0  0  0  0  1  0  0  0  0  0  0
  188.8890  176.5990  145.2090 N   0  0  0  0  0  0  0  0  0  0  0  0
  188.1130  176.9030  142.9720 C   0  0  0  0  0  0  0  0  0  0  0  0
  190.4260  176.1960  143.3770 N   0  0  0  0  0  2  0  0  0  0  0  0
  185.3820  177.6430  145.4410 C   0  0  0  0  0  3  0  0  0  0  0  0
  183.9580  178.2300  140.4600 C   0  0  0  0  0  3  0  0  0  0  0  0
  187.6820  176.9450  145.7180 C   0  0  0  0  0  0  0  0  0  0  0  0
  187.5090  176.9520  147.1050 C   0  0  0  0  0  3  0  0  0  0  0  0
  188.3680  176.8700  141.6380 N   0  0  0  0  0  0  0  0  0  0  0  0
  186.1900  177.5410  141.0970 C   0  0  0  0  0  0  0  0  0  0  0  0
  185.2530  177.8530  140.1070 C   0  0  0  0  0  3  0  0  0  0  0  0
  195.3200  174.9030  142.2890 C   0  0  0  0  0  0  0  0  0  0  0  0
  193.9890  176.1930  143.8370 C   0  0  0  0  0  3  0  0  0  0  0  0
  191.5940  173.4530  141.9840 Cl  0  0  0  0  0  0  0  0  0  0  0  0
  196.5140  174.6310  141.7110 F   0  0  0  0  0  0  0  0  0  0  0  0
  195.2220  175.9140  143.2430 C   0  0  0  0  0  3  0  0  0  0  0  0
  192.9470  174.4410  142.5180 C   0  0  0  0  0  0  0  0  0  0  0  0
  192.8360  175.4700  143.4910 C   0  0  0  0  0  0  0  0  0  0  0  0
  194.1880  174.1720  141.9300 C   0  0  0  0  0  3  0  0  0  0  0  0
  1 11  1  0  0  0  0
  1  8  1  0  0  0  0
  2  7  1  0  0  0  0
  3  9  1  0  0  0  0
  3  2  2  0  0  0  0
  5  4  2  0  0  0  0
  6 13  1  0  0  0  0
  6  9  2  0  0  0  0
  7 17  1  0  0  0  0
  7 19  2  0  0  0  0
 10 14  2  0  0  0  0
 12 22  2  0  0  0  0
 12 21  1  0  0  0  0
 14 19  1  0  0  0  0
 15  2  1  0  0  0  0
 15 10  1  0  0  0  0
 16 10  1  0  0  0  0
 16  5  1  0  0  0  0
 17  1  2  0  0  0  0
 18  6  1  0  0  0  0
 19 20  1  0  0  0  0
 20  8  2  0  0  0  0
 21 15  2  0  0  0  0
 22  3  1  0  0  0  0
 23 18  2  0  0  0  0
 23 22  1  0  0  0  0
 24 28  1  0  0  0  0
 26 29  1  0  0  0  0
 27 24  1  0  0  0  0
 28 25  2  0  0  0  0
 29 30  2  0  0  0  0
 30 25  1  0  0  0  0
 30  5  1  0  0  0  0
 31 24  2  0  0  0  0
 31 29  1  0  0  0  0
M  END
>  <MODEL>
5

>  <REMARK>
 VINA RESULT:      -9.1      1.390      1.602
  Name = 
  1 active torsions:
  status: ('A' for Active; 'I' for Inactive)
    1  A    between atoms: C_5  and  C_30
                            x       y       z     vdW  Elec       q    Type
                         _______ _______ _______ _____ _____    ______ ____

>  <TORSDO>
F 1

$$$$
=
 OpenBabel11112416573D

 31 35  0  0  0  0  0  0  0  0999 V2000
  195.1100  174.1020  145.4470 C   0  0  0  0  0  0  0  0  0  0  0  0
  191.6620  173.3880  144.1130 C   0  0  0  0  0  0  0  0  0  0  0  0
  191.7380  172.1750  143.3680 C   0  0  0  0  0  0  0  0  0  0  0  0
  189.5440  177.6890  146.2810 O   0  0  0  0  0  0  0  0  0  0  0  0
  188.6410  177.0700  145.6580 C   0  0  0  0  0  0  0  0  0  0  0  0
  192.9570  170.2580  142.4720 C   0  0  0  0  0  0  0  0  0  0  0  0
  192.7610  174.0040  144.7830 C   0  0  0  0  0  0  0  0  0  0  0  0
  194.8780  175.2910  146.1380 C   0  0  0  0  0  3  0  0  0  0  0  0
  192.9280  171.4430  143.2120 C   0  0  0  0  0  3  0  0  0  0  0  0
  190.2420  175.2210  144.9040 C   0  0  0  0  0  0  0  0  0  0  0  0
  196.3820  173.5480  145.4250 O   0  0  0  0  0  1  0  0  0  0  0  0
  189.3980  172.3470  142.8750 N   0  0  0  0  0  0  0  0  0  0  0  0
  194.1460  169.5560  142.3340 O   0  0  0  0  0  1  0  0  0  0  0  0
  191.3130  175.7750  145.5290 N   0  0  0  0  0  0  0  0  0  0  0  0
  190.3950  174.0260  144.1890 C   0  0  0  0  0  0  0  0  0  0  0  0
  188.9540  175.8500  144.9700 N   0  0  0  0  0  2  0  0  0  0  0  0
  194.0610  173.4670  144.7790 C   0  0  0  0  0  3  0  0  0  0  0  0
  191.7910  169.7820  141.8720 C   0  0  0  0  0  3  0  0  0  0  0  0
  192.5450  175.2130  145.4900 C   0  0  0  0  0  0  0  0  0  0  0  0
  193.5980  175.8450  146.1580 C   0  0  0  0  0  3  0  0  0  0  0  0
  189.3160  173.4800  143.5690 N   0  0  0  0  0  0  0  0  0  0  0  0
  190.5660  171.6750  142.7520 C   0  0  0  0  0  0  0  0  0  0  0  0
  190.5990  170.4890  142.0130 C   0  0  0  0  0  3  0  0  0  0  0  0
  184.5930  178.5210  145.7180 C   0  0  0  0  0  0  0  0  0  0  0  0
  186.4970  177.5160  146.8100 C   0  0  0  0  0  3  0  0  0  0  0  0
  187.4520  178.2910  142.9160 Cl  0  0  0  0  0  0  0  0  0  0  0  0
  183.3160  178.9710  145.7630 F   0  0  0  0  0  0  0  0  0  0  0  0
  185.1810  177.9790  146.8590 C   0  0  0  0  0  3  0  0  0  0  0  0
  186.6390  178.1380  144.4680 C   0  0  0  0  0  0  0  0  0  0  0  0
  187.2480  177.5850  145.6250 C   0  0  0  0  0  0  0  0  0  0  0  0
  185.3200  178.5990  144.5300 C   0  0  0  0  0  3  0  0  0  0  0  0
  1  8  1  0  0  0  0
  2 15  1  0  0  0  0
  2  7  1  0  0  0  0
  3  2  2  0  0  0  0
  5  4  2  0  0  0  0
  6  9  2  0  0  0  0
  7 19  2  0  0  0  0
  8 20  2  0  0  0  0
  9  3  1  0  0  0  0
 10 16  1  0  0  0  0
 10 14  2  0  0  0  0
 11  1  1  0  0  0  0
 12 21  1  0  0  0  0
 13  6  1  0  0  0  0
 15 10  1  0  0  0  0
 16  5  1  0  0  0  0
 17  7  1  0  0  0  0
 17  1  2  0  0  0  0
 18 23  2  0  0  0  0
 18  6  1  0  0  0  0
 19 14  1  0  0  0  0
 19 20  1  0  0  0  0
 21 15  2  0  0  0  0
 22 12  2  0  0  0  0
 22  3  1  0  0  0  0
 23 22  1  0  0  0  0
 24 27  1  0  0  0  0
 24 28  1  0  0  0  0
 25 28  2  0  0  0  0
 26 29  1  0  0  0  0
 29 31  1  0  0  0  0
 29 30  2  0  0  0  0
 30  5  1  0  0  0  0
 30 25  1  0  0  0  0
 31 24  2  0  0  0  0
M  END
>  <MODEL>
6

>  <REMARK>
 VINA RESULT:      -8.8      4.654      8.718
  Name = 
  1 active torsions:
  status: ('A' for Active; 'I' for Inactive)
    1  A    between atoms: C_5  and  C_30
                            x       y       z     vdW  Elec       q    Type
                         _______ _______ _______ _____ _____    ______ ____

>  <TORSDO>
F 1

$$$$
=
 OpenBabel11112416573D

 31 35  0  0  0  0  0  0  0  0999 V2000
  192.6180  172.7240  140.4020 C   0  0  0  0  0  0  0  0  0  0  0  0
  192.0500  174.7940  143.4950 C   0  0  0  0  0  0  0  0  0  0  0  0
  193.2870  174.8490  144.2010 C   0  0  0  0  0  0  0  0  0  0  0  0
  186.9770  175.6720  142.4090 O   0  0  0  0  0  0  0  0  0  0  0  0
  187.2590  176.2500  143.4920 C   0  0  0  0  0  0  0  0  0  0  0  0
  195.6510  174.2980  144.4750 C   0  0  0  0  0  0  0  0  0  0  0  0
  191.8440  174.1020  142.2640 C   0  0  0  0  0  0  0  0  0  0  0  0
  191.3470  172.7610  139.8300 C   0  0  0  0  0  3  0  0  0  0  0  0
  194.4590  174.2170  143.7500 C   0  0  0  0  0  3  0  0  0  0  0  0
  189.6960  175.4690  143.4290 C   0  0  0  0  0  0  0  0  0  0  0  0
  193.6430  172.0280  139.7750 O   0  0  0  0  0  1  0  0  0  0  0  0
  192.2480  176.2000  145.8880 N   0  0  0  0  0  0  0  0  0  0  0  0
  196.7920  173.6620  144.0060 O   0  0  0  0  0  1  0  0  0  0  0  0
  189.5410  174.8000  142.2590 N   0  0  0  0  0  0  0  0  0  0  0  0
  190.9440  175.4800  144.0660 C   0  0  0  0  0  0  0  0  0  0  0  0
  188.5920  176.1680  144.0210 N   0  0  0  0  0  2  0  0  0  0  0  0
  192.8610  173.3880  141.6060 C   0  0  0  0  0  3  0  0  0  0  0  0
  195.6930  175.0170  145.6690 C   0  0  0  0  0  3  0  0  0  0  0  0
  190.5580  174.1280  141.6680 C   0  0  0  0  0  0  0  0  0  0  0  0
  190.3200  173.4610  140.4620 C   0  0  0  0  0  3  0  0  0  0  0  0
  191.0880  176.1540  145.2360 N   0  0  0  0  0  0  0  0  0  0  0  0
  193.3500  175.5750  145.4150 C   0  0  0  0  0  0  0  0  0  0  0  0
  194.5450  175.6540  146.1380 C   0  0  0  0  0  3  0  0  0  0  0  0
  184.3050  178.3860  145.7740 C   0  0  0  0  0  0  0  0  0  0  0  0
  185.9760  176.6550  145.5690 C   0  0  0  0  0  3  0  0  0  0  0  0
  185.7000  178.6650  142.0250 Cl  0  0  0  0  0  0  0  0  0  0  0  0
  183.3800  179.0420  146.5130 F   0  0  0  0  0  0  0  0  0  0  0  0
  185.0230  177.3300  146.3330 C   0  0  0  0  0  3  0  0  0  0  0  0
  185.4920  178.0960  143.6760 C   0  0  0  0  0  0  0  0  0  0  0  0
  186.2300  177.0190  144.2360 C   0  0  0  0  0  0  0  0  0  0  0  0
  184.5400  178.7650  144.4520 C   0  0  0  0  0  3  0  0  0  0  0  0
  1 17  1  0  0  0  0
  2 15  2  0  0  0  0
  2  3  1  0  0  0  0
  3 22  1  0  0  0  0
  4  5  2  0  0  0  0
  5 16  1  0  0  0  0
  5 30  1  0  0  0  0
  6 18  2  0  0  0  0
  7  2  1  0  0  0  0
  8  1  2  0  0  0  0
  8 20  1  0  0  0  0
  9  3  2  0  0  0  0
  9  6  1  0  0  0  0
 10 16  1  0  0  0  0
 10 15  1  0  0  0  0
 11  1  1  0  0  0  0
 13  6  1  0  0  0  0
 14 10  2  0  0  0  0
 15 21  1  0  0  0  0
 17  7  2  0  0  0  0
 18 23  1  0  0  0  0
 19 14  1  0  0  0  0
 19  7  1  0  0  0  0
 20 19  2  0  0  0  0
 21 12  2  0  0  0  0
 22 12  1  0  0  0  0
 22 23  2  0  0  0  0
 24 28  1  0  0  0  0
 24 27  1  0  0  0  0
 25 28  2  0  0  0  0
 26 29  1  0  0  0  0
 29 30  2  0  0  0  0
 29 31  1  0  0  0  0
 30 25  1  0  0  0  0
 31 24  2  0  0  0  0
M  END
>  <MODEL>
7

>  <REMARK>
 VINA RESULT:      -8.7      4.366      9.316
  Name = 
  1 active torsions:
  status: ('A' for Active; 'I' for Inactive)
    1  A    between atoms: C_5  and  C_30
                            x       y       z     vdW  Elec       q    Type
                         _______ _______ _______ _____ _____    ______ ____

>  <TORSDO>
F 1

$$$$
=
 OpenBabel11112416573D

 31 35  0  0  0  0  0  0  0  0999 V2000
  186.3640  178.7280  143.2960 C   0  0  0  0  0  0  0  0  0  0  0  0
  189.0030  176.0430  143.3140 C   0  0  0  0  0  0  0  0  0  0  0  0
  189.6730  176.1150  144.5710 C   0  0  0  0  0  0  0  0  0  0  0  0
  187.8160  174.3450  138.4780 O   0  0  0  0  0  0  0  0  0  0  0  0
  188.7650  173.6460  138.9250 C   0  0  0  0  0  0  0  0  0  0  0  0
  190.0250  177.0870  146.7840 C   0  0  0  0  0  0  0  0  0  0  0  0
  187.9320  176.8950  142.9120 C   0  0  0  0  0  0  0  0  0  0  0  0
  185.8080  178.5350  142.0330 C   0  0  0  0  0  3  0  0  0  0  0  0
  189.3420  177.0520  145.5660 C   0  0  0  0  0  3  0  0  0  0  0  0
  188.8300  174.9160  141.1470 C   0  0  0  0  0  0  0  0  0  0  0  0
  185.8740  179.7280  144.1260 O   0  0  0  0  0  1  0  0  0  0  0  0
  191.0760  174.2860  143.9120 N   0  0  0  0  0  0  0  0  0  0  0  0
  189.6770  178.0230  147.7480 O   0  0  0  0  0  1  0  0  0  0  0  0
  187.8130  175.7460  140.8010 N   0  0  0  0  0  0  0  0  0  0  0  0
  189.4410  175.0470  142.4010 C   0  0  0  0  0  0  0  0  0  0  0  0
  189.2860  173.9030  140.2380 N   0  0  0  0  0  2  0  0  0  0  0  0
  187.4140  177.9160  143.7290 C   0  0  0  0  0  3  0  0  0  0  0  0
  191.0570  176.1810  147.0300 C   0  0  0  0  0  3  0  0  0  0  0  0
  187.3540  176.7140  141.6300 C   0  0  0  0  0  0  0  0  0  0  0  0
  186.3030  177.5300  141.2010 C   0  0  0  0  0  3  0  0  0  0  0  0
  190.4570  174.2100  142.7370 N   0  0  0  0  0  0  0  0  0  0  0  0
  190.7230  175.2040  144.8410 C   0  0  0  0  0  0  0  0  0  0  0  0
  191.4040  175.2420  146.0610 C   0  0  0  0  0  3  0  0  0  0  0  0
  190.4340  170.3770  136.6840 C   0  0  0  0  0  0  0  0  0  0  0  0
  189.3160  171.2510  138.6370 C   0  0  0  0  0  3  0  0  0  0  0  0
  190.0730  174.3210  136.0520 Cl  0  0  0  0  0  0  0  0  0  0  0  0
  190.9530  169.3310  135.9980 F   0  0  0  0  0  0  0  0  0  0  0  0
  189.8510  170.1710  137.9320 C   0  0  0  0  0  3  0  0  0  0  0  0
  189.9520  172.7520  136.8380 C   0  0  0  0  0  0  0  0  0  0  0  0
  189.3550  172.5530  138.1110 C   0  0  0  0  0  0  0  0  0  0  0  0
  190.4840  171.6610  136.1420 C   0  0  0  0  0  3  0  0  0  0  0  0
  1 17  1  0  0  0  0
  1 11  1  0  0  0  0
  2  3  1  0  0  0  0
  3 22  2  0  0  0  0
  3  9  1  0  0  0  0
  4  5  2  0  0  0  0
  5 16  1  0  0  0  0
  6 18  1  0  0  0  0
  6 13  1  0  0  0  0
  7  2  1  0  0  0  0
  7 17  2  0  0  0  0
  8  1  2  0  0  0  0
  9  6  2  0  0  0  0
 10 15  1  0  0  0  0
 12 22  1  0  0  0  0
 14 10  2  0  0  0  0
 14 19  1  0  0  0  0
 15 21  1  0  0  0  0
 15  2  2  0  0  0  0
 16 10  1  0  0  0  0
 19  7  1  0  0  0  0
 20 19  2  0  0  0  0
 20  8  1  0  0  0  0
 21 12  2  0  0  0  0
 22 23  1  0  0  0  0
 23 18  2  0  0  0  0
 24 28  1  0  0  0  0
 26 29  1  0  0  0  0
 27 24  1  0  0  0  0
 28 25  2  0  0  0  0
 29 30  2  0  0  0  0
 30 25  1  0  0  0  0
 30  5  1  0  0  0  0
 31 24  2  0  0  0  0
 31 29  1  0  0  0  0
M  END
>  <MODEL>
8

>  <REMARK>
 VINA RESULT:      -8.6      5.126      7.066
  Name = 
  1 active torsions:
  status: ('A' for Active; 'I' for Inactive)
    1  A    between atoms: C_5  and  C_30
                            x       y       z     vdW  Elec       q    Type
                         _______ _______ _______ _____ _____    ______ ____

>  <TORSDO>
F 1

$$$$
=
 OpenBabel11112416573D

 31 35  0  0  0  0  0  0  0  0999 V2000
  194.8070  174.9430  145.5450 C   0  0  0  0  0  0  0  0  0  0  0  0
  191.8970  174.6240  143.1770 C   0  0  0  0  0  0  0  0  0  0  0  0
  192.2970  173.7420  142.1300 C   0  0  0  0  0  0  0  0  0  0  0  0
  188.8170  177.8560  145.9590 O   0  0  0  0  0  0  0  0  0  0  0  0
  188.1730  177.4600  144.9520 C   0  0  0  0  0  0  0  0  0  0  0  0
  193.9180  172.2850  141.0270 C   0  0  0  0  0  0  0  0  0  0  0  0
  192.7190  175.0060  144.2790 C   0  0  0  0  0  0  0  0  0  0  0  0
  194.2740  175.8160  146.4920 C   0  0  0  0  0  3  0  0  0  0  0  0
  193.5680  173.1430  142.0730 C   0  0  0  0  0  3  0  0  0  0  0  0
  190.1190  176.0310  144.1030 C   0  0  0  0  0  0  0  0  0  0  0  0
  196.1040  174.4690  145.6880 O   0  0  0  0  0  1  0  0  0  0  0  0
  190.1430  174.0000  141.1090 N   0  0  0  0  0  0  0  0  0  0  0  0
  195.1800  171.7090  140.9960 O   0  0  0  0  0  1  0  0  0  0  0  0
  190.9310  176.3700  145.1360 N   0  0  0  0  0  0  0  0  0  0  0  0
  190.5820  175.1570  143.1100 C   0  0  0  0  0  0  0  0  0  0  0  0
  188.7880  176.5590  144.0180 N   0  0  0  0  0  2  0  0  0  0  0  0
  194.0360  174.5430  144.4520 C   0  0  0  0  0  3  0  0  0  0  0  0
  192.9980  172.0070  140.0160 C   0  0  0  0  0  3  0  0  0  0  0  0
  192.1940  175.8930  145.2520 C   0  0  0  0  0  0  0  0  0  0  0  0
  192.9700  176.2900  146.3450 C   0  0  0  0  0  3  0  0  0  0  0  0
  189.7600  174.8240  142.0810 N   0  0  0  0  0  0  0  0  0  0  0  0
  191.3770  173.4470  141.0950 C   0  0  0  0  0  0  0  0  0  0  0  0
  191.7310  172.5870  140.0510 C   0  0  0  0  0  3  0  0  0  0  0  0
  184.1810  178.8250  144.1170 C   0  0  0  0  0  0  0  0  0  0  0  0
  186.4980  178.5550  143.4960 C   0  0  0  0  0  3  0  0  0  0  0  0
  185.9180  176.9440  147.2030 Cl  0  0  0  0  0  0  0  0  0  0  0  0
  182.9320  179.2650  143.8310 F   0  0  0  0  0  0  0  0  0  0  0  0
  185.2120  179.0090  143.1980 C   0  0  0  0  0  3  0  0  0  0  0  0
  185.7210  177.7300  145.6430 C   0  0  0  0  0  0  0  0  0  0  0  0
  186.7780  177.9120  144.7130 C   0  0  0  0  0  0  0  0  0  0  0  0
  184.4360  178.1890  145.3320 C   0  0  0  0  0  3  0  0  0  0  0  0
  1 11  1  0  0  0  0
  1  8  1  0  0  0  0
  2  7  1  0  0  0  0
  3  2  2  0  0  0  0
  5  4  2  0  0  0  0
  6  9  2  0  0  0  0
  7 17  1  0  0  0  0
  7 19  2  0  0  0  0
  9  3  1  0  0  0  0
 10 14  2  0  0  0  0
 12 21  1  0  0  0  0
 13  6  1  0  0  0  0
 14 19  1  0  0  0  0
 15  2  1  0  0  0  0
 15 10  1  0  0  0  0
 16 10  1  0  0  0  0
 16  5  1  0  0  0  0
 17  1  2  0  0  0  0
 18 23  2  0  0  0  0
 18  6  1  0  0  0  0
 19 20  1  0  0  0  0
 20  8  2  0  0  0  0
 21 15  2  0  0  0  0
 22 12  2  0  0  0  0
 22  3  1  0  0  0  0
 23 22  1  0  0  0  0
 24 31  1  0  0  0  0
 25 30  2  0  0  0  0
 27 24  1  0  0  0  0
 28 25  1  0  0  0  0
 28 24  2  0  0  0  0
 29 26  1  0  0  0  0
 30  5  1  0  0  0  0
 30 29  1  0  0  0  0
 31 29  2  0  0  0  0
M  END
>  <MODEL>
9

>  <REMARK>
 VINA RESULT:      -8.5      4.125      8.398
  Name = 
  1 active torsions:
  status: ('A' for Active; 'I' for Inactive)
    1  A    between atoms: C_5  and  C_30
                            x       y       z     vdW  Elec       q    Type
                         _______ _______ _______ _____ _____    ______ ____

>  <TORSDO>
F 1

$$$$
