=
 OpenBabel11112416263D

 30 35  0  0  1  0  0  0  0  0999 V2000
  189.9420  175.8960  143.8620 C   0  0  1  0  0  3  0  0  0  0  0  0
  192.0260  175.7440  145.3840 C   0  0  0  0  0  0  0  0  0  0  0  0
  187.7150  177.5750  146.6910 N   0  0  0  0  0  2  0  0  0  0  0  0
  188.9500  176.9460  143.3260 C   0  0  1  0  0  3  0  0  0  0  0  0
  190.7100  175.4010  142.7860 O   0  0  0  0  0  0  0  0  0  0  0  0
  188.1320  174.9260  140.3900 O   0  0  0  0  0  0  0  0  0  0  0  0
  185.8020  177.3060  142.2980 C   0  0  1  0  0  3  0  0  0  0  0  0
  188.6930  175.3210  141.4480 C   0  0  0  0  0  0  0  0  0  0  0  0
  185.8640  178.1200  143.5600 C   0  0  1  0  0  3  0  0  0  0  0  0
  186.4230  177.7550  146.0490 C   0  0  2  0  0  3  0  0  0  0  0  0
  189.8920  174.5800  141.9710 C   0  0  2  0  0  3  0  0  0  0  0  0
  188.1720  176.4440  142.1800 N   0  0  0  0  0  0  0  0  0  0  0  0
  192.7260  176.1860  146.6260 C   0  0  0  0  0  2  0  0  0  0  0  0
  184.4040  178.3380  143.8990 C   0  0  0  0  0  2  0  0  0  0  0  0
  184.6690  177.9120  141.5020 C   0  0  0  0  0  2  0  0  0  0  0  0
  192.4470  174.7890  144.7510 O   0  0  0  0  0  0  0  0  0  0  0  0
  188.6520  177.5380  145.8050 C   0  0  2  0  0  3  0  0  0  0  0  0
  191.7150  176.2660  147.7660 C   0  0  0  0  0  2  0  0  0  0  0  0
  190.8430  176.5610  144.9220 C   0  0  2  0  0  3  0  0  0  0  0  0
  188.1370  177.6860  144.4180 C   0  0  2  0  0  3  0  0  0  0  0  0
  185.4030  176.8360  146.6920 C   0  0  0  0  0  1  0  0  0  0  0  0
  186.6660  177.3420  144.5950 C   0  0  2  0  0  3  0  0  0  0  0  0
  183.6940  178.4300  142.5530 C   0  0  0  0  0  2  0  0  0  0  0  0
  187.3270  177.8630  140.5250 O   0  0  0  0  0  0  0  0  0  0  0  0
  190.4310  176.9450  147.3660 C   0  0  0  0  0  3  0  0  0  0  0  0
  190.0030  177.0340  146.0960 C   0  0  0  0  0  0  0  0  0  0  0  0
  187.1270  177.2410  141.6030 C   0  0  0  0  0  0  0  0  0  0  0  0
  189.4900  173.2780  142.6650 C   0  0  0  0  0  2  0  0  0  0  0  0
  190.7630  171.9030  144.3100 C   0  0  0  0  0  1  0  0  0  0  0  0
  190.6910  172.3700  142.8690 C   0  0  0  0  0  2  0  0  0  0  0  0
  1  5  1  6  0  0  0
  1 19  1  0  0  0  0
  2 13  1  0  0  0  0
  4 12  1  6  0  0  0
  4  1  1  0  0  0  0
  4 20  1  0  0  0  0
  6  8  2  0  0  0  0
  7 15  1  6  0  0  0
  7  9  1  0  0  0  0
  8 11  1  0  0  0  0
  8 12  1  0  0  0  0
  9 14  1  1  0  0  0
  9 22  1  0  0  0  0
 10  3  1  0  0  0  0
 10 21  1  1  0  0  0
 11 28  1  1  0  0  0
 11  5  1  0  0  0  0
 13 18  1  0  0  0  0
 15 23  1  0  0  0  0
 16  2  2  0  0  0  0
 17 26  1  6  0  0  0
 17  3  1  0  0  0  0
 19  2  1  1  0  0  0
 19 26  1  0  0  0  0
 20 22  1  0  0  0  0
 20 17  1  0  0  0  0
 22 10  1  0  0  0  0
 23 14  1  0  0  0  0
 24 27  2  0  0  0  0
 25 18  1  0  0  0  0
 26 25  2  0  0  0  0
 27 12  1  0  0  0  0
 27  7  1  0  0  0  0
 28 30  1  0  0  0  0
 30 29  1  0  0  0  0
M  END
>  <MODEL>
1

>  <REMARK>
 VINA RESULT:      -9.1      0.000      0.000
  Name = 
  2 active torsions:
  status: ('A' for Active; 'I' for Inactive)
    1  A    between atoms: C_11  and  C_28
    2  A    between atoms: C_28  and  C_30
                            x       y       z     vdW  Elec       q    Type
                         _______ _______ _______ _____ _____    ______ ____

>  <TORSDO>
F 2

$$$$
=
 OpenBabel11112416263D

 30 35  0  0  1  0  0  0  0  0999 V2000
  190.2960  175.1490  144.0210 C   0  0  1  0  0  3  0  0  0  0  0  0
  191.5890  173.3570  142.6810 C   0  0  0  0  0  0  0  0  0  0  0  0
  187.6650  175.7590  141.1080 N   0  0  0  0  0  2  0  0  0  0  0  0
  188.8700  175.4390  144.5270 C   0  0  1  0  0  3  0  0  0  0  0  0
  191.1330  174.9020  145.1310 O   0  0  0  0  0  0  0  0  0  0  0  0
  190.0810  177.5410  147.2630 O   0  0  0  0  0  0  0  0  0  0  0  0
  186.8100  177.9420  145.2950 C   0  0  1  0  0  3  0  0  0  0  0  0
  190.0700  176.7490  146.2810 C   0  0  0  0  0  0  0  0  0  0  0  0
  186.1720  177.3070  144.0910 C   0  0  1  0  0  3  0  0  0  0  0  0
  186.7920  176.7910  141.6440 C   0  0  2  0  0  3  0  0  0  0  0  0
  191.3550  176.1170  145.8240 C   0  0  2  0  0  3  0  0  0  0  0  0
  188.8490  176.4780  145.5710 N   0  0  0  0  0  0  0  0  0  0  0  0
  191.6160  172.4050  141.5320 C   0  0  0  0  0  2  0  0  0  0  0  0
  185.1760  178.3550  143.6390 C   0  0  0  0  0  2  0  0  0  0  0  0
  185.6720  178.6220  146.0220 C   0  0  0  0  0  2  0  0  0  0  0  0
  192.6150  173.6060  143.2940 O   0  0  0  0  0  0  0  0  0  0  0  0
  188.2170  175.0980  142.0690 C   0  0  2  0  0  3  0  0  0  0  0  0
  190.9870  173.0750  140.3140 C   0  0  0  0  0  2  0  0  0  0  0  0
  190.2500  173.9250  143.0840 C   0  0  2  0  0  3  0  0  0  0  0  0
  187.8040  175.5850  143.4110 C   0  0  2  0  0  3  0  0  0  0  0  0
  186.9860  178.0760  140.8640 C   0  0  0  0  0  1  0  0  0  0  0  0
  187.2680  176.9710  143.0880 C   0  0  2  0  0  3  0  0  0  0  0  0
  184.7010  179.0290  144.9210 C   0  0  0  0  0  2  0  0  0  0  0  0
  187.1960  176.5580  147.2230 O   0  0  0  0  0  0  0  0  0  0  0  0
  189.7060  173.7990  140.6380 C   0  0  0  0  0  3  0  0  0  0  0  0
  189.3910  174.2340  141.8690 C   0  0  0  0  0  0  0  0  0  0  0  0
  187.6030  176.9570  146.0990 C   0  0  0  0  0  0  0  0  0  0  0  0
  192.2120  177.1010  145.0250 C   0  0  0  0  0  2  0  0  0  0  0  0
  194.1860  176.7720  146.5130 C   0  0  0  0  0  1  0  0  0  0  0  0
  193.6820  176.7210  145.0830 C   0  0  0  0  0  2  0  0  0  0  0  0
  1  4  1  0  0  0  0
  1  5  1  1  0  0  0
  2 19  1  0  0  0  0
  2 16  2  0  0  0  0
  3 10  1  0  0  0  0
  4 12  1  6  0  0  0
  5 11  1  0  0  0  0
  7 15  1  1  0  0  0
  7 27  1  0  0  0  0
  8  6  2  0  0  0  0
  9 14  1  6  0  0  0
  9  7  1  0  0  0  0
 10 21  1  6  0  0  0
 10 22  1  0  0  0  0
 11 28  1  6  0  0  0
 11  8  1  0  0  0  0
 12 27  1  0  0  0  0
 12  8  1  0  0  0  0
 13  2  1  0  0  0  0
 14 23  1  0  0  0  0
 17  3  1  6  0  0  0
 17 20  1  0  0  0  0
 18 25  1  0  0  0  0
 18 13  1  0  0  0  0
 19 26  1  6  0  0  0
 19  1  1  0  0  0  0
 20  4  1  0  0  0  0
 22 20  1  0  0  0  0
 22  9  1  0  0  0  0
 23 15  1  0  0  0  0
 25 26  2  0  0  0  0
 26 17  1  0  0  0  0
 27 24  2  0  0  0  0
 28 30  1  0  0  0  0
 30 29  1  0  0  0  0
M  END
>  <MODEL>
2

>  <REMARK>
 VINA RESULT:      -8.1      2.096      4.740
  Name = 
  2 active torsions:
  status: ('A' for Active; 'I' for Inactive)
    1  A    between atoms: C_11  and  C_28
    2  A    between atoms: C_28  and  C_30
                            x       y       z     vdW  Elec       q    Type
                         _______ _______ _______ _____ _____    ______ ____

>  <TORSDO>
F 2

$$$$
=
 OpenBabel11112416263D

 30 35  0  0  1  0  0  0  0  0999 V2000
  190.1980  174.9130  143.4250 C   0  0  1  0  0  3  0  0  0  0  0  0
  190.9880  173.4190  141.4680 C   0  0  0  0  0  0  0  0  0  0  0  0
  187.0120  176.2200  141.4440 N   0  0  0  0  0  2  0  0  0  0  0  0
  188.9600  175.1270  144.3170 C   0  0  1  0  0  3  0  0  0  0  0  0
  191.2500  174.4050  144.2170 O   0  0  0  0  0  0  0  0  0  0  0  0
  190.9510  176.5450  147.0360 O   0  0  0  0  0  0  0  0  0  0  0  0
  187.3520  177.4610  146.0670 C   0  0  1  0  0  3  0  0  0  0  0  0
  190.6430  175.9880  145.9480 C   0  0  0  0  0  0  0  0  0  0  0  0
  186.3980  177.1230  144.9550 C   0  0  1  0  0  3  0  0  0  0  0  0
  186.3780  177.1350  142.3790 C   0  0  2  0  0  3  0  0  0  0  0  0
  191.7290  175.4340  145.0670 C   0  0  2  0  0  3  0  0  0  0  0  0
  189.2720  175.9140  145.5230 N   0  0  0  0  0  0  0  0  0  0  0  0
  190.6640  172.7410  140.1790 C   0  0  0  0  0  2  0  0  0  0  0  0
  185.4120  178.2720  144.9880 C   0  0  0  0  0  2  0  0  0  0  0  0
  186.4770  177.9990  147.1770 C   0  0  0  0  0  2  0  0  0  0  0  0
  192.1460  173.4990  141.8450 O   0  0  0  0  0  0  0  0  0  0  0  0
  187.7200  175.3500  142.0820 C   0  0  2  0  0  3  0  0  0  0  0  0
  189.8230  173.6790  139.3190 C   0  0  0  0  0  2  0  0  0  0  0  0
  189.8320  173.9250  142.2980 C   0  0  2  0  0  3  0  0  0  0  0  0
  187.6760  175.5440  143.5550 C   0  0  2  0  0  3  0  0  0  0  0  0
  186.4870  178.5530  141.8540 C   0  0  0  0  0  1  0  0  0  0  0  0
  187.1940  176.9820  143.6640 C   0  0  2  0  0  3  0  0  0  0  0  0
  185.3100  178.6640  146.4580 C   0  0  0  0  0  2  0  0  0  0  0  0
  188.0680  175.6790  147.5130 O   0  0  0  0  0  0  0  0  0  0  0  0
  188.7180  174.3510  140.0920 C   0  0  0  0  0  3  0  0  0  0  0  0
  188.7390  174.5160  141.4250 C   0  0  0  0  0  0  0  0  0  0  0  0
  188.2280  176.3020  146.4300 C   0  0  0  0  0  0  0  0  0  0  0  0
  192.4500  176.5430  144.2990 C   0  0  0  0  0  2  0  0  0  0  0  0
  194.3420  176.5870  145.9220 C   0  0  0  0  0  1  0  0  0  0  0  0
  193.9560  176.4340  144.4630 C   0  0  0  0  0  2  0  0  0  0  0  0
  1  5  1  1  0  0  0
  1  4  1  0  0  0  0
  2 16  2  0  0  0  0
  2 19  1  0  0  0  0
  3 17  1  0  0  0  0
  3 10  1  0  0  0  0
  4 12  1  1  0  0  0
  5 11  1  0  0  0  0
  7 27  1  0  0  0  0
  7 15  1  1  0  0  0
  8  6  2  0  0  0  0
  9 14  1  6  0  0  0
  9  7  1  0  0  0  0
 10 21  1  6  0  0  0
 10 22  1  0  0  0  0
 11 28  1  6  0  0  0
 11  8  1  0  0  0  0
 12  8  1  0  0  0  0
 12 27  1  0  0  0  0
 13  2  1  0  0  0  0
 14 23  1  0  0  0  0
 17 26  1  6  0  0  0
 17 20  1  0  0  0  0
 18 25  1  0  0  0  0
 18 13  1  0  0  0  0
 19 26  1  6  0  0  0
 19  1  1  0  0  0  0
 20 22  1  0  0  0  0
 20  4  1  0  0  0  0
 22  9  1  0  0  0  0
 23 15  1  0  0  0  0
 25 26  2  0  0  0  0
 27 24  2  0  0  0  0
 28 30  1  0  0  0  0
 30 29  1  0  0  0  0
M  END
>  <MODEL>
3

>  <REMARK>
 VINA RESULT:      -8.0      2.107      4.949
  Name = 
  2 active torsions:
  status: ('A' for Active; 'I' for Inactive)
    1  A    between atoms: C_11  and  C_28
    2  A    between atoms: C_28  and  C_30
                            x       y       z     vdW  Elec       q    Type
                         _______ _______ _______ _____ _____    ______ ____

>  <TORSDO>
F 2

$$$$
=
 OpenBabel11112416263D

 30 35  0  0  1  0  0  0  0  0999 V2000
  188.7270  176.9820  144.4430 C   0  0  1  0  0  3  0  0  0  0  0  0
  186.9740  178.2910  143.0670 C   0  0  0  0  0  0  0  0  0  0  0  0
  189.3490  174.3260  141.5550 N   0  0  0  0  0  2  0  0  0  0  0  0
  190.1900  176.5100  144.3420 C   0  0  1  0  0  3  0  0  0  0  0  0
  188.6300  177.9530  145.4630 O   0  0  0  0  0  0  0  0  0  0  0  0
  190.5780  176.3680  147.9750 O   0  0  0  0  0  0  0  0  0  0  0  0
  192.2560  174.1060  145.3670 C   0  0  1  0  0  3  0  0  0  0  0  0
  190.0850  176.5860  146.8350 C   0  0  0  0  0  0  0  0  0  0  0  0
  192.1630  173.8920  143.8810 C   0  0  1  0  0  3  0  0  0  0  0  0
  190.3380  173.4250  142.1240 C   0  0  2  0  0  3  0  0  0  0  0  0
  188.7770  177.3200  146.7220 C   0  0  2  0  0  3  0  0  0  0  0  0
  190.7370  176.1030  145.6480 N   0  0  0  0  0  0  0  0  0  0  0  0
  186.3630  178.5790  141.7360 C   0  0  0  0  0  2  0  0  0  0  0  0
  192.7230  172.4970  143.7000 C   0  0  0  0  0  2  0  0  0  0  0  0
  193.5830  173.5000  145.7630 C   0  0  0  0  0  2  0  0  0  0  0  0
  186.4330  178.6860  144.0880 O   0  0  0  0  0  0  0  0  0  0  0  0
  189.4240  175.4840  142.1180 C   0  0  2  0  0  3  0  0  0  0  0  0
  186.2120  177.2720  140.9630 C   0  0  0  0  0  2  0  0  0  0  0  0
  188.3000  177.5680  143.0830 C   0  0  2  0  0  3  0  0  0  0  0  0
  190.4800  175.5470  143.1620 C   0  0  2  0  0  3  0  0  0  0  0  0
  189.7120  172.0650  142.3590 C   0  0  0  0  0  1  0  0  0  0  0  0
  190.7110  174.0740  143.4590 C   0  0  2  0  0  3  0  0  0  0  0  0
  193.7930  172.3560  144.7780 C   0  0  0  0  0  2  0  0  0  0  0  0
  193.0160  176.2490  146.1490 O   0  0  0  0  0  0  0  0  0  0  0  0
  187.4410  176.4040  141.0330 C   0  0  0  0  0  3  0  0  0  0  0  0
  188.3570  176.4920  142.0120 C   0  0  0  0  0  0  0  0  0  0  0  0
  192.0550  175.5420  145.7440 C   0  0  0  0  0  0  0  0  0  0  0  0
  187.5930  176.4140  147.0670 C   0  0  0  0  0  2  0  0  0  0  0  0
  185.1910  176.7910  146.5130 C   0  0  0  0  0  1  0  0  0  0  0  0
  186.3520  177.2310  147.3850 C   0  0  0  0  0  2  0  0  0  0  0  0
  1  5  1  1  0  0  0
  2 19  1  0  0  0  0
  2 16  2  0  0  0  0
  3 10  1  0  0  0  0
  4  1  1  0  0  0  0
  4 12  1  1  0  0  0
  5 11  1  0  0  0  0
  7 27  1  0  0  0  0
  7 15  1  6  0  0  0
  8  6  2  0  0  0  0
  9 14  1  1  0  0  0
  9  7  1  0  0  0  0
 10 21  1  1  0  0  0
 10 22  1  0  0  0  0
 11  8  1  0  0  0  0
 11 28  1  6  0  0  0
 12 27  1  0  0  0  0
 12  8  1  0  0  0  0
 13  2  1  0  0  0  0
 14 23  1  0  0  0  0
 17  3  1  1  0  0  0
 17 20  1  0  0  0  0
 18 25  1  0  0  0  0
 18 13  1  0  0  0  0
 19 26  1  6  0  0  0
 19  1  1  0  0  0  0
 20 22  1  0  0  0  0
 20  4  1  0  0  0  0
 22  9  1  0  0  0  0
 23 15  1  0  0  0  0
 25 26  2  0  0  0  0
 26 17  1  0  0  0  0
 27 24  2  0  0  0  0
 28 30  1  0  0  0  0
 29 30  1  0  0  0  0
M  END
>  <MODEL>
4

>  <REMARK>
 VINA RESULT:      -8.0      2.108      6.942
  Name = 
  2 active torsions:
  status: ('A' for Active; 'I' for Inactive)
    1  A    between atoms: C_11  and  C_28
    2  A    between atoms: C_28  and  C_30
                            x       y       z     vdW  Elec       q    Type
                         _______ _______ _______ _____ _____    ______ ____

>  <TORSDO>
F 2

$$$$
=
 OpenBabel11112416263D

 30 35  0  0  1  0  0  0  0  0999 V2000
  191.7900  175.0690  143.0160 C   0  0  1  0  0  3  0  0  0  0  0  0
  194.3350  174.8850  143.4310 C   0  0  0  0  0  0  0  0  0  0  0  0
  190.9970  175.9140  146.8150 N   0  0  0  0  0  2  0  0  0  0  0  0
  190.6370  176.0740  143.1970 C   0  0  1  0  0  3  0  0  0  0  0  0
  192.0170  174.8780  141.6350 O   0  0  0  0  0  0  0  0  0  0  0  0
  188.6590  174.5530  140.5240 O   0  0  0  0  0  0  0  0  0  0  0  0
  187.3500  176.2410  143.7130 C   0  0  1  0  0  3  0  0  0  0  0  0
  189.6190  174.8080  141.3010 C   0  0  0  0  0  0  0  0  0  0  0  0
  187.9420  176.8080  144.9740 C   0  0  1  0  0  3  0  0  0  0  0  0
  189.5500  176.0560  146.8400 C   0  0  2  0  0  3  0  0  0  0  0  0
  190.9440  174.1310  141.0870 C   0  0  2  0  0  3  0  0  0  0  0  0
  189.4460  175.7050  142.4120 N   0  0  0  0  0  0  0  0  0  0  0  0
  195.4990  175.1690  144.3210 C   0  0  0  0  0  2  0  0  0  0  0  0
  186.7760  176.7840  145.9410 C   0  0  0  0  0  2  0  0  0  0  0  0
  185.9670  176.8460  143.6300 C   0  0  0  0  0  2  0  0  0  0  0  0
  194.4570  174.1220  142.4870 O   0  0  0  0  0  0  0  0  0  0  0  0
  191.4480  176.1550  145.6300 C   0  0  2  0  0  3  0  0  0  0  0  0
  195.0930  174.9140  145.7700 C   0  0  0  0  0  2  0  0  0  0  0  0
  193.0490  175.6280  143.7080 C   0  0  2  0  0  3  0  0  0  0  0  0
  190.3700  176.4960  144.6650 C   0  0  2  0  0  3  0  0  0  0  0  0
  188.9430  174.9180  147.6380 C   0  0  0  0  0  1  0  0  0  0  0  0
  189.1380  175.9520  145.3710 C   0  0  2  0  0  3  0  0  0  0  0  0
  185.5430  177.0390  145.0810 C   0  0  0  0  0  2  0  0  0  0  0  0
  187.9220  177.2960  141.6300 O   0  0  0  0  0  0  0  0  0  0  0  0
  193.7470  175.4980  146.1140 C   0  0  0  0  0  3  0  0  0  0  0  0
  192.8010  175.7700  145.2000 C   0  0  0  0  0  0  0  0  0  0  0  0
  188.2340  176.4650  142.5250 C   0  0  0  0  0  0  0  0  0  0  0  0
  190.9230  172.6840  141.5820 C   0  0  0  0  0  2  0  0  0  0  0  0
  191.2670  172.3810  139.1310 C   0  0  0  0  0  1  0  0  0  0  0  0
  190.8360  171.7080  140.4210 C   0  0  0  0  0  2  0  0  0  0  0  0
  1  5  1  6  0  0  0
  1  4  1  0  0  0  0
  1 19  1  0  0  0  0
  2 13  1  0  0  0  0
  3 10  1  0  0  0  0
  4 12  1  1  0  0  0
  4 20  1  0  0  0  0
  6  8  2  0  0  0  0
  7 15  1  6  0  0  0
  7  9  1  0  0  0  0
  8 12  1  0  0  0  0
  9 22  1  0  0  0  0
  9 14  1  1  0  0  0
 10 21  1  1  0  0  0
 11  8  1  0  0  0  0
 11 28  1  1  0  0  0
 11  5  1  0  0  0  0
 12 27  1  0  0  0  0
 13 18  1  0  0  0  0
 15 23  1  0  0  0  0
 16  2  2  0  0  0  0
 17 26  1  6  0  0  0
 17  3  1  0  0  0  0
 18 25  1  0  0  0  0
 19  2  1  1  0  0  0
 19 26  1  0  0  0  0
 20 22  1  0  0  0  0
 20 17  1  0  0  0  0
 22 10  1  0  0  0  0
 23 14  1  0  0  0  0
 24 27  2  0  0  0  0
 26 25  2  0  0  0  0
 27  7  1  0  0  0  0
 29 30  1  0  0  0  0
 30 28  1  0  0  0  0
M  END
>  <MODEL>
5

>  <REMARK>
 VINA RESULT:      -7.6      2.003      2.922
  Name = 
  2 active torsions:
  status: ('A' for Active; 'I' for Inactive)
    1  A    between atoms: C_11  and  C_28
    2  A    between atoms: C_28  and  C_30
                            x       y       z     vdW  Elec       q    Type
                         _______ _______ _______ _____ _____    ______ ____

>  <TORSDO>
F 2

$$$$
=
 OpenBabel11112416263D

 30 35  0  0  1  0  0  0  0  0999 V2000
  187.1950  176.4160  144.1950 C   0  0  1  0  0  3  0  0  0  0  0  0
  185.3070  177.7640  145.3360 C   0  0  0  0  0  0  0  0  0  0  0  0
  189.6790  176.8590  147.2630 N   0  0  0  0  0  2  0  0  0  0  0  0
  188.0840  175.1840  144.4530 C   0  0  1  0  0  3  0  0  0  0  0  0
  186.3230  176.1330  143.1210 O   0  0  0  0  0  0  0  0  0  0  0  0
  188.6210  174.6070  140.8830 O   0  0  0  0  0  0  0  0  0  0  0  0
  191.0780  173.9070  143.7470 C   0  0  1  0  0  3  0  0  0  0  0  0
  188.1740  175.0870  141.9600 C   0  0  0  0  0  0  0  0  0  0  0  0
  191.1370  174.1660  145.2270 C   0  0  1  0  0  3  0  0  0  0  0  0
  190.8810  176.1630  146.8340 C   0  0  2  0  0  3  0  0  0  0  0  0
  187.0670  176.1040  141.9150 C   0  0  2  0  0  3  0  0  0  0  0  0
  188.7390  174.7030  143.2260 N   0  0  0  0  0  0  0  0  0  0  0  0
  184.7410  178.3450  146.5890 C   0  0  0  0  0  2  0  0  0  0  0  0
  192.6180  174.0850  145.5310 C   0  0  0  0  0  2  0  0  0  0  0  0
  192.0920  172.8120  143.5060 C   0  0  0  0  0  2  0  0  0  0  0  0
  184.8460  178.0810  144.2510 O   0  0  0  0  0  0  0  0  0  0  0  0
  188.6480  176.3860  146.6490 C   0  0  2  0  0  3  0  0  0  0  0  0
  185.8740  178.9500  147.4130 C   0  0  0  0  0  2  0  0  0  0  0  0
  186.4010  176.7320  145.4790 C   0  0  2  0  0  3  0  0  0  0  0  0
  188.9940  175.2930  145.7040 C   0  0  2  0  0  3  0  0  0  0  0  0
  191.9980  177.1660  146.6160 C   0  0  0  0  0  1  0  0  0  0  0  0
  190.4850  175.5140  145.5060 C   0  0  2  0  0  3  0  0  0  0  0  0
  193.1640  173.0400  144.5640 C   0  0  0  0  0  2  0  0  0  0  0  0
  189.3410  172.4630  142.9260 O   0  0  0  0  0  0  0  0  0  0  0  0
  187.0810  178.0520  147.5000 C   0  0  0  0  0  3  0  0  0  0  0  0
  187.3560  177.0890  146.6050 C   0  0  0  0  0  0  0  0  0  0  0  0
  189.6840  173.6230  143.2790 C   0  0  0  0  0  0  0  0  0  0  0  0
  187.5890  177.4850  141.5130 C   0  0  0  0  0  2  0  0  0  0  0  0
  185.5490  177.9160  140.1450 C   0  0  0  0  0  1  0  0  0  0  0  0
  186.4440  178.4480  141.2480 C   0  0  0  0  0  2  0  0  0  0  0  0
  1  5  1  6  0  0  0
  1  4  1  0  0  0  0
  1 19  1  0  0  0  0
  2 13  1  0  0  0  0
  4 12  1  6  0  0  0
  4 20  1  0  0  0  0
  6  8  2  0  0  0  0
  7 15  1  1  0  0  0
  7  9  1  0  0  0  0
  8 12  1  0  0  0  0
  9 22  1  0  0  0  0
  9 14  1  6  0  0  0
 10 21  1  6  0  0  0
 10  3  1  0  0  0  0
 11 28  1  1  0  0  0
 11  8  1  0  0  0  0
 11  5  1  0  0  0  0
 12 27  1  0  0  0  0
 13 18  1  0  0  0  0
 15 23  1  0  0  0  0
 16  2  2  0  0  0  0
 17 26  1  6  0  0  0
 17  3  1  0  0  0  0
 18 25  1  0  0  0  0
 19  2  1  6  0  0  0
 19 26  1  0  0  0  0
 20 17  1  0  0  0  0
 22 20  1  0  0  0  0
 22 10  1  0  0  0  0
 23 14  1  0  0  0  0
 24 27  2  0  0  0  0
 26 25  2  0  0  0  0
 27  7  1  0  0  0  0
 29 30  1  0  0  0  0
 30 28  1  0  0  0  0
M  END
>  <MODEL>
6

>  <REMARK>
 VINA RESULT:      -7.5      1.893      5.840
  Name = 
  2 active torsions:
  status: ('A' for Active; 'I' for Inactive)
    1  A    between atoms: C_11  and  C_28
    2  A    between atoms: C_28  and  C_30
                            x       y       z     vdW  Elec       q    Type
                         _______ _______ _______ _____ _____    ______ ____

>  <TORSDO>
F 2

$$$$
=
 OpenBabel11112416263D

 30 35  0  0  1  0  0  0  0  0999 V2000
  187.7380  176.1150  143.7750 C   0  0  1  0  0  3  0  0  0  0  0  0
  186.0910  177.2050  145.4430 C   0  0  0  0  0  0  0  0  0  0  0  0
  190.8580  176.5980  146.1860 N   0  0  0  0  0  2  0  0  0  0  0  0
  188.7540  174.9600  143.7080 C   0  0  1  0  0  3  0  0  0  0  0  0
  186.6540  175.8200  142.9200 O   0  0  0  0  0  0  0  0  0  0  0  0
  188.4410  174.6610  140.0780 O   0  0  0  0  0  0  0  0  0  0  0  0
  191.5720  174.0180  142.2030 C   0  0  1  0  0  3  0  0  0  0  0  0
  188.2370  175.0270  141.2670 C   0  0  0  0  0  0  0  0  0  0  0  0
  191.9730  174.1880  143.6420 C   0  0  1  0  0  3  0  0  0  0  0  0
  191.9680  176.0470  145.4250 C   0  0  2  0  0  3  0  0  0  0  0  0
  187.0790  175.9360  141.5730 C   0  0  2  0  0  3  0  0  0  0  0  0
  189.1230  174.6200  142.3240 N   0  0  0  0  0  0  0  0  0  0  0  0
  185.8080  177.6500  146.8380 C   0  0  0  0  0  2  0  0  0  0  0  0
  193.4850  174.2280  143.5750 C   0  0  0  0  0  2  0  0  0  0  0  0
  192.5760  173.0400  141.6340 C   0  0  0  0  0  2  0  0  0  0  0  0
  185.3550  177.5440  144.5300 O   0  0  0  0  0  0  0  0  0  0  0  0
  189.7470  176.0690  145.7990 C   0  0  2  0  0  3  0  0  0  0  0  0
  187.0580  178.3070  147.4160 C   0  0  0  0  0  2  0  0  0  0  0  0
  187.2620  176.2750  145.2320 C   0  0  2  0  0  3  0  0  0  0  0  0
  189.9330  175.0750  144.7100 C   0  0  2  0  0  3  0  0  0  0  0  0
  192.9170  177.1620  145.0300 C   0  0  0  0  0  1  0  0  0  0  0  0
  191.3090  175.4480  144.1810 C   0  0  2  0  0  3  0  0  0  0  0  0
  193.8550  173.3020  142.4210 C   0  0  0  0  0  2  0  0  0  0  0  0
  189.8020  172.4700  141.7030 O   0  0  0  0  0  0  0  0  0  0  0  0
  188.3150  177.5240  147.1360 C   0  0  0  0  0  3  0  0  0  0  0  0
  188.4340  176.6490  146.1240 C   0  0  0  0  0  0  0  0  0  0  0  0
  190.1320  173.6330  142.0590 C   0  0  0  0  0  0  0  0  0  0  0  0
  187.3790  177.3830  141.1750 C   0  0  0  0  0  2  0  0  0  0  0  0
  185.0660  178.2900  140.9710 C   0  0  0  0  0  1  0  0  0  0  0  0
  186.3280  177.9170  140.2170 C   0  0  0  0  0  2  0  0  0  0  0  0
  1  5  1  6  0  0  0
  1 19  1  0  0  0  0
  2 13  1  0  0  0  0
  4 12  1  6  0  0  0
  4  1  1  0  0  0  0
  4 20  1  0  0  0  0
  6  8  2  0  0  0  0
  7 15  1  1  0  0  0
  7  9  1  0  0  0  0
  8 11  1  0  0  0  0
  8 12  1  0  0  0  0
  9 14  1  6  0  0  0
  9 22  1  0  0  0  0
 10 21  1  6  0  0  0
 10  3  1  0  0  0  0
 11 28  1  1  0  0  0
 11  5  1  0  0  0  0
 13 18  1  0  0  0  0
 15 23  1  0  0  0  0
 16  2  2  0  0  0  0
 17 26  1  6  0  0  0
 17  3  1  0  0  0  0
 19  2  1  6  0  0  0
 19 26  1  0  0  0  0
 20 17  1  0  0  0  0
 22 20  1  0  0  0  0
 22 10  1  0  0  0  0
 23 14  1  0  0  0  0
 24 27  2  0  0  0  0
 25 18  1  0  0  0  0
 26 25  2  0  0  0  0
 27  7  1  0  0  0  0
 27 12  1  0  0  0  0
 30 29  1  0  0  0  0
 30 28  1  0  0  0  0
M  END
>  <MODEL>
7

>  <REMARK>
 VINA RESULT:      -7.2      1.970      5.806
  Name = 
  2 active torsions:
  status: ('A' for Active; 'I' for Inactive)
    1  A    between atoms: C_11  and  C_28
    2  A    between atoms: C_28  and  C_30
                            x       y       z     vdW  Elec       q    Type
                         _______ _______ _______ _____ _____    ______ ____

>  <TORSDO>
F 2

$$$$
=
 OpenBabel11112416263D

 30 35  0  0  1  0  0  0  0  0999 V2000
  187.8960  177.4660  144.2530 C   0  0  1  0  0  3  0  0  0  0  0  0
  185.7540  178.6760  143.4590 C   0  0  0  0  0  0  0  0  0  0  0  0
  188.1910  175.3160  140.9260 N   0  0  0  0  0  2  0  0  0  0  0  0
  189.3490  177.2250  143.8010 C   0  0  1  0  0  3  0  0  0  0  0  0
  187.9060  178.2750  145.4100 O   0  0  0  0  0  0  0  0  0  0  0  0
  190.5080  176.6780  147.2250 O   0  0  0  0  0  0  0  0  0  0  0  0
  191.8440  175.0300  144.0260 C   0  0  1  0  0  3  0  0  0  0  0  0
  189.7640  176.9660  146.2490 C   0  0  0  0  0  0  0  0  0  0  0  0
  191.4650  174.9960  142.5720 C   0  0  1  0  0  3  0  0  0  0  0  0
  189.3750  174.5010  141.1490 C   0  0  2  0  0  3  0  0  0  0  0  0
  188.3870  177.5140  146.5050 C   0  0  2  0  0  3  0  0  0  0  0  0
  190.2010  176.7370  144.8990 N   0  0  0  0  0  0  0  0  0  0  0  0
  184.8470  179.0420  142.3320 C   0  0  0  0  0  2  0  0  0  0  0  0
  192.1290  173.7290  142.0740 C   0  0  0  0  0  2  0  0  0  0  0  0
  193.2850  174.5740  144.0610 C   0  0  0  0  0  2  0  0  0  0  0  0
  185.4000  178.8560  144.6140 O   0  0  0  0  0  0  0  0  0  0  0  0
  188.2520  176.3920  141.6350 C   0  0  2  0  0  3  0  0  0  0  0  0
  184.6860  177.8360  141.4100 C   0  0  0  0  0  2  0  0  0  0  0  0
  187.1270  178.1540  143.1080 C   0  0  2  0  0  3  0  0  0  0  0  0
  189.4900  176.4720  142.4530 C   0  0  2  0  0  3  0  0  0  0  0  0
  188.9710  173.0460  141.2870 C   0  0  0  0  0  1  0  0  0  0  0  0
  189.9450  175.0210  142.4700 C   0  0  2  0  0  3  0  0  0  0  0  0
  193.4110  173.6060  142.8900 C   0  0  0  0  0  2  0  0  0  0  0  0
  192.5030  177.1410  144.9670 O   0  0  0  0  0  0  0  0  0  0  0  0
  185.9930  177.1500  141.1080 C   0  0  0  0  0  3  0  0  0  0  0  0
  187.0790  177.2420  141.8940 C   0  0  0  0  0  0  0  0  0  0  0  0
  191.5650  176.3620  144.6510 C   0  0  0  0  0  0  0  0  0  0  0  0
  187.4130  176.4130  146.9280 C   0  0  0  0  0  2  0  0  0  0  0  0
  186.1990  178.2920  148.0280 C   0  0  0  0  0  1  0  0  0  0  0  0
  186.0490  176.9880  147.2680 C   0  0  0  0  0  2  0  0  0  0  0  0
  1  5  1  1  0  0  0
  2 16  2  0  0  0  0
  3 10  1  0  0  0  0
  4  1  1  0  0  0  0
  4 12  1  1  0  0  0
  5 11  1  0  0  0  0
  7 15  1  6  0  0  0
  7 27  1  0  0  0  0
  8 11  1  0  0  0  0
  8  6  2  0  0  0  0
  9 14  1  1  0  0  0
  9  7  1  0  0  0  0
 10 21  1  1  0  0  0
 10 22  1  0  0  0  0
 11 28  1  6  0  0  0
 12  8  1  0  0  0  0
 13  2  1  0  0  0  0
 14 23  1  0  0  0  0
 17  3  1  1  0  0  0
 17 26  1  0  0  0  0
 17 20  1  0  0  0  0
 18 13  1  0  0  0  0
 19 26  1  6  0  0  0
 19  2  1  0  0  0  0
 19  1  1  0  0  0  0
 20 22  1  0  0  0  0
 20  4  1  0  0  0  0
 22  9  1  0  0  0  0
 23 15  1  0  0  0  0
 25 18  1  0  0  0  0
 25 26  2  0  0  0  0
 27 12  1  0  0  0  0
 27 24  2  0  0  0  0
 28 30  1  0  0  0  0
 30 29  1  0  0  0  0
M  END
>  <MODEL>
8

>  <REMARK>
 VINA RESULT:      -7.1      2.123      6.762
  Name = 
  2 active torsions:
  status: ('A' for Active; 'I' for Inactive)
    1  A    between atoms: C_11  and  C_28
    2  A    between atoms: C_28  and  C_30
                            x       y       z     vdW  Elec       q    Type
                         _______ _______ _______ _____ _____    ______ ____

>  <TORSDO>
F 2

$$$$
=
 OpenBabel11112416263D

 30 35  0  0  1  0  0  0  0  0999 V2000
  188.6050  177.2060  144.6450 C   0  0  1  0  0  3  0  0  0  0  0  0
  186.3660  178.4900  144.4930 C   0  0  0  0  0  0  0  0  0  0  0  0
  188.0370  175.3430  141.1830 N   0  0  0  0  0  2  0  0  0  0  0  0
  189.9000  176.9970  143.8360 C   0  0  1  0  0  3  0  0  0  0  0  0
  188.9140  177.9160  145.8260 O   0  0  0  0  0  0  0  0  0  0  0  0
  191.8360  176.1590  146.8220 O   0  0  0  0  0  0  0  0  0  0  0  0
  192.3200  174.7790  143.2730 C   0  0  1  0  0  3  0  0  0  0  0  0
  190.8860  176.5320  146.0820 C   0  0  0  0  0  0  0  0  0  0  0  0
  191.6010  174.8690  141.9560 C   0  0  1  0  0  3  0  0  0  0  0  0
  189.2180  174.5060  141.0460 C   0  0  2  0  0  3  0  0  0  0  0  0
  189.6250  177.0630  146.7070 C   0  0  2  0  0  3  0  0  0  0  0  0
  190.9790  176.4150  144.6520 N   0  0  0  0  0  0  0  0  0  0  0  0
  185.2240  178.9530  143.6520 C   0  0  0  0  0  2  0  0  0  0  0  0
  192.0930  173.6450  141.2120 C   0  0  0  0  0  2  0  0  0  0  0  0
  193.7150  174.3140  142.9210 C   0  0  0  0  0  2  0  0  0  0  0  0
  186.3060  178.5740  145.7090 O   0  0  0  0  0  0  0  0  0  0  0  0
  188.2930  176.3550  141.9410 C   0  0  2  0  0  3  0  0  0  0  0  0
  184.8160  177.8300  142.7030 C   0  0  0  0  0  2  0  0  0  0  0  0
  187.6010  177.9920  143.7790 C   0  0  2  0  0  3  0  0  0  0  0  0
  189.6940  176.3590  142.4380 C   0  0  2  0  0  3  0  0  0  0  0  0
  188.8230  173.0460  141.1610 C   0  0  0  0  0  1  0  0  0  0  0  0
  190.1030  174.9100  142.2280 C   0  0  2  0  0  3  0  0  0  0  0  0
  193.5310  173.4480  141.6810 C   0  0  0  0  0  2  0  0  0  0  0  0
  193.2390  176.8000  144.1930 O   0  0  0  0  0  0  0  0  0  0  0  0
  185.9940  177.1660  142.0390 C   0  0  0  0  0  3  0  0  0  0  0  0
  187.2390  177.1860  142.5430 C   0  0  0  0  0  0  0  0  0  0  0  0
  192.2330  176.0550  144.0520 C   0  0  0  0  0  0  0  0  0  0  0  0
  188.7550  175.9340  147.2630 C   0  0  0  0  0  2  0  0  0  0  0  0
  189.3160  173.7910  146.1190 C   0  0  0  0  0  1  0  0  0  0  0  0
  189.5370  174.6350  147.3600 C   0  0  0  0  0  2  0  0  0  0  0  0
  1  5  1  1  0  0  0
  2 16  2  0  0  0  0
  4  1  1  0  0  0  0
  4 12  1  1  0  0  0
  5 11  1  0  0  0  0
  7 15  1  6  0  0  0
  7 27  1  0  0  0  0
  8 11  1  0  0  0  0
  8  6  2  0  0  0  0
  9 14  1  6  0  0  0
  9 22  1  0  0  0  0
  9  7  1  0  0  0  0
 10 21  1  1  0  0  0
 10  3  1  0  0  0  0
 10 22  1  0  0  0  0
 11 28  1  6  0  0  0
 12  8  1  0  0  0  0
 13  2  1  0  0  0  0
 14 23  1  0  0  0  0
 17  3  1  1  0  0  0
 17 20  1  0  0  0  0
 17 26  1  0  0  0  0
 18 13  1  0  0  0  0
 19 26  1  6  0  0  0
 19  2  1  0  0  0  0
 19  1  1  0  0  0  0
 20  4  1  0  0  0  0
 22 20  1  0  0  0  0
 23 15  1  0  0  0  0
 25 26  2  0  0  0  0
 25 18  1  0  0  0  0
 27 24  2  0  0  0  0
 27 12  1  0  0  0  0
 28 30  1  0  0  0  0
 29 30  1  0  0  0  0
M  END
>  <MODEL>
9

>  <REMARK>
 VINA RESULT:      -7.0      2.283      6.349
  Name = 
  2 active torsions:
  status: ('A' for Active; 'I' for Inactive)
    1  A    between atoms: C_11  and  C_28
    2  A    between atoms: C_28  and  C_30
                            x       y       z     vdW  Elec       q    Type
                         _______ _______ _______ _____ _____    ______ ____

>  <TORSDO>
F 2

$$$$
