=
 OpenBabel11112418063D

 34 42  0  0  1  0  0  0  0  0999 V2000
  189.0000  175.6510  143.0830 C   0  0  2  0  0  3  0  0  0  0  0  0
  190.9110  174.2510  142.7080 O   0  0  0  0  0  0  0  0  0  0  0  0
  184.5420  178.8720  146.8290 C   0  0  2  0  0  3  0  0  0  0  0  0
  187.2140  177.2680  143.5640 C   0  0  1  0  0  3  0  0  0  0  0  0
  186.5700  177.5010  146.0700 C   0  0  2  0  0  3  0  0  0  0  0  0
  186.2110  178.0920  148.3570 O   0  0  0  0  0  1  0  0  0  0  0  0
  183.8440  177.8050  146.2230 O   0  0  0  0  0  0  0  0  0  0  0  0
  185.0300  178.5760  144.2520 C   0  0  1  0  0  3  0  0  0  0  0  0
  190.1900  174.4120  144.9800 C   0  0  2  0  0  3  0  0  0  0  0  0
  192.6800  175.1750  146.8960 C   0  0  0  0  0  2  0  0  0  0  0  0
  188.0070  177.2990  146.2390 N   0  0  0  0  0  2  0  0  0  0  0  0
  186.2430  179.2760  144.4210 O   0  0  0  0  0  0  0  0  0  0  0  0
  189.8590  175.7300  145.7170 C   0  0  1  0  0  3  0  0  0  0  0  0
  191.8430  173.5690  143.5050 C   0  0  0  0  0  2  0  0  0  0  0  0
  186.2930  177.8810  144.6160 C   0  0  2  0  0  0  0  0  0  0  0  0
  184.0670  178.9360  145.4070 C   0  0  2  0  0  3  0  0  0  0  0  0
  192.6560  175.0740  145.3720 C   0  0  2  0  0  3  0  0  0  0  0  0
  187.8950  175.9930  144.0810 C   0  0  2  0  0  3  0  0  0  0  0  0
  186.0290  178.5370  147.0480 C   0  0  2  0  0  3  0  0  0  0  0  0
  188.3670  176.0440  145.5630 C   0  0  2  0  0  3  0  0  0  0  0  0
  187.5530  176.7750  141.3840 C   0  0  0  0  0  2  0  0  0  0  0  0
  191.6310  176.1460  147.4150 C   0  0  0  0  0  2  0  0  0  0  0  0
  186.5490  176.9780  142.3570 O   0  0  0  0  0  0  0  0  0  0  0  0
  190.2230  175.6210  147.1910 C   0  0  0  0  0  2  0  0  0  0  0  0
  191.6510  173.9860  144.9500 C   0  0  1  0  0  3  0  0  0  0  0  0
  188.3800  175.5130  141.6930 C   0  0  0  0  0  2  0  0  0  0  0  0
  189.7640  174.3950  143.5050 C   0  0  1  0  0  3  0  0  0  0  0  0
  193.9800  174.7420  144.9060 N   0  0  0  0  0  0  0  0  0  0  0  0
  194.9930  174.8240  145.6920 C   0  0  0  0  0  3  0  0  0  0  0  0
  197.3780  172.9200  143.6870 C   0  0  0  0  0  2  0  0  0  0  0  0
  196.9730  173.3500  146.0340 C   0  0  0  0  0  2  0  0  0  0  0  0
  196.3720  174.4820  145.2170 C   0  0  0  0  0  3  0  0  0  0  0  0
  197.3670  172.2660  145.0510 C   0  0  0  0  0  2  0  0  0  0  0  0
  196.3540  174.0270  143.7710 C   0  0  0  0  0  2  0  0  0  0  0  0
  1 26  1  6  0  0  0
  1 27  1  0  0  0  0
  1 18  1  0  0  0  0
  2 27  1  0  0  0  0
  2 14  1  0  0  0  0
  3  7  1  1  0  0  0
  3 19  1  0  0  0  0
  4 23  1  6  0  0  0
  4 18  1  0  0  0  0
  4 15  1  0  0  0  0
  5 11  1  6  0  0  0
  5 19  1  0  0  0  0
  8 12  1  1  0  0  0
  8 15  1  0  0  0  0
  8 16  1  0  0  0  0
  9 13  1  0  0  0  0
 10 22  1  0  0  0  0
 12 15  1  0  0  0  0
 13 24  1  0  0  0  0
 14 25  1  0  0  0  0
 15  5  1  0  0  0  0
 16  7  1  0  0  0  0
 16  3  1  0  0  0  0
 17 10  1  0  0  0  0
 18 20  1  0  0  0  0
 19  6  1  0  0  0  0
 20 13  1  0  0  0  0
 20 11  1  0  0  0  0
 21 26  1  0  0  0  0
 21 23  1  0  0  0  0
 24 22  1  0  0  0  0
 25  9  1  0  0  0  0
 25 17  1  0  0  0  0
 27  9  1  0  0  0  0
 28 17  1  0  0  0  0
 28 29  2  0  0  0  0
 30 34  1  0  0  0  0
 30 33  1  0  0  0  0
 32 29  1  0  0  0  0
 32 31  1  0  0  0  0
 33 31  1  0  0  0  0
 34 32  1  0  0  0  0
M  END
>  <MODEL>
1

>  <REMARK>
 VINA RESULT:      -9.5      0.000      0.000
  Name = 
  2 active torsions:
  status: ('A' for Active; 'I' for Inactive)
    1  A    between atoms: C_17  and  N_28
    2  A    between atoms: C_29  and  C_32
                            x       y       z     vdW  Elec       q    Type
                         _______ _______ _______ _____ _____    ______ ____

>  <TORSDO>
F 2

$$$$
=
 OpenBabel11112418063D

 34 42  0  0  1  0  0  0  0  0999 V2000
  189.0180  175.8910  142.7890 C   0  0  2  0  0  3  0  0  0  0  0  0
  191.0120  174.6970  142.1930 O   0  0  0  0  0  0  0  0  0  0  0  0
  184.7120  178.6740  147.0280 C   0  0  2  0  0  3  0  0  0  0  0  0
  187.1380  177.3150  143.4740 C   0  0  1  0  0  3  0  0  0  0  0  0
  186.7720  177.5170  146.0380 C   0  0  2  0  0  3  0  0  0  0  0  0
  186.6230  178.1010  148.3500 O   0  0  0  0  0  1  0  0  0  0  0  0
  184.0660  177.5300  146.5130 O   0  0  0  0  0  0  0  0  0  0  0  0
  184.9220  178.3930  144.4120 C   0  0  1  0  0  3  0  0  0  0  0  0
  190.5510  174.8160  144.5340 C   0  0  2  0  0  3  0  0  0  0  0  0
  193.1520  175.8710  146.1380 C   0  0  0  0  0  2  0  0  0  0  0  0
  188.2320  177.4720  146.0350 N   0  0  0  0  0  2  0  0  0  0  0  0
  186.0630  179.2210  144.4340 O   0  0  0  0  0  0  0  0  0  0  0  0
  190.1680  176.1020  145.3020 C   0  0  1  0  0  3  0  0  0  0  0  0
  192.0990  174.1320  142.8750 C   0  0  0  0  0  2  0  0  0  0  0  0
  186.2860  177.8420  144.6260 C   0  0  2  0  0  0  0  0  0  0  0  0
  184.0680  178.6660  145.6730 C   0  0  2  0  0  3  0  0  0  0  0  0
  192.9590  175.7440  144.6280 C   0  0  2  0  0  3  0  0  0  0  0  0
  188.0080  176.1290  143.9100 C   0  0  2  0  0  3  0  0  0  0  0  0
  186.2410  178.5040  147.0710 C   0  0  2  0  0  3  0  0  0  0  0  0
  188.6430  176.2530  145.3250 C   0  0  2  0  0  3  0  0  0  0  0  0
  187.2690  176.8270  141.2700 C   0  0  0  0  0  2  0  0  0  0  0  0
  192.0720  176.7320  146.7760 C   0  0  0  0  0  2  0  0  0  0  0  0
  186.3700  176.9370  142.3550 O   0  0  0  0  0  0  0  0  0  0  0  0
  190.7130  176.0560  146.7220 C   0  0  0  0  0  2  0  0  0  0  0  0
  192.0350  174.5480  144.3320 C   0  0  1  0  0  3  0  0  0  0  0  0
  188.2570  175.6660  141.4820 C   0  0  0  0  0  2  0  0  0  0  0  0
  189.9580  174.7300  143.1200 C   0  0  1  0  0  3  0  0  0  0  0  0
  194.2480  175.5480  144.0090 N   0  0  0  0  0  0  0  0  0  0  0  0
  195.1840  176.4160  144.1520 C   0  0  0  0  0  3  0  0  0  0  0  0
  197.3830  175.3860  141.4250 C   0  0  0  0  0  2  0  0  0  0  0  0
  197.0540  174.8180  143.7550 C   0  0  0  0  0  2  0  0  0  0  0  0
  196.5240  176.2220  143.5130 C   0  0  0  0  0  3  0  0  0  0  0  0
  197.3490  174.2230  142.3910 C   0  0  0  0  0  2  0  0  0  0  0  0
  196.4460  176.4150  142.0110 C   0  0  0  0  0  2  0  0  0  0  0  0
  1 26  1  6  0  0  0
  1 27  1  0  0  0  0
  1 18  1  0  0  0  0
  2 14  1  0  0  0  0
  2 27  1  0  0  0  0
  3  7  1  1  0  0  0
  3 19  1  0  0  0  0
  4 23  1  6  0  0  0
  4 18  1  0  0  0  0
  4 15  1  0  0  0  0
  5 11  1  6  0  0  0
  5 19  1  0  0  0  0
  8 12  1  1  0  0  0
  8 15  1  0  0  0  0
  8 16  1  0  0  0  0
  9 13  1  0  0  0  0
 10 22  1  0  0  0  0
 12 15  1  0  0  0  0
 13 20  1  0  0  0  0
 13 24  1  0  0  0  0
 14 25  1  0  0  0  0
 15  5  1  0  0  0  0
 16  7  1  0  0  0  0
 16  3  1  0  0  0  0
 17 10  1  0  0  0  0
 18 20  1  0  0  0  0
 19  6  1  0  0  0  0
 20 11  1  0  0  0  0
 21 26  1  0  0  0  0
 21 23  1  0  0  0  0
 24 22  1  0  0  0  0
 25  9  1  0  0  0  0
 25 17  1  0  0  0  0
 27  9  1  0  0  0  0
 28 29  2  0  0  0  0
 28 17  1  0  0  0  0
 30 34  1  0  0  0  0
 30 33  1  0  0  0  0
 32 31  1  0  0  0  0
 32 29  1  0  0  0  0
 33 31  1  0  0  0  0
 34 32  1  0  0  0  0
M  END
>  <MODEL>
2

>  <REMARK>
 VINA RESULT:      -9.3      1.104      1.323
  Name = 
  2 active torsions:
  status: ('A' for Active; 'I' for Inactive)
    1  A    between atoms: C_17  and  N_28
    2  A    between atoms: C_29  and  C_32
                            x       y       z     vdW  Elec       q    Type
                         _______ _______ _______ _____ _____    ______ ____

>  <TORSDO>
F 2

$$$$
=
 OpenBabel11112418063D

 34 42  0  0  1  0  0  0  0  0999 V2000
  191.7540  174.9150  142.8090 C   0  0  2  0  0  3  0  0  0  0  0  0
  189.9130  176.4480  142.9510 O   0  0  0  0  0  0  0  0  0  0  0  0
  197.5370  172.2620  144.7530 C   0  0  2  0  0  3  0  0  0  0  0  0
  193.5430  173.2350  142.8890 C   0  0  1  0  0  3  0  0  0  0  0  0
  195.3980  173.6700  144.6560 C   0  0  2  0  0  3  0  0  0  0  0  0
  196.9000  173.7530  146.5130 O   0  0  0  0  0  1  0  0  0  0  0  0
  197.8090  172.9510  143.5520 O   0  0  0  0  0  0  0  0  0  0  0  0
  195.7780  171.8360  142.8320 C   0  0  1  0  0  3  0  0  0  0  0  0
  191.7120  176.8640  144.4680 C   0  0  2  0  0  3  0  0  0  0  0  0
  190.5880  177.1750  147.4830 C   0  0  0  0  0  2  0  0  0  0  0  0
  194.2570  174.1640  145.4220 N   0  0  0  0  0  2  0  0  0  0  0  0
  194.8360  171.4470  143.8070 O   0  0  0  0  0  0  0  0  0  0  0  0
  192.3900  175.7990  145.3580 C   0  0  1  0  0  3  0  0  0  0  0  0
  189.5260  177.4930  143.8020 C   0  0  0  0  0  2  0  0  0  0  0  0
  194.8830  172.8210  143.4940 C   0  0  2  0  0  0  0  0  0  0  0  0
  197.2050  171.6830  143.4090 C   0  0  2  0  0  3  0  0  0  0  0  0
  189.8150  176.8000  146.2200 C   0  0  2  0  0  3  0  0  0  0  0  0
  193.2190  174.7050  143.1850 C   0  0  2  0  0  3  0  0  0  0  0  0
  196.3790  172.9040  145.5370 C   0  0  2  0  0  3  0  0  0  0  0  0
  193.5870  175.1940  144.6160 C   0  0  2  0  0  3  0  0  0  0  0  0
  192.1160  173.0890  141.1430 C   0  0  0  0  0  2  0  0  0  0  0  0
  191.7630  176.2400  147.7260 C   0  0  0  0  0  2  0  0  0  0  0  0
  193.4810  173.0190  141.4990 O   0  0  0  0  0  0  0  0  0  0  0  0
  192.8450  176.4150  146.6740 C   0  0  0  0  0  2  0  0  0  0  0  0
  190.4450  177.5120  145.0080 C   0  0  1  0  0  3  0  0  0  0  0  0
  191.5590  174.5100  141.3490 C   0  0  0  0  0  2  0  0  0  0  0  0
  191.3090  176.3540  143.0760 C   0  0  1  0  0  3  0  0  0  0  0  0
  188.4390  177.2010  146.3790 N   0  0  0  0  0  0  0  0  0  0  0  0
  187.5750  176.3980  146.8880 C   0  0  0  0  0  3  0  0  0  0  0  0
  184.5200  178.1020  145.8410 C   0  0  0  0  0  2  0  0  0  0  0  0
  186.0310  178.1640  147.7300 C   0  0  0  0  0  2  0  0  0  0  0  0
  186.1430  176.8060  147.0570 C   0  0  0  0  0  3  0  0  0  0  0  0
  185.2070  179.0410  146.8080 C   0  0  0  0  0  2  0  0  0  0  0  0
  185.4460  176.9160  145.7140 C   0  0  0  0  0  2  0  0  0  0  0  0
  1 26  1  6  0  0  0
  1 27  1  0  0  0  0
  1 18  1  0  0  0  0
  2 27  1  0  0  0  0
  2 14  1  0  0  0  0
  3  7  1  6  0  0  0
  3 19  1  0  0  0  0
  4 23  1  6  0  0  0
  4 18  1  0  0  0  0
  4 15  1  0  0  0  0
  5 11  1  1  0  0  0
  5 19  1  0  0  0  0
  8 16  1  0  0  0  0
  8 15  1  0  0  0  0
  8 12  1  1  0  0  0
  9 25  1  0  0  0  0
  9 13  1  0  0  0  0
 10 22  1  0  0  0  0
 13 24  1  0  0  0  0
 14 25  1  0  0  0  0
 15 12  1  0  0  0  0
 15  5  1  0  0  0  0
 16  7  1  0  0  0  0
 16  3  1  0  0  0  0
 17 28  1  0  0  0  0
 17 10  1  0  0  0  0
 18 20  1  0  0  0  0
 19  6  1  0  0  0  0
 20 13  1  0  0  0  0
 20 11  1  0  0  0  0
 21 26  1  0  0  0  0
 21 23  1  0  0  0  0
 24 22  1  0  0  0  0
 25 17  1  0  0  0  0
 27  9  1  0  0  0  0
 28 29  2  0  0  0  0
 29 32  1  0  0  0  0
 30 33  1  0  0  0  0
 32 31  1  0  0  0  0
 33 31  1  0  0  0  0
 34 30  1  0  0  0  0
 34 32  1  0  0  0  0
M  END
>  <MODEL>
3

>  <REMARK>
 VINA RESULT:      -8.7      2.527      8.911
  Name = 
  2 active torsions:
  status: ('A' for Active; 'I' for Inactive)
    1  A    between atoms: C_17  and  N_28
    2  A    between atoms: C_29  and  C_32
                            x       y       z     vdW  Elec       q    Type
                         _______ _______ _______ _____ _____    ______ ____

>  <TORSDO>
F 2

$$$$
=
 OpenBabel11112418063D

 34 42  0  0  1  0  0  0  0  0999 V2000
  193.0910  176.0760  145.0670 C   0  0  2  0  0  3  0  0  0  0  0  0
  191.2380  176.0270  146.5900 O   0  0  0  0  0  0  0  0  0  0  0  0
  196.2290  174.7000  139.3630 C   0  0  2  0  0  3  0  0  0  0  0  0
  194.8380  176.2870  143.3530 C   0  0  1  0  0  3  0  0  0  0  0  0
  194.4360  174.9180  141.1820 C   0  0  2  0  0  3  0  0  0  0  0  0
  193.9530  174.0500  139.0090 O   0  0  0  0  0  1  0  0  0  0  0  0
  196.8530  173.9110  140.3520 O   0  0  0  0  0  0  0  0  0  0  0  0
  196.7830  175.9920  141.5970 C   0  0  1  0  0  3  0  0  0  0  0  0
  190.9840  174.6910  144.6260 C   0  0  2  0  0  3  0  0  0  0  0  0
  188.1700  175.3500  143.1760 C   0  0  0  0  0  2  0  0  0  0  0  0
  193.0500  175.2910  141.4560 N   0  0  0  0  0  2  0  0  0  0  0  0
  195.7980  176.9460  141.2670 O   0  0  0  0  0  0  0  0  0  0  0  0
  191.2730  175.1650  143.1830 C   0  0  1  0  0  3  0  0  0  0  0  0
  189.9350  175.5080  146.5880 C   0  0  0  0  0  2  0  0  0  0  0  0
  195.3610  175.8220  141.9960 C   0  0  2  0  0  0  0  0  0  0  0  0
  197.2440  175.2680  140.3110 C   0  0  2  0  0  3  0  0  0  0  0  0
  188.7920  176.0360  144.3910 C   0  0  2  0  0  3  0  0  0  0  0  0
  193.7370  175.3580  143.8840 C   0  0  2  0  0  3  0  0  0  0  0  0
  194.7490  174.9700  139.6900 C   0  0  2  0  0  3  0  0  0  0  0  0
  192.7260  174.8450  142.8180 C   0  0  2  0  0  3  0  0  0  0  0  0
  195.3170  177.1660  145.3800 C   0  0  0  0  0  2  0  0  0  0  0  0
  189.1050  175.3700  141.9770 C   0  0  0  0  0  2  0  0  0  0  0  0
  195.8540  176.3990  144.3220 O   0  0  0  0  0  0  0  0  0  0  0  0
  190.3240  174.4910  142.2020 C   0  0  0  0  0  2  0  0  0  0  0  0
  189.6080  175.0060  145.1950 C   0  0  1  0  0  3  0  0  0  0  0  0
  194.1760  176.4130  146.0890 C   0  0  0  0  0  2  0  0  0  0  0  0
  191.9600  175.2440  145.6750 C   0  0  1  0  0  3  0  0  0  0  0  0
  187.7360  176.5860  145.2060 N   0  0  0  0  0  0  0  0  0  0  0  0
  187.4590  177.8400  145.1660 C   0  0  0  0  0  3  0  0  0  0  0  0
  184.0660  177.9150  146.5130 C   0  0  0  0  0  2  0  0  0  0  0  0
  185.4910  179.3680  145.2040 C   0  0  0  0  0  2  0  0  0  0  0  0
  186.3650  178.4200  146.0080 C   0  0  0  0  0  3  0  0  0  0  0  0
  184.0660  178.8670  145.3380 C   0  0  0  0  0  2  0  0  0  0  0  0
  185.4590  177.3310  146.5500 C   0  0  0  0  0  2  0  0  0  0  0  0
  1 27  1  0  0  0  0
  1 26  1  1  0  0  0
  3 19  1  0  0  0  0
  3 16  1  0  0  0  0
  3  7  1  1  0  0  0
  4 18  1  0  0  0  0
  4 23  1  1  0  0  0
  5 11  1  6  0  0  0
  5 15  1  0  0  0  0
  6 19  1  0  0  0  0
  8 12  1  6  0  0  0
  8 15  1  0  0  0  0
  9 25  1  0  0  0  0
  9 27  1  0  0  0  0
 10 17  1  0  0  0  0
 11 20  1  0  0  0  0
 12 15  1  0  0  0  0
 13  9  1  0  0  0  0
 14  2  1  0  0  0  0
 15  4  1  0  0  0  0
 16  7  1  0  0  0  0
 16  8  1  0  0  0  0
 17 25  1  0  0  0  0
 17 28  1  0  0  0  0
 18  1  1  0  0  0  0
 19  5  1  0  0  0  0
 20 13  1  0  0  0  0
 20 18  1  0  0  0  0
 21 26  1  0  0  0  0
 22 24  1  0  0  0  0
 22 10  1  0  0  0  0
 23 21  1  0  0  0  0
 24 13  1  0  0  0  0
 25 14  1  0  0  0  0
 27  2  1  0  0  0  0
 29 28  2  0  0  0  0
 29 32  1  0  0  0  0
 30 34  1  0  0  0  0
 31 33  1  0  0  0  0
 31 32  1  0  0  0  0
 32 34  1  0  0  0  0
 33 30  1  0  0  0  0
M  END
>  <MODEL>
4

>  <REMARK>
 VINA RESULT:      -8.6      3.029      9.305
  Name = 
  2 active torsions:
  status: ('A' for Active; 'I' for Inactive)
    1  A    between atoms: C_17  and  N_28
    2  A    between atoms: C_29  and  C_32
                            x       y       z     vdW  Elec       q    Type
                         _______ _______ _______ _____ _____    ______ ____

>  <TORSDO>
F 2

$$$$
=
 OpenBabel11112418063D

 34 42  0  0  1  0  0  0  0  0999 V2000
  191.5040  172.9590  143.3260 C   0  0  2  0  0  3  0  0  0  0  0  0
  189.1640  173.3230  142.9380 O   0  0  0  0  0  0  0  0  0  0  0  0
  197.9010  174.7580  143.6450 C   0  0  2  0  0  3  0  0  0  0  0  0
  193.8720  172.7450  143.9380 C   0  0  1  0  0  3  0  0  0  0  0  0
  195.3510  174.8140  143.4040 C   0  0  2  0  0  3  0  0  0  0  0  0
  196.6820  176.7970  143.3480 O   0  0  0  0  0  1  0  0  0  0  0  0
  197.7900  173.9110  142.5220 O   0  0  0  0  0  0  0  0  0  0  0  0
  196.5000  172.5630  144.0730 C   0  0  1  0  0  3  0  0  0  0  0  0
  190.5950  175.1450  142.3520 C   0  0  2  0  0  3  0  0  0  0  0  0
  189.5280  177.8860  143.6940 C   0  0  0  0  0  2  0  0  0  0  0  0
  194.1290  175.5190  143.7840 N   0  0  0  0  0  2  0  0  0  0  0  0
  195.8730  173.1990  145.1640 O   0  0  0  0  0  0  0  0  0  0  0  0
  191.7140  175.7220  143.2490 C   0  0  1  0  0  3  0  0  0  0  0  0
  188.3530  174.4040  142.5630 C   0  0  0  0  0  2  0  0  0  0  0  0
  195.2640  173.3730  143.9050 C   0  0  2  0  0  0  0  0  0  0  0  0
  197.8460  173.2650  143.7770 C   0  0  2  0  0  3  0  0  0  0  0  0
  188.9910  176.4680  143.8840 C   0  0  2  0  0  3  0  0  0  0  0  0
  192.9060  173.4610  142.9850 C   0  0  2  0  0  3  0  0  0  0  0  0
  196.5960  175.5270  143.9180 C   0  0  2  0  0  3  0  0  0  0  0  0
  193.0370  175.0110  142.9430 C   0  0  2  0  0  3  0  0  0  0  0  0
  192.6370  170.8560  144.0540 C   0  0  0  0  0  2  0  0  0  0  0  0
  191.0090  177.9790  144.0280 C   0  0  0  0  0  2  0  0  0  0  0  0
  193.8850  171.3700  143.6360 O   0  0  0  0  0  0  0  0  0  0  0  0
  191.8580  177.2200  143.0220 C   0  0  0  0  0  2  0  0  0  0  0  0
  189.1860  175.6720  142.5800 C   0  0  1  0  0  3  0  0  0  0  0  0
  191.4860  171.4350  143.2120 C   0  0  0  0  0  2  0  0  0  0  0  0
  190.4440  173.6190  142.4420 C   0  0  1  0  0  3  0  0  0  0  0  0
  187.5910  176.5420  144.2230 N   0  0  0  0  0  0  0  0  0  0  0  0
  187.2180  176.8410  145.4150 C   0  0  0  0  0  3  0  0  0  0  0  0
  184.0450  178.6010  145.8200 C   0  0  0  0  0  2  0  0  0  0  0  0
  185.5790  177.3590  147.2200 C   0  0  0  0  0  2  0  0  0  0  0  0
  185.7670  176.9190  145.7770 C   0  0  0  0  0  3  0  0  0  0  0  0
  184.6870  178.5840  147.1900 C   0  0  0  0  0  2  0  0  0  0  0  0
  185.0420  177.9280  144.9070 C   0  0  0  0  0  2  0  0  0  0  0  0
  1 26  1  6  0  0  0
  3  7  1  6  0  0  0
  3 16  1  0  0  0  0
  3 19  1  0  0  0  0
  4 23  1  6  0  0  0
  5 11  1  1  0  0  0
  5 15  1  0  0  0  0
  5 19  1  0  0  0  0
  6 19  1  0  0  0  0
  7 16  1  0  0  0  0
  8 12  1  1  0  0  0
  9 27  1  0  0  0  0
  9 25  1  0  0  0  0
  9 13  1  0  0  0  0
 10 17  1  0  0  0  0
 10 22  1  0  0  0  0
 14 25  1  0  0  0  0
 14  2  1  0  0  0  0
 15  4  1  0  0  0  0
 15  8  1  0  0  0  0
 15 12  1  0  0  0  0
 16  8  1  0  0  0  0
 17 28  1  0  0  0  0
 18  1  1  0  0  0  0
 18  4  1  0  0  0  0
 20 18  1  0  0  0  0
 20 13  1  0  0  0  0
 20 11  1  0  0  0  0
 23 21  1  0  0  0  0
 24 13  1  0  0  0  0
 24 22  1  0  0  0  0
 25 17  1  0  0  0  0
 26 21  1  0  0  0  0
 27  2  1  0  0  0  0
 27  1  1  0  0  0  0
 28 29  2  0  0  0  0
 29 32  1  0  0  0  0
 30 33  1  0  0  0  0
 32 31  1  0  0  0  0
 33 31  1  0  0  0  0
 34 32  1  0  0  0  0
 34 30  1  0  0  0  0
M  END
>  <MODEL>
5

>  <REMARK>
 VINA RESULT:      -8.5      2.972      9.166
  Name = 
  2 active torsions:
  status: ('A' for Active; 'I' for Inactive)
    1  A    between atoms: C_17  and  N_28
    2  A    between atoms: C_29  and  C_32
                            x       y       z     vdW  Elec       q    Type
                         _______ _______ _______ _____ _____    ______ ____

>  <TORSDO>
F 2

$$$$
=
 OpenBabel11112418063D

 34 42  0  0  1  0  0  0  0  0999 V2000
  190.6470  173.0380  143.2030 C   0  0  2  0  0  3  0  0  0  0  0  0
  189.0550  174.8320  143.1610 O   0  0  0  0  0  0  0  0  0  0  0  0
  196.3990  170.1340  144.8640 C   0  0  2  0  0  3  0  0  0  0  0  0
  192.2230  171.1780  143.5070 C   0  0  1  0  0  3  0  0  0  0  0  0
  194.4520  171.7910  144.6920 C   0  0  2  0  0  3  0  0  0  0  0  0
  196.3190  172.1600  146.1360 O   0  0  0  0  0  1  0  0  0  0  0  0
  196.4760  170.3860  143.4780 O   0  0  0  0  0  0  0  0  0  0  0  0
  194.2300  169.4680  143.5150 C   0  0  1  0  0  3  0  0  0  0  0  0
  191.1730  175.3640  144.1300 C   0  0  2  0  0  3  0  0  0  0  0  0
  190.7680  176.7290  147.0330 C   0  0  0  0  0  2  0  0  0  0  0  0
  193.5620  172.6730  145.4450 N   0  0  0  0  0  2  0  0  0  0  0  0
  193.4860  169.5460  144.7100 O   0  0  0  0  0  0  0  0  0  0  0  0
  191.9110  174.5080  145.1840 C   0  0  1  0  0  3  0  0  0  0  0  0
  188.9740  176.1300  143.6860 C   0  0  0  0  0  2  0  0  0  0  0  0
  193.6100  170.7400  143.9710 C   0  0  2  0  0  0  0  0  0  0  0  0
  195.7230  169.2520  143.8550 C   0  0  2  0  0  3  0  0  0  0  0  0
  189.7050  176.1360  146.1100 C   0  0  2  0  0  3  0  0  0  0  0  0
  192.1280  172.7040  143.3670 C   0  0  2  0  0  3  0  0  0  0  0  0
  195.5130  171.1630  145.5890 C   0  0  2  0  0  3  0  0  0  0  0  0
  192.8480  173.5200  144.4800 C   0  0  2  0  0  3  0  0  0  0  0  0
  190.4430  170.7700  142.1740 C   0  0  0  0  0  2  0  0  0  0  0  0
  191.8620  175.7220  147.3560 C   0  0  0  0  0  2  0  0  0  0  0  0
  191.8380  170.5790  142.2920 O   0  0  0  0  0  0  0  0  0  0  0  0
  192.7020  175.3960  146.1330 C   0  0  0  0  0  2  0  0  0  0  0  0
  190.1290  176.3460  144.6450 C   0  0  1  0  0  3  0  0  0  0  0  0
  190.0990  172.2620  142.0060 C   0  0  0  0  0  2  0  0  0  0  0  0
  190.4270  174.5450  143.0670 C   0  0  1  0  0  3  0  0  0  0  0  0
  188.4460  176.7920  146.3670 N   0  0  0  0  0  0  0  0  0  0  0  0
  187.5350  176.2160  147.0660 C   0  0  0  0  0  3  0  0  0  0  0  0
  184.5780  178.1210  146.0870 C   0  0  0  0  0  2  0  0  0  0  0  0
  186.4150  178.3650  147.6450 C   0  0  0  0  0  2  0  0  0  0  0  0
  186.2250  176.8890  147.3380 C   0  0  0  0  0  3  0  0  0  0  0  0
  185.5490  179.1290  146.6620 C   0  0  0  0  0  2  0  0  0  0  0  0
  185.3060  176.7990  146.1350 C   0  0  0  0  0  2  0  0  0  0  0  0
  1 26  1  6  0  0  0
  1 18  1  0  0  0  0
  2 14  1  0  0  0  0
  3  7  1  6  0  0  0
  3 19  1  0  0  0  0
  4 23  1  6  0  0  0
  4 15  1  0  0  0  0
  5 11  1  1  0  0  0
  5 19  1  0  0  0  0
  7 16  1  0  0  0  0
  8 16  1  0  0  0  0
  8 15  1  0  0  0  0
  8 12  1  1  0  0  0
  9 25  1  0  0  0  0
  9 13  1  0  0  0  0
 10 22  1  0  0  0  0
 13 24  1  0  0  0  0
 14 25  1  0  0  0  0
 15  5  1  0  0  0  0
 15 12  1  0  0  0  0
 16  3  1  0  0  0  0
 17 28  1  0  0  0  0
 17 10  1  0  0  0  0
 18  4  1  0  0  0  0
 18 20  1  0  0  0  0
 19  6  1  0  0  0  0
 20 13  1  0  0  0  0
 20 11  1  0  0  0  0
 21 23  1  0  0  0  0
 24 22  1  0  0  0  0
 25 17  1  0  0  0  0
 26 21  1  0  0  0  0
 27  2  1  0  0  0  0
 27  1  1  0  0  0  0
 27  9  1  0  0  0  0
 28 29  2  0  0  0  0
 29 32  1  0  0  0  0
 30 34  1  0  0  0  0
 30 33  1  0  0  0  0
 32 31  1  0  0  0  0
 33 31  1  0  0  0  0
 34 32  1  0  0  0  0
M  END
>  <MODEL>
6

>  <REMARK>
 VINA RESULT:      -8.4      2.760      8.944
  Name = 
  2 active torsions:
  status: ('A' for Active; 'I' for Inactive)
    1  A    between atoms: C_17  and  N_28
    2  A    between atoms: C_29  and  C_32
                            x       y       z     vdW  Elec       q    Type
                         _______ _______ _______ _____ _____    ______ ____

>  <TORSDO>
F 2

$$$$
=
 OpenBabel11112418063D

 34 42  0  0  1  0  0  0  0  0999 V2000
  192.1120  176.0930  145.9820 C   0  0  2  0  0  3  0  0  0  0  0  0
  189.8430  176.7410  146.4210 O   0  0  0  0  0  0  0  0  0  0  0  0
  196.8790  172.4260  143.1370 C   0  0  2  0  0  3  0  0  0  0  0  0
  194.3970  175.5240  145.2850 C   0  0  1  0  0  3  0  0  0  0  0  0
  194.6060  173.4320  143.7590 C   0  0  2  0  0  3  0  0  0  0  0  0
  194.8510  171.8020  142.0290 O   0  0  0  0  0  1  0  0  0  0  0  0
  196.8670  172.0610  144.5000 O   0  0  0  0  0  0  0  0  0  0  0  0
  196.7650  174.4650  144.8100 C   0  0  1  0  0  3  0  0  0  0  0  0
  190.1080  174.7530  145.1220 C   0  0  2  0  0  3  0  0  0  0  0  0
  188.3260  174.9250  142.4300 C   0  0  0  0  0  2  0  0  0  0  0  0
  193.3440  173.9510  143.2350 N   0  0  0  0  0  2  0  0  0  0  0  0
  196.2290  175.2590  143.7740 O   0  0  0  0  0  0  0  0  0  0  0  0
  191.0450  174.6040  143.9020 C   0  0  1  0  0  3  0  0  0  0  0  0
  188.5710  176.3280  146.0010 C   0  0  0  0  0  2  0  0  0  0  0  0
  195.3020  174.5360  144.5520 C   0  0  2  0  0  0  0  0  0  0  0  0
  197.5290  173.2700  144.1940 C   0  0  2  0  0  3  0  0  0  0  0  0
  188.5450  176.0030  143.4900 C   0  0  2  0  0  3  0  0  0  0  0  0
  193.0020  174.9360  145.5340 C   0  0  2  0  0  3  0  0  0  0  0  0
  195.4900  172.8750  142.6490 C   0  0  2  0  0  3  0  0  0  0  0  0
  192.4150  174.0950  144.3630 C   0  0  2  0  0  3  0  0  0  0  0  0
  194.2080  177.1060  146.8880 C   0  0  0  0  0  2  0  0  0  0  0  0
  189.6420  174.4240  141.8540 C   0  0  0  0  0  2  0  0  0  0  0  0
  194.9400  175.9590  146.5090 O   0  0  0  0  0  0  0  0  0  0  0  0
  190.4440  173.6460  142.8830 C   0  0  0  0  0  2  0  0  0  0  0  0
  188.7250  175.3350  144.8660 C   0  0  1  0  0  3  0  0  0  0  0  0
  192.7440  176.7520  147.2080 C   0  0  0  0  0  2  0  0  0  0  0  0
  190.6800  175.6260  146.2490 C   0  0  1  0  0  3  0  0  0  0  0  0
  187.4000  176.8810  143.5050 N   0  0  0  0  0  0  0  0  0  0  0  0
  187.4180  177.9950  142.8640 C   0  0  0  0  0  3  0  0  0  0  0  0
  184.1320  179.0740  144.0330 C   0  0  0  0  0  2  0  0  0  0  0  0
  185.1460  178.4220  141.9350 C   0  0  0  0  0  2  0  0  0  0  0  0
  186.2350  178.9130  142.8740 C   0  0  0  0  0  3  0  0  0  0  0  0
  183.8830  178.2900  142.7630 C   0  0  0  0  0  2  0  0  0  0  0  0
  185.6230  179.0000  144.2590 C   0  0  0  0  0  2  0  0  0  0  0  0
  1 27  1  0  0  0  0
  1 26  1  1  0  0  0
  3 16  1  0  0  0  0
  3  7  1  1  0  0  0
  4 18  1  0  0  0  0
  4 23  1  1  0  0  0
  5 11  1  6  0  0  0
  5 15  1  0  0  0  0
  6 19  1  0  0  0  0
  8 12  1  6  0  0  0
  9 27  1  0  0  0  0
 10 17  1  0  0  0  0
 11 20  1  0  0  0  0
 12 15  1  0  0  0  0
 13 20  1  0  0  0  0
 13  9  1  0  0  0  0
 14  2  1  0  0  0  0
 15  8  1  0  0  0  0
 15  4  1  0  0  0  0
 16  7  1  0  0  0  0
 16  8  1  0  0  0  0
 17 28  1  0  0  0  0
 17 25  1  0  0  0  0
 18  1  1  0  0  0  0
 19  3  1  0  0  0  0
 19  5  1  0  0  0  0
 20 18  1  0  0  0  0
 21 26  1  0  0  0  0
 22 10  1  0  0  0  0
 22 24  1  0  0  0  0
 23 21  1  0  0  0  0
 24 13  1  0  0  0  0
 25  9  1  0  0  0  0
 25 14  1  0  0  0  0
 27  2  1  0  0  0  0
 29 32  1  0  0  0  0
 29 28  2  0  0  0  0
 30 34  1  0  0  0  0
 31 33  1  0  0  0  0
 31 32  1  0  0  0  0
 32 34  1  0  0  0  0
 33 30  1  0  0  0  0
M  END
>  <MODEL>
7

>  <REMARK>
 VINA RESULT:      -8.4      2.464      9.343
  Name = 
  2 active torsions:
  status: ('A' for Active; 'I' for Inactive)
    1  A    between atoms: C_17  and  N_28
    2  A    between atoms: C_29  and  C_32
                            x       y       z     vdW  Elec       q    Type
                         _______ _______ _______ _____ _____    ______ ____

>  <TORSDO>
F 2

$$$$
=
 OpenBabel11112418063D

 34 42  0  0  1  0  0  0  0  0999 V2000
  189.5520  174.8710  144.8650 C   0  0  2  0  0  3  0  0  0  0  0  0
  191.3120  173.6310  143.8050 O   0  0  0  0  0  0  0  0  0  0  0  0
  184.3630  179.0330  145.0010 C   0  0  2  0  0  3  0  0  0  0  0  0
  187.5800  175.9760  145.8240 C   0  0  1  0  0  3  0  0  0  0  0  0
  186.2680  177.5190  144.1970 C   0  0  2  0  0  3  0  0  0  0  0  0
  184.7720  178.6030  142.6820 O   0  0  0  0  0  1  0  0  0  0  0  0
  185.4350  179.7260  145.6040 O   0  0  0  0  0  0  0  0  0  0  0  0
  185.7310  177.6100  146.7540 C   0  0  1  0  0  3  0  0  0  0  0  0
  190.1420  175.1610  142.3910 C   0  0  2  0  0  3  0  0  0  0  0  0
  189.1580  173.6700  139.6960 C   0  0  0  0  0  2  0  0  0  0  0  0
  186.6470  176.4790  143.2430 N   0  0  0  0  0  2  0  0  0  0  0  0
  185.2560  176.4330  146.1400 O   0  0  0  0  0  0  0  0  0  0  0  0
  188.6040  175.2850  142.2930 C   0  0  1  0  0  3  0  0  0  0  0  0
  191.7840  173.4540  142.4970 C   0  0  0  0  0  2  0  0  0  0  0  0
  186.4460  176.9770  145.6150 C   0  0  2  0  0  0  0  0  0  0  0  0
  184.7760  178.7810  146.4210 C   0  0  2  0  0  3  0  0  0  0  0  0
  189.8430  173.0610  140.9180 C   0  0  2  0  0  3  0  0  0  0  0  0
  188.6500  176.0960  144.7310 C   0  0  2  0  0  3  0  0  0  0  0  0
  184.8510  178.0230  143.9480 C   0  0  2  0  0  3  0  0  0  0  0  0
  188.1090  176.3370  143.2920 C   0  0  2  0  0  3  0  0  0  0  0  0
  188.9410  174.9200  147.2870 C   0  0  0  0  0  2  0  0  0  0  0  0
  187.8870  174.4160  140.0740 C   0  0  0  0  0  2  0  0  0  0  0  0
  188.1930  176.1010  147.0860 O   0  0  0  0  0  0  0  0  0  0  0  0
  188.1910  175.6680  140.8790 C   0  0  0  0  0  2  0  0  0  0  0  0
  190.8060  174.0950  141.5310 C   0  0  1  0  0  3  0  0  0  0  0  0
  190.1090  174.8240  146.2870 C   0  0  0  0  0  2  0  0  0  0  0  0
  190.6590  174.8740  143.8090 C   0  0  1  0  0  3  0  0  0  0  0  0
  190.5680  171.8830  140.5060 N   0  0  0  0  0  0  0  0  0  0  0  0
  190.6240  171.5450  139.2680 C   0  0  0  0  0  3  0  0  0  0  0  0
  191.4270  168.8780  136.9070 C   0  0  0  0  0  2  0  0  0  0  0  0
  190.6130  169.0550  139.1800 C   0  0  0  0  0  2  0  0  0  0  0  0
  191.3730  170.3240  138.8310 C   0  0  0  0  0  3  0  0  0  0  0  0
  190.4410  168.2810  137.8870 C   0  0  0  0  0  2  0  0  0  0  0  0
  191.5800  170.3200  137.3280 C   0  0  0  0  0  2  0  0  0  0  0  0
  1 26  1  1  0  0  0
  2 27  1  0  0  0  0
  3  7  1  6  0  0  0
  3 16  1  0  0  0  0
  4 23  1  1  0  0  0
  5 11  1  6  0  0  0
  5 15  1  0  0  0  0
  6 19  1  0  0  0  0
  7 16  1  0  0  0  0
  8 12  1  6  0  0  0
  9 27  1  0  0  0  0
 10 22  1  0  0  0  0
 10 17  1  0  0  0  0
 11 20  1  0  0  0  0
 13  9  1  0  0  0  0
 13 20  1  0  0  0  0
 14  2  1  0  0  0  0
 15  4  1  0  0  0  0
 15 12  1  0  0  0  0
 15  8  1  0  0  0  0
 16  8  1  0  0  0  0
 17 25  1  0  0  0  0
 18  1  1  0  0  0  0
 18  4  1  0  0  0  0
 19  5  1  0  0  0  0
 19  3  1  0  0  0  0
 20 18  1  0  0  0  0
 22 24  1  0  0  0  0
 23 21  1  0  0  0  0
 24 13  1  0  0  0  0
 25  9  1  0  0  0  0
 25 14  1  0  0  0  0
 26 21  1  0  0  0  0
 27  1  1  0  0  0  0
 28 17  1  0  0  0  0
 29 28  2  0  0  0  0
 30 34  1  0  0  0  0
 30 33  1  0  0  0  0
 32 31  1  0  0  0  0
 32 29  1  0  0  0  0
 33 31  1  0  0  0  0
 34 32  1  0  0  0  0
M  END
>  <MODEL>
8

>  <REMARK>
 VINA RESULT:      -8.2      3.371      5.537
  Name = 
  2 active torsions:
  status: ('A' for Active; 'I' for Inactive)
    1  A    between atoms: C_17  and  N_28
    2  A    between atoms: C_29  and  C_32
                            x       y       z     vdW  Elec       q    Type
                         _______ _______ _______ _____ _____    ______ ____

>  <TORSDO>
F 2

$$$$
=
 OpenBabel11112418063D

 34 42  0  0  1  0  0  0  0  0999 V2000
  189.5700  173.8060  141.2760 C   0  0  2  0  0  3  0  0  0  0  0  0
  188.6010  175.9790  141.5930 O   0  0  0  0  0  0  0  0  0  0  0  0
  193.3760  168.6130  142.9510 C   0  0  2  0  0  3  0  0  0  0  0  0
  190.4090  171.5010  141.1560 C   0  0  1  0  0  3  0  0  0  0  0  0
  192.1060  170.8370  143.0080 C   0  0  2  0  0  3  0  0  0  0  0  0
  193.3230  170.0130  144.8910 O   0  0  0  0  0  1  0  0  0  0  0  0
  194.0270  169.2390  141.8680 O   0  0  0  0  0  0  0  0  0  0  0  0
  191.7810  169.2590  140.9500 C   0  0  1  0  0  3  0  0  0  0  0  0
  190.2610  175.3530  143.1940 C   0  0  2  0  0  3  0  0  0  0  0  0
  189.1420  175.7850  146.1970 C   0  0  0  0  0  2  0  0  0  0  0  0
  191.2440  171.7020  143.8110 N   0  0  0  0  0  2  0  0  0  0  0  0
  190.6860  169.2280  141.8380 O   0  0  0  0  0  0  0  0  0  0  0  0
  190.3150  174.0000  143.9390 C   0  0  1  0  0  3  0  0  0  0  0  0
  188.6500  176.9780  142.5750 C   0  0  0  0  0  2  0  0  0  0  0  0
  191.3670  170.4570  141.7260 C   0  0  2  0  0  0  0  0  0  0  0  0
  192.9350  168.4090  141.5320 C   0  0  2  0  0  3  0  0  0  0  0  0
  188.3940  175.9510  144.8750 C   0  0  2  0  0  3  0  0  0  0  0  0
  190.7500  172.9130  141.6510 C   0  0  2  0  0  3  0  0  0  0  0  0
  192.5630  169.6130  143.7930 C   0  0  2  0  0  3  0  0  0  0  0  0
  191.1750  173.0100  143.1450 C   0  0  2  0  0  3  0  0  0  0  0  0
  189.2200  172.2240  139.3750 C   0  0  0  0  0  2  0  0  0  0  0  0
  189.7520  174.3980  146.3300 C   0  0  0  0  0  2  0  0  0  0  0  0
  190.3750  171.5010  139.7480 O   0  0  0  0  0  0  0  0  0  0  0  0
  190.8830  174.1850  145.3380 C   0  0  0  0  0  2  0  0  0  0  0  0
  189.3750  176.4370  143.7930 C   0  0  1  0  0  3  0  0  0  0  0  0
  189.3400  173.7080  139.7680 C   0  0  0  0  0  2  0  0  0  0  0  0
  189.7930  175.2480  141.7350 C   0  0  1  0  0  3  0  0  0  0  0  0
  187.3330  176.9110  145.0590 N   0  0  0  0  0  0  0  0  0  0  0  0
  187.2090  177.5490  146.1670 C   0  0  0  0  0  3  0  0  0  0  0  0
  183.7350  178.6610  145.9940 C   0  0  0  0  0  2  0  0  0  0  0  0
  185.8740  179.3690  145.1110 C   0  0  0  0  0  2  0  0  0  0  0  0
  186.1100  178.5480  146.3670 C   0  0  0  0  0  3  0  0  0  0  0  0
  184.4080  179.2110  144.7570 C   0  0  0  0  0  2  0  0  0  0  0  0
  184.8010  177.8590  146.7020 C   0  0  0  0  0  2  0  0  0  0  0  0
  1 26  1  6  0  0  0
  1 18  1  0  0  0  0
  1 27  1  0  0  0  0
  2 27  1  0  0  0  0
  2 14  1  0  0  0  0
  3  7  1  6  0  0  0
  3 19  1  0  0  0  0
  4 23  1  6  0  0  0
  4 18  1  0  0  0  0
  4 15  1  0  0  0  0
  5 19  1  0  0  0  0
  5 11  1  1  0  0  0
  8 16  1  0  0  0  0
  8 15  1  0  0  0  0
  8 12  1  1  0  0  0
  9 25  1  0  0  0  0
  9 13  1  0  0  0  0
 10 22  1  0  0  0  0
 13 24  1  0  0  0  0
 14 25  1  0  0  0  0
 15 12  1  0  0  0  0
 15  5  1  0  0  0  0
 16  7  1  0  0  0  0
 16  3  1  0  0  0  0
 17 28  1  0  0  0  0
 17 10  1  0  0  0  0
 18 20  1  0  0  0  0
 19  6  1  0  0  0  0
 20 11  1  0  0  0  0
 20 13  1  0  0  0  0
 21 23  1  0  0  0  0
 21 26  1  0  0  0  0
 24 22  1  0  0  0  0
 25 17  1  0  0  0  0
 27  9  1  0  0  0  0
 28 29  2  0  0  0  0
 29 32  1  0  0  0  0
 30 34  1  0  0  0  0
 31 32  1  0  0  0  0
 32 34  1  0  0  0  0
 33 31  1  0  0  0  0
 33 30  1  0  0  0  0
M  END
>  <MODEL>
9

>  <REMARK>
 VINA RESULT:      -8.1      3.354      8.819
  Name = 
  2 active torsions:
  status: ('A' for Active; 'I' for Inactive)
    1  A    between atoms: C_17  and  N_28
    2  A    between atoms: C_29  and  C_32
                            x       y       z     vdW  Elec       q    Type
                         _______ _______ _______ _____ _____    ______ ____

>  <TORSDO>
F 2

$$$$
