=
 OpenBabel11112416233D

 30 35  0  0  1  0  0  0  0  0999 V2000
  186.6470  177.7770  143.7640 C   0  0  0  0  0  0  0  0  0  0  0  0
  184.8030  178.6110  145.1540 C   0  0  0  0  0  0  0  0  0  0  0  0
  188.6980  176.4400  147.2120 N   0  0  0  0  0  0  0  0  0  0  0  0
  188.0960  177.2930  143.5940 C   0  0  0  0  0  0  0  0  0  0  0  0
  185.8990  178.0450  142.5210 C   0  0  0  0  0  3  0  0  0  0  0  0
  187.6320  175.9950  140.1900 O   0  0  0  0  0  0  0  0  0  0  0  0
  190.7590  176.1350  142.8600 C   0  0  1  0  0  3  0  0  0  0  0  0
  187.4010  176.5990  141.2740 C   0  0  0  0  0  0  0  0  0  0  0  0
  190.7850  175.7940  144.2680 N   0  0  0  0  0  0  0  0  0  0  0  0
  189.7640  175.9520  146.6590 C   0  0  2  0  0  3  0  0  0  0  0  0
  186.2580  177.5230  141.3530 C   0  0  0  0  0  0  0  0  0  0  0  0
  188.2650  176.4100  142.4160 N   0  0  0  0  0  0  0  0  0  0  0  0
  184.2530  178.8120  146.4220 C   0  0  0  0  0  3  0  0  0  0  0  0
  191.9470  175.0440  144.5610 C   0  0  0  0  0  3  0  0  0  0  0  0
  192.0030  175.4550  142.2800 C   0  0  0  0  0  2  0  0  0  0  0  0
  184.0770  179.0560  144.0970 F   0  0  0  0  0  0  0  0  0  0  0  0
  187.9200  176.9360  146.1250 C   0  0  0  0  0  0  0  0  0  0  0  0
  184.9300  178.4060  147.5650 C   0  0  0  0  0  3  0  0  0  0  0  0
  186.0800  177.9950  145.0020 C   0  0  0  0  0  0  0  0  0  0  0  0
  188.5870  176.6900  144.8810 C   0  0  0  0  0  0  0  0  0  0  0  0
  190.8650  175.3420  147.4520 C   0  0  0  0  0  1  0  0  0  0  0  0
  189.7410  176.1180  145.1950 C   0  0  0  0  0  0  0  0  0  0  0  0
  192.6630  174.8360  143.4720 C   0  0  0  0  0  3  0  0  0  0  0  0
  189.4540  174.5590  141.6080 O   0  0  0  0  0  0  0  0  0  0  0  0
  186.1690  177.7870  147.4540 C   0  0  0  0  0  3  0  0  0  0  0  0
  186.7500  177.5740  146.1980 C   0  0  0  0  0  0  0  0  0  0  0  0
  189.4790  175.6510  142.2410 C   0  0  0  0  0  0  0  0  0  0  0  0
  185.4270  177.8130  140.1500 C   0  0  0  0  0  2  0  0  0  0  0  0
  183.2280  177.9640  140.2240 C   0  0  0  0  0  1  0  0  0  0  0  0
  184.3910  178.6840  140.4900 O   0  0  0  0  0  0  0  0  0  0  0  0
  1 19  1  0  0  0  0
  2 13  1  0  0  0  0
  4  1  2  0  0  0  0
  4 20  1  0  0  0  0
  5  1  1  0  0  0  0
  6  8  2  0  0  0  0
  7 15  1  6  0  0  0
  7  9  1  0  0  0  0
  8 11  1  0  0  0  0
  8 12  1  0  0  0  0
  9 14  1  0  0  0  0
  9 22  1  0  0  0  0
 10  3  1  0  0  0  0
 10 21  1  1  0  0  0
 11  5  2  0  0  0  0
 12  4  1  0  0  0  0
 13 18  2  0  0  0  0
 15 23  1  0  0  0  0
 16  2  1  0  0  0  0
 17 26  1  0  0  0  0
 17  3  2  0  0  0  0
 19  2  2  0  0  0  0
 19 26  1  0  0  0  0
 20 22  2  0  0  0  0
 20 17  1  0  0  0  0
 22 10  1  0  0  0  0
 23 14  2  0  0  0  0
 24 27  2  0  0  0  0
 25 18  1  0  0  0  0
 26 25  2  0  0  0  0
 27 12  1  0  0  0  0
 27  7  1  0  0  0  0
 28 30  1  0  0  0  0
 28 11  1  0  0  0  0
 29 30  1  0  0  0  0
M  END
>  <MODEL>
1

>  <REMARK>
 VINA RESULT:      -9.2      0.000      0.000
  Name = 
  2 active torsions:
  status: ('A' for Active; 'I' for Inactive)
    1  A    between atoms: C_11  and  C_28
    2  A    between atoms: C_28  and  O_30
                            x       y       z     vdW  Elec       q    Type
                         _______ _______ _______ _____ _____    ______ ____

>  <TORSDO>
F 2

$$$$
=
 OpenBabel11112416233D

 30 35  0  0  1  0  0  0  0  0999 V2000
  187.7500  176.4720  144.5110 C   0  0  0  0  0  0  0  0  0  0  0  0
  186.5330  178.3010  145.6070 C   0  0  0  0  0  0  0  0  0  0  0  0
  186.3040  177.7150  140.7360 N   0  0  0  0  0  0  0  0  0  0  0  0
  188.0010  175.5500  143.3080 C   0  0  0  0  0  0  0  0  0  0  0  0
  188.4380  176.1100  145.7650 C   0  0  0  0  0  3  0  0  0  0  0  0
  191.1910  174.2190  144.5490 O   0  0  0  0  0  0  0  0  0  0  0  0
  188.9310  173.6890  141.1520 C   0  0  1  0  0  3  0  0  0  0  0  0
  190.0890  174.8320  144.5220 C   0  0  0  0  0  0  0  0  0  0  0  0
  188.3090  174.6780  140.2950 N   0  0  0  0  0  0  0  0  0  0  0  0
  186.8570  176.8160  139.9820 C   0  0  0  0  0  0  0  0  0  0  0  0
  189.5100  175.3260  145.7830 C   0  0  0  0  0  0  0  0  0  0  0  0
  189.3860  175.0230  143.2740 N   0  0  0  0  0  0  0  0  0  0  0  0
  185.6740  179.3980  145.5090 C   0  0  0  0  0  3  0  0  0  0  0  0
  188.5200  174.3400  138.9380 C   0  0  0  0  0  3  0  0  0  0  0  0
  189.6190  172.7220  140.1830 C   0  0  0  0  0  2  0  0  0  0  0  0
  186.9650  177.9750  146.8510 F   0  0  0  0  0  0  0  0  0  0  0  0
  186.7230  177.3860  142.0580 C   0  0  2  0  0  3  0  0  0  0  0  0
  185.1660  179.7980  144.2790 C   0  0  0  0  0  3  0  0  0  0  0  0
  186.9000  177.5560  144.4480 C   0  0  0  0  0  0  0  0  0  0  0  0
  187.5830  176.2400  142.0390 C   0  0  0  0  0  0  0  0  0  0  0  0
  186.6570  176.7810  138.5080 C   0  0  0  0  0  1  0  0  0  0  0  0
  187.6460  175.8550  140.7720 C   0  0  0  0  0  0  0  0  0  0  0  0
  189.2460  173.2430  138.8310 C   0  0  0  0  0  3  0  0  0  0  0  0
  191.1220  174.3850  141.8360 O   0  0  0  0  0  0  0  0  0  0  0  0
  185.5160  179.1050  143.1270 C   0  0  0  0  0  3  0  0  0  0  0  0
  186.3720  177.9990  143.1900 C   0  0  0  0  0  0  0  0  0  0  0  0
  189.8870  174.3590  142.0960 C   0  0  0  0  0  0  0  0  0  0  0  0
  190.1680  175.0370  147.0890 C   0  0  0  0  0  2  0  0  0  0  0  0
  191.9140  176.3630  147.3350 C   0  0  0  0  0  1  0  0  0  0  0  0
  190.5730  176.2310  147.6880 O   0  0  0  0  0  0  0  0  0  0  0  0
  1  5  1  0  0  0  0
  2 16  1  0  0  0  0
  4  1  2  0  0  0  0
  5 11  2  0  0  0  0
  7 15  1  6  0  0  0
  7 27  1  0  0  0  0
  8  6  2  0  0  0  0
  8 11  1  0  0  0  0
  9 22  1  0  0  0  0
  9  7  1  0  0  0  0
 10  3  2  0  0  0  0
 10 22  1  0  0  0  0
 11 28  1  0  0  0  0
 12  4  1  0  0  0  0
 12  8  1  0  0  0  0
 13  2  1  0  0  0  0
 14  9  1  0  0  0  0
 17  3  1  1  0  0  0
 17 26  1  0  0  0  0
 18 13  2  0  0  0  0
 19  1  1  0  0  0  0
 19  2  2  0  0  0  0
 20 17  1  0  0  0  0
 20  4  1  0  0  0  0
 21 10  1  0  0  0  0
 22 20  2  0  0  0  0
 23 14  2  0  0  0  0
 23 15  1  0  0  0  0
 24 27  2  0  0  0  0
 25 26  2  0  0  0  0
 25 18  1  0  0  0  0
 26 19  1  0  0  0  0
 27 12  1  0  0  0  0
 28 30  1  0  0  0  0
 29 30  1  0  0  0  0
M  END
>  <MODEL>
2

>  <REMARK>
 VINA RESULT:      -8.6      2.546      5.430
  Name = 
  2 active torsions:
  status: ('A' for Active; 'I' for Inactive)
    1  A    between atoms: C_11  and  C_28
    2  A    between atoms: C_28  and  O_30
                            x       y       z     vdW  Elec       q    Type
                         _______ _______ _______ _____ _____    ______ ____

>  <TORSDO>
F 2

$$$$
=
 OpenBabel11112416233D

 30 35  0  0  1  0  0  0  0  0999 V2000
  188.3950  176.3770  143.6060 C   0  0  0  0  0  0  0  0  0  0  0  0
  186.0480  176.9710  144.0110 C   0  0  0  0  0  0  0  0  0  0  0  0
  189.3920  177.4340  147.5770 N   0  0  0  0  0  0  0  0  0  0  0  0
  189.8840  176.4330  143.9810 C   0  0  0  0  0  0  0  0  0  0  0  0
  188.0770  175.8140  142.2800 C   0  0  0  0  0  3  0  0  0  0  0  0
  190.9250  173.7770  141.6670 O   0  0  0  0  0  0  0  0  0  0  0  0
  192.8290  176.1380  144.4470 C   0  0  1  0  0  3  0  0  0  0  0  0
  190.2050  174.6430  142.2360 C   0  0  0  0  0  0  0  0  0  0  0  0
  192.4490  176.4440  145.8120 N   0  0  0  0  0  0  0  0  0  0  0  0
  190.6650  177.1880  147.5570 C   0  0  2  0  0  3  0  0  0  0  0  0
  188.9230  175.0280  141.6230 C   0  0  0  0  0  0  0  0  0  0  0  0
  190.6450  175.2720  143.4600 N   0  0  0  0  0  0  0  0  0  0  0  0
  185.0660  177.4600  144.8760 C   0  0  0  0  0  3  0  0  0  0  0  0
  193.5810  176.3650  146.6560 C   0  0  0  0  0  3  0  0  0  0  0  0
  194.3170  175.7870  144.5350 C   0  0  0  0  0  2  0  0  0  0  0  0
  185.6450  176.6400  142.7580 F   0  0  0  0  0  0  0  0  0  0  0  0
  188.9410  177.1140  146.2630 C   0  0  0  0  0  0  0  0  0  0  0  0
  185.3850  177.8410  146.1740 C   0  0  0  0  0  3  0  0  0  0  0  0
  187.4050  176.8620  144.4340 C   0  0  0  0  0  0  0  0  0  0  0  0
  190.0310  176.6410  145.4620 C   0  0  0  0  0  0  0  0  0  0  0  0
  191.5380  177.4100  148.7420 C   0  0  0  0  0  1  0  0  0  0  0  0
  191.1070  176.7150  146.2340 C   0  0  0  0  0  0  0  0  0  0  0  0
  194.6530  176.0040  145.9770 C   0  0  0  0  0  3  0  0  0  0  0  0
  192.4310  173.8300  143.9310 O   0  0  0  0  0  0  0  0  0  0  0  0
  186.6950  177.7320  146.6250 C   0  0  0  0  0  3  0  0  0  0  0  0
  187.7030  177.2490  145.7820 C   0  0  0  0  0  0  0  0  0  0  0  0
  191.9860  175.0110  143.9230 C   0  0  0  0  0  0  0  0  0  0  0  0
  188.5110  174.4700  140.3040 C   0  0  0  0  0  2  0  0  0  0  0  0
  188.2320  172.5940  139.1770 C   0  0  0  0  0  1  0  0  0  0  0  0
  188.1220  173.1380  140.4550 O   0  0  0  0  0  0  0  0  0  0  0  0
  1  4  2  0  0  0  0
  1 19  1  0  0  0  0
  2 19  2  0  0  0  0
  2 13  1  0  0  0  0
  4 20  1  0  0  0  0
  5  1  1  0  0  0  0
  6  8  2  0  0  0  0
  7 15  1  1  0  0  0
  7  9  1  0  0  0  0
  8 12  1  0  0  0  0
  9 22  1  0  0  0  0
  9 14  1  0  0  0  0
 10  3  1  0  0  0  0
 10 21  1  6  0  0  0
 11  8  1  0  0  0  0
 11  5  2  0  0  0  0
 12 27  1  0  0  0  0
 12  4  1  0  0  0  0
 13 18  2  0  0  0  0
 15 23  1  0  0  0  0
 16  2  1  0  0  0  0
 17  3  2  0  0  0  0
 18 25  1  0  0  0  0
 19 26  1  0  0  0  0
 20 22  2  0  0  0  0
 20 17  1  0  0  0  0
 22 10  1  0  0  0  0
 23 14  2  0  0  0  0
 26 17  1  0  0  0  0
 26 25  2  0  0  0  0
 27 24  2  0  0  0  0
 27  7  1  0  0  0  0
 28 30  1  0  0  0  0
 28 11  1  0  0  0  0
 29 30  1  0  0  0  0
M  END
>  <MODEL>
3

>  <REMARK>
 VINA RESULT:      -8.5      2.263      3.190
  Name = 
  2 active torsions:
  status: ('A' for Active; 'I' for Inactive)
    1  A    between atoms: C_11  and  C_28
    2  A    between atoms: C_28  and  O_30
                            x       y       z     vdW  Elec       q    Type
                         _______ _______ _______ _____ _____    ______ ____

>  <TORSDO>
F 2

$$$$
=
 OpenBabel11112416233D

 30 35  0  0  1  0  0  0  0  0999 V2000
  189.1880  175.2780  144.1090 C   0  0  0  0  0  0  0  0  0  0  0  0
  191.1390  174.5420  145.4030 C   0  0  0  0  0  0  0  0  0  0  0  0
  188.0090  177.8380  147.2630 N   0  0  0  0  0  0  0  0  0  0  0  0
  187.8070  175.9460  144.0130 C   0  0  0  0  0  0  0  0  0  0  0  0
  189.6480  174.5570  142.9080 C   0  0  0  0  0  3  0  0  0  0  0  0
  187.7830  176.1710  140.3470 O   0  0  0  0  0  0  0  0  0  0  0  0
  185.2220  177.3110  143.3590 C   0  0  1  0  0  3  0  0  0  0  0  0
  188.1340  175.8520  141.5170 C   0  0  0  0  0  0  0  0  0  0  0  0
  185.5050  178.0190  144.5910 N   0  0  0  0  0  0  0  0  0  0  0  0
  186.9290  178.3380  146.7480 C   0  0  2  0  0  3  0  0  0  0  0  0
  189.1450  174.7980  141.7020 C   0  0  0  0  0  0  0  0  0  0  0  0
  187.5320  176.4930  142.6630 N   0  0  0  0  0  0  0  0  0  0  0  0
  191.8880  174.5980  146.5810 C   0  0  0  0  0  3  0  0  0  0  0  0
  184.5230  179.0140  144.8130 C   0  0  0  0  0  3  0  0  0  0  0  0
  183.9880  178.0170  142.7890 C   0  0  0  0  0  2  0  0  0  0  0  0
  191.5910  173.7070  144.4340 F   0  0  0  0  0  0  0  0  0  0  0  0
  188.4990  176.9380  146.2720 C   0  0  0  0  0  0  0  0  0  0  0  0
  191.4960  175.4100  147.6380 C   0  0  0  0  0  3  0  0  0  0  0  0
  189.9450  175.3070  145.2610 C   0  0  0  0  0  0  0  0  0  0  0  0
  187.6470  176.9510  145.1200 C   0  0  0  0  0  0  0  0  0  0  0  0
  186.0830  179.3230  147.4750 C   0  0  0  0  0  1  0  0  0  0  0  0
  186.6550  177.7800  145.4120 C   0  0  0  0  0  0  0  0  0  0  0  0
  183.6480  179.0410  143.8260 C   0  0  0  0  0  3  0  0  0  0  0  0
  186.4580  178.2350  141.5220 O   0  0  0  0  0  0  0  0  0  0  0  0
  190.3460  176.1840  147.5270 C   0  0  0  0  0  3  0  0  0  0  0  0
  189.5710  176.1480  146.3610 C   0  0  0  0  0  0  0  0  0  0  0  0
  186.4130  177.3770  142.4470 C   0  0  0  0  0  0  0  0  0  0  0  0
  189.6910  174.0520  140.5320 C   0  0  0  0  0  2  0  0  0  0  0  0
  188.3510  172.7260  139.3880 C   0  0  0  0  0  1  0  0  0  0  0  0
  189.1720  172.7570  140.5140 O   0  0  0  0  0  0  0  0  0  0  0  0
  1 19  1  0  0  0  0
  2 13  1  0  0  0  0
  4  1  2  0  0  0  0
  4 20  1  0  0  0  0
  5  1  1  0  0  0  0
  6  8  2  0  0  0  0
  7 15  1  6  0  0  0
  7  9  1  0  0  0  0
  8 11  1  0  0  0  0
  8 12  1  0  0  0  0
  9 14  1  0  0  0  0
  9 22  1  0  0  0  0
 10  3  1  0  0  0  0
 10 21  1  1  0  0  0
 11  5  2  0  0  0  0
 12  4  1  0  0  0  0
 13 18  2  0  0  0  0
 15 23  1  0  0  0  0
 16  2  1  0  0  0  0
 17 26  1  0  0  0  0
 17  3  2  0  0  0  0
 19  2  2  0  0  0  0
 19 26  1  0  0  0  0
 20 22  2  0  0  0  0
 20 17  1  0  0  0  0
 22 10  1  0  0  0  0
 23 14  2  0  0  0  0
 24 27  2  0  0  0  0
 25 18  1  0  0  0  0
 26 25  2  0  0  0  0
 27 12  1  0  0  0  0
 27  7  1  0  0  0  0
 28 11  1  0  0  0  0
 29 30  1  0  0  0  0
 30 28  1  0  0  0  0
M  END
>  <MODEL>
4

>  <REMARK>
 VINA RESULT:      -8.3      2.352      5.586
  Name = 
  2 active torsions:
  status: ('A' for Active; 'I' for Inactive)
    1  A    between atoms: C_11  and  C_28
    2  A    between atoms: C_28  and  O_30
                            x       y       z     vdW  Elec       q    Type
                         _______ _______ _______ _____ _____    ______ ____

>  <TORSDO>
F 2

$$$$
=
 OpenBabel11112416233D

 30 35  0  0  1  0  0  0  0  0999 V2000
  188.2430  176.1140  142.0860 C   0  0  0  0  0  0  0  0  0  0  0  0
  186.2570  177.5390  141.8610 C   0  0  0  0  0  0  0  0  0  0  0  0
  188.8760  177.5410  146.0160 N   0  0  0  0  0  0  0  0  0  0  0  0
  189.5580  175.7330  142.7840 C   0  0  2  0  0  3  0  0  0  0  0  0
  187.9670  175.4390  140.8030 C   0  0  0  0  0  3  0  0  0  0  0  0
  189.9030  172.4750  141.1230 O   0  0  0  0  0  0  0  0  0  0  0  0
  192.0530  174.5530  143.9500 C   0  0  1  0  0  3  0  0  0  0  0  0
  189.4750  173.6300  141.3990 C   0  0  0  0  0  0  0  0  0  0  0  0
  191.5900  175.2370  145.1410 N   0  0  0  0  0  0  0  0  0  0  0  0
  189.9480  176.8770  146.3210 C   0  0  0  0  0  0  0  0  0  0  0  0
  188.5550  174.2980  140.4630 C   0  0  0  0  0  0  0  0  0  0  0  0
  189.9050  174.3030  142.6020 N   0  0  0  0  0  0  0  0  0  0  0  0
  185.3990  178.4970  142.4090 C   0  0  0  0  0  3  0  0  0  0  0  0
  192.4490  174.9480  146.2270 C   0  0  0  0  0  3  0  0  0  0  0  0
  193.2630  173.7420  144.4220 C   0  0  0  0  0  2  0  0  0  0  0  0
  185.9780  177.1220  140.6010 F   0  0  0  0  0  0  0  0  0  0  0  0
  188.5670  177.1380  144.6840 C   0  0  0  0  0  0  0  0  0  0  0  0
  185.6140  178.9980  143.6870 C   0  0  0  0  0  3  0  0  0  0  0  0
  187.3820  177.0620  142.5960 C   0  0  0  0  0  0  0  0  0  0  0  0
  189.5190  176.1710  144.2220 C   0  0  0  0  0  0  0  0  0  0  0  0
  190.6260  177.0210  147.6370 C   0  0  0  0  0  1  0  0  0  0  0  0
  190.3970  176.0270  145.2050 C   0  0  0  0  0  0  0  0  0  0  0  0
  193.4070  174.1150  145.8630 C   0  0  0  0  0  3  0  0  0  0  0  0
  190.9120  172.4650  143.6490 O   0  0  0  0  0  0  0  0  0  0  0  0
  186.6900  178.5420  144.4380 C   0  0  0  0  0  3  0  0  0  0  0  0
  187.5710  177.5860  143.9180 C   0  0  0  0  0  0  0  0  0  0  0  0
  190.9510  173.7000  143.3910 C   0  0  0  0  0  0  0  0  0  0  0  0
  188.1930  173.6610  139.1650 C   0  0  0  0  0  2  0  0  0  0  0  0
  188.9460  174.1670  137.1540 C   0  0  0  0  0  1  0  0  0  0  0  0
  188.1110  174.6340  138.1680 O   0  0  0  0  0  0  0  0  0  0  0  0
  1 19  2  0  0  0  0
  2 13  2  0  0  0  0
  2 19  1  0  0  0  0
  3 10  2  0  0  0  0
  4  1  1  1  0  0  0
  4 20  1  0  0  0  0
  5  1  1  0  0  0  0
  6  8  2  0  0  0  0
  7 15  1  1  0  0  0
  7  9  1  0  0  0  0
  8 12  1  0  0  0  0
  9 22  1  0  0  0  0
  9 14  1  0  0  0  0
 10 21  1  0  0  0  0
 11  5  2  0  0  0  0
 11  8  1  0  0  0  0
 12  4  1  0  0  0  0
 12 27  1  0  0  0  0
 13 18  1  0  0  0  0
 15 23  1  0  0  0  0
 16  2  1  0  0  0  0
 17  3  1  0  0  0  0
 18 25  2  0  0  0  0
 19 26  1  0  0  0  0
 20 17  1  0  0  0  0
 20 22  2  0  0  0  0
 22 10  1  0  0  0  0
 23 14  2  0  0  0  0
 26 25  1  0  0  0  0
 26 17  2  0  0  0  0
 27 24  2  0  0  0  0
 27  7  1  0  0  0  0
 28 11  1  0  0  0  0
 29 30  1  0  0  0  0
 30 28  1  0  0  0  0
M  END
>  <MODEL>
5

>  <REMARK>
 VINA RESULT:      -7.9      2.229      3.401
  Name = 
  2 active torsions:
  status: ('A' for Active; 'I' for Inactive)
    1  A    between atoms: C_11  and  C_28
    2  A    between atoms: C_28  and  O_30
                            x       y       z     vdW  Elec       q    Type
                         _______ _______ _______ _____ _____    ______ ____

>  <TORSDO>
F 2

$$$$
=
 OpenBabel11112416233D

 30 35  0  0  1  0  0  0  0  0999 V2000
  188.8610  176.3370  145.5620 C   0  0  0  0  0  0  0  0  0  0  0  0
  186.8970  177.6720  146.1830 C   0  0  0  0  0  0  0  0  0  0  0  0
  187.3060  175.7800  141.6690 N   0  0  0  0  0  0  0  0  0  0  0  0
  189.5740  175.3340  144.6420 C   0  0  0  0  0  0  0  0  0  0  0  0
  189.5420  176.6550  146.8320 C   0  0  0  0  0  3  0  0  0  0  0  0
  192.9240  175.9020  146.0360 O   0  0  0  0  0  0  0  0  0  0  0  0
  191.3730  173.5650  143.0260 C   0  0  1  0  0  3  0  0  0  0  0  0
  191.6700  175.9430  145.9000 C   0  0  0  0  0  0  0  0  0  0  0  0
  190.4510  173.9200  141.9660 N   0  0  0  0  0  0  0  0  0  0  0  0
  188.2470  175.0480  141.1590 C   0  0  0  0  0  0  0  0  0  0  0  0
  190.8430  176.4500  147.0070 C   0  0  0  0  0  0  0  0  0  0  0  0
  191.0490  175.4730  144.6830 N   0  0  0  0  0  0  0  0  0  0  0  0
  185.6590  178.2180  145.8360 C   0  0  0  0  0  3  0  0  0  0  0  0
  190.8870  173.3620  140.7410 C   0  0  0  0  0  3  0  0  0  0  0  0
  192.4800  172.7760  142.3200 C   0  0  0  0  0  2  0  0  0  0  0  0
  187.3330  177.9080  147.4460 F   0  0  0  0  0  0  0  0  0  0  0  0
  187.7270  176.0290  143.0090 C   0  0  2  0  0  3  0  0  0  0  0  0
  185.1210  178.0160  144.5710 C   0  0  0  0  0  3  0  0  0  0  0  0
  187.6340  176.8830  145.2520 C   0  0  0  0  0  0  0  0  0  0  0  0
  188.9950  175.4110  143.2560 C   0  0  0  0  0  0  0  0  0  0  0  0
  188.1920  174.5410  139.7620 C   0  0  0  0  0  1  0  0  0  0  0  0
  189.3120  174.7720  142.1390 C   0  0  0  0  0  0  0  0  0  0  0  0
  192.0210  172.7050  140.8980 C   0  0  0  0  0  3  0  0  0  0  0  0
  192.9930  175.2980  143.3850 O   0  0  0  0  0  0  0  0  0  0  0  0
  185.8200  177.2670  143.6320 C   0  0  0  0  0  3  0  0  0  0  0  0
  187.0620  176.7040  143.9490 C   0  0  0  0  0  0  0  0  0  0  0  0
  191.8730  174.8080  143.7040 C   0  0  0  0  0  0  0  0  0  0  0  0
  191.4630  176.8330  148.3080 C   0  0  0  0  0  2  0  0  0  0  0  0
  191.5660  178.2910  149.9610 C   0  0  0  0  0  1  0  0  0  0  0  0
  190.8710  178.0030  148.7870 O   0  0  0  0  0  0  0  0  0  0  0  0
  1  5  1  0  0  0  0
  2 16  1  0  0  0  0
  4 12  1  0  0  0  0
  4  1  2  0  0  0  0
  5 11  2  0  0  0  0
  7 15  1  6  0  0  0
  7 27  1  0  0  0  0
  8  6  2  0  0  0  0
  8 11  1  0  0  0  0
  9 22  1  0  0  0  0
  9  7  1  0  0  0  0
 10  3  2  0  0  0  0
 10 22  1  0  0  0  0
 11 28  1  0  0  0  0
 12  8  1  0  0  0  0
 13  2  1  0  0  0  0
 14 23  2  0  0  0  0
 14  9  1  0  0  0  0
 17  3  1  1  0  0  0
 17 20  1  0  0  0  0
 17 26  1  0  0  0  0
 18 13  2  0  0  0  0
 19  1  1  0  0  0  0
 19  2  2  0  0  0  0
 20  4  1  0  0  0  0
 21 10  1  0  0  0  0
 22 20  2  0  0  0  0
 23 15  1  0  0  0  0
 24 27  2  0  0  0  0
 25 26  2  0  0  0  0
 25 18  1  0  0  0  0
 26 19  1  0  0  0  0
 27 12  1  0  0  0  0
 28 30  1  0  0  0  0
 30 29  1  0  0  0  0
M  END
>  <MODEL>
6

>  <REMARK>
 VINA RESULT:      -7.9      2.916      5.492
  Name = 
  2 active torsions:
  status: ('A' for Active; 'I' for Inactive)
    1  A    between atoms: C_11  and  C_28
    2  A    between atoms: C_28  and  O_30
                            x       y       z     vdW  Elec       q    Type
                         _______ _______ _______ _____ _____    ______ ____

>  <TORSDO>
F 2

$$$$
=
 OpenBabel11112416233D

 30 35  0  0  1  0  0  0  0  0999 V2000
  187.2460  176.8670  142.6230 C   0  0  0  0  0  0  0  0  0  0  0  0
  185.1080  177.6130  141.6750 C   0  0  0  0  0  0  0  0  0  0  0  0
  186.2140  178.5300  146.3720 N   0  0  0  0  0  0  0  0  0  0  0  0
  188.3350  176.9240  143.7060 C   0  0  2  0  0  3  0  0  0  0  0  0
  187.5780  176.1030  141.4050 C   0  0  0  0  0  3  0  0  0  0  0  0
  190.0740  173.8800  142.6140 O   0  0  0  0  0  0  0  0  0  0  0  0
  190.5770  176.5940  145.6650 C   0  0  1  0  0  3  0  0  0  0  0  0
  189.2760  174.8570  142.6160 C   0  0  0  0  0  0  0  0  0  0  0  0
  189.5990  177.1390  146.5850 N   0  0  0  0  0  0  0  0  0  0  0  0
  187.2820  178.2340  147.0450 C   0  0  0  0  0  0  0  0  0  0  0  0
  188.5390  175.1860  141.3850 C   0  0  0  0  0  0  0  0  0  0  0  0
  189.1080  175.6640  143.8030 N   0  0  0  0  0  0  0  0  0  0  0  0
  183.8910  178.2790  141.8380 C   0  0  0  0  0  3  0  0  0  0  0  0
  190.1280  177.1550  147.8970 C   0  0  0  0  0  3  0  0  0  0  0  0
  191.7610  176.2030  146.5550 C   0  0  0  0  0  2  0  0  0  0  0  0
  185.3590  177.0950  140.4470 F   0  0  0  0  0  0  0  0  0  0  0  0
  186.4560  178.0150  145.0650 C   0  0  0  0  0  0  0  0  0  0  0  0
  183.5530  178.8580  143.0550 C   0  0  0  0  0  3  0  0  0  0  0  0
  186.0400  177.5220  142.7510 C   0  0  0  0  0  0  0  0  0  0  0  0
  187.7340  177.3710  145.0110 C   0  0  0  0  0  0  0  0  0  0  0  0
  187.4540  178.6150  148.4730 C   0  0  0  0  0  1  0  0  0  0  0  0
  188.2720  177.5290  146.2130 C   0  0  0  0  0  0  0  0  0  0  0  0
  191.3440  176.6440  147.9220 C   0  0  0  0  0  3  0  0  0  0  0  0
  190.2200  174.2490  145.3040 O   0  0  0  0  0  0  0  0  0  0  0  0
  184.4290  178.7730  144.1300 C   0  0  0  0  0  3  0  0  0  0  0  0
  185.6590  178.1160  143.9990 C   0  0  0  0  0  0  0  0  0  0  0  0
  189.9870  175.4300  144.9220 C   0  0  0  0  0  0  0  0  0  0  0  0
  188.7870  174.4320  140.1230 C   0  0  0  0  0  2  0  0  0  0  0  0
  188.6670  172.4520  139.1590 C   0  0  0  0  0  1  0  0  0  0  0  0
  188.0580  173.2420  140.1320 O   0  0  0  0  0  0  0  0  0  0  0  0
  1 19  2  0  0  0  0
  2 13  2  0  0  0  0
  2 19  1  0  0  0  0
  3 10  2  0  0  0  0
  4  1  1  6  0  0  0
  4 12  1  0  0  0  0
  4 20  1  0  0  0  0
  5  1  1  0  0  0  0
  6  8  2  0  0  0  0
  7 15  1  1  0  0  0
  7  9  1  0  0  0  0
  8 12  1  0  0  0  0
  9 14  1  0  0  0  0
 10 21  1  0  0  0  0
 11  5  2  0  0  0  0
 11  8  1  0  0  0  0
 12 27  1  0  0  0  0
 13 18  1  0  0  0  0
 14 23  2  0  0  0  0
 15 23  1  0  0  0  0
 16  2  1  0  0  0  0
 17  3  1  0  0  0  0
 18 25  2  0  0  0  0
 19 26  1  0  0  0  0
 20 17  1  0  0  0  0
 20 22  2  0  0  0  0
 22  9  1  0  0  0  0
 22 10  1  0  0  0  0
 26 25  1  0  0  0  0
 26 17  2  0  0  0  0
 27 24  2  0  0  0  0
 27  7  1  0  0  0  0
 28 30  1  0  0  0  0
 28 11  1  0  0  0  0
 29 30  1  0  0  0  0
M  END
>  <MODEL>
7

>  <REMARK>
 VINA RESULT:      -7.6      2.137      3.815
  Name = 
  2 active torsions:
  status: ('A' for Active; 'I' for Inactive)
    1  A    between atoms: C_11  and  C_28
    2  A    between atoms: C_28  and  O_30
                            x       y       z     vdW  Elec       q    Type
                         _______ _______ _______ _____ _____    ______ ____

>  <TORSDO>
F 2

$$$$
=
 OpenBabel11112416233D

 30 35  0  0  1  0  0  0  0  0999 V2000
  189.1910  175.6570  142.9180 C   0  0  0  0  0  0  0  0  0  0  0  0
  187.1050  176.3350  144.0200 C   0  0  0  0  0  0  0  0  0  0  0  0
  191.4130  176.7910  146.3320 N   0  0  0  0  0  0  0  0  0  0  0  0
  190.7230  175.6770  142.8020 C   0  0  0  0  0  0  0  0  0  0  0  0
  188.4590  175.0680  141.7810 C   0  0  0  0  0  3  0  0  0  0  0  0
  190.9240  172.9260  140.3760 O   0  0  0  0  0  0  0  0  0  0  0  0
  193.6570  175.3030  142.3280 C   0  0  1  0  0  3  0  0  0  0  0  0
  190.4390  173.8300  141.1110 C   0  0  0  0  0  0  0  0  0  0  0  0
  193.7340  175.6580  143.7310 N   0  0  0  0  0  0  0  0  0  0  0  0
  192.6090  176.5050  145.9210 C   0  0  2  0  0  3  0  0  0  0  0  0
  189.0380  174.2380  140.9200 C   0  0  0  0  0  0  0  0  0  0  0  0
  191.2560  174.4790  142.1110 N   0  0  0  0  0  0  0  0  0  0  0  0
  186.4570  176.8780  145.1320 C   0  0  0  0  0  3  0  0  0  0  0  0
  195.0730  175.5660  144.1780 C   0  0  0  0  0  3  0  0  0  0  0  0
  195.0890  174.9080  141.9550 C   0  0  0  0  0  2  0  0  0  0  0  0
  186.3200  175.9830  142.9700 F   0  0  0  0  0  0  0  0  0  0  0  0
  190.5630  176.4500  145.2400 C   0  0  0  0  0  0  0  0  0  0  0  0
  187.1780  177.2840  146.2490 C   0  0  0  0  0  3  0  0  0  0  0  0
  188.5230  176.1950  143.9980 C   0  0  0  0  0  0  0  0  0  0  0  0
  191.3340  175.9200  144.1540 C   0  0  0  0  0  0  0  0  0  0  0  0
  193.8160  176.7320  146.7620 C   0  0  0  0  0  1  0  0  0  0  0  0
  192.6000  175.9820  144.5440 C   0  0  0  0  0  0  0  0  0  0  0  0
  195.8680  175.1540  143.2090 C   0  0  0  0  0  3  0  0  0  0  0  0
  193.0680  172.9950  142.0470 O   0  0  0  0  0  0  0  0  0  0  0  0
  188.5600  177.1470  146.2680 C   0  0  0  0  0  3  0  0  0  0  0  0
  189.2400  176.6090  145.1680 C   0  0  0  0  0  0  0  0  0  0  0  0
  192.6690  174.1890  142.1370 C   0  0  0  0  0  0  0  0  0  0  0  0
  188.2180  173.6570  139.8180 C   0  0  0  0  0  2  0  0  0  0  0  0
  188.6680  173.7890  137.6630 C   0  0  0  0  0  1  0  0  0  0  0  0
  188.1890  174.5380  138.7360 O   0  0  0  0  0  0  0  0  0  0  0  0
  1 19  1  0  0  0  0
  2 13  1  0  0  0  0
  4  1  2  0  0  0  0
  4 20  1  0  0  0  0
  5  1  1  0  0  0  0
  6  8  2  0  0  0  0
  7 15  1  1  0  0  0
  7  9  1  0  0  0  0
  8 12  1  0  0  0  0
  9 14  1  0  0  0  0
  9 22  1  0  0  0  0
 10  3  1  0  0  0  0
 10 21  1  6  0  0  0
 11  8  1  0  0  0  0
 11  5  2  0  0  0  0
 12 27  1  0  0  0  0
 12  4  1  0  0  0  0
 13 18  2  0  0  0  0
 15 23  1  0  0  0  0
 16  2  1  0  0  0  0
 17  3  2  0  0  0  0
 18 25  1  0  0  0  0
 19  2  2  0  0  0  0
 19 26  1  0  0  0  0
 20 22  2  0  0  0  0
 20 17  1  0  0  0  0
 22 10  1  0  0  0  0
 23 14  2  0  0  0  0
 24 27  2  0  0  0  0
 26 17  1  0  0  0  0
 26 25  2  0  0  0  0
 27  7  1  0  0  0  0
 28 11  1  0  0  0  0
 29 30  1  0  0  0  0
 30 28  1  0  0  0  0
M  END
>  <MODEL>
8

>  <REMARK>
 VINA RESULT:      -7.5      2.635      3.752
  Name = 
  2 active torsions:
  status: ('A' for Active; 'I' for Inactive)
    1  A    between atoms: C_11  and  C_28
    2  A    between atoms: C_28  and  O_30
                            x       y       z     vdW  Elec       q    Type
                         _______ _______ _______ _____ _____    ______ ____

>  <TORSDO>
F 2

$$$$
=
 OpenBabel11112416233D

 30 35  0  0  1  0  0  0  0  0999 V2000
  190.0440  175.1080  143.3810 C   0  0  0  0  0  0  0  0  0  0  0  0
  192.3600  174.3180  143.1870 C   0  0  0  0  0  0  0  0  0  0  0  0
  190.9700  177.0610  147.0160 N   0  0  0  0  0  0  0  0  0  0  0  0
  188.8800  175.6840  144.2020 C   0  0  2  0  0  3  0  0  0  0  0  0
  189.7080  174.6150  142.0310 C   0  0  0  0  0  3  0  0  0  0  0  0
  186.7650  176.4710  141.3040 O   0  0  0  0  0  0  0  0  0  0  0  0
  186.4320  176.9510  145.3760 C   0  0  1  0  0  3  0  0  0  0  0  0
  187.7130  176.0010  141.9910 C   0  0  0  0  0  0  0  0  0  0  0  0
  187.3940  177.4780  146.3240 N   0  0  0  0  0  0  0  0  0  0  0  0
  189.8060  177.5580  147.3010 C   0  0  0  0  0  0  0  0  0  0  0  0
  188.6130  175.0040  141.3880 C   0  0  0  0  0  0  0  0  0  0  0  0
  187.8980  176.4130  143.3630 N   0  0  0  0  0  0  0  0  0  0  0  0
  193.6500  174.2430  143.7170 C   0  0  0  0  0  3  0  0  0  0  0  0
  186.7490  178.3550  147.2280 C   0  0  0  0  0  3  0  0  0  0  0  0
  185.1180  177.6490  145.7390 C   0  0  0  0  0  2  0  0  0  0  0  0
  192.1470  173.6760  142.0100 F   0  0  0  0  0  0  0  0  0  0  0  0
  190.7740  176.3610  145.7890 C   0  0  0  0  0  0  0  0  0  0  0  0
  193.9610  174.8530  144.9260 C   0  0  0  0  0  3  0  0  0  0  0  0
  191.3250  175.0110  143.8800 C   0  0  0  0  0  0  0  0  0  0  0  0
  189.4160  176.4930  145.3510 C   0  0  0  0  0  0  0  0  0  0  0  0
  189.5620  178.3570  148.5320 C   0  0  0  0  0  1  0  0  0  0  0  0
  188.7980  177.1960  146.2900 C   0  0  0  0  0  0  0  0  0  0  0  0
  185.4670  178.4740  146.9370 C   0  0  0  0  0  3  0  0  0  0  0  0
  186.4210  178.2320  143.3480 O   0  0  0  0  0  0  0  0  0  0  0  0
  192.9810  175.5520  145.6200 C   0  0  0  0  0  3  0  0  0  0  0  0
  191.6770  175.6430  145.1190 C   0  0  0  0  0  0  0  0  0  0  0  0
  186.8870  177.2390  143.9750 C   0  0  0  0  0  0  0  0  0  0  0  0
  188.3650  174.4880  140.0120 C   0  0  0  0  0  2  0  0  0  0  0  0
  188.4960  172.5170  139.0290 C   0  0  0  0  0  1  0  0  0  0  0  0
  189.2570  173.4520  139.7280 O   0  0  0  0  0  0  0  0  0  0  0  0
  1 19  2  0  0  0  0
  2 13  2  0  0  0  0
  2 19  1  0  0  0  0
  3 10  2  0  0  0  0
  4  1  1  6  0  0  0
  4 20  1  0  0  0  0
  5  1  1  0  0  0  0
  6  8  2  0  0  0  0
  7 15  1  1  0  0  0
  7  9  1  0  0  0  0
  8 12  1  0  0  0  0
  9 14  1  0  0  0  0
 10 21  1  0  0  0  0
 11  8  1  0  0  0  0
 11  5  2  0  0  0  0
 12 27  1  0  0  0  0
 12  4  1  0  0  0  0
 13 18  1  0  0  0  0
 15 23  1  0  0  0  0
 16  2  1  0  0  0  0
 17  3  1  0  0  0  0
 18 25  2  0  0  0  0
 19 26  1  0  0  0  0
 20 17  1  0  0  0  0
 20 22  2  0  0  0  0
 22  9  1  0  0  0  0
 22 10  1  0  0  0  0
 23 14  2  0  0  0  0
 24 27  2  0  0  0  0
 26 25  1  0  0  0  0
 26 17  2  0  0  0  0
 27  7  1  0  0  0  0
 28 11  1  0  0  0  0
 29 30  1  0  0  0  0
 30 28  1  0  0  0  0
M  END
>  <MODEL>
9

>  <REMARK>
 VINA RESULT:      -7.4      2.597      5.814
  Name = 
  2 active torsions:
  status: ('A' for Active; 'I' for Inactive)
    1  A    between atoms: C_11  and  C_28
    2  A    between atoms: C_28  and  O_30
                            x       y       z     vdW  Elec       q    Type
                         _______ _______ _______ _____ _____    ______ ____

>  <TORSDO>
F 2

$$$$
