=
 OpenBabel11112417373D

 28 32  0  0  1  0  0  0  0  0999 V2000
  190.7700  176.6220  144.6690 C   0  0  0  0  0  0  0  0  0  0  0  0
  189.9740  172.7030  142.1310 F   0  0  0  0  0  0  0  0  0  0  0  0
  184.7500  177.6020  142.8590 O   0  0  0  0  0  0  0  0  0  0  0  0
  192.7780  175.0350  143.5300 C   0  0  0  0  0  3  0  0  0  0  0  0
  186.5480  177.3890  141.3590 N   0  0  0  0  0  0  0  0  0  0  0  0
  189.7850  177.5330  145.3200 C   0  0  0  0  0  2  0  0  0  0  0  0
  187.6160  172.7650  142.2810 C   0  0  0  0  0  1  0  0  0  0  0  0
  188.8570  173.3170  141.5980 C   0  0  1  0  0  0  0  0  0  0  0  0
  188.4260  173.9660  139.2260 C   0  0  0  0  0  0  0  0  0  0  0  0
  188.9440  174.8420  141.7610 C   0  0  1  0  0  3  0  0  0  0  0  0
  186.7820  176.3040  146.8540 O   0  0  0  0  0  0  0  0  0  0  0  0
  188.2380  176.7990  142.9160 C   0  0  1  0  0  3  0  0  0  0  0  0
  188.0990  175.2550  139.6850 O   0  0  0  0  0  0  0  0  0  0  0  0
  188.7920  173.0200  140.1110 C   0  0  0  0  0  3  0  0  0  0  0  0
  187.5260  176.9020  146.0340 C   0  0  0  0  0  0  0  0  0  0  0  0
  190.4280  175.7150  143.6260 C   0  0  0  0  0  0  0  0  0  0  0  0
  185.9560  177.3160  142.6390 C   0  0  0  0  0  0  0  0  0  0  0  0
  188.4050  173.6640  137.7720 C   0  0  0  0  0  1  0  0  0  0  0  0
  186.9100  177.6580  144.9000 C   0  0  0  0  0  2  0  0  0  0  0  0
  191.4600  174.9250  143.0860 C   0  0  0  0  0  3  0  0  0  0  0  0
  192.0940  176.7240  145.1080 C   0  0  0  0  0  3  0  0  0  0  0  0
  193.0950  175.9360  144.5430 C   0  0  0  0  0  3  0  0  0  0  0  0
  188.9110  176.8010  146.1650 O   0  0  0  0  0  0  0  0  0  0  0  0
  187.8880  176.8360  141.4130 C   0  0  1  0  0  3  0  0  0  0  0  0
  186.8860  176.7820  143.6570 C   0  0  2  0  0  3  0  0  0  0  0  0
  187.8420  175.4380  141.0310 N   0  0  2  0  0  0  0  0  0  0  0  0
  185.8200  177.6440  140.1270 C   0  0  0  0  0  1  0  0  0  0  0  0
  188.9910  175.4840  143.1490 C   0  0  2  0  0  3  0  0  0  0  0  0
  1 21  1  0  0  0  0
  1  6  1  0  0  0  0
  4 22  1  0  0  0  0
  5 24  1  0  0  0  0
  5 17  1  0  0  0  0
  6 23  1  0  0  0  0
  8 10  1  0  0  0  0
  8  2  1  0  0  0  0
  8  7  1  1  0  0  0
  9 13  1  0  0  0  0
  9 14  2  0  0  0  0
 10 28  1  0  0  0  0
 12 28  1  0  0  0  0
 12 25  1  0  0  0  0
 13 26  1  0  0  0  0
 14  8  1  0  0  0  0
 15 23  1  0  0  0  0
 15 11  2  0  0  0  0
 16  1  2  0  0  0  0
 17  3  2  0  0  0  0
 17 25  1  0  0  0  0
 18  9  1  0  0  0  0
 19 15  1  0  0  0  0
 20  4  2  0  0  0  0
 20 16  1  0  0  0  0
 22 21  2  0  0  0  0
 24 12  1  0  0  0  0
 25 19  1  0  0  0  0
 26 24  1  0  0  0  0
 26 10  1  0  0  0  0
 27  5  1  0  0  0  0
 28 16  1  0  0  0  0
M  END
>  <MODEL>
1

>  <REMARK>
 VINA RESULT:      -8.2      0.000      0.000
  Name = 
  0 active torsions:
  status: ('A' for Active; 'I' for Inactive)
                            x       y       z     vdW  Elec       q    Type
                         _______ _______ _______ _____ _____    ______ ____

>  <TORSDO>
F 0

$$$$
=
 OpenBabel11112417373D

 28 32  0  0  1  0  0  0  0  0999 V2000
  187.1340  176.4570  146.4800 C   0  0  0  0  0  0  0  0  0  0  0  0
  186.9700  179.0550  142.5220 F   0  0  0  0  0  0  0  0  0  0  0  0
  191.8410  173.7890  143.1340 O   0  0  0  0  0  0  0  0  0  0  0  0
  184.8980  177.9180  145.6320 C   0  0  0  0  0  3  0  0  0  0  0  0
  189.5960  173.8210  142.4360 N   0  0  0  0  0  0  0  0  0  0  0  0
  188.2630  175.6510  147.0250 C   0  0  0  0  0  2  0  0  0  0  0  0
  189.1780  178.5970  141.8140 C   0  0  0  0  0  1  0  0  0  0  0  0
  187.7460  178.0950  141.9010 C   0  0  1  0  0  0  0  0  0  0  0  0
  187.1420  176.6100  139.9880 C   0  0  0  0  0  0  0  0  0  0  0  0
  187.6750  176.7610  142.6620 C   0  0  1  0  0  3  0  0  0  0  0  0
  191.6760  176.7270  146.7540 O   0  0  0  0  0  0  0  0  0  0  0  0
  188.7160  175.2150  144.1420 C   0  0  1  0  0  3  0  0  0  0  0  0
  187.5780  175.5150  140.7570 O   0  0  0  0  0  0  0  0  0  0  0  0
  187.2080  177.8510  140.5040 C   0  0  0  0  0  3  0  0  0  0  0  0
  190.6390  176.0420  146.5630 C   0  0  0  0  0  0  0  0  0  0  0  0
  187.0530  176.8740  145.1210 C   0  0  0  0  0  0  0  0  0  0  0  0
  190.6620  174.2090  143.2760 C   0  0  0  0  0  0  0  0  0  0  0  0
  186.5770  176.3920  138.6320 C   0  0  0  0  0  1  0  0  0  0  0  0
  190.7070  174.8430  145.6700 C   0  0  0  0  0  2  0  0  0  0  0  0
  185.9210  177.6160  144.7330 C   0  0  0  0  0  3  0  0  0  0  0  0
  186.1030  176.7660  147.3730 C   0  0  0  0  0  3  0  0  0  0  0  0
  184.9900  177.4910  146.9540 C   0  0  0  0  0  3  0  0  0  0  0  0
  189.4340  176.4450  147.1390 O   0  0  0  0  0  0  0  0  0  0  0  0
  188.4180  174.6050  142.7550 C   0  0  1  0  0  3  0  0  0  0  0  0
  190.2520  175.2230  144.2700 C   0  0  2  0  0  3  0  0  0  0  0  0
  188.3570  175.7550  141.8740 N   0  0  2  0  0  0  0  0  0  0  0  0
  189.7440  173.0290  141.2260 C   0  0  0  0  0  1  0  0  0  0  0  0
  188.1760  176.6500  144.1030 C   0  0  2  0  0  3  0  0  0  0  0  0
  1  6  1  0  0  0  0
  1 21  1  0  0  0  0
  3 17  2  0  0  0  0
  4 22  1  0  0  0  0
  5 24  1  0  0  0  0
  5 17  1  0  0  0  0
  6 23  1  0  0  0  0
  8  7  1  6  0  0  0
  8  2  1  0  0  0  0
  8 10  1  0  0  0  0
  9 14  2  0  0  0  0
  9 13  1  0  0  0  0
 10 28  1  0  0  0  0
 12 25  1  0  0  0  0
 13 26  1  0  0  0  0
 14  8  1  0  0  0  0
 15 11  2  0  0  0  0
 15 23  1  0  0  0  0
 16  1  2  0  0  0  0
 17 25  1  0  0  0  0
 18  9  1  0  0  0  0
 19 15  1  0  0  0  0
 20 16  1  0  0  0  0
 20  4  2  0  0  0  0
 22 21  2  0  0  0  0
 24 12  1  0  0  0  0
 25 19  1  0  0  0  0
 26 10  1  0  0  0  0
 26 24  1  0  0  0  0
 27  5  1  0  0  0  0
 28 12  1  0  0  0  0
 28 16  1  0  0  0  0
M  END
>  <MODEL>
2

>  <REMARK>
 VINA RESULT:      -8.1      2.304      4.936
  Name = 
  0 active torsions:
  status: ('A' for Active; 'I' for Inactive)
                            x       y       z     vdW  Elec       q    Type
                         _______ _______ _______ _____ _____    ______ ____

>  <TORSDO>
F 0

$$$$
=
 OpenBabel11112417373D

 28 32  0  0  1  0  0  0  0  0999 V2000
  191.5460  176.5190  145.0720 C   0  0  0  0  0  0  0  0  0  0  0  0
  189.7280  174.4990  141.1920 F   0  0  0  0  0  0  0  0  0  0  0  0
  185.3250  176.9700  146.3240 O   0  0  0  0  0  0  0  0  0  0  0  0
  192.8990  176.2690  142.6310 C   0  0  0  0  0  3  0  0  0  0  0  0
  186.3650  177.9900  144.4780 N   0  0  0  0  0  0  0  0  0  0  0  0
  190.9220  176.6990  146.4130 C   0  0  0  0  0  2  0  0  0  0  0  0
  187.6310  173.9550  142.1360 C   0  0  0  0  0  1  0  0  0  0  0  0
  188.5020  175.0420  141.5260 C   0  0  1  0  0  0  0  0  0  0  0  0
  187.1660  176.7450  140.2830 C   0  0  0  0  0  0  0  0  0  0  0  0
  188.6740  176.2190  142.4980 C   0  0  1  0  0  3  0  0  0  0  0  0
  188.7670  174.2210  147.8600 O   0  0  0  0  0  0  0  0  0  0  0  0
  188.5270  177.0460  144.7250 C   0  0  1  0  0  3  0  0  0  0  0  0
  187.0750  177.4810  141.4780 O   0  0  0  0  0  0  0  0  0  0  0  0
  187.8400  175.5790  140.2720 C   0  0  0  0  0  3  0  0  0  0  0  0
  189.1300  175.3090  147.3440 C   0  0  0  0  0  0  0  0  0  0  0  0
  190.7990  176.2600  143.8880 C   0  0  0  0  0  0  0  0  0  0  0  0
  186.3360  177.1180  145.5880 C   0  0  0  0  0  0  0  0  0  0  0  0
  186.5580  177.2690  139.0340 C   0  0  0  0  0  1  0  0  0  0  0  0
  188.1240  176.3980  147.1440 C   0  0  0  0  0  2  0  0  0  0  0  0
  191.5120  176.1290  142.6820 C   0  0  0  0  0  3  0  0  0  0  0  0
  192.9370  176.6570  145.0100 C   0  0  0  0  0  3  0  0  0  0  0  0
  193.6120  176.5340  143.7970 C   0  0  0  0  0  3  0  0  0  0  0  0
  190.4490  175.4590  146.9150 O   0  0  0  0  0  0  0  0  0  0  0  0
  187.6030  177.8020  143.7460 C   0  0  1  0  0  3  0  0  0  0  0  0
  187.5870  176.3410  145.7230 C   0  0  2  0  0  3  0  0  0  0  0  0
  187.3830  176.8550  142.6710 N   0  0  2  0  0  0  0  0  0  0  0  0
  185.2080  178.6980  143.9540 C   0  0  0  0  0  1  0  0  0  0  0  0
  189.2870  176.0120  143.8850 C   0  0  2  0  0  3  0  0  0  0  0  0
  1  6  1  0  0  0  0
  2  8  1  0  0  0  0
  4 20  2  0  0  0  0
  4 22  1  0  0  0  0
  5 17  1  0  0  0  0
  6 23  1  0  0  0  0
  8  7  1  1  0  0  0
  8 10  1  0  0  0  0
  9 13  1  0  0  0  0
 10 26  1  0  0  0  0
 10 28  1  0  0  0  0
 12 25  1  0  0  0  0
 13 26  1  0  0  0  0
 14  9  2  0  0  0  0
 14  8  1  0  0  0  0
 15 11  2  0  0  0  0
 16  1  2  0  0  0  0
 17 25  1  0  0  0  0
 17  3  2  0  0  0  0
 18  9  1  0  0  0  0
 19 15  1  0  0  0  0
 20 16  1  0  0  0  0
 21  1  1  0  0  0  0
 22 21  2  0  0  0  0
 23 15  1  0  0  0  0
 24  5  1  0  0  0  0
 24 12  1  0  0  0  0
 25 19  1  0  0  0  0
 26 24  1  0  0  0  0
 27  5  1  0  0  0  0
 28 16  1  0  0  0  0
 28 12  1  0  0  0  0
M  END
>  <MODEL>
3

>  <REMARK>
 VINA RESULT:      -8.1      1.704      2.421
  Name = 
  0 active torsions:
  status: ('A' for Active; 'I' for Inactive)
                            x       y       z     vdW  Elec       q    Type
                         _______ _______ _______ _____ _____    ______ ____

>  <TORSDO>
F 0

$$$$
=
 OpenBabel11112417373D

 28 32  0  0  1  0  0  0  0  0999 V2000
  188.5540  173.7360  142.3170 C   0  0  0  0  0  0  0  0  0  0  0  0
  192.4110  175.6190  144.3200 F   0  0  0  0  0  0  0  0  0  0  0  0
  186.1580  179.1750  144.5850 O   0  0  0  0  0  0  0  0  0  0  0  0
  190.8080  172.2710  143.1050 C   0  0  0  0  0  3  0  0  0  0  0  0
  187.1060  177.5010  145.9360 N   0  0  0  0  0  0  0  0  0  0  0  0
  187.3100  174.4170  141.8580 C   0  0  0  0  0  2  0  0  0  0  0  0
  191.6470  177.8550  144.3140 C   0  0  0  0  0  1  0  0  0  0  0  0
  191.5880  176.4980  144.9970 C   0  0  1  0  0  0  0  0  0  0  0  0
  191.2070  176.6880  147.4570 C   0  0  0  0  0  0  0  0  0  0  0  0
  190.1470  175.9670  145.0450 C   0  0  1  0  0  3  0  0  0  0  0  0
  187.3690  177.6680  140.3400 O   0  0  0  0  0  0  0  0  0  0  0  0
  187.9180  176.0800  144.2190 C   0  0  1  0  0  3  0  0  0  0  0  0
  189.8250  176.6260  147.2030 O   0  0  0  0  0  0  0  0  0  0  0  0
  192.0740  176.6280  146.4280 C   0  0  0  0  0  3  0  0  0  0  0  0
  187.1440  176.7700  141.1910 C   0  0  0  0  0  0  0  0  0  0  0  0
  189.4700  174.3160  143.2400 C   0  0  0  0  0  0  0  0  0  0  0  0
  186.8100  178.1040  144.6940 C   0  0  0  0  0  0  0  0  0  0  0  0
  191.7070  176.7780  148.8530 C   0  0  0  0  0  1  0  0  0  0  0  0
  186.4220  177.1220  142.4530 C   0  0  0  0  0  2  0  0  0  0  0  0
  190.5970  173.5560  143.6040 C   0  0  0  0  0  3  0  0  0  0  0  0
  188.7750  172.4460  141.8230 C   0  0  0  0  0  3  0  0  0  0  0  0
  189.8950  171.7150  142.2140 C   0  0  0  0  0  3  0  0  0  0  0  0
  187.6210  175.4790  140.9690 O   0  0  0  0  0  0  0  0  0  0  0  0
  188.0090  176.3850  145.7290 C   0  0  1  0  0  3  0  0  0  0  0  0
  187.4300  177.3860  143.5600 C   0  0  2  0  0  3  0  0  0  0  0  0
  189.3750  176.8350  145.9130 N   0  0  2  0  0  0  0  0  0  0  0  0
  186.8400  178.1050  147.2310 C   0  0  0  0  0  1  0  0  0  0  0  0
  189.3440  175.7510  143.7610 C   0  0  2  0  0  3  0  0  0  0  0  0
  1 16  1  0  0  0  0
  2  8  1  0  0  0  0
  3 17  2  0  0  0  0
  4 20  1  0  0  0  0
  5 27  1  0  0  0  0
  6  1  1  0  0  0  0
  8  7  1  6  0  0  0
  8 10  1  0  0  0  0
  8 14  1  0  0  0  0
  9 18  1  0  0  0  0
 10 26  1  0  0  0  0
 11 15  2  0  0  0  0
 12 24  1  0  0  0  0
 13  9  1  0  0  0  0
 14  9  2  0  0  0  0
 15 19  1  0  0  0  0
 16 20  2  0  0  0  0
 16 28  1  0  0  0  0
 17  5  1  0  0  0  0
 19 25  1  0  0  0  0
 21 22  1  0  0  0  0
 21  1  2  0  0  0  0
 22  4  2  0  0  0  0
 23 15  1  0  0  0  0
 23  6  1  0  0  0  0
 24 26  1  0  0  0  0
 24  5  1  0  0  0  0
 25 12  1  0  0  0  0
 25 17  1  0  0  0  0
 26 13  1  0  0  0  0
 28 12  1  0  0  0  0
 28 10  1  0  0  0  0
M  END
>  <MODEL>
4

>  <REMARK>
 VINA RESULT:      -7.7      2.296      5.474
  Name = 
  0 active torsions:
  status: ('A' for Active; 'I' for Inactive)
                            x       y       z     vdW  Elec       q    Type
                         _______ _______ _______ _____ _____    ______ ____

>  <TORSDO>
F 0

$$$$
=
 OpenBabel11112417373D

 28 32  0  0  1  0  0  0  0  0999 V2000
  192.0980  176.0850  144.5410 C   0  0  0  0  0  0  0  0  0  0  0  0
  190.8310  172.6710  141.5110 F   0  0  0  0  0  0  0  0  0  0  0  0
  185.7660  176.6850  144.6820 O   0  0  0  0  0  0  0  0  0  0  0  0
  193.7810  174.9980  142.5820 C   0  0  0  0  0  3  0  0  0  0  0  0
  187.0640  176.9820  142.7450 N   0  0  0  0  0  0  0  0  0  0  0  0
  191.2920  176.7290  145.6170 C   0  0  0  0  0  2  0  0  0  0  0  0
  188.6180  172.4250  142.3010 C   0  0  0  0  0  1  0  0  0  0  0  0
  189.5750  173.2420  141.4480 C   0  0  1  0  0  0  0  0  0  0  0  0
  188.4420  174.2870  139.4840 C   0  0  0  0  0  0  0  0  0  0  0  0
  189.6170  174.7060  141.9140 C   0  0  1  0  0  3  0  0  0  0  0  0
  188.9340  174.8810  147.5930 O   0  0  0  0  0  0  0  0  0  0  0  0
  189.1630  176.3030  143.6190 C   0  0  1  0  0  3  0  0  0  0  0  0
  188.1870  175.4140  140.2870 O   0  0  0  0  0  0  0  0  0  0  0  0
  189.1010  173.2360  140.0060 C   0  0  0  0  0  3  0  0  0  0  0  0
  189.3750  175.7100  146.7560 C   0  0  0  0  0  0  0  0  0  0  0  0
  191.5230  175.3650  143.4550 C   0  0  0  0  0  0  0  0  0  0  0  0
  186.8720  176.5920  144.0880 C   0  0  0  0  0  0  0  0  0  0  0  0
  188.0200  174.2740  138.0600 C   0  0  0  0  0  1  0  0  0  0  0  0
  188.4160  176.5950  146.0260 C   0  0  0  0  0  2  0  0  0  0  0  0
  192.3990  174.8230  142.4960 C   0  0  0  0  0  3  0  0  0  0  0  0
  193.4850  176.2550  144.6170 C   0  0  0  0  0  3  0  0  0  0  0  0
  194.3230  175.7160  143.6440 C   0  0  0  0  0  3  0  0  0  0  0  0
  190.7430  175.7490  146.4830 O   0  0  0  0  0  0  0  0  0  0  0  0
  188.3920  176.5900  142.3120 C   0  0  1  0  0  3  0  0  0  0  0  0
  188.0850  175.9830  144.6740 C   0  0  2  0  0  3  0  0  0  0  0  0
  188.3190  175.2990  141.6580 N   0  0  2  0  0  0  0  0  0  0  0  0
  185.9990  177.3860  141.8420 C   0  0  0  0  0  1  0  0  0  0  0  0
  190.0250  175.0650  143.3440 C   0  0  2  0  0  3  0  0  0  0  0  0
  1 21  1  0  0  0  0
  1  6  1  0  0  0  0
  4 22  1  0  0  0  0
  5 17  1  0  0  0  0
  6 23  1  0  0  0  0
  8  2  1  0  0  0  0
  8 10  1  0  0  0  0
  8  7  1  1  0  0  0
  9 14  2  0  0  0  0
  9 13  1  0  0  0  0
 10 28  1  0  0  0  0
 12 25  1  0  0  0  0
 13 26  1  0  0  0  0
 14  8  1  0  0  0  0
 15 11  2  0  0  0  0
 16  1  2  0  0  0  0
 17 25  1  0  0  0  0
 17  3  2  0  0  0  0
 18  9  1  0  0  0  0
 19 15  1  0  0  0  0
 20  4  2  0  0  0  0
 20 16  1  0  0  0  0
 22 21  2  0  0  0  0
 23 15  1  0  0  0  0
 24  5  1  0  0  0  0
 24 12  1  0  0  0  0
 25 19  1  0  0  0  0
 26 10  1  0  0  0  0
 26 24  1  0  0  0  0
 27  5  1  0  0  0  0
 28 16  1  0  0  0  0
 28 12  1  0  0  0  0
M  END
>  <MODEL>
5

>  <REMARK>
 VINA RESULT:      -7.6      1.238      1.494
  Name = 
  0 active torsions:
  status: ('A' for Active; 'I' for Inactive)
                            x       y       z     vdW  Elec       q    Type
                         _______ _______ _______ _____ _____    ______ ____

>  <TORSDO>
F 0

$$$$
=
 OpenBabel11112417373D

 28 32  0  0  1  0  0  0  0  0999 V2000
  186.0350  177.2830  146.1290 C   0  0  0  0  0  0  0  0  0  0  0  0
  186.7490  179.2970  141.9010 F   0  0  0  0  0  0  0  0  0  0  0  0
  190.9630  173.8580  144.0170 O   0  0  0  0  0  0  0  0  0  0  0  0
  184.1070  178.7550  144.7270 C   0  0  0  0  0  3  0  0  0  0  0  0
  188.8720  173.9400  142.9440 N   0  0  0  0  0  0  0  0  0  0  0  0
  186.9840  176.4890  146.9600 C   0  0  0  0  0  2  0  0  0  0  0  0
  188.9920  178.5970  141.6500 C   0  0  0  0  0  1  0  0  0  0  0  0
  187.5250  178.2090  141.5520 C   0  0  1  0  0  0  0  0  0  0  0  0
  187.1080  176.5110  139.7710 C   0  0  0  0  0  0  0  0  0  0  0  0
  187.2120  177.0050  142.4550 C   0  0  1  0  0  3  0  0  0  0  0  0
  190.4790  177.2850  147.1450 O   0  0  0  0  0  0  0  0  0  0  0  0
  187.8570  175.6190  144.2780 C   0  0  1  0  0  3  0  0  0  0  0  0
  187.3140  175.5100  140.7380 O   0  0  0  0  0  0  0  0  0  0  0  0
  187.2000  177.8060  140.1260 C   0  0  0  0  0  3  0  0  0  0  0  0
  189.4290  176.6500  146.8680 C   0  0  0  0  0  0  0  0  0  0  0  0
  186.2130  177.5070  144.7340 C   0  0  0  0  0  0  0  0  0  0  0  0
  189.8190  174.3710  143.8990 C   0  0  0  0  0  0  0  0  0  0  0  0
  186.7530  176.1410  138.3770 C   0  0  0  0  0  1  0  0  0  0  0  0
  189.5320  175.3350  146.1630 C   0  0  0  0  0  2  0  0  0  0  0  0
  185.2310  178.2610  144.0650 C   0  0  0  0  0  3  0  0  0  0  0  0
  184.9050  177.7840  146.7830 C   0  0  0  0  0  3  0  0  0  0  0  0
  183.9440  178.5150  146.0890 C   0  0  0  0  0  3  0  0  0  0  0  0
  188.1880  177.2100  147.1710 O   0  0  0  0  0  0  0  0  0  0  0  0
  187.7340  174.8390  142.9520 C   0  0  1  0  0  3  0  0  0  0  0  0
  189.3470  175.5420  144.6680 C   0  0  2  0  0  3  0  0  0  0  0  0
  187.9200  175.8530  141.9330 N   0  0  2  0  0  0  0  0  0  0  0  0
  189.1430  172.9760  141.8910 C   0  0  0  0  0  1  0  0  0  0  0  0
  187.4610  177.0660  143.9630 C   0  0  2  0  0  3  0  0  0  0  0  0
  1 21  1  0  0  0  0
  1  6  1  0  0  0  0
  4 22  1  0  0  0  0
  5 24  1  0  0  0  0
  5 17  1  0  0  0  0
  6 23  1  0  0  0  0
  8  7  1  1  0  0  0
  8  2  1  0  0  0  0
  8 10  1  0  0  0  0
  9 14  2  0  0  0  0
  9 13  1  0  0  0  0
 10 28  1  0  0  0  0
 12 25  1  0  0  0  0
 13 26  1  0  0  0  0
 14  8  1  0  0  0  0
 15 11  2  0  0  0  0
 15 23  1  0  0  0  0
 16  1  2  0  0  0  0
 17  3  2  0  0  0  0
 17 25  1  0  0  0  0
 18  9  1  0  0  0  0
 19 15  1  0  0  0  0
 20  4  2  0  0  0  0
 20 16  1  0  0  0  0
 22 21  2  0  0  0  0
 24 12  1  0  0  0  0
 25 19  1  0  0  0  0
 26 10  1  0  0  0  0
 26 24  1  0  0  0  0
 27  5  1  0  0  0  0
 28 12  1  0  0  0  0
 28 16  1  0  0  0  0
M  END
>  <MODEL>
6

>  <REMARK>
 VINA RESULT:      -7.5      2.414      5.043
  Name = 
  0 active torsions:
  status: ('A' for Active; 'I' for Inactive)
                            x       y       z     vdW  Elec       q    Type
                         _______ _______ _______ _____ _____    ______ ____

>  <TORSDO>
F 0

$$$$
=
 OpenBabel11112417373D

 28 32  0  0  1  0  0  0  0  0999 V2000
  191.3410  176.2640  145.6510 C   0  0  0  0  0  0  0  0  0  0  0  0
  190.9620  172.1450  143.3420 F   0  0  0  0  0  0  0  0  0  0  0  0
  185.6310  176.9670  142.9340 O   0  0  0  0  0  0  0  0  0  0  0  0
  193.5090  174.6400  144.9380 C   0  0  0  0  0  3  0  0  0  0  0  0
  187.6280  176.6810  141.7260 N   0  0  0  0  0  0  0  0  0  0  0  0
  190.2630  177.1990  146.0820 C   0  0  0  0  0  2  0  0  0  0  0  0
  188.6060  172.1660  143.1510 C   0  0  0  0  0  1  0  0  0  0  0  0
  189.9260  172.6920  142.6090 C   0  0  1  0  0  0  0  0  0  0  0  0
  189.8320  173.1490  140.1570 C   0  0  0  0  0  0  0  0  0  0  0  0
  189.9710  174.2270  142.6620 C   0  0  1  0  0  3  0  0  0  0  0  0
  187.0850  176.0240  147.2660 O   0  0  0  0  0  0  0  0  0  0  0  0
  189.0840  176.2500  143.5480 C   0  0  1  0  0  3  0  0  0  0  0  0
  189.4280  174.4610  140.4620 O   0  0  0  0  0  0  0  0  0  0  0  0
  190.0780  172.2810  141.1560 C   0  0  0  0  0  3  0  0  0  0  0  0
  187.9320  176.5740  146.5160 C   0  0  0  0  0  0  0  0  0  0  0  0
  191.1630  175.2720  144.6450 C   0  0  0  0  0  0  0  0  0  0  0  0
  186.8600  176.6920  142.9110 C   0  0  0  0  0  0  0  0  0  0  0  0
  190.0230  172.7360  138.7430 C   0  0  0  0  0  1  0  0  0  0  0  0
  187.4760  177.2270  145.2500 C   0  0  0  0  0  2  0  0  0  0  0  0
  192.2700  174.4670  144.3210 C   0  0  0  0  0  3  0  0  0  0  0  0
  192.5880  176.4290  146.2640 C   0  0  0  0  0  3  0  0  0  0  0  0
  193.6680  175.6230  145.9100 C   0  0  0  0  0  3  0  0  0  0  0  0
  189.2850  176.5140  146.8500 O   0  0  0  0  0  0  0  0  0  0  0  0
  188.9530  176.1640  142.0130 C   0  0  1  0  0  3  0  0  0  0  0  0
  187.6410  176.2590  144.0890 C   0  0  2  0  0  3  0  0  0  0  0  0
  188.9790  174.7400  141.7390 N   0  0  2  0  0  0  0  0  0  0  0  0
  187.0820  176.8250  140.3870 C   0  0  0  0  0  1  0  0  0  0  0  0
  189.8120  174.9730  143.9880 C   0  0  2  0  0  3  0  0  0  0  0  0
  1  6  1  0  0  0  0
  1 21  1  0  0  0  0
  4 22  1  0  0  0  0
  5 24  1  0  0  0  0
  5 17  1  0  0  0  0
  6 23  1  0  0  0  0
  8 10  1  0  0  0  0
  8  7  1  1  0  0  0
  8  2  1  0  0  0  0
  9 13  1  0  0  0  0
  9 14  2  0  0  0  0
 10 28  1  0  0  0  0
 12 28  1  0  0  0  0
 12 25  1  0  0  0  0
 13 26  1  0  0  0  0
 14  8  1  0  0  0  0
 15 23  1  0  0  0  0
 15 11  2  0  0  0  0
 16  1  2  0  0  0  0
 17  3  2  0  0  0  0
 17 25  1  0  0  0  0
 18  9  1  0  0  0  0
 19 15  1  0  0  0  0
 20 16  1  0  0  0  0
 20  4  2  0  0  0  0
 22 21  2  0  0  0  0
 24 12  1  0  0  0  0
 25 19  1  0  0  0  0
 26 24  1  0  0  0  0
 26 10  1  0  0  0  0
 27  5  1  0  0  0  0
 28 16  1  0  0  0  0
M  END
>  <MODEL>
7

>  <REMARK>
 VINA RESULT:      -7.5      1.290      1.390
  Name = 
  0 active torsions:
  status: ('A' for Active; 'I' for Inactive)
                            x       y       z     vdW  Elec       q    Type
                         _______ _______ _______ _____ _____    ______ ____

>  <TORSDO>
F 0

$$$$
=
 OpenBabel11112417373D

 28 32  0  0  1  0  0  0  0  0999 V2000
  187.2890  177.2440  142.3490 C   0  0  0  0  0  0  0  0  0  0  0  0
  187.9730  176.0660  146.8860 F   0  0  0  0  0  0  0  0  0  0  0  0
  192.5620  173.7170  141.8620 O   0  0  0  0  0  0  0  0  0  0  0  0
  186.2370  178.6540  144.5300 C   0  0  0  0  0  3  0  0  0  0  0  0
  192.4310  175.7080  143.1060 N   0  0  0  0  0  0  0  0  0  0  0  0
  187.7940  176.5690  141.1200 C   0  0  0  0  0  2  0  0  0  0  0  0
  189.3150  174.1670  146.4670 C   0  0  0  0  0  1  0  0  0  0  0  0
  189.2590  175.6840  146.5570 C   0  0  1  0  0  0  0  0  0  0  0  0
  191.4180  176.6710  147.3290 C   0  0  0  0  0  0  0  0  0  0  0  0
  189.6980  176.3320  145.2350 C   0  0  1  0  0  3  0  0  0  0  0  0
  188.0570  172.9970  140.8830 O   0  0  0  0  0  0  0  0  0  0  0  0
  190.1000  176.1000  142.9010 C   0  0  1  0  0  3  0  0  0  0  0  0
  191.8080  176.7610  145.9810 O   0  0  0  0  0  0  0  0  0  0  0  0
  190.2090  176.1640  147.6380 C   0  0  0  0  0  3  0  0  0  0  0  0
  188.4120  174.2020  140.9540 C   0  0  0  0  0  0  0  0  0  0  0  0
  187.8570  177.0490  143.6400 C   0  0  0  0  0  0  0  0  0  0  0  0
  191.8730  174.6440  142.3640 C   0  0  0  0  0  0  0  0  0  0  0  0
  192.3160  177.1690  148.4020 C   0  0  0  0  0  1  0  0  0  0  0  0
  189.8680  174.5410  140.9120 C   0  0  0  0  0  2  0  0  0  0  0  0
  187.2960  177.7650  144.7140 C   0  0  0  0  0  3  0  0  0  0  0  0
  186.2270  178.1380  142.1760 C   0  0  0  0  0  3  0  0  0  0  0  0
  185.7030  178.8410  143.2580 C   0  0  0  0  0  3  0  0  0  0  0  0
  187.4460  175.1930  141.1280 O   0  0  0  0  0  0  0  0  0  0  0  0
  191.3660  176.5040  143.6860 C   0  0  1  0  0  3  0  0  0  0  0  0
  190.3960  174.6980  142.3290 C   0  0  2  0  0  3  0  0  0  0  0  0
  191.1040  176.0400  145.0340 N   0  0  2  0  0  0  0  0  0  0  0  0
  193.8230  175.7880  143.5130 C   0  0  0  0  0  1  0  0  0  0  0  0
  188.9630  176.0280  143.9280 C   0  0  2  0  0  3  0  0  0  0  0  0
  1 16  1  0  0  0  0
  3 17  2  0  0  0  0
  4 20  1  0  0  0  0
  5 27  1  0  0  0  0
  5 24  1  0  0  0  0
  6 23  1  0  0  0  0
  6  1  1  0  0  0  0
  8  7  1  6  0  0  0
  8  2  1  0  0  0  0
  8 14  1  0  0  0  0
  9 14  2  0  0  0  0
  9 18  1  0  0  0  0
 10  8  1  0  0  0  0
 11 15  2  0  0  0  0
 12 24  1  0  0  0  0
 12 28  1  0  0  0  0
 13  9  1  0  0  0  0
 15 23  1  0  0  0  0
 16 28  1  0  0  0  0
 16 20  2  0  0  0  0
 17  5  1  0  0  0  0
 19 15  1  0  0  0  0
 19 25  1  0  0  0  0
 21  1  2  0  0  0  0
 21 22  1  0  0  0  0
 22  4  2  0  0  0  0
 24 26  1  0  0  0  0
 25 17  1  0  0  0  0
 25 12  1  0  0  0  0
 26 10  1  0  0  0  0
 26 13  1  0  0  0  0
 28 10  1  0  0  0  0
M  END
>  <MODEL>
8

>  <REMARK>
 VINA RESULT:      -7.4      2.652      6.405
  Name = 
  0 active torsions:
  status: ('A' for Active; 'I' for Inactive)
                            x       y       z     vdW  Elec       q    Type
                         _______ _______ _______ _____ _____    ______ ____

>  <TORSDO>
F 0

$$$$
=
 OpenBabel11112417373D

 28 32  0  0  1  0  0  0  0  0999 V2000
  193.7300  174.8860  144.3380 C   0  0  0  0  0  0  0  0  0  0  0  0
  190.5580  178.3950  144.6030 F   0  0  0  0  0  0  0  0  0  0  0  0
  189.6600  173.1330  139.7720 O   0  0  0  0  0  0  0  0  0  0  0  0
  193.3540  176.5170  146.5840 C   0  0  0  0  0  3  0  0  0  0  0  0
  189.0710  173.3440  142.0390 N   0  0  0  0  0  0  0  0  0  0  0  0
  194.0150  173.9660  143.2010 C   0  0  0  0  0  2  0  0  0  0  0  0
  189.6830  178.1240  142.4240 C   0  0  0  0  0  1  0  0  0  0  0  0
  189.6910  177.6190  143.8590 C   0  0  1  0  0  0  0  0  0  0  0  0
  187.4870  176.6640  144.5410 C   0  0  0  0  0  0  0  0  0  0  0  0
  190.0940  176.1380  143.9190 C   0  0  1  0  0  3  0  0  0  0  0  0
  193.9060  175.0680  139.7870 O   0  0  0  0  0  0  0  0  0  0  0  0
  191.1010  174.2670  142.8470 C   0  0  1  0  0  3  0  0  0  0  0  0
  187.9420  175.4110  144.0920 O   0  0  0  0  0  0  0  0  0  0  0  0
  188.2960  177.7360  144.4450 C   0  0  0  0  0  3  0  0  0  0  0  0
  193.5850  174.4540  140.8370 C   0  0  0  0  0  0  0  0  0  0  0  0
  192.5230  175.6310  144.4590 C   0  0  0  0  0  0  0  0  0  0  0  0
  189.9440  173.5060  140.9410 C   0  0  0  0  0  0  0  0  0  0  0  0
  186.1410  176.7950  145.1530 C   0  0  0  0  0  1  0  0  0  0  0  0
  192.4180  173.5180  140.8120 C   0  0  0  0  0  2  0  0  0  0  0  0
  192.3730  176.4490  145.5940 C   0  0  0  0  0  3  0  0  0  0  0  0
  194.7070  174.9620  145.3360 C   0  0  0  0  0  3  0  0  0  0  0  0
  194.5220  175.7720  146.4540 C   0  0  0  0  0  3  0  0  0  0  0  0
  194.2850  174.7020  142.0180 O   0  0  0  0  0  0  0  0  0  0  0  0
  189.6180  174.0260  143.1970 C   0  0  1  0  0  3  0  0  0  0  0  0
  191.1750  174.2390  141.3070 C   0  0  2  0  0  3  0  0  0  0  0  0
  189.0550  175.3600  143.2740 N   0  0  2  0  0  0  0  0  0  0  0  0
  187.6970  172.8810  141.9390 C   0  0  0  0  0  1  0  0  0  0  0  0
  191.4430  175.6670  143.3730 C   0  0  2  0  0  3  0  0  0  0  0  0
  1 16  2  0  0  0  0
  1 21  1  0  0  0  0
  3 17  2  0  0  0  0
  5 24  1  0  0  0  0
  6  1  1  0  0  0  0
  8  7  1  6  0  0  0
  8 10  1  0  0  0  0
  8 14  1  0  0  0  0
  8  2  1  0  0  0  0
  9 18  1  0  0  0  0
 11 15  2  0  0  0  0
 12 24  1  0  0  0  0
 12 28  1  0  0  0  0
 13  9  1  0  0  0  0
 14  9  2  0  0  0  0
 15 23  1  0  0  0  0
 16 20  1  0  0  0  0
 17 25  1  0  0  0  0
 17  5  1  0  0  0  0
 19 15  1  0  0  0  0
 19 25  1  0  0  0  0
 20  4  2  0  0  0  0
 21 22  2  0  0  0  0
 22  4  1  0  0  0  0
 23  6  1  0  0  0  0
 24 26  1  0  0  0  0
 25 12  1  0  0  0  0
 26 10  1  0  0  0  0
 26 13  1  0  0  0  0
 27  5  1  0  0  0  0
 28 10  1  0  0  0  0
 28 16  1  0  0  0  0
M  END
>  <MODEL>
9

>  <REMARK>
 VINA RESULT:      -7.3      2.672      5.534
  Name = 
  0 active torsions:
  status: ('A' for Active; 'I' for Inactive)
                            x       y       z     vdW  Elec       q    Type
                         _______ _______ _______ _____ _____    ______ ____

>  <TORSDO>
F 0

$$$$
