=
 OpenBabel11112417243D

 37 42  0  0  1  0  0  0  0  0999 V2000
  185.5100  177.9320  143.1970 C   0  0  0  0  0  0  0  0  0  0  0  0
  188.9020  176.5740  145.2520 C   0  0  0  0  0  0  0  0  0  0  0  0
  190.2450  173.1330  144.0140 C   0  0  0  0  0  2  0  0  0  0  0  0
  186.8800  177.8820  145.3490 C   0  0  0  0  0  0  0  0  0  0  0  0
  189.5590  175.6170  144.2980 C   0  0  1  0  0  3  0  0  0  0  0  0
  187.7630  177.0490  144.6830 C   0  0  0  0  0  0  0  0  0  0  0  0
  189.9380  174.2950  144.9770 C   0  0  2  0  0  3  0  0  0  0  0  0
  187.2130  178.2590  146.6560 C   0  0  0  0  0  3  0  0  0  0  0  0
  187.5070  176.4990  143.4170 N   0  0  0  0  0  0  0  0  0  0  0  0
  186.1990  179.0620  142.4510 C   0  0  0  0  0  1  0  0  0  0  0  0
  190.4630  176.4870  147.2680 C   0  0  0  0  0  2  0  0  0  0  0  0
  188.3720  177.8020  147.2240 N   0  0  0  0  0  0  0  0  0  0  0  0
  186.1750  176.5880  142.8280 C   0  0  0  0  0  2  0  0  0  0  0  0
  190.5350  173.3600  141.4980 C   0  0  1  0  0  3  0  0  0  0  0  0
  191.1690  173.5540  142.8760 C   0  0  0  0  0  2  0  0  0  0  0  0
  189.2250  176.9570  146.5670 C   0  0  0  0  0  0  0  0  0  0  0  0
  188.4590  175.4120  143.2220 C   0  0  1  0  0  3  0  0  0  0  0  0
  185.5540  178.2120  144.7170 C   0  0  0  0  0  2  0  0  0  0  0  0
  190.9920  174.4950  145.9760 N   0  0  0  0  0  0  0  0  0  0  0  0
  184.0620  177.8890  142.7580 C   0  0  0  0  0  1  0  0  0  0  0  0
  189.1460  173.9910  141.3200 C   0  0  0  0  0  2  0  0  0  0  0  0
  189.0410  175.4270  141.8200 C   0  0  0  0  0  2  0  0  0  0  0  0
  190.5660  174.9660  147.2860 C   0  0  0  0  0  2  0  0  0  0  0  0
  192.9030  175.8640  145.2150 C   0  0  0  0  0  3  0  0  0  0  0  0
  192.3820  174.6310  145.6370 C   0  0  0  0  0  0  0  0  0  0  0  0
  193.2460  173.5380  145.7930 C   0  0  0  0  0  3  0  0  0  0  0  0
  195.4760  172.5530  145.6560 N   0  0  0  0  0  1  0  0  0  0  0  0
  195.1150  174.8950  145.0670 C   0  0  0  0  0  3  0  0  0  0  0  0
  194.6070  173.6680  145.5030 C   0  0  0  0  0  0  0  0  0  0  0  0
  194.2640  175.9930  144.9250 C   0  0  0  0  0  3  0  0  0  0  0  0
  193.5330  174.8100  138.6350 O   0  0  0  0  0  0  0  0  0  0  0  0
  193.7410  174.8130  139.8780 C   0  0  0  0  0  0  0  0  0  0  0  0
  191.4710  173.8100  140.4240 C   0  0  0  0  0  0  0  0  0  0  0  0
  192.7470  174.3390  140.7940 N   0  0  0  0  0  2  0  0  0  0  0  0
  191.1340  173.7170  139.2120 O   0  0  0  0  0  0  0  0  0  0  0  0
  194.7590  176.4800  141.2770 N   0  0  0  0  0  1  0  0  0  0  0  0
  195.0240  175.3500  140.4040 C   0  0  0  0  0  2  0  0  0  0  0  0
  1 18  1  0  0  0  0
  2 16  1  0  0  0  0
  4  8  2  0  0  0  0
  5  7  1  0  0  0  0
  5  2  1  1  0  0  0
  6  2  2  0  0  0  0
  6  4  1  0  0  0  0
  7  3  1  6  0  0  0
  7 19  1  0  0  0  0
  8 12  1  0  0  0  0
  9  6  1  0  0  0  0
 10  1  1  0  0  0  0
 11 23  1  0  0  0  0
 13  1  1  0  0  0  0
 13  9  1  0  0  0  0
 14 33  1  6  0  0  0
 14 15  1  0  0  0  0
 15  3  1  0  0  0  0
 16 12  2  0  0  0  0
 16 11  1  0  0  0  0
 17 22  1  6  0  0  0
 17  9  1  0  0  0  0
 17  5  1  0  0  0  0
 18  4  1  0  0  0  0
 19 23  1  0  0  0  0
 20  1  1  0  0  0  0
 21 14  1  0  0  0  0
 21 22  1  0  0  0  0
 24 25  1  0  0  0  0
 25 26  2  0  0  0  0
 25 19  1  0  0  0  0
 28 29  2  0  0  0  0
 29 27  1  0  0  0  0
 29 26  1  0  0  0  0
 30 28  1  0  0  0  0
 30 24  2  0  0  0  0
 31 32  2  0  0  0  0
 32 37  1  0  0  0  0
 32 34  1  0  0  0  0
 33 34  1  0  0  0  0
 35 33  2  0  0  0  0
 37 36  1  0  0  0  0
M  END
>  <MODEL>
1

>  <REMARK>
 VINA RESULT:      -8.2      0.000      0.000
  Name = 
  3 active torsions:
  status: ('A' for Active; 'I' for Inactive)
    1  A    between atoms: C_4  and  C_37
    2  A    between atoms: C_8  and  C_18
    3  A    between atoms: N_23  and  C_30
                            x       y       z     vdW  Elec       q    Type
                         _______ _______ _______ _____ _____    ______ ____

>  <TORSDO>
F 3

$$$$
=
 OpenBabel11112417243D

 37 42  0  0  1  0  0  0  0  0999 V2000
  185.4840  177.9300  143.2000 C   0  0  0  0  0  0  0  0  0  0  0  0
  188.8790  176.5720  145.2480 C   0  0  0  0  0  0  0  0  0  0  0  0
  190.2270  173.1360  144.0010 C   0  0  0  0  0  2  0  0  0  0  0  0
  186.8570  177.8780  145.3500 C   0  0  0  0  0  0  0  0  0  0  0  0
  189.5380  175.6180  144.2910 C   0  0  1  0  0  3  0  0  0  0  0  0
  187.7400  177.0480  144.6810 C   0  0  0  0  0  0  0  0  0  0  0  0
  189.9200  174.2950  144.9660 C   0  0  2  0  0  3  0  0  0  0  0  0
  187.1900  178.2520  146.6580 C   0  0  0  0  0  3  0  0  0  0  0  0
  187.4830  176.5000  143.4150 N   0  0  0  0  0  0  0  0  0  0  0  0
  186.1690  179.0630  142.4550 C   0  0  0  0  0  1  0  0  0  0  0  0
  190.4430  176.4830  147.2620 C   0  0  0  0  0  2  0  0  0  0  0  0
  188.3510  177.7960  147.2230 N   0  0  0  0  0  0  0  0  0  0  0  0
  186.1500  176.5870  142.8270 C   0  0  0  0  0  2  0  0  0  0  0  0
  190.5130  173.3690  141.4850 C   0  0  1  0  0  3  0  0  0  0  0  0
  191.1480  173.5610  142.8620 C   0  0  0  0  0  2  0  0  0  0  0  0
  189.2040  176.9530  146.5640 C   0  0  0  0  0  0  0  0  0  0  0  0
  188.4360  175.4140  143.2160 C   0  0  1  0  0  3  0  0  0  0  0  0
  185.5290  178.2070  144.7210 C   0  0  0  0  0  2  0  0  0  0  0  0
  190.9740  174.4960  145.9650 N   0  0  0  0  0  0  0  0  0  0  0  0
  184.0350  177.8850  142.7630 C   0  0  0  0  0  1  0  0  0  0  0  0
  189.1230  173.9990  141.3100 C   0  0  0  0  0  2  0  0  0  0  0  0
  189.0170  175.4330  141.8130 C   0  0  0  0  0  2  0  0  0  0  0  0
  190.5490  174.9630  147.2760 C   0  0  0  0  0  2  0  0  0  0  0  0
  192.8710  175.8560  145.1570 C   0  0  0  0  0  3  0  0  0  0  0  0
  192.3630  174.6330  145.6240 C   0  0  0  0  0  0  0  0  0  0  0  0
  193.2390  173.5580  145.8240 C   0  0  0  0  0  3  0  0  0  0  0  0
  195.4810  172.5940  145.7300 N   0  0  0  0  0  1  0  0  0  0  0  0
  195.0950  174.9080  145.0520 C   0  0  0  0  0  3  0  0  0  0  0  0
  194.5990  173.6920  145.5320 C   0  0  0  0  0  0  0  0  0  0  0  0
  194.2310  175.9890  144.8660 C   0  0  0  0  0  3  0  0  0  0  0  0
  193.0140  174.5190  138.0620 O   0  0  0  0  0  0  0  0  0  0  0  0
  191.9080  173.9330  137.9140 C   0  0  0  0  0  0  0  0  0  0  0  0
  191.4470  173.8230  140.4110 C   0  0  0  0  0  0  0  0  0  0  0  0
  191.1110  173.5630  139.0450 N   0  0  0  0  0  2  0  0  0  0  0  0
  192.5110  174.4300  140.7120 O   0  0  0  0  0  0  0  0  0  0  0  0
  190.2250  174.3190  136.2440 N   0  0  0  0  0  1  0  0  0  0  0  0
  191.4410  173.5860  136.5450 C   0  0  0  0  0  2  0  0  0  0  0  0
  1 18  1  0  0  0  0
  2 16  1  0  0  0  0
  4  8  2  0  0  0  0
  5  7  1  0  0  0  0
  5  2  1  1  0  0  0
  6  2  2  0  0  0  0
  6  4  1  0  0  0  0
  7  3  1  6  0  0  0
  7 19  1  0  0  0  0
  8 12  1  0  0  0  0
  9  6  1  0  0  0  0
 10  1  1  0  0  0  0
 11 23  1  0  0  0  0
 13  1  1  0  0  0  0
 13  9  1  0  0  0  0
 14 33  1  6  0  0  0
 14 15  1  0  0  0  0
 15  3  1  0  0  0  0
 16 12  2  0  0  0  0
 16 11  1  0  0  0  0
 17 22  1  6  0  0  0
 17  9  1  0  0  0  0
 17  5  1  0  0  0  0
 18  4  1  0  0  0  0
 19 23  1  0  0  0  0
 20  1  1  0  0  0  0
 21 14  1  0  0  0  0
 21 22  1  0  0  0  0
 24 25  1  0  0  0  0
 25 26  2  0  0  0  0
 25 19  1  0  0  0  0
 28 29  2  0  0  0  0
 29 27  1  0  0  0  0
 29 26  1  0  0  0  0
 30 28  1  0  0  0  0
 30 24  2  0  0  0  0
 32 31  2  0  0  0  0
 32 34  1  0  0  0  0
 33 35  2  0  0  0  0
 34 33  1  0  0  0  0
 36 37  1  0  0  0  0
 37 32  1  0  0  0  0
M  END
>  <MODEL>
2

>  <REMARK>
 VINA RESULT:      -8.0      1.278      1.653
  Name = 
  3 active torsions:
  status: ('A' for Active; 'I' for Inactive)
    1  A    between atoms: C_4  and  C_37
    2  A    between atoms: C_8  and  C_18
    3  A    between atoms: N_23  and  C_30
                            x       y       z     vdW  Elec       q    Type
                         _______ _______ _______ _____ _____    ______ ____

>  <TORSDO>
F 3

$$$$
=
 OpenBabel11112417243D

 37 42  0  0  1  0  0  0  0  0999 V2000
  185.5540  177.9750  143.2740 C   0  0  0  0  0  0  0  0  0  0  0  0
  188.9970  176.2130  144.8920 C   0  0  0  0  0  0  0  0  0  0  0  0
  189.8420  172.7100  143.4120 C   0  0  0  0  0  2  0  0  0  0  0  0
  187.1410  177.7070  145.2540 C   0  0  0  0  0  0  0  0  0  0  0  0
  189.4460  175.2350  143.8420 C   0  0  1  0  0  3  0  0  0  0  0  0
  187.8570  176.8190  144.4690 C   0  0  0  0  0  0  0  0  0  0  0  0
  189.7620  173.8570  144.4360 C   0  0  2  0  0  3  0  0  0  0  0  0
  187.6530  177.9980  146.5250 C   0  0  0  0  0  3  0  0  0  0  0  0
  187.4080  176.3470  143.2260 N   0  0  0  0  0  0  0  0  0  0  0  0
  186.2660  179.0610  142.4870 C   0  0  0  0  0  1  0  0  0  0  0  0
  190.7540  175.8960  146.7140 C   0  0  0  0  0  2  0  0  0  0  0  0
  188.8160  177.4090  146.9450 N   0  0  0  0  0  0  0  0  0  0  0  0
  186.0350  176.5870  142.7940 C   0  0  0  0  0  2  0  0  0  0  0  0
  189.8740  173.0060  140.8870 C   0  0  1  0  0  3  0  0  0  0  0  0
  190.6720  173.0830  142.1880 C   0  0  0  0  0  2  0  0  0  0  0  0
  189.5010  176.5110  146.1720 C   0  0  0  0  0  0  0  0  0  0  0  0
  188.2180  175.1800  142.8930 C   0  0  1  0  0  3  0  0  0  0  0  0
  185.7940  178.1890  144.7870 C   0  0  0  0  0  2  0  0  0  0  0  0
  190.9340  173.9150  145.3140 N   0  0  0  0  0  0  0  0  0  0  0  0
  184.0700  178.0890  143.0020 C   0  0  0  0  0  1  0  0  0  0  0  0
  188.5440  173.7760  140.8860 C   0  0  0  0  0  2  0  0  0  0  0  0
  188.6410  175.1950  141.4340 C   0  0  0  0  0  2  0  0  0  0  0  0
  190.7050  174.3730  146.6760 C   0  0  0  0  0  2  0  0  0  0  0  0
  193.1310  172.8250  145.0160 C   0  0  0  0  0  3  0  0  0  0  0  0
  192.2850  173.9280  144.8220 C   0  0  0  0  0  0  0  0  0  0  0  0
  192.7440  175.0230  144.0790 C   0  0  0  0  0  3  0  0  0  0  0  0
  194.5060  176.1500  142.8180 N   0  0  0  0  0  1  0  0  0  0  0  0
  194.8860  173.9360  143.7740 C   0  0  0  0  0  3  0  0  0  0  0  0
  194.0430  175.0310  143.5630 C   0  0  0  0  0  0  0  0  0  0  0  0
  194.4290  172.8330  144.5000 C   0  0  0  0  0  3  0  0  0  0  0  0
  192.0490  174.1400  137.2440 O   0  0  0  0  0  0  0  0  0  0  0  0
  190.8030  173.9510  137.2460 C   0  0  0  0  0  0  0  0  0  0  0  0
  190.7250  173.4050  139.7270 C   0  0  0  0  0  0  0  0  0  0  0  0
  190.1140  173.5780  138.4440 N   0  0  0  0  0  2  0  0  0  0  0  0
  191.9640  173.5900  139.8840 O   0  0  0  0  0  0  0  0  0  0  0  0
  190.9510  173.9930  134.8480 N   0  0  0  0  0  1  0  0  0  0  0  0
  190.0410  174.0820  135.9760 C   0  0  0  0  0  2  0  0  0  0  0  0
  1 18  1  0  0  0  0
  2 16  1  0  0  0  0
  4  8  2  0  0  0  0
  5  7  1  0  0  0  0
  5  2  1  1  0  0  0
  6  2  2  0  0  0  0
  6  4  1  0  0  0  0
  7  3  1  6  0  0  0
  7 19  1  0  0  0  0
  8 12  1  0  0  0  0
  9  6  1  0  0  0  0
 10  1  1  0  0  0  0
 13  9  1  0  0  0  0
 13  1  1  0  0  0  0
 14 33  1  6  0  0  0
 14 15  1  0  0  0  0
 15  3  1  0  0  0  0
 16 11  1  0  0  0  0
 16 12  2  0  0  0  0
 17 22  1  6  0  0  0
 17  9  1  0  0  0  0
 17  5  1  0  0  0  0
 18  4  1  0  0  0  0
 19 23  1  0  0  0  0
 20  1  1  0  0  0  0
 21 14  1  0  0  0  0
 21 22  1  0  0  0  0
 23 11  1  0  0  0  0
 25 24  1  0  0  0  0
 25 19  1  0  0  0  0
 26 25  2  0  0  0  0
 27 29  1  0  0  0  0
 28 30  1  0  0  0  0
 29 28  2  0  0  0  0
 29 26  1  0  0  0  0
 30 24  2  0  0  0  0
 31 32  2  0  0  0  0
 32 34  1  0  0  0  0
 33 35  2  0  0  0  0
 34 33  1  0  0  0  0
 36 37  1  0  0  0  0
 37 32  1  0  0  0  0
M  END
>  <MODEL>
3

>  <REMARK>
 VINA RESULT:      -7.6      1.753      2.381
  Name = 
  3 active torsions:
  status: ('A' for Active; 'I' for Inactive)
    1  A    between atoms: C_4  and  C_37
    2  A    between atoms: C_8  and  C_18
    3  A    between atoms: N_23  and  C_30
                            x       y       z     vdW  Elec       q    Type
                         _______ _______ _______ _____ _____    ______ ____

>  <TORSDO>
F 3

$$$$
=
 OpenBabel11112417243D

 37 42  0  0  1  0  0  0  0  0999 V2000
  191.5680  170.7290  137.8880 C   0  0  0  0  0  0  0  0  0  0  0  0
  189.6830  173.5230  140.3800 C   0  0  0  0  0  0  0  0  0  0  0  0
  189.9390  172.7010  144.1800 C   0  0  0  0  0  2  0  0  0  0  0  0
  189.7260  172.4630  138.2170 C   0  0  0  0  0  0  0  0  0  0  0  0
  190.3670  173.3610  141.7090 C   0  0  1  0  0  3  0  0  0  0  0  0
  190.2100  172.6280  139.5030 C   0  0  0  0  0  0  0  0  0  0  0  0
  189.3630  173.2560  142.8640 C   0  0  2  0  0  3  0  0  0  0  0  0
  188.6670  173.2880  137.8170 C   0  0  0  0  0  3  0  0  0  0  0  0
  191.1860  171.8000  140.0780 N   0  0  0  0  0  0  0  0  0  0  0  0
  192.7240  171.6200  137.4670 C   0  0  0  0  0  1  0  0  0  0  0  0
  187.9840  175.3630  140.8660 C   0  0  0  0  0  2  0  0  0  0  0  0
  188.1510  174.2080  138.6890 N   0  0  0  0  0  0  0  0  0  0  0  0
  191.5800  170.5560  139.4230 C   0  0  0  0  0  2  0  0  0  0  0  0
  192.4110  172.3380  144.6520 C   0  0  1  0  0  3  0  0  0  0  0  0
  191.2700  173.3490  144.5470 C   0  0  0  0  0  2  0  0  0  0  0  0
  188.6170  174.3450  139.9690 C   0  0  0  0  0  0  0  0  0  0  0  0
  191.1560  172.0370  141.5170 C   0  0  1  0  0  3  0  0  0  0  0  0
  190.2370  171.3260  137.3740 C   0  0  0  0  0  2  0  0  0  0  0  0
  188.6370  174.5160  143.0510 N   0  0  0  0  0  0  0  0  0  0  0  0
  191.7630  169.3690  137.2520 C   0  0  0  0  0  1  0  0  0  0  0  0
  192.5840  171.4160  143.4350 C   0  0  0  0  0  2  0  0  0  0  0  0
  192.5580  172.1370  142.0930 C   0  0  0  0  0  2  0  0  0  0  0  0
  187.4990  174.7480  142.1740 C   0  0  0  0  0  2  0  0  0  0  0  0
  190.1890  176.4360  143.1390 C   0  0  0  0  0  3  0  0  0  0  0  0
  189.1930  175.6490  143.7380 C   0  0  0  0  0  0  0  0  0  0  0  0
  188.6890  176.0170  144.9930 C   0  0  0  0  0  3  0  0  0  0  0  0
  188.6840  177.5030  146.9310 N   0  0  0  0  0  1  0  0  0  0  0  0
  190.1990  177.9090  145.0590 C   0  0  0  0  0  3  0  0  0  0  0  0
  189.1950  177.1400  145.6540 C   0  0  0  0  0  0  0  0  0  0  0  0
  190.6940  177.5580  143.8010 C   0  0  0  0  0  3  0  0  0  0  0  0
  195.9820  174.7180  145.5880 O   0  0  0  0  0  0  0  0  0  0  0  0
  194.8560  175.2510  145.3970 C   0  0  0  0  0  0  0  0  0  0  0  0
  193.6920  173.0280  144.9880 C   0  0  0  0  0  0  0  0  0  0  0  0
  193.7050  174.4560  145.0880 N   0  0  0  0  0  2  0  0  0  0  0  0
  194.7420  172.3560  145.1840 O   0  0  0  0  0  0  0  0  0  0  0  0
  194.2740  177.1300  146.7770 N   0  0  0  0  0  1  0  0  0  0  0  0
  194.7270  176.7310  145.4570 C   0  0  0  0  0  2  0  0  0  0  0  0
  1 13  1  0  0  0  0
  3 15  1  0  0  0  0
  4  6  1  0  0  0  0
  5  2  1  6  0  0  0
  5  7  1  0  0  0  0
  6  9  1  0  0  0  0
  6  2  2  0  0  0  0
  7 19  1  0  0  0  0
  7  3  1  1  0  0  0
  8  4  2  0  0  0  0
  8 12  1  0  0  0  0
  9 17  1  0  0  0  0
 10  1  1  0  0  0  0
 11 23  1  0  0  0  0
 12 16  2  0  0  0  0
 13  9  1  0  0  0  0
 14 33  1  6  0  0  0
 15 14  1  0  0  0  0
 16  2  1  0  0  0  0
 16 11  1  0  0  0  0
 17  5  1  0  0  0  0
 17 22  1  6  0  0  0
 18  1  1  0  0  0  0
 18  4  1  0  0  0  0
 19 25  1  0  0  0  0
 20  1  1  0  0  0  0
 21 14  1  0  0  0  0
 22 21  1  0  0  0  0
 23 19  1  0  0  0  0
 24 25  2  0  0  0  0
 24 30  1  0  0  0  0
 25 26  1  0  0  0  0
 26 29  2  0  0  0  0
 28 29  1  0  0  0  0
 29 27  1  0  0  0  0
 30 28  2  0  0  0  0
 32 37  1  0  0  0  0
 32 31  2  0  0  0  0
 33 34  1  0  0  0  0
 33 35  2  0  0  0  0
 34 32  1  0  0  0  0
 37 36  1  0  0  0  0
M  END
>  <MODEL>
4

>  <REMARK>
 VINA RESULT:      -7.5      2.991      6.829
  Name = 
  3 active torsions:
  status: ('A' for Active; 'I' for Inactive)
    1  A    between atoms: C_4  and  C_37
    2  A    between atoms: C_8  and  C_18
    3  A    between atoms: N_23  and  C_30
                            x       y       z     vdW  Elec       q    Type
                         _______ _______ _______ _____ _____    ______ ____

>  <TORSDO>
F 3

$$$$
=
 OpenBabel11112417243D

 37 42  0  0  1  0  0  0  0  0999 V2000
  186.2410  177.5170  145.5390 C   0  0  0  0  0  0  0  0  0  0  0  0
  190.1330  176.0140  145.1260 C   0  0  0  0  0  0  0  0  0  0  0  0
  190.3360  172.6080  143.2470 C   0  0  0  0  0  2  0  0  0  0  0  0
  188.6220  177.3510  146.4440 C   0  0  0  0  0  0  0  0  0  0  0  0
  190.0530  175.0880  143.9450 C   0  0  1  0  0  3  0  0  0  0  0  0
  188.8990  176.5330  145.3620 C   0  0  0  0  0  0  0  0  0  0  0  0
  190.7100  173.7320  144.2300 C   0  0  2  0  0  3  0  0  0  0  0  0
  189.6830  177.6660  147.3010 C   0  0  0  0  0  3  0  0  0  0  0  0
  187.9170  176.0420  144.4880 N   0  0  0  0  0  0  0  0  0  0  0  0
  186.3920  178.6660  144.5580 C   0  0  0  0  0  1  0  0  0  0  0  0
  192.5830  175.8150  145.8070 C   0  0  0  0  0  2  0  0  0  0  0  0
  190.9330  177.1660  147.0530 N   0  0  0  0  0  0  0  0  0  0  0  0
  186.5010  176.1790  144.8140 C   0  0  0  0  0  2  0  0  0  0  0  0
  189.0760  172.9380  141.0630 C   0  0  1  0  0  3  0  0  0  0  0  0
  190.4130  173.0620  141.7930 C   0  0  0  0  0  2  0  0  0  0  0  0
  191.1920  176.3350  145.9960 C   0  0  0  0  0  0  0  0  0  0  0  0
  188.5210  174.9480  143.7360 C   0  0  1  0  0  3  0  0  0  0  0  0
  187.1950  177.7310  146.7390 C   0  0  0  0  0  2  0  0  0  0  0  0
  192.1590  173.8720  144.4060 N   0  0  0  0  0  0  0  0  0  0  0  0
  184.8170  177.5170  146.0520 C   0  0  0  0  0  1  0  0  0  0  0  0
  187.8810  173.6000  141.7660 C   0  0  0  0  0  2  0  0  0  0  0  0
  188.1520  175.0140  142.2640 C   0  0  0  0  0  2  0  0  0  0  0  0
  192.6180  174.2930  145.7220 C   0  0  0  0  0  2  0  0  0  0  0  0
  193.1160  175.1700  142.5350 C   0  0  0  0  0  3  0  0  0  0  0  0
  193.0750  173.9980  143.3070 C   0  0  0  0  0  0  0  0  0  0  0  0
  193.9900  172.9700  143.0410 C   0  0  0  0  0  3  0  0  0  0  0  0
  195.8310  172.0460  141.7300 N   0  0  0  0  0  1  0  0  0  0  0  0
  194.9350  174.2600  141.2240 C   0  0  0  0  0  3  0  0  0  0  0  0
  194.9120  173.0980  141.9980 C   0  0  0  0  0  0  0  0  0  0  0  0
  194.0380  175.2970  141.4930 C   0  0  0  0  0  3  0  0  0  0  0  0
  189.8470  174.2830  136.9540 O   0  0  0  0  0  0  0  0  0  0  0  0
  190.7540  173.7910  137.6760 C   0  0  0  0  0  0  0  0  0  0  0  0
  189.2030  173.4180  139.6550 C   0  0  0  0  0  0  0  0  0  0  0  0
  190.4820  173.3630  139.0160 N   0  0  0  0  0  2  0  0  0  0  0  0
  188.1910  173.8600  139.0430 O   0  0  0  0  0  0  0  0  0  0  0  0
  193.0360  174.4910  137.9520 N   0  0  0  0  0  1  0  0  0  0  0  0
  192.1390  173.6870  137.1430 C   0  0  0  0  0  2  0  0  0  0  0  0
  1 20  1  0  0  0  0
  1 18  1  0  0  0  0
  2  6  2  0  0  0  0
  2 16  1  0  0  0  0
  4 18  1  0  0  0  0
  4  8  2  0  0  0  0
  5  7  1  0  0  0  0
  5  2  1  1  0  0  0
  6  4  1  0  0  0  0
  7  3  1  6  0  0  0
  7 19  1  0  0  0  0
  9 13  1  0  0  0  0
  9  6  1  0  0  0  0
 10  1  1  0  0  0  0
 11 16  1  0  0  0  0
 12  8  1  0  0  0  0
 13  1  1  0  0  0  0
 14 33  1  6  0  0  0
 14 21  1  0  0  0  0
 14 15  1  0  0  0  0
 15  3  1  0  0  0  0
 16 12  2  0  0  0  0
 17 22  1  6  0  0  0
 17  5  1  0  0  0  0
 17  9  1  0  0  0  0
 19 23  1  0  0  0  0
 21 22  1  0  0  0  0
 23 11  1  0  0  0  0
 24 25  1  0  0  0  0
 25 19  1  0  0  0  0
 26 25  2  0  0  0  0
 27 29  1  0  0  0  0
 28 30  1  0  0  0  0
 28 29  2  0  0  0  0
 29 26  1  0  0  0  0
 30 24  2  0  0  0  0
 31 32  2  0  0  0  0
 32 34  1  0  0  0  0
 34 33  1  0  0  0  0
 35 33  2  0  0  0  0
 37 32  1  0  0  0  0
 37 36  1  0  0  0  0
M  END
>  <MODEL>
5

>  <REMARK>
 VINA RESULT:      -7.5      1.952      2.676
  Name = 
  3 active torsions:
  status: ('A' for Active; 'I' for Inactive)
    1  A    between atoms: C_4  and  C_37
    2  A    between atoms: C_8  and  C_18
    3  A    between atoms: N_23  and  C_30
                            x       y       z     vdW  Elec       q    Type
                         _______ _______ _______ _____ _____    ______ ____

>  <TORSDO>
F 3

$$$$
=
 OpenBabel11112417243D

 37 42  0  0  1  0  0  0  0  0999 V2000
  186.3130  177.5110  145.4000 C   0  0  0  0  0  0  0  0  0  0  0  0
  190.1580  175.9430  144.8240 C   0  0  0  0  0  0  0  0  0  0  0  0
  190.2440  172.6550  142.7370 C   0  0  0  0  0  2  0  0  0  0  0  0
  188.7030  177.2330  146.2480 C   0  0  0  0  0  0  0  0  0  0  0  0
  190.0350  175.0940  143.5900 C   0  0  1  0  0  3  0  0  0  0  0  0
  188.9420  176.4760  145.1140 C   0  0  0  0  0  0  0  0  0  0  0  0
  190.6620  173.7070  143.7800 C   0  0  2  0  0  3  0  0  0  0  0  0
  189.7870  177.4690  147.1040 C   0  0  0  0  0  3  0  0  0  0  0  0
  187.9330  176.0640  144.2300 N   0  0  0  0  0  0  0  0  0  0  0  0
  186.4760  178.7140  144.4880 C   0  0  0  0  0  1  0  0  0  0  0  0
  192.6140  175.6430  145.4460 C   0  0  0  0  0  2  0  0  0  0  0  0
  191.0200  176.9540  146.8020 N   0  0  0  0  0  0  0  0  0  0  0  0
  186.5260  176.2140  144.5890 C   0  0  0  0  0  2  0  0  0  0  0  0
  188.9550  173.1490  140.6010 C   0  0  1  0  0  3  0  0  0  0  0  0
  190.3070  173.1950  141.3120 C   0  0  0  0  0  2  0  0  0  0  0  0
  191.2390  176.1840  145.6920 C   0  0  0  0  0  0  0  0  0  0  0  0
  188.4960  175.0040  143.4020 C   0  0  1  0  0  3  0  0  0  0  0  0
  187.2920  177.6270  146.5930 C   0  0  0  0  0  2  0  0  0  0  0  0
  192.1170  173.8010  143.9370 N   0  0  0  0  0  0  0  0  0  0  0  0
  184.8980  177.5130  145.9380 C   0  0  0  0  0  1  0  0  0  0  0  0
  187.7890  173.7950  141.3650 C   0  0  0  0  0  2  0  0  0  0  0  0
  188.1040  175.1690  141.9430 C   0  0  0  0  0  2  0  0  0  0  0  0
  192.6080  174.1290  145.2670 C   0  0  0  0  0  2  0  0  0  0  0  0
  193.0640  175.1840  142.1220 C   0  0  0  0  0  3  0  0  0  0  0  0
  193.0170  173.9730  142.8300 C   0  0  0  0  0  0  0  0  0  0  0  0
  193.9110  172.9470  142.4950 C   0  0  0  0  0  3  0  0  0  0  0  0
  195.7160  172.0670  141.1040 N   0  0  0  0  0  1  0  0  0  0  0  0
  194.8470  174.3190  140.7330 C   0  0  0  0  0  3  0  0  0  0  0  0
  194.8180  173.1170  141.4450 C   0  0  0  0  0  0  0  0  0  0  0  0
  193.9710  175.3530  141.0730 C   0  0  0  0  0  3  0  0  0  0  0  0
  188.9080  174.9240  136.5840 O   0  0  0  0  0  0  0  0  0  0  0  0
  187.9370  175.0440  137.3780 C   0  0  0  0  0  0  0  0  0  0  0  0
  189.0700  173.7110  139.2220 C   0  0  0  0  0  0  0  0  0  0  0  0
  187.9710  174.4530  138.6820 N   0  0  0  0  0  2  0  0  0  0  0  0
  190.1250  173.5350  138.5520 O   0  0  0  0  0  0  0  0  0  0  0  0
  187.0170  176.5490  135.7470 N   0  0  0  0  0  1  0  0  0  0  0  0
  186.7200  175.7790  136.9410 C   0  0  0  0  0  2  0  0  0  0  0  0
  1 20  1  0  0  0  0
  1 18  1  0  0  0  0
  2  6  2  0  0  0  0
  2 16  1  0  0  0  0
  4 18  1  0  0  0  0
  4  8  2  0  0  0  0
  5  7  1  0  0  0  0
  5  2  1  1  0  0  0
  6  4  1  0  0  0  0
  7  3  1  6  0  0  0
  7 19  1  0  0  0  0
  9 13  1  0  0  0  0
  9  6  1  0  0  0  0
 10  1  1  0  0  0  0
 11 16  1  0  0  0  0
 12  8  1  0  0  0  0
 13  1  1  0  0  0  0
 14 33  1  6  0  0  0
 14 15  1  0  0  0  0
 14 21  1  0  0  0  0
 15  3  1  0  0  0  0
 16 12  2  0  0  0  0
 17 22  1  6  0  0  0
 17  5  1  0  0  0  0
 17  9  1  0  0  0  0
 19 23  1  0  0  0  0
 21 22  1  0  0  0  0
 23 11  1  0  0  0  0
 24 25  1  0  0  0  0
 25 19  1  0  0  0  0
 26 25  2  0  0  0  0
 27 29  1  0  0  0  0
 28 30  1  0  0  0  0
 28 29  2  0  0  0  0
 29 26  1  0  0  0  0
 30 24  2  0  0  0  0
 31 32  2  0  0  0  0
 32 34  1  0  0  0  0
 34 33  1  0  0  0  0
 35 33  2  0  0  0  0
 36 37  1  0  0  0  0
 37 32  1  0  0  0  0
M  END
>  <MODEL>
6

>  <REMARK>
 VINA RESULT:      -7.4      2.469      3.587
  Name = 
  3 active torsions:
  status: ('A' for Active; 'I' for Inactive)
    1  A    between atoms: C_4  and  C_37
    2  A    between atoms: C_8  and  C_18
    3  A    between atoms: N_23  and  C_30
                            x       y       z     vdW  Elec       q    Type
                         _______ _______ _______ _____ _____    ______ ____

>  <TORSDO>
F 3

$$$$
=
 OpenBabel11112417243D

 37 42  0  0  1  0  0  0  0  0999 V2000
  190.6810  172.3090  140.4310 C   0  0  0  0  0  0  0  0  0  0  0  0
  189.5260  174.4710  143.8310 C   0  0  0  0  0  0  0  0  0  0  0  0
  188.6100  178.1900  143.1210 C   0  0  0  0  0  2  0  0  0  0  0  0
  190.8450  172.6560  142.9540 C   0  0  0  0  0  0  0  0  0  0  0  0
  188.7000  175.6050  143.2910 C   0  0  1  0  0  3  0  0  0  0  0  0
  189.9780  173.7220  142.7910 C   0  0  0  0  0  0  0  0  0  0  0  0
  189.1140  176.9560  143.8900 C   0  0  2  0  0  3  0  0  0  0  0  0
  191.2370  172.3380  144.2600 C   0  0  0  0  0  3  0  0  0  0  0  0
  189.5920  174.2260  141.5390 N   0  0  0  0  0  0  0  0  0  0  0  0
  189.4400  171.4380  140.3460 C   0  0  0  0  0  1  0  0  0  0  0  0
  189.4720  174.9110  146.3440 C   0  0  0  0  0  2  0  0  0  0  0  0
  190.7640  173.0750  145.3130 N   0  0  0  0  0  0  0  0  0  0  0  0
  190.2800  173.7960  140.3250 C   0  0  0  0  0  2  0  0  0  0  0  0
  186.8930  178.1420  141.2460 C   0  0  1  0  0  3  0  0  0  0  0  0
  187.1340  178.0800  142.7540 C   0  0  0  0  0  2  0  0  0  0  0  0
  189.9280  174.1450  145.1400 C   0  0  0  0  0  0  0  0  0  0  0  0
  189.0010  175.5390  141.7690 C   0  0  1  0  0  3  0  0  0  0  0  0
  191.4450  171.9970  141.7400 C   0  0  0  0  0  2  0  0  0  0  0  0
  188.8080  177.0160  145.3220 N   0  0  0  0  0  0  0  0  0  0  0  0
  191.5780  171.9690  139.2590 C   0  0  0  0  0  1  0  0  0  0  0  0
  187.7260  177.1600  140.4080 C   0  0  0  0  0  2  0  0  0  0  0  0
  187.7410  175.7340  140.9440 C   0  0  0  0  0  2  0  0  0  0  0  0
  189.7730  176.4000  146.2210 C   0  0  0  0  0  2  0  0  0  0  0  0
  186.4250  176.4090  145.5570 C   0  0  0  0  0  3  0  0  0  0  0  0
  187.4910  177.2790  145.8340 C   0  0  0  0  0  0  0  0  0  0  0  0
  187.2800  178.3780  146.6770 C   0  0  0  0  0  3  0  0  0  0  0  0
  185.8020  179.7460  148.0590 N   0  0  0  0  0  1  0  0  0  0  0  0
  184.9500  177.7620  146.9190 C   0  0  0  0  0  3  0  0  0  0  0  0
  186.0110  178.6230  147.2120 C   0  0  0  0  0  0  0  0  0  0  0  0
  185.1580  176.6540  146.0930 C   0  0  0  0  0  3  0  0  0  0  0  0
  182.5400  177.8720  140.7290 O   0  0  0  0  0  0  0  0  0  0  0  0
  183.0590  178.3680  141.7640 C   0  0  0  0  0  0  0  0  0  0  0  0
  185.4370  178.0040  140.9420 C   0  0  0  0  0  0  0  0  0  0  0  0
  184.4820  178.4420  141.9140 N   0  0  0  0  0  2  0  0  0  0  0  0
  185.0630  177.5120  139.8420 O   0  0  0  0  0  0  0  0  0  0  0  0
  180.9080  179.2840  142.3190 N   0  0  0  0  0  1  0  0  0  0  0  0
  182.1830  178.8520  142.8630 C   0  0  0  0  0  2  0  0  0  0  0  0
  1 18  1  0  0  0  0
  2 16  1  0  0  0  0
  4  8  2  0  0  0  0
  5  2  1  1  0  0  0
  5  7  1  0  0  0  0
  6  4  1  0  0  0  0
  6  2  2  0  0  0  0
  7  3  1  6  0  0  0
  7 19  1  0  0  0  0
  8 12  1  0  0  0  0
  9 17  1  0  0  0  0
  9  6  1  0  0  0  0
 10  1  1  0  0  0  0
 13  1  1  0  0  0  0
 13  9  1  0  0  0  0
 14 33  1  1  0  0  0
 14 15  1  0  0  0  0
 15  3  1  0  0  0  0
 16 12  2  0  0  0  0
 16 11  1  0  0  0  0
 17 22  1  6  0  0  0
 17  5  1  0  0  0  0
 18  4  1  0  0  0  0
 19 25  1  0  0  0  0
 19 23  1  0  0  0  0
 20  1  1  0  0  0  0
 21 22  1  0  0  0  0
 21 14  1  0  0  0  0
 23 11  1  0  0  0  0
 24 25  2  0  0  0  0
 24 30  1  0  0  0  0
 25 26  1  0  0  0  0
 26 29  2  0  0  0  0
 28 29  1  0  0  0  0
 29 27  1  0  0  0  0
 30 28  2  0  0  0  0
 31 32  2  0  0  0  0
 32 34  1  0  0  0  0
 32 37  1  0  0  0  0
 33 34  1  0  0  0  0
 35 33  2  0  0  0  0
 36 37  1  0  0  0  0
M  END
>  <MODEL>
7

>  <REMARK>
 VINA RESULT:      -7.3      3.139      7.570
  Name = 
  3 active torsions:
  status: ('A' for Active; 'I' for Inactive)
    1  A    between atoms: C_4  and  C_37
    2  A    between atoms: C_8  and  C_18
    3  A    between atoms: N_23  and  C_30
                            x       y       z     vdW  Elec       q    Type
                         _______ _______ _______ _____ _____    ______ ____

>  <TORSDO>
F 3

$$$$
=
 OpenBabel11112417243D

 37 42  0  0  1  0  0  0  0  0999 V2000
  191.4080  170.7870  137.8190 C   0  0  0  0  0  0  0  0  0  0  0  0
  189.5950  173.5770  140.3700 C   0  0  0  0  0  0  0  0  0  0  0  0
  189.7680  172.6330  144.1460 C   0  0  0  0  0  2  0  0  0  0  0  0
  189.6270  172.5800  138.1760 C   0  0  0  0  0  0  0  0  0  0  0  0
  190.2530  173.3490  141.7020 C   0  0  1  0  0  3  0  0  0  0  0  0
  190.0990  172.6890  139.4730 C   0  0  0  0  0  0  0  0  0  0  0  0
  189.2300  173.2480  142.8410 C   0  0  2  0  0  3  0  0  0  0  0  0
  188.6050  173.4550  137.7880 C   0  0  0  0  0  3  0  0  0  0  0  0
  191.0350  171.8070  140.0350 N   0  0  0  0  0  0  0  0  0  0  0  0
  192.6010  171.6470  137.4390 C   0  0  0  0  0  1  0  0  0  0  0  0
  187.9590  175.4640  140.8900 C   0  0  0  0  0  2  0  0  0  0  0  0
  188.1120  174.3690  138.6810 N   0  0  0  0  0  0  0  0  0  0  0  0
  191.3920  170.5690  139.3480 C   0  0  0  0  0  2  0  0  0  0  0  0
  192.2180  172.1630  144.6380 C   0  0  1  0  0  3  0  0  0  0  0  0
  191.1170  173.2190  144.5490 C   0  0  0  0  0  2  0  0  0  0  0  0
  188.5660  174.4500  139.9700 C   0  0  0  0  0  0  0  0  0  0  0  0
  190.9950  172.0030  141.4800 C   0  0  1  0  0  3  0  0  0  0  0  0
  190.1070  171.4490  137.3060 C   0  0  0  0  0  2  0  0  0  0  0  0
  188.5500  174.5280  143.0560 N   0  0  0  0  0  0  0  0  0  0  0  0
  191.5600  169.4410  137.1440 C   0  0  0  0  0  1  0  0  0  0  0  0
  192.3730  171.2710  143.3970 C   0  0  0  0  0  2  0  0  0  0  0  0
  192.3920  172.0320  142.0760 C   0  0  0  0  0  2  0  0  0  0  0  0
  187.4330  174.8290  142.1720 C   0  0  0  0  0  2  0  0  0  0  0  0
  188.6760  175.9620  145.0640 C   0  0  0  0  0  3  0  0  0  0  0  0
  189.1390  175.6190  143.7840 C   0  0  0  0  0  0  0  0  0  0  0  0
  190.2340  176.3050  143.2440 C   0  0  0  0  0  3  0  0  0  0  0  0
  191.9460  178.0410  143.4010 N   0  0  0  0  0  1  0  0  0  0  0  0
  190.3620  177.6890  145.2270 C   0  0  0  0  0  3  0  0  0  0  0  0
  190.8390  177.3420  143.9600 C   0  0  0  0  0  0  0  0  0  0  0  0
  189.2820  176.9980  145.7790 C   0  0  0  0  0  3  0  0  0  0  0  0
  196.2080  173.6500  145.7120 O   0  0  0  0  0  0  0  0  0  0  0  0
  196.0110  172.4520  145.3760 C   0  0  0  0  0  0  0  0  0  0  0  0
  193.5190  172.7940  145.0110 C   0  0  0  0  0  0  0  0  0  0  0  0
  194.7000  171.9870  145.0340 N   0  0  0  0  0  2  0  0  0  0  0  0
  193.5680  174.0230  145.2960 O   0  0  0  0  0  0  0  0  0  0  0  0
  196.8120  170.3270  146.1610 N   0  0  0  0  0  1  0  0  0  0  0  0
  197.1500  171.4960  145.3700 C   0  0  0  0  0  2  0  0  0  0  0  0
  1 13  1  0  0  0  0
  3 15  1  0  0  0  0
  4  6  1  0  0  0  0
  5  2  1  6  0  0  0
  5  7  1  0  0  0  0
  6  9  1  0  0  0  0
  6  2  2  0  0  0  0
  7 19  1  0  0  0  0
  7  3  1  1  0  0  0
  8  4  2  0  0  0  0
  8 12  1  0  0  0  0
  9 17  1  0  0  0  0
 10  1  1  0  0  0  0
 11 23  1  0  0  0  0
 12 16  2  0  0  0  0
 13  9  1  0  0  0  0
 14 33  1  6  0  0  0
 15 14  1  0  0  0  0
 16  2  1  0  0  0  0
 16 11  1  0  0  0  0
 17  5  1  0  0  0  0
 17 22  1  6  0  0  0
 18  1  1  0  0  0  0
 18  4  1  0  0  0  0
 19 25  1  0  0  0  0
 20  1  1  0  0  0  0
 21 14  1  0  0  0  0
 22 21  1  0  0  0  0
 23 19  1  0  0  0  0
 24 30  1  0  0  0  0
 25 24  2  0  0  0  0
 26 25  1  0  0  0  0
 26 29  2  0  0  0  0
 27 29  1  0  0  0  0
 28 30  2  0  0  0  0
 29 28  1  0  0  0  0
 32 31  2  0  0  0  0
 33 34  1  0  0  0  0
 33 35  2  0  0  0  0
 34 32  1  0  0  0  0
 37 32  1  0  0  0  0
 37 36  1  0  0  0  0
M  END
>  <MODEL>
8

>  <REMARK>
 VINA RESULT:      -6.9      3.059      6.869
  Name = 
  3 active torsions:
  status: ('A' for Active; 'I' for Inactive)
    1  A    between atoms: C_4  and  C_37
    2  A    between atoms: C_8  and  C_18
    3  A    between atoms: N_23  and  C_30
                            x       y       z     vdW  Elec       q    Type
                         _______ _______ _______ _____ _____    ______ ____

>  <TORSDO>
F 3

$$$$
=
 OpenBabel11112417243D

 37 42  0  0  1  0  0  0  0  0999 V2000
  189.2770  176.5680  146.0530 C   0  0  0  0  0  0  0  0  0  0  0  0
  192.8090  174.5040  145.1340 C   0  0  0  0  0  0  0  0  0  0  0  0
  192.2530  170.8220  143.9910 C   0  0  0  0  0  2  0  0  0  0  0  0
  191.7790  176.2460  146.4420 C   0  0  0  0  0  0  0  0  0  0  0  0
  192.3690  173.4020  144.2110 C   0  0  1  0  0  3  0  0  0  0  0  0
  191.7180  175.2190  145.5170 C   0  0  0  0  0  0  0  0  0  0  0  0
  192.9490  172.0420  144.6210 C   0  0  2  0  0  3  0  0  0  0  0  0
  193.0370  176.5630  146.9700 C   0  0  0  0  0  3  0  0  0  0  0  0
  190.5170  174.7170  144.9920 N   0  0  0  0  0  0  0  0  0  0  0  0
  189.2960  177.4920  144.8480 C   0  0  0  0  0  1  0  0  0  0  0  0
  195.3220  174.1010  145.3010 C   0  0  0  0  0  2  0  0  0  0  0  0
  194.1420  175.8620  146.5680 N   0  0  0  0  0  0  0  0  0  0  0  0
  189.2360  175.0980  145.5780 C   0  0  0  0  0  2  0  0  0  0  0  0
  190.5490  170.9240  142.1070 C   0  0  1  0  0  3  0  0  0  0  0  0
  192.0260  170.9940  142.4930 C   0  0  0  0  0  2  0  0  0  0  0  0
  194.0680  174.8290  145.6730 C   0  0  0  0  0  0  0  0  0  0  0  0
  190.8250  173.4350  144.3680 C   0  0  1  0  0  3  0  0  0  0  0  0
  190.5020  176.8610  146.9520 C   0  0  0  0  0  2  0  0  0  0  0  0
  194.4050  172.0150  144.4510 N   0  0  0  0  0  0  0  0  0  0  0  0
  188.0200  176.8500  146.8480 C   0  0  0  0  0  1  0  0  0  0  0  0
  189.6190  171.8550  142.8990 C   0  0  0  0  0  2  0  0  0  0  0  0
  190.1260  173.2870  143.0270 C   0  0  0  0  0  2  0  0  0  0  0  0
  195.1970  172.5980  145.5230 C   0  0  0  0  0  2  0  0  0  0  0  0
  195.0290  172.8270  142.2020 C   0  0  0  0  0  3  0  0  0  0  0  0
  195.0440  171.8180  143.1780 C   0  0  0  0  0  0  0  0  0  0  0  0
  195.7510  170.6340  142.9310 C   0  0  0  0  0  3  0  0  0  0  0  0
  197.1170  169.2390  141.4630 N   0  0  0  0  0  1  0  0  0  0  0  0
  196.3760  171.4500  140.7380 C   0  0  0  0  0  3  0  0  0  0  0  0
  196.4090  170.4470  141.7110 C   0  0  0  0  0  0  0  0  0  0  0  0
  195.6870  172.6400  140.9840 C   0  0  0  0  0  3  0  0  0  0  0  0
  189.8060  171.8130  137.8700 O   0  0  0  0  0  0  0  0  0  0  0  0
  189.3360  172.5280  138.7950 C   0  0  0  0  0  0  0  0  0  0  0  0
  190.3830  171.1240  140.6360 C   0  0  0  0  0  0  0  0  0  0  0  0
  189.5870  172.2180  140.1700 N   0  0  0  0  0  2  0  0  0  0  0  0
  190.9430  170.3380  139.8230 O   0  0  0  0  0  0  0  0  0  0  0  0
  188.2950  174.5270  139.6280 N   0  0  0  0  0  1  0  0  0  0  0  0
  188.4760  173.6930  138.4540 C   0  0  0  0  0  2  0  0  0  0  0  0
  1 20  1  0  0  0  0
  1 18  1  0  0  0  0
  2  6  2  0  0  0  0
  2 16  1  0  0  0  0
  4 18  1  0  0  0  0
  4  8  2  0  0  0  0
  5 17  1  0  0  0  0
  5  7  1  0  0  0  0
  5  2  1  1  0  0  0
  6  4  1  0  0  0  0
  7  3  1  6  0  0  0
  9  6  1  0  0  0  0
  9 13  1  0  0  0  0
 10  1  1  0  0  0  0
 11 23  1  0  0  0  0
 11 16  1  0  0  0  0
 12  8  1  0  0  0  0
 13  1  1  0  0  0  0
 14 33  1  6  0  0  0
 14 15  1  0  0  0  0
 14 21  1  0  0  0  0
 15  3  1  0  0  0  0
 16 12  2  0  0  0  0
 17 22  1  6  0  0  0
 17  9  1  0  0  0  0
 19  7  1  0  0  0  0
 19 23  1  0  0  0  0
 21 22  1  0  0  0  0
 24 25  1  0  0  0  0
 25 19  1  0  0  0  0
 26 25  2  0  0  0  0
 27 29  1  0  0  0  0
 28 30  1  0  0  0  0
 28 29  2  0  0  0  0
 29 26  1  0  0  0  0
 30 24  2  0  0  0  0
 31 32  2  0  0  0  0
 32 34  1  0  0  0  0
 34 33  1  0  0  0  0
 35 33  2  0  0  0  0
 37 32  1  0  0  0  0
 37 36  1  0  0  0  0
M  END
>  <MODEL>
9

>  <REMARK>
 VINA RESULT:      -6.8      2.754      4.762
  Name = 
  3 active torsions:
  status: ('A' for Active; 'I' for Inactive)
    1  A    between atoms: C_4  and  C_37
    2  A    between atoms: C_8  and  C_18
    3  A    between atoms: N_23  and  C_30
                            x       y       z     vdW  Elec       q    Type
                         _______ _______ _______ _____ _____    ______ ____

>  <TORSDO>
F 3

$$$$
