=
 OpenBabel11112416493D

 31 35  0  0  1  0  0  0  0  0999 V2000
  188.7820  173.9870  142.0950 C   0  0  0  0  0  0  0  0  0  0  0  0
  191.1400  174.9120  144.9810 C   0  0  2  0  0  3  0  0  0  0  0  0
  192.5770  175.3980  145.0010 C   0  0  0  0  0  0  0  0  0  0  0  0
  194.7780  175.5140  143.9750 C   0  0  0  0  0  0  0  0  0  0  0  0
  190.5260  174.9410  143.5730 C   0  0  1  0  0  3  0  0  0  0  0  0
  188.5600  175.3080  141.4180 C   0  0  0  0  0  2  0  0  0  0  0  0
  193.4500  175.0800  143.9490 C   0  0  0  0  0  3  0  0  0  0  0  0
  189.7170  177.0220  145.5120 C   0  0  2  0  0  3  0  0  0  0  0  0
  188.4580  172.9550  141.5320 O   0  0  0  0  0  0  0  0  0  0  0  0
  192.2150  176.4160  147.2140 N   0  0  0  0  0  2  0  0  0  0  0  0
  195.6090  175.2130  142.9490 F   0  0  0  0  0  0  0  0  0  0  0  0
  190.2840  177.4540  144.1530 C   0  0  0  0  0  2  0  0  0  0  0  0
  190.2340  175.6560  145.9900 C   0  0  2  0  0  3  0  0  0  0  0  0
  189.3800  173.9320  143.4670 C   0  0  0  0  0  2  0  0  0  0  0  0
  195.2480  176.2600  145.0580 C   0  0  0  0  0  3  0  0  0  0  0  0
  190.1530  176.3710  143.0790 C   0  0  2  0  0  3  0  0  0  0  0  0
  188.7860  176.4630  142.3910 C   0  0  0  0  0  2  0  0  0  0  0  0
  190.9100  175.7780  147.3510 C   0  0  0  0  0  2  0  0  0  0  0  0
  193.0700  176.1170  146.1080 C   0  0  0  0  0  0  0  0  0  0  0  0
  194.3960  176.5600  146.1230 C   0  0  0  0  0  3  0  0  0  0  0  0
  188.0060  177.9100  147.6270 O   0  0  0  0  0  0  0  0  0  0  0  0
  187.4610  177.4400  146.5930 C   0  0  0  0  0  0  0  0  0  0  0  0
  188.2610  177.0070  145.4900 N   0  0  0  0  0  2  0  0  0  0  0  0
  184.9560  178.2740  143.8420 C   0  0  0  0  0  0  0  0  0  0  0  0
  185.4750  176.4210  145.4090 C   0  0  0  0  0  2  0  0  0  0  0  0
  185.9380  179.7900  147.5020 O   0  0  0  0  0  0  0  0  0  0  0  0
  183.8930  178.2910  143.2470 O   0  0  0  0  0  0  0  0  0  0  0  0
  185.7080  176.9950  144.0090 C   0  0  0  0  0  2  0  0  0  0  0  0
  185.1200  178.9400  146.5400 S   0  0  2  0  0  0  0  0  0  0  0  0
  185.9670  177.3310  146.5420 C   0  0  2  0  0  3  0  0  0  0  0  0
  185.5670  179.7530  144.6400 S   0  0  0  0  0  0  0  0  0  0  0  0
  1 14  1  0  0  0  0
  2  3  1  6  0  0  0
  2 13  1  0  0  0  0
  3 19  1  0  0  0  0
  4 15  2  0  0  0  0
  5 14  1  1  0  0  0
  5  2  1  0  0  0  0
  6  1  1  0  0  0  0
  6 17  1  0  0  0  0
  7  4  1  0  0  0  0
  7  3  2  0  0  0  0
  8 23  1  6  0  0  0
  8 13  1  0  0  0  0
  9  1  2  0  0  0  0
 10 18  1  0  0  0  0
 11  4  1  0  0  0  0
 12  8  1  0  0  0  0
 13 18  1  1  0  0  0
 15 20  1  0  0  0  0
 16 17  1  1  0  0  0
 16  5  1  0  0  0  0
 16 12  1  0  0  0  0
 19 20  2  0  0  0  0
 19 10  1  0  0  0  0
 22 21  2  0  0  0  0
 23 22  1  0  0  0  0
 24 28  1  0  0  0  0
 24 31  1  0  0  0  0
 25 30  1  0  0  0  0
 27 24  2  0  0  0  0
 28 25  1  0  0  0  0
 29 30  1  0  0  0  0
 29 26  2  1  0  0  0
 30 22  1  6  0  0  0
 31 29  1  0  0  0  0
M  END
>  <MODEL>
1

>  <REMARK>
 VINA RESULT:      -8.6      0.000      0.000
  Name = 
  2 active torsions:
  status: ('A' for Active; 'I' for Inactive)
    1  A    between atoms: C_5  and  C_30
    2  A    between atoms: C_10  and  N_16
                            x       y       z     vdW  Elec       q    Type
                         _______ _______ _______ _____ _____    ______ ____

>  <TORSDO>
F 2

$$$$
=
 OpenBabel11112416493D

 31 35  0  0  1  0  0  0  0  0999 V2000
  191.0980  175.4950  147.2740 C   0  0  0  0  0  0  0  0  0  0  0  0
  188.3070  175.8460  144.6600 C   0  0  2  0  0  3  0  0  0  0  0  0
  187.3370  176.9730  144.3580 C   0  0  0  0  0  0  0  0  0  0  0  0
  186.0610  178.9100  145.0870 C   0  0  0  0  0  0  0  0  0  0  0  0
  189.4290  176.2750  145.6180 C   0  0  1  0  0  3  0  0  0  0  0  0
  192.1020  176.5130  146.8200 C   0  0  0  0  0  2  0  0  0  0  0  0
  186.9670  177.8830  145.3610 C   0  0  0  0  0  3  0  0  0  0  0  0
  190.0650  175.9520  142.7480 C   0  0  2  0  0  3  0  0  0  0  0  0
  191.1910  175.0060  148.3880 O   0  0  0  0  0  0  0  0  0  0  0  0
  187.0660  176.1390  142.0570 N   0  0  0  0  0  2  0  0  0  0  0  0
  185.7220  179.7910  146.0580 F   0  0  0  0  0  0  0  0  0  0  0  0
  190.3770  177.2910  143.4320 C   0  0  0  0  0  2  0  0  0  0  0  0
  188.8920  175.1920  143.3880 C   0  0  2  0  0  3  0  0  0  0  0  0
  189.9940  175.0610  146.3600 C   0  0  0  0  0  2  0  0  0  0  0  0
  185.5070  179.0320  143.8100 C   0  0  0  0  0  3  0  0  0  0  0  0
  190.5190  177.1680  144.9510 C   0  0  2  0  0  3  0  0  0  0  0  0
  191.9570  176.7910  145.3250 C   0  0  0  0  0  2  0  0  0  0  0  0
  187.8010  174.9160  142.3590 C   0  0  0  0  0  2  0  0  0  0  0  0
  186.7430  177.0790  143.0840 C   0  0  0  0  0  0  0  0  0  0  0  0
  185.8470  178.1170  142.8110 C   0  0  0  0  0  3  0  0  0  0  0  0
  190.6950  174.0510  140.7050 O   0  0  0  0  0  0  0  0  0  0  0  0
  191.4850  174.1420  141.6820 C   0  0  0  0  0  0  0  0  0  0  0  0
  191.2410  175.0930  142.7210 N   0  0  0  0  0  2  0  0  0  0  0  0
  194.5050  174.0820  144.0090 C   0  0  0  0  0  0  0  0  0  0  0  0
  192.8060  172.5190  143.0990 C   0  0  0  0  0  2  0  0  0  0  0  0
  193.8250  174.9160  140.0720 O   0  0  0  0  0  0  0  0  0  0  0  0
  195.5030  173.6480  144.5570 O   0  0  0  0  0  0  0  0  0  0  0  0
  193.1740  173.4530  144.2550 C   0  0  0  0  0  2  0  0  0  0  0  0
  194.2280  174.0260  141.2400 S   0  0  2  0  0  0  0  0  0  0  0  0
  192.6730  173.2300  141.7460 C   0  0  2  0  0  3  0  0  0  0  0  0
  194.6370  175.3930  142.8000 S   0  0  0  0  0  0  0  0  0  0  0  0
  1  9  2  0  0  0  0
  2  3  1  6  0  0  0
  2  5  1  0  0  0  0
  3  7  1  0  0  0  0
  4  7  2  0  0  0  0
  4 11  1  0  0  0  0
  5 14  1  6  0  0  0
  6  1  1  0  0  0  0
  8 23  1  1  0  0  0
  8 13  1  0  0  0  0
  8 12  1  0  0  0  0
 10 18  1  0  0  0  0
 10 19  1  0  0  0  0
 13 18  1  6  0  0  0
 13  2  1  0  0  0  0
 14  1  1  0  0  0  0
 15  4  1  0  0  0  0
 16 12  1  6  0  0  0
 16 17  1  0  0  0  0
 16  5  1  0  0  0  0
 17  6  1  0  0  0  0
 19  3  2  0  0  0  0
 20 19  1  0  0  0  0
 20 15  2  0  0  0  0
 21 22  2  0  0  0  0
 22 23  1  0  0  0  0
 24 28  1  0  0  0  0
 24 27  2  0  0  0  0
 25 28  1  0  0  0  0
 29 26  2  6  0  0  0
 29 30  1  0  0  0  0
 29 31  1  0  0  0  0
 30 22  1  1  0  0  0
 30 25  1  0  0  0  0
 31 24  1  0  0  0  0
M  END
>  <MODEL>
2

>  <REMARK>
 VINA RESULT:      -8.3      4.333      7.723
  Name = 
  2 active torsions:
  status: ('A' for Active; 'I' for Inactive)
    1  A    between atoms: C_5  and  C_30
    2  A    between atoms: C_10  and  N_16
                            x       y       z     vdW  Elec       q    Type
                         _______ _______ _______ _____ _____    ______ ____

>  <TORSDO>
F 2

$$$$
=
 OpenBabel11112416493D

 31 35  0  0  1  0  0  0  0  0999 V2000
  190.8010  175.4550  147.0130 C   0  0  0  0  0  0  0  0  0  0  0  0
  187.8280  176.0920  144.6670 C   0  0  2  0  0  3  0  0  0  0  0  0
  186.9150  177.2900  144.4910 C   0  0  0  0  0  0  0  0  0  0  0  0
  185.8390  179.2740  145.3960 C   0  0  0  0  0  0  0  0  0  0  0  0
  189.0540  176.4090  145.5370 C   0  0  1  0  0  3  0  0  0  0  0  0
  191.8300  176.4240  146.5070 C   0  0  0  0  0  2  0  0  0  0  0  0
  186.6940  178.1810  145.5540 C   0  0  0  0  0  3  0  0  0  0  0  0
  189.4200  176.1630  142.6130 C   0  0  2  0  0  3  0  0  0  0  0  0
  190.9560  174.9160  148.0960 O   0  0  0  0  0  0  0  0  0  0  0  0
  186.3930  176.5700  142.1950 N   0  0  0  0  0  2  0  0  0  0  0  0
  185.6440  180.1350  146.4240 F   0  0  0  0  0  0  0  0  0  0  0  0
  189.8790  177.4490  143.3130 C   0  0  0  0  0  2  0  0  0  0  0  0
  188.2570  175.4540  143.3260 C   0  0  2  0  0  3  0  0  0  0  0  0
  189.5970  175.1310  146.1840 C   0  0  0  0  0  2  0  0  0  0  0  0
  185.1880  179.4830  144.1780 C   0  0  0  0  0  3  0  0  0  0  0  0
  190.1420  177.2550  144.8090 C   0  0  2  0  0  3  0  0  0  0  0  0
  191.5770  176.7710  145.0420 C   0  0  0  0  0  2  0  0  0  0  0  0
  187.0670  175.2910  142.3880 C   0  0  0  0  0  2  0  0  0  0  0  0
  186.2230  177.4860  143.2780 C   0  0  0  0  0  0  0  0  0  0  0  0
  185.3790  178.5900  143.1220 C   0  0  0  0  0  3  0  0  0  0  0  0
  189.6410  174.1670  140.5740 O   0  0  0  0  0  0  0  0  0  0  0  0
  190.5660  174.2360  141.4270 C   0  0  0  0  0  0  0  0  0  0  0  0
  190.5280  175.2310  142.4530 N   0  0  0  0  0  2  0  0  0  0  0  0
  191.7640  171.9570  138.6160 C   0  0  0  0  0  0  0  0  0  0  0  0
  192.7000  173.5810  140.2420 C   0  0  0  0  0  2  0  0  0  0  0  0
  189.9620  171.4730  142.2460 O   0  0  0  0  0  0  0  0  0  0  0  0
  192.5070  171.2090  138.0040 O   0  0  0  0  0  0  0  0  0  0  0  0
  192.1410  173.3850  138.8300 C   0  0  0  0  0  2  0  0  0  0  0  0
  191.1510  171.5210  141.2960 S   0  0  2  0  0  0  0  0  0  0  0  0
  191.6970  173.2550  141.3560 C   0  0  2  0  0  3  0  0  0  0  0  0
  190.2770  171.3240  139.3800 S   0  0  0  0  0  0  0  0  0  0  0  0
  1  9  2  0  0  0  0
  2  3  1  6  0  0  0
  2  5  1  0  0  0  0
  3  7  1  0  0  0  0
  4  7  2  0  0  0  0
  4 11  1  0  0  0  0
  5 14  1  6  0  0  0
  6  1  1  0  0  0  0
  8 23  1  1  0  0  0
  8 12  1  0  0  0  0
  8 13  1  0  0  0  0
 10 18  1  0  0  0  0
 10 19  1  0  0  0  0
 13 18  1  6  0  0  0
 13  2  1  0  0  0  0
 14  1  1  0  0  0  0
 15  4  1  0  0  0  0
 16 12  1  6  0  0  0
 16 17  1  0  0  0  0
 16  5  1  0  0  0  0
 17  6  1  0  0  0  0
 19  3  2  0  0  0  0
 20 19  1  0  0  0  0
 20 15  2  0  0  0  0
 21 22  2  0  0  0  0
 22 23  1  0  0  0  0
 24 28  1  0  0  0  0
 24 31  1  0  0  0  0
 25 30  1  0  0  0  0
 27 24  2  0  0  0  0
 28 25  1  0  0  0  0
 29 30  1  0  0  0  0
 29 26  2  1  0  0  0
 30 22  1  6  0  0  0
 31 29  1  0  0  0  0
M  END
>  <MODEL>
3

>  <REMARK>
 VINA RESULT:      -7.9      4.439      7.770
  Name = 
  2 active torsions:
  status: ('A' for Active; 'I' for Inactive)
    1  A    between atoms: C_5  and  C_30
    2  A    between atoms: C_10  and  N_16
                            x       y       z     vdW  Elec       q    Type
                         _______ _______ _______ _____ _____    ______ ____

>  <TORSDO>
F 2

$$$$
=
 OpenBabel11112416493D

 31 35  0  0  1  0  0  0  0  0999 V2000
  191.1260  175.5300  147.2410 C   0  0  0  0  0  0  0  0  0  0  0  0
  188.5430  175.6600  144.4030 C   0  0  2  0  0  3  0  0  0  0  0  0
  187.6140  176.7610  143.9270 C   0  0  0  0  0  0  0  0  0  0  0  0
  186.3140  178.7660  144.3780 C   0  0  0  0  0  0  0  0  0  0  0  0
  189.5960  176.1670  145.3990 C   0  0  1  0  0  3  0  0  0  0  0  0
  192.1760  176.4940  146.7720 C   0  0  0  0  0  2  0  0  0  0  0  0
  187.1830  177.7620  144.8120 C   0  0  0  0  0  3  0  0  0  0  0  0
  190.4390  175.5770  142.6270 C   0  0  2  0  0  3  0  0  0  0  0  0
  191.1300  175.1440  148.3980 O   0  0  0  0  0  0  0  0  0  0  0  0
  187.5030  175.7210  141.6970 N   0  0  0  0  0  2  0  0  0  0  0  0
  185.9160  179.7340  145.2370 F   0  0  0  0  0  0  0  0  0  0  0  0
  190.7180  176.9710  143.2070 C   0  0  0  0  0  2  0  0  0  0  0  0
  189.2120  174.8870  143.2430 C   0  0  2  0  0  3  0  0  0  0  0  0
  190.0870  175.0220  146.2890 C   0  0  0  0  0  2  0  0  0  0  0  0
  185.8590  178.7740  143.0580 C   0  0  0  0  0  3  0  0  0  0  0  0
  190.7460  176.9860  144.7380 C   0  0  2  0  0  3  0  0  0  0  0  0
  192.1460  176.6350  145.2520 C   0  0  0  0  0  2  0  0  0  0  0  0
  188.1960  174.5250  142.1640 C   0  0  0  0  0  2  0  0  0  0  0  0
  187.1170  176.7540  142.6070 C   0  0  0  0  0  0  0  0  0  0  0  0
  186.2590  177.7690  142.1740 C   0  0  0  0  0  3  0  0  0  0  0  0
  191.7680  174.2100  140.4930 O   0  0  0  0  0  0  0  0  0  0  0  0
  192.2040  174.0330  141.6610 C   0  0  0  0  0  0  0  0  0  0  0  0
  191.6010  174.7100  142.7670 N   0  0  0  0  0  2  0  0  0  0  0  0
  192.9570  171.5600  144.4630 C   0  0  0  0  0  0  0  0  0  0  0  0
  192.9100  171.6280  141.9830 C   0  0  0  0  0  2  0  0  0  0  0  0
  194.5140  175.0950  143.1450 O   0  0  0  0  0  0  0  0  0  0  0  0
  193.4980  170.6310  145.0380 O   0  0  0  0  0  0  0  0  0  0  0  0
  192.1170  171.3120  143.2550 C   0  0  0  0  0  2  0  0  0  0  0  0
  194.4410  173.5780  143.2480 S   0  0  2  0  0  0  0  0  0  0  0  0
  193.3520  173.0930  141.8760 C   0  0  2  0  0  3  0  0  0  0  0  0
  193.2690  173.2430  144.9770 S   0  0  0  0  0  0  0  0  0  0  0  0
  1  9  2  0  0  0  0
  2  3  1  6  0  0  0
  2  5  1  0  0  0  0
  3  7  1  0  0  0  0
  4  7  2  0  0  0  0
  4 11  1  0  0  0  0
  5 14  1  6  0  0  0
  6  1  1  0  0  0  0
  8 23  1  1  0  0  0
  8 12  1  0  0  0  0
  8 13  1  0  0  0  0
 10 18  1  0  0  0  0
 10 19  1  0  0  0  0
 13 18  1  6  0  0  0
 13  2  1  0  0  0  0
 14  1  1  0  0  0  0
 15  4  1  0  0  0  0
 16 12  1  6  0  0  0
 16 17  1  0  0  0  0
 16  5  1  0  0  0  0
 17  6  1  0  0  0  0
 19  3  2  0  0  0  0
 20 19  1  0  0  0  0
 20 15  2  0  0  0  0
 21 22  2  0  0  0  0
 22 23  1  0  0  0  0
 24 31  1  0  0  0  0
 24 27  2  0  0  0  0
 25 28  1  0  0  0  0
 28 24  1  0  0  0  0
 29 26  2  6  0  0  0
 29 31  1  0  0  0  0
 30 22  1  1  0  0  0
 30 25  1  0  0  0  0
 30 29  1  0  0  0  0
M  END
>  <MODEL>
4

>  <REMARK>
 VINA RESULT:      -7.9      4.379      7.673
  Name = 
  2 active torsions:
  status: ('A' for Active; 'I' for Inactive)
    1  A    between atoms: C_5  and  C_30
    2  A    between atoms: C_10  and  N_16
                            x       y       z     vdW  Elec       q    Type
                         _______ _______ _______ _____ _____    ______ ____

>  <TORSDO>
F 2

$$$$
=
 OpenBabel11112416493D

 31 35  0  0  1  0  0  0  0  0999 V2000
  193.3930  176.4140  145.4050 C   0  0  0  0  0  0  0  0  0  0  0  0
  191.6230  174.2160  142.8010 C   0  0  2  0  0  3  0  0  0  0  0  0
  191.6670  172.7220  142.5370 C   0  0  0  0  0  0  0  0  0  0  0  0
  192.8420  170.5960  142.6350 C   0  0  0  0  0  0  0  0  0  0  0  0
  192.2870  174.5980  144.1320 C   0  0  1  0  0  3  0  0  0  0  0  0
  192.7700  175.9600  146.6930 C   0  0  0  0  0  2  0  0  0  0  0  0
  192.7950  171.9680  142.8940 C   0  0  0  0  0  3  0  0  0  0  0  0
  189.3350  174.6190  143.9660 C   0  0  2  0  0  3  0  0  0  0  0  0
  194.4050  177.0940  145.4270 O   0  0  0  0  0  0  0  0  0  0  0  0
  189.4590  172.8380  141.4520 N   0  0  0  0  0  2  0  0  0  0  0  0
  193.9300  169.8750  142.9970 F   0  0  0  0  0  0  0  0  0  0  0  0
  190.0110  173.7760  145.0570 C   0  0  0  0  0  2  0  0  0  0  0  0
  190.1980  174.8070  142.7090 C   0  0  2  0  0  3  0  0  0  0  0  0
  192.7660  176.0520  144.0940 C   0  0  0  0  0  2  0  0  0  0  0  0
  191.7640  169.9660  142.0080 C   0  0  0  0  0  3  0  0  0  0  0  0
  191.4290  174.2520  145.3860 C   0  0  2  0  0  3  0  0  0  0  0  0
  191.3890  175.3580  146.4470 C   0  0  0  0  0  2  0  0  0  0  0  0
  189.4690  174.2960  141.4700 C   0  0  0  0  0  2  0  0  0  0  0  0
  190.6010  172.0860  141.8680 C   0  0  0  0  0  0  0  0  0  0  0  0
  190.6470  170.7100  141.6240 C   0  0  0  0  0  3  0  0  0  0  0  0
  186.8910  175.9810  143.3670 O   0  0  0  0  0  0  0  0  0  0  0  0
  187.7150  176.5640  144.1210 C   0  0  0  0  0  0  0  0  0  0  0  0
  188.9410  175.9230  144.4820 N   0  0  0  0  0  2  0  0  0  0  0  0
  184.4250  178.1690  145.1860 C   0  0  0  0  0  0  0  0  0  0  0  0
  186.7520  177.9310  146.0150 C   0  0  0  0  0  2  0  0  0  0  0  0
  187.0470  178.5850  142.0870 O   0  0  0  0  0  0  0  0  0  0  0  0
  183.6760  178.9850  145.6940 O   0  0  0  0  0  0  0  0  0  0  0  0
  185.3360  177.3490  146.0380 C   0  0  0  0  0  2  0  0  0  0  0  0
  186.4490  178.9440  143.4400 S   0  0  2  0  0  0  0  0  0  0  0  0
  187.3970  177.9400  144.6230 C   0  0  2  0  0  3  0  0  0  0  0  0
  184.5400  178.0350  143.4080 S   0  0  0  0  0  0  0  0  0  0  0  0
  1  9  2  0  0  0  0
  1  6  1  0  0  0  0
  2  3  1  1  0  0  0
  2  5  1  0  0  0  0
  3  7  1  0  0  0  0
  4  7  2  0  0  0  0
  4 11  1  0  0  0  0
  5 14  1  6  0  0  0
  5 16  1  0  0  0  0
  8 23  1  1  0  0  0
  8 12  1  0  0  0  0
 10 18  1  0  0  0  0
 10 19  1  0  0  0  0
 13 18  1  6  0  0  0
 13  2  1  0  0  0  0
 13  8  1  0  0  0  0
 14  1  1  0  0  0  0
 15  4  1  0  0  0  0
 16 12  1  6  0  0  0
 16 17  1  0  0  0  0
 17  6  1  0  0  0  0
 19  3  2  0  0  0  0
 20 19  1  0  0  0  0
 20 15  2  0  0  0  0
 21 22  2  0  0  0  0
 22 23  1  0  0  0  0
 24 27  2  0  0  0  0
 24 28  1  0  0  0  0
 25 28  1  0  0  0  0
 29 26  2  6  0  0  0
 29 30  1  0  0  0  0
 30 22  1  6  0  0  0
 30 25  1  0  0  0  0
 31 29  1  0  0  0  0
 31 24  1  0  0  0  0
M  END
>  <MODEL>
5

>  <REMARK>
 VINA RESULT:      -7.8      2.936      4.755
  Name = 
  2 active torsions:
  status: ('A' for Active; 'I' for Inactive)
    1  A    between atoms: C_5  and  C_30
    2  A    between atoms: C_10  and  N_16
                            x       y       z     vdW  Elec       q    Type
                         _______ _______ _______ _____ _____    ______ ____

>  <TORSDO>
F 2

$$$$
=
 OpenBabel11112416493D

 31 35  0  0  1  0  0  0  0  0999 V2000
  190.1590  171.9630  142.2040 C   0  0  0  0  0  0  0  0  0  0  0  0
  192.1130  174.2100  144.6280 C   0  0  2  0  0  3  0  0  0  0  0  0
  193.4320  174.9460  144.4890 C   0  0  0  0  0  0  0  0  0  0  0  0
  195.6380  175.1490  143.4860 C   0  0  0  0  0  0  0  0  0  0  0  0
  191.5980  173.6630  143.2880 C   0  0  1  0  0  3  0  0  0  0  0  0
  189.7440  172.9240  141.1290 C   0  0  0  0  0  2  0  0  0  0  0  0
  194.4170  174.4820  143.6020 C   0  0  0  0  0  3  0  0  0  0  0  0
  190.2970  176.0600  144.4310 C   0  0  2  0  0  3  0  0  0  0  0  0
  190.0660  170.7620  142.0130 O   0  0  0  0  0  0  0  0  0  0  0  0
  192.7460  176.5340  146.2420 N   0  0  0  0  0  2  0  0  0  0  0  0
  196.5750  174.7010  142.6180 F   0  0  0  0  0  0  0  0  0  0  0  0
  190.8630  176.1310  143.0060 C   0  0  0  0  0  2  0  0  0  0  0  0
  191.0220  175.0490  145.3330 C   0  0  2  0  0  3  0  0  0  0  0  0
  190.6650  172.4720  143.5190 C   0  0  0  0  0  2  0  0  0  0  0  0
  195.8920  176.2820  144.2630 C   0  0  0  0  0  3  0  0  0  0  0  0
  191.0030  174.7550  142.3490 C   0  0  2  0  0  3  0  0  0  0  0  0
  189.6910  174.3520  141.6670 C   0  0  0  0  0  2  0  0  0  0  0  0
  191.5740  175.7340  146.5790 C   0  0  0  0  0  2  0  0  0  0  0  0
  193.7120  176.0660  145.2980 C   0  0  0  0  0  0  0  0  0  0  0  0
  194.9310  176.7390  145.1680 C   0  0  0  0  0  3  0  0  0  0  0  0
  188.1780  177.9810  144.5350 O   0  0  0  0  0  0  0  0  0  0  0  0
  187.8610  176.7620  144.4950 C   0  0  0  0  0  0  0  0  0  0  0  0
  188.8720  175.7550  144.4120 N   0  0  0  0  0  2  0  0  0  0  0  0
  184.6900  178.8660  144.2540 C   0  0  0  0  0  0  0  0  0  0  0  0
  185.6440  176.7910  143.2830 C   0  0  0  0  0  2  0  0  0  0  0  0
  186.6060  176.7320  147.1580 O   0  0  0  0  0  0  0  0  0  0  0  0
  183.5050  179.1160  144.1170 O   0  0  0  0  0  0  0  0  0  0  0  0
  185.4790  178.3040  143.1180 C   0  0  0  0  0  2  0  0  0  0  0  0
  185.5700  176.9410  146.0610 S   0  0  2  0  0  0  0  0  0  0  0  0
  186.4110  176.3850  144.5480 C   0  0  2  0  0  3  0  0  0  0  0  0
  185.4710  179.0430  145.8520 S   0  0  0  0  0  0  0  0  0  0  0  0
  1 14  1  0  0  0  0
  2  3  1  6  0  0  0
  2 13  1  0  0  0  0
  3 19  1  0  0  0  0
  4  7  1  0  0  0  0
  4 15  2  0  0  0  0
  5 14  1  1  0  0  0
  5  2  1  0  0  0  0
  6 17  1  0  0  0  0
  6  1  1  0  0  0  0
  7  3  2  0  0  0  0
  8 23  1  6  0  0  0
  8 13  1  0  0  0  0
  9  1  2  0  0  0  0
 10 18  1  0  0  0  0
 11  4  1  0  0  0  0
 12  8  1  0  0  0  0
 13 18  1  1  0  0  0
 15 20  1  0  0  0  0
 16 17  1  1  0  0  0
 16 12  1  0  0  0  0
 16  5  1  0  0  0  0
 19 10  1  0  0  0  0
 20 19  2  0  0  0  0
 22 21  2  0  0  0  0
 23 22  1  0  0  0  0
 24 31  1  0  0  0  0
 25 30  1  0  0  0  0
 27 24  2  0  0  0  0
 28 25  1  0  0  0  0
 28 24  1  0  0  0  0
 29 26  2  1  0  0  0
 30 22  1  6  0  0  0
 30 29  1  0  0  0  0
 31 29  1  0  0  0  0
M  END
>  <MODEL>
6

>  <REMARK>
 VINA RESULT:      -7.8      1.505      1.842
  Name = 
  2 active torsions:
  status: ('A' for Active; 'I' for Inactive)
    1  A    between atoms: C_5  and  C_30
    2  A    between atoms: C_10  and  N_16
                            x       y       z     vdW  Elec       q    Type
                         _______ _______ _______ _____ _____    ______ ____

>  <TORSDO>
F 2

$$$$
=
 OpenBabel11112416493D

 31 35  0  0  1  0  0  0  0  0999 V2000
  189.8800  175.2480  147.0640 C   0  0  0  0  0  0  0  0  0  0  0  0
  188.1210  175.5570  143.6640 C   0  0  2  0  0  3  0  0  0  0  0  0
  187.0660  176.5190  143.1520 C   0  0  0  0  0  0  0  0  0  0  0  0
  185.1920  178.0120  143.5700 C   0  0  0  0  0  0  0  0  0  0  0  0
  188.7220  176.0000  145.0070 C   0  0  1  0  0  3  0  0  0  0  0  0
  190.7010  176.5030  147.1230 C   0  0  0  0  0  2  0  0  0  0  0  0
  186.1750  177.1390  144.0430 C   0  0  0  0  0  3  0  0  0  0  0  0
  190.3350  176.3470  142.5530 C   0  0  2  0  0  3  0  0  0  0  0  0
  189.7120  174.5840  148.0730 O   0  0  0  0  0  0  0  0  0  0  0  0
  187.7870  176.0970  140.8360 N   0  0  0  0  0  2  0  0  0  0  0  0
  184.3470  178.6150  144.4390 F   0  0  0  0  0  0  0  0  0  0  0  0
  190.0680  177.5680  143.4450 C   0  0  0  0  0  2  0  0  0  0  0  0
  189.2360  175.2750  142.6310 C   0  0  2  0  0  3  0  0  0  0  0  0
  189.2820  174.7960  145.7670 C   0  0  0  0  0  2  0  0  0  0  0  0
  185.0830  178.2660  142.2000 C   0  0  0  0  0  3  0  0  0  0  0  0
  189.7220  177.1900  144.8880 C   0  0  2  0  0  3  0  0  0  0  0  0
  190.9990  177.0240  145.7190 C   0  0  0  0  0  2  0  0  0  0  0  0
  188.6510  174.9980  141.2510 C   0  0  0  0  0  2  0  0  0  0  0  0
  186.9230  176.7500  141.7690 C   0  0  0  0  0  0  0  0  0  0  0  0
  185.9460  177.6350  141.3020 C   0  0  0  0  0  3  0  0  0  0  0  0
  191.7710  174.5240  140.8800 O   0  0  0  0  0  0  0  0  0  0  0  0
  192.2780  174.8160  141.9960 C   0  0  0  0  0  0  0  0  0  0  0  0
  191.6230  175.7430  142.8650 N   0  0  0  0  0  2  0  0  0  0  0  0
  194.2650  174.9630  145.2460 C   0  0  0  0  0  0  0  0  0  0  0  0
  193.4170  173.2720  143.6400 C   0  0  0  0  0  2  0  0  0  0  0  0
  194.7450  176.3180  141.4260 O   0  0  0  0  0  0  0  0  0  0  0  0
  195.1000  174.6500  146.0780 O   0  0  0  0  0  0  0  0  0  0  0  0
  193.1320  174.0430  144.9320 C   0  0  0  0  0  2  0  0  0  0  0  0
  194.9470  175.3380  142.5740 S   0  0  2  0  0  0  0  0  0  0  0  0
  193.5660  174.1670  142.4040 C   0  0  2  0  0  3  0  0  0  0  0  0
  194.4570  176.4640  144.2950 S   0  0  0  0  0  0  0  0  0  0  0  0
  1  6  1  0  0  0  0
  1  9  2  0  0  0  0
  2  3  1  6  0  0  0
  2  5  1  0  0  0  0
  3  7  1  0  0  0  0
  4  7  2  0  0  0  0
  4 11  1  0  0  0  0
  5 14  1  6  0  0  0
  8 13  1  0  0  0  0
  8 23  1  1  0  0  0
  8 12  1  0  0  0  0
 10 18  1  0  0  0  0
 10 19  1  0  0  0  0
 13 18  1  6  0  0  0
 13  2  1  0  0  0  0
 14  1  1  0  0  0  0
 15  4  1  0  0  0  0
 16 12  1  6  0  0  0
 16  5  1  0  0  0  0
 16 17  1  0  0  0  0
 17  6  1  0  0  0  0
 19  3  2  0  0  0  0
 20 19  1  0  0  0  0
 20 15  2  0  0  0  0
 21 22  2  0  0  0  0
 22 23  1  0  0  0  0
 24 27  2  0  0  0  0
 25 28  1  0  0  0  0
 28 24  1  0  0  0  0
 29 26  2  6  0  0  0
 29 31  1  0  0  0  0
 30 22  1  1  0  0  0
 30 29  1  0  0  0  0
 30 25  1  0  0  0  0
 31 24  1  0  0  0  0
M  END
>  <MODEL>
7

>  <REMARK>
 VINA RESULT:      -7.8      4.305      7.701
  Name = 
  2 active torsions:
  status: ('A' for Active; 'I' for Inactive)
    1  A    between atoms: C_5  and  C_30
    2  A    between atoms: C_10  and  N_16
                            x       y       z     vdW  Elec       q    Type
                         _______ _______ _______ _____ _____    ______ ____

>  <TORSDO>
F 2

$$$$
=
 OpenBabel11112416493D

 31 35  0  0  1  0  0  0  0  0999 V2000
  188.9400  174.0160  140.8400 C   0  0  0  0  0  0  0  0  0  0  0  0
  189.3640  176.3200  143.8830 C   0  0  2  0  0  3  0  0  0  0  0  0
  188.4150  176.7070  145.0020 C   0  0  0  0  0  0  0  0  0  0  0  0
  186.1530  177.0500  145.8250 C   0  0  0  0  0  0  0  0  0  0  0  0
  188.8370  175.1470  143.0420 C   0  0  1  0  0  3  0  0  0  0  0  0
  188.8060  172.6610  141.4720 C   0  0  0  0  0  2  0  0  0  0  0  0
  187.0260  176.6780  144.8000 C   0  0  0  0  0  3  0  0  0  0  0  0
  191.0210  174.6380  144.9690 C   0  0  2  0  0  3  0  0  0  0  0  0
  188.6480  174.1690  139.6660 O   0  0  0  0  0  0  0  0  0  0  0  0
  190.3290  177.2490  146.4530 N   0  0  0  0  0  2  0  0  0  0  0  0
  184.8150  177.0050  145.6240 F   0  0  0  0  0  0  0  0  0  0  0  0
  189.7380  173.8000  145.0630 C   0  0  0  0  0  2  0  0  0  0  0  0
  190.8010  176.0390  144.3770 C   0  0  2  0  0  3  0  0  0  0  0  0
  189.4500  175.1750  141.6390 C   0  0  0  0  0  2  0  0  0  0  0  0
  186.6600  177.4660  147.0590 C   0  0  0  0  0  3  0  0  0  0  0  0
  188.9510  173.7640  143.7500 C   0  0  2  0  0  3  0  0  0  0  0  0
  189.4650  172.6350  142.8490 C   0  0  0  0  0  2  0  0  0  0  0  0
  191.2710  177.1160  145.3470 C   0  0  0  0  0  2  0  0  0  0  0  0
  188.9190  177.1660  146.2360 C   0  0  0  0  0  0  0  0  0  0  0  0
  188.0400  177.5240  147.2630 C   0  0  0  0  0  3  0  0  0  0  0  0
  193.6810  174.0690  145.8570 O   0  0  0  0  0  0  0  0  0  0  0  0
  193.3660  173.7130  144.6900 C   0  0  0  0  0  0  0  0  0  0  0  0
  192.0430  173.9420  144.1980 N   0  0  0  0  0  2  0  0  0  0  0  0
  196.5900  171.8700  145.5530 C   0  0  0  0  0  0  0  0  0  0  0  0
  194.5780  171.5670  144.1320 C   0  0  0  0  0  2  0  0  0  0  0  0
  195.5950  175.4130  143.7890 O   0  0  0  0  0  0  0  0  0  0  0  0
  197.5660  171.1590  145.3880 O   0  0  0  0  0  0  0  0  0  0  0  0
  195.2160  171.2890  145.4960 C   0  0  0  0  0  2  0  0  0  0  0  0
  195.9880  173.9420  143.7950 S   0  0  2  0  0  0  0  0  0  0  0  0
  194.4000  173.0590  143.8240 C   0  0  2  0  0  3  0  0  0  0  0  0
  196.7810  173.6380  145.7320 S   0  0  0  0  0  0  0  0  0  0  0  0
  1  6  1  0  0  0  0
  1 14  1  0  0  0  0
  2 13  1  0  0  0  0
  2  3  1  1  0  0  0
  3 19  1  0  0  0  0
  4 15  2  0  0  0  0
  5 14  1  6  0  0  0
  5 16  1  0  0  0  0
  5  2  1  0  0  0  0
  6 17  1  0  0  0  0
  7  3  2  0  0  0  0
  7  4  1  0  0  0  0
  8 23  1  6  0  0  0
  8 12  1  0  0  0  0
  9  1  2  0  0  0  0
 11  4  1  0  0  0  0
 13  8  1  0  0  0  0
 13 18  1  1  0  0  0
 15 20  1  0  0  0  0
 16 17  1  6  0  0  0
 16 12  1  0  0  0  0
 18 10  1  0  0  0  0
 19 10  1  0  0  0  0
 19 20  2  0  0  0  0
 22 21  2  0  0  0  0
 23 22  1  0  0  0  0
 24 31  1  0  0  0  0
 25 28  1  0  0  0  0
 27 24  2  0  0  0  0
 28 24  1  0  0  0  0
 29 26  2  1  0  0  0
 29 30  1  0  0  0  0
 29 31  1  0  0  0  0
 30 25  1  0  0  0  0
 30 22  1  1  0  0  0
M  END
>  <MODEL>
8

>  <REMARK>
 VINA RESULT:      -7.5      4.934      7.661
  Name = 
  2 active torsions:
  status: ('A' for Active; 'I' for Inactive)
    1  A    between atoms: C_5  and  C_30
    2  A    between atoms: C_10  and  N_16
                            x       y       z     vdW  Elec       q    Type
                         _______ _______ _______ _____ _____    ______ ____

>  <TORSDO>
F 2

$$$$
=
 OpenBabel11112416493D

 31 35  0  0  1  0  0  0  0  0999 V2000
  193.7950  176.5150  146.4520 C   0  0  0  0  0  0  0  0  0  0  0  0
  194.0210  173.4680  144.1250 C   0  0  2  0  0  3  0  0  0  0  0  0
  194.0620  171.9780  144.4070 C   0  0  0  0  0  0  0  0  0  0  0  0
  194.6120  170.1250  145.8820 C   0  0  0  0  0  0  0  0  0  0  0  0
  193.6460  174.2930  145.3660 C   0  0  1  0  0  3  0  0  0  0  0  0
  192.4200  176.3790  147.0370 C   0  0  0  0  0  2  0  0  0  0  0  0
  194.5570  171.4980  145.6300 C   0  0  0  0  0  3  0  0  0  0  0  0
  191.6120  173.9130  143.2540 C   0  0  2  0  0  3  0  0  0  0  0  0
  194.5940  177.2880  146.9530 O   0  0  0  0  0  0  0  0  0  0  0  0
  193.2010  171.5140  142.1470 N   0  0  0  0  0  2  0  0  0  0  0  0
  195.0780  169.6730  147.0700 F   0  0  0  0  0  0  0  0  0  0  0  0
  191.2720  173.5050  144.6950 C   0  0  0  0  0  2  0  0  0  0  0  0
  193.1120  173.8340  142.9290 C   0  0  2  0  0  3  0  0  0  0  0  0
  194.1850  175.7210  145.2430 C   0  0  0  0  0  2  0  0  0  0  0  0
  194.1810  169.2180  144.9110 C   0  0  0  0  0  3  0  0  0  0  0  0
  192.1340  174.2210  145.7380 C   0  0  2  0  0  3  0  0  0  0  0  0
  191.5130  175.5710  146.1120 C   0  0  0  0  0  2  0  0  0  0  0  0
  193.3610  172.9070  141.7450 C   0  0  0  0  0  2  0  0  0  0  0  0
  193.6670  171.0550  143.4170 C   0  0  0  0  0  0  0  0  0  0  0  0
  193.7100  169.6820  143.6810 C   0  0  0  0  0  3  0  0  0  0  0  0
  188.8640  174.6680  142.9980 O   0  0  0  0  0  0  0  0  0  0  0  0
  189.7350  175.5610  142.8190 C   0  0  0  0  0  0  0  0  0  0  0  0
  191.1240  175.2540  142.9610 N   0  0  0  0  0  2  0  0  0  0  0  0
  186.8860  177.7460  144.1030 C   0  0  0  0  0  0  0  0  0  0  0  0
  189.3150  177.9190  143.6260 C   0  0  0  0  0  2  0  0  0  0  0  0
  187.7610  175.7660  140.6430 O   0  0  0  0  0  0  0  0  0  0  0  0
  186.2260  178.7540  144.2840 O   0  0  0  0  0  0  0  0  0  0  0  0
  188.2530  177.6240  144.6890 C   0  0  0  0  0  2  0  0  0  0  0  0
  187.7070  176.9840  141.5550 S   0  0  2  0  0  0  0  0  0  0  0  0
  189.2940  176.9440  142.4420 C   0  0  2  0  0  3  0  0  0  0  0  0
  186.2830  176.4530  143.0250 S   0  0  0  0  0  0  0  0  0  0  0  0
  1  9  2  0  0  0  0
  1  6  1  0  0  0  0
  2  3  1  1  0  0  0
  2  5  1  0  0  0  0
  3  7  1  0  0  0  0
  4 11  1  0  0  0  0
  5 14  1  6  0  0  0
  5 16  1  0  0  0  0
  7  4  2  0  0  0  0
  8 23  1  1  0  0  0
  8 12  1  0  0  0  0
 10 19  1  0  0  0  0
 13 18  1  6  0  0  0
 13  8  1  0  0  0  0
 13  2  1  0  0  0  0
 14  1  1  0  0  0  0
 15  4  1  0  0  0  0
 16 12  1  6  0  0  0
 16 17  1  0  0  0  0
 17  6  1  0  0  0  0
 18 10  1  0  0  0  0
 19 20  1  0  0  0  0
 19  3  2  0  0  0  0
 20 15  2  0  0  0  0
 22 23  1  0  0  0  0
 22 21  2  0  0  0  0
 24 27  2  0  0  0  0
 24 28  1  0  0  0  0
 25 28  1  0  0  0  0
 29 26  2  6  0  0  0
 29 30  1  0  0  0  0
 29 31  1  0  0  0  0
 30 22  1  1  0  0  0
 30 25  1  0  0  0  0
 31 24  1  0  0  0  0
M  END
>  <MODEL>
9

>  <REMARK>
 VINA RESULT:      -7.4      3.560      5.487
  Name = 
  2 active torsions:
  status: ('A' for Active; 'I' for Inactive)
    1  A    between atoms: C_5  and  C_30
    2  A    between atoms: C_10  and  N_16
                            x       y       z     vdW  Elec       q    Type
                         _______ _______ _______ _____ _____    ______ ____

>  <TORSDO>
F 2

$$$$
