=
 OpenBabel11112417063D

 31 35  0  0  1  0  0  0  0  0999 V2000
  194.4780  175.5140  144.8410 C   0  0  0  0  0  0  0  0  0  0  0  0
  191.2610  176.7800  143.2490 C   0  0  2  0  0  3  0  0  0  0  0  0
  190.6800  175.6560  142.4050 C   0  0  0  0  0  0  0  0  0  0  0  0
  188.2790  175.7750  147.5230 O   0  0  0  0  0  0  0  0  0  0  0  0
  187.6740  176.6160  146.8030 C   0  0  0  0  0  0  0  0  0  0  0  0
  190.9580  173.5850  141.1610 C   0  0  0  0  0  0  0  0  0  0  0  0
  192.2500  176.2730  144.2640 C   0  0  0  0  0  0  0  0  0  0  0  0
  194.0320  175.1770  146.1230 C   0  0  0  0  0  3  0  0  0  0  0  0
  191.4920  174.6040  141.9530 C   0  0  0  0  0  3  0  0  0  0  0  0
  189.6440  176.9240  145.2070 C   0  0  0  0  0  0  0  0  0  0  0  0
  195.8970  175.2840  144.4640 C   0  0  0  0  0  1  0  0  0  0  0  0
  188.5050  176.7570  142.3940 O   0  0  0  0  0  0  0  0  0  0  0  0
  191.7490  172.5680  140.7420 F   0  0  0  0  0  0  0  0  0  0  0  0
  190.4510  176.2080  145.9370 N   0  0  0  0  0  0  0  0  0  0  0  0
  190.1600  177.6080  143.9540 C   0  0  2  0  0  3  0  0  0  0  0  0
  188.3060  177.1900  145.6530 N   0  0  0  0  0  2  0  0  0  0  0  0
  193.5870  176.0570  143.9100 C   0  0  0  0  0  3  0  0  0  0  0  0
  189.6090  173.6140  140.8010 C   0  0  0  0  0  3  0  0  0  0  0  0
  191.8070  175.9470  145.5570 C   0  0  0  0  0  0  0  0  0  0  0  0
  192.6980  175.3940  146.4820 C   0  0  0  0  0  3  0  0  0  0  0  0
  189.0410  177.9460  142.9690 C   0  0  0  0  0  2  0  0  0  0  0  0
  189.3280  175.6980  142.0030 C   0  0  0  0  0  0  0  0  0  0  0  0
  188.7960  174.6700  141.2200 C   0  0  0  0  0  3  0  0  0  0  0  0
  184.7790  178.8530  145.3050 C   0  0  1  0  0  3  0  0  0  0  0  0
  185.2860  176.5450  146.0650 C   0  0  0  0  0  2  0  0  0  0  0  0
  186.6760  179.0000  148.4260 O   0  0  0  0  0  0  0  0  0  0  0  0
  184.8150  179.8170  144.1380 C   0  0  0  0  0  1  0  0  0  0  0  0
  185.2670  177.4810  144.8610 C   0  0  0  0  0  2  0  0  0  0  0  0
  186.1820  178.5060  147.3790 C   0  0  0  0  0  0  0  0  0  0  0  0
  186.2730  177.0230  147.1370 C   0  0  2  0  0  3  0  0  0  0  0  0
  185.6030  179.3690  146.3950 N   0  0  0  0  0  2  0  0  0  0  0  0
  1  8  1  0  0  0  0
  2  3  1  1  0  0  0
  2 15  1  0  0  0  0
  2  7  1  0  0  0  0
  5  4  2  0  0  0  0
  6  9  1  0  0  0  0
  7 19  2  0  0  0  0
  8 20  2  0  0  0  0
  9  3  2  0  0  0  0
 10 16  1  0  0  0  0
 10 14  2  0  0  0  0
 11  1  1  0  0  0  0
 12 21  1  0  0  0  0
 13  6  1  0  0  0  0
 15 21  1  6  0  0  0
 15 10  1  0  0  0  0
 16  5  1  0  0  0  0
 17  7  1  0  0  0  0
 17  1  2  0  0  0  0
 18  6  2  0  0  0  0
 18 23  1  0  0  0  0
 19 14  1  0  0  0  0
 19 20  1  0  0  0  0
 22 12  1  0  0  0  0
 22  3  1  0  0  0  0
 23 22  2  0  0  0  0
 24 27  1  6  0  0  0
 24 31  1  0  0  0  0
 25 30  1  0  0  0  0
 28 24  1  0  0  0  0
 28 25  1  0  0  0  0
 29 26  2  0  0  0  0
 30  5  1  6  0  0  0
 30 29  1  0  0  0  0
 31 29  1  0  0  0  0
M  END
>  <MODEL>
1

>  <REMARK>
 VINA RESULT:      -9.3      0.000      0.000
  Name = 
  1 active torsions:
  status: ('A' for Active; 'I' for Inactive)
    1  A    between atoms: C_5  and  C_30
                            x       y       z     vdW  Elec       q    Type
                         _______ _______ _______ _____ _____    ______ ____

>  <TORSDO>
F 1

$$$$
=
 OpenBabel11112417063D

 31 35  0  0  1  0  0  0  0  0999 V2000
  185.8870  177.9250  140.7760 C   0  0  0  0  0  0  0  0  0  0  0  0
  188.4680  178.0750  143.5700 C   0  0  2  0  0  3  0  0  0  0  0  0
  187.8430  177.4750  144.8200 C   0  0  0  0  0  0  0  0  0  0  0  0
  190.9360  173.6220  142.0700 O   0  0  0  0  0  0  0  0  0  0  0  0
  191.7230  174.2900  142.7950 C   0  0  0  0  0  0  0  0  0  0  0  0
  185.8800  176.8630  146.1180 C   0  0  0  0  0  0  0  0  0  0  0  0
  187.7370  177.6650  142.3190 C   0  0  0  0  0  0  0  0  0  0  0  0
  186.3040  176.7850  140.0830 C   0  0  0  0  0  3  0  0  0  0  0  0
  186.4480  177.3960  144.9590 C   0  0  0  0  0  3  0  0  0  0  0  0
  190.1850  176.3260  142.8880 C   0  0  0  0  0  0  0  0  0  0  0  0
  184.6780  178.6660  140.3300 C   0  0  0  0  0  1  0  0  0  0  0  0
  190.0520  177.1700  145.8050 O   0  0  0  0  0  0  0  0  0  0  0  0
  184.5320  176.7780  146.2340 F   0  0  0  0  0  0  0  0  0  0  0  0
  189.3520  175.8370  142.0140 N   0  0  0  0  0  0  0  0  0  0  0  0
  189.9700  177.7230  143.4420 C   0  0  2  0  0  3  0  0  0  0  0  0
  191.3830  175.6130  143.2270 N   0  0  0  0  0  2  0  0  0  0  0  0
  186.5990  178.3620  141.8970 C   0  0  0  0  0  3  0  0  0  0  0  0
  186.6990  176.4160  147.1560 C   0  0  0  0  0  3  0  0  0  0  0  0
  188.1630  176.5280  141.6120 C   0  0  0  0  0  0  0  0  0  0  0  0
  187.4410  176.0860  140.4990 C   0  0  0  0  0  3  0  0  0  0  0  0
  190.6770  177.9380  144.7800 C   0  0  0  0  0  2  0  0  0  0  0  0
  188.6620  177.0580  145.8910 C   0  0  0  0  0  0  0  0  0  0  0  0
  188.0880  176.5150  147.0430 C   0  0  0  0  0  3  0  0  0  0  0  0
  194.5020  174.8880  145.5440 C   0  0  1  0  0  3  0  0  0  0  0  0
  192.9510  173.1630  144.6590 C   0  0  0  0  0  2  0  0  0  0  0  0
  194.5560  174.9760  141.8900 O   0  0  0  0  0  0  0  0  0  0  0  0
  194.6640  176.0390  146.5130 C   0  0  0  0  0  1  0  0  0  0  0  0
  193.1150  174.2760  145.6890 C   0  0  0  0  0  2  0  0  0  0  0  0
  194.1540  174.6890  143.0480 C   0  0  0  0  0  0  0  0  0  0  0  0
  193.0310  173.7030  143.2270 C   0  0  2  0  0  3  0  0  0  0  0  0
  194.7200  175.3600  144.1790 N   0  0  0  0  0  2  0  0  0  0  0  0
  1 17  1  0  0  0  0
  2  7  1  6  0  0  0
  2  3  1  0  0  0  0
  3  9  2  0  0  0  0
  3 22  1  0  0  0  0
  4  5  2  0  0  0  0
  5 16  1  0  0  0  0
  6 13  1  0  0  0  0
  6 18  2  0  0  0  0
  8 20  1  0  0  0  0
  8  1  2  0  0  0  0
  9  6  1  0  0  0  0
 10 16  1  0  0  0  0
 10 15  1  0  0  0  0
 11  1  1  0  0  0  0
 12 22  1  0  0  0  0
 14 10  2  0  0  0  0
 15  2  1  0  0  0  0
 15 21  1  1  0  0  0
 17  7  2  0  0  0  0
 19 14  1  0  0  0  0
 19  7  1  0  0  0  0
 20 19  2  0  0  0  0
 21 12  1  0  0  0  0
 22 23  2  0  0  0  0
 23 18  1  0  0  0  0
 24 28  1  0  0  0  0
 24 27  1  1  0  0  0
 25 28  1  0  0  0  0
 26 29  2  0  0  0  0
 29 30  1  0  0  0  0
 29 31  1  0  0  0  0
 30  5  1  1  0  0  0
 30 25  1  0  0  0  0
 31 24  1  0  0  0  0
M  END
>  <MODEL>
2

>  <REMARK>
 VINA RESULT:      -8.5      3.110      7.567
  Name = 
  1 active torsions:
  status: ('A' for Active; 'I' for Inactive)
    1  A    between atoms: C_5  and  C_30
                            x       y       z     vdW  Elec       q    Type
                         _______ _______ _______ _____ _____    ______ ____

>  <TORSDO>
F 1

$$$$
=
 OpenBabel11112417063D

 31 35  0  0  1  0  0  0  0  0999 V2000
  194.3530  170.3810  144.8250 C   0  0  0  0  0  0  0  0  0  0  0  0
  194.7720  174.0670  145.6740 C   0  0  2  0  0  3  0  0  0  0  0  0
  195.5630  174.7210  144.5510 C   0  0  0  0  0  0  0  0  0  0  0  0
  190.0090  175.4530  143.7860 O   0  0  0  0  0  0  0  0  0  0  0  0
  190.4020  176.3540  144.5760 C   0  0  0  0  0  0  0  0  0  0  0  0
  197.1110  174.5600  142.6830 C   0  0  0  0  0  0  0  0  0  0  0  0
  194.1610  172.7580  145.2480 C   0  0  0  0  0  0  0  0  0  0  0  0
  193.0570  170.3680  144.2990 C   0  0  0  0  0  3  0  0  0  0  0  0
  196.3700  173.9510  143.6980 C   0  0  0  0  0  3  0  0  0  0  0  0
  192.4330  175.0190  145.3600 C   0  0  0  0  0  0  0  0  0  0  0  0
  195.1470  169.1250  144.8730 C   0  0  0  0  0  1  0  0  0  0  0  0
  194.8010  176.9230  145.2660 O   0  0  0  0  0  0  0  0  0  0  0  0
  197.8740  173.8040  141.8570 F   0  0  0  0  0  0  0  0  0  0  0  0
  192.0710  173.9410  144.7250 N   0  0  0  0  0  0  0  0  0  0  0  0
  193.6740  175.0030  146.2350 C   0  0  2  0  0  3  0  0  0  0  0  0
  191.5930  176.1820  145.3540 N   0  0  0  0  0  2  0  0  0  0  0  0
  194.9070  171.5750  145.2940 C   0  0  0  0  0  3  0  0  0  0  0  0
  197.0640  175.9450  142.5180 C   0  0  0  0  0  3  0  0  0  0  0  0
  192.8540  172.7420  144.7320 C   0  0  0  0  0  0  0  0  0  0  0  0
  192.3070  171.5470  144.2530 C   0  0  0  0  0  3  0  0  0  0  0  0
  194.2430  176.4020  146.4700 C   0  0  0  0  0  2  0  0  0  0  0  0
  195.5540  176.1240  144.4030 C   0  0  0  0  0  0  0  0  0  0  0  0
  196.2880  176.7260  143.3770 C   0  0  0  0  0  3  0  0  0  0  0  0
  186.8020  177.5640  145.6730 C   0  0  1  0  0  3  0  0  0  0  0  0
  189.2160  177.8780  146.1630 C   0  0  0  0  0  2  0  0  0  0  0  0
  188.6520  177.7890  142.5290 O   0  0  0  0  0  0  0  0  0  0  0  0
  185.5640  176.7470  145.9780 C   0  0  0  0  0  1  0  0  0  0  0  0
  187.9650  177.0870  146.5330 C   0  0  0  0  0  2  0  0  0  0  0  0
  188.4580  177.6540  143.7650 C   0  0  0  0  0  0  0  0  0  0  0  0
  189.6310  177.6290  144.7080 C   0  0  2  0  0  3  0  0  0  0  0  0
  187.1270  177.4530  144.2540 N   0  0  0  0  0  2  0  0  0  0  0  0
  1 11  1  0  0  0  0
  1 17  1  0  0  0  0
  2  3  1  6  0  0  0
  2 15  1  0  0  0  0
  4  5  2  0  0  0  0
  5 16  1  0  0  0  0
  6  9  1  0  0  0  0
  7 17  2  0  0  0  0
  7  2  1  0  0  0  0
  8  1  2  0  0  0  0
  9  3  2  0  0  0  0
 10 15  1  0  0  0  0
 12 21  1  0  0  0  0
 13  6  1  0  0  0  0
 14 19  1  0  0  0  0
 14 10  2  0  0  0  0
 15 21  1  6  0  0  0
 16 10  1  0  0  0  0
 18  6  2  0  0  0  0
 18 23  1  0  0  0  0
 19  7  1  0  0  0  0
 20  8  1  0  0  0  0
 20 19  2  0  0  0  0
 22  3  1  0  0  0  0
 22 12  1  0  0  0  0
 23 22  2  0  0  0  0
 24 27  1  6  0  0  0
 24 28  1  0  0  0  0
 25 28  1  0  0  0  0
 26 29  2  0  0  0  0
 29 31  1  0  0  0  0
 29 30  1  0  0  0  0
 30  5  1  1  0  0  0
 30 25  1  0  0  0  0
 31 24  1  0  0  0  0
M  END
>  <MODEL>
3

>  <REMARK>
 VINA RESULT:      -8.4      2.977      5.119
  Name = 
  1 active torsions:
  status: ('A' for Active; 'I' for Inactive)
    1  A    between atoms: C_5  and  C_30
                            x       y       z     vdW  Elec       q    Type
                         _______ _______ _______ _____ _____    ______ ____

>  <TORSDO>
F 1

$$$$
=
 OpenBabel11112417063D

 31 35  0  0  1  0  0  0  0  0999 V2000
  185.7030  178.7620  143.5090 C   0  0  0  0  0  0  0  0  0  0  0  0
  189.1820  177.3830  144.2050 C   0  0  2  0  0  3  0  0  0  0  0  0
  189.0840  176.4360  145.3920 C   0  0  0  0  0  0  0  0  0  0  0  0
  188.8490  173.5820  140.5160 O   0  0  0  0  0  0  0  0  0  0  0  0
  190.0670  173.7740  140.7820 C   0  0  0  0  0  0  0  0  0  0  0  0
  187.9370  175.6650  147.3920 C   0  0  0  0  0  0  0  0  0  0  0  0
  187.8430  177.6260  143.5620 C   0  0  0  0  0  0  0  0  0  0  0  0
  185.2950  177.9450  142.4500 C   0  0  0  0  0  3  0  0  0  0  0  0
  188.0110  176.5230  146.2930 C   0  0  0  0  0  3  0  0  0  0  0  0
  189.6030  175.8130  142.2480 C   0  0  0  0  0  0  0  0  0  0  0  0
  184.7810  179.7950  144.0490 C   0  0  0  0  0  1  0  0  0  0  0  0
  191.2210  175.4280  144.7920 O   0  0  0  0  0  0  0  0  0  0  0  0
  186.8890  175.7490  148.2470 F   0  0  0  0  0  0  0  0  0  0  0  0
  188.3380  175.8490  141.9370 N   0  0  0  0  0  0  0  0  0  0  0  0
  190.1940  176.8860  143.1440 C   0  0  2  0  0  3  0  0  0  0  0  0
  190.4730  174.8490  141.6380 N   0  0  0  0  0  2  0  0  0  0  0  0
  186.9740  178.5990  144.0690 C   0  0  0  0  0  3  0  0  0  0  0  0
  188.9420  174.7200  147.6100 C   0  0  0  0  0  3  0  0  0  0  0  0
  187.4360  176.8160  142.4880 C   0  0  0  0  0  0  0  0  0  0  0  0
  186.1600  176.9730  141.9380 C   0  0  0  0  0  3  0  0  0  0  0  0
  191.4890  176.4360  143.8210 C   0  0  0  0  0  2  0  0  0  0  0  0
  190.1150  175.5060  145.6420 C   0  0  0  0  0  0  0  0  0  0  0  0
  190.0290  174.6420  146.7370 C   0  0  0  0  0  3  0  0  0  0  0  0
  190.6580  171.5480  137.5690 C   0  0  1  0  0  3  0  0  0  0  0  0
  191.6460  173.4110  138.8780 C   0  0  0  0  0  2  0  0  0  0  0  0
  190.4420  170.7660  141.1320 O   0  0  0  0  0  0  0  0  0  0  0  0
  189.6910  171.1760  136.4650 C   0  0  0  0  0  1  0  0  0  0  0  0
  190.7180  173.0620  137.7190 C   0  0  0  0  0  2  0  0  0  0  0  0
  190.6080  171.4580  140.0940 C   0  0  0  0  0  0  0  0  0  0  0  0
  191.1140  172.8710  140.2100 C   0  0  2  0  0  3  0  0  0  0  0  0
  190.2430  170.9180  138.8190 N   0  0  0  0  0  2  0  0  0  0  0  0
  1 11  1  0  0  0  0
  1 17  1  0  0  0  0
  2  7  1  6  0  0  0
  2  3  1  0  0  0  0
  3 22  2  0  0  0  0
  3  9  1  0  0  0  0
  4  5  2  0  0  0  0
  5 16  1  0  0  0  0
  6 18  1  0  0  0  0
  6 13  1  0  0  0  0
  7 17  2  0  0  0  0
  8  1  2  0  0  0  0
  9  6  2  0  0  0  0
 10 15  1  0  0  0  0
 12 22  1  0  0  0  0
 14 10  2  0  0  0  0
 14 19  1  0  0  0  0
 15 21  1  1  0  0  0
 15  2  1  0  0  0  0
 16 10  1  0  0  0  0
 19  7  1  0  0  0  0
 20  8  1  0  0  0  0
 20 19  2  0  0  0  0
 21 12  1  0  0  0  0
 22 23  1  0  0  0  0
 23 18  2  0  0  0  0
 24 27  1  6  0  0  0
 24 28  1  0  0  0  0
 24 31  1  0  0  0  0
 25 30  1  0  0  0  0
 28 25  1  0  0  0  0
 29 30  1  0  0  0  0
 29 26  2  0  0  0  0
 30  5  1  6  0  0  0
 31 29  1  0  0  0  0
M  END
>  <MODEL>
4

>  <REMARK>
 VINA RESULT:      -8.3      3.537      7.985
  Name = 
  1 active torsions:
  status: ('A' for Active; 'I' for Inactive)
    1  A    between atoms: C_5  and  C_30
                            x       y       z     vdW  Elec       q    Type
                         _______ _______ _______ _____ _____    ______ ____

>  <TORSDO>
F 1

$$$$
=
 OpenBabel11112417063D

 31 35  0  0  1  0  0  0  0  0999 V2000
  185.5960  178.9610  143.6250 C   0  0  0  0  0  0  0  0  0  0  0  0
  188.9890  177.2580  143.8970 C   0  0  2  0  0  3  0  0  0  0  0  0
  188.9570  176.3360  145.1060 C   0  0  0  0  0  0  0  0  0  0  0  0
  187.8180  173.4730  140.3640 O   0  0  0  0  0  0  0  0  0  0  0  0
  189.0730  173.5490  140.4670 C   0  0  0  0  0  0  0  0  0  0  0  0
  188.0120  175.6980  147.2540 C   0  0  0  0  0  0  0  0  0  0  0  0
  187.6060  177.6230  143.4270 C   0  0  0  0  0  0  0  0  0  0  0  0
  184.9770  178.1790  142.6460 C   0  0  0  0  0  3  0  0  0  0  0  0
  188.0240  176.5340  146.1360 C   0  0  0  0  0  3  0  0  0  0  0  0
  188.9990  175.6360  141.9370 C   0  0  0  0  0  0  0  0  0  0  0  0
  184.8550  180.0840  144.2570 C   0  0  0  0  0  1  0  0  0  0  0  0
  190.8910  175.1190  144.2590 O   0  0  0  0  0  0  0  0  0  0  0  0
  187.0970  175.8910  148.2350 F   0  0  0  0  0  0  0  0  0  0  0  0
  187.7140  175.7920  141.7900 N   0  0  0  0  0  0  0  0  0  0  0  0
  189.8020  176.6550  142.7260 C   0  0  2  0  0  3  0  0  0  0  0  0
  189.6870  174.5870  141.2400 N   0  0  0  0  0  2  0  0  0  0  0  0
  186.9070  178.6810  144.0200 C   0  0  0  0  0  3  0  0  0  0  0  0
  188.9420  174.6610  147.3610 C   0  0  0  0  0  3  0  0  0  0  0  0
  186.9870  176.8470  142.4320 C   0  0  0  0  0  0  0  0  0  0  0  0
  185.6710  177.1230  142.0480 C   0  0  0  0  0  3  0  0  0  0  0  0
  191.1250  176.0880  143.2390 C   0  0  0  0  0  2  0  0  0  0  0  0
  189.9180  175.3120  145.2420 C   0  0  0  0  0  0  0  0  0  0  0  0
  189.8940  174.4700  146.3570 C   0  0  0  0  0  3  0  0  0  0  0  0
  192.8340  172.3320  140.5280 C   0  0  1  0  0  3  0  0  0  0  0  0
  190.5010  171.5220  140.7850 C   0  0  0  0  0  2  0  0  0  0  0  0
  190.7440  173.8280  137.9290 O   0  0  0  0  0  0  0  0  0  0  0  0
  194.0280  172.9360  141.2350 C   0  0  0  0  0  1  0  0  0  0  0  0
  191.7170  172.0670  141.5280 C   0  0  0  0  0  2  0  0  0  0  0  0
  191.0330  173.2170  138.9910 C   0  0  0  0  0  0  0  0  0  0  0  0
  189.9460  172.5430  139.7850 C   0  0  2  0  0  3  0  0  0  0  0  0
  192.3810  173.2330  139.4710 N   0  0  0  0  0  2  0  0  0  0  0  0
  1 17  1  0  0  0  0
  1 11  1  0  0  0  0
  2  7  1  6  0  0  0
  2  3  1  0  0  0  0
  3 22  2  0  0  0  0
  3  9  1  0  0  0  0
  4  5  2  0  0  0  0
  5 16  1  0  0  0  0
  6 18  1  0  0  0  0
  6 13  1  0  0  0  0
  7 17  2  0  0  0  0
  8  1  2  0  0  0  0
  9  6  2  0  0  0  0
 10 15  1  0  0  0  0
 12 22  1  0  0  0  0
 14 10  2  0  0  0  0
 14 19  1  0  0  0  0
 15 21  1  1  0  0  0
 15  2  1  0  0  0  0
 16 10  1  0  0  0  0
 19  7  1  0  0  0  0
 20 19  2  0  0  0  0
 20  8  1  0  0  0  0
 21 12  1  0  0  0  0
 22 23  1  0  0  0  0
 23 18  2  0  0  0  0
 24 27  1  1  0  0  0
 24 28  1  0  0  0  0
 25 28  1  0  0  0  0
 26 29  2  0  0  0  0
 29 31  1  0  0  0  0
 29 30  1  0  0  0  0
 30  5  1  1  0  0  0
 30 25  1  0  0  0  0
 31 24  1  0  0  0  0
M  END
>  <MODEL>
5

>  <REMARK>
 VINA RESULT:      -8.0      3.427      7.866
  Name = 
  1 active torsions:
  status: ('A' for Active; 'I' for Inactive)
    1  A    between atoms: C_5  and  C_30
                            x       y       z     vdW  Elec       q    Type
                         _______ _______ _______ _____ _____    ______ ____

>  <TORSDO>
F 1

$$$$
=
 OpenBabel11112417063D

 31 35  0  0  1  0  0  0  0  0999 V2000
  190.0600  171.4610  139.5870 C   0  0  0  0  0  0  0  0  0  0  0  0
  190.0110  173.8620  142.5400 C   0  0  2  0  0  3  0  0  0  0  0  0
  191.2370  174.7570  142.4390 C   0  0  0  0  0  0  0  0  0  0  0  0
  186.7050  177.2960  140.2060 O   0  0  0  0  0  0  0  0  0  0  0  0
  186.6730  177.4950  141.4510 C   0  0  0  0  0  0  0  0  0  0  0  0
  193.4860  175.1770  141.6150 C   0  0  0  0  0  0  0  0  0  0  0  0
  189.6810  173.2040  141.2270 C   0  0  0  0  0  0  0  0  0  0  0  0
  189.1680  172.0890  138.7120 C   0  0  0  0  0  3  0  0  0  0  0  0
  192.3550  174.3620  141.6870 C   0  0  0  0  0  3  0  0  0  0  0  0
  188.0970  175.4440  141.9890 C   0  0  0  0  0  0  0  0  0  0  0  0
  190.7410  170.2050  139.1790 C   0  0  0  0  0  1  0  0  0  0  0  0
  190.2180  176.3640  143.9620 O   0  0  0  0  0  0  0  0  0  0  0  0
  194.5530  174.7920  140.8740 F   0  0  0  0  0  0  0  0  0  0  0  0
  188.0830  175.0120  140.7610 N   0  0  0  0  0  0  0  0  0  0  0  0
  188.7750  174.6260  143.0730 C   0  0  2  0  0  3  0  0  0  0  0  0
  187.3550  176.6170  142.3550 N   0  0  0  0  0  2  0  0  0  0  0  0
  190.3210  172.0200  140.8420 C   0  0  0  0  0  3  0  0  0  0  0  0
  193.5170  176.3920  142.3040 C   0  0  0  0  0  3  0  0  0  0  0  0
  188.7740  173.8260  140.3520 C   0  0  0  0  0  0  0  0  0  0  0  0
  188.5240  173.2700  139.0940 C   0  0  0  0  0  3  0  0  0  0  0  0
  189.1590  175.4680  144.2890 C   0  0  0  0  0  2  0  0  0  0  0  0
  191.2930  175.9660  143.1650 C   0  0  0  0  0  0  0  0  0  0  0  0
  192.4230  176.7840  143.0790 C   0  0  0  0  0  3  0  0  0  0  0  0
  184.9230  178.5900  144.8230 C   0  0  1  0  0  3  0  0  0  0  0  0
  186.6680  179.2830  143.1980 C   0  0  0  0  0  2  0  0  0  0  0  0
  183.6790  178.0810  141.4250 O   0  0  0  0  0  0  0  0  0  0  0  0
  184.6290  177.7730  146.0630 C   0  0  0  0  0  1  0  0  0  0  0  0
  186.4060  178.5090  144.4860 C   0  0  0  0  0  2  0  0  0  0  0  0
  184.5080  178.2930  142.3480 C   0  0  0  0  0  0  0  0  0  0  0  0
  185.9260  178.6660  142.0080 C   0  0  2  0  0  3  0  0  0  0  0  0
  184.1120  178.1050  143.7100 N   0  0  0  0  0  2  0  0  0  0  0  0
  1 17  1  0  0  0  0
  2  7  1  6  0  0  0
  2 15  1  0  0  0  0
  3  2  1  0  0  0  0
  3 22  1  0  0  0  0
  4  5  2  0  0  0  0
  5 16  1  0  0  0  0
  6  9  1  0  0  0  0
  6 18  2  0  0  0  0
  8 20  1  0  0  0  0
  8  1  2  0  0  0  0
  9  3  2  0  0  0  0
 10 16  1  0  0  0  0
 10 15  1  0  0  0  0
 11  1  1  0  0  0  0
 12 21  1  0  0  0  0
 13  6  1  0  0  0  0
 14 10  2  0  0  0  0
 15 21  1  1  0  0  0
 17  7  2  0  0  0  0
 18 23  1  0  0  0  0
 19 14  1  0  0  0  0
 19  7  1  0  0  0  0
 20 19  2  0  0  0  0
 22 12  1  0  0  0  0
 23 22  2  0  0  0  0
 24 27  1  1  0  0  0
 25 28  1  0  0  0  0
 26 29  2  0  0  0  0
 28 24  1  0  0  0  0
 29 31  1  0  0  0  0
 30  5  1  1  0  0  0
 30 29  1  0  0  0  0
 30 25  1  0  0  0  0
 31 24  1  0  0  0  0
M  END
>  <MODEL>
6

>  <REMARK>
 VINA RESULT:      -7.9      2.694      5.166
  Name = 
  1 active torsions:
  status: ('A' for Active; 'I' for Inactive)
    1  A    between atoms: C_5  and  C_30
                            x       y       z     vdW  Elec       q    Type
                         _______ _______ _______ _____ _____    ______ ____

>  <TORSDO>
F 1

$$$$
=
 OpenBabel11112417063D

 31 35  0  0  1  0  0  0  0  0999 V2000
  187.9420  177.2330  141.8850 C   0  0  0  0  0  0  0  0  0  0  0  0
  191.3640  176.9490  143.5290 C   0  0  2  0  0  3  0  0  0  0  0  0
  191.1590  176.9110  145.0360 C   0  0  0  0  0  0  0  0  0  0  0  0
  191.6510  171.6820  142.9410 O   0  0  0  0  0  0  0  0  0  0  0  0
  192.8170  172.1280  143.1200 C   0  0  0  0  0  0  0  0  0  0  0  0
  189.8070  177.3910  146.9990 C   0  0  0  0  0  0  0  0  0  0  0  0
  190.1050  176.6040  142.7780 C   0  0  0  0  0  0  0  0  0  0  0  0
  187.7030  175.9030  141.5250 C   0  0  0  0  0  3  0  0  0  0  0  0
  189.9810  177.4080  145.6130 C   0  0  0  0  0  3  0  0  0  0  0  0
  192.0890  174.5720  142.9860 C   0  0  0  0  0  0  0  0  0  0  0  0
  186.9180  178.2740  141.6080 C   0  0  0  0  0  1  0  0  0  0  0  0
  193.3950  175.9870  145.3380 O   0  0  0  0  0  0  0  0  0  0  0  0
  188.6590  177.8600  147.5440 F   0  0  0  0  0  0  0  0  0  0  0  0
  190.8720  174.2730  142.6290 N   0  0  0  0  0  0  0  0  0  0  0  0
  192.5190  176.0250  143.0730 C   0  0  2  0  0  3  0  0  0  0  0  0
  193.0680  173.5380  143.1610 N   0  0  0  0  0  2  0  0  0  0  0  0
  189.1400  177.5830  142.5160 C   0  0  0  0  0  3  0  0  0  0  0  0
  190.8160  176.8870  147.8230 C   0  0  0  0  0  3  0  0  0  0  0  0
  189.8690  175.2700  142.4020 C   0  0  0  0  0  0  0  0  0  0  0  0
  188.6650  174.9220  141.7820 C   0  0  0  0  0  3  0  0  0  0  0  0
  193.7380  176.2220  143.9740 C   0  0  0  0  0  2  0  0  0  0  0  0
  192.1900  176.4420  145.8780 C   0  0  0  0  0  0  0  0  0  0  0  0
  192.0060  176.4160  147.2630 C   0  0  0  0  0  3  0  0  0  0  0  0
  196.1450  171.8470  145.2350 C   0  0  1  0  0  3  0  0  0  0  0  0
  194.0250  170.6540  144.7380 C   0  0  0  0  0  2  0  0  0  0  0  0
  195.4860  172.0050  141.6440 O   0  0  0  0  0  0  0  0  0  0  0  0
  196.8170  172.8810  146.1130 C   0  0  0  0  0  1  0  0  0  0  0  0
  194.7010  171.6490  145.6760 C   0  0  0  0  0  2  0  0  0  0  0  0
  195.2600  171.8160  142.8680 C   0  0  0  0  0  0  0  0  0  0  0  0
  193.9640  171.1840  143.3010 C   0  0  2  0  0  3  0  0  0  0  0  0
  196.2080  172.2710  143.8390 N   0  0  0  0  0  2  0  0  0  0  0  0
  1 17  1  0  0  0  0
  2  7  1  6  0  0  0
  2  3  1  0  0  0  0
  3  9  2  0  0  0  0
  3 22  1  0  0  0  0
  4  5  2  0  0  0  0
  5 16  1  0  0  0  0
  6 13  1  0  0  0  0
  6 18  2  0  0  0  0
  8 20  1  0  0  0  0
  8  1  2  0  0  0  0
  9  6  1  0  0  0  0
 10 15  1  0  0  0  0
 10 16  1  0  0  0  0
 11  1  1  0  0  0  0
 12 22  1  0  0  0  0
 14 10  2  0  0  0  0
 15  2  1  0  0  0  0
 15 21  1  1  0  0  0
 17  7  2  0  0  0  0
 19 14  1  0  0  0  0
 19  7  1  0  0  0  0
 20 19  2  0  0  0  0
 21 12  1  0  0  0  0
 22 23  2  0  0  0  0
 23 18  1  0  0  0  0
 24 28  1  0  0  0  0
 24 27  1  1  0  0  0
 25 28  1  0  0  0  0
 26 29  2  0  0  0  0
 29 30  1  0  0  0  0
 29 31  1  0  0  0  0
 30  5  1  1  0  0  0
 30 25  1  0  0  0  0
 31 24  1  0  0  0  0
M  END
>  <MODEL>
7

>  <REMARK>
 VINA RESULT:      -7.9      3.813      8.148
  Name = 
  1 active torsions:
  status: ('A' for Active; 'I' for Inactive)
    1  A    between atoms: C_5  and  C_30
                            x       y       z     vdW  Elec       q    Type
                         _______ _______ _______ _____ _____    ______ ____

>  <TORSDO>
F 1

$$$$
=
 OpenBabel11112417063D

 31 35  0  0  1  0  0  0  0  0999 V2000
  186.2930  178.4150  143.6250 C   0  0  0  0  0  0  0  0  0  0  0  0
  189.8790  177.1500  143.4620 C   0  0  2  0  0  3  0  0  0  0  0  0
  190.3690  176.9410  144.8870 C   0  0  0  0  0  0  0  0  0  0  0  0
  188.4810  172.0910  142.6780 O   0  0  0  0  0  0  0  0  0  0  0  0
  189.6750  172.2380  142.2990 C   0  0  0  0  0  0  0  0  0  0  0  0
  190.2180  177.4180  147.2670 C   0  0  0  0  0  0  0  0  0  0  0  0
  188.3760  177.2030  143.3830 C   0  0  0  0  0  0  0  0  0  0  0  0
  185.5780  177.2370  143.3870 C   0  0  0  0  0  3  0  0  0  0  0  0
  189.7500  177.5970  145.9630 C   0  0  0  0  0  3  0  0  0  0  0  0
  189.6330  174.7750  142.5840 C   0  0  0  0  0  0  0  0  0  0  0  0
  185.5650  179.6850  143.8880 C   0  0  0  0  0  1  0  0  0  0  0  0
  192.1730  175.5140  144.0810 O   0  0  0  0  0  0  0  0  0  0  0  0
  189.6030  178.0450  148.2990 F   0  0  0  0  0  0  0  0  0  0  0  0
  188.3550  174.8070  142.8320 N   0  0  0  0  0  0  0  0  0  0  0  0
  190.4210  176.0700  142.4950 C   0  0  2  0  0  3  0  0  0  0  0  0
  190.2770  173.5370  142.2520 N   0  0  0  0  0  2  0  0  0  0  0  0
  187.6910  178.3980  143.6290 C   0  0  0  0  0  3  0  0  0  0  0  0
  191.3170  176.5910  147.5070 C   0  0  0  0  0  3  0  0  0  0  0  0
  187.6570  176.0230  143.1290 C   0  0  0  0  0  0  0  0  0  0  0  0
  186.2590  176.0410  143.1380 C   0  0  0  0  0  3  0  0  0  0  0  0
  191.9180  175.8620  142.7220 C   0  0  0  0  0  2  0  0  0  0  0  0
  191.5040  176.1410  145.1350 C   0  0  0  0  0  0  0  0  0  0  0  0
  191.9600  175.9550  146.4430 C   0  0  0  0  0  3  0  0  0  0  0  0
  193.4210  171.3530  141.3970 C   0  0  1  0  0  3  0  0  0  0  0  0
  191.5720  170.7400  142.9370 C   0  0  0  0  0  2  0  0  0  0  0  0
  190.2960  171.1590  139.5120 O   0  0  0  0  0  0  0  0  0  0  0  0
  194.5990  172.2760  141.1700 C   0  0  0  0  0  1  0  0  0  0  0  0
  192.7950  171.6340  142.7570 C   0  0  0  0  0  2  0  0  0  0  0  0
  191.0570  171.2230  140.5130 C   0  0  0  0  0  0  0  0  0  0  0  0
  190.4890  171.0490  141.8960 C   0  0  2  0  0  3  0  0  0  0  0  0
  192.4420  171.5330  140.3290 N   0  0  0  0  0  2  0  0  0  0  0  0
  1 17  1  0  0  0  0
  1 11  1  0  0  0  0
  2  7  1  1  0  0  0
  2  3  1  0  0  0  0
  3 22  2  0  0  0  0
  3  9  1  0  0  0  0
  5  4  2  0  0  0  0
  6 18  1  0  0  0  0
  6 13  1  0  0  0  0
  7 17  2  0  0  0  0
  8  1  2  0  0  0  0
  9  6  2  0  0  0  0
 10 14  2  0  0  0  0
 12 22  1  0  0  0  0
 14 19  1  0  0  0  0
 15 10  1  0  0  0  0
 15 21  1  1  0  0  0
 15  2  1  0  0  0  0
 16  5  1  0  0  0  0
 16 10  1  0  0  0  0
 19 20  2  0  0  0  0
 19  7  1  0  0  0  0
 20  8  1  0  0  0  0
 21 12  1  0  0  0  0
 22 23  1  0  0  0  0
 23 18  2  0  0  0  0
 24 27  1  6  0  0  0
 24 28  1  0  0  0  0
 26 29  2  0  0  0  0
 28 25  1  0  0  0  0
 29 30  1  0  0  0  0
 30  5  1  1  0  0  0
 30 25  1  0  0  0  0
 31 29  1  0  0  0  0
 31 24  1  0  0  0  0
M  END
>  <MODEL>
8

>  <REMARK>
 VINA RESULT:      -7.9      3.481      7.775
  Name = 
  1 active torsions:
  status: ('A' for Active; 'I' for Inactive)
    1  A    between atoms: C_5  and  C_30
                            x       y       z     vdW  Elec       q    Type
                         _______ _______ _______ _____ _____    ______ ____

>  <TORSDO>
F 1

$$$$
=
 OpenBabel11112417063D

 31 35  0  0  1  0  0  0  0  0999 V2000
  186.3910  178.2130  146.3930 C   0  0  0  0  0  0  0  0  0  0  0  0
  189.5280  177.4760  144.3680 C   0  0  2  0  0  3  0  0  0  0  0  0
  190.4930  176.7080  145.2580 C   0  0  0  0  0  0  0  0  0  0  0  0
  187.4870  173.1700  142.0290 O   0  0  0  0  0  0  0  0  0  0  0  0
  188.4620  173.5760  141.3380 C   0  0  0  0  0  0  0  0  0  0  0  0
  191.2830  176.0770  147.4690 C   0  0  0  0  0  0  0  0  0  0  0  0
  188.1150  177.4230  144.8860 C   0  0  0  0  0  0  0  0  0  0  0  0
  185.5360  177.2000  145.9490 C   0  0  0  0  0  3  0  0  0  0  0  0
  190.3820  176.7670  146.6560 C   0  0  0  0  0  3  0  0  0  0  0  0
  188.7590  175.7160  142.7000 C   0  0  0  0  0  0  0  0  0  0  0  0
  185.9320  179.1680  147.4370 C   0  0  0  0  0  1  0  0  0  0  0  0
  191.7290  175.9470  143.3000 O   0  0  0  0  0  0  0  0  0  0  0  0
  191.1570  176.1300  148.8180 F   0  0  0  0  0  0  0  0  0  0  0  0
  187.6740  175.5210  143.3940 N   0  0  0  0  0  0  0  0  0  0  0  0
  189.5700  176.9830  142.9010 C   0  0  2  0  0  3  0  0  0  0  0  0
  189.1180  174.8120  141.6450 N   0  0  0  0  0  2  0  0  0  0  0  0
  187.6820  178.3220  145.8670 C   0  0  0  0  0  3  0  0  0  0  0  0
  192.3140  175.3310  146.8940 C   0  0  0  0  0  3  0  0  0  0  0  0
  187.2500  176.4150  144.4300 C   0  0  0  0  0  0  0  0  0  0  0  0
  185.9640  176.3020  144.9670 C   0  0  0  0  0  3  0  0  0  0  0  0
  191.0180  176.8310  142.4370 C   0  0  0  0  0  2  0  0  0  0  0  0
  191.5610  175.9850  144.6860 C   0  0  0  0  0  0  0  0  0  0  0  0
  192.4530  175.2870  145.5050 C   0  0  0  0  0  3  0  0  0  0  0  0
  191.7580  173.1200  139.2030 C   0  0  1  0  0  3  0  0  0  0  0  0
  190.1300  171.8670  140.5990 C   0  0  0  0  0  2  0  0  0  0  0  0
  188.3670  174.1830  138.3490 O   0  0  0  0  0  0  0  0  0  0  0  0
  193.0280  173.9440  139.2070 C   0  0  0  0  0  1  0  0  0  0  0  0
  191.4470  172.6380  140.6140 C   0  0  0  0  0  2  0  0  0  0  0  0
  189.2920  173.6380  139.0070 C   0  0  0  0  0  0  0  0  0  0  0  0
  188.9570  172.7620  140.1840 C   0  0  2  0  0  3  0  0  0  0  0  0
  190.6560  173.9170  138.6720 N   0  0  0  0  0  2  0  0  0  0  0  0
  1 11  1  0  0  0  0
  2  7  1  1  0  0  0
  2  3  1  0  0  0  0
  3  9  1  0  0  0  0
  5 16  1  0  0  0  0
  5  4  2  0  0  0  0
  6 13  1  0  0  0  0
  7 17  1  0  0  0  0
  8  1  1  0  0  0  0
  9  6  2  0  0  0  0
 10 15  1  0  0  0  0
 10 14  2  0  0  0  0
 12 22  1  0  0  0  0
 14 19  1  0  0  0  0
 15 21  1  1  0  0  0
 15  2  1  0  0  0  0
 16 10  1  0  0  0  0
 17  1  2  0  0  0  0
 18  6  1  0  0  0  0
 19  7  2  0  0  0  0
 19 20  1  0  0  0  0
 20  8  2  0  0  0  0
 21 12  1  0  0  0  0
 22  3  2  0  0  0  0
 22 23  1  0  0  0  0
 23 18  2  0  0  0  0
 24 27  1  1  0  0  0
 24 28  1  0  0  0  0
 25 28  1  0  0  0  0
 26 29  2  0  0  0  0
 29 30  1  0  0  0  0
 30 25  1  0  0  0  0
 30  5  1  1  0  0  0
 31 29  1  0  0  0  0
 31 24  1  0  0  0  0
M  END
>  <MODEL>
9

>  <REMARK>
 VINA RESULT:      -7.9      3.090      7.246
  Name = 
  1 active torsions:
  status: ('A' for Active; 'I' for Inactive)
    1  A    between atoms: C_5  and  C_30
                            x       y       z     vdW  Elec       q    Type
                         _______ _______ _______ _____ _____    ______ ____

>  <TORSDO>
F 1

$$$$
