=
 OpenBabel11112417383D

 28 32  0  0  1  0  0  0  0  0999 V2000
  186.1750  178.4130  144.3040 C   0  0  0  0  0  0  0  0  0  0  0  0
  189.5790  178.1890  145.6590 O   0  0  0  0  0  0  0  0  0  0  0  0
  188.4980  174.8350  139.6260 O   0  0  0  0  0  0  0  0  0  0  0  0
  185.0350  176.9850  146.4320 C   0  0  0  0  0  3  0  0  0  0  0  0
  188.4990  173.7860  141.7340 N   0  0  0  0  0  0  0  0  0  0  0  0
  186.6900  179.1770  143.1290 C   0  0  0  0  0  2  0  0  0  0  0  0
  190.3890  176.2030  146.8660 O   0  0  0  0  0  0  0  0  0  0  0  0
  190.0430  176.7660  145.5160 S   0  0  0  0  0  0  0  0  0  0  0  0
  191.3950  175.9430  143.2840 C   0  0  0  0  0  0  0  0  0  0  0  0
  188.7820  175.7670  144.7670 C   0  0  2  0  0  3  0  0  0  0  0  0
  185.3820  177.5780  140.1090 O   0  0  0  0  0  0  0  0  0  0  0  0
  187.2920  175.5000  142.8790 C   0  0  2  0  0  3  0  0  0  0  0  0
  190.4450  175.0920  143.0250 N   0  0  0  0  0  0  0  0  0  0  0  0
  191.4230  176.6980  144.4920 N   0  0  0  0  0  2  0  0  0  0  0  0
  186.2170  177.9020  140.9930 C   0  0  0  0  0  0  0  0  0  0  0  0
  186.6880  177.1450  144.6500 C   0  0  0  0  0  0  0  0  0  0  0  0
  188.1750  174.8310  140.8440 C   0  0  0  0  0  0  0  0  0  0  0  0
  192.4070  176.1650  142.3100 N   0  0  0  0  0  1  0  0  0  0  0  0
  187.5690  177.2680  140.9910 C   0  0  0  0  0  2  0  0  0  0  0  0
  186.0970  176.4360  145.7110 C   0  0  0  0  0  3  0  0  0  0  0  0
  185.1070  178.9540  145.0310 C   0  0  0  0  0  3  0  0  0  0  0  0
  184.5430  178.2470  146.0940 C   0  0  0  0  0  3  0  0  0  0  0  0
  185.8670  178.8890  141.9640 N   0  0  0  0  0  2  0  0  0  0  0  0
  188.1340  174.2150  143.0800 C   0  0  2  0  0  3  0  0  0  0  0  0
  187.5000  175.8970  141.4810 N   0  0  0  0  0  0  0  0  0  0  0  0
  189.3530  174.6480  143.9110 C   0  0  2  0  0  3  0  0  0  0  0  0
  189.2660  172.5960  141.4040 C   0  0  0  0  0  1  0  0  0  0  0  0
  187.8240  176.5340  143.8690 C   0  0  1  0  0  3  0  0  0  0  0  0
  1 16  2  0  0  0  0
  1 21  1  0  0  0  0
  3 17  2  0  0  0  0
  6  1  1  0  0  0  0
  8  2  2  0  0  0  0
  8  7  2  0  0  0  0
  9 14  1  0  0  0  0
 10  8  1  6  0  0  0
 11 15  2  0  0  0  0
 12 25  1  6  0  0  0
 12 24  1  0  0  0  0
 12 28  1  0  0  0  0
 13  9  2  0  0  0  0
 14  8  1  0  0  0  0
 15 23  1  0  0  0  0
 16 20  1  0  0  0  0
 17 25  1  0  0  0  0
 17  5  1  0  0  0  0
 18  9  1  0  0  0  0
 19 15  1  0  0  0  0
 19 25  1  0  0  0  0
 20  4  2  0  0  0  0
 21 22  2  0  0  0  0
 22  4  1  0  0  0  0
 23  6  1  0  0  0  0
 24  5  1  6  0  0  0
 24 26  1  0  0  0  0
 26 13  1  6  0  0  0
 26 10  1  0  0  0  0
 27  5  1  0  0  0  0
 28 16  1  1  0  0  0
 28 10  1  0  0  0  0
M  END
>  <MODEL>
1

>  <REMARK>
 VINA RESULT:      -8.1      0.000      0.000
  Name = 
  0 active torsions:
  status: ('A' for Active; 'I' for Inactive)
                            x       y       z     vdW  Elec       q    Type
                         _______ _______ _______ _____ _____    ______ ____

>  <TORSDO>
F 0

$$$$
=
 OpenBabel11112417383D

 28 32  0  0  1  0  0  0  0  0999 V2000
  185.9120  177.0260  143.8660 C   0  0  0  0  0  0  0  0  0  0  0  0
  187.1740  174.0090  142.1970 O   0  0  0  0  0  0  0  0  0  0  0  0
  191.3060  176.6730  147.1620 O   0  0  0  0  0  0  0  0  0  0  0  0
  186.0450  178.5910  141.5430 C   0  0  0  0  0  3  0  0  0  0  0  0
  191.6070  177.0480  144.8570 N   0  0  0  0  0  0  0  0  0  0  0  0
  185.8110  176.2740  145.1530 C   0  0  0  0  0  2  0  0  0  0  0  0
  188.8810  174.1000  140.4270 O   0  0  0  0  0  0  0  0  0  0  0  0
  188.6340  174.2170  141.9040 S   0  0  0  0  0  0  0  0  0  0  0  0
  190.5540  173.4450  143.6950 C   0  0  0  0  0  0  0  0  0  0  0  0
  189.1660  175.8160  142.4640 C   0  0  2  0  0  3  0  0  0  0  0  0
  187.4830  178.2620  147.7300 O   0  0  0  0  0  0  0  0  0  0  0  0
  189.2940  177.3440  144.3360 C   0  0  2  0  0  3  0  0  0  0  0  0
  190.9510  174.6800  143.7980 N   0  0  0  0  0  0  0  0  0  0  0  0
  189.5740  173.0450  142.7410 N   0  0  0  0  0  2  0  0  0  0  0  0
  187.3110  177.3360  146.8950 C   0  0  0  0  0  0  0  0  0  0  0  0
  187.1210  177.1030  143.1430 C   0  0  0  0  0  0  0  0  0  0  0  0
  190.8250  176.9180  146.0230 C   0  0  0  0  0  0  0  0  0  0  0  0
  191.0730  172.4750  144.5960 N   0  0  0  0  0  1  0  0  0  0  0  0
  188.4330  176.3970  146.6020 C   0  0  0  0  0  2  0  0  0  0  0  0
  187.1750  177.9030  141.9880 C   0  0  0  0  0  3  0  0  0  0  0  0
  184.7850  177.7230  143.4150 C   0  0  0  0  0  3  0  0  0  0  0  0
  184.8480  178.4970  142.2550 C   0  0  0  0  0  3  0  0  0  0  0  0
  186.0380  177.1840  146.2650 N   0  0  0  0  0  2  0  0  0  0  0  0
  190.7000  177.1380  143.7180 C   0  0  2  0  0  3  0  0  0  0  0  0
  189.4410  177.0370  145.7650 N   0  0  0  0  0  0  0  0  0  0  0  0
  190.6140  175.8220  142.9280 C   0  0  2  0  0  3  0  0  0  0  0  0
  193.0500  176.8890  144.7790 C   0  0  0  0  0  1  0  0  0  0  0  0
  188.3530  176.3770  143.6210 C   0  0  1  0  0  3  0  0  0  0  0  0
  1  6  1  0  0  0  0
  4 20  2  0  0  0  0
  4 22  1  0  0  0  0
  5 17  1  0  0  0  0
  6 23  1  0  0  0  0
  7  8  2  0  0  0  0
  8  2  2  0  0  0  0
  8 14  1  0  0  0  0
  9 13  2  0  0  0  0
  9 18  1  0  0  0  0
 10  8  1  1  0  0  0
 10 26  1  0  0  0  0
 10 28  1  0  0  0  0
 12 25  1  1  0  0  0
 14  9  1  0  0  0  0
 15 11  2  0  0  0  0
 16  1  2  0  0  0  0
 17  3  2  0  0  0  0
 19 15  1  0  0  0  0
 20 16  1  0  0  0  0
 21  1  1  0  0  0  0
 22 21  2  0  0  0  0
 23 15  1  0  0  0  0
 24 12  1  0  0  0  0
 24  5  1  1  0  0  0
 25 17  1  0  0  0  0
 25 19  1  0  0  0  0
 26 24  1  0  0  0  0
 26 13  1  1  0  0  0
 27  5  1  0  0  0  0
 28 16  1  6  0  0  0
 28 12  1  0  0  0  0
M  END
>  <MODEL>
2

>  <REMARK>
 VINA RESULT:      -7.8      2.277      4.735
  Name = 
  0 active torsions:
  status: ('A' for Active; 'I' for Inactive)
                            x       y       z     vdW  Elec       q    Type
                         _______ _______ _______ _____ _____    ______ ____

>  <TORSDO>
F 0

$$$$
=
 OpenBabel11112417383D

 28 32  0  0  1  0  0  0  0  0999 V2000
  187.4950  177.1360  144.4870 C   0  0  0  0  0  0  0  0  0  0  0  0
  188.2160  173.9960  142.7260 O   0  0  0  0  0  0  0  0  0  0  0  0
  193.3020  176.3670  146.8880 O   0  0  0  0  0  0  0  0  0  0  0  0
  187.3800  178.6480  142.1280 C   0  0  0  0  0  3  0  0  0  0  0  0
  193.2570  176.6790  144.5540 N   0  0  0  0  0  0  0  0  0  0  0  0
  187.5410  176.4160  145.7950 C   0  0  0  0  0  2  0  0  0  0  0  0
  189.6150  173.9110  140.7050 O   0  0  0  0  0  0  0  0  0  0  0  0
  189.6210  174.0720  142.1980 S   0  0  0  0  0  0  0  0  0  0  0  0
  191.7340  173.1640  143.6820 C   0  0  0  0  0  0  0  0  0  0  0  0
  190.3670  175.6270  142.6200 C   0  0  2  0  0  3  0  0  0  0  0  0
  189.7670  178.2910  148.0130 O   0  0  0  0  0  0  0  0  0  0  0  0
  190.9230  177.1670  144.4020 C   0  0  2  0  0  3  0  0  0  0  0  0
  192.2440  174.3620  143.6840 N   0  0  0  0  0  0  0  0  0  0  0  0
  190.5830  172.8360  142.9080 N   0  0  0  0  0  2  0  0  0  0  0  0
  189.3850  177.3700  147.2440 C   0  0  0  0  0  0  0  0  0  0  0  0
  188.5730  177.0970  143.5790 C   0  0  0  0  0  0  0  0  0  0  0  0
  192.6660  176.6360  145.8340 C   0  0  0  0  0  0  0  0  0  0  0  0
  192.3090  172.1670  144.5160 N   0  0  0  0  0  1  0  0  0  0  0  0
  190.3640  176.3330  146.8020 C   0  0  0  0  0  2  0  0  0  0  0  0
  188.5060  177.8710  142.4070 C   0  0  0  0  0  3  0  0  0  0  0  0
  186.3710  177.9210  144.2020 C   0  0  0  0  0  3  0  0  0  0  0  0
  186.3100  178.6690  143.0250 C   0  0  0  0  0  3  0  0  0  0  0  0
  188.0190  177.3200  146.8300 N   0  0  0  0  0  2  0  0  0  0  0  0
  192.1890  176.8300  143.5730 C   0  0  2  0  0  3  0  0  0  0  0  0
  191.2730  176.8710  145.7970 N   0  0  0  0  0  0  0  0  0  0  0  0
  191.8660  175.5140  142.8460 C   0  0  2  0  0  3  0  0  0  0  0  0
  194.6500  176.3940  144.2520 C   0  0  0  0  0  1  0  0  0  0  0  0
  189.8010  176.2740  143.8740 C   0  0  1  0  0  3  0  0  0  0  0  0
  1  6  1  0  0  0  0
  4 20  2  0  0  0  0
  4 22  1  0  0  0  0
  5 17  1  0  0  0  0
  6 23  1  0  0  0  0
  7  8  2  0  0  0  0
  8  2  2  0  0  0  0
  8 14  1  0  0  0  0
  9 13  2  0  0  0  0
  9 18  1  0  0  0  0
 10  8  1  1  0  0  0
 10 26  1  0  0  0  0
 10 28  1  0  0  0  0
 12 25  1  1  0  0  0
 14  9  1  0  0  0  0
 15 11  2  0  0  0  0
 16  1  2  0  0  0  0
 17  3  2  0  0  0  0
 19 15  1  0  0  0  0
 20 16  1  0  0  0  0
 21  1  1  0  0  0  0
 22 21  2  0  0  0  0
 23 15  1  0  0  0  0
 24 12  1  0  0  0  0
 24  5  1  1  0  0  0
 25 17  1  0  0  0  0
 25 19  1  0  0  0  0
 26 24  1  0  0  0  0
 26 13  1  1  0  0  0
 27  5  1  0  0  0  0
 28 16  1  6  0  0  0
 28 12  1  0  0  0  0
M  END
>  <MODEL>
3

>  <REMARK>
 VINA RESULT:      -7.7      2.647      5.153
  Name = 
  0 active torsions:
  status: ('A' for Active; 'I' for Inactive)
                            x       y       z     vdW  Elec       q    Type
                         _______ _______ _______ _____ _____    ______ ____

>  <TORSDO>
F 0

$$$$
=
 OpenBabel11112417383D

 28 32  0  0  1  0  0  0  0  0999 V2000
  188.6720  176.1530  145.3430 C   0  0  0  0  0  0  0  0  0  0  0  0
  189.2120  173.3290  143.0600 O   0  0  0  0  0  0  0  0  0  0  0  0
  194.9000  175.6730  146.3720 O   0  0  0  0  0  0  0  0  0  0  0  0
  187.9440  177.9160  143.2870 C   0  0  0  0  0  3  0  0  0  0  0  0
  194.3300  176.2540  144.1620 N   0  0  0  0  0  0  0  0  0  0  0  0
  189.0500  175.2910  146.5030 C   0  0  0  0  0  2  0  0  0  0  0  0
  190.1440  173.6210  140.8020 O   0  0  0  0  0  0  0  0  0  0  0  0
  190.4610  173.6030  142.2700 S   0  0  0  0  0  0  0  0  0  0  0  0
  192.9030  172.7360  143.1500 C   0  0  0  0  0  0  0  0  0  0  0  0
  191.1710  175.1620  142.7380 C   0  0  2  0  0  3  0  0  0  0  0  0
  191.5660  177.0970  148.4510 O   0  0  0  0  0  0  0  0  0  0  0  0
  191.9900  176.5270  144.5600 C   0  0  2  0  0  3  0  0  0  0  0  0
  193.3170  173.9680  143.2110 N   0  0  0  0  0  0  0  0  0  0  0  0
  191.6380  172.3920  142.5920 N   0  0  0  0  0  2  0  0  0  0  0  0
  191.0930  176.2410  147.6580 C   0  0  0  0  0  0  0  0  0  0  0  0
  189.5280  176.3270  144.2360 C   0  0  0  0  0  0  0  0  0  0  0  0
  194.0340  176.0010  145.5180 C   0  0  0  0  0  0  0  0  0  0  0  0
  193.7140  171.7070  143.7040 N   0  0  0  0  0  1  0  0  0  0  0  0
  192.0230  175.3640  146.8880 C   0  0  0  0  0  2  0  0  0  0  0  0
  189.1560  177.2250  143.2200 C   0  0  0  0  0  3  0  0  0  0  0  0
  187.4610  176.8530  145.4050 C   0  0  0  0  0  3  0  0  0  0  0  0
  187.0950  177.7260  144.3790 C   0  0  0  0  0  3  0  0  0  0  0  0
  189.6770  176.1080  147.5310 N   0  0  0  0  0  2  0  0  0  0  0  0
  193.0670  176.4160  143.4510 C   0  0  2  0  0  3  0  0  0  0  0  0
  192.6530  176.1030  145.8000 N   0  0  0  0  0  0  0  0  0  0  0  0
  192.6870  175.1700  142.6330 C   0  0  2  0  0  3  0  0  0  0  0  0
  195.6410  176.1440  143.5440 C   0  0  0  0  0  1  0  0  0  0  0  0
  190.8460  175.5980  144.1580 C   0  0  1  0  0  3  0  0  0  0  0  0
  1 21  1  0  0  0  0
  1  6  1  0  0  0  0
  4 22  1  0  0  0  0
  5 17  1  0  0  0  0
  6 23  1  0  0  0  0
  7  8  2  0  0  0  0
  8 14  1  0  0  0  0
  8  2  2  0  0  0  0
  9 13  2  0  0  0  0
  9 18  1  0  0  0  0
 10  8  1  1  0  0  0
 10 28  1  0  0  0  0
 12 25  1  1  0  0  0
 14  9  1  0  0  0  0
 15 11  2  0  0  0  0
 16  1  2  0  0  0  0
 17 25  1  0  0  0  0
 17  3  2  0  0  0  0
 19 15  1  0  0  0  0
 20  4  2  0  0  0  0
 20 16  1  0  0  0  0
 22 21  2  0  0  0  0
 23 15  1  0  0  0  0
 24  5  1  1  0  0  0
 24 12  1  0  0  0  0
 25 19  1  0  0  0  0
 26 10  1  0  0  0  0
 26 13  1  1  0  0  0
 26 24  1  0  0  0  0
 27  5  1  0  0  0  0
 28 16  1  6  0  0  0
 28 12  1  0  0  0  0
M  END
>  <MODEL>
4

>  <REMARK>
 VINA RESULT:      -7.6      3.202      5.807
  Name = 
  0 active torsions:
  status: ('A' for Active; 'I' for Inactive)
                            x       y       z     vdW  Elec       q    Type
                         _______ _______ _______ _____ _____    ______ ____

>  <TORSDO>
F 0

$$$$
=
 OpenBabel11112417383D

 28 32  0  0  1  0  0  0  0  0999 V2000
  192.5360  174.3090  145.1890 C   0  0  0  0  0  0  0  0  0  0  0  0
  190.2320  175.7900  147.6340 O   0  0  0  0  0  0  0  0  0  0  0  0
  187.8660  175.4460  141.0690 O   0  0  0  0  0  0  0  0  0  0  0  0
  194.4210  176.3700  145.4400 C   0  0  0  0  0  3  0  0  0  0  0  0
  188.7920  177.3830  142.0350 N   0  0  0  0  0  0  0  0  0  0  0  0
  191.5910  173.1700  144.9840 C   0  0  0  0  0  2  0  0  0  0  0  0
  189.9220  178.2210  147.8460 O   0  0  0  0  0  0  0  0  0  0  0  0
  189.6160  177.0100  147.0110 S   0  0  0  0  0  0  0  0  0  0  0  0
  187.2670  176.8470  145.6160 C   0  0  0  0  0  0  0  0  0  0  0  0
  190.2380  177.2580  145.3660 C   0  0  2  0  0  3  0  0  0  0  0  0
  191.0780  172.7910  141.3810 O   0  0  0  0  0  0  0  0  0  0  0  0
  190.5740  176.2770  143.1800 C   0  0  2  0  0  3  0  0  0  0  0  0
  187.8750  177.2680  144.5450 N   0  0  0  0  0  0  0  0  0  0  0  0
  187.9130  176.8110  146.8860 N   0  0  0  0  0  2  0  0  0  0  0  0
  190.8220  173.1070  142.5730 C   0  0  0  0  0  0  0  0  0  0  0  0
  192.1330  175.6490  145.0190 C   0  0  0  0  0  0  0  0  0  0  0  0
  188.7420  175.9950  141.7890 C   0  0  0  0  0  0  0  0  0  0  0  0
  185.9360  176.3590  145.5070 N   0  0  0  0  0  1  0  0  0  0  0  0
  189.5870  173.8890  142.8740 C   0  0  0  0  0  2  0  0  0  0  0  0
  193.0920  176.6710  145.1340 C   0  0  0  0  0  3  0  0  0  0  0  0
  193.8720  174.0160  145.4910 C   0  0  0  0  0  3  0  0  0  0  0  0
  194.8090  175.0420  145.6220 C   0  0  0  0  0  3  0  0  0  0  0  0
  191.7020  172.6870  143.6160 N   0  0  0  0  0  2  0  0  0  0  0  0
  189.8120  177.6210  143.0510 C   0  0  2  0  0  3  0  0  0  0  0  0
  189.7480  175.2840  142.4810 N   0  0  0  0  0  0  0  0  0  0  0  0
  189.2100  177.8870  144.4400 C   0  0  2  0  0  3  0  0  0  0  0  0
  187.8450  178.3690  141.5400 C   0  0  0  0  0  1  0  0  0  0  0  0
  190.7040  175.9870  144.6740 C   0  0  1  0  0  3  0  0  0  0  0  0
  1 21  1  0  0  0  0
  3 17  2  0  0  0  0
  4 22  1  0  0  0  0
  6  1  1  0  0  0  0
  8  2  2  0  0  0  0
  8  7  2  0  0  0  0
  9 14  1  0  0  0  0
 10  8  1  1  0  0  0
 11 15  2  0  0  0  0
 12 25  1  6  0  0  0
 12 28  1  0  0  0  0
 13  9  2  0  0  0  0
 14  8  1  0  0  0  0
 15 19  1  0  0  0  0
 15 23  1  0  0  0  0
 16 20  1  0  0  0  0
 16  1  2  0  0  0  0
 17  5  1  0  0  0  0
 17 25  1  0  0  0  0
 18  9  1  0  0  0  0
 20  4  2  0  0  0  0
 21 22  2  0  0  0  0
 23  6  1  0  0  0  0
 24  5  1  6  0  0  0
 24 12  1  0  0  0  0
 24 26  1  0  0  0  0
 25 19  1  0  0  0  0
 26 13  1  6  0  0  0
 26 10  1  0  0  0  0
 27  5  1  0  0  0  0
 28 16  1  6  0  0  0
 28 10  1  0  0  0  0
M  END
>  <MODEL>
5

>  <REMARK>
 VINA RESULT:      -7.6      2.589      5.805
  Name = 
  0 active torsions:
  status: ('A' for Active; 'I' for Inactive)
                            x       y       z     vdW  Elec       q    Type
                         _______ _______ _______ _____ _____    ______ ____

>  <TORSDO>
F 0

$$$$
=
 OpenBabel11112417383D

 28 32  0  0  1  0  0  0  0  0999 V2000
  188.4560  176.1830  144.1010 C   0  0  0  0  0  0  0  0  0  0  0  0
  191.8780  177.5030  144.2640 O   0  0  0  0  0  0  0  0  0  0  0  0
  191.2170  171.1520  141.4280 O   0  0  0  0  0  0  0  0  0  0  0  0
  188.1810  176.0410  146.8880 C   0  0  0  0  0  3  0  0  0  0  0  0
  191.8670  171.5370  143.6580 N   0  0  0  0  0  0  0  0  0  0  0  0
  188.5110  176.2190  142.6080 C   0  0  0  0  0  2  0  0  0  0  0  0
  193.4800  176.7990  145.9940 O   0  0  0  0  0  0  0  0  0  0  0  0
  192.7820  176.3940  144.7260 S   0  0  0  0  0  0  0  0  0  0  0  0
  194.0190  174.7430  142.9290 C   0  0  0  0  0  0  0  0  0  0  0  0
  191.8550  174.9080  145.0150 C   0  0  2  0  0  3  0  0  0  0  0  0
  187.4400  172.9410  141.3830 O   0  0  0  0  0  0  0  0  0  0  0  0
  190.3080  173.2960  144.0840 C   0  0  2  0  0  3  0  0  0  0  0  0
  193.3960  173.7210  143.4420 N   0  0  0  0  0  0  0  0  0  0  0  0
  193.9470  176.0410  143.5130 N   0  0  0  0  0  2  0  0  0  0  0  0
  188.2240  173.8820  141.6760 C   0  0  0  0  0  0  0  0  0  0  0  0
  189.4180  175.4890  144.8640 C   0  0  0  0  0  0  0  0  0  0  0  0
  191.0840  171.7820  142.5110 C   0  0  0  0  0  0  0  0  0  0  0  0
  194.7500  174.5700  141.7210 N   0  0  0  0  0  1  0  0  0  0  0  0
  189.6980  173.6640  141.5810 C   0  0  0  0  0  2  0  0  0  0  0  0
  189.2590  175.4150  146.2590 C   0  0  0  0  0  3  0  0  0  0  0  0
  187.3770  176.8040  144.7400 C   0  0  0  0  0  3  0  0  0  0  0  0
  187.2420  176.7400  146.1280 C   0  0  0  0  0  3  0  0  0  0  0  0
  187.6890  175.1470  142.0670 N   0  0  0  0  0  2  0  0  0  0  0  0
  191.5620  172.5740  144.6380 C   0  0  2  0  0  3  0  0  0  0  0  0
  190.1750  172.8480  142.6920 N   0  0  0  0  0  0  0  0  0  0  0  0
  192.6570  173.6510  144.7160 C   0  0  2  0  0  3  0  0  0  0  0  0
  192.9460  170.5680  143.7590 C   0  0  0  0  0  1  0  0  0  0  0  0
  190.5780  174.7960  144.1960 C   0  0  1  0  0  3  0  0  0  0  0  0
  1 21  2  0  0  0  0
  1 16  1  0  0  0  0
  2  8  2  0  0  0  0
  3 17  2  0  0  0  0
  5 27  1  0  0  0  0
  6  1  1  0  0  0  0
  8  7  2  0  0  0  0
  9 13  2  0  0  0  0
  9 14  1  0  0  0  0
 10  8  1  6  0  0  0
 11 15  2  0  0  0  0
 12 25  1  6  0  0  0
 12 28  1  0  0  0  0
 12 24  1  0  0  0  0
 14  8  1  0  0  0  0
 15 23  1  0  0  0  0
 16 20  2  0  0  0  0
 17 25  1  0  0  0  0
 17  5  1  0  0  0  0
 18  9  1  0  0  0  0
 19 15  1  0  0  0  0
 19 25  1  0  0  0  0
 20  4  1  0  0  0  0
 21 22  1  0  0  0  0
 22  4  2  0  0  0  0
 23  6  1  0  0  0  0
 24  5  1  6  0  0  0
 24 26  1  0  0  0  0
 26 13  1  6  0  0  0
 26 10  1  0  0  0  0
 28 16  1  1  0  0  0
 28 10  1  0  0  0  0
M  END
>  <MODEL>
6

>  <REMARK>
 VINA RESULT:      -7.2      2.533      3.739
  Name = 
  0 active torsions:
  status: ('A' for Active; 'I' for Inactive)
                            x       y       z     vdW  Elec       q    Type
                         _______ _______ _______ _____ _____    ______ ____

>  <TORSDO>
F 0

$$$$
=
 OpenBabel11112417383D

 28 32  0  0  1  0  0  0  0  0999 V2000
  188.9860  175.5150  146.2500 C   0  0  0  0  0  0  0  0  0  0  0  0
  188.9420  172.4970  144.1600 O   0  0  0  0  0  0  0  0  0  0  0  0
  195.0560  175.8620  144.4840 O   0  0  0  0  0  0  0  0  0  0  0  0
  187.1930  176.9070  144.6040 C   0  0  0  0  0  3  0  0  0  0  0  0
  193.5220  176.0860  142.7120 N   0  0  0  0  0  0  0  0  0  0  0  0
  189.9480  174.8570  147.1850 C   0  0  0  0  0  2  0  0  0  0  0  0
  188.7730  172.5970  141.7080 O   0  0  0  0  0  0  0  0  0  0  0  0
  189.6800  172.8030  142.8870 S   0  0  0  0  0  0  0  0  0  0  0  0
  192.3670  172.3310  142.6680 C   0  0  0  0  0  0  0  0  0  0  0  0
  190.2690  174.4780  142.8900 C   0  0  2  0  0  3  0  0  0  0  0  0
  192.7380  177.1660  147.7090 O   0  0  0  0  0  0  0  0  0  0  0  0
  191.5590  176.1490  144.0730 C   0  0  2  0  0  3  0  0  0  0  0  0
  192.5710  173.5990  142.4580 N   0  0  0  0  0  0  0  0  0  0  0  0
  191.0540  171.7800  142.7440 N   0  0  0  0  0  2  0  0  0  0  0  0
  192.1130  176.1680  147.2630 C   0  0  0  0  0  0  0  0  0  0  0  0
  189.2550  175.6380  144.8710 C   0  0  0  0  0  0  0  0  0  0  0  0
  193.8710  175.9800  144.0750 C   0  0  0  0  0  0  0  0  0  0  0  0
  193.4840  171.4780  142.8820 N   0  0  0  0  0  1  0  0  0  0  0  0
  192.7540  175.3060  146.2260 C   0  0  0  0  0  2  0  0  0  0  0  0
  188.3530  176.3510  144.0610 C   0  0  0  0  0  3  0  0  0  0  0  0
  187.8230  176.0800  146.7860 C   0  0  0  0  0  3  0  0  0  0  0  0
  186.9260  176.7670  145.9660 C   0  0  0  0  0  3  0  0  0  0  0  0
  190.8160  175.8640  147.7760 N   0  0  0  0  0  2  0  0  0  0  0  0
  192.0680  176.0150  142.6150 C   0  0  2  0  0  3  0  0  0  0  0  0
  192.7410  175.9640  144.9240 N   0  0  0  0  0  0  0  0  0  0  0  0
  191.5770  174.6400  142.1330 C   0  0  2  0  0  3  0  0  0  0  0  0
  194.4480  176.0420  141.5930 C   0  0  0  0  0  1  0  0  0  0  0  0
  190.5120  175.0550  144.2760 C   0  0  1  0  0  3  0  0  0  0  0  0
  1 21  1  0  0  0  0
  1  6  1  0  0  0  0
  4 22  1  0  0  0  0
  5 17  1  0  0  0  0
  6 23  1  0  0  0  0
  7  8  2  0  0  0  0
  8  2  2  0  0  0  0
  9 14  1  0  0  0  0
  9 18  1  0  0  0  0
 10  8  1  1  0  0  0
 10 28  1  0  0  0  0
 12 28  1  0  0  0  0
 12 25  1  1  0  0  0
 13  9  2  0  0  0  0
 14  8  1  0  0  0  0
 15 11  2  0  0  0  0
 15 23  1  0  0  0  0
 16  1  2  0  0  0  0
 17  3  2  0  0  0  0
 17 25  1  0  0  0  0
 19 15  1  0  0  0  0
 20  4  2  0  0  0  0
 20 16  1  0  0  0  0
 22 21  2  0  0  0  0
 24  5  1  1  0  0  0
 24 12  1  0  0  0  0
 25 19  1  0  0  0  0
 26 13  1  1  0  0  0
 26 24  1  0  0  0  0
 26 10  1  0  0  0  0
 27  5  1  0  0  0  0
 28 16  1  6  0  0  0
M  END
>  <MODEL>
7

>  <REMARK>
 VINA RESULT:      -7.2      3.254      5.637
  Name = 
  0 active torsions:
  status: ('A' for Active; 'I' for Inactive)
                            x       y       z     vdW  Elec       q    Type
                         _______ _______ _______ _____ _____    ______ ____

>  <TORSDO>
F 0

$$$$
=
 OpenBabel11112417383D

 28 32  0  0  1  0  0  0  0  0999 V2000
  189.0900  176.4730  145.2360 C   0  0  0  0  0  0  0  0  0  0  0  0
  192.6970  176.0090  144.7290 O   0  0  0  0  0  0  0  0  0  0  0  0
  188.6260  174.1800  139.3540 O   0  0  0  0  0  0  0  0  0  0  0  0
  188.9410  174.5500  147.2720 C   0  0  0  0  0  3  0  0  0  0  0  0
  189.5070  172.6550  140.9160 N   0  0  0  0  0  0  0  0  0  0  0  0
  189.0700  177.5090  144.1600 C   0  0  0  0  0  2  0  0  0  0  0  0
  193.7830  173.8100  144.9330 O   0  0  0  0  0  0  0  0  0  0  0  0
  192.9050  174.6740  144.0710 S   0  0  0  0  0  0  0  0  0  0  0  0
  192.9800  174.4420  141.3460 C   0  0  0  0  0  0  0  0  0  0  0  0
  191.3520  173.8540  143.8080 C   0  0  2  0  0  3  0  0  0  0  0  0
  186.3650  176.6530  141.8500 O   0  0  0  0  0  0  0  0  0  0  0  0
  189.1380  174.0150  142.8450 C   0  0  2  0  0  3  0  0  0  0  0  0
  191.9430  173.6570  141.3850 N   0  0  0  0  0  0  0  0  0  0  0  0
  193.6370  174.8850  142.5300 N   0  0  0  0  0  2  0  0  0  0  0  0
  187.5420  176.7750  142.2800 C   0  0  0  0  0  0  0  0  0  0  0  0
  189.5830  175.1720  145.0060 C   0  0  0  0  0  0  0  0  0  0  0  0
  188.9070  173.8750  140.5430 C   0  0  0  0  0  0  0  0  0  0  0  0
  193.4400  174.9160  140.0860 N   0  0  0  0  0  1  0  0  0  0  0  0
  188.6710  176.1910  141.4970 C   0  0  0  0  0  2  0  0  0  0  0  0
  189.4890  174.2150  146.0320 C   0  0  0  0  0  3  0  0  0  0  0  0
  188.5390  176.7990  146.4810 C   0  0  0  0  0  3  0  0  0  0  0  0
  188.4700  175.8440  147.4970 C   0  0  0  0  0  3  0  0  0  0  0  0
  187.7770  177.4900  143.4930 N   0  0  0  0  0  2  0  0  0  0  0  0
  189.8520  172.7390  142.3310 C   0  0  2  0  0  3  0  0  0  0  0  0
  188.7090  174.7410  141.6430 N   0  0  0  0  0  0  0  0  0  0  0  0
  191.3520  172.9870  142.5590 C   0  0  2  0  0  3  0  0  0  0  0  0
  189.9180  171.5970  140.0070 C   0  0  0  0  0  1  0  0  0  0  0  0
  190.1640  174.7930  143.6670 C   0  0  1  0  0  3  0  0  0  0  0  0
  1 21  1  0  0  0  0
  3 17  2  0  0  0  0
  4 22  1  0  0  0  0
  6  1  1  0  0  0  0
  8  2  2  0  0  0  0
  8  7  2  0  0  0  0
  9 13  2  0  0  0  0
  9 14  1  0  0  0  0
 10  8  1  6  0  0  0
 11 15  2  0  0  0  0
 12 25  1  6  0  0  0
 12 28  1  0  0  0  0
 14  8  1  0  0  0  0
 15 23  1  0  0  0  0
 16  1  2  0  0  0  0
 16 20  1  0  0  0  0
 17  5  1  0  0  0  0
 17 25  1  0  0  0  0
 18  9  1  0  0  0  0
 19 25  1  0  0  0  0
 19 15  1  0  0  0  0
 20  4  2  0  0  0  0
 21 22  2  0  0  0  0
 23  6  1  0  0  0  0
 24  5  1  6  0  0  0
 24 26  1  0  0  0  0
 24 12  1  0  0  0  0
 26 13  1  6  0  0  0
 26 10  1  0  0  0  0
 27  5  1  0  0  0  0
 28 10  1  0  0  0  0
 28 16  1  1  0  0  0
M  END
>  <MODEL>
8

>  <REMARK>
 VINA RESULT:      -7.0      2.495      3.118
  Name = 
  0 active torsions:
  status: ('A' for Active; 'I' for Inactive)
                            x       y       z     vdW  Elec       q    Type
                         _______ _______ _______ _____ _____    ______ ____

>  <TORSDO>
F 0

$$$$
=
 OpenBabel11112417383D

 28 32  0  0  1  0  0  0  0  0999 V2000
  189.5130  175.6210  144.4880 C   0  0  0  0  0  0  0  0  0  0  0  0
  192.7100  177.4040  144.7620 O   0  0  0  0  0  0  0  0  0  0  0  0
  193.0090  171.1010  141.7630 O   0  0  0  0  0  0  0  0  0  0  0  0
  189.2040  175.3670  147.2630 C   0  0  0  0  0  3  0  0  0  0  0  0
  193.5530  171.5140  144.0160 N   0  0  0  0  0  0  0  0  0  0  0  0
  189.5920  175.7040  142.9980 C   0  0  0  0  0  2  0  0  0  0  0  0
  194.3600  176.8860  146.5130 O   0  0  0  0  0  0  0  0  0  0  0  0
  193.7520  176.4220  145.2200 S   0  0  0  0  0  0  0  0  0  0  0  0
  195.2460  175.0090  143.4150 C   0  0  0  0  0  0  0  0  0  0  0  0
  193.0380  174.8120  145.4520 C   0  0  2  0  0  3  0  0  0  0  0  0
  189.0200  172.3420  141.6710 O   0  0  0  0  0  0  0  0  0  0  0  0
  191.7530  173.0250  144.4460 C   0  0  2  0  0  3  0  0  0  0  0  0
  194.7630  173.8960  143.8880 N   0  0  0  0  0  0  0  0  0  0  0  0
  194.9800  176.2680  144.0270 N   0  0  0  0  0  2  0  0  0  0  0  0
  189.6570  173.3750  142.0040 C   0  0  0  0  0  0  0  0  0  0  0  0
  190.5470  175.0490  145.2560 C   0  0  0  0  0  0  0  0  0  0  0  0
  192.7670  171.6770  142.8570 C   0  0  0  0  0  0  0  0  0  0  0  0
  196.0180  174.9730  142.2210 N   0  0  0  0  0  1  0  0  0  0  0  0
  191.1480  173.3690  141.9390 C   0  0  0  0  0  2  0  0  0  0  0  0
  190.3720  174.9160  146.6450 C   0  0  0  0  0  3  0  0  0  0  0  0
  188.3430  176.0670  145.1150 C   0  0  0  0  0  3  0  0  0  0  0  0
  188.1910  175.9470  146.4970 C   0  0  0  0  0  3  0  0  0  0  0  0
  188.9410  174.5420  142.4120 N   0  0  0  0  0  2  0  0  0  0  0  0
  193.0860  172.4710  145.0130 C   0  0  2  0  0  3  0  0  0  0  0  0
  191.7130  172.5990  143.0420 N   0  0  0  0  0  0  0  0  0  0  0  0
  194.0150  173.6890  145.1420 C   0  0  2  0  0  3  0  0  0  0  0  0
  194.7560  170.7040  144.1200 C   0  0  0  0  0  1  0  0  0  0  0  0
  191.8070  174.5440  144.6000 C   0  0  1  0  0  3  0  0  0  0  0  0
  1 21  2  0  0  0  0
  1 16  1  0  0  0  0
  2  8  2  0  0  0  0
  3 17  2  0  0  0  0
  5 27  1  0  0  0  0
  6  1  1  0  0  0  0
  8  7  2  0  0  0  0
  9 13  2  0  0  0  0
  9 14  1  0  0  0  0
 10  8  1  6  0  0  0
 11 15  2  0  0  0  0
 12 25  1  6  0  0  0
 12 28  1  0  0  0  0
 12 24  1  0  0  0  0
 14  8  1  0  0  0  0
 15 23  1  0  0  0  0
 16 20  2  0  0  0  0
 17 25  1  0  0  0  0
 17  5  1  0  0  0  0
 18  9  1  0  0  0  0
 19 15  1  0  0  0  0
 19 25  1  0  0  0  0
 20  4  1  0  0  0  0
 21 22  1  0  0  0  0
 22  4  2  0  0  0  0
 23  6  1  0  0  0  0
 24  5  1  6  0  0  0
 24 26  1  0  0  0  0
 26 13  1  6  0  0  0
 26 10  1  0  0  0  0
 28 16  1  1  0  0  0
 28 10  1  0  0  0  0
M  END
>  <MODEL>
9

>  <REMARK>
 VINA RESULT:      -6.9      3.351      4.943
  Name = 
  0 active torsions:
  status: ('A' for Active; 'I' for Inactive)
                            x       y       z     vdW  Elec       q    Type
                         _______ _______ _______ _____ _____    ______ ____

>  <TORSDO>
F 0

$$$$
