=
 OpenBabel11112416393D

 32 37  0  0  1  0  0  0  0  0999 V2000
  190.5290  175.1970  144.9050 C   0  0  1  0  0  3  0  0  0  0  0  0
  189.0180  174.0320  140.9550 C   0  0  0  0  0  2  0  0  0  0  0  0
  188.1120  175.1580  140.8030 N   0  0  0  0  0  0  0  0  0  0  0  0
  188.4820  175.8620  146.2740 C   0  0  0  0  0  0  0  0  0  0  0  0
  187.2730  176.5450  146.3640 C   0  0  0  0  0  0  0  0  0  0  0  0
  192.8830  175.4700  145.8020 N   0  0  0  0  0  0  0  0  0  0  0  0
  192.3650  174.6560  143.4680 C   0  0  0  0  0  2  0  0  0  0  0  0
  185.4490  177.8060  145.7510 C   0  0  1  0  0  3  0  0  0  0  0  0
  189.7400  174.0500  142.2970 C   0  0  0  0  0  2  0  0  0  0  0  0
  191.2230  175.5530  143.6590 N   0  0  1  0  0  0  0  0  0  0  0  0
  190.3480  175.4450  142.4860 C   0  0  2  0  0  3  0  0  0  0  0  0
  188.5770  176.5270  143.9140 C   0  0  0  0  0  0  0  0  0  0  0  0
  185.2850  177.4100  147.1680 N   0  0  0  0  0  0  0  0  0  0  0  0
  193.2280  174.5130  144.7350 C   0  0  2  0  0  3  0  0  0  0  0  0
  186.4250  176.6410  147.4820 N   0  0  0  0  0  0  0  0  0  0  0  0
  188.2160  176.2690  141.4540 C   0  0  0  0  0  3  0  0  0  0  0  0
  189.2370  176.4980  142.5520 C   0  0  2  0  0  3  0  0  0  0  0  0
  187.3570  177.2180  144.0720 C   0  0  0  0  0  3  0  0  0  0  0  0
  191.4420  175.5420  146.0970 C   0  0  0  0  0  2  0  0  0  0  0  0
  188.9540  175.1800  147.3480 F   0  0  0  0  0  0  0  0  0  0  0  0
  185.5010  179.3190  145.6520 C   0  0  0  0  0  1  0  0  0  0  0  0
  189.1860  175.8970  145.0430 C   0  0  0  0  0  0  0  0  0  0  0  0
  186.7450  177.2170  145.3210 C   0  0  0  0  0  0  0  0  0  0  0  0
  193.0670  172.1160  144.0950 C   0  0  0  0  0  2  0  0  0  0  0  0
  193.1610  173.0860  145.2570 C   0  0  1  0  0  3  0  0  0  0  0  0
  194.3910  172.3260  144.7970 C   0  0  1  0  0  3  0  0  0  0  0  0
  194.6470  171.1810  145.7570 C   0  0  0  0  0  2  0  0  0  0  0  0
  196.1090  171.0360  145.9970 C   0  0  0  0  0  0  0  0  0  0  0  0
  196.6760  169.7440  146.1810 N   0  0  0  0  0  1  0  0  0  0  0  0
  196.8390  172.0570  146.0690 O   0  0  0  0  0  0  0  0  0  0  0  0
  194.5360  177.1890  146.2880 C   0  0  0  0  0  1  0  0  0  0  0  0
  193.3460  176.8010  145.4310 C   0  0  0  0  0  2  0  0  0  0  0  0
  1 22  1  0  0  0  0
  1 19  1  1  0  0  0
  2  9  1  0  0  0  0
  3  2  1  0  0  0  0
  3 16  2  0  0  0  0
  4  5  1  0  0  0  0
  4 20  1  0  0  0  0
  5 15  1  0  0  0  0
  6 19  1  0  0  0  0
  8 21  1  1  0  0  0
  8 13  1  0  0  0  0
 10  7  1  6  0  0  0
 10  1  1  0  0  0  0
 11  9  1  1  0  0  0
 11 17  1  0  0  0  0
 11 10  1  0  0  0  0
 12 18  2  0  0  0  0
 12 22  1  0  0  0  0
 13 15  2  0  0  0  0
 14  7  1  6  0  0  0
 14 25  1  0  0  0  0
 14  6  1  0  0  0  0
 17 16  1  6  0  0  0
 17 12  1  0  0  0  0
 18 23  1  0  0  0  0
 22  4  2  0  0  0  0
 23  8  1  0  0  0  0
 23  5  2  0  0  0  0
 24 26  1  0  0  0  0
 25 24  1  6  0  0  0
 26 25  1  0  0  0  0
 26 27  1  1  0  0  0
 27 28  1  0  0  0  0
 28 30  2  0  0  0  0
 28 29  1  0  0  0  0
 32  6  1  0  0  0  0
 32 31  1  0  0  0  0
M  END
>  <MODEL>
1

>  <REMARK>
 VINA RESULT:      -8.0      0.000      0.000
  Name = 
  4 active torsions:
  status: ('A' for Active; 'I' for Inactive)
    1  A    between atoms: N_7  and  C_19
    2  A    between atoms: C_10  and  C_17
    3  A    between atoms: C_20  and  C_29
    4  A    between atoms: C_29  and  C_30
                            x       y       z     vdW  Elec       q    Type
                         _______ _______ _______ _____ _____    ______ ____

>  <TORSDO>
F 4

$$$$
=
 OpenBabel11112416393D

 32 37  0  0  1  0  0  0  0  0999 V2000
  190.0360  175.3820  143.3370 C   0  0  1  0  0  3  0  0  0  0  0  0
  192.3180  175.4020  147.0840 C   0  0  0  0  0  2  0  0  0  0  0  0
  191.1620  175.4610  147.9620 N   0  0  0  0  0  0  0  0  0  0  0  0
  188.2490  177.1840  143.5910 C   0  0  0  0  0  0  0  0  0  0  0  0
  187.2670  177.7940  144.3650 C   0  0  0  0  0  0  0  0  0  0  0  0
  190.1200  173.8580  141.3150 N   0  0  0  0  0  0  0  0  0  0  0  0
  191.6870  173.6500  143.2840 C   0  0  0  0  0  2  0  0  0  0  0  0
  185.9240  178.2800  146.1700 C   0  0  1  0  0  3  0  0  0  0  0  0
  191.9240  175.4260  145.6120 C   0  0  0  0  0  2  0  0  0  0  0  0
  190.5010  174.1460  143.9840 N   0  0  1  0  0  0  0  0  0  0  0  0
  190.8480  174.3560  145.3940 C   0  0  2  0  0  3  0  0  0  0  0  0
  188.7660  175.7670  145.5270 C   0  0  0  0  0  0  0  0  0  0  0  0
  185.5790  179.2090  145.0710 N   0  0  0  0  0  0  0  0  0  0  0  0
  191.5060  173.6140  141.7560 C   0  0  2  0  0  3  0  0  0  0  0  0
  186.4330  178.8660  144.0010 N   0  0  0  0  0  0  0  0  0  0  0  0
  189.9670  175.1100  147.6180 C   0  0  0  0  0  3  0  0  0  0  0  0
  189.5950  174.6980  146.2060 C   0  0  2  0  0  3  0  0  0  0  0  0
  187.7430  176.4120  146.2560 C   0  0  0  0  0  3  0  0  0  0  0  0
  189.4920  175.0350  141.9380 C   0  0  0  0  0  2  0  0  0  0  0  0
  188.4890  177.6280  142.3320 F   0  0  0  0  0  0  0  0  0  0  0  0
  184.7090  177.4460  146.5280 C   0  0  0  0  0  1  0  0  0  0  0  0
  188.9790  176.1060  144.1560 C   0  0  0  0  0  0  0  0  0  0  0  0
  187.0040  177.4100  145.6310 C   0  0  0  0  0  0  0  0  0  0  0  0
  193.7570  174.6630  141.8690 C   0  0  0  0  0  2  0  0  0  0  0  0
  192.4570  174.5980  141.0920 C   0  0  1  0  0  3  0  0  0  0  0  0
  193.6800  173.8530  140.5930 C   0  0  1  0  0  3  0  0  0  0  0  0
  194.3000  174.6380  139.4540 C   0  0  0  0  0  2  0  0  0  0  0  0
  195.7850  174.5980  139.5580 C   0  0  0  0  0  0  0  0  0  0  0  0
  196.4720  173.3550  139.4670 N   0  0  0  0  0  1  0  0  0  0  0  0
  196.4300  175.6590  139.7600 O   0  0  0  0  0  0  0  0  0  0  0  0
  187.8380  173.0770  141.6370 C   0  0  0  0  0  1  0  0  0  0  0  0
  189.3030  172.6870  141.6090 C   0  0  0  0  0  2  0  0  0  0  0  0
  1 19  1  6  0  0  0
  1 10  1  0  0  0  0
  1 22  1  0  0  0  0
  2  3  1  0  0  0  0
  4 22  2  0  0  0  0
  4  5  1  0  0  0  0
  5 23  2  0  0  0  0
  6 32  1  0  0  0  0
  6 14  1  0  0  0  0
  6 19  1  0  0  0  0
  8 21  1  6  0  0  0
  9  2  1  0  0  0  0
 10  7  1  6  0  0  0
 10 11  1  0  0  0  0
 11  9  1  6  0  0  0
 11 17  1  0  0  0  0
 12 17  1  0  0  0  0
 12 18  2  0  0  0  0
 13  8  1  0  0  0  0
 14  7  1  1  0  0  0
 15  5  1  0  0  0  0
 15 13  2  0  0  0  0
 16  3  2  0  0  0  0
 17 16  1  1  0  0  0
 20  4  1  0  0  0  0
 22 12  1  0  0  0  0
 23  8  1  0  0  0  0
 23 18  1  0  0  0  0
 25 14  1  0  0  0  0
 25 24  1  1  0  0  0
 26 27  1  6  0  0  0
 26 25  1  0  0  0  0
 26 24  1  0  0  0  0
 27 28  1  0  0  0  0
 28 30  2  0  0  0  0
 29 28  1  0  0  0  0
 32 31  1  0  0  0  0
M  END
>  <MODEL>
2

>  <REMARK>
 VINA RESULT:      -7.5      3.013      4.860
  Name = 
  4 active torsions:
  status: ('A' for Active; 'I' for Inactive)
    1  A    between atoms: N_7  and  C_19
    2  A    between atoms: C_10  and  C_17
    3  A    between atoms: C_20  and  C_29
    4  A    between atoms: C_29  and  C_30
                            x       y       z     vdW  Elec       q    Type
                         _______ _______ _______ _____ _____    ______ ____

>  <TORSDO>
F 4

$$$$
=
 OpenBabel11112416393D

 32 37  0  0  1  0  0  0  0  0999 V2000
  191.0500  175.8280  144.3700 C   0  0  1  0  0  3  0  0  0  0  0  0
  190.0000  173.5790  140.7530 C   0  0  0  0  0  2  0  0  0  0  0  0
  191.1750  172.7250  140.7610 N   0  0  0  0  0  0  0  0  0  0  0  0
  193.5200  176.4210  144.1380 C   0  0  0  0  0  0  0  0  0  0  0  0
  194.8170  176.0370  143.8140 C   0  0  0  0  0  0  0  0  0  0  0  0
  189.7420  176.3460  146.4770 N   0  0  0  0  0  0  0  0  0  0  0  0
  188.7730  175.1020  144.5050 C   0  0  0  0  0  2  0  0  0  0  0  0
  196.5730  174.7380  143.0870 C   0  0  1  0  0  3  0  0  0  0  0  0
  190.0150  174.5900  141.8920 C   0  0  0  0  0  2  0  0  0  0  0  0
  190.1640  174.6550  144.4000 N   0  0  1  0  0  0  0  0  0  0  0  0
  190.2950  173.8300  143.1940 C   0  0  2  0  0  3  0  0  0  0  0  0
  192.7770  174.1970  143.4130 C   0  0  0  0  0  0  0  0  0  0  0  0
  197.1020  176.0700  143.4560 N   0  0  0  0  0  0  0  0  0  0  0  0
  188.5690  176.1620  145.6030 C   0  0  2  0  0  3  0  0  0  0  0  0
  195.9850  176.8170  143.8880 N   0  0  0  0  0  0  0  0  0  0  0  0
  191.9020  172.4960  141.8050 C   0  0  0  0  0  3  0  0  0  0  0  0
  191.6840  173.1870  143.1380 C   0  0  2  0  0  3  0  0  0  0  0  0
  194.1160  173.8590  143.1200 C   0  0  0  0  0  3  0  0  0  0  0  0
  191.0110  176.5140  145.7490 C   0  0  0  0  0  2  0  0  0  0  0  0
  193.2780  177.6830  144.5740 F   0  0  0  0  0  0  0  0  0  0  0  0
  197.2170  173.6780  143.9590 C   0  0  0  0  0  1  0  0  0  0  0  0
  192.4790  175.4680  143.9930 C   0  0  0  0  0  0  0  0  0  0  0  0
  195.1100  174.8040  143.3520 C   0  0  0  0  0  0  0  0  0  0  0  0
  187.6170  177.2550  143.5830 C   0  0  0  0  0  2  0  0  0  0  0  0
  188.1540  177.4870  144.9820 C   0  0  1  0  0  3  0  0  0  0  0  0
  186.6580  177.4760  144.7330 C   0  0  1  0  0  3  0  0  0  0  0  0
  186.1550  178.9060  144.7090 C   0  0  0  0  0  2  0  0  0  0  0  0
  184.6810  178.9300  144.9170 C   0  0  0  0  0  0  0  0  0  0  0  0
  184.1390  178.6630  146.2060 N   0  0  0  0  0  1  0  0  0  0  0  0
  183.9120  179.1530  143.9470 O   0  0  0  0  0  0  0  0  0  0  0  0
  191.2220  175.2310  148.0550 C   0  0  0  0  0  1  0  0  0  0  0  0
  189.8690  175.2010  147.3690 C   0  0  0  0  0  2  0  0  0  0  0  0
  1 10  1  0  0  0  0
  1 19  1  1  0  0  0
  2  3  1  0  0  0  0
  2  9  1  0  0  0  0
  3 16  2  0  0  0  0
  4 20  1  0  0  0  0
  5 15  1  0  0  0  0
  5  4  2  0  0  0  0
  6 32  1  0  0  0  0
  8 23  1  0  0  0  0
  8 13  1  0  0  0  0
  8 21  1  1  0  0  0
 10  7  1  6  0  0  0
 11  9  1  6  0  0  0
 11 10  1  0  0  0  0
 12 22  2  0  0  0  0
 13 15  2  0  0  0  0
 14  7  1  6  0  0  0
 14  6  1  0  0  0  0
 17 16  1  6  0  0  0
 17 11  1  0  0  0  0
 17 12  1  0  0  0  0
 18 23  2  0  0  0  0
 18 12  1  0  0  0  0
 19  6  1  0  0  0  0
 22  4  1  0  0  0  0
 22  1  1  0  0  0  0
 23  5  1  0  0  0  0
 24 26  1  0  0  0  0
 25 24  1  6  0  0  0
 25 14  1  0  0  0  0
 26 27  1  6  0  0  0
 26 25  1  0  0  0  0
 27 28  1  0  0  0  0
 28 29  1  0  0  0  0
 30 28  2  0  0  0  0
 32 31  1  0  0  0  0
M  END
>  <MODEL>
3

>  <REMARK>
 VINA RESULT:      -7.4      3.628      7.908
  Name = 
  4 active torsions:
  status: ('A' for Active; 'I' for Inactive)
    1  A    between atoms: N_7  and  C_19
    2  A    between atoms: C_10  and  C_17
    3  A    between atoms: C_20  and  C_29
    4  A    between atoms: C_29  and  C_30
                            x       y       z     vdW  Elec       q    Type
                         _______ _______ _______ _____ _____    ______ ____

>  <TORSDO>
F 4

$$$$
=
 OpenBabel11112416393D

 32 37  0  0  1  0  0  0  0  0999 V2000
  188.4680  176.6800  144.5310 C   0  0  1  0  0  3  0  0  0  0  0  0
  186.6910  178.6660  148.0160 C   0  0  0  0  0  2  0  0  0  0  0  0
  185.3150  178.5670  147.5600 N   0  0  0  0  0  0  0  0  0  0  0  0
  187.3320  177.6970  142.4860 C   0  0  0  0  0  0  0  0  0  0  0  0
  186.1680  178.1150  141.8480 C   0  0  0  0  0  0  0  0  0  0  0  0
  190.0990  174.7520  144.3330 N   0  0  0  0  0  0  0  0  0  0  0  0
  189.3630  175.7360  146.5390 C   0  0  0  0  0  2  0  0  0  0  0  0
  183.9470  178.6060  141.5000 C   0  0  1  0  0  3  0  0  0  0  0  0
  187.6770  178.0960  147.0030 C   0  0  0  0  0  2  0  0  0  0  0  0
  188.1380  175.9570  145.7680 N   0  0  1  0  0  0  0  0  0  0  0  0
  187.1890  176.6970  146.6070 C   0  0  2  0  0  3  0  0  0  0  0  0
  185.9660  177.2260  144.4700 C   0  0  0  0  0  0  0  0  0  0  0  0
  184.7000  178.9650  140.2760 N   0  0  0  0  0  0  0  0  0  0  0  0
  190.5130  175.1740  145.6840 C   0  0  2  0  0  3  0  0  0  0  0  0
  186.0470  178.6460  140.5510 N   0  0  0  0  0  0  0  0  0  0  0  0
  184.9010  177.7200  146.6760 C   0  0  0  0  0  3  0  0  0  0  0  0
  185.8270  176.7920  145.9130 C   0  0  2  0  0  3  0  0  0  0  0  0
  184.8180  177.6460  143.7640 C   0  0  0  0  0  3  0  0  0  0  0  0
  189.2890  175.7510  143.6160 C   0  0  0  0  0  2  0  0  0  0  0  0
  188.5240  177.7920  141.8460 F   0  0  0  0  0  0  0  0  0  0  0  0
  182.9200  177.5410  141.1680 C   0  0  0  0  0  1  0  0  0  0  0  0
  187.2300  177.1850  143.8050 C   0  0  0  0  0  0  0  0  0  0  0  0
  184.9610  178.0680  142.4460 C   0  0  0  0  0  0  0  0  0  0  0  0
  192.2370  176.4090  146.9810 C   0  0  0  0  0  2  0  0  0  0  0  0
  191.6480  176.1830  145.6020 C   0  0  1  0  0  3  0  0  0  0  0  0
  192.9480  175.5070  145.9960 C   0  0  1  0  0  3  0  0  0  0  0  0
  194.1020  176.2560  145.3590 C   0  0  0  0  0  2  0  0  0  0  0  0
  195.2660  175.3440  145.1860 C   0  0  0  0  0  0  0  0  0  0  0  0
  195.9400  175.2790  143.9340 N   0  0  0  0  0  1  0  0  0  0  0  0
  195.6340  174.6070  146.1360 O   0  0  0  0  0  0  0  0  0  0  0  0
  190.2730  172.3440  144.6380 C   0  0  0  0  0  1  0  0  0  0  0  0
  189.3340  173.5150  144.4230 C   0  0  0  0  0  2  0  0  0  0  0  0
  1 19  1  6  0  0  0
  1 10  1  0  0  0  0
  3  2  1  0  0  0  0
  4 22  1  0  0  0  0
  5 23  1  0  0  0  0
  5  4  2  0  0  0  0
  6 32  1  0  0  0  0
  6 14  1  0  0  0  0
  8 21  1  6  0  0  0
  8 23  1  0  0  0  0
  9  2  1  0  0  0  0
 10  7  1  1  0  0  0
 10 11  1  0  0  0  0
 11  9  1  6  0  0  0
 12 17  1  0  0  0  0
 13 15  2  0  0  0  0
 13  8  1  0  0  0  0
 14  7  1  6  0  0  0
 15  5  1  0  0  0  0
 16  3  2  0  0  0  0
 17 11  1  0  0  0  0
 17 16  1  1  0  0  0
 18 12  1  0  0  0  0
 19  6  1  0  0  0  0
 20  4  1  0  0  0  0
 22 12  2  0  0  0  0
 22  1  1  0  0  0  0
 23 18  2  0  0  0  0
 25 14  1  0  0  0  0
 25 26  1  0  0  0  0
 25 24  1  1  0  0  0
 26 27  1  6  0  0  0
 26 24  1  0  0  0  0
 28 27  1  0  0  0  0
 28 30  2  0  0  0  0
 29 28  1  0  0  0  0
 32 31  1  0  0  0  0
M  END
>  <MODEL>
4

>  <REMARK>
 VINA RESULT:      -7.3      2.659      5.092
  Name = 
  4 active torsions:
  status: ('A' for Active; 'I' for Inactive)
    1  A    between atoms: N_7  and  C_19
    2  A    between atoms: C_10  and  C_17
    3  A    between atoms: C_20  and  C_29
    4  A    between atoms: C_29  and  C_30
                            x       y       z     vdW  Elec       q    Type
                         _______ _______ _______ _____ _____    ______ ____

>  <TORSDO>
F 4

$$$$
=
 OpenBabel11112416393D

 32 37  0  0  1  0  0  0  0  0999 V2000
  190.0740  175.3020  143.3080 C   0  0  1  0  0  3  0  0  0  0  0  0
  192.3540  175.3470  147.0560 C   0  0  0  0  0  2  0  0  0  0  0  0
  191.1980  175.4240  147.9340 N   0  0  0  0  0  0  0  0  0  0  0  0
  188.3000  177.1200  143.5420 C   0  0  0  0  0  0  0  0  0  0  0  0
  187.3230  177.7470  144.3090 C   0  0  0  0  0  0  0  0  0  0  0  0
  190.1470  173.7550  141.3040 N   0  0  0  0  0  0  0  0  0  0  0  0
  191.7110  173.5570  143.2760 C   0  0  0  0  0  2  0  0  0  0  0  0
  185.9830  178.2630  146.1070 C   0  0  1  0  0  3  0  0  0  0  0  0
  191.9610  175.3570  145.5840 C   0  0  0  0  0  2  0  0  0  0  0  0
  190.5280  174.0700  143.9700 N   0  0  1  0  0  0  0  0  0  0  0  0
  190.8770  174.2930  145.3780 C   0  0  2  0  0  3  0  0  0  0  0  0
  188.8050  175.7210  145.4940 C   0  0  0  0  0  0  0  0  0  0  0  0
  185.6450  179.1820  144.9970 N   0  0  0  0  0  0  0  0  0  0  0  0
  191.5300  173.5050  141.7480 C   0  0  2  0  0  3  0  0  0  0  0  0
  186.4970  178.8210  143.9320 N   0  0  0  0  0  0  0  0  0  0  0  0
  190.0010  175.0790  147.5920 C   0  0  0  0  0  3  0  0  0  0  0  0
  189.6260  174.6540  146.1850 C   0  0  2  0  0  3  0  0  0  0  0  0
  187.7880  176.3820  146.2150 C   0  0  0  0  0  3  0  0  0  0  0  0
  189.5270  174.9440  141.9130 C   0  0  0  0  0  2  0  0  0  0  0  0
  188.5440  177.5490  142.2780 F   0  0  0  0  0  0  0  0  0  0  0  0
  184.7610  177.4420  146.4740 C   0  0  0  0  0  1  0  0  0  0  0  0
  189.0220  176.0440  144.1190 C   0  0  0  0  0  0  0  0  0  0  0  0
  187.0570  177.3800  145.5790 C   0  0  0  0  0  0  0  0  0  0  0  0
  193.9200  174.0920  141.3960 C   0  0  0  0  0  2  0  0  0  0  0  0
  192.4890  174.4750  141.0740 C   0  0  1  0  0  3  0  0  0  0  0  0
  193.3240  173.7240  140.0550 C   0  0  1  0  0  3  0  0  0  0  0  0
  193.8030  174.7020  138.9990 C   0  0  0  0  0  2  0  0  0  0  0  0
  193.2770  174.3050  137.6630 C   0  0  0  0  0  0  0  0  0  0  0  0
  194.1760  173.9250  136.6280 N   0  0  0  0  0  1  0  0  0  0  0  0
  192.0390  174.3380  137.4400 O   0  0  0  0  0  0  0  0  0  0  0  0
  187.8600  172.9990  141.6540 C   0  0  0  0  0  1  0  0  0  0  0  0
  189.3200  172.5940  141.6110 C   0  0  0  0  0  2  0  0  0  0  0  0
  1 19  1  6  0  0  0
  1 10  1  0  0  0  0
  1 22  1  0  0  0  0
  2  3  1  0  0  0  0
  4 22  2  0  0  0  0
  4  5  1  0  0  0  0
  5 23  2  0  0  0  0
  6 32  1  0  0  0  0
  6 14  1  0  0  0  0
  6 19  1  0  0  0  0
  8 21  1  6  0  0  0
  9  2  1  0  0  0  0
 10  7  1  6  0  0  0
 10 11  1  0  0  0  0
 11  9  1  6  0  0  0
 11 17  1  0  0  0  0
 12 17  1  0  0  0  0
 12 18  2  0  0  0  0
 13  8  1  0  0  0  0
 14  7  1  1  0  0  0
 15  5  1  0  0  0  0
 15 13  2  0  0  0  0
 16  3  2  0  0  0  0
 17 16  1  1  0  0  0
 20  4  1  0  0  0  0
 22 12  1  0  0  0  0
 23  8  1  0  0  0  0
 23 18  1  0  0  0  0
 25 24  1  1  0  0  0
 25 14  1  0  0  0  0
 26 27  1  6  0  0  0
 26 25  1  0  0  0  0
 26 24  1  0  0  0  0
 28 27  1  0  0  0  0
 29 28  1  0  0  0  0
 30 28  2  0  0  0  0
 32 31  1  0  0  0  0
M  END
>  <MODEL>
5

>  <REMARK>
 VINA RESULT:      -7.3      3.270      5.333
  Name = 
  4 active torsions:
  status: ('A' for Active; 'I' for Inactive)
    1  A    between atoms: N_7  and  C_19
    2  A    between atoms: C_10  and  C_17
    3  A    between atoms: C_20  and  C_29
    4  A    between atoms: C_29  and  C_30
                            x       y       z     vdW  Elec       q    Type
                         _______ _______ _______ _____ _____    ______ ____

>  <TORSDO>
F 4

$$$$
=
 OpenBabel11112416393D

 32 37  0  0  1  0  0  0  0  0999 V2000
  190.9080  174.6790  144.4570 C   0  0  1  0  0  3  0  0  0  0  0  0
  194.1590  176.7890  146.5120 C   0  0  0  0  0  2  0  0  0  0  0  0
  195.2360  176.1970  145.7370 N   0  0  0  0  0  0  0  0  0  0  0  0
  191.6580  172.2480  144.2650 C   0  0  0  0  0  0  0  0  0  0  0  0
  192.6530  171.3230  143.9680 C   0  0  0  0  0  0  0  0  0  0  0  0
  188.7690  175.5070  143.3830 N   0  0  0  0  0  0  0  0  0  0  0  0
  190.3890  177.0100  144.6040 C   0  0  0  0  0  2  0  0  0  0  0  0
  194.7110  170.4660  143.3980 C   0  0  1  0  0  3  0  0  0  0  0  0
  192.7930  176.2470  146.1090 C   0  0  0  0  0  2  0  0  0  0  0  0
  191.3390  176.0310  144.0720 N   0  0  1  0  0  0  0  0  0  0  0  0
  192.6750  176.3550  144.5840 C   0  0  2  0  0  3  0  0  0  0  0  0
  193.3210  174.0170  143.9080 C   0  0  0  0  0  0  0  0  0  0  0  0
  193.7880  169.3350  143.6410 N   0  0  0  0  0  0  0  0  0  0  0  0
  188.9230  176.6340  144.3210 C   0  0  2  0  0  3  0  0  0  0  0  0
  192.5520  169.9210  143.9890 N   0  0  0  0  0  0  0  0  0  0  0  0
  195.0840  175.6590  144.5720 C   0  0  0  0  0  3  0  0  0  0  0  0
  193.7310  175.4740  143.9110 C   0  0  2  0  0  3  0  0  0  0  0  0
  194.2840  173.0320  143.5980 C   0  0  0  0  0  3  0  0  0  0  0  0
  189.6060  174.3400  143.7070 C   0  0  0  0  0  2  0  0  0  0  0  0
  190.4240  171.8180  144.6330 F   0  0  0  0  0  0  0  0  0  0  0  0
  195.2040  170.4170  141.9640 C   0  0  0  0  0  1  0  0  0  0  0  0
  191.9730  173.6290  144.1780 C   0  0  0  0  0  0  0  0  0  0  0  0
  193.9030  171.6940  143.6230 C   0  0  0  0  0  0  0  0  0  0  0  0
  188.7900  177.1780  146.7430 C   0  0  0  0  0  2  0  0  0  0  0  0
  188.1940  176.3460  145.6240 C   0  0  1  0  0  3  0  0  0  0  0  0
  187.4920  177.6060  146.0930 C   0  0  1  0  0  3  0  0  0  0  0  0
  186.3260  177.2150  146.9800 C   0  0  0  0  0  2  0  0  0  0  0  0
  185.3570  178.3430  147.0730 C   0  0  0  0  0  0  0  0  0  0  0  0
  184.0650  178.2220  146.4890 N   0  0  0  0  0  1  0  0  0  0  0  0
  185.6930  179.4150  147.6380 O   0  0  0  0  0  0  0  0  0  0  0  0
  188.1890  177.1000  141.6370 C   0  0  0  0  0  1  0  0  0  0  0  0
  189.0940  175.9490  142.0330 C   0  0  0  0  0  2  0  0  0  0  0  0
  1 19  1  6  0  0  0
  3  2  1  0  0  0  0
  4 20  1  0  0  0  0
  5 15  1  0  0  0  0
  5  4  2  0  0  0  0
  6 19  1  0  0  0  0
  6 14  1  0  0  0  0
  8 21  1  6  0  0  0
  8 23  1  0  0  0  0
  8 13  1  0  0  0  0
  9  2  1  0  0  0  0
 10  1  1  0  0  0  0
 10 11  1  0  0  0  0
 10  7  1  1  0  0  0
 11  9  1  1  0  0  0
 12 17  1  0  0  0  0
 12 22  2  0  0  0  0
 13 15  2  0  0  0  0
 14  7  1  1  0  0  0
 14 25  1  0  0  0  0
 16  3  2  0  0  0  0
 17 16  1  1  0  0  0
 17 11  1  0  0  0  0
 18 23  2  0  0  0  0
 18 12  1  0  0  0  0
 22  4  1  0  0  0  0
 22  1  1  0  0  0  0
 23  5  1  0  0  0  0
 25 26  1  0  0  0  0
 25 24  1  1  0  0  0
 26 24  1  0  0  0  0
 26 27  1  1  0  0  0
 27 28  1  0  0  0  0
 28 30  2  0  0  0  0
 29 28  1  0  0  0  0
 31 32  1  0  0  0  0
 32  6  1  0  0  0  0
M  END
>  <MODEL>
6

>  <REMARK>
 VINA RESULT:      -7.3      3.083      8.204
  Name = 
  4 active torsions:
  status: ('A' for Active; 'I' for Inactive)
    1  A    between atoms: N_7  and  C_19
    2  A    between atoms: C_10  and  C_17
    3  A    between atoms: C_20  and  C_29
    4  A    between atoms: C_29  and  C_30
                            x       y       z     vdW  Elec       q    Type
                         _______ _______ _______ _____ _____    ______ ____

>  <TORSDO>
F 4

$$$$
=
 OpenBabel11112416393D

 32 37  0  0  1  0  0  0  0  0999 V2000
  189.6790  174.6280  142.8790 C   0  0  1  0  0  3  0  0  0  0  0  0
  193.4500  176.1790  144.4970 C   0  0  0  0  0  2  0  0  0  0  0  0
  194.3080  175.5430  143.5120 N   0  0  0  0  0  0  0  0  0  0  0  0
  190.0840  172.1560  142.3960 C   0  0  0  0  0  0  0  0  0  0  0  0
  190.8980  171.1570  141.8720 C   0  0  0  0  0  0  0  0  0  0  0  0
  187.5140  175.7770  142.2420 N   0  0  0  0  0  0  0  0  0  0  0  0
  189.4800  176.9800  143.2730 C   0  0  0  0  0  2  0  0  0  0  0  0
  192.7180  170.1340  140.9040 C   0  0  1  0  0  3  0  0  0  0  0  0
  191.9810  175.8270  144.2940 C   0  0  0  0  0  2  0  0  0  0  0  0
  190.2050  175.9530  142.5220 N   0  0  1  0  0  0  0  0  0  0  0  0
  191.6350  176.0820  142.8220 C   0  0  2  0  0  3  0  0  0  0  0  0
  191.8730  173.7560  141.8860 C   0  0  0  0  0  0  0  0  0  0  0  0
  191.7140  169.0930  141.2210 N   0  0  0  0  0  0  0  0  0  0  0  0
  187.9530  176.7930  143.2160 C   0  0  2  0  0  3  0  0  0  0  0  0
  190.6300  169.7780  141.8120 N   0  0  0  0  0  0  0  0  0  0  0  0
  193.9070  175.1300  142.3550 C   0  0  0  0  0  3  0  0  0  0  0  0
  192.4540  175.1530  141.9210 C   0  0  2  0  0  3  0  0  0  0  0  0
  192.6460  172.7030  141.3510 C   0  0  0  0  0  3  0  0  0  0  0  0
  188.2420  174.5010  142.3380 C   0  0  0  0  0  2  0  0  0  0  0  0
  188.8820  171.8330  142.9360 F   0  0  0  0  0  0  0  0  0  0  0  0
  192.9660  170.1590  139.4070 C   0  0  0  0  0  1  0  0  0  0  0  0
  190.5480  173.4960  142.3530 C   0  0  0  0  0  0  0  0  0  0  0  0
  192.1130  171.4180  141.3470 C   0  0  0  0  0  0  0  0  0  0  0  0
  187.9400  177.4760  145.6060 C   0  0  0  0  0  2  0  0  0  0  0  0
  187.4110  176.4730  144.6010 C   0  0  1  0  0  3  0  0  0  0  0  0
  186.5320  177.6150  145.0710 C   0  0  1  0  0  3  0  0  0  0  0  0
  185.5440  177.0850  146.0920 C   0  0  0  0  0  2  0  0  0  0  0  0
  184.6480  178.1830  146.5500 C   0  0  0  0  0  0  0  0  0  0  0  0
  183.8400  178.8820  145.6110 N   0  0  0  0  0  1  0  0  0  0  0  0
  184.6310  178.5150  147.7640 O   0  0  0  0  0  0  0  0  0  0  0  0
  186.8040  177.5310  140.7100 C   0  0  0  0  0  1  0  0  0  0  0  0
  187.6710  176.2990  140.8900 C   0  0  0  0  0  2  0  0  0  0  0  0
  1 19  1  6  0  0  0
  3  2  1  0  0  0  0
  4 20  1  0  0  0  0
  5  4  2  0  0  0  0
  6 19  1  0  0  0  0
  6 14  1  0  0  0  0
  8 21  1  6  0  0  0
  8 13  1  0  0  0  0
  8 23  1  0  0  0  0
  9  2  1  0  0  0  0
 10 11  1  0  0  0  0
 10  1  1  0  0  0  0
 10  7  1  1  0  0  0
 11  9  1  1  0  0  0
 12 17  1  0  0  0  0
 12 22  2  0  0  0  0
 13 15  2  0  0  0  0
 14  7  1  1  0  0  0
 14 25  1  0  0  0  0
 15  5  1  0  0  0  0
 16  3  2  0  0  0  0
 17 16  1  1  0  0  0
 17 11  1  0  0  0  0
 18 12  1  0  0  0  0
 22  4  1  0  0  0  0
 22  1  1  0  0  0  0
 23 18  2  0  0  0  0
 23  5  1  0  0  0  0
 25 26  1  0  0  0  0
 25 24  1  1  0  0  0
 26 24  1  0  0  0  0
 26 27  1  1  0  0  0
 27 28  1  0  0  0  0
 28 30  2  0  0  0  0
 29 28  1  0  0  0  0
 31 32  1  0  0  0  0
 32  6  1  0  0  0  0
M  END
>  <MODEL>
7

>  <REMARK>
 VINA RESULT:      -7.2      3.693      8.290
  Name = 
  4 active torsions:
  status: ('A' for Active; 'I' for Inactive)
    1  A    between atoms: N_7  and  C_19
    2  A    between atoms: C_10  and  C_17
    3  A    between atoms: C_20  and  C_29
    4  A    between atoms: C_29  and  C_30
                            x       y       z     vdW  Elec       q    Type
                         _______ _______ _______ _____ _____    ______ ____

>  <TORSDO>
F 4

$$$$
=
 OpenBabel11112416393D

 32 37  0  0  1  0  0  0  0  0999 V2000
  190.8660  175.6510  144.2710 C   0  0  1  0  0  3  0  0  0  0  0  0
  190.0970  171.8270  142.2640 C   0  0  0  0  0  2  0  0  0  0  0  0
  191.2540  171.1360  142.8090 N   0  0  0  0  0  0  0  0  0  0  0  0
  193.3560  176.1160  143.9710 C   0  0  0  0  0  0  0  0  0  0  0  0
  194.6700  175.6600  144.0000 C   0  0  0  0  0  0  0  0  0  0  0  0
  189.3900  177.1410  145.6920 N   0  0  0  0  0  0  0  0  0  0  0  0
  188.5760  175.0280  144.5740 C   0  0  0  0  0  2  0  0  0  0  0  0
  196.4610  174.2280  144.1950 C   0  0  1  0  0  3  0  0  0  0  0  0
  190.0300  173.2810  142.7140 C   0  0  0  0  0  2  0  0  0  0  0  0
  189.9620  174.6350  144.8300 N   0  0  1  0  0  0  0  0  0  0  0  0
  190.1850  173.3100  144.2400 C   0  0  2  0  0  3  0  0  0  0  0  0
  192.6440  173.8150  144.4400 C   0  0  0  0  0  0  0  0  0  0  0  0
  196.9780  175.5760  143.8640 N   0  0  0  0  0  0  0  0  0  0  0  0
  188.2940  176.4960  144.9460 C   0  0  2  0  0  3  0  0  0  0  0  0
  195.8390  176.4030  143.7550 N   0  0  0  0  0  0  0  0  0  0  0  0
  191.8840  171.5020  143.8770 C   0  0  0  0  0  3  0  0  0  0  0  0
  191.5630  172.7740  144.6380 C   0  0  2  0  0  3  0  0  0  0  0  0
  193.9980  173.4160  144.4750 C   0  0  0  0  0  3  0  0  0  0  0  0
  190.7190  176.9490  145.0890 C   0  0  0  0  0  2  0  0  0  0  0  0
  193.0980  177.4140  143.6700 F   0  0  0  0  0  0  0  0  0  0  0  0
  197.0110  173.7910  145.5390 C   0  0  0  0  0  1  0  0  0  0  0  0
  192.3170  175.1930  144.2540 C   0  0  0  0  0  0  0  0  0  0  0  0
  194.9830  174.3760  144.2660 C   0  0  0  0  0  0  0  0  0  0  0  0
  187.2180  176.4190  142.7060 C   0  0  0  0  0  2  0  0  0  0  0  0
  187.9560  177.2970  143.6980 C   0  0  1  0  0  3  0  0  0  0  0  0
  186.4480  177.3990  143.5630 C   0  0  1  0  0  3  0  0  0  0  0  0
  186.1120  178.6330  142.7490 C   0  0  0  0  0  2  0  0  0  0  0  0
  184.8950  178.3850  141.9280 C   0  0  0  0  0  0  0  0  0  0  0  0
  184.9970  178.2910  140.5120 N   0  0  0  0  0  1  0  0  0  0  0  0
  183.7700  178.2910  142.4840 O   0  0  0  0  0  0  0  0  0  0  0  0
  190.8110  176.7960  147.6370 C   0  0  0  0  0  1  0  0  0  0  0  0
  189.4210  176.6250  147.0540 C   0  0  0  0  0  2  0  0  0  0  0  0
  1 10  1  0  0  0  0
  1 19  1  1  0  0  0
  2  9  1  0  0  0  0
  2  3  1  0  0  0  0
  3 16  2  0  0  0  0
  4  5  2  0  0  0  0
  4 22  1  0  0  0  0
  5 23  1  0  0  0  0
  6 32  1  0  0  0  0
  8 23  1  0  0  0  0
  8 21  1  1  0  0  0
 10  7  1  6  0  0  0
 11  9  1  6  0  0  0
 11 17  1  0  0  0  0
 11 10  1  0  0  0  0
 12 18  1  0  0  0  0
 12 17  1  0  0  0  0
 13  8  1  0  0  0  0
 14  7  1  6  0  0  0
 14  6  1  0  0  0  0
 15 13  2  0  0  0  0
 15  5  1  0  0  0  0
 17 16  1  6  0  0  0
 19  6  1  0  0  0  0
 20  4  1  0  0  0  0
 22  1  1  0  0  0  0
 22 12  2  0  0  0  0
 23 18  2  0  0  0  0
 24 26  1  0  0  0  0
 25 24  1  6  0  0  0
 25 14  1  0  0  0  0
 26 27  1  6  0  0  0
 26 25  1  0  0  0  0
 28 30  2  0  0  0  0
 28 27  1  0  0  0  0
 29 28  1  0  0  0  0
 32 31  1  0  0  0  0
M  END
>  <MODEL>
8

>  <REMARK>
 VINA RESULT:      -7.1      3.709      8.010
  Name = 
  4 active torsions:
  status: ('A' for Active; 'I' for Inactive)
    1  A    between atoms: N_7  and  C_19
    2  A    between atoms: C_10  and  C_17
    3  A    between atoms: C_20  and  C_29
    4  A    between atoms: C_29  and  C_30
                            x       y       z     vdW  Elec       q    Type
                         _______ _______ _______ _____ _____    ______ ____

>  <TORSDO>
F 4

$$$$
=
 OpenBabel11112416393D

 32 37  0  0  1  0  0  0  0  0999 V2000
  189.4800  175.9900  144.6540 C   0  0  1  0  0  3  0  0  0  0  0  0
  188.8080  178.4960  148.1910 C   0  0  0  0  0  2  0  0  0  0  0  0
  187.3800  178.6670  147.9840 N   0  0  0  0  0  0  0  0  0  0  0  0
  188.2130  177.1120  142.7450 C   0  0  0  0  0  0  0  0  0  0  0  0
  187.0600  177.7330  142.2770 C   0  0  0  0  0  0  0  0  0  0  0  0
  190.6270  173.7500  144.3620 N   0  0  0  0  0  0  0  0  0  0  0  0
  190.5220  174.9880  146.5600 C   0  0  0  0  0  2  0  0  0  0  0  0
  184.9560  178.6660  142.2640 C   0  0  1  0  0  3  0  0  0  0  0  0
  189.4560  177.6740  147.0830 C   0  0  0  0  0  2  0  0  0  0  0  0
  189.2460  175.4220  145.9900 N   0  0  1  0  0  0  0  0  0  0  0  0
  188.6350  176.3920  146.9050 C   0  0  2  0  0  3  0  0  0  0  0  0
  187.1700  177.0520  144.9650 C   0  0  0  0  0  0  0  0  0  0  0  0
  185.5270  178.7890  140.9040 N   0  0  0  0  0  0  0  0  0  0  0  0
  191.3590  174.1470  145.5790 C   0  0  2  0  0  3  0  0  0  0  0  0
  186.8100  178.2060  140.9760 N   0  0  0  0  0  0  0  0  0  0  0  0
  186.6490  177.8810  147.2650 C   0  0  0  0  0  3  0  0  0  0  0  0
  187.2150  176.7370  146.4450 C   0  0  2  0  0  3  0  0  0  0  0  0
  186.0190  177.6670  144.4280 C   0  0  0  0  0  3  0  0  0  0  0  0
  189.9160  174.8580  143.7030 C   0  0  0  0  0  2  0  0  0  0  0  0
  189.2620  176.9150  141.9070 F   0  0  0  0  0  0  0  0  0  0  0  0
  183.6930  177.8270  142.2100 C   0  0  0  0  0  1  0  0  0  0  0  0
  188.2560  176.7060  144.1040 C   0  0  0  0  0  0  0  0  0  0  0  0
  185.9980  177.9760  143.0720 C   0  0  0  0  0  0  0  0  0  0  0  0
  193.2670  175.4740  146.4620 C   0  0  0  0  0  2  0  0  0  0  0  0
  192.6380  174.8850  145.2140 C   0  0  1  0  0  3  0  0  0  0  0  0
  193.8190  174.1950  145.8710 C   0  0  1  0  0  3  0  0  0  0  0  0
  195.0710  174.5010  145.0720 C   0  0  0  0  0  2  0  0  0  0  0  0
  196.1220  173.4890  145.3690 C   0  0  0  0  0  0  0  0  0  0  0  0
  195.9720  172.1510  144.9100 N   0  0  0  0  0  1  0  0  0  0  0  0
  197.1280  173.8100  146.0520 O   0  0  0  0  0  0  0  0  0  0  0  0
  189.3170  171.9140  143.4490 C   0  0  0  0  0  1  0  0  0  0  0  0
  189.6610  172.7110  144.6930 C   0  0  0  0  0  2  0  0  0  0  0  0
  1 19  1  6  0  0  0
  1 10  1  0  0  0  0
  3  2  1  0  0  0  0
  4 22  1  0  0  0  0
  5  4  2  0  0  0  0
  5 23  1  0  0  0  0
  6 32  1  0  0  0  0
  6 14  1  0  0  0  0
  8 21  1  6  0  0  0
  8 23  1  0  0  0  0
  9  2  1  0  0  0  0
 10  7  1  1  0  0  0
 10 11  1  0  0  0  0
 11  9  1  6  0  0  0
 12 17  1  0  0  0  0
 13 15  2  0  0  0  0
 13  8  1  0  0  0  0
 14  7  1  1  0  0  0
 15  5  1  0  0  0  0
 16  3  2  0  0  0  0
 17 11  1  0  0  0  0
 17 16  1  1  0  0  0
 18 12  1  0  0  0  0
 19  6  1  0  0  0  0
 20  4  1  0  0  0  0
 22  1  1  0  0  0  0
 22 12  2  0  0  0  0
 23 18  2  0  0  0  0
 25 14  1  0  0  0  0
 25 26  1  0  0  0  0
 25 24  1  1  0  0  0
 26 27  1  6  0  0  0
 26 24  1  0  0  0  0
 27 28  1  0  0  0  0
 28 30  2  0  0  0  0
 29 28  1  0  0  0  0
 31 32  1  0  0  0  0
M  END
>  <MODEL>
9

>  <REMARK>
 VINA RESULT:      -6.9      2.379      4.492
  Name = 
  4 active torsions:
  status: ('A' for Active; 'I' for Inactive)
    1  A    between atoms: N_7  and  C_19
    2  A    between atoms: C_10  and  C_17
    3  A    between atoms: C_20  and  C_29
    4  A    between atoms: C_29  and  C_30
                            x       y       z     vdW  Elec       q    Type
                         _______ _______ _______ _____ _____    ______ ____

>  <TORSDO>
F 4

$$$$
