=
 OpenBabel11112416153D

 30 35  0  0  1  0  0  0  0  0999 V2000
  187.5520  176.6180  143.7840 C   0  0  1  0  0  3  0  0  0  0  0  0
  185.4490  177.9810  144.2820 C   0  0  0  0  0  0  0  0  0  0  0  0
  189.0460  177.6060  147.7390 C   0  0  0  0  0  2  0  0  0  0  0  0
  188.7940  175.9510  144.4280 C   0  0  1  0  0  3  0  0  0  0  0  0
  186.8360  175.6650  143.0360 O   0  0  0  0  0  0  0  0  0  0  0  0
  189.8490  174.2750  141.2110 C   0  0  0  0  0  1  0  0  0  0  0  0
  192.0100  175.8350  144.1840 C   0  0  1  0  0  3  0  0  0  0  0  0
  188.9880  174.6630  142.4120 C   0  0  2  0  0  3  0  0  0  0  0  0
  191.9340  176.4910  145.5620 C   0  0  2  0  0  3  0  0  0  0  0  0
  190.3990  177.0520  147.4880 C   0  0  0  0  0  0  0  0  0  0  0  0
  187.6460  175.2760  141.9420 C   0  0  2  0  0  3  0  0  0  0  0  0
  189.7080  175.5610  143.3400 N   0  0  2  0  0  0  0  0  0  0  0  0
  184.6930  178.7750  145.1440 C   0  0  0  0  0  3  0  0  0  0  0  0
  192.9080  175.7090  146.4210 C   0  0  0  0  0  2  0  0  0  0  0  0
  193.3540  175.1240  144.1180 C   0  0  0  0  0  2  0  0  0  0  0  0
  185.0010  177.7770  142.9820 O   0  0  0  0  0  1  0  0  0  0  0  0
  188.3350  177.0550  146.5280 C   0  0  2  0  0  3  0  0  0  0  0  0
  185.1470  179.0080  146.4430 C   0  0  0  0  0  3  0  0  0  0  0  0
  186.6530  177.4080  144.7290 C   0  0  0  0  0  0  0  0  0  0  0  0
  189.3860  176.9470  145.4360 C   0  0  1  0  0  3  0  0  0  0  0  0
  191.3110  177.0790  148.3570 O   0  0  0  0  0  0  0  0  0  0  0  0
  190.5910  176.5480  146.1600 N   0  0  0  0  0  0  0  0  0  0  0  0
  194.0090  175.2880  145.4760 C   0  0  0  0  0  2  0  0  0  0  0  0
  190.6070  173.7740  144.9000 C   0  0  0  0  0  1  0  0  0  0  0  0
  186.3240  178.4740  146.8620 N   0  0  0  0  0  0  0  0  0  0  0  0
  187.0930  177.7150  146.0340 C   0  0  0  0  0  0  0  0  0  0  0  0
  190.8910  174.8520  143.8450 C   0  0  2  0  0  3  0  0  0  0  0  0
  187.8090  176.4070  140.9200 C   0  0  0  0  0  2  0  0  0  0  0  0
  186.3070  177.5180  139.7490 C   0  0  0  0  0  1  0  0  0  0  0  0
  186.8790  176.2560  139.8920 O   0  0  0  0  0  0  0  0  0  0  0  0
  1  5  1  1  0  0  0
  1  4  1  0  0  0  0
  1 19  1  0  0  0  0
  2 19  2  0  0  0  0
  2 13  1  0  0  0  0
  4 20  1  0  0  0  0
  6  8  1  0  0  0  0
  7  9  1  0  0  0  0
  8 12  1  0  0  0  0
  9 22  1  0  0  0  0
  9 14  1  0  0  0  0
 10  3  1  0  0  0  0
 10 21  2  0  0  0  0
 11  8  1  0  0  0  0
 11  5  1  0  0  0  0
 12 27  1  0  0  0  0
 12  4  1  0  0  0  0
 13 18  2  0  0  0  0
 15  7  1  0  0  0  0
 15 23  1  0  0  0  0
 16  2  1  0  0  0  0
 17  3  1  0  0  0  0
 18 25  1  0  0  0  0
 19 26  1  0  0  0  0
 20 22  1  0  0  0  0
 20 17  1  0  0  0  0
 22 10  1  0  0  0  0
 23 14  1  0  0  0  0
 26 17  1  0  0  0  0
 26 25  2  0  0  0  0
 27  7  1  0  0  0  0
 27 24  1  0  0  0  0
 28 11  1  0  0  0  0
 29 30  1  0  0  0  0
 30 28  1  0  0  0  0
M  END
>  <MODEL>
1

>  <REMARK>
 VINA RESULT:      -7.9      0.000      0.000
  Name = 
  2 active torsions:
  status: ('A' for Active; 'I' for Inactive)
    1  A    between atoms: C_11  and  C_28
    2  A    between atoms: C_28  and  O_30
                            x       y       z     vdW  Elec       q    Type
                         _______ _______ _______ _____ _____    ______ ____

>  <TORSDO>
F 2

$$$$
=
 OpenBabel11112416153D

 30 35  0  0  1  0  0  0  0  0999 V2000
  187.2180  177.0560  143.9740 C   0  0  1  0  0  3  0  0  0  0  0  0
  185.5660  178.3880  145.3980 C   0  0  0  0  0  0  0  0  0  0  0  0
  189.9560  176.9810  147.3430 C   0  0  0  0  0  2  0  0  0  0  0  0
  188.4960  176.1800  144.0280 C   0  0  1  0  0  3  0  0  0  0  0  0
  186.1880  176.3540  143.3200 O   0  0  0  0  0  0  0  0  0  0  0  0
  188.2940  175.2550  140.3710 C   0  0  0  0  0  1  0  0  0  0  0  0
  191.4410  175.9270  142.7340 C   0  0  1  0  0  3  0  0  0  0  0  0
  187.8960  175.3990  141.8390 C   0  0  2  0  0  3  0  0  0  0  0  0
  191.8740  176.2400  144.1660 C   0  0  2  0  0  3  0  0  0  0  0  0
  191.0820  176.4200  146.5590 C   0  0  0  0  0  0  0  0  0  0  0  0
  186.5700  176.1870  141.9680 C   0  0  2  0  0  3  0  0  0  0  0  0
  188.9770  176.0050  142.6470 N   0  0  2  0  0  0  0  0  0  0  0  0
  185.2200  178.9990  146.6030 C   0  0  0  0  0  3  0  0  0  0  0  0
  192.9480  175.2170  144.4820 C   0  0  0  0  0  2  0  0  0  0  0  0
  192.5950  175.1710  142.0910 C   0  0  0  0  0  2  0  0  0  0  0  0
  184.7230  178.5270  144.3010 O   0  0  0  0  0  1  0  0  0  0  0  0
  188.8450  176.7780  146.3430 C   0  0  2  0  0  3  0  0  0  0  0  0
  186.0720  178.8880  147.7030 C   0  0  0  0  0  3  0  0  0  0  0  0
  186.7610  177.6520  145.3010 C   0  0  0  0  0  0  0  0  0  0  0  0
  189.4920  176.8690  144.9720 C   0  0  1  0  0  3  0  0  0  0  0  0
  192.2100  176.1840  147.0690 O   0  0  0  0  0  0  0  0  0  0  0  0
  190.7950  176.2350  145.1660 N   0  0  0  0  0  0  0  0  0  0  0  0
  193.6450  174.9660  143.1660 C   0  0  0  0  0  2  0  0  0  0  0  0
  190.0570  173.8450  143.4270 C   0  0  0  0  0  1  0  0  0  0  0  0
  187.2380  178.1980  147.5960 N   0  0  0  0  0  0  0  0  0  0  0  0
  187.6120  177.6120  146.4270 C   0  0  0  0  0  0  0  0  0  0  0  0
  190.1510  175.1230  142.5830 C   0  0  2  0  0  3  0  0  0  0  0  0
  186.5670  177.5170  141.2040 C   0  0  0  0  0  2  0  0  0  0  0  0
  184.5690  178.2920  140.6880 C   0  0  0  0  0  1  0  0  0  0  0  0
  185.5970  177.4870  140.2020 O   0  0  0  0  0  0  0  0  0  0  0  0
  1  5  1  1  0  0  0
  1  4  1  0  0  0  0
  1 19  1  0  0  0  0
  2 13  1  0  0  0  0
  4 20  1  0  0  0  0
  6  8  1  0  0  0  0
  7  9  1  0  0  0  0
  8 11  1  0  0  0  0
  8 12  1  0  0  0  0
  9 14  1  0  0  0  0
  9 22  1  0  0  0  0
 10 21  2  0  0  0  0
 10  3  1  0  0  0  0
 11  5  1  0  0  0  0
 12  4  1  0  0  0  0
 13 18  2  0  0  0  0
 15  7  1  0  0  0  0
 15 23  1  0  0  0  0
 16  2  1  0  0  0  0
 17 26  1  0  0  0  0
 17  3  1  0  0  0  0
 19  2  2  0  0  0  0
 19 26  1  0  0  0  0
 20 22  1  0  0  0  0
 20 17  1  0  0  0  0
 22 10  1  0  0  0  0
 23 14  1  0  0  0  0
 25 18  1  0  0  0  0
 26 25  2  0  0  0  0
 27 12  1  0  0  0  0
 27  7  1  0  0  0  0
 27 24  1  0  0  0  0
 28 11  1  0  0  0  0
 30 29  1  0  0  0  0
 30 28  1  0  0  0  0
M  END
>  <MODEL>
2

>  <REMARK>
 VINA RESULT:      -7.9      1.210      1.462
  Name = 
  2 active torsions:
  status: ('A' for Active; 'I' for Inactive)
    1  A    between atoms: C_11  and  C_28
    2  A    between atoms: C_28  and  O_30
                            x       y       z     vdW  Elec       q    Type
                         _______ _______ _______ _____ _____    ______ ____

>  <TORSDO>
F 2

$$$$
=
 OpenBabel11112416153D

 30 35  0  0  1  0  0  0  0  0999 V2000
  187.8340  175.9490  142.9200 C   0  0  1  0  0  3  0  0  0  0  0  0
  185.9630  177.6630  142.6180 C   0  0  0  0  0  0  0  0  0  0  0  0
  188.8170  177.7930  146.7260 C   0  0  0  0  0  2  0  0  0  0  0  0
  188.8110  175.3290  143.9530 C   0  0  1  0  0  3  0  0  0  0  0  0
  187.0870  174.9280  142.3020 O   0  0  0  0  0  0  0  0  0  0  0  0
  190.0520  172.6980  141.5430 C   0  0  0  0  0  1  0  0  0  0  0  0
  191.9470  174.7240  144.4140 C   0  0  1  0  0  3  0  0  0  0  0  0
  189.0920  173.5170  142.4050 C   0  0  2  0  0  3  0  0  0  0  0  0
  191.7680  175.7430  145.5400 C   0  0  2  0  0  3  0  0  0  0  0  0
  190.0680  177.0170  146.9060 C   0  0  0  0  0  0  0  0  0  0  0  0
  187.9800  174.1460  141.5310 C   0  0  2  0  0  3  0  0  0  0  0  0
  189.8030  174.5340  143.2080 N   0  0  2  0  0  0  0  0  0  0  0  0
  185.2350  178.7590  143.0810 C   0  0  0  0  0  3  0  0  0  0  0  0
  192.4290  175.1090  146.7480 C   0  0  0  0  0  2  0  0  0  0  0  0
  193.1310  173.8520  144.8060 C   0  0  0  0  0  2  0  0  0  0  0  0
  185.7040  177.1660  141.3470 O   0  0  0  0  0  1  0  0  0  0  0  0
  188.2250  177.0260  145.5700 C   0  0  2  0  0  3  0  0  0  0  0  0
  185.5050  179.2830  144.3460 C   0  0  0  0  0  3  0  0  0  0  0  0
  186.9530  177.0830  143.4330 C   0  0  0  0  0  0  0  0  0  0  0  0
  189.4020  176.4800  144.7810 C   0  0  1  0  0  3  0  0  0  0  0  0
  190.8160  177.1640  147.9090 O   0  0  0  0  0  0  0  0  0  0  0  0
  190.3790  176.1420  145.8150 N   0  0  0  0  0  0  0  0  0  0  0  0
  193.5740  174.2990  146.1870 C   0  0  0  0  0  2  0  0  0  0  0  0
  190.0930  173.1500  145.3150 C   0  0  0  0  0  1  0  0  0  0  0  0
  186.4810  178.7350  145.1180 N   0  0  0  0  0  0  0  0  0  0  0  0
  187.2220  177.6810  144.6830 C   0  0  0  0  0  0  0  0  0  0  0  0
  190.7380  173.8430  144.1070 C   0  0  2  0  0  3  0  0  0  0  0  0
  188.5120  174.9160  140.3160 C   0  0  0  0  0  2  0  0  0  0  0  0
  188.7500  173.8290  138.4130 C   0  0  0  0  0  1  0  0  0  0  0  0
  187.8160  174.5340  139.1700 O   0  0  0  0  0  0  0  0  0  0  0  0
  1  5  1  1  0  0  0
  1 19  1  0  0  0  0
  1  4  1  0  0  0  0
  2 13  2  0  0  0  0
  2 19  1  0  0  0  0
  3 10  1  0  0  0  0
  4 20  1  0  0  0  0
  6  8  1  0  0  0  0
  7 15  1  0  0  0  0
  7  9  1  0  0  0  0
  8 12  1  0  0  0  0
  9 22  1  0  0  0  0
  9 14  1  0  0  0  0
 10 21  2  0  0  0  0
 11  5  1  0  0  0  0
 11  8  1  0  0  0  0
 12  4  1  0  0  0  0
 12 27  1  0  0  0  0
 13 18  1  0  0  0  0
 15 23  1  0  0  0  0
 16  2  1  0  0  0  0
 17  3  1  0  0  0  0
 18 25  2  0  0  0  0
 19 26  2  0  0  0  0
 20 17  1  0  0  0  0
 20 22  1  0  0  0  0
 22 10  1  0  0  0  0
 23 14  1  0  0  0  0
 26 25  1  0  0  0  0
 26 17  1  0  0  0  0
 27  7  1  0  0  0  0
 27 24  1  0  0  0  0
 28 11  1  0  0  0  0
 29 30  1  0  0  0  0
 30 28  1  0  0  0  0
M  END
>  <MODEL>
3

>  <REMARK>
 VINA RESULT:      -7.6      1.334      1.564
  Name = 
  2 active torsions:
  status: ('A' for Active; 'I' for Inactive)
    1  A    between atoms: C_11  and  C_28
    2  A    between atoms: C_28  and  O_30
                            x       y       z     vdW  Elec       q    Type
                         _______ _______ _______ _____ _____    ______ ____

>  <TORSDO>
F 2

$$$$
=
 OpenBabel11112416153D

 30 35  0  0  1  0  0  0  0  0999 V2000
  188.0770  176.7320  143.9840 C   0  0  1  0  0  3  0  0  0  0  0  0
  186.2150  178.2760  143.1600 C   0  0  0  0  0  0  0  0  0  0  0  0
  188.1410  174.8360  140.0790 C   0  0  0  0  0  2  0  0  0  0  0  0
  189.1740  175.7370  143.5260 C   0  0  1  0  0  3  0  0  0  0  0  0
  188.6540  177.7430  144.7750 O   0  0  0  0  0  0  0  0  0  0  0  0
  190.6410  175.4010  146.9910 C   0  0  0  0  0  1  0  0  0  0  0  0
  190.2370  172.7350  144.0470 C   0  0  1  0  0  3  0  0  0  0  0  0
  190.1740  176.0440  145.6860 C   0  0  2  0  0  3  0  0  0  0  0  0
  189.7830  172.5420  142.6000 C   0  0  2  0  0  3  0  0  0  0  0  0
  189.0440  173.7390  140.5020 C   0  0  0  0  0  0  0  0  0  0  0  0
  189.1210  177.1440  145.9700 C   0  0  2  0  0  3  0  0  0  0  0  0
  189.6740  175.0390  144.7240 N   0  0  2  0  0  0  0  0  0  0  0  0
  185.3520  178.7060  142.1520 C   0  0  0  0  0  3  0  0  0  0  0  0
  190.9350  171.8280  141.9210 C   0  0  0  0  0  2  0  0  0  0  0  0
  191.3100  171.6870  144.3050 C   0  0  0  0  0  2  0  0  0  0  0  0
  186.0940  178.8200  144.4330 O   0  0  0  0  0  1  0  0  0  0  0  0
  188.2780  175.7360  141.2820 C   0  0  2  0  0  3  0  0  0  0  0  0
  185.4480  178.1470  140.8770 C   0  0  0  0  0  3  0  0  0  0  0  0
  187.1850  177.2960  142.8830 C   0  0  0  0  0  0  0  0  0  0  0  0
  188.5540  174.8200  142.4620 C   0  0  1  0  0  3  0  0  0  0  0  0
  189.4160  172.8290  139.7150 O   0  0  0  0  0  0  0  0  0  0  0  0
  189.3980  173.7720  141.8910 N   0  0  0  0  0  0  0  0  0  0  0  0
  191.5420  170.9570  142.9950 C   0  0  0  0  0  2  0  0  0  0  0  0
  191.8450  174.6840  143.4590 C   0  0  0  0  0  1  0  0  0  0  0  0
  186.3690  177.1810  140.6220 N   0  0  0  0  0  0  0  0  0  0  0  0
  187.2080  176.7260  141.5920 C   0  0  0  0  0  0  0  0  0  0  0  0
  190.7740  174.1190  144.4030 C   0  0  2  0  0  3  0  0  0  0  0  0
  187.9670  176.6760  146.8640 C   0  0  0  0  0  2  0  0  0  0  0  0
  185.9850  177.2890  147.6100 C   0  0  0  0  0  1  0  0  0  0  0  0
  187.2620  177.7790  147.3460 O   0  0  0  0  0  0  0  0  0  0  0  0
  1 19  1  6  0  0  0
  1  5  1  0  0  0  0
  2 16  1  0  0  0  0
  3 10  1  0  0  0  0
  3 17  1  0  0  0  0
  4  1  1  0  0  0  0
  4 12  1  0  0  0  0
  5 11  1  0  0  0  0
  7 15  1  0  0  0  0
  7 27  1  0  0  0  0
  8 11  1  0  0  0  0
  8  6  1  0  0  0  0
  9  7  1  0  0  0  0
 10 22  1  0  0  0  0
 11 28  1  0  0  0  0
 12  8  1  0  0  0  0
 13  2  2  0  0  0  0
 14  9  1  0  0  0  0
 14 23  1  0  0  0  0
 17 26  1  0  0  0  0
 17 20  1  0  0  0  0
 18 13  1  0  0  0  0
 19  2  1  0  0  0  0
 20  4  1  0  0  0  0
 21 10  2  0  0  0  0
 22 20  1  0  0  0  0
 22  9  1  0  0  0  0
 23 15  1  0  0  0  0
 24 27  1  0  0  0  0
 25 18  2  0  0  0  0
 25 26  1  0  0  0  0
 26 19  2  0  0  0  0
 27 12  1  0  0  0  0
 28 30  1  0  0  0  0
 30 29  1  0  0  0  0
M  END
>  <MODEL>
4

>  <REMARK>
 VINA RESULT:      -7.6      2.183      5.107
  Name = 
  2 active torsions:
  status: ('A' for Active; 'I' for Inactive)
    1  A    between atoms: C_11  and  C_28
    2  A    between atoms: C_28  and  O_30
                            x       y       z     vdW  Elec       q    Type
                         _______ _______ _______ _____ _____    ______ ____

>  <TORSDO>
F 2

$$$$
=
 OpenBabel11112416153D

 30 35  0  0  1  0  0  0  0  0999 V2000
  189.3800  175.6630  144.0770 C   0  0  1  0  0  3  0  0  0  0  0  0
  191.1670  174.7110  145.6360 C   0  0  0  0  0  0  0  0  0  0  0  0
  187.8320  178.0030  147.3910 C   0  0  0  0  0  2  0  0  0  0  0  0
  188.3240  176.7870  143.9210 C   0  0  1  0  0  3  0  0  0  0  0  0
  190.2560  175.6790  142.9760 O   0  0  0  0  0  0  0  0  0  0  0  0
  187.5460  175.8740  140.3390 C   0  0  0  0  0  1  0  0  0  0  0  0
  185.1980  177.2420  143.2640 C   0  0  1  0  0  3  0  0  0  0  0  0
  188.3430  176.3000  141.5710 C   0  0  2  0  0  3  0  0  0  0  0  0
  185.1770  177.7400  144.7080 C   0  0  2  0  0  3  0  0  0  0  0  0
  186.6190  178.4410  146.6610 C   0  0  0  0  0  0  0  0  0  0  0  0
  189.5130  175.3190  141.8270 C   0  0  2  0  0  3  0  0  0  0  0  0
  187.4800  176.4500  142.7620 N   0  0  2  0  0  0  0  0  0  0  0  0
  191.7660  174.6370  146.8940 C   0  0  0  0  0  3  0  0  0  0  0  0
  184.4140  179.0490  144.6590 C   0  0  0  0  0  2  0  0  0  0  0  0
  184.0300  177.9160  142.5580 C   0  0  0  0  0  2  0  0  0  0  0  0
  191.6080  173.8660  144.6250 O   0  0  0  0  0  1  0  0  0  0  0  0
  188.6060  177.4160  146.2370 C   0  0  2  0  0  3  0  0  0  0  0  0
  191.3130  175.4620  147.9240 C   0  0  0  0  0  3  0  0  0  0  0  0
  190.1230  175.6250  145.4090 C   0  0  0  0  0  0  0  0  0  0  0  0
  187.5690  176.9040  145.2520 C   0  0  1  0  0  3  0  0  0  0  0  0
  185.7470  179.1850  147.1840 O   0  0  0  0  0  0  0  0  0  0  0  0
  186.4950  177.8930  145.3420 N   0  0  0  0  0  0  0  0  0  0  0  0
  183.3960  178.8660  143.5570 C   0  0  0  0  0  2  0  0  0  0  0  0
  187.0210  178.9350  142.5280 C   0  0  0  0  0  1  0  0  0  0  0  0
  190.2860  176.3250  147.7060 N   0  0  0  0  0  0  0  0  0  0  0  0
  189.6680  176.4020  146.4960 C   0  0  0  0  0  0  0  0  0  0  0  0
  186.4860  177.4970  142.4840 C   0  0  2  0  0  3  0  0  0  0  0  0
  189.0870  173.8470  141.8590 C   0  0  0  0  0  2  0  0  0  0  0  0
  190.4740  173.4610  140.1890 C   0  0  0  0  0  1  0  0  0  0  0  0
  190.1540  173.0340  141.4760 O   0  0  0  0  0  0  0  0  0  0  0  0
  1  5  1  6  0  0  0
  1 19  1  0  0  0  0
  2 13  1  0  0  0  0
  4  1  1  0  0  0  0
  4 20  1  0  0  0  0
  6  8  1  0  0  0  0
  7  9  1  0  0  0  0
  8 11  1  0  0  0  0
  8 12  1  0  0  0  0
  9 22  1  0  0  0  0
 10 21  2  0  0  0  0
 10  3  1  0  0  0  0
 11 28  1  0  0  0  0
 11  5  1  0  0  0  0
 12  4  1  0  0  0  0
 13 18  2  0  0  0  0
 14  9  1  0  0  0  0
 15  7  1  0  0  0  0
 15 23  1  0  0  0  0
 16  2  1  0  0  0  0
 17 26  1  0  0  0  0
 17  3  1  0  0  0  0
 19  2  2  0  0  0  0
 19 26  1  0  0  0  0
 20 22  1  0  0  0  0
 20 17  1  0  0  0  0
 22 10  1  0  0  0  0
 23 14  1  0  0  0  0
 25 18  1  0  0  0  0
 26 25  2  0  0  0  0
 27 24  1  0  0  0  0
 27 12  1  0  0  0  0
 27  7  1  0  0  0  0
 29 30  1  0  0  0  0
 30 28  1  0  0  0  0
M  END
>  <MODEL>
5

>  <REMARK>
 VINA RESULT:      -7.3      2.162      5.606
  Name = 
  2 active torsions:
  status: ('A' for Active; 'I' for Inactive)
    1  A    between atoms: C_11  and  C_28
    2  A    between atoms: C_28  and  O_30
                            x       y       z     vdW  Elec       q    Type
                         _______ _______ _______ _____ _____    ______ ____

>  <TORSDO>
F 2

$$$$
=
 OpenBabel11112416153D

 30 35  0  0  1  0  0  0  0  0999 V2000
  191.9090  174.7660  143.0820 C   0  0  1  0  0  3  0  0  0  0  0  0
  192.5680  173.8740  140.7790 C   0  0  0  0  0  0  0  0  0  0  0  0
  187.7670  174.8610  141.7830 C   0  0  0  0  0  2  0  0  0  0  0  0
  190.7110  175.0060  144.0360 C   0  0  1  0  0  3  0  0  0  0  0  0
  192.8860  173.9910  143.7340 O   0  0  0  0  0  0  0  0  0  0  0  0
  192.9200  176.0310  146.9230 C   0  0  0  0  0  1  0  0  0  0  0  0
  189.3120  177.3190  145.7990 C   0  0  1  0  0  3  0  0  0  0  0  0
  192.3220  175.1770  145.8060 C   0  0  2  0  0  3  0  0  0  0  0  0
  188.1760  177.1110  144.7990 C   0  0  2  0  0  3  0  0  0  0  0  0
  187.2920  175.5960  142.9800 C   0  0  0  0  0  0  0  0  0  0  0  0
  193.4170  174.7650  144.7920 C   0  0  2  0  0  3  0  0  0  0  0  0
  191.1850  175.8520  145.1450 N   0  0  2  0  0  0  0  0  0  0  0  0
  192.2220  173.4650  139.4910 C   0  0  0  0  0  3  0  0  0  0  0  0
  186.9230  177.0100  145.6460 C   0  0  0  0  0  2  0  0  0  0  0  0
  188.6770  177.8840  147.0610 C   0  0  0  0  0  2  0  0  0  0  0  0
  193.9110  173.9440  141.1300 O   0  0  0  0  0  1  0  0  0  0  0  0
  189.1550  174.5060  142.2560 C   0  0  2  0  0  3  0  0  0  0  0  0
  190.8770  173.4170  139.1210 C   0  0  0  0  0  3  0  0  0  0  0  0
  191.5630  174.2200  141.7000 C   0  0  0  0  0  0  0  0  0  0  0  0
  189.5720  175.6160  143.2060 C   0  0  1  0  0  3  0  0  0  0  0  0
  186.0850  175.9220  143.1380 O   0  0  0  0  0  0  0  0  0  0  0  0
  188.3300  175.9560  143.9000 N   0  0  0  0  0  0  0  0  0  0  0  0
  187.1780  177.9150  146.8280 C   0  0  0  0  0  2  0  0  0  0  0  0
  189.3330  174.8360  146.5500 C   0  0  0  0  0  1  0  0  0  0  0  0
  189.9110  173.7780  140.0060 N   0  0  0  0  0  0  0  0  0  0  0  0
  190.2210  174.2020  141.2600 C   0  0  0  0  0  0  0  0  0  0  0  0
  190.1360  176.0810  146.1480 C   0  0  2  0  0  3  0  0  0  0  0  0
  194.2530  175.9430  144.2760 C   0  0  0  0  0  2  0  0  0  0  0  0
  196.2630  176.4150  143.5020 C   0  0  0  0  0  1  0  0  0  0  0  0
  195.6080  175.6980  144.5010 O   0  0  0  0  0  0  0  0  0  0  0  0
  1 19  1  6  0  0  0
  1  5  1  0  0  0  0
  1  4  1  0  0  0  0
  2 16  1  0  0  0  0
  2 19  1  0  0  0  0
  3 17  1  0  0  0  0
  3 10  1  0  0  0  0
  4 12  1  0  0  0  0
  5 11  1  0  0  0  0
  7 27  1  0  0  0  0
  7 15  1  0  0  0  0
  8  6  1  0  0  0  0
  9 14  1  0  0  0  0
  9  7  1  0  0  0  0
 10 21  2  0  0  0  0
 10 22  1  0  0  0  0
 11  8  1  0  0  0  0
 12  8  1  0  0  0  0
 12 27  1  0  0  0  0
 13  2  2  0  0  0  0
 14 23  1  0  0  0  0
 17 20  1  0  0  0  0
 18 13  1  0  0  0  0
 18 25  2  0  0  0  0
 20 22  1  0  0  0  0
 20  4  1  0  0  0  0
 22  9  1  0  0  0  0
 23 15  1  0  0  0  0
 25 26  1  0  0  0  0
 26 19  2  0  0  0  0
 26 17  1  0  0  0  0
 27 24  1  0  0  0  0
 28 30  1  0  0  0  0
 28 11  1  0  0  0  0
 29 30  1  0  0  0  0
M  END
>  <MODEL>
6

>  <REMARK>
 VINA RESULT:      -7.2      2.587      6.775
  Name = 
  2 active torsions:
  status: ('A' for Active; 'I' for Inactive)
    1  A    between atoms: C_11  and  C_28
    2  A    between atoms: C_28  and  O_30
                            x       y       z     vdW  Elec       q    Type
                         _______ _______ _______ _____ _____    ______ ____

>  <TORSDO>
F 2

$$$$
=
 OpenBabel11112416153D

 30 35  0  0  1  0  0  0  0  0999 V2000
  188.6650  175.1270  141.3990 C   0  0  1  0  0  3  0  0  0  0  0  0
  186.9890  176.5150  140.0590 C   0  0  0  0  0  0  0  0  0  0  0  0
  188.0540  177.7790  144.7820 C   0  0  0  0  0  2  0  0  0  0  0  0
  189.1970  174.8410  142.8260 C   0  0  1  0  0  3  0  0  0  0  0  0
  188.2490  173.9250  140.7970 O   0  0  0  0  0  0  0  0  0  0  0  0
  191.3600  171.9590  141.6920 C   0  0  0  0  0  1  0  0  0  0  0  0
  191.9400  174.7150  144.5220 C   0  0  1  0  0  3  0  0  0  0  0  0
  190.1140  172.8090  141.9370 C   0  0  2  0  0  3  0  0  0  0  0  0
  191.3080  175.9040  145.2450 C   0  0  2  0  0  3  0  0  0  0  0  0
  189.1690  177.2070  145.5740 C   0  0  0  0  0  0  0  0  0  0  0  0
  189.3970  173.1200  140.6010 C   0  0  2  0  0  3  0  0  0  0  0  0
  190.4270  174.0400  142.6940 N   0  0  2  0  0  0  0  0  0  0  0  0
  186.0990  177.5850  139.9660 C   0  0  0  0  0  3  0  0  0  0  0  0
  191.4810  175.6000  146.7200 C   0  0  0  0  0  2  0  0  0  0  0  0
  192.9160  174.0830  145.5040 C   0  0  0  0  0  2  0  0  0  0  0  0
  187.2530  175.7530  138.9270 O   0  0  0  0  0  1  0  0  0  0  0  0
  187.9760  176.7370  143.6940 C   0  0  2  0  0  3  0  0  0  0  0  0
  185.8470  178.3730  141.0900 C   0  0  0  0  0  3  0  0  0  0  0  0
  187.6140  176.2260  141.2860 C   0  0  0  0  0  0  0  0  0  0  0  0
  189.3840  176.1920  143.5320 C   0  0  1  0  0  3  0  0  0  0  0  0
  189.4710  177.6340  146.7210 O   0  0  0  0  0  0  0  0  0  0  0  0
  189.9050  176.1800  144.8980 N   0  0  0  0  0  0  0  0  0  0  0  0
  192.7820  174.8390  146.8120 C   0  0  0  0  0  2  0  0  0  0  0  0
  189.9420  173.1360  145.0150 C   0  0  0  0  0  1  0  0  0  0  0  0
  186.4740  178.1060  142.2660 N   0  0  0  0  0  0  0  0  0  0  0  0
  187.3640  177.0830  142.3790 C   0  0  0  0  0  0  0  0  0  0  0  0
  190.9730  173.6530  144.0020 C   0  0  2  0  0  3  0  0  0  0  0  0
  190.3230  173.6970  139.5240 C   0  0  0  0  0  2  0  0  0  0  0  0
  189.6980  172.1160  138.1200 C   0  0  0  0  0  1  0  0  0  0  0  0
  189.7640  173.5010  138.2620 O   0  0  0  0  0  0  0  0  0  0  0  0
  1  5  1  1  0  0  0
  1  4  1  0  0  0  0
  2 19  1  0  0  0  0
  3 10  1  0  0  0  0
  4 20  1  0  0  0  0
  6  8  1  0  0  0  0
  7  9  1  0  0  0  0
  7 15  1  0  0  0  0
  8 12  1  0  0  0  0
  9 14  1  0  0  0  0
 10 21  2  0  0  0  0
 11  5  1  0  0  0  0
 11  8  1  0  0  0  0
 12  4  1  0  0  0  0
 12 27  1  0  0  0  0
 13  2  2  0  0  0  0
 13 18  1  0  0  0  0
 14 23  1  0  0  0  0
 15 23  1  0  0  0  0
 16  2  1  0  0  0  0
 17  3  1  0  0  0  0
 18 25  2  0  0  0  0
 19  1  1  0  0  0  0
 19 26  2  0  0  0  0
 20 17  1  0  0  0  0
 20 22  1  0  0  0  0
 22  9  1  0  0  0  0
 22 10  1  0  0  0  0
 25 26  1  0  0  0  0
 26 17  1  0  0  0  0
 27  7  1  0  0  0  0
 27 24  1  0  0  0  0
 28 11  1  0  0  0  0
 29 30  1  0  0  0  0
 30 28  1  0  0  0  0
M  END
>  <MODEL>
7

>  <REMARK>
 VINA RESULT:      -7.1      2.103      3.330
  Name = 
  2 active torsions:
  status: ('A' for Active; 'I' for Inactive)
    1  A    between atoms: C_11  and  C_28
    2  A    between atoms: C_28  and  O_30
                            x       y       z     vdW  Elec       q    Type
                         _______ _______ _______ _____ _____    ______ ____

>  <TORSDO>
F 2

$$$$
=
 OpenBabel11112416153D

 30 35  0  0  1  0  0  0  0  0999 V2000
  191.1550  174.0210  143.1010 C   0  0  1  0  0  3  0  0  0  0  0  0
  193.1620  172.4500  142.9130 C   0  0  0  0  0  0  0  0  0  0  0  0
  192.6980  175.4260  146.9080 C   0  0  0  0  0  2  0  0  0  0  0  0
  190.5960  175.2530  143.8570 C   0  0  1  0  0  3  0  0  0  0  0  0
  191.1330  174.2640  141.7150 O   0  0  0  0  0  0  0  0  0  0  0  0
  187.5710  175.5430  141.6120 C   0  0  0  0  0  1  0  0  0  0  0  0
  188.0110  176.2350  145.5200 C   0  0  1  0  0  3  0  0  0  0  0  0
  189.0340  175.4900  142.0500 C   0  0  2  0  0  3  0  0  0  0  0  0
  189.0200  176.2790  146.6670 C   0  0  2  0  0  3  0  0  0  0  0  0
  191.4780  176.1970  147.2450 C   0  0  0  0  0  0  0  0  0  0  0  0
  189.7790  174.3500  141.3120 C   0  0  2  0  0  3  0  0  0  0  0  0
  189.1670  175.3750  143.5180 N   0  0  2  0  0  0  0  0  0  0  0  0
  194.3540  171.9370  143.4240 C   0  0  0  0  0  3  0  0  0  0  0  0
  188.7940  177.6210  147.3350 C   0  0  0  0  0  2  0  0  0  0  0  0
  186.9050  177.2170  145.8800 C   0  0  0  0  0  2  0  0  0  0  0  0
  192.6320  171.9010  141.7520 O   0  0  0  0  0  1  0  0  0  0  0  0
  192.3990  175.1260  145.4600 C   0  0  2  0  0  3  0  0  0  0  0  0
  194.8820  172.4640  144.6040 C   0  0  0  0  0  3  0  0  0  0  0  0
  192.5090  173.5030  143.5770 C   0  0  0  0  0  0  0  0  0  0  0  0
  190.8850  175.0520  145.3510 C   0  0  1  0  0  3  0  0  0  0  0  0
  191.3630  176.8450  148.3200 O   0  0  0  0  0  0  0  0  0  0  0  0
  190.4250  176.0840  146.2790 N   0  0  0  0  0  0  0  0  0  0  0  0
  187.3160  177.8920  147.1760 C   0  0  0  0  0  2  0  0  0  0  0  0
  189.3840  177.8510  144.0260 C   0  0  0  0  0  1  0  0  0  0  0  0
  194.2320  173.4630  145.2570 N   0  0  0  0  0  0  0  0  0  0  0  0
  193.0570  173.9670  144.7930 C   0  0  0  0  0  0  0  0  0  0  0  0
  188.5570  176.5620  144.1320 C   0  0  2  0  0  3  0  0  0  0  0  0
  189.0690  172.9940  141.3970 C   0  0  0  0  0  2  0  0  0  0  0  0
  188.3780  172.6990  139.3250 C   0  0  0  0  0  1  0  0  0  0  0  0
  189.3240  172.2520  140.2440 O   0  0  0  0  0  0  0  0  0  0  0  0
  1  5  1  6  0  0  0
  1 19  1  0  0  0  0
  1  4  1  0  0  0  0
  2 13  2  0  0  0  0
  2 19  1  0  0  0  0
  3 10  1  0  0  0  0
  4 20  1  0  0  0  0
  6  8  1  0  0  0  0
  7 15  1  0  0  0  0
  7  9  1  0  0  0  0
  8 12  1  0  0  0  0
  9 14  1  0  0  0  0
 10 21  2  0  0  0  0
 11 28  1  0  0  0  0
 11  5  1  0  0  0  0
 11  8  1  0  0  0  0
 12  4  1  0  0  0  0
 12 27  1  0  0  0  0
 13 18  1  0  0  0  0
 15 23  1  0  0  0  0
 16  2  1  0  0  0  0
 17  3  1  0  0  0  0
 18 25  2  0  0  0  0
 19 26  2  0  0  0  0
 20 17  1  0  0  0  0
 20 22  1  0  0  0  0
 22  9  1  0  0  0  0
 22 10  1  0  0  0  0
 23 14  1  0  0  0  0
 24 27  1  0  0  0  0
 26 25  1  0  0  0  0
 26 17  1  0  0  0  0
 27  7  1  0  0  0  0
 29 30  1  0  0  0  0
 30 28  1  0  0  0  0
M  END
>  <MODEL>
8

>  <REMARK>
 VINA RESULT:      -7.0      2.451      5.815
  Name = 
  2 active torsions:
  status: ('A' for Active; 'I' for Inactive)
    1  A    between atoms: C_11  and  C_28
    2  A    between atoms: C_28  and  O_30
                            x       y       z     vdW  Elec       q    Type
                         _______ _______ _______ _____ _____    ______ ____

>  <TORSDO>
F 2

$$$$
=
 OpenBabel11112416153D

 30 35  0  0  1  0  0  0  0  0999 V2000
  187.5130  176.3650  140.9910 C   0  0  1  0  0  3  0  0  0  0  0  0
  187.3650  175.4670  138.6030 C   0  0  0  0  0  0  0  0  0  0  0  0
  190.4580  173.3030  141.8870 C   0  0  0  0  0  2  0  0  0  0  0  0
  188.3570  176.3340  142.2900 C   0  0  1  0  0  3  0  0  0  0  0  0
  187.3380  177.6960  140.5700 O   0  0  0  0  0  0  0  0  0  0  0  0
  186.3050  179.0310  143.9600 C   0  0  0  0  0  1  0  0  0  0  0  0
  188.0930  175.7910  145.4610 C   0  0  1  0  0  3  0  0  0  0  0  0
  187.2000  178.3350  142.9350 C   0  0  2  0  0  3  0  0  0  0  0  0
  188.9890  174.6000  145.1240 C   0  0  2  0  0  3  0  0  0  0  0  0
  190.4600  173.5740  143.3440 C   0  0  0  0  0  0  0  0  0  0  0  0
  186.5390  178.3530  141.5360 C   0  0  2  0  0  3  0  0  0  0  0  0
  187.5600  176.9640  143.3570 N   0  0  2  0  0  0  0  0  0  0  0  0
  187.7650  174.5620  137.6190 C   0  0  0  0  0  3  0  0  0  0  0  0
  190.0860  174.6280  146.1710 C   0  0  0  0  0  2  0  0  0  0  0  0
  188.3320  176.1090  146.9300 C   0  0  0  0  0  2  0  0  0  0  0  0
  186.3380  176.3610  138.3240 O   0  0  0  0  0  1  0  0  0  0  0  0
  189.6840  174.5110  141.4210 C   0  0  2  0  0  3  0  0  0  0  0  0
  188.7780  173.6430  137.8980 C   0  0  0  0  0  3  0  0  0  0  0  0
  187.9920  175.4580  139.8610 C   0  0  0  0  0  0  0  0  0  0  0  0
  188.7440  174.8720  142.5580 C   0  0  1  0  0  3  0  0  0  0  0  0
  191.1780  172.9250  144.1510 O   0  0  0  0  0  0  0  0  0  0  0  0
  189.5310  174.5850  143.7570 N   0  0  0  0  0  0  0  0  0  0  0  0
  189.4230  175.1740  147.4140 C   0  0  0  0  0  2  0  0  0  0  0  0
  189.7560  177.5320  144.4940 C   0  0  0  0  0  1  0  0  0  0  0  0
  189.3620  173.6210  139.1250 N   0  0  0  0  0  0  0  0  0  0  0  0
  188.9750  174.4760  140.1100 C   0  0  0  0  0  0  0  0  0  0  0  0
  188.3040  177.0490  144.6210 C   0  0  2  0  0  3  0  0  0  0  0  0
  185.0950  177.8380  141.5300 C   0  0  0  0  0  2  0  0  0  0  0  0
  183.0870  178.1690  140.6830 C   0  0  0  0  0  1  0  0  0  0  0  0
  184.4420  178.2670  140.3750 O   0  0  0  0  0  0  0  0  0  0  0  0
  1 19  1  6  0  0  0
  1  4  1  0  0  0  0
  2 19  1  0  0  0  0
  3 10  1  0  0  0  0
  4 20  1  0  0  0  0
  4 12  1  0  0  0  0
  5  1  1  0  0  0  0
  5 11  1  0  0  0  0
  7 15  1  0  0  0  0
  8 12  1  0  0  0  0
  8  6  1  0  0  0  0
  9  7  1  0  0  0  0
  9 14  1  0  0  0  0
 10 22  1  0  0  0  0
 10 21  2  0  0  0  0
 11  8  1  0  0  0  0
 12 27  1  0  0  0  0
 13 18  1  0  0  0  0
 13  2  2  0  0  0  0
 14 23  1  0  0  0  0
 15 23  1  0  0  0  0
 16  2  1  0  0  0  0
 17  3  1  0  0  0  0
 17 20  1  0  0  0  0
 18 25  2  0  0  0  0
 19 26  2  0  0  0  0
 20 22  1  0  0  0  0
 22  9  1  0  0  0  0
 24 27  1  0  0  0  0
 25 26  1  0  0  0  0
 26 17  1  0  0  0  0
 27  7  1  0  0  0  0
 28 11  1  0  0  0  0
 30 29  1  0  0  0  0
 30 28  1  0  0  0  0
M  END
>  <MODEL>
9

>  <REMARK>
 VINA RESULT:      -6.9      2.447      5.389
  Name = 
  2 active torsions:
  status: ('A' for Active; 'I' for Inactive)
    1  A    between atoms: C_11  and  C_28
    2  A    between atoms: C_28  and  O_30
                            x       y       z     vdW  Elec       q    Type
                         _______ _______ _______ _____ _____    ______ ____

>  <TORSDO>
F 2

$$$$
