=
 OpenBabel11112416523D

 31 35  0  0  1  0  0  0  0  0999 V2000
  185.4390  178.2100  146.6520 C   0  0  0  0  0  0  0  0  0  0  0  0
  187.9420  175.9940  144.9340 N   0  0  0  0  0  0  0  0  0  0  0  0
  187.7450  176.1000  143.5000 C   0  0  0  0  0  0  0  0  0  0  0  0
  186.5520  176.9720  141.5650 C   0  0  0  0  0  0  0  0  0  0  0  0
  187.3420  176.9340  145.8460 C   0  0  0  0  0  0  0  0  0  0  0  0
  186.2390  178.7830  147.6440 C   0  0  0  0  0  3  0  0  0  0  0  0
  186.6740  176.8240  142.9490 C   0  0  0  0  0  3  0  0  0  0  0  0
  190.1140  176.3580  145.8650 N   0  0  0  0  0  0  0  0  0  0  0  0
  183.7510  178.6500  146.5280 Cl  0  0  0  0  0  0  0  0  0  0  0  0
  189.7570  174.8010  143.1550 O   0  0  0  0  0  0  0  0  0  0  0  0
  185.4120  177.7390  141.0000 C   0  0  0  0  0  1  0  0  0  0  0  0
  189.5730  177.0680  147.0340 C   0  0  0  0  0  2  0  0  0  0  0  0
  189.1430  175.3280  145.4630 C   0  0  2  0  0  3  0  0  0  0  0  0
  185.9870  177.2850  145.7590 C   0  0  0  0  0  3  0  0  0  0  0  0
  187.5080  176.4140  140.7150 C   0  0  0  0  0  3  0  0  0  0  0  0
  188.1430  177.5110  146.8500 C   0  0  0  0  0  0  0  0  0  0  0  0
  187.5870  178.4280  147.7470 C   0  0  0  0  0  3  0  0  0  0  0  0
  189.7070  174.2870  144.4790 C   0  0  0  0  0  2  0  0  0  0  0  0
  188.6920  175.5260  142.6320 C   0  0  0  0  0  0  0  0  0  0  0  0
  188.5800  175.6930  141.2490 C   0  0  0  0  0  3  0  0  0  0  0  0
  191.3490  175.7290  146.3210 C   0  0  0  0  0  2  0  0  0  0  0  0
  193.6740  176.5550  146.7420 C   0  0  0  0  0  1  0  0  0  0  0  0
  192.5450  176.4610  145.7300 C   0  0  1  0  0  3  0  0  0  0  0  0
  193.8040  174.4350  142.1820 N   0  0  0  0  0  0  0  0  0  0  0  0
  193.7260  174.5660  144.6110 C   0  0  0  0  0  2  0  0  0  0  0  0
  191.9360  177.3560  143.0520 O   0  0  0  0  0  0  0  0  0  0  0  0
  194.6670  174.0760  141.0720 C   0  0  0  0  0  1  0  0  0  0  0  0
  194.6140  174.3360  143.3920 C   0  0  0  0  0  2  0  0  0  0  0  0
  192.7130  176.3740  143.1870 C   0  0  0  0  0  0  0  0  0  0  0  0
  192.9930  175.8250  144.4910 N   0  0  0  0  0  0  0  0  0  0  0  0
  193.4290  175.8340  141.9840 C   0  0  0  0  0  2  0  0  0  0  0  0
  1  6  1  0  0  0  0
  2 13  1  0  0  0  0
  2  5  1  0  0  0  0
  3  2  1  0  0  0  0
  4  7  2  0  0  0  0
  5 16  2  0  0  0  0
  6 17  2  0  0  0  0
  7  3  1  0  0  0  0
  8 21  1  0  0  0  0
  8 12  1  0  0  0  0
  9  1  1  0  0  0  0
 10 18  1  0  0  0  0
 11  4  1  0  0  0  0
 13 18  1  6  0  0  0
 13  8  1  0  0  0  0
 14  5  1  0  0  0  0
 14  1  2  0  0  0  0
 15 20  2  0  0  0  0
 15  4  1  0  0  0  0
 16 12  1  0  0  0  0
 16 17  1  0  0  0  0
 19 10  1  0  0  0  0
 19  3  2  0  0  0  0
 20 19  1  0  0  0  0
 23 21  1  0  0  0  0
 23 22  1  1  0  0  0
 24 28  1  0  0  0  0
 26 29  2  0  0  0  0
 27 24  1  0  0  0  0
 28 25  1  0  0  0  0
 29 30  1  0  0  0  0
 30 25  1  0  0  0  0
 30 23  1  0  0  0  0
 31 24  1  0  0  0  0
 31 29  1  0  0  0  0
M  END
>  <MODEL>
1

>  <REMARK>
 VINA RESULT:      -7.6      0.000      0.000
  Name = 
  3 active torsions:
  status: ('A' for Active; 'I' for Inactive)
    1  A    between atoms: C_5  and  C_16
    2  A    between atoms: C_5  and  N_30
    3  A    between atoms: N_10  and  C_16
                            x       y       z     vdW  Elec       q    Type
                         _______ _______ _______ _____ _____    ______ ____

>  <TORSDO>
F 3

$$$$
=
 OpenBabel11112416523D

 31 35  0  0  1  0  0  0  0  0999 V2000
  191.3790  171.0500  143.1800 C   0  0  0  0  0  0  0  0  0  0  0  0
  191.1250  173.9890  145.5090 N   0  0  0  0  0  0  0  0  0  0  0  0
  192.4630  174.4830  145.7760 C   0  0  0  0  0  0  0  0  0  0  0  0
  194.8810  174.3540  145.5190 C   0  0  0  0  0  0  0  0  0  0  0  0
  190.8670  173.0660  144.4340 C   0  0  0  0  0  0  0  0  0  0  0  0
  190.3180  171.3170  142.3100 C   0  0  0  0  0  3  0  0  0  0  0  0
  193.6080  173.8150  145.3120 C   0  0  0  0  0  3  0  0  0  0  0  0
  189.4370  175.4920  144.7300 N   0  0  0  0  0  0  0  0  0  0  0  0
  192.3690  169.6280  142.9410 Cl  0  0  0  0  0  0  0  0  0  0  0  0
  191.5030  176.3810  146.9300 O   0  0  0  0  0  0  0  0  0  0  0  0
  196.0810  173.6320  145.0220 C   0  0  0  0  0  1  0  0  0  0  0  0
  188.8730  174.4940  143.8080 C   0  0  0  0  0  2  0  0  0  0  0  0
  189.9540  174.7840  145.9120 C   0  0  2  0  0  3  0  0  0  0  0  0
  191.6500  171.9180  144.2410 C   0  0  0  0  0  3  0  0  0  0  0  0
  195.0240  175.5760  146.1780 C   0  0  0  0  0  3  0  0  0  0  0  0
  189.7960  173.3290  143.5570 C   0  0  0  0  0  0  0  0  0  0  0  0
  189.5240  172.4510  142.5030 C   0  0  0  0  0  3  0  0  0  0  0  0
  190.2650  175.7050  147.1060 C   0  0  0  0  0  2  0  0  0  0  0  0
  192.6220  175.7050  146.4560 C   0  0  0  0  0  0  0  0  0  0  0  0
  193.8940  176.2530  146.6440 C   0  0  0  0  0  3  0  0  0  0  0  0
  188.3220  176.3520  145.1110 C   0  0  0  0  0  2  0  0  0  0  0  0
  189.7300  177.7910  143.6230 C   0  0  0  0  0  1  0  0  0  0  0  0
  188.3950  177.6600  144.3360 C   0  0  1  0  0  3  0  0  0  0  0  0
  185.1660  177.8400  141.5400 N   0  0  0  0  0  0  0  0  0  0  0  0
  187.4670  177.2370  142.0560 C   0  0  0  0  0  2  0  0  0  0  0  0
  185.7700  178.6940  144.9590 O   0  0  0  0  0  0  0  0  0  0  0  0
  184.3230  178.3840  140.4920 C   0  0  0  0  0  1  0  0  0  0  0  0
  186.5410  177.9230  141.0570 C   0  0  0  0  0  2  0  0  0  0  0  0
  186.0170  178.3810  143.7640 C   0  0  0  0  0  0  0  0  0  0  0  0
  187.2780  177.7820  143.3990 N   0  0  0  0  0  0  0  0  0  0  0  0
  185.0220  178.7250  142.6940 C   0  0  0  0  0  2  0  0  0  0  0  0
  1 14  1  0  0  0  0
  2  3  1  0  0  0  0
  2 13  1  0  0  0  0
  3 19  1  0  0  0  0
  4 15  2  0  0  0  0
  5  2  1  0  0  0  0
  6 17  1  0  0  0  0
  6  1  2  0  0  0  0
  7  4  1  0  0  0  0
  7  3  2  0  0  0  0
  8 21  1  0  0  0  0
  8 13  1  0  0  0  0
  9  1  1  0  0  0  0
 10 18  1  0  0  0  0
 11  4  1  0  0  0  0
 12  8  1  0  0  0  0
 13 18  1  1  0  0  0
 14  5  2  0  0  0  0
 15 20  1  0  0  0  0
 16 12  1  0  0  0  0
 16  5  1  0  0  0  0
 17 16  2  0  0  0  0
 19 20  2  0  0  0  0
 19 10  1  0  0  0  0
 23 22  1  6  0  0  0
 23 21  1  0  0  0  0
 24 31  1  0  0  0  0
 25 30  1  0  0  0  0
 27 24  1  0  0  0  0
 28 24  1  0  0  0  0
 28 25  1  0  0  0  0
 29 26  2  0  0  0  0
 30 29  1  0  0  0  0
 30 23  1  0  0  0  0
 31 29  1  0  0  0  0
M  END
>  <MODEL>
2

>  <REMARK>
 VINA RESULT:      -7.5      3.388      7.506
  Name = 
  3 active torsions:
  status: ('A' for Active; 'I' for Inactive)
    1  A    between atoms: C_5  and  C_16
    2  A    between atoms: C_5  and  N_30
    3  A    between atoms: N_10  and  C_16
                            x       y       z     vdW  Elec       q    Type
                         _______ _______ _______ _____ _____    ______ ____

>  <TORSDO>
F 3

$$$$
=
 OpenBabel11112416523D

 31 35  0  0  1  0  0  0  0  0999 V2000
  186.9620  177.1330  141.1030 C   0  0  0  0  0  0  0  0  0  0  0  0
  188.4150  177.3090  144.5650 N   0  0  0  0  0  0  0  0  0  0  0  0
  187.3720  177.7260  145.4830 C   0  0  0  0  0  0  0  0  0  0  0  0
  185.0900  178.4420  145.9440 C   0  0  0  0  0  0  0  0  0  0  0  0
  188.1070  176.8690  143.2280 C   0  0  0  0  0  0  0  0  0  0  0  0
  187.5370  175.9460  140.6410 C   0  0  0  0  0  3  0  0  0  0  0  0
  186.1000  178.1180  145.0330 C   0  0  0  0  0  3  0  0  0  0  0  0
  189.6700  175.3250  145.0150 N   0  0  0  0  0  0  0  0  0  0  0  0
  185.8820  178.0400  140.0700 Cl  0  0  0  0  0  0  0  0  0  0  0  0
  188.8640  177.2890  147.3360 O   0  0  0  0  0  0  0  0  0  0  0  0
  183.7520  178.8560  145.4490 C   0  0  0  0  0  1  0  0  0  0  0  0
  189.6980  174.9350  143.5970 C   0  0  0  0  0  2  0  0  0  0  0  0
  189.6910  176.7940  145.0880 C   0  0  2  0  0  3  0  0  0  0  0  0
  187.2500  177.5960  142.3900 C   0  0  0  0  0  3  0  0  0  0  0  0
  185.3350  178.3630  147.3150 C   0  0  0  0  0  3  0  0  0  0  0  0
  188.6880  175.6750  142.7570 C   0  0  0  0  0  0  0  0  0  0  0  0
  188.4050  175.2220  141.4640 C   0  0  0  0  0  3  0  0  0  0  0  0
  190.0050  177.3460  146.4900 C   0  0  0  0  0  2  0  0  0  0  0  0
  187.6110  177.6690  146.8680 C   0  0  0  0  0  0  0  0  0  0  0  0
  186.5940  177.9730  147.7780 C   0  0  0  0  0  3  0  0  0  0  0  0
  190.8890  174.7780  145.5990 C   0  0  0  0  0  2  0  0  0  0  0  0
  192.8250  175.6930  144.3010 C   0  0  0  0  0  1  0  0  0  0  0  0
  191.9050  174.5010  144.5000 C   0  0  1  0  0  3  0  0  0  0  0  0
  194.1500  171.0000  145.4920 N   0  0  0  0  0  0  0  0  0  0  0  0
  193.8650  173.4150  145.6010 C   0  0  0  0  0  2  0  0  0  0  0  0
  191.1390  171.8190  143.7450 O   0  0  0  0  0  0  0  0  0  0  0  0
  195.1530  169.9610  145.3510 C   0  0  0  0  0  1  0  0  0  0  0  0
  194.8420  172.2750  145.3260 C   0  0  0  0  0  2  0  0  0  0  0  0
  192.2570  171.9820  144.3020 C   0  0  0  0  0  0  0  0  0  0  0  0
  192.6650  173.2820  144.7780 N   0  0  0  0  0  0  0  0  0  0  0  0
  193.2140  170.8290  144.3820 C   0  0  0  0  0  2  0  0  0  0  0  0
  1 14  1  0  0  0  0
  2 13  1  0  0  0  0
  2  3  1  0  0  0  0
  3 19  1  0  0  0  0
  4 15  2  0  0  0  0
  5  2  1  0  0  0  0
  6  1  2  0  0  0  0
  6 17  1  0  0  0  0
  7  3  2  0  0  0  0
  7  4  1  0  0  0  0
  8 13  1  0  0  0  0
  8 21  1  0  0  0  0
  9  1  1  0  0  0  0
 11  4  1  0  0  0  0
 12  8  1  0  0  0  0
 13 18  1  1  0  0  0
 14  5  2  0  0  0  0
 15 20  1  0  0  0  0
 16  5  1  0  0  0  0
 16 12  1  0  0  0  0
 17 16  2  0  0  0  0
 18 10  1  0  0  0  0
 19 10  1  0  0  0  0
 19 20  2  0  0  0  0
 23 22  1  1  0  0  0
 23 30  1  0  0  0  0
 23 21  1  0  0  0  0
 26 29  2  0  0  0  0
 27 24  1  0  0  0  0
 28 24  1  0  0  0  0
 28 25  1  0  0  0  0
 29 31  1  0  0  0  0
 29 30  1  0  0  0  0
 30 25  1  0  0  0  0
 31 24  1  0  0  0  0
M  END
>  <MODEL>
3

>  <REMARK>
 VINA RESULT:      -7.4      2.506      4.591
  Name = 
  3 active torsions:
  status: ('A' for Active; 'I' for Inactive)
    1  A    between atoms: C_5  and  C_16
    2  A    between atoms: C_5  and  N_30
    3  A    between atoms: N_10  and  C_16
                            x       y       z     vdW  Elec       q    Type
                         _______ _______ _______ _____ _____    ______ ____

>  <TORSDO>
F 3

$$$$
=
 OpenBabel11112416523D

 31 35  0  0  1  0  0  0  0  0999 V2000
  185.3720  177.8490  146.4960 C   0  0  0  0  0  0  0  0  0  0  0  0
  187.4470  176.1210  143.8810 N   0  0  0  0  0  0  0  0  0  0  0  0
  186.9690  176.5240  142.5720 C   0  0  0  0  0  0  0  0  0  0  0  0
  185.4260  177.7540  141.1440 C   0  0  0  0  0  0  0  0  0  0  0  0
  187.0550  176.8280  145.0740 C   0  0  0  0  0  0  0  0  0  0  0  0
  186.3630  178.2200  147.4080 C   0  0  0  0  0  3  0  0  0  0  0  0
  185.8200  177.3170  142.4120 C   0  0  0  0  0  3  0  0  0  0  0  0
  189.7660  176.3400  144.4180 N   0  0  0  0  0  0  0  0  0  0  0  0
  183.7000  178.2580  146.8060 Cl  0  0  0  0  0  0  0  0  0  0  0  0
  188.8510  175.3860  141.5640 O   0  0  0  0  0  0  0  0  0  0  0  0
  184.2080  178.5910  140.9950 C   0  0  0  0  0  1  0  0  0  0  0  0
  189.4810  176.7700  145.7960 C   0  0  0  0  0  2  0  0  0  0  0  0
  188.7190  175.3920  144.0070 C   0  0  2  0  0  3  0  0  0  0  0  0
  185.7150  177.1510  145.3340 C   0  0  0  0  0  3  0  0  0  0  0  0
  186.1840  177.4160  140.0220 C   0  0  0  0  0  3  0  0  0  0  0  0
  188.0500  177.2010  145.9990 C   0  0  0  0  0  0  0  0  0  0  0  0
  187.6980  177.8900  147.1640 C   0  0  0  0  0  3  0  0  0  0  0  0
  189.0590  174.6010  142.7300 C   0  0  0  0  0  2  0  0  0  0  0  0
  187.7140  176.1750  141.4300 C   0  0  0  0  0  0  0  0  0  0  0  0
  187.3300  176.6290  140.1660 C   0  0  0  0  0  3  0  0  0  0  0  0
  191.0570  175.6640  144.4750 C   0  0  0  0  0  2  0  0  0  0  0  0
  191.9930  177.8360  143.6530 C   0  0  0  0  0  1  0  0  0  0  0  0
  192.0250  176.3240  143.5040 C   0  0  1  0  0  3  0  0  0  0  0  0
  195.9150  174.6520  144.0960 N   0  0  0  0  0  0  0  0  0  0  0  0
  193.7320  175.2590  144.9840 C   0  0  0  0  0  2  0  0  0  0  0  0
  194.0140  176.0750  141.4230 O   0  0  0  0  0  0  0  0  0  0  0  0
  197.3280  174.6160  144.4290 C   0  0  0  0  0  1  0  0  0  0  0  0
  195.2400  175.3130  145.2090 C   0  0  0  0  0  2  0  0  0  0  0  0
  194.3470  175.7790  142.6010 C   0  0  0  0  0  0  0  0  0  0  0  0
  193.3820  175.8020  143.6730 N   0  0  0  0  0  0  0  0  0  0  0  0
  195.7880  175.4930  142.9070 C   0  0  0  0  0  2  0  0  0  0  0  0
  1  9  1  0  0  0  0
  1  6  1  0  0  0  0
  2 13  1  0  0  0  0
  2  5  1  0  0  0  0
  3  2  1  0  0  0  0
  4  7  2  0  0  0  0
  5 14  1  0  0  0  0
  5 16  2  0  0  0  0
  7  3  1  0  0  0  0
  8 21  1  0  0  0  0
  8 12  1  0  0  0  0
 10 18  1  0  0  0  0
 11  4  1  0  0  0  0
 12 16  1  0  0  0  0
 13 18  1  6  0  0  0
 13  8  1  0  0  0  0
 14  1  2  0  0  0  0
 15 20  2  0  0  0  0
 15  4  1  0  0  0  0
 16 17  1  0  0  0  0
 17  6  2  0  0  0  0
 19 10  1  0  0  0  0
 19  3  2  0  0  0  0
 20 19  1  0  0  0  0
 23 22  1  1  0  0  0
 23 30  1  0  0  0  0
 23 21  1  0  0  0  0
 24 27  1  0  0  0  0
 24 28  1  0  0  0  0
 25 28  1  0  0  0  0
 26 29  2  0  0  0  0
 29 31  1  0  0  0  0
 29 30  1  0  0  0  0
 30 25  1  0  0  0  0
 31 24  1  0  0  0  0
M  END
>  <MODEL>
4

>  <REMARK>
 VINA RESULT:      -7.3      1.413      1.875
  Name = 
  3 active torsions:
  status: ('A' for Active; 'I' for Inactive)
    1  A    between atoms: C_5  and  C_16
    2  A    between atoms: C_5  and  N_30
    3  A    between atoms: N_10  and  C_16
                            x       y       z     vdW  Elec       q    Type
                         _______ _______ _______ _____ _____    ______ ____

>  <TORSDO>
F 3

$$$$
=
 OpenBabel11112416523D

 31 35  0  0  1  0  0  0  0  0999 V2000
  186.1880  177.8310  140.9480 C   0  0  0  0  0  0  0  0  0  0  0  0
  188.3810  177.6450  143.9950 N   0  0  0  0  0  0  0  0  0  0  0  0
  187.5490  177.8030  145.1730 C   0  0  0  0  0  0  0  0  0  0  0  0
  185.3880  178.1870  146.2290 C   0  0  0  0  0  0  0  0  0  0  0  0
  187.8080  177.3790  142.7010 C   0  0  0  0  0  0  0  0  0  0  0  0
  186.7280  176.7970  140.1780 C   0  0  0  0  0  3  0  0  0  0  0  0
  186.1820  178.1160  145.0810 C   0  0  0  0  0  3  0  0  0  0  0  0
  189.8480  175.7650  143.8200 N   0  0  0  0  0  0  0  0  0  0  0  0
  184.8350  178.7590  140.3420 Cl  0  0  0  0  0  0  0  0  0  0  0  0
  189.4550  177.2600  146.5600 O   0  0  0  0  0  0  0  0  0  0  0  0
  183.9450  178.5210  146.1110 C   0  0  0  0  0  1  0  0  0  0  0  0
  189.5780  175.5980  142.3830 C   0  0  0  0  0  2  0  0  0  0  0  0
  189.7770  177.2000  144.1360 C   0  0  2  0  0  3  0  0  0  0  0  0
  186.7290  178.1250  142.2030 C   0  0  0  0  0  3  0  0  0  0  0  0
  185.9470  177.9300  147.4820 C   0  0  0  0  0  3  0  0  0  0  0  0
  188.3500  176.3400  141.9190 C   0  0  0  0  0  0  0  0  0  0  0  0
  187.8120  176.0580  140.6600 C   0  0  0  0  0  3  0  0  0  0  0  0
  190.3640  177.5670  145.5110 C   0  0  0  0  0  2  0  0  0  0  0  0
  188.1040  177.5650  146.4440 C   0  0  0  0  0  0  0  0  0  0  0  0
  187.3040  177.6160  147.5890 C   0  0  0  0  0  3  0  0  0  0  0  0
  191.2060  175.2750  144.0260 C   0  0  0  0  0  2  0  0  0  0  0  0
  189.7590  173.7510  145.3870 C   0  0  0  0  0  1  0  0  0  0  0  0
  191.1820  174.0830  144.9720 C   0  0  1  0  0  3  0  0  0  0  0  0
  193.0820  170.7630  143.0610 N   0  0  0  0  0  0  0  0  0  0  0  0
  191.2040  172.3030  143.2200 C   0  0  0  0  0  2  0  0  0  0  0  0
  193.7590  173.0290  145.7430 O   0  0  0  0  0  0  0  0  0  0  0  0
  193.4200  169.3770  142.7950 C   0  0  0  0  0  1  0  0  0  0  0  0
  191.6250  170.8430  143.0830 C   0  0  0  0  0  2  0  0  0  0  0  0
  193.1020  172.4070  144.8670 C   0  0  0  0  0  0  0  0  0  0  0  0
  191.8470  172.9230  144.3770 N   0  0  0  0  0  0  0  0  0  0  0  0
  193.5860  171.0660  144.4000 C   0  0  0  0  0  2  0  0  0  0  0  0
  1 14  1  0  0  0  0
  2 13  1  0  0  0  0
  2  3  1  0  0  0  0
  3 19  1  0  0  0  0
  4 15  2  0  0  0  0
  5  2  1  0  0  0  0
  6 17  1  0  0  0  0
  6  1  2  0  0  0  0
  7  3  2  0  0  0  0
  7  4  1  0  0  0  0
  8 21  1  0  0  0  0
  8 13  1  0  0  0  0
  9  1  1  0  0  0  0
 11  4  1  0  0  0  0
 12  8  1  0  0  0  0
 13 18  1  1  0  0  0
 14  5  2  0  0  0  0
 15 20  1  0  0  0  0
 16 12  1  0  0  0  0
 16  5  1  0  0  0  0
 17 16  2  0  0  0  0
 18 10  1  0  0  0  0
 19 10  1  0  0  0  0
 19 20  2  0  0  0  0
 21 23  1  0  0  0  0
 23 22  1  6  0  0  0
 24 28  1  0  0  0  0
 24 31  1  0  0  0  0
 25 30  1  0  0  0  0
 27 24  1  0  0  0  0
 28 25  1  0  0  0  0
 29 26  2  0  0  0  0
 30 29  1  0  0  0  0
 30 23  1  0  0  0  0
 31 29  1  0  0  0  0
M  END
>  <MODEL>
5

>  <REMARK>
 VINA RESULT:      -7.3      2.633      4.711
  Name = 
  3 active torsions:
  status: ('A' for Active; 'I' for Inactive)
    1  A    between atoms: C_5  and  C_16
    2  A    between atoms: C_5  and  N_30
    3  A    between atoms: N_10  and  C_16
                            x       y       z     vdW  Elec       q    Type
                         _______ _______ _______ _____ _____    ______ ____

>  <TORSDO>
F 3

$$$$
=
 OpenBabel11112416523D

 31 35  0  0  1  0  0  0  0  0999 V2000
  185.9550  178.8940  143.0250 C   0  0  0  0  0  0  0  0  0  0  0  0
  188.7890  176.4390  143.2940 N   0  0  0  0  0  0  0  0  0  0  0  0
  188.8360  175.9360  144.6540 C   0  0  0  0  0  0  0  0  0  0  0  0
  188.0220  175.8960  146.9490 C   0  0  0  0  0  0  0  0  0  0  0  0
  187.6470  177.1650  142.8020 C   0  0  0  0  0  0  0  0  0  0  0  0
  185.4120  178.5270  141.7910 C   0  0  0  0  0  3  0  0  0  0  0  0
  188.0100  176.4520  145.6660 C   0  0  0  0  0  3  0  0  0  0  0  0
  188.7040  174.9060  141.4620 N   0  0  0  0  0  0  0  0  0  0  0  0
  185.2390  180.1990  143.9430 Cl  0  0  0  0  0  0  0  0  0  0  0  0
  190.5100  174.3270  143.9720 O   0  0  0  0  0  0  0  0  0  0  0  0
  187.1430  176.4570  148.0070 C   0  0  0  0  0  1  0  0  0  0  0  0
  187.7630  175.7480  140.7080 C   0  0  0  0  0  2  0  0  0  0  0  0
  189.5860  175.7880  142.2410 C   0  0  2  0  0  3  0  0  0  0  0  0
  187.0720  178.2190  143.5270 C   0  0  0  0  0  3  0  0  0  0  0  0
  188.8490  174.8080  147.2310 C   0  0  0  0  0  3  0  0  0  0  0  0
  187.0970  176.8020  141.5560 C   0  0  0  0  0  0  0  0  0  0  0  0
  185.9860  177.4880  141.0550 C   0  0  0  0  0  3  0  0  0  0  0  0
  190.8300  175.0830  142.8120 C   0  0  0  0  0  2  0  0  0  0  0  0
  189.6790  174.8500  144.9570 C   0  0  0  0  0  0  0  0  0  0  0  0
  189.6750  174.2830  146.2340 C   0  0  0  0  0  3  0  0  0  0  0  0
  189.4800  174.1850  140.4590 C   0  0  0  0  0  2  0  0  0  0  0  0
  188.3100  172.5430  138.9740 C   0  0  0  0  0  1  0  0  0  0  0  0
  188.9560  172.7610  140.3320 C   0  0  1  0  0  3  0  0  0  0  0  0
  192.1740  170.0160  140.9570 N   0  0  0  0  0  0  0  0  0  0  0  0
  190.9160  171.4760  139.4700 C   0  0  0  0  0  2  0  0  0  0  0  0
  189.5680  171.5370  142.8760 O   0  0  0  0  0  0  0  0  0  0  0  0
  192.8610  168.7400  141.0130 C   0  0  0  0  0  1  0  0  0  0  0  0
  191.5400  170.0950  139.6440 C   0  0  0  0  0  2  0  0  0  0  0  0
  190.2140  171.1570  141.8640 C   0  0  0  0  0  0  0  0  0  0  0  0
  190.0160  171.7840  140.5800 N   0  0  0  0  0  0  0  0  0  0  0  0
  191.1280  169.9730  141.9780 C   0  0  0  0  0  2  0  0  0  0  0  0
  1 14  1  0  0  0  0
  1  9  1  0  0  0  0
  2  3  1  0  0  0  0
  3 19  2  0  0  0  0
  3  7  1  0  0  0  0
  4 15  1  0  0  0  0
  4 11  1  0  0  0  0
  5  2  1  0  0  0  0
  5 14  2  0  0  0  0
  6  1  2  0  0  0  0
  7  4  2  0  0  0  0
  8 13  1  0  0  0  0
 10 19  1  0  0  0  0
 12  8  1  0  0  0  0
 12 16  1  0  0  0  0
 13 18  1  1  0  0  0
 13  2  1  0  0  0  0
 16  5  1  0  0  0  0
 17 16  2  0  0  0  0
 17  6  1  0  0  0  0
 18 10  1  0  0  0  0
 19 20  1  0  0  0  0
 20 15  2  0  0  0  0
 21  8  1  0  0  0  0
 23 22  1  6  0  0  0
 23 21  1  0  0  0  0
 23 30  1  0  0  0  0
 24 27  1  0  0  0  0
 24 31  1  0  0  0  0
 25 28  1  0  0  0  0
 25 30  1  0  0  0  0
 28 24  1  0  0  0  0
 29 31  1  0  0  0  0
 29 26  2  0  0  0  0
 30 29  1  0  0  0  0
M  END
>  <MODEL>
6

>  <REMARK>
 VINA RESULT:      -7.1      2.973      5.448
  Name = 
  3 active torsions:
  status: ('A' for Active; 'I' for Inactive)
    1  A    between atoms: C_5  and  C_16
    2  A    between atoms: C_5  and  N_30
    3  A    between atoms: N_10  and  C_16
                            x       y       z     vdW  Elec       q    Type
                         _______ _______ _______ _____ _____    ______ ____

>  <TORSDO>
F 3

$$$$
=
 OpenBabel11112416523D

 31 35  0  0  1  0  0  0  0  0999 V2000
  187.1560  177.2860  146.9440 C   0  0  0  0  0  0  0  0  0  0  0  0
  187.8680  176.0750  143.4580 N   0  0  0  0  0  0  0  0  0  0  0  0
  186.8950  176.6650  142.5570 C   0  0  0  0  0  0  0  0  0  0  0  0
  184.9390  178.0510  142.1320 C   0  0  0  0  0  0  0  0  0  0  0  0
  188.0430  176.5670  144.8000 C   0  0  0  0  0  0  0  0  0  0  0  0
  188.4520  177.5410  147.3980 C   0  0  0  0  0  3  0  0  0  0  0  0
  185.8170  177.4320  143.0270 C   0  0  0  0  0  3  0  0  0  0  0  0
  190.2030  176.2880  142.9910 N   0  0  0  0  0  0  0  0  0  0  0  0
  185.7880  177.5790  147.9930 Cl  0  0  0  0  0  0  0  0  0  0  0  0
  188.1330  175.7710  140.6790 O   0  0  0  0  0  0  0  0  0  0  0  0
  183.8020  178.8570  142.6490 C   0  0  0  0  0  1  0  0  0  0  0  0
  190.5420  176.4810  144.4090 C   0  0  0  0  0  2  0  0  0  0  0  0
  189.0470  175.3810  142.9150 C   0  0  2  0  0  3  0  0  0  0  0  0
  186.9510  176.7950  145.6510 C   0  0  0  0  0  3  0  0  0  0  0  0
  185.1390  177.9250  140.7570 C   0  0  0  0  0  3  0  0  0  0  0  0
  189.3480  176.8220  145.2650 C   0  0  0  0  0  0  0  0  0  0  0  0
  189.5470  177.3030  146.5630 C   0  0  0  0  0  3  0  0  0  0  0  0
  188.7870  174.8170  141.5060 C   0  0  0  0  0  2  0  0  0  0  0  0
  187.0750  176.5300  141.1680 C   0  0  0  0  0  0  0  0  0  0  0  0
  186.2090  177.1670  140.2740 C   0  0  0  0  0  3  0  0  0  0  0  0
  191.3720  175.6580  142.3880 C   0  0  0  0  0  2  0  0  0  0  0  0
  192.1100  173.4560  143.3230 C   0  0  0  0  0  1  0  0  0  0  0  0
  192.1950  174.9660  143.4650 C   0  0  1  0  0  3  0  0  0  0  0  0
  196.2010  176.4510  143.2930 N   0  0  0  0  0  0  0  0  0  0  0  0
  194.1160  175.8930  142.1670 C   0  0  0  0  0  2  0  0  0  0  0  0
  193.9240  175.2300  145.7650 O   0  0  0  0  0  0  0  0  0  0  0  0
  197.6430  176.4150  143.1380 C   0  0  0  0  0  1  0  0  0  0  0  0
  195.6360  175.7680  142.1330 C   0  0  0  0  0  2  0  0  0  0  0  0
  194.4120  175.4580  144.6270 C   0  0  0  0  0  0  0  0  0  0  0  0
  193.5840  175.4250  143.4450 N   0  0  0  0  0  0  0  0  0  0  0  0
  195.8910  175.6710  144.4910 C   0  0  0  0  0  2  0  0  0  0  0  0
  1  6  1  0  0  0  0
  1  9  1  0  0  0  0
  2  5  1  0  0  0  0
  3  7  1  0  0  0  0
  3  2  1  0  0  0  0
  4 11  1  0  0  0  0
  4  7  2  0  0  0  0
  5 16  2  0  0  0  0
  5 14  1  0  0  0  0
  8 12  1  0  0  0  0
 10 19  1  0  0  0  0
 10 18  1  0  0  0  0
 12 16  1  0  0  0  0
 13 18  1  6  0  0  0
 13  8  1  0  0  0  0
 13  2  1  0  0  0  0
 14  1  2  0  0  0  0
 15  4  1  0  0  0  0
 16 17  1  0  0  0  0
 17  6  2  0  0  0  0
 19  3  2  0  0  0  0
 20 15  2  0  0  0  0
 20 19  1  0  0  0  0
 21  8  1  0  0  0  0
 21 23  1  0  0  0  0
 23 22  1  6  0  0  0
 24 31  1  0  0  0  0
 25 30  1  0  0  0  0
 27 24  1  0  0  0  0
 28 25  1  0  0  0  0
 28 24  1  0  0  0  0
 29 26  2  0  0  0  0
 30 23  1  0  0  0  0
 30 29  1  0  0  0  0
 31 29  1  0  0  0  0
M  END
>  <MODEL>
7

>  <REMARK>
 VINA RESULT:      -7.1      1.922      2.766
  Name = 
  3 active torsions:
  status: ('A' for Active; 'I' for Inactive)
    1  A    between atoms: C_5  and  C_16
    2  A    between atoms: C_5  and  N_30
    3  A    between atoms: N_10  and  C_16
                            x       y       z     vdW  Elec       q    Type
                         _______ _______ _______ _____ _____    ______ ____

>  <TORSDO>
F 3

$$$$
=
 OpenBabel11112416523D

 31 35  0  0  1  0  0  0  0  0999 V2000
  186.1650  177.3770  142.5620 C   0  0  0  0  0  0  0  0  0  0  0  0
  188.5730  174.4940  142.6640 N   0  0  0  0  0  0  0  0  0  0  0  0
  188.8450  174.0710  141.3020 C   0  0  0  0  0  0  0  0  0  0  0  0
  188.4940  174.2450  138.8990 C   0  0  0  0  0  0  0  0  0  0  0  0
  187.9260  175.7490  142.9450 C   0  0  0  0  0  0  0  0  0  0  0  0
  186.7240  178.2160  143.5290 C   0  0  0  0  0  3  0  0  0  0  0  0
  188.1590  174.6160  140.2040 C   0  0  0  0  0  3  0  0  0  0  0  0
  190.3880  175.0100  144.1320 N   0  0  0  0  0  0  0  0  0  0  0  0
  184.7170  177.8680  141.7110 Cl  0  0  0  0  0  0  0  0  0  0  0  0
  190.5640  172.5850  142.1350 O   0  0  0  0  0  0  0  0  0  0  0  0
  187.7550  174.8310  137.7500 C   0  0  0  0  0  1  0  0  0  0  0  0
  189.6720  176.1450  144.7340 C   0  0  0  0  0  2  0  0  0  0  0  0
  189.3990  173.9830  143.7700 C   0  0  2  0  0  3  0  0  0  0  0  0
  186.7600  176.1460  142.2740 C   0  0  0  0  0  3  0  0  0  0  0  0
  189.5300  173.3380  138.6750 C   0  0  0  0  0  3  0  0  0  0  0  0
  188.4840  176.5970  143.9220 C   0  0  0  0  0  0  0  0  0  0  0  0
  187.8780  177.8230  144.2130 C   0  0  0  0  0  3  0  0  0  0  0  0
  190.0130  172.6100  143.4450 C   0  0  0  0  0  2  0  0  0  0  0  0
  189.8750  173.1420  141.0630 C   0  0  0  0  0  0  0  0  0  0  0  0
  190.2220  172.7890  139.7570 C   0  0  0  0  0  3  0  0  0  0  0  0
  191.2740  174.5050  145.1740 C   0  0  0  0  0  2  0  0  0  0  0  0
  192.3920  175.6780  147.0830 C   0  0  0  0  0  1  0  0  0  0  0  0
  192.2680  175.5870  145.5720 C   0  0  1  0  0  3  0  0  0  0  0  0
  196.0600  174.7530  143.7810 N   0  0  0  0  0  0  0  0  0  0  0  0
  194.4990  174.4680  145.6280 C   0  0  0  0  0  2  0  0  0  0  0  0
  193.0970  176.5940  142.9940 O   0  0  0  0  0  0  0  0  0  0  0  0
  197.4680  174.9200  143.4750 C   0  0  0  0  0  1  0  0  0  0  0  0
  195.9410  174.7780  145.2360 C   0  0  0  0  0  2  0  0  0  0  0  0
  193.9420  175.9650  143.6850 C   0  0  0  0  0  0  0  0  0  0  0  0
  193.5700  175.3650  144.9430 N   0  0  0  0  0  0  0  0  0  0  0  0
  195.3730  175.9240  143.2370 C   0  0  0  0  0  2  0  0  0  0  0  0
  1  6  1  0  0  0  0
  2  5  1  0  0  0  0
  2 13  1  0  0  0  0
  3  2  1  0  0  0  0
  4  7  1  0  0  0  0
  5 16  2  0  0  0  0
  6 17  2  0  0  0  0
  7  3  2  0  0  0  0
  8 12  1  0  0  0  0
  8 21  1  0  0  0  0
  9  1  1  0  0  0  0
 10 18  1  0  0  0  0
 11  4  1  0  0  0  0
 13 18  1  6  0  0  0
 13  8  1  0  0  0  0
 14  1  2  0  0  0  0
 14  5  1  0  0  0  0
 15  4  2  0  0  0  0
 15 20  1  0  0  0  0
 16 17  1  0  0  0  0
 16 12  1  0  0  0  0
 19  3  1  0  0  0  0
 19 10  1  0  0  0  0
 20 19  2  0  0  0  0
 21 23  1  0  0  0  0
 23 22  1  1  0  0  0
 24 28  1  0  0  0  0
 26 29  2  0  0  0  0
 27 24  1  0  0  0  0
 28 25  1  0  0  0  0
 29 30  1  0  0  0  0
 30 23  1  0  0  0  0
 30 25  1  0  0  0  0
 31 29  1  0  0  0  0
 31 24  1  0  0  0  0
M  END
>  <MODEL>
8

>  <REMARK>
 VINA RESULT:      -6.9      2.232      3.082
  Name = 
  3 active torsions:
  status: ('A' for Active; 'I' for Inactive)
    1  A    between atoms: C_5  and  C_16
    2  A    between atoms: C_5  and  N_30
    3  A    between atoms: N_10  and  C_16
                            x       y       z     vdW  Elec       q    Type
                         _______ _______ _______ _____ _____    ______ ____

>  <TORSDO>
F 3

$$$$
=
 OpenBabel11112416523D

 31 35  0  0  1  0  0  0  0  0999 V2000
  186.2630  178.3380  146.3090 C   0  0  0  0  0  0  0  0  0  0  0  0
  189.1710  177.0900  144.2820 N   0  0  0  0  0  0  0  0  0  0  0  0
  190.2760  176.8150  145.1800 C   0  0  0  0  0  0  0  0  0  0  0  0
  191.2680  176.7910  147.4040 C   0  0  0  0  0  0  0  0  0  0  0  0
  187.8350  177.2990  144.7770 C   0  0  0  0  0  0  0  0  0  0  0  0
  185.2100  177.6470  145.7030 C   0  0  0  0  0  3  0  0  0  0  0  0
  190.2190  177.1350  146.5470 C   0  0  0  0  0  3  0  0  0  0  0  0
  188.4280  175.4010  142.7610 N   0  0  0  0  0  0  0  0  0  0  0  0
  185.9450  179.4160  147.6500 Cl  0  0  0  0  0  0  0  0  0  0  0  0
  191.4920  175.8220  143.3390 O   0  0  0  0  0  0  0  0  0  0  0  0
  191.1910  177.1390  148.8460 C   0  0  0  0  0  1  0  0  0  0  0  0
  187.0120  175.7540  142.9480 C   0  0  0  0  0  2  0  0  0  0  0  0
  189.2280  176.6300  142.8840 C   0  0  2  0  0  3  0  0  0  0  0  0
  187.5700  178.1690  145.8450 C   0  0  0  0  0  3  0  0  0  0  0  0
  192.3800  176.1070  146.9080 C   0  0  0  0  0  3  0  0  0  0  0  0
  186.7690  176.6080  144.1670 C   0  0  0  0  0  0  0  0  0  0  0  0
  185.4620  176.7900  144.6290 C   0  0  0  0  0  3  0  0  0  0  0  0
  190.6760  176.4860  142.3830 C   0  0  0  0  0  2  0  0  0  0  0  0
  191.4110  176.1430  144.6900 C   0  0  0  0  0  0  0  0  0  0  0  0
  192.4500  175.7810  145.5510 C   0  0  0  0  0  3  0  0  0  0  0  0
  188.5280  174.8740  141.4050 C   0  0  0  0  0  2  0  0  0  0  0  0
  188.2760  172.7490  140.1060 C   0  0  0  0  0  1  0  0  0  0  0  0
  188.6370  173.3570  141.4500 C   0  0  1  0  0  3  0  0  0  0  0  0
  192.6010  172.2880  142.6430 N   0  0  0  0  0  0  0  0  0  0  0  0
  191.0780  173.1620  140.9580 C   0  0  0  0  0  2  0  0  0  0  0  0
  189.3170  172.3100  144.0560 O   0  0  0  0  0  0  0  0  0  0  0  0
  193.7740  171.4520  142.8170 C   0  0  0  0  0  1  0  0  0  0  0  0
  192.2230  172.1940  141.2360 C   0  0  0  0  0  2  0  0  0  0  0  0
  190.2200  172.3500  143.1790 C   0  0  0  0  0  0  0  0  0  0  0  0
  189.9700  172.9360  141.8840 N   0  0  0  0  0  0  0  0  0  0  0  0
  191.5400  171.6920  143.4530 C   0  0  0  0  0  2  0  0  0  0  0  0
  1  9  1  0  0  0  0
  2  5  1  0  0  0  0
  2  3  1  0  0  0  0
  3  7  1  0  0  0  0
  4 11  1  0  0  0  0
  5 14  2  0  0  0  0
  6  1  2  0  0  0  0
  7  4  2  0  0  0  0
  8 13  1  0  0  0  0
  8 12  1  0  0  0  0
 10 19  1  0  0  0  0
 12 16  1  0  0  0  0
 13 18  1  1  0  0  0
 13  2  1  0  0  0  0
 14  1  1  0  0  0  0
 15  4  1  0  0  0  0
 16 17  2  0  0  0  0
 16  5  1  0  0  0  0
 17  6  1  0  0  0  0
 18 10  1  0  0  0  0
 19  3  2  0  0  0  0
 19 20  1  0  0  0  0
 20 15  2  0  0  0  0
 21 23  1  0  0  0  0
 21  8  1  0  0  0  0
 23 22  1  6  0  0  0
 23 30  1  0  0  0  0
 24 27  1  0  0  0  0
 24 31  1  0  0  0  0
 25 28  1  0  0  0  0
 25 30  1  0  0  0  0
 28 24  1  0  0  0  0
 29 31  1  0  0  0  0
 29 26  2  0  0  0  0
 30 29  1  0  0  0  0
M  END
>  <MODEL>
9

>  <REMARK>
 VINA RESULT:      -6.9      2.165      4.836
  Name = 
  3 active torsions:
  status: ('A' for Active; 'I' for Inactive)
    1  A    between atoms: C_5  and  C_16
    2  A    between atoms: C_5  and  N_30
    3  A    between atoms: N_10  and  C_16
                            x       y       z     vdW  Elec       q    Type
                         _______ _______ _______ _____ _____    ______ ____

>  <TORSDO>
F 3

$$$$
