=
 OpenBabel11112416253D

 30 35  0  0  1  0  0  0  0  0999 V2000
  189.9120  175.8100  143.8390 C   0  0  2  0  0  3  0  0  0  0  0  0
  191.6630  175.1280  145.5790 C   0  0  0  0  0  0  0  0  0  0  0  0
  187.3930  176.8310  146.6830 O   0  0  0  0  0  0  0  0  0  0  0  0
  188.4040  176.1310  143.8200 C   0  0  2  0  0  3  0  0  0  0  0  0
  190.1330  174.5780  143.2010 O   0  0  0  0  0  0  0  0  0  0  0  0
  188.2130  175.0730  140.1790 O   0  0  0  0  0  1  0  0  0  0  0  0
  186.4000  178.1400  142.2000 C   0  0  2  0  0  3  0  0  0  0  0  0
  188.4560  174.8880  141.5440 C   0  0  1  0  0  3  0  0  0  0  0  0
  185.7810  177.5510  143.4630 C   0  0  2  0  0  3  0  0  0  0  0  0
  186.2810  177.1630  145.9370 C   0  0  0  0  0  0  0  0  0  0  0  0
  189.9540  174.8050  141.8280 C   0  0  2  0  0  3  0  0  0  0  0  0
  187.8110  176.0030  142.3880 C   0  0  2  0  0  3  0  0  0  0  0  0
  192.1140  175.1170  146.8620 N   0  0  0  0  0  0  0  0  0  0  0  0
  184.4200  178.1910  143.5870 C   0  0  0  0  0  2  0  0  0  0  0  0
  185.0870  178.3050  140.9560 S   0  0  0  0  0  0  0  0  0  0  0  0
  192.4510  174.5000  144.5730 N   0  0  0  0  0  1  0  0  0  0  0  0
  188.5550  177.3120  146.0280 C   0  0  2  0  0  3  0  0  0  0  0  0
  191.4460  175.7390  147.8670 C   0  0  0  0  0  3  0  0  0  0  0  0
  190.4440  175.7720  145.2610 C   0  0  0  0  0  0  0  0  0  0  0  0
  188.1500  177.4740  144.5510 C   0  0  2  0  0  3  0  0  0  0  0  0
  185.1030  176.9480  146.3230 O   0  0  0  0  0  0  0  0  0  0  0  0
  186.6580  177.8570  144.6790 C   0  0  1  0  0  3  0  0  0  0  0  0
  183.7840  178.1170  142.2150 C   0  0  0  0  0  2  0  0  0  0  0  0
  188.7330  178.1000  141.6020 O   0  0  0  0  0  1  0  0  0  0  0  0
  190.2700  176.4320  147.5960 C   0  0  0  0  0  3  0  0  0  0  0  0
  189.7700  176.4640  146.2930 C   0  0  0  0  0  0  0  0  0  0  0  0
  187.5730  177.3240  141.6370 C   0  0  2  0  0  3  0  0  0  0  0  0
  190.5760  173.6590  141.0440 C   0  0  0  0  0  2  0  0  0  0  0  0
  189.7980  171.5490  141.8150 O   0  0  0  0  0  1  0  0  0  0  0  0
  190.8290  172.4780  141.9590 C   0  0  0  0  0  2  0  0  0  0  0  0
  1  5  1  1  0  0  0
  1 19  1  0  0  0  0
  2 13  1  0  0  0  0
  4  1  1  0  0  0  0
  4 20  1  0  0  0  0
  6  8  1  0  0  0  0
  7  9  1  0  0  0  0
  8 11  1  0  0  0  0
  8 12  1  0  0  0  0
  9 14  1  0  0  0  0
  9 22  1  0  0  0  0
 10 21  2  0  0  0  0
 10  3  1  0  0  0  0
 11  5  1  0  0  0  0
 12  4  1  0  0  0  0
 13 18  2  0  0  0  0
 15  7  1  0  0  0  0
 15 23  1  0  0  0  0
 16  2  1  0  0  0  0
 17 26  1  0  0  0  0
 17  3  1  0  0  0  0
 19  2  2  0  0  0  0
 19 26  1  0  0  0  0
 20 22  1  0  0  0  0
 20 17  1  0  0  0  0
 22 10  1  0  0  0  0
 23 14  1  0  0  0  0
 24 27  1  0  0  0  0
 25 18  1  0  0  0  0
 26 25  2  0  0  0  0
 27  7  1  0  0  0  0
 27 12  1  0  0  0  0
 28 11  1  0  0  0  0
 28 30  1  0  0  0  0
 29 30  1  0  0  0  0
M  END
>  <MODEL>
1

>  <REMARK>
 VINA RESULT:      -8.7      0.000      0.000
  Name = 
  2 active torsions:
  status: ('A' for Active; 'I' for Inactive)
    1  A    between atoms: C_11  and  C_28
    2  A    between atoms: C_28  and  C_30
                            x       y       z     vdW  Elec       q    Type
                         _______ _______ _______ _____ _____    ______ ____

>  <TORSDO>
F 2

$$$$
=
 OpenBabel11112416253D

 30 35  0  0  1  0  0  0  0  0999 V2000
  186.4900  177.2410  143.6880 C   0  0  2  0  0  3  0  0  0  0  0  0
  185.1770  178.5210  145.4760 C   0  0  0  0  0  0  0  0  0  0  0  0
  189.7120  177.2710  145.9440 O   0  0  0  0  0  0  0  0  0  0  0  0
  187.9660  176.9160  143.3870 C   0  0  2  0  0  3  0  0  0  0  0  0
  186.0160  178.1670  142.7430 O   0  0  0  0  0  0  0  0  0  0  0  0
  187.1580  176.6040  139.6910 O   0  0  0  0  0  1  0  0  0  0  0  0
  189.6630  174.4370  142.1010 C   0  0  2  0  0  3  0  0  0  0  0  0
  187.2480  177.2660  140.9200 C   0  0  1  0  0  3  0  0  0  0  0  0
  190.5260  175.4300  142.8720 C   0  0  2  0  0  3  0  0  0  0  0  0
  190.6270  176.6810  145.0970 C   0  0  0  0  0  0  0  0  0  0  0  0
  185.8660  177.4630  141.5380 C   0  0  2  0  0  3  0  0  0  0  0  0
  188.1730  176.5170  141.8980 C   0  0  2  0  0  3  0  0  0  0  0  0
  185.0590  178.9940  146.7460 N   0  0  0  0  0  0  0  0  0  0  0  0
  191.9230  174.8590  142.8500 C   0  0  0  0  0  2  0  0  0  0  0  0
  190.6340  173.8230  140.6950 S   0  0  0  0  0  0  0  0  0  0  0  0
  184.1140  178.7570  144.5580 N   0  0  0  0  0  1  0  0  0  0  0  0
  188.4670  176.6020  145.8250 C   0  0  2  0  0  3  0  0  0  0  0  0
  186.0060  178.7630  147.6910 C   0  0  0  0  0  3  0  0  0  0  0  0
  186.3270  177.7900  145.0940 C   0  0  0  0  0  0  0  0  0  0  0  0
  188.5040  175.9190  144.4460 C   0  0  2  0  0  3  0  0  0  0  0  0
  191.8420  177.0050  145.0610 O   0  0  0  0  0  0  0  0  0  0  0  0
  190.0070  175.5880  144.3030 C   0  0  1  0  0  3  0  0  0  0  0  0
  192.1900  174.4320  141.4220 C   0  0  0  0  0  2  0  0  0  0  0  0
  187.2590  174.2900  142.1600 O   0  0  0  0  0  1  0  0  0  0  0  0
  187.1300  178.0040  147.3810 C   0  0  0  0  0  3  0  0  0  0  0  0
  187.2910  177.5030  146.0870 C   0  0  0  0  0  0  0  0  0  0  0  0
  188.3240  175.0130  141.6190 C   0  0  2  0  0  3  0  0  0  0  0  0
  184.9770  178.2610  140.5970 C   0  0  0  0  0  2  0  0  0  0  0  0
  182.7130  177.8040  140.0340 O   0  0  0  0  0  1  0  0  0  0  0  0
  183.5400  178.2200  141.0770 C   0  0  0  0  0  2  0  0  0  0  0  0
  1  5  1  6  0  0  0
  1 19  1  0  0  0  0
  2 13  1  0  0  0  0
  4  1  1  0  0  0  0
  4 20  1  0  0  0  0
  6  8  1  0  0  0  0
  7  9  1  0  0  0  0
  8 11  1  0  0  0  0
  8 12  1  0  0  0  0
  9 22  1  0  0  0  0
 10  3  1  0  0  0  0
 11  5  1  0  0  0  0
 12  4  1  0  0  0  0
 13 18  2  0  0  0  0
 14  9  1  0  0  0  0
 15 23  1  0  0  0  0
 15  7  1  0  0  0  0
 16  2  1  0  0  0  0
 17  3  1  0  0  0  0
 17 26  1  0  0  0  0
 19  2  2  0  0  0  0
 19 26  1  0  0  0  0
 20 17  1  0  0  0  0
 21 10  2  0  0  0  0
 22 20  1  0  0  0  0
 22 10  1  0  0  0  0
 23 14  1  0  0  0  0
 25 18  1  0  0  0  0
 26 25  2  0  0  0  0
 27 12  1  0  0  0  0
 27  7  1  0  0  0  0
 27 24  1  0  0  0  0
 28 30  1  0  0  0  0
 28 11  1  0  0  0  0
 29 30  1  0  0  0  0
M  END
>  <MODEL>
2

>  <REMARK>
 VINA RESULT:      -8.5      3.204      5.683
  Name = 
  2 active torsions:
  status: ('A' for Active; 'I' for Inactive)
    1  A    between atoms: C_11  and  C_28
    2  A    between atoms: C_28  and  C_30
                            x       y       z     vdW  Elec       q    Type
                         _______ _______ _______ _____ _____    ______ ____

>  <TORSDO>
F 2

$$$$
=
 OpenBabel11112416253D

 30 35  0  0  1  0  0  0  0  0999 V2000
  186.8610  177.4280  144.0420 C   0  0  2  0  0  3  0  0  0  0  0  0
  184.7520  178.3290  142.9030 C   0  0  0  0  0  0  0  0  0  0  0  0
  187.8920  175.5200  140.7600 O   0  0  0  0  0  0  0  0  0  0  0  0
  187.9130  176.3350  143.7680 C   0  0  2  0  0  3  0  0  0  0  0  0
  186.0540  177.0340  145.1230 O   0  0  0  0  0  0  0  0  0  0  0  0
  188.5980  176.0420  147.4910 O   0  0  0  0  0  1  0  0  0  0  0  0
  191.1150  175.9110  144.2620 C   0  0  2  0  0  3  0  0  0  0  0  0
  187.8100  175.9870  146.3360 C   0  0  1  0  0  3  0  0  0  0  0  0
  190.5190  174.9290  143.2580 C   0  0  2  0  0  3  0  0  0  0  0  0
  189.0190  174.8510  141.1920 C   0  0  0  0  0  0  0  0  0  0  0  0
  186.8420  177.1660  146.2750 C   0  0  2  0  0  3  0  0  0  0  0  0
  188.6770  175.9380  145.0630 C   0  0  2  0  0  3  0  0  0  0  0  0
  184.0160  178.5510  141.7810 N   0  0  0  0  0  0  0  0  0  0  0  0
  191.6810  174.1120  142.7470 C   0  0  0  0  0  2  0  0  0  0  0  0
  192.4110  175.0430  145.1920 S   0  0  0  0  0  0  0  0  0  0  0  0
  184.2400  178.7770  144.1550 N   0  0  0  0  0  1  0  0  0  0  0  0
  187.8880  176.8280  141.3080 C   0  0  2  0  0  3  0  0  0  0  0  0
  184.4610  178.2010  140.5470 C   0  0  0  0  0  3  0  0  0  0  0  0
  186.0090  177.6860  142.8120 C   0  0  0  0  0  0  0  0  0  0  0  0
  188.7870  176.7480  142.5550 C   0  0  2  0  0  3  0  0  0  0  0  0
  189.3360  173.7030  140.7880 O   0  0  0  0  0  0  0  0  0  0  0  0
  189.8220  175.6840  142.1250 C   0  0  1  0  0  3  0  0  0  0  0  0
  192.4840  173.7010  143.9620 C   0  0  0  0  0  2  0  0  0  0  0  0
  190.0710  177.9180  145.0880 O   0  0  0  0  0  1  0  0  0  0  0  0
  185.7130  177.6150  140.3980 C   0  0  0  0  0  3  0  0  0  0  0  0
  186.4990  177.3660  141.5250 C   0  0  0  0  0  0  0  0  0  0  0  0
  190.0880  176.5280  145.2210 C   0  0  2  0  0  3  0  0  0  0  0  0
  185.9430  177.1730  147.5020 C   0  0  0  0  0  2  0  0  0  0  0  0
  185.9140  179.5500  147.5280 O   0  0  0  0  0  1  0  0  0  0  0  0
  185.0890  178.4250  147.5160 C   0  0  0  0  0  2  0  0  0  0  0  0
  1 19  1  6  0  0  0
  1  5  1  0  0  0  0
  2 16  1  0  0  0  0
  3 10  1  0  0  0  0
  3 17  1  0  0  0  0
  4  1  1  0  0  0  0
  4 12  1  0  0  0  0
  5 11  1  0  0  0  0
  7 15  1  0  0  0  0
  7 27  1  0  0  0  0
  8  6  1  0  0  0  0
  9  7  1  0  0  0  0
 10 22  1  0  0  0  0
 11  8  1  0  0  0  0
 11 28  1  0  0  0  0
 12 27  1  0  0  0  0
 12  8  1  0  0  0  0
 13  2  2  0  0  0  0
 14  9  1  0  0  0  0
 14 23  1  0  0  0  0
 17 26  1  0  0  0  0
 17 20  1  0  0  0  0
 18 13  1  0  0  0  0
 19  2  1  0  0  0  0
 20  4  1  0  0  0  0
 21 10  2  0  0  0  0
 22 20  1  0  0  0  0
 22  9  1  0  0  0  0
 23 15  1  0  0  0  0
 24 27  1  0  0  0  0
 25 18  2  0  0  0  0
 25 26  1  0  0  0  0
 26 19  2  0  0  0  0
 28 30  1  0  0  0  0
 30 29  1  0  0  0  0
M  END
>  <MODEL>
3

>  <REMARK>
 VINA RESULT:      -8.3      3.309      7.007
  Name = 
  2 active torsions:
  status: ('A' for Active; 'I' for Inactive)
    1  A    between atoms: C_11  and  C_28
    2  A    between atoms: C_28  and  C_30
                            x       y       z     vdW  Elec       q    Type
                         _______ _______ _______ _____ _____    ______ ____

>  <TORSDO>
F 2

$$$$
=
 OpenBabel11112416253D

 30 35  0  0  1  0  0  0  0  0999 V2000
  189.6480  174.9320  144.5940 C   0  0  2  0  0  3  0  0  0  0  0  0
  190.9050  172.9900  143.4940 C   0  0  0  0  0  0  0  0  0  0  0  0
  187.8950  175.8090  141.1830 O   0  0  0  0  0  0  0  0  0  0  0  0
  188.8430  176.1620  144.1310 C   0  0  2  0  0  3  0  0  0  0  0  0
  190.8720  175.3560  145.1380 O   0  0  0  0  0  0  0  0  0  0  0  0
  189.7140  177.9620  147.3580 O   0  0  0  0  0  1  0  0  0  0  0  0
  186.2530  177.8630  145.1690 C   0  0  2  0  0  3  0  0  0  0  0  0
  189.9920  177.3210  146.1460 C   0  0  1  0  0  3  0  0  0  0  0  0
  186.6230  178.1450  143.7160 C   0  0  2  0  0  3  0  0  0  0  0  0
  187.1980  176.9470  141.5350 C   0  0  0  0  0  0  0  0  0  0  0  0
  190.5750  175.9300  146.3830 C   0  0  2  0  0  3  0  0  0  0  0  0
  188.7400  177.2340  145.2530 C   0  0  2  0  0  3  0  0  0  0  0  0
  191.0870  172.1400  142.4490 N   0  0  0  0  0  0  0  0  0  0  0  0
  185.5690  179.0940  143.2030 C   0  0  0  0  0  2  0  0  0  0  0  0
  185.6390  179.4080  145.9000 S   0  0  0  0  0  0  0  0  0  0  0  0
  191.7420  172.8540  144.6390 N   0  0  0  0  0  1  0  0  0  0  0  0
  187.8170  174.8690  142.2410 C   0  0  2  0  0  3  0  0  0  0  0  0
  190.2960  172.1730  141.3460 C   0  0  0  0  0  3  0  0  0  0  0  0
  189.8860  173.9700  143.4430 C   0  0  0  0  0  0  0  0  0  0  0  0
  187.5040  175.6990  143.5000 C   0  0  2  0  0  3  0  0  0  0  0  0
  187.0160  177.9130  140.7500 O   0  0  0  0  0  0  0  0  0  0  0  0
  186.6480  176.8440  142.9110 C   0  0  1  0  0  3  0  0  0  0  0  0
  185.4030  180.1650  144.2590 C   0  0  0  0  0  2  0  0  0  0  0  0
  187.0580  176.0380  146.5190 O   0  0  0  0  0  1  0  0  0  0  0  0
  189.2460  173.0820  141.2700 C   0  0  0  0  0  3  0  0  0  0  0  0
  189.0260  173.9760  142.3210 C   0  0  0  0  0  0  0  0  0  0  0  0
  187.4030  177.2910  146.0100 C   0  0  2  0  0  3  0  0  0  0  0  0
  191.8490  176.0260  147.2090 C   0  0  0  0  0  2  0  0  0  0  0  0
  193.9870  176.9940  146.8310 O   0  0  0  0  0  1  0  0  0  0  0  0
  193.0570  176.1020  146.2970 C   0  0  0  0  0  2  0  0  0  0  0  0
  1 19  1  6  0  0  0
  1  5  1  0  0  0  0
  2 16  1  0  0  0  0
  3 10  1  0  0  0  0
  3 17  1  0  0  0  0
  4  1  1  0  0  0  0
  4 12  1  0  0  0  0
  5 11  1  0  0  0  0
  7 15  1  0  0  0  0
  7 27  1  0  0  0  0
  8 11  1  0  0  0  0
  8  6  1  0  0  0  0
  9  7  1  0  0  0  0
 10 22  1  0  0  0  0
 11 28  1  0  0  0  0
 12 27  1  0  0  0  0
 12  8  1  0  0  0  0
 13  2  2  0  0  0  0
 14  9  1  0  0  0  0
 14 23  1  0  0  0  0
 17 26  1  0  0  0  0
 17 20  1  0  0  0  0
 18 13  1  0  0  0  0
 19  2  1  0  0  0  0
 20  4  1  0  0  0  0
 21 10  2  0  0  0  0
 22 20  1  0  0  0  0
 22  9  1  0  0  0  0
 23 15  1  0  0  0  0
 25 18  2  0  0  0  0
 25 26  1  0  0  0  0
 26 19  2  0  0  0  0
 27 24  1  0  0  0  0
 30 29  1  0  0  0  0
 30 28  1  0  0  0  0
M  END
>  <MODEL>
4

>  <REMARK>
 VINA RESULT:      -8.2      2.050      4.771
  Name = 
  2 active torsions:
  status: ('A' for Active; 'I' for Inactive)
    1  A    between atoms: C_11  and  C_28
    2  A    between atoms: C_28  and  C_30
                            x       y       z     vdW  Elec       q    Type
                         _______ _______ _______ _____ _____    ______ ____

>  <TORSDO>
F 2

$$$$
=
 OpenBabel11112416253D

 30 35  0  0  1  0  0  0  0  0999 V2000
  190.0270  175.2290  143.9590 C   0  0  2  0  0  3  0  0  0  0  0  0
  190.9600  173.9970  141.9180 C   0  0  0  0  0  0  0  0  0  0  0  0
  187.1440  176.7820  141.7800 O   0  0  0  0  0  0  0  0  0  0  0  0
  189.0250  176.3700  144.2290 C   0  0  2  0  0  3  0  0  0  0  0  0
  191.3300  175.6830  144.2240 O   0  0  0  0  0  0  0  0  0  0  0  0
  190.8290  177.2030  147.4640 O   0  0  0  0  0  1  0  0  0  0  0  0
  186.8410  177.1470  146.5310 C   0  0  2  0  0  3  0  0  0  0  0  0
  190.7150  177.0350  146.0800 C   0  0  1  0  0  3  0  0  0  0  0  0
  186.6640  177.9320  145.2350 C   0  0  2  0  0  3  0  0  0  0  0  0
  186.5320  177.6020  142.7060 C   0  0  0  0  0  0  0  0  0  0  0  0
  191.4420  175.7740  145.6200 C   0  0  2  0  0  3  0  0  0  0  0  0
  189.2410  177.0000  145.6350 C   0  0  2  0  0  3  0  0  0  0  0  0
  190.8300  173.5640  140.6350 N   0  0  0  0  0  0  0  0  0  0  0  0
  185.4320  178.7790  145.4350 C   0  0  0  0  0  2  0  0  0  0  0  0
  186.4090  178.2440  147.9130 S   0  0  0  0  0  0  0  0  0  0  0  0
  192.1490  173.6690  142.6310 N   0  0  0  0  0  1  0  0  0  0  0  0
  187.5040  175.5620  142.4050 C   0  0  2  0  0  3  0  0  0  0  0  0
  189.7060  173.7910  139.9090 C   0  0  0  0  0  3  0  0  0  0  0  0
  189.9190  174.7360  142.5270 C   0  0  0  0  0  0  0  0  0  0  0  0
  187.5880  175.8850  143.9080 C   0  0  2  0  0  3  0  0  0  0  0  0
  186.0210  178.7140  142.4100 O   0  0  0  0  0  0  0  0  0  0  0  0
  186.5010  176.9750  144.0520 C   0  0  1  0  0  3  0  0  0  0  0  0
  185.5660  179.4170  146.8010 C   0  0  0  0  0  2  0  0  0  0  0  0
  188.1920  175.1770  146.8340 O   0  0  0  0  0  1  0  0  0  0  0  0
  188.6320  174.4660  140.4800 C   0  0  0  0  0  3  0  0  0  0  0  0
  188.7260  174.9310  141.7940 C   0  0  0  0  0  0  0  0  0  0  0  0
  188.2490  176.5670  146.7260 C   0  0  2  0  0  3  0  0  0  0  0  0
  192.9120  175.8440  146.0020 C   0  0  0  0  0  2  0  0  0  0  0  0
  194.5660  177.5390  145.7990 O   0  0  0  0  0  1  0  0  0  0  0  0
  193.6500  176.7830  145.0690 C   0  0  0  0  0  2  0  0  0  0  0  0
  1 19  1  6  0  0  0
  1  5  1  0  0  0  0
  1  4  1  0  0  0  0
  2 19  1  0  0  0  0
  2 16  1  0  0  0  0
  3 17  1  0  0  0  0
  3 10  1  0  0  0  0
  4 12  1  0  0  0  0
  5 11  1  0  0  0  0
  7 27  1  0  0  0  0
  7 15  1  0  0  0  0
  8  6  1  0  0  0  0
  9 14  1  0  0  0  0
  9  7  1  0  0  0  0
 10 22  1  0  0  0  0
 11 28  1  0  0  0  0
 11  8  1  0  0  0  0
 12  8  1  0  0  0  0
 12 27  1  0  0  0  0
 13  2  2  0  0  0  0
 14 23  1  0  0  0  0
 17 20  1  0  0  0  0
 18 25  2  0  0  0  0
 18 13  1  0  0  0  0
 20 22  1  0  0  0  0
 20  4  1  0  0  0  0
 21 10  2  0  0  0  0
 22  9  1  0  0  0  0
 23 15  1  0  0  0  0
 25 26  1  0  0  0  0
 26 17  1  0  0  0  0
 26 19  2  0  0  0  0
 27 24  1  0  0  0  0
 30 29  1  0  0  0  0
 30 28  1  0  0  0  0
M  END
>  <MODEL>
5

>  <REMARK>
 VINA RESULT:      -8.1      2.402      4.974
  Name = 
  2 active torsions:
  status: ('A' for Active; 'I' for Inactive)
    1  A    between atoms: C_11  and  C_28
    2  A    between atoms: C_28  and  C_30
                            x       y       z     vdW  Elec       q    Type
                         _______ _______ _______ _____ _____    ______ ____

>  <TORSDO>
F 2

$$$$
=
 OpenBabel11112416253D

 30 35  0  0  1  0  0  0  0  0999 V2000
  187.6010  176.0460  144.0980 C   0  0  2  0  0  3  0  0  0  0  0  0
  185.6700  177.5700  144.8120 C   0  0  0  0  0  0  0  0  0  0  0  0
  189.6390  177.0180  147.3190 O   0  0  0  0  0  0  0  0  0  0  0  0
  189.0750  175.8330  144.4920 C   0  0  2  0  0  3  0  0  0  0  0  0
  187.5420  176.6450  142.8270 O   0  0  0  0  0  0  0  0  0  0  0  0
  189.8280  174.5130  141.0130 O   0  0  0  0  0  1  0  0  0  0  0  0
  191.1630  173.3270  144.7000 C   0  0  2  0  0  3  0  0  0  0  0  0
  189.4100  175.4670  141.9470 C   0  0  1  0  0  3  0  0  0  0  0  0
  191.6360  174.5760  145.4380 C   0  0  2  0  0  3  0  0  0  0  0  0
  190.8220  176.3460  147.0890 C   0  0  0  0  0  0  0  0  0  0  0  0
  187.8950  175.6490  141.9040 C   0  0  2  0  0  3  0  0  0  0  0  0
  189.8670  175.1010  143.3720 C   0  0  2  0  0  3  0  0  0  0  0  0
  185.0470  178.3280  145.7530 N   0  0  0  0  0  0  0  0  0  0  0  0
  192.9270  174.1860  146.1140 C   0  0  0  0  0  2  0  0  0  0  0  0
  192.6230  172.5000  144.0070 S   0  0  0  0  0  0  0  0  0  0  0  0
  185.0650  177.4420  143.5280 N   0  0  0  0  0  1  0  0  0  0  0  0
  188.5530  176.1990  146.9190 C   0  0  2  0  0  3  0  0  0  0  0  0
  185.5330  178.4540  147.0140 C   0  0  0  0  0  3  0  0  0  0  0  0
  186.8810  176.9070  145.1210 C   0  0  0  0  0  0  0  0  0  0  0  0
  189.1480  175.2020  145.9070 C   0  0  2  0  0  3  0  0  0  0  0  0
  191.9460  176.7920  147.4360 O   0  0  0  0  0  0  0  0  0  0  0  0
  190.5830  175.0250  146.4530 C   0  0  1  0  0  3  0  0  0  0  0  0
  193.7490  173.4500  145.0790 C   0  0  0  0  0  2  0  0  0  0  0  0
  188.9410  172.9190  143.8650 O   0  0  0  0  0  1  0  0  0  0  0  0
  186.6920  177.7790  147.3840 C   0  0  0  0  0  3  0  0  0  0  0  0
  187.3650  176.9930  146.4460 C   0  0  0  0  0  0  0  0  0  0  0  0
  190.1290  173.6030  143.6000 C   0  0  2  0  0  3  0  0  0  0  0  0
  187.4550  176.0770  140.5120 C   0  0  0  0  0  2  0  0  0  0  0  0
  185.7300  177.6670  140.1280 O   0  0  0  0  0  1  0  0  0  0  0  0
  187.0640  177.5410  140.5150 C   0  0  0  0  0  2  0  0  0  0  0  0
  1  5  1  6  0  0  0
  1  4  1  0  0  0  0
  1 19  1  0  0  0  0
  2 19  2  0  0  0  0
  2 13  1  0  0  0  0
  4 20  1  0  0  0  0
  6  8  1  0  0  0  0
  7  9  1  0  0  0  0
  8 12  1  0  0  0  0
  9 14  1  0  0  0  0
  9 22  1  0  0  0  0
 10  3  1  0  0  0  0
 10 21  2  0  0  0  0
 11  8  1  0  0  0  0
 11  5  1  0  0  0  0
 12 27  1  0  0  0  0
 12  4  1  0  0  0  0
 13 18  2  0  0  0  0
 15  7  1  0  0  0  0
 15 23  1  0  0  0  0
 16  2  1  0  0  0  0
 17  3  1  0  0  0  0
 18 25  1  0  0  0  0
 19 26  1  0  0  0  0
 20 22  1  0  0  0  0
 20 17  1  0  0  0  0
 22 10  1  0  0  0  0
 23 14  1  0  0  0  0
 26 17  1  0  0  0  0
 26 25  2  0  0  0  0
 27 24  1  0  0  0  0
 27  7  1  0  0  0  0
 28 30  1  0  0  0  0
 28 11  1  0  0  0  0
 29 30  1  0  0  0  0
M  END
>  <MODEL>
6

>  <REMARK>
 VINA RESULT:      -7.9      3.268      5.734
  Name = 
  2 active torsions:
  status: ('A' for Active; 'I' for Inactive)
    1  A    between atoms: C_11  and  C_28
    2  A    between atoms: C_28  and  C_30
                            x       y       z     vdW  Elec       q    Type
                         _______ _______ _______ _____ _____    ______ ____

>  <TORSDO>
F 2

$$$$
=
 OpenBabel11112416253D

 30 35  0  0  1  0  0  0  0  0999 V2000
  189.0170  176.9550  145.5610 C   0  0  2  0  0  3  0  0  0  0  0  0
  186.8610  177.9150  146.5560 C   0  0  0  0  0  0  0  0  0  0  0  0
  186.9790  175.1760  142.7050 O   0  0  0  0  0  0  0  0  0  0  0  0
  189.4020  175.8680  144.5390 C   0  0  2  0  0  3  0  0  0  0  0  0
  189.3660  176.5240  146.8520 O   0  0  0  0  0  0  0  0  0  0  0  0
  192.7570  175.4210  146.2600 O   0  0  0  0  0  1  0  0  0  0  0  0
  191.7310  175.4040  142.2940 C   0  0  2  0  0  3  0  0  0  0  0  0
  191.3600  175.4170  146.1790 C   0  0  1  0  0  3  0  0  0  0  0  0
  190.5380  174.4680  142.1350 C   0  0  2  0  0  3  0  0  0  0  0  0
  187.9850  174.4830  142.0630 C   0  0  0  0  0  0  0  0  0  0  0  0
  190.7640  176.6040  146.9320 C   0  0  2  0  0  3  0  0  0  0  0  0
  190.8790  175.4140  144.7150 C   0  0  2  0  0  3  0  0  0  0  0  0
  185.5320  178.1870  146.4590 N   0  0  0  0  0  0  0  0  0  0  0  0
  190.8120  173.6650  140.8870 C   0  0  0  0  0  2  0  0  0  0  0  0
  193.2270  174.4910  141.8170 S   0  0  0  0  0  0  0  0  0  0  0  0
  187.5560  178.3150  147.7330 N   0  0  0  0  0  1  0  0  0  0  0  0
  187.4570  176.4600  143.0690 C   0  0  2  0  0  3  0  0  0  0  0  0
  184.8140  177.8850  145.3480 C   0  0  0  0  0  3  0  0  0  0  0  0
  187.5330  177.2690  145.4910 C   0  0  0  0  0  0  0  0  0  0  0  0
  188.9900  176.3240  143.1150 C   0  0  2  0  0  3  0  0  0  0  0  0
  187.8170  173.3500  141.5430 O   0  0  0  0  0  0  0  0  0  0  0  0
  189.2430  175.2720  142.0110 C   0  0  1  0  0  3  0  0  0  0  0  0
  192.2500  173.1990  140.9830 C   0  0  0  0  0  2  0  0  0  0  0  0
  191.8200  177.3820  143.6650 O   0  0  0  0  0  1  0  0  0  0  0  0
  185.4390  177.2970  144.2530 C   0  0  0  0  0  3  0  0  0  0  0  0
  186.8020  176.9980  144.3120 C   0  0  0  0  0  0  0  0  0  0  0  0
  191.8860  175.9880  143.7050 C   0  0  2  0  0  3  0  0  0  0  0  0
  191.1870  176.5660  148.3930 C   0  0  0  0  0  2  0  0  0  0  0  0
  191.5660  177.9160  150.3130 O   0  0  0  0  0  1  0  0  0  0  0  0
  191.2000  177.9690  148.9680 C   0  0  0  0  0  2  0  0  0  0  0  0
  1 19  1  1  0  0  0
  1  5  1  0  0  0  0
  2 16  1  0  0  0  0
  3 17  1  0  0  0  0
  4 12  1  0  0  0  0
  4  1  1  0  0  0  0
  5 11  1  0  0  0  0
  7 27  1  0  0  0  0
  8  6  1  0  0  0  0
  8 11  1  0  0  0  0
  9  7  1  0  0  0  0
 10  3  1  0  0  0  0
 11 28  1  0  0  0  0
 12  8  1  0  0  0  0
 13  2  1  0  0  0  0
 14 23  1  0  0  0  0
 14  9  1  0  0  0  0
 15  7  1  0  0  0  0
 17 20  1  0  0  0  0
 17 26  1  0  0  0  0
 18 13  2  0  0  0  0
 19  2  2  0  0  0  0
 20  4  1  0  0  0  0
 21 10  2  0  0  0  0
 22 10  1  0  0  0  0
 22  9  1  0  0  0  0
 22 20  1  0  0  0  0
 23 15  1  0  0  0  0
 24 27  1  0  0  0  0
 25 26  2  0  0  0  0
 25 18  1  0  0  0  0
 26 19  1  0  0  0  0
 27 12  1  0  0  0  0
 28 30  1  0  0  0  0
 30 29  1  0  0  0  0
M  END
>  <MODEL>
7

>  <REMARK>
 VINA RESULT:      -7.4      3.021      6.168
  Name = 
  2 active torsions:
  status: ('A' for Active; 'I' for Inactive)
    1  A    between atoms: C_11  and  C_28
    2  A    between atoms: C_28  and  C_30
                            x       y       z     vdW  Elec       q    Type
                         _______ _______ _______ _____ _____    ______ ____

>  <TORSDO>
F 2

$$$$
=
 OpenBabel11112416253D

 30 35  0  0  1  0  0  0  0  0999 V2000
  190.4740  174.9070  143.1540 C   0  0  2  0  0  3  0  0  0  0  0  0
  191.4250  173.6860  141.1140 C   0  0  0  0  0  0  0  0  0  0  0  0
  187.4460  176.2360  141.0230 O   0  0  0  0  0  0  0  0  0  0  0  0
  189.4130  175.9930  143.4280 C   0  0  2  0  0  3  0  0  0  0  0  0
  191.7540  175.4430  143.3730 O   0  0  0  0  0  0  0  0  0  0  0  0
  191.2490  177.0060  146.5930 O   0  0  0  0  0  1  0  0  0  0  0  0
  187.2480  176.6930  145.7720 C   0  0  2  0  0  3  0  0  0  0  0  0
  191.1090  176.8000  145.2160 C   0  0  1  0  0  3  0  0  0  0  0  0
  186.9900  177.4350  144.4650 C   0  0  2  0  0  3  0  0  0  0  0  0
  186.8120  177.0400  141.9480 C   0  0  0  0  0  0  0  0  0  0  0  0
  191.8970  175.5740  144.7620 C   0  0  2  0  0  3  0  0  0  0  0  0
  189.6290  176.6670  144.8130 C   0  0  2  0  0  3  0  0  0  0  0  0
  191.2870  173.2170  139.8450 N   0  0  0  0  0  0  0  0  0  0  0  0
  185.7150  178.2130  144.6810 C   0  0  0  0  0  2  0  0  0  0  0  0
  186.7880  177.7940  147.1410 S   0  0  0  0  0  0  0  0  0  0  0  0
  192.6500  173.4460  141.8010 N   0  0  0  0  0  1  0  0  0  0  0  0
  187.8960  175.0540  141.6640 C   0  0  2  0  0  3  0  0  0  0  0  0
  190.1320  173.3600  139.1460 C   0  0  0  0  0  3  0  0  0  0  0  0
  190.3580  174.3760  141.7370 C   0  0  0  0  0  0  0  0  0  0  0  0
  187.9990  175.4160  143.1570 C   0  0  2  0  0  3  0  0  0  0  0  0
  186.2270  178.1120  141.6430 O   0  0  0  0  0  0  0  0  0  0  0  0
  186.8540  176.4430  143.3080 C   0  0  1  0  0  3  0  0  0  0  0  0
  185.8480  178.8880  146.0290 C   0  0  0  0  0  2  0  0  0  0  0  0
  188.7220  174.8130  146.0800 O   0  0  0  0  0  1  0  0  0  0  0  0
  189.0350  173.9830  139.7330 C   0  0  0  0  0  3  0  0  0  0  0  0
  189.1370  174.4830  141.0330 C   0  0  0  0  0  0  0  0  0  0  0  0
  188.6930  176.2020  145.9410 C   0  0  2  0  0  3  0  0  0  0  0  0
  193.3710  175.7390  145.1020 C   0  0  0  0  0  2  0  0  0  0  0  0
  194.5820  173.7560  144.6000 O   0  0  0  0  0  1  0  0  0  0  0  0
  193.9330  174.4350  145.6320 C   0  0  0  0  0  2  0  0  0  0  0  0
  1 19  1  6  0  0  0
  1  5  1  0  0  0  0
  1  4  1  0  0  0  0
  2 19  1  0  0  0  0
  2 16  1  0  0  0  0
  3 17  1  0  0  0  0
  3 10  1  0  0  0  0
  4 12  1  0  0  0  0
  5 11  1  0  0  0  0
  7 27  1  0  0  0  0
  7 15  1  0  0  0  0
  8  6  1  0  0  0  0
  9 14  1  0  0  0  0
  9  7  1  0  0  0  0
 10 22  1  0  0  0  0
 11 28  1  0  0  0  0
 11  8  1  0  0  0  0
 12  8  1  0  0  0  0
 12 27  1  0  0  0  0
 13  2  2  0  0  0  0
 14 23  1  0  0  0  0
 17 20  1  0  0  0  0
 18 25  2  0  0  0  0
 18 13  1  0  0  0  0
 20 22  1  0  0  0  0
 20  4  1  0  0  0  0
 21 10  2  0  0  0  0
 22  9  1  0  0  0  0
 23 15  1  0  0  0  0
 25 26  1  0  0  0  0
 26 17  1  0  0  0  0
 26 19  2  0  0  0  0
 27 24  1  0  0  0  0
 28 30  1  0  0  0  0
 29 30  1  0  0  0  0
M  END
>  <MODEL>
8

>  <REMARK>
 VINA RESULT:      -7.3      2.453      4.910
  Name = 
  2 active torsions:
  status: ('A' for Active; 'I' for Inactive)
    1  A    between atoms: C_11  and  C_28
    2  A    between atoms: C_28  and  C_30
                            x       y       z     vdW  Elec       q    Type
                         _______ _______ _______ _____ _____    ______ ____

>  <TORSDO>
F 2

$$$$
=
 OpenBabel11112416253D

 30 35  0  0  1  0  0  0  0  0999 V2000
  191.6230  175.3450  142.6230 C   0  0  2  0  0  3  0  0  0  0  0  0
  194.1400  175.0400  142.2640 C   0  0  0  0  0  0  0  0  0  0  0  0
  192.2240  176.4160  146.3600 O   0  0  0  0  0  0  0  0  0  0  0  0
  190.6640  175.5080  143.8190 C   0  0  2  0  0  3  0  0  0  0  0  0
  191.4330  174.0780  142.0450 O   0  0  0  0  0  0  0  0  0  0  0  0
  187.8300  174.0380  141.7650 O   0  0  0  0  0  1  0  0  0  0  0  0
  187.8940  177.1130  144.4710 C   0  0  2  0  0  3  0  0  0  0  0  0
  189.0810  174.0320  142.3900 C   0  0  1  0  0  3  0  0  0  0  0  0
  188.6120  176.6080  145.7180 C   0  0  2  0  0  3  0  0  0  0  0  0
  190.9240  176.5500  146.8030 C   0  0  0  0  0  0  0  0  0  0  0  0
  190.2080  174.1320  141.3650 C   0  0  2  0  0  3  0  0  0  0  0  0
  189.1990  175.1630  143.4290 C   0  0  2  0  0  3  0  0  0  0  0  0
  195.4240  175.2170  142.6760 N   0  0  0  0  0  0  0  0  0  0  0  0
  187.8060  177.1170  146.8880 C   0  0  0  0  0  2  0  0  0  0  0  0
  186.1060  177.0050  144.7730 S   0  0  0  0  0  0  0  0  0  0  0  0
  193.9060  174.3870  141.0190 N   0  0  0  0  0  1  0  0  0  0  0  0
  192.3230  176.9360  145.0450 C   0  0  2  0  0  3  0  0  0  0  0  0
  195.7280  175.8760  143.8230 C   0  0  0  0  0  3  0  0  0  0  0  0
  193.0690  175.5190  143.0540 C   0  0  0  0  0  0  0  0  0  0  0  0
  190.8910  176.8920  144.4810 C   0  0  2  0  0  3  0  0  0  0  0  0
  190.5610  176.2600  147.9730 O   0  0  0  0  0  0  0  0  0  0  0  0
  190.0490  177.1340  145.7540 C   0  0  1  0  0  3  0  0  0  0  0  0
  186.3550  176.8280  146.5690 C   0  0  0  0  0  2  0  0  0  0  0  0
  188.8120  177.2420  142.2480 O   0  0  0  0  0  1  0  0  0  0  0  0
  194.7130  176.4130  144.6080 C   0  0  0  0  0  3  0  0  0  0  0  0
  193.3800  176.2490  144.2230 C   0  0  0  0  0  0  0  0  0  0  0  0
  188.2670  176.3620  143.1850 C   0  0  2  0  0  3  0  0  0  0  0  0
  190.1280  172.9750  140.3800 C   0  0  0  0  0  2  0  0  0  0  0  0
  190.4410  170.8830  141.4650 O   0  0  0  0  0  1  0  0  0  0  0  0
  191.1120  171.8900  140.7700 C   0  0  0  0  0  2  0  0  0  0  0  0
  1  5  1  1  0  0  0
  1 19  1  0  0  0  0
  1  4  1  0  0  0  0
  2 13  2  0  0  0  0
  2 19  1  0  0  0  0
  3 10  1  0  0  0  0
  4 20  1  0  0  0  0
  6  8  1  0  0  0  0
  7 15  1  0  0  0  0
  7  9  1  0  0  0  0
  8 12  1  0  0  0  0
  9 22  1  0  0  0  0
  9 14  1  0  0  0  0
 10 21  2  0  0  0  0
 11  5  1  0  0  0  0
 11  8  1  0  0  0  0
 12  4  1  0  0  0  0
 13 18  1  0  0  0  0
 15 23  1  0  0  0  0
 16  2  1  0  0  0  0
 17  3  1  0  0  0  0
 18 25  2  0  0  0  0
 19 26  2  0  0  0  0
 20 17  1  0  0  0  0
 20 22  1  0  0  0  0
 22 10  1  0  0  0  0
 23 14  1  0  0  0  0
 24 27  1  0  0  0  0
 26 25  1  0  0  0  0
 26 17  1  0  0  0  0
 27 12  1  0  0  0  0
 27  7  1  0  0  0  0
 28 30  1  0  0  0  0
 28 11  1  0  0  0  0
 30 29  1  0  0  0  0
M  END
>  <MODEL>
9

>  <REMARK>
 VINA RESULT:      -7.2      2.482      3.612
  Name = 
  2 active torsions:
  status: ('A' for Active; 'I' for Inactive)
    1  A    between atoms: C_11  and  C_28
    2  A    between atoms: C_28  and  C_30
                            x       y       z     vdW  Elec       q    Type
                         _______ _______ _______ _____ _____    ______ ____

>  <TORSDO>
F 2

$$$$
