=
 OpenBabel11112417133D

 37 44  0  0  1  0  0  0  0  0999 V2000
  193.1060  175.1240  143.5410 C   0  0  0  0  0  2  0  0  0  0  0  0
  191.1080  170.7890  141.8480 C   0  0  0  0  0  0  0  0  0  0  0  0
  189.6770  174.7540  142.3980 C   0  0  1  0  0  3  0  0  0  0  0  0
  194.5120  175.5050  143.9710 C   0  0  1  0  0  0  0  0  0  0  0  0
  190.5720  176.3610  145.5710 O   0  0  0  0  0  0  0  0  0  0  0  0
  189.5480  172.6090  140.9900 C   0  0  1  0  0  3  0  0  0  0  0  0
  189.9410  174.9410  143.8870 C   0  0  2  0  0  3  0  0  0  0  0  0
  194.2550  176.3790  146.3280 C   0  0  2  0  0  3  0  0  0  0  0  0
  189.7640  173.2700  142.3530 C   0  0  1  0  0  3  0  0  0  0  0  0
  190.3940  176.3030  144.2250 N   0  0  1  0  0  0  0  0  0  0  0  0
  189.2160  173.6470  139.9170 C   0  0  0  0  0  2  0  0  0  0  0  0
  194.7150  176.6880  144.9020 C   0  0  0  0  0  2  0  0  0  0  0  0
  191.0420  172.9840  142.9510 N   0  0  2  0  0  0  0  0  0  0  0  0
  192.3800  170.2950  141.6340 F   0  0  0  0  0  0  0  0  0  0  0  0
  188.1150  176.7050  141.7530 C   0  0  0  0  0  2  0  0  0  0  0  0
  188.0950  174.5910  140.4110 C   0  0  0  0  0  2  0  0  0  0  0  0
  191.0900  171.5500  143.1990 C   0  0  0  0  0  2  0  0  0  0  0  0
  192.7810  175.9710  146.4340 C   0  0  1  0  0  3  0  0  0  0  0  0
  191.8300  176.9450  145.7400 C   0  0  0  0  0  2  0  0  0  0  0  0
  188.3260  175.1890  141.8240 C   0  0  1  0  0  3  0  0  0  0  0  0
  190.9860  173.7930  144.1700 C   0  0  1  0  0  3  0  0  0  0  0  0
  190.7160  171.6820  140.6410 C   0  0  0  0  0  2  0  0  0  0  0  0
  189.3880  177.3310  143.8860 C   0  0  1  0  0  3  0  0  0  0  0  0
  190.2270  169.7270  141.9270 F   0  0  0  0  0  0  0  0  0  0  0  0
  192.5760  174.5010  146.0500 C   0  0  0  0  0  2  0  0  0  0  0  0
  194.4970  177.4860  147.1410 O   0  0  0  0  0  1  0  0  0  0  0  0
  192.4180  174.1980  144.5520 C   0  0  2  0  0  3  0  0  0  0  0  0
  189.2120  177.5640  142.3840 C   0  0  0  0  0  2  0  0  0  0  0  0
  195.6070  174.5330  143.7940 C   0  0  0  0  0  2  0  0  0  0  0  0
  195.3780  175.5730  142.8680 O   0  0  0  0  0  0  0  0  0  0  0  0
  188.0110  176.4220  145.7720 C   0  0  0  0  0  3  0  0  0  0  0  0
  188.1270  177.3360  144.7170 C   0  0  0  0  0  0  0  0  0  0  0  0
  187.0800  178.2370  144.4700 C   0  0  0  0  0  3  0  0  0  0  0  0
  184.9010  179.1150  145.0140 O   0  0  0  0  0  1  0  0  0  0  0  0
  185.8220  177.3030  146.3140 C   0  0  0  0  0  3  0  0  0  0  0  0
  185.9320  178.2200  145.2650 C   0  0  0  0  0  0  0  0  0  0  0  0
  186.8620  176.4050  146.5670 C   0  0  0  0  0  3  0  0  0  0  0  0
  1  4  1  0  0  0  0
  1 27  1  0  0  0  0
  2 24  1  0  0  0  0
  2 17  1  0  0  0  0
  3  7  1  0  0  0  0
  4 12  1  0  0  0  0
  5 19  1  0  0  0  0
  6  9  1  0  0  0  0
  7 21  1  0  0  0  0
  7 10  1  0  0  0  0
  8 18  1  0  0  0  0
  8 26  1  0  0  0  0
  9  3  1  0  0  0  0
  9 13  1  0  0  0  0
 10  5  1  0  0  0  0
 11 16  1  0  0  0  0
 11  6  1  0  0  0  0
 12  8  1  0  0  0  0
 13 17  1  0  0  0  0
 13 21  1  0  0  0  0
 14  2  1  0  0  0  0
 15 20  1  0  0  0  0
 15 28  1  0  0  0  0
 16 20  1  0  0  0  0
 19 18  1  0  0  0  0
 20  3  1  0  0  0  0
 21 27  1  0  0  0  0
 22  6  1  0  0  0  0
 22  2  1  0  0  0  0
 23 10  1  0  0  0  0
 23 32  1  0  0  0  0
 25 18  1  0  0  0  0
 27 25  1  0  0  0  0
 28 23  1  0  0  0  0
 29  4  1  0  0  0  0
 30 29  1  0  0  0  0
 30  4  1  0  0  0  0
 31 37  1  0  0  0  0
 32 31  2  0  0  0  0
 33 32  1  0  0  0  0
 33 36  2  0  0  0  0
 34 36  1  0  0  0  0
 35 37  2  0  0  0  0
 36 35  1  0  0  0  0
M  END
>  <MODEL>
1

>  <REMARK>
 VINA RESULT:      -9.9      0.000      0.000
  Name = 
  1 active torsions:
  status: ('A' for Active; 'I' for Inactive)
    1  A    between atoms: C_23  and  C_30
                            x       y       z     vdW  Elec       q    Type
                         _______ _______ _______ _____ _____    ______ ____

>  <TORSDO>
F 1

$$$$
=
 OpenBabel11112417133D

 37 44  0  0  1  0  0  0  0  0999 V2000
  192.5910  172.5170  142.3730 C   0  0  0  0  0  2  0  0  0  0  0  0
  196.0000  175.9770  143.8050 C   0  0  0  0  0  0  0  0  0  0  0  0
  191.8090  175.4850  144.3180 C   0  0  1  0  0  3  0  0  0  0  0  0
  192.7220  171.1880  141.6500 C   0  0  1  0  0  0  0  0  0  0  0  0
  189.9300  174.4910  141.3280 O   0  0  0  0  0  0  0  0  0  0  0  0
  194.0020  176.3530  145.3370 C   0  0  1  0  0  3  0  0  0  0  0  0
  191.3580  175.4160  142.8640 C   0  0  2  0  0  3  0  0  0  0  0  0
  191.2250  171.4000  139.6250 C   0  0  2  0  0  3  0  0  0  0  0  0
  193.1510  176.0870  144.0940 C   0  0  1  0  0  3  0  0  0  0  0  0
  190.2670  174.4490  142.6440 N   0  0  1  0  0  0  0  0  0  0  0  0
  193.2470  175.9840  146.6150 C   0  0  0  0  0  2  0  0  0  0  0  0
  191.5260  170.6200  140.9050 C   0  0  0  0  0  2  0  0  0  0  0  0
  193.7660  175.2050  143.1360 N   0  0  2  0  0  0  0  0  0  0  0  0
  197.0110  175.0610  143.5860 F   0  0  0  0  0  0  0  0  0  0  0  0
  189.6380  175.8370  145.6690 C   0  0  0  0  0  2  0  0  0  0  0  0
  191.8320  176.6070  146.6010 C   0  0  0  0  0  2  0  0  0  0  0  0
  194.9700  175.8660  142.6530 C   0  0  0  0  0  2  0  0  0  0  0  0
  190.9480  172.8910  139.8530 C   0  0  1  0  0  3  0  0  0  0  0  0
  189.8920  173.1540  140.9260 C   0  0  0  0  0  2  0  0  0  0  0  0
  191.0280  176.3650  145.2960 C   0  0  1  0  0  3  0  0  0  0  0  0
  192.7120  175.0830  142.1260 C   0  0  1  0  0  3  0  0  0  0  0  0
  195.3830  175.7050  145.2020 C   0  0  0  0  0  2  0  0  0  0  0  0
  189.0470  174.7940  143.4050 C   0  0  1  0  0  3  0  0  0  0  0  0
  196.5430  177.2480  143.7920 F   0  0  0  0  0  0  0  0  0  0  0  0
  192.2470  173.6850  140.0310 C   0  0  0  0  0  2  0  0  0  0  0  0
  190.1430  170.8150  138.9690 O   0  0  0  0  0  1  0  0  0  0  0  0
  192.8460  173.7130  141.4460 C   0  0  2  0  0  3  0  0  0  0  0  0
  189.1720  174.5900  144.9160 C   0  0  0  0  0  2  0  0  0  0  0  0
  194.0660  170.6530  141.3640 C   0  0  0  0  0  2  0  0  0  0  0  0
  193.3120  170.2180  142.4750 O   0  0  0  0  0  0  0  0  0  0  0  0
  189.0300  177.0920  142.4050 C   0  0  0  0  0  3  0  0  0  0  0  0
  188.3030  176.0300  142.9550 C   0  0  0  0  0  0  0  0  0  0  0  0
  186.9080  176.1340  143.0610 C   0  0  0  0  0  3  0  0  0  0  0  0
  184.8710  177.3830  142.7360 O   0  0  0  0  0  1  0  0  0  0  0  0
  186.9840  178.3450  142.0800 C   0  0  0  0  0  3  0  0  0  0  0  0
  186.2510  177.2870  142.6260 C   0  0  0  0  0  0  0  0  0  0  0  0
  188.3740  178.2460  141.9690 C   0  0  0  0  0  3  0  0  0  0  0  0
  2 22  1  0  0  0  0
  3 20  1  0  0  0  0
  4  1  1  0  0  0  0
  4 30  1  0  0  0  0
  5 10  1  0  0  0  0
  6 11  1  0  0  0  0
  7  3  1  0  0  0  0
  8 18  1  0  0  0  0
  8 12  1  0  0  0  0
  9  3  1  0  0  0  0
  9  6  1  0  0  0  0
 10  7  1  0  0  0  0
 10 23  1  0  0  0  0
 12  4  1  0  0  0  0
 13  9  1  0  0  0  0
 14  2  1  0  0  0  0
 16 11  1  0  0  0  0
 17 13  1  0  0  0  0
 17  2  1  0  0  0  0
 18 25  1  0  0  0  0
 18 19  1  0  0  0  0
 19  5  1  0  0  0  0
 20 15  1  0  0  0  0
 20 16  1  0  0  0  0
 21  7  1  0  0  0  0
 21 13  1  0  0  0  0
 22  6  1  0  0  0  0
 23 28  1  0  0  0  0
 24  2  1  0  0  0  0
 25 27  1  0  0  0  0
 26  8  1  0  0  0  0
 27 21  1  0  0  0  0
 27  1  1  0  0  0  0
 28 15  1  0  0  0  0
 29  4  1  0  0  0  0
 29 30  1  0  0  0  0
 31 32  1  0  0  0  0
 32 33  2  0  0  0  0
 32 23  1  0  0  0  0
 35 36  2  0  0  0  0
 36 34  1  0  0  0  0
 36 33  1  0  0  0  0
 37 35  1  0  0  0  0
 37 31  2  0  0  0  0
M  END
>  <MODEL>
2

>  <REMARK>
 VINA RESULT:      -9.1      3.055      5.723
  Name = 
  1 active torsions:
  status: ('A' for Active; 'I' for Inactive)
    1  A    between atoms: C_23  and  C_30
                            x       y       z     vdW  Elec       q    Type
                         _______ _______ _______ _____ _____    ______ ____

>  <TORSDO>
F 1

$$$$
=
 OpenBabel11112417133D

 37 44  0  0  1  0  0  0  0  0999 V2000
  192.6980  172.6290  142.2800 C   0  0  0  0  0  2  0  0  0  0  0  0
  196.3150  176.0620  143.1570 C   0  0  0  0  0  0  0  0  0  0  0  0
  192.3570  175.4260  144.5730 C   0  0  1  0  0  3  0  0  0  0  0  0
  192.6710  171.3590  141.4460 C   0  0  1  0  0  0  0  0  0  0  0  0
  189.8510  174.6040  142.0240 O   0  0  0  0  0  0  0  0  0  0  0  0
  194.7180  176.2740  145.1290 C   0  0  1  0  0  3  0  0  0  0  0  0
  191.5850  175.4520  143.2590 C   0  0  2  0  0  3  0  0  0  0  0  0
  190.7480  171.6790  139.8380 C   0  0  2  0  0  3  0  0  0  0  0  0
  193.6070  176.0770  144.0960 C   0  0  1  0  0  3  0  0  0  0  0  0
  190.4810  174.4750  143.2210 N   0  0  1  0  0  0  0  0  0  0  0  0
  194.2790  175.7940  146.5130 C   0  0  0  0  0  2  0  0  0  0  0  0
  191.3410  170.8160  140.9520 C   0  0  0  0  0  2  0  0  0  0  0  0
  193.9930  175.2830  142.9580 N   0  0  2  0  0  0  0  0  0  0  0  0
  197.2570  175.1910  142.6450 F   0  0  0  0  0  0  0  0  0  0  0  0
  190.5510  175.6230  146.4060 C   0  0  0  0  0  2  0  0  0  0  0  0
  192.8930  176.3800  146.8700 C   0  0  0  0  0  2  0  0  0  0  0  0
  195.0490  176.0090  142.2650 C   0  0  0  0  0  2  0  0  0  0  0  0
  190.5170  173.1410  140.2370 C   0  0  1  0  0  3  0  0  0  0  0  0
  189.7340  173.2990  141.5400 C   0  0  0  0  0  2  0  0  0  0  0  0
  191.8130  176.2130  145.7680 C   0  0  1  0  0  3  0  0  0  0  0  0
  192.7370  175.2080  142.2090 C   0  0  1  0  0  3  0  0  0  0  0  0
  196.0370  175.6740  144.6340 C   0  0  0  0  0  2  0  0  0  0  0  0
  189.4650  174.7330  144.2630 C   0  0  1  0  0  3  0  0  0  0  0  0
  196.8300  177.3440  143.1190 F   0  0  0  0  0  0  0  0  0  0  0  0
  191.8160  173.9540  140.1750 C   0  0  0  0  0  2  0  0  0  0  0  0
  189.5490  171.1150  139.4040 O   0  0  0  0  0  1  0  0  0  0  0  0
  192.7230  173.8940  141.4130 C   0  0  2  0  0  3  0  0  0  0  0  0
  189.9360  174.4230  145.6870 C   0  0  0  0  0  2  0  0  0  0  0  0
  193.9180  170.8810  140.8210 C   0  0  0  0  0  2  0  0  0  0  0  0
  193.4430  170.3470  142.0390 O   0  0  0  0  0  0  0  0  0  0  0  0
  187.7890  176.3760  145.1390 C   0  0  0  0  0  3  0  0  0  0  0  0
  188.6280  175.9780  144.0910 C   0  0  0  0  0  0  0  0  0  0  0  0
  188.6800  176.7500  142.9210 C   0  0  0  0  0  3  0  0  0  0  0  0
  187.9550  178.6590  141.6380 O   0  0  0  0  0  1  0  0  0  0  0  0
  187.0610  178.2910  143.8480 C   0  0  0  0  0  3  0  0  0  0  0  0
  187.8990  177.9010  142.7990 C   0  0  0  0  0  0  0  0  0  0  0  0
  187.0070  177.5280  145.0180 C   0  0  0  0  0  3  0  0  0  0  0  0
  2 22  1  0  0  0  0
  3 20  1  0  0  0  0
  4 30  1  0  0  0  0
  4  1  1  0  0  0  0
  5 10  1  0  0  0  0
  6 11  1  0  0  0  0
  7  3  1  0  0  0  0
  8 18  1  0  0  0  0
  8 12  1  0  0  0  0
  9  3  1  0  0  0  0
  9  6  1  0  0  0  0
 10  7  1  0  0  0  0
 10 23  1  0  0  0  0
 11 16  1  0  0  0  0
 12  4  1  0  0  0  0
 13  9  1  0  0  0  0
 14  2  1  0  0  0  0
 17 13  1  0  0  0  0
 17  2  1  0  0  0  0
 18 19  1  0  0  0  0
 19  5  1  0  0  0  0
 20 15  1  0  0  0  0
 20 16  1  0  0  0  0
 21 13  1  0  0  0  0
 21  7  1  0  0  0  0
 22  6  1  0  0  0  0
 23 28  1  0  0  0  0
 24  2  1  0  0  0  0
 25 18  1  0  0  0  0
 25 27  1  0  0  0  0
 26  8  1  0  0  0  0
 27 21  1  0  0  0  0
 27  1  1  0  0  0  0
 28 15  1  0  0  0  0
 29  4  1  0  0  0  0
 29 30  1  0  0  0  0
 32 23  1  0  0  0  0
 32 31  2  0  0  0  0
 33 32  1  0  0  0  0
 34 36  1  0  0  0  0
 35 37  2  0  0  0  0
 36 33  2  0  0  0  0
 36 35  1  0  0  0  0
 37 31  1  0  0  0  0
M  END
>  <MODEL>
3

>  <REMARK>
 VINA RESULT:      -8.6      3.021      5.730
  Name = 
  1 active torsions:
  status: ('A' for Active; 'I' for Inactive)
    1  A    between atoms: C_23  and  C_30
                            x       y       z     vdW  Elec       q    Type
                         _______ _______ _______ _____ _____    ______ ____

>  <TORSDO>
F 1

$$$$
=
 OpenBabel11112417133D

 37 44  0  0  1  0  0  0  0  0999 V2000
  191.9350  172.8410  143.2050 C   0  0  0  0  0  2  0  0  0  0  0  0
  195.3030  176.2650  144.8090 C   0  0  0  0  0  0  0  0  0  0  0  0
  191.0760  175.8680  145.0220 C   0  0  1  0  0  3  0  0  0  0  0  0
  192.0910  171.4930  142.5220 C   0  0  1  0  0  0  0  0  0  0  0  0
  189.4000  174.8420  141.9240 O   0  0  0  0  0  0  0  0  0  0  0  0
  193.2060  176.7160  146.1810 C   0  0  1  0  0  3  0  0  0  0  0  0
  190.7310  175.7740  143.5400 C   0  0  2  0  0  3  0  0  0  0  0  0
  190.7510  171.6880  140.3880 C   0  0  2  0  0  3  0  0  0  0  0  0
  192.4430  176.4380  144.8840 C   0  0  1  0  0  3  0  0  0  0  0  0
  189.6390  174.8240  143.2620 N   0  0  1  0  0  0  0  0  0  0  0  0
  192.3530  176.3920  147.4070 C   0  0  0  0  0  2  0  0  0  0  0  0
  190.9400  170.9310  141.7040 C   0  0  0  0  0  2  0  0  0  0  0  0
  193.1080  175.5220  143.9940 N   0  0  2  0  0  0  0  0  0  0  0  0
  196.3080  175.3250  144.6850 F   0  0  0  0  0  0  0  0  0  0  0  0
  188.8200  176.2940  146.2020 C   0  0  0  0  0  2  0  0  0  0  0  0
  190.9550  177.0420  147.2760 C   0  0  0  0  0  2  0  0  0  0  0  0
  194.3580  176.1490  143.5860 C   0  0  0  0  0  2  0  0  0  0  0  0
  190.4890  173.1880  140.5630 C   0  0  1  0  0  3  0  0  0  0  0  0
  189.3640  173.4970  141.5500 C   0  0  0  0  0  2  0  0  0  0  0  0
  190.2440  176.7850  145.9210 C   0  0  1  0  0  3  0  0  0  0  0  0
  192.1290  175.3980  142.9120 C   0  0  1  0  0  3  0  0  0  0  0  0
  194.5800  176.0390  146.1620 C   0  0  0  0  0  2  0  0  0  0  0  0
  188.3740  175.2100  143.9230 C   0  0  1  0  0  3  0  0  0  0  0  0
  195.8720  177.5250  144.8080 F   0  0  0  0  0  0  0  0  0  0  0  0
  191.7890  173.9600  140.8200 C   0  0  0  0  0  2  0  0  0  0  0  0
  189.7070  171.1080  139.6670 O   0  0  0  0  0  1  0  0  0  0  0  0
  192.2830  174.0090  142.2730 C   0  0  2  0  0  3  0  0  0  0  0  0
  188.3840  175.0390  145.4440 C   0  0  0  0  0  2  0  0  0  0  0  0
  193.4410  170.9250  142.3480 C   0  0  0  0  0  2  0  0  0  0  0  0
  192.5980  170.5310  143.4100 O   0  0  0  0  0  0  0  0  0  0  0  0
  188.4610  177.4100  142.7260 C   0  0  0  0  0  3  0  0  0  0  0  0
  187.6920  176.4500  143.3930 C   0  0  0  0  0  0  0  0  0  0  0  0
  186.3110  176.6540  143.5390 C   0  0  0  0  0  3  0  0  0  0  0  0
  184.3450  178.0020  143.1760 O   0  0  0  0  0  1  0  0  0  0  0  0
  186.4860  178.7630  142.3650 C   0  0  0  0  0  3  0  0  0  0  0  0
  185.7110  177.8070  143.0280 C   0  0  0  0  0  0  0  0  0  0  0  0
  187.8610  178.5640  142.2150 C   0  0  0  0  0  3  0  0  0  0  0  0
  2 22  1  0  0  0  0
  3 20  1  0  0  0  0
  4  1  1  0  0  0  0
  4 30  1  0  0  0  0
  5 10  1  0  0  0  0
  6 11  1  0  0  0  0
  7  3  1  0  0  0  0
  8 18  1  0  0  0  0
  8 12  1  0  0  0  0
  9  3  1  0  0  0  0
  9  6  1  0  0  0  0
 10  7  1  0  0  0  0
 10 23  1  0  0  0  0
 12  4  1  0  0  0  0
 13  9  1  0  0  0  0
 14  2  1  0  0  0  0
 16 11  1  0  0  0  0
 17 13  1  0  0  0  0
 17  2  1  0  0  0  0
 18 25  1  0  0  0  0
 18 19  1  0  0  0  0
 19  5  1  0  0  0  0
 20 15  1  0  0  0  0
 20 16  1  0  0  0  0
 21  7  1  0  0  0  0
 21 13  1  0  0  0  0
 22  6  1  0  0  0  0
 23 28  1  0  0  0  0
 24  2  1  0  0  0  0
 25 27  1  0  0  0  0
 26  8  1  0  0  0  0
 27 21  1  0  0  0  0
 27  1  1  0  0  0  0
 28 15  1  0  0  0  0
 29  4  1  0  0  0  0
 29 30  1  0  0  0  0
 31 32  1  0  0  0  0
 32 33  2  0  0  0  0
 32 23  1  0  0  0  0
 35 36  2  0  0  0  0
 36 34  1  0  0  0  0
 36 33  1  0  0  0  0
 37 35  1  0  0  0  0
 37 31  2  0  0  0  0
M  END
>  <MODEL>
4

>  <REMARK>
 VINA RESULT:      -8.6      2.936      5.579
  Name = 
  1 active torsions:
  status: ('A' for Active; 'I' for Inactive)
    1  A    between atoms: C_23  and  C_30
                            x       y       z     vdW  Elec       q    Type
                         _______ _______ _______ _____ _____    ______ ____

>  <TORSDO>
F 1

$$$$
=
 OpenBabel11112417133D

 37 44  0  0  1  0  0  0  0  0999 V2000
  191.4360  173.0390  141.8310 C   0  0  0  0  0  2  0  0  0  0  0  0
  189.3450  175.2490  145.8790 C   0  0  0  0  0  0  0  0  0  0  0  0
  193.2330  173.8470  144.8830 C   0  0  1  0  0  3  0  0  0  0  0  0
  190.8930  172.7040  140.4520 C   0  0  1  0  0  0  0  0  0  0  0  0
  193.3910  170.5550  143.2720 O   0  0  0  0  0  0  0  0  0  0  0  0
  191.8510  175.5930  146.1660 C   0  0  1  0  0  3  0  0  0  0  0  0
  192.9300  172.3870  144.5710 C   0  0  2  0  0  3  0  0  0  0  0  0
  191.2510  170.2150  140.2000 C   0  0  2  0  0  3  0  0  0  0  0  0
  191.9870  174.1660  145.6310 C   0  0  1  0  0  3  0  0  0  0  0  0
  193.7220  171.8630  143.4430 N   0  0  1  0  0  0  0  0  0  0  0  0
  193.1000  176.4200  145.8590 C   0  0  0  0  0  2  0  0  0  0  0  0
  191.5510  171.6040  139.6350 C   0  0  0  0  0  2  0  0  0  0  0  0
  190.9360  173.7720  144.7290 N   0  0  2  0  0  0  0  0  0  0  0  0
  188.2980  175.6860  145.0910 F   0  0  0  0  0  0  0  0  0  0  0  0
  195.8030  173.9590  145.1000 C   0  0  0  0  0  2  0  0  0  0  0  0
  194.3730  175.6460  146.2750 C   0  0  0  0  0  2  0  0  0  0  0  0
  189.6910  173.7910  145.4840 C   0  0  0  0  0  2  0  0  0  0  0  0
  191.6950  170.0230  141.6550 C   0  0  1  0  0  3  0  0  0  0  0  0
  193.1500  170.4230  141.9030 C   0  0  0  0  0  2  0  0  0  0  0  0
  194.4390  174.1830  145.7630 C   0  0  1  0  0  3  0  0  0  0  0  0
  191.3700  172.4290  144.3370 C   0  0  1  0  0  3  0  0  0  0  0  0
  190.5360  176.2270  145.7030 C   0  0  0  0  0  2  0  0  0  0  0  0
  195.1750  171.9000  143.7090 C   0  0  1  0  0  3  0  0  0  0  0  0
  188.9420  175.2650  147.2010 F   0  0  0  0  0  0  0  0  0  0  0  0
  190.6910  170.6390  142.6360 C   0  0  0  0  0  2  0  0  0  0  0  0
  191.8500  169.2480  139.3930 O   0  0  0  0  0  1  0  0  0  0  0  0
  190.8430  172.1400  142.9240 C   0  0  2  0  0  3  0  0  0  0  0  0
  195.7740  173.3090  143.7160 C   0  0  0  0  0  2  0  0  0  0  0  0
  189.5450  173.1700  140.0750 C   0  0  0  0  0  2  0  0  0  0  0  0
  190.7100  173.8650  139.6840 O   0  0  0  0  0  0  0  0  0  0  0  0
  197.0550  170.6430  144.7890 C   0  0  0  0  0  3  0  0  0  0  0  0
  195.6890  170.9490  144.7640 C   0  0  0  0  0  0  0  0  0  0  0  0
  194.8390  170.3790  145.7250 C   0  0  0  0  0  3  0  0  0  0  0  0
  194.5030  168.9500  147.6380 O   0  0  0  0  0  1  0  0  0  0  0  0
  196.7140  169.2080  146.7080 C   0  0  0  0  0  3  0  0  0  0  0  0
  195.3500  169.5110  146.6920 C   0  0  0  0  0  0  0  0  0  0  0  0
  197.5660  169.7740  145.7560 C   0  0  0  0  0  3  0  0  0  0  0  0
  1 27  1  0  0  0  0
  2 24  1  0  0  0  0
  3  9  1  0  0  0  0
  3 20  1  0  0  0  0
  4  1  1  0  0  0  0
  5 10  1  0  0  0  0
  7  3  1  0  0  0  0
  8 18  1  0  0  0  0
  9  6  1  0  0  0  0
 10 23  1  0  0  0  0
 10  7  1  0  0  0  0
 11  6  1  0  0  0  0
 11 16  1  0  0  0  0
 12  8  1  0  0  0  0
 12  4  1  0  0  0  0
 13 17  1  0  0  0  0
 13  9  1  0  0  0  0
 14  2  1  0  0  0  0
 15 20  1  0  0  0  0
 17  2  1  0  0  0  0
 18 19  1  0  0  0  0
 18 25  1  0  0  0  0
 19  5  1  0  0  0  0
 20 16  1  0  0  0  0
 21  7  1  0  0  0  0
 21 13  1  0  0  0  0
 22  2  1  0  0  0  0
 22  6  1  0  0  0  0
 23 28  1  0  0  0  0
 23 32  1  0  0  0  0
 25 27  1  0  0  0  0
 26  8  1  0  0  0  0
 27 21  1  0  0  0  0
 28 15  1  0  0  0  0
 29  4  1  0  0  0  0
 30 29  1  0  0  0  0
 30  4  1  0  0  0  0
 31 37  1  0  0  0  0
 32 31  2  0  0  0  0
 32 33  1  0  0  0  0
 33 36  2  0  0  0  0
 36 35  1  0  0  0  0
 36 34  1  0  0  0  0
 37 35  2  0  0  0  0
M  END
>  <MODEL>
5

>  <REMARK>
 VINA RESULT:      -8.5      3.752      8.063
  Name = 
  1 active torsions:
  status: ('A' for Active; 'I' for Inactive)
    1  A    between atoms: C_23  and  C_30
                            x       y       z     vdW  Elec       q    Type
                         _______ _______ _______ _____ _____    ______ ____

>  <TORSDO>
F 1

$$$$
=
 OpenBabel11112417133D

 37 44  0  0  1  0  0  0  0  0999 V2000
  189.9300  175.0850  142.5590 C   0  0  0  0  0  2  0  0  0  0  0  0
  190.9210  175.5960  147.4990 C   0  0  0  0  0  0  0  0  0  0  0  0
  193.2070  174.6060  144.0540 C   0  0  1  0  0  3  0  0  0  0  0  0
  188.6760  175.3240  141.7360 C   0  0  1  0  0  0  0  0  0  0  0  0
  191.6800  172.1950  141.7500 O   0  0  0  0  0  0  0  0  0  0  0  0
  193.1910  175.7470  146.3560 C   0  0  1  0  0  3  0  0  0  0  0  0
  192.4400  173.3880  143.5530 C   0  0  2  0  0  3  0  0  0  0  0  0
  188.2280  173.1200  140.5820 C   0  0  2  0  0  3  0  0  0  0  0  0
  192.6700  174.6370  145.4410 C   0  0  1  0  0  3  0  0  0  0  0  0
  192.3560  173.3260  142.0820 N   0  0  1  0  0  0  0  0  0  0  0  0
  194.2430  176.6010  145.6480 C   0  0  0  0  0  2  0  0  0  0  0  0
  188.5090  174.6130  140.4030 C   0  0  0  0  0  2  0  0  0  0  0  0
  191.2430  174.6470  145.2560 N   0  0  2  0  0  0  0  0  0  0  0  0
  189.7590  176.3280  147.6490 F   0  0  0  0  0  0  0  0  0  0  0  0
  195.4350  174.5680  142.7510 C   0  0  0  0  0  2  0  0  0  0  0  0
  195.3090  175.6980  144.9830 C   0  0  0  0  0  2  0  0  0  0  0  0
  190.6380  174.3990  146.5570 C   0  0  0  0  0  2  0  0  0  0  0  0
  189.3150  172.3690  141.3600 C   0  0  1  0  0  3  0  0  0  0  0  0
  190.7240  172.6100  140.8200 C   0  0  0  0  0  2  0  0  0  0  0  0
  194.7350  174.5470  144.1140 C   0  0  1  0  0  3  0  0  0  0  0  0
  191.0600  173.5520  144.3000 C   0  0  1  0  0  3  0  0  0  0  0  0
  192.0320  176.5400  146.9670 C   0  0  0  0  0  2  0  0  0  0  0  0
  193.6870  173.2250  141.4460 C   0  0  1  0  0  3  0  0  0  0  0  0
  191.3000  175.1070  148.7350 F   0  0  0  0  0  0  0  0  0  0  0  0
  189.1700  172.5770  142.8730 C   0  0  0  0  0  2  0  0  0  0  0  0
  188.0510  172.5300  139.3320 O   0  0  0  0  0  1  0  0  0  0  0  0
  189.8120  173.8460  143.4560 C   0  0  2  0  0  3  0  0  0  0  0  0
  194.5190  174.5070  141.5280 C   0  0  0  0  0  2  0  0  0  0  0  0
  187.4950  175.9280  142.3800 C   0  0  0  0  0  2  0  0  0  0  0  0
  188.4020  176.6950  141.6160 O   0  0  0  0  0  0  0  0  0  0  0  0
  195.2440  171.4450  140.6180 C   0  0  0  0  0  3  0  0  0  0  0  0
  194.4330  171.9280  141.6520 C   0  0  0  0  0  0  0  0  0  0  0  0
  194.3460  171.2060  142.8520 C   0  0  0  0  0  3  0  0  0  0  0  0
  194.9660  169.3060  144.2020 O   0  0  0  0  0  1  0  0  0  0  0  0
  195.8630  169.5380  141.9750 C   0  0  0  0  0  3  0  0  0  0  0  0
  195.0580  170.0150  143.0130 C   0  0  0  0  0  0  0  0  0  0  0  0
  195.9560  170.2530  140.7780 C   0  0  0  0  0  3  0  0  0  0  0  0
  1 27  1  0  0  0  0
  2 14  1  0  0  0  0
  2 24  1  0  0  0  0
  3 20  1  0  0  0  0
  3  9  1  0  0  0  0
  4 29  1  0  0  0  0
  4  1  1  0  0  0  0
  5 10  1  0  0  0  0
  6 22  1  0  0  0  0
  7  3  1  0  0  0  0
  7 21  1  0  0  0  0
  8 18  1  0  0  0  0
  9  6  1  0  0  0  0
 10  7  1  0  0  0  0
 11  6  1  0  0  0  0
 12  8  1  0  0  0  0
 12  4  1  0  0  0  0
 13  9  1  0  0  0  0
 13 17  1  0  0  0  0
 15 20  1  0  0  0  0
 16 11  1  0  0  0  0
 17  2  1  0  0  0  0
 18 25  1  0  0  0  0
 19 18  1  0  0  0  0
 19  5  1  0  0  0  0
 20 16  1  0  0  0  0
 21 13  1  0  0  0  0
 22  2  1  0  0  0  0
 23 28  1  0  0  0  0
 23 32  1  0  0  0  0
 23 10  1  0  0  0  0
 25 27  1  0  0  0  0
 26  8  1  0  0  0  0
 27 21  1  0  0  0  0
 28 15  1  0  0  0  0
 30  4  1  0  0  0  0
 30 29  1  0  0  0  0
 31 37  2  0  0  0  0
 31 32  1  0  0  0  0
 32 33  2  0  0  0  0
 33 36  1  0  0  0  0
 35 36  2  0  0  0  0
 36 34  1  0  0  0  0
 37 35  1  0  0  0  0
M  END
>  <MODEL>
6

>  <REMARK>
 VINA RESULT:      -8.1      3.503      7.921
  Name = 
  1 active torsions:
  status: ('A' for Active; 'I' for Inactive)
    1  A    between atoms: C_23  and  C_30
                            x       y       z     vdW  Elec       q    Type
                         _______ _______ _______ _____ _____    ______ ____

>  <TORSDO>
F 1

$$$$
=
 OpenBabel11112417133D

 37 44  0  0  1  0  0  0  0  0999 V2000
  193.3560  175.1890  141.9270 C   0  0  0  0  0  2  0  0  0  0  0  0
  190.9210  171.1060  140.1830 C   0  0  0  0  0  0  0  0  0  0  0  0
  189.7420  174.9010  141.6920 C   0  0  1  0  0  3  0  0  0  0  0  0
  194.8310  175.5400  142.0210 C   0  0  1  0  0  0  0  0  0  0  0  0
  191.4730  176.0350  144.7210 O   0  0  0  0  0  0  0  0  0  0  0  0
  189.2130  172.9910  140.0580 C   0  0  1  0  0  3  0  0  0  0  0  0
  190.3960  174.8680  143.0680 C   0  0  2  0  0  3  0  0  0  0  0  0
  195.2240  176.0410  144.4670 C   0  0  2  0  0  3  0  0  0  0  0  0
  189.7940  173.4440  141.3990 C   0  0  1  0  0  3  0  0  0  0  0  0
  190.9410  176.1750  143.4780 N   0  0  1  0  0  0  0  0  0  0  0  0
  188.6220  174.1690  139.2830 C   0  0  0  0  0  2  0  0  0  0  0  0
  195.2910  176.5740  143.0350 C   0  0  0  0  0  2  0  0  0  0  0  0
  191.1810  173.1070  141.5860 N   0  0  2  0  0  0  0  0  0  0  0  0
  192.0820  170.6850  139.5650 F   0  0  0  0  0  0  0  0  0  0  0  0
  188.0910  176.8840  141.7910 C   0  0  0  0  0  2  0  0  0  0  0  0
  187.6860  174.9960  140.1960 C   0  0  0  0  0  2  0  0  0  0  0  0
  191.2730  171.6530  141.5890 C   0  0  0  0  0  2  0  0  0  0  0  0
  193.8260  175.5800  144.8960 C   0  0  1  0  0  3  0  0  0  0  0  0
  192.7380  176.6220  144.6380 C   0  0  0  0  0  2  0  0  0  0  0  0
  188.2930  175.3810  141.5710 C   0  0  1  0  0  3  0  0  0  0  0  0
  191.4630  173.7200  142.8850 C   0  0  1  0  0  3  0  0  0  0  0  0
  190.2330  172.1590  139.2740 C   0  0  0  0  0  2  0  0  0  0  0  0
  189.8960  177.2150  143.5800 C   0  0  1  0  0  3  0  0  0  0  0  0
  190.0780  170.0200  140.3290 F   0  0  0  0  0  0  0  0  0  0  0  0
  193.5050  174.1800  144.3600 C   0  0  0  0  0  2  0  0  0  0  0  0
  195.6880  177.0180  145.3470 O   0  0  0  0  0  1  0  0  0  0  0  0
  192.9500  174.1020  142.9300 C   0  0  2  0  0  3  0  0  0  0  0  0
  189.3290  177.6670  142.2320 C   0  0  0  0  0  2  0  0  0  0  0  0
  195.8260  174.6360  141.4140 C   0  0  0  0  0  2  0  0  0  0  0  0
  195.3730  175.7980  140.7520 O   0  0  0  0  0  0  0  0  0  0  0  0
  187.7990  177.9200  144.7570 C   0  0  0  0  0  3  0  0  0  0  0  0
  188.9010  177.0590  144.7060 C   0  0  0  0  0  0  0  0  0  0  0  0
  189.0460  176.0690  145.6900 C   0  0  0  0  0  3  0  0  0  0  0  0
  188.2520  174.9650  147.6820 O   0  0  0  0  0  1  0  0  0  0  0  0
  187.0050  176.8120  146.7570 C   0  0  0  0  0  3  0  0  0  0  0  0
  188.1020  175.9460  146.7120 C   0  0  0  0  0  0  0  0  0  0  0  0
  186.8540  177.7980  145.7790 C   0  0  0  0  0  3  0  0  0  0  0  0
  1  4  1  0  0  0  0
  1 27  1  0  0  0  0
  2 24  1  0  0  0  0
  2 17  1  0  0  0  0
  3  7  1  0  0  0  0
  4 12  1  0  0  0  0
  6  9  1  0  0  0  0
  7 10  1  0  0  0  0
  8 18  1  0  0  0  0
  8 26  1  0  0  0  0
  9 13  1  0  0  0  0
  9  3  1  0  0  0  0
 10 23  1  0  0  0  0
 10  5  1  0  0  0  0
 11  6  1  0  0  0  0
 11 16  1  0  0  0  0
 12  8  1  0  0  0  0
 13 17  1  0  0  0  0
 13 21  1  0  0  0  0
 14  2  1  0  0  0  0
 15 28  1  0  0  0  0
 16 20  1  0  0  0  0
 19  5  1  0  0  0  0
 19 18  1  0  0  0  0
 20  3  1  0  0  0  0
 20 15  1  0  0  0  0
 21 27  1  0  0  0  0
 21  7  1  0  0  0  0
 22  6  1  0  0  0  0
 22  2  1  0  0  0  0
 23 32  1  0  0  0  0
 25 18  1  0  0  0  0
 27 25  1  0  0  0  0
 28 23  1  0  0  0  0
 29  4  1  0  0  0  0
 30 29  1  0  0  0  0
 30  4  1  0  0  0  0
 31 37  1  0  0  0  0
 32 31  2  0  0  0  0
 32 33  1  0  0  0  0
 33 36  2  0  0  0  0
 36 35  1  0  0  0  0
 36 34  1  0  0  0  0
 37 35  2  0  0  0  0
M  END
>  <MODEL>
7

>  <REMARK>
 VINA RESULT:      -8.1      1.580      1.912
  Name = 
  1 active torsions:
  status: ('A' for Active; 'I' for Inactive)
    1  A    between atoms: C_23  and  C_30
                            x       y       z     vdW  Elec       q    Type
                         _______ _______ _______ _____ _____    ______ ____

>  <TORSDO>
F 1

$$$$
=
 OpenBabel11112417133D

 37 44  0  0  1  0  0  0  0  0999 V2000
  194.4470  174.5390  143.0520 C   0  0  0  0  0  2  0  0  0  0  0  0
  190.5800  176.2910  145.8100 C   0  0  0  0  0  0  0  0  0  0  0  0
  191.0180  173.3780  142.7460 C   0  0  1  0  0  3  0  0  0  0  0  0
  195.9400  174.8190  143.0860 C   0  0  1  0  0  0  0  0  0  0  0  0
  193.0670  174.3680  139.8690 O   0  0  0  0  0  0  0  0  0  0  0  0
  189.7660  174.0650  144.8820 C   0  0  1  0  0  3  0  0  0  0  0  0
  191.6090  174.2330  141.6320 C   0  0  2  0  0  3  0  0  0  0  0  0
  196.5070  175.6000  140.7500 C   0  0  2  0  0  3  0  0  0  0  0  0
  190.4830  174.4770  143.5940 C   0  0  1  0  0  3  0  0  0  0  0  0
  192.6320  173.5240  140.8420 N   0  0  1  0  0  0  0  0  0  0  0  0
  189.6920  172.5430  145.0130 C   0  0  0  0  0  2  0  0  0  0  0  0
  196.7780  174.5660  141.8440 C   0  0  0  0  0  2  0  0  0  0  0  0
  191.6210  175.3340  143.8010 N   0  0  2  0  0  0  0  0  0  0  0  0
  191.4750  176.7910  146.7360 F   0  0  0  0  0  0  0  0  0  0  0  0
  190.2970  171.1870  141.5870 C   0  0  0  0  0  2  0  0  0  0  0  0
  189.1670  171.9160  143.7000 C   0  0  0  0  0  2  0  0  0  0  0  0
  191.1250  176.5720  144.3870 C   0  0  0  0  0  2  0  0  0  0  0  0
  195.0430  175.6640  140.3010 C   0  0  1  0  0  3  0  0  0  0  0  0
  194.4600  174.3000  139.9340 C   0  0  0  0  0  2  0  0  0  0  0  0
  189.8810  172.4090  142.4140 C   0  0  1  0  0  3  0  0  0  0  0  0
  192.1280  175.4880  142.4360 C   0  0  1  0  0  3  0  0  0  0  0  0
  190.3670  174.7810  146.0950 C   0  0  0  0  0  2  0  0  0  0  0  0
  192.0890  172.3320  140.1580 C   0  0  1  0  0  3  0  0  0  0  0  0
  189.3740  176.9510  145.9590 F   0  0  0  0  0  0  0  0  0  0  0  0
  194.1880  176.4770  141.2810 C   0  0  0  0  0  2  0  0  0  0  0  0
  197.3260  175.3370  139.6530 O   0  0  0  0  0  1  0  0  0  0  0  0
  193.6440  175.7250  142.5040 C   0  0  2  0  0  3  0  0  0  0  0  0
  191.7450  171.1730  141.0960 C   0  0  0  0  0  2  0  0  0  0  0  0
  196.4900  175.6620  144.1640 C   0  0  0  0  0  2  0  0  0  0  0  0
  196.5360  174.2530  144.2240 O   0  0  0  0  0  0  0  0  0  0  0  0
  191.3050  171.9230  137.8130 C   0  0  0  0  0  3  0  0  0  0  0  0
  191.1180  172.5900  139.0290 C   0  0  0  0  0  0  0  0  0  0  0  0
  190.0310  173.4650  139.1730 C   0  0  0  0  0  3  0  0  0  0  0  0
  188.0740  174.5410  138.2620 O   0  0  0  0  0  1  0  0  0  0  0  0
  189.3420  173.0050  136.9000 C   0  0  0  0  0  3  0  0  0  0  0  0
  189.1470  173.6730  138.1120 C   0  0  0  0  0  0  0  0  0  0  0  0
  190.4210  172.1300  136.7510 C   0  0  0  0  0  3  0  0  0  0  0  0
  1  4  1  0  0  0  0
  2 24  1  0  0  0  0
  2 22  1  0  0  0  0
  2 14  1  0  0  0  0
  3  9  1  0  0  0  0
  4 29  1  0  0  0  0
  4 30  1  0  0  0  0
  5 19  1  0  0  0  0
  5 10  1  0  0  0  0
  6 11  1  0  0  0  0
  6 22  1  0  0  0  0
  7 21  1  0  0  0  0
  7  3  1  0  0  0  0
  8 12  1  0  0  0  0
  9 13  1  0  0  0  0
  9  6  1  0  0  0  0
 10  7  1  0  0  0  0
 12  4  1  0  0  0  0
 13 17  1  0  0  0  0
 15 20  1  0  0  0  0
 16 11  1  0  0  0  0
 17  2  1  0  0  0  0
 18  8  1  0  0  0  0
 18 25  1  0  0  0  0
 19 18  1  0  0  0  0
 20  3  1  0  0  0  0
 20 16  1  0  0  0  0
 21 27  1  0  0  0  0
 21 13  1  0  0  0  0
 23 10  1  0  0  0  0
 23 28  1  0  0  0  0
 25 27  1  0  0  0  0
 26  8  1  0  0  0  0
 27  1  1  0  0  0  0
 28 15  1  0  0  0  0
 29 30  1  0  0  0  0
 31 32  1  0  0  0  0
 32 33  2  0  0  0  0
 32 23  1  0  0  0  0
 35 36  2  0  0  0  0
 36 34  1  0  0  0  0
 36 33  1  0  0  0  0
 37 35  1  0  0  0  0
 37 31  2  0  0  0  0
M  END
>  <MODEL>
8

>  <REMARK>
 VINA RESULT:      -8.0      3.606      6.237
  Name = 
  1 active torsions:
  status: ('A' for Active; 'I' for Inactive)
    1  A    between atoms: C_23  and  C_30
                            x       y       z     vdW  Elec       q    Type
                         _______ _______ _______ _____ _____    ______ ____

>  <TORSDO>
F 1

$$$$
=
 OpenBabel11112417133D

 37 44  0  0  1  0  0  0  0  0999 V2000
  190.3200  174.7080  145.8460 C   0  0  0  0  0  2  0  0  0  0  0  0
  188.3350  174.2020  141.2150 C   0  0  0  0  0  0  0  0  0  0  0  0
  192.1210  173.4010  142.9730 C   0  0  1  0  0  3  0  0  0  0  0  0
  189.7240  175.1390  147.1740 C   0  0  1  0  0  0  0  0  0  0  0  0
  193.4640  176.0210  145.1620 O   0  0  0  0  0  0  0  0  0  0  0  0
  190.3850  172.6920  141.2170 C   0  0  1  0  0  3  0  0  0  0  0  0
  192.4800  174.7850  143.5010 C   0  0  2  0  0  3  0  0  0  0  0  0
  191.1450  177.0910  147.9210 C   0  0  2  0  0  3  0  0  0  0  0  0
  191.0580  173.8100  142.0160 C   0  0  1  0  0  3  0  0  0  0  0  0
  193.1700  174.7430  144.8040 N   0  0  1  0  0  0  0  0  0  0  0  0
  191.0050  171.3320  141.5360 C   0  0  0  0  0  2  0  0  0  0  0  0
  190.6340  175.6900  148.2600 C   0  0  0  0  0  2  0  0  0  0  0  0
  190.1530  174.5870  142.8220 N   0  0  2  0  0  0  0  0  0  0  0  0
  187.0660  174.2690  141.7590 F   0  0  0  0  0  0  0  0  0  0  0  0
  194.3200  172.0540  143.0950 C   0  0  0  0  0  2  0  0  0  0  0  0
  192.5470  171.4100  141.4470 C   0  0  0  0  0  2  0  0  0  0  0  0
  189.2330  175.2550  141.9120 C   0  0  0  0  0  2  0  0  0  0  0  0
  191.9200  177.1700  146.6010 C   0  0  1  0  0  3  0  0  0  0  0  0
  193.0320  176.1280  146.4860 C   0  0  0  0  0  2  0  0  0  0  0  0
  193.1830  172.5950  142.2210 C   0  0  1  0  0  3  0  0  0  0  0  0
  191.0730  175.4980  143.5070 C   0  0  1  0  0  3  0  0  0  0  0  0
  188.8620  172.7520  141.3720 C   0  0  0  0  0  2  0  0  0  0  0  0
  194.4560  174.0170  144.7370 C   0  0  1  0  0  3  0  0  0  0  0  0
  188.2570  174.5090  139.8700 F   0  0  0  0  0  0  0  0  0  0  0  0
  190.9740  177.2250  145.3950 C   0  0  0  0  0  2  0  0  0  0  0  0
  191.9440  177.5560  148.9650 O   0  0  0  0  0  1  0  0  0  0  0  0
  190.4610  175.8780  144.8630 C   0  0  2  0  0  3  0  0  0  0  0  0
  194.3120  172.5030  144.5570 C   0  0  0  0  0  2  0  0  0  0  0  0
  188.2700  175.3680  147.2710 C   0  0  0  0  0  2  0  0  0  0  0  0
  188.8630  174.1560  147.6860 O   0  0  0  0  0  0  0  0  0  0  0  0
  196.8890  174.3260  144.2250 C   0  0  0  0  0  3  0  0  0  0  0  0
  195.5630  174.6820  143.9530 C   0  0  0  0  0  0  0  0  0  0  0  0
  195.2960  175.6320  142.9550 C   0  0  0  0  0  3  0  0  0  0  0  0
  196.0720  177.1590  141.2580 O   0  0  0  0  0  1  0  0  0  0  0  0
  197.6650  175.8610  142.5220 C   0  0  0  0  0  3  0  0  0  0  0  0
  196.3440  176.2200  142.2430 C   0  0  0  0  0  0  0  0  0  0  0  0
  197.9380  174.9140  143.5120 C   0  0  0  0  0  3  0  0  0  0  0  0
  1  4  1  0  0  0  0
  2 22  1  0  0  0  0
  2 14  1  0  0  0  0
  2 17  1  0  0  0  0
  3  7  1  0  0  0  0
  4 29  1  0  0  0  0
  4 30  1  0  0  0  0
  4 12  1  0  0  0  0
  5 19  1  0  0  0  0
  6 22  1  0  0  0  0
  6 11  1  0  0  0  0
  6  9  1  0  0  0  0
  7 21  1  0  0  0  0
  7 10  1  0  0  0  0
  8 12  1  0  0  0  0
  8 26  1  0  0  0  0
  9 13  1  0  0  0  0
  9  3  1  0  0  0  0
 10  5  1  0  0  0  0
 13 21  1  0  0  0  0
 15 28  1  0  0  0  0
 16 11  1  0  0  0  0
 16 20  1  0  0  0  0
 17 13  1  0  0  0  0
 18  8  1  0  0  0  0
 19 18  1  0  0  0  0
 20  3  1  0  0  0  0
 20 15  1  0  0  0  0
 21 27  1  0  0  0  0
 23 10  1  0  0  0  0
 24  2  1  0  0  0  0
 25 18  1  0  0  0  0
 27 25  1  0  0  0  0
 27  1  1  0  0  0  0
 28 23  1  0  0  0  0
 29 30  1  0  0  0  0
 32 31  1  0  0  0  0
 32 23  1  0  0  0  0
 33 32  2  0  0  0  0
 34 36  1  0  0  0  0
 35 37  1  0  0  0  0
 36 35  2  0  0  0  0
 36 33  1  0  0  0  0
 37 31  2  0  0  0  0
M  END
>  <MODEL>
9

>  <REMARK>
 VINA RESULT:      -8.0      2.598      6.206
  Name = 
  1 active torsions:
  status: ('A' for Active; 'I' for Inactive)
    1  A    between atoms: C_23  and  C_30
                            x       y       z     vdW  Elec       q    Type
                         _______ _______ _______ _____ _____    ______ ____

>  <TORSDO>
F 1

$$$$
