=
 OpenBabel11112416133D

 30 35  0  0  1  0  0  0  0  0999 V2000
  187.6690  176.6220  145.5920 C   0  0  0  0  0  0  0  0  0  0  0  0
  185.9070  177.6770  147.0270 C   0  0  0  0  0  0  0  0  0  0  0  0
  185.3140  177.6340  141.7890 S   0  0  0  0  0  0  0  0  0  0  0  0
  188.1490  176.3230  144.2930 C   0  0  0  0  0  0  0  0  0  0  0  0
  188.4500  176.1070  146.7730 C   0  0  0  0  0  2  0  0  0  0  0  0
  191.6820  175.8720  145.0970 O   0  0  0  0  0  0  0  0  0  0  0  0
  188.4890  174.0410  142.4710 C   0  0  1  0  0  3  0  0  0  0  0  0
  190.4330  175.9270  145.2630 C   0  0  0  0  0  0  0  0  0  0  0  0
  188.5660  175.1690  141.4710 C   0  0  1  0  0  3  0  0  0  0  0  0
  186.6680  176.8050  140.8680 C   0  0  1  0  0  3  0  0  0  0  0  0
  189.8850  176.2230  146.5540 N   0  0  0  0  0  0  0  0  0  0  0  0
  189.5200  175.7060  144.0900 C   0  0  1  0  0  3  0  0  0  0  0  0
  184.6930  178.3610  147.1180 C   0  0  0  0  0  3  0  0  0  0  0  0
  188.2380  174.4950  140.1540 C   0  0  0  0  0  2  0  0  0  0  0  0
  188.7250  172.7720  141.6740 C   0  0  0  0  0  2  0  0  0  0  0  0
  186.5670  177.3780  148.2130 O   0  0  0  0  0  1  0  0  0  0  0  0
  186.1720  177.3300  143.3290 C   0  0  0  0  0  0  0  0  0  0  0  0
  183.9810  178.7040  145.9720 C   0  0  0  0  0  3  0  0  0  0  0  0
  186.4350  177.3170  145.7560 C   0  0  0  0  0  0  0  0  0  0  0  0
  187.3530  176.6450  143.1760 C   0  0  0  0  0  0  0  0  0  0  0  0
  187.3700  177.8240  139.9890 C   0  0  0  0  0  1  0  0  0  0  0  0
  187.6160  176.2390  141.8280 N   0  0  0  0  0  0  0  0  0  0  0  0
  188.6470  173.0980  140.2530 N   0  0  0  0  0  2  0  0  0  0  0  0
  190.7580  173.8270  143.2620 O   0  0  0  0  0  1  0  0  0  0  0  0
  184.4790  178.3650  144.7180 C   0  0  0  0  0  3  0  0  0  0  0  0
  185.6930  177.6810  144.5950 C   0  0  0  0  0  0  0  0  0  0  0  0
  189.4740  174.2360  143.6370 C   0  0  2  0  0  3  0  0  0  0  0  0
  190.7440  176.4260  147.7110 C   0  0  0  0  0  2  0  0  0  0  0  0
  191.4360  178.0140  149.4770 C   0  0  0  0  0  1  0  0  0  0  0  0
  190.5620  177.8310  148.2550 C   0  0  0  0  0  2  0  0  0  0  0  0
  1 19  1  0  0  0  0
  1  5  1  0  0  0  0
  2 13  1  0  0  0  0
  2 16  1  0  0  0  0
  3 17  1  0  0  0  0
  4  1  2  0  0  0  0
  6  8  2  0  0  0  0
  7 15  1  6  0  0  0
  7 27  1  0  0  0  0
  8 11  1  0  0  0  0
  9 14  1  6  0  0  0
  9 22  1  0  0  0  0
  9  7  1  0  0  0  0
 10 21  1  6  0  0  0
 10  3  1  0  0  0  0
 10 22  1  0  0  0  0
 11  5  1  0  0  0  0
 11 28  1  0  0  0  0
 12  4  1  1  0  0  0
 12  8  1  0  0  0  0
 14 23  1  0  0  0  0
 17 26  1  0  0  0  0
 18 13  2  0  0  0  0
 19  2  2  0  0  0  0
 20 17  2  0  0  0  0
 20  4  1  0  0  0  0
 22 20  1  0  0  0  0
 23 15  1  0  0  0  0
 25 18  1  0  0  0  0
 26 25  2  0  0  0  0
 26 19  1  0  0  0  0
 27 24  1  6  0  0  0
 27 12  1  0  0  0  0
 28 30  1  0  0  0  0
 30 29  1  0  0  0  0
M  END
>  <MODEL>
1

>  <REMARK>
 VINA RESULT:      -8.3      0.000      0.000
  Name = 
  2 active torsions:
  status: ('A' for Active; 'I' for Inactive)
    1  A    between atoms: N_11  and  C_28
    2  A    between atoms: C_28  and  C_30
                            x       y       z     vdW  Elec       q    Type
                         _______ _______ _______ _____ _____    ______ ____

>  <TORSDO>
F 2

$$$$
=
 OpenBabel11112416133D

 30 35  0  0  1  0  0  0  0  0999 V2000
  187.2730  176.7980  142.4660 C   0  0  0  0  0  0  0  0  0  0  0  0
  185.1070  178.0560  142.4830 C   0  0  0  0  0  0  0  0  0  0  0  0
  187.4430  176.8350  147.0490 S   0  0  0  0  0  0  0  0  0  0  0  0
  188.3090  176.1670  143.1980 C   0  0  0  0  0  0  0  0  0  0  0  0
  187.3990  176.8570  140.9660 C   0  0  0  0  0  2  0  0  0  0  0  0
  189.5540  173.9370  140.5870 O   0  0  0  0  0  0  0  0  0  0  0  0
  191.1320  176.5500  143.9240 C   0  0  1  0  0  3  0  0  0  0  0  0
  188.9810  174.9280  141.1170 C   0  0  0  0  0  0  0  0  0  0  0  0
  190.7370  175.5530  144.9850 C   0  0  1  0  0  3  0  0  0  0  0  0
  189.0350  175.9370  146.8830 C   0  0  1  0  0  3  0  0  0  0  0  0
  187.9270  175.6120  140.4260 N   0  0  0  0  0  0  0  0  0  0  0  0
  189.3930  175.3740  142.4920 C   0  0  1  0  0  3  0  0  0  0  0  0
  184.0790  178.6540  143.2160 C   0  0  0  0  0  3  0  0  0  0  0  0
  191.7910  175.7440  146.0570 C   0  0  0  0  0  2  0  0  0  0  0  0
  192.6140  176.7970  144.1260 C   0  0  0  0  0  2  0  0  0  0  0  0
  185.0140  178.0930  141.0970 O   0  0  0  0  0  1  0  0  0  0  0  0
  187.2550  176.8370  145.2690 C   0  0  0  0  0  0  0  0  0  0  0  0
  184.0990  178.6460  144.6080 C   0  0  0  0  0  3  0  0  0  0  0  0
  186.1940  177.4290  143.1520 C   0  0  0  0  0  0  0  0  0  0  0  0
  188.3010  176.2450  144.6050 C   0  0  0  0  0  0  0  0  0  0  0  0
  188.8940  174.5550  147.4920 C   0  0  0  0  0  1  0  0  0  0  0  0
  189.3680  175.8230  145.4620 N   0  0  0  0  0  0  0  0  0  0  0  0
  193.0070  176.2180  145.4070 N   0  0  0  0  0  2  0  0  0  0  0  0
  191.7380  175.1670  142.0420 O   0  0  0  0  0  1  0  0  0  0  0  0
  185.1520  178.0370  145.2840 C   0  0  0  0  0  3  0  0  0  0  0  0
  186.1940  177.4280  144.5770 C   0  0  0  0  0  0  0  0  0  0  0  0
  190.7690  176.0600  142.5100 C   0  0  2  0  0  3  0  0  0  0  0  0
  187.5180  175.2130  139.0880 C   0  0  0  0  0  2  0  0  0  0  0  0
  186.5050  175.9780  136.9650 C   0  0  0  0  0  1  0  0  0  0  0  0
  186.7930  176.3550  138.4020 C   0  0  0  0  0  2  0  0  0  0  0  0
  1 19  2  0  0  0  0
  1  4  1  0  0  0  0
  2 19  1  0  0  0  0
  2 13  2  0  0  0  0
  4 20  2  0  0  0  0
  5  1  1  0  0  0  0
  6  8  2  0  0  0  0
  7 15  1  6  0  0  0
  7  9  1  0  0  0  0
  9 22  1  0  0  0  0
  9 14  1  1  0  0  0
 10  3  1  0  0  0  0
 10 21  1  6  0  0  0
 11  5  1  0  0  0  0
 11  8  1  0  0  0  0
 12  8  1  6  0  0  0
 12 27  1  0  0  0  0
 12  4  1  0  0  0  0
 13 18  1  0  0  0  0
 15 23  1  0  0  0  0
 16  2  1  0  0  0  0
 17  3  1  0  0  0  0
 18 25  2  0  0  0  0
 19 26  1  0  0  0  0
 20 17  1  0  0  0  0
 20 22  1  0  0  0  0
 22 10  1  0  0  0  0
 23 14  1  0  0  0  0
 26 17  2  0  0  0  0
 26 25  1  0  0  0  0
 27 24  1  1  0  0  0
 27  7  1  0  0  0  0
 28 11  1  0  0  0  0
 29 30  1  0  0  0  0
 30 28  1  0  0  0  0
M  END
>  <MODEL>
2

>  <REMARK>
 VINA RESULT:      -8.0      2.376      5.714
  Name = 
  2 active torsions:
  status: ('A' for Active; 'I' for Inactive)
    1  A    between atoms: N_11  and  C_28
    2  A    between atoms: C_28  and  C_30
                            x       y       z     vdW  Elec       q    Type
                         _______ _______ _______ _____ _____    ______ ____

>  <TORSDO>
F 2

$$$$
=
 OpenBabel11112416133D

 30 35  0  0  1  0  0  0  0  0999 V2000
  188.1780  175.7100  142.0060 C   0  0  0  0  0  0  0  0  0  0  0  0
  186.3950  177.3840  141.4630 C   0  0  0  0  0  0  0  0  0  0  0  0
  188.1830  176.9980  146.4080 S   0  0  0  0  0  0  0  0  0  0  0  0
  188.9960  175.0910  142.9840 C   0  0  0  0  0  0  0  0  0  0  0  0
  188.3700  175.3130  140.5660 C   0  0  0  0  0  2  0  0  0  0  0  0
  189.7410  171.9920  141.2010 O   0  0  0  0  0  0  0  0  0  0  0  0
  191.7970  175.0040  143.8740 C   0  0  1  0  0  3  0  0  0  0  0  0
  189.4140  173.1960  141.3860 C   0  0  0  0  0  0  0  0  0  0  0  0
  191.1270  174.4660  145.1140 C   0  0  1  0  0  3  0  0  0  0  0  0
  189.5060  175.7500  146.6530 C   0  0  1  0  0  3  0  0  0  0  0  0
  188.5900  173.8800  140.4330 N   0  0  0  0  0  0  0  0  0  0  0  0
  189.8740  173.9050  142.6290 C   0  0  1  0  0  3  0  0  0  0  0  0
  185.5240  178.3830  141.9000 C   0  0  0  0  0  3  0  0  0  0  0  0
  192.1540  174.7040  146.2010 C   0  0  0  0  0  2  0  0  0  0  0  0
  193.2850  174.9520  144.1570 C   0  0  0  0  0  2  0  0  0  0  0  0
  186.3660  177.0490  140.1150 O   0  0  0  0  0  1  0  0  0  0  0  0
  188.0670  176.5410  144.6820 C   0  0  0  0  0  0  0  0  0  0  0  0
  185.4890  178.7650  143.2390 C   0  0  0  0  0  3  0  0  0  0  0  0
  187.2670  176.7390  142.3840 C   0  0  0  0  0  0  0  0  0  0  0  0
  188.9560  175.5620  144.3110 C   0  0  0  0  0  0  0  0  0  0  0  0
  189.0020  174.6660  147.5880 C   0  0  0  0  0  1  0  0  0  0  0  0
  189.8520  175.1660  145.3560 N   0  0  0  0  0  0  0  0  0  0  0  0
  193.4740  174.6840  145.5800 N   0  0  0  0  0  2  0  0  0  0  0  0
  192.1080  173.0460  142.4990 O   0  0  0  0  0  1  0  0  0  0  0  0
  186.3310  178.1460  144.1580 C   0  0  0  0  0  3  0  0  0  0  0  0
  187.2140  177.1400  143.7500 C   0  0  0  0  0  0  0  0  0  0  0  0
  191.3760  174.2330  142.6100 C   0  0  2  0  0  3  0  0  0  0  0  0
  188.1440  173.2250  139.2120 C   0  0  0  0  0  2  0  0  0  0  0  0
  189.2570  173.8470  137.0920 C   0  0  0  0  0  1  0  0  0  0  0  0
  188.1510  174.2100  138.0590 C   0  0  0  0  0  2  0  0  0  0  0  0
  1 19  2  0  0  0  0
  1  4  1  0  0  0  0
  2 13  2  0  0  0  0
  2 19  1  0  0  0  0
  3 10  1  0  0  0  0
  4 20  2  0  0  0  0
  5  1  1  0  0  0  0
  6  8  2  0  0  0  0
  7 15  1  1  0  0  0
  7  9  1  0  0  0  0
  9 22  1  0  0  0  0
  9 14  1  1  0  0  0
 10 21  1  1  0  0  0
 11  5  1  0  0  0  0
 11  8  1  0  0  0  0
 12  8  1  6  0  0  0
 12  4  1  0  0  0  0
 13 18  1  0  0  0  0
 15 23  1  0  0  0  0
 16  2  1  0  0  0  0
 17  3  1  0  0  0  0
 18 25  2  0  0  0  0
 19 26  1  0  0  0  0
 20 17  1  0  0  0  0
 20 22  1  0  0  0  0
 22 10  1  0  0  0  0
 23 14  1  0  0  0  0
 26 25  1  0  0  0  0
 26 17  2  0  0  0  0
 27 24  1  1  0  0  0
 27 12  1  0  0  0  0
 27  7  1  0  0  0  0
 28 11  1  0  0  0  0
 29 30  1  0  0  0  0
 30 28  1  0  0  0  0
M  END
>  <MODEL>
3

>  <REMARK>
 VINA RESULT:      -7.7      2.624      5.941
  Name = 
  2 active torsions:
  status: ('A' for Active; 'I' for Inactive)
    1  A    between atoms: N_11  and  C_28
    2  A    between atoms: C_28  and  C_30
                            x       y       z     vdW  Elec       q    Type
                         _______ _______ _______ _____ _____    ______ ____

>  <TORSDO>
F 2

$$$$
=
 OpenBabel11112416133D

 30 35  0  0  1  0  0  0  0  0999 V2000
  188.6260  175.9670  142.7170 C   0  0  0  0  0  0  0  0  0  0  0  0
  186.5160  177.3160  142.6760 C   0  0  0  0  0  0  0  0  0  0  0  0
  189.5980  177.4320  146.9520 S   0  0  0  0  0  0  0  0  0  0  0  0
  189.7650  175.5260  143.4360 C   0  0  0  0  0  0  0  0  0  0  0  0
  188.4880  175.5420  141.2780 C   0  0  0  0  0  2  0  0  0  0  0  0
  190.4980  172.5060  141.5190 O   0  0  0  0  0  0  0  0  0  0  0  0
  192.6770  175.9170  143.5340 C   0  0  1  0  0  3  0  0  0  0  0  0
  190.0420  173.6520  141.7860 C   0  0  0  0  0  0  0  0  0  0  0  0
  192.4590  175.3360  144.9090 C   0  0  1  0  0  3  0  0  0  0  0  0
  191.1220  176.4180  146.8300 C   0  0  1  0  0  3  0  0  0  0  0  0
  188.8940  174.1560  141.0910 N   0  0  0  0  0  0  0  0  0  0  0  0
  190.6960  174.4770  142.8580 C   0  0  1  0  0  3  0  0  0  0  0  0
  185.6430  178.1850  143.3330 C   0  0  0  0  0  3  0  0  0  0  0  0
  193.6870  175.7800  145.6780 C   0  0  0  0  0  2  0  0  0  0  0  0
  194.1750  176.1100  143.4040 C   0  0  0  0  0  2  0  0  0  0  0  0
  186.1820  176.9210  141.3870 O   0  0  0  0  0  1  0  0  0  0  0  0
  189.1010  176.8870  145.3220 C   0  0  0  0  0  0  0  0  0  0  0  0
  185.9060  178.6150  144.6310 C   0  0  0  0  0  3  0  0  0  0  0  0
  187.6950  176.8560  143.3270 C   0  0  0  0  0  0  0  0  0  0  0  0
  190.0050  176.0430  144.7240 C   0  0  0  0  0  0  0  0  0  0  0  0
  191.0700  175.3110  147.8660 C   0  0  0  0  0  1  0  0  0  0  0  0
  191.2000  175.8380  145.4880 N   0  0  0  0  0  0  0  0  0  0  0  0
  194.7780  175.9380  144.7230 N   0  0  0  0  0  2  0  0  0  0  0  0
  192.9230  173.9730  142.1270 O   0  0  0  0  0  1  0  0  0  0  0  0
  187.0520  178.1770  145.2880 C   0  0  0  0  0  3  0  0  0  0  0  0
  187.9450  177.3040  144.6570 C   0  0  0  0  0  0  0  0  0  0  0  0
  192.0650  175.0350  142.4320 C   0  0  2  0  0  3  0  0  0  0  0  0
  188.2510  173.3850  140.0370 C   0  0  0  0  0  2  0  0  0  0  0  0
  189.6710  173.7310  138.0410 C   0  0  0  0  0  1  0  0  0  0  0  0
  188.3690  174.1140  138.7120 C   0  0  0  0  0  2  0  0  0  0  0  0
  1 19  2  0  0  0  0
  1  4  1  0  0  0  0
  2 19  1  0  0  0  0
  2 13  2  0  0  0  0
  4 20  2  0  0  0  0
  5  1  1  0  0  0  0
  6  8  2  0  0  0  0
  7 15  1  6  0  0  0
  7  9  1  0  0  0  0
  9 22  1  0  0  0  0
  9 14  1  1  0  0  0
 10  3  1  0  0  0  0
 10 21  1  1  0  0  0
 11  5  1  0  0  0  0
 11  8  1  0  0  0  0
 12  8  1  6  0  0  0
 12  4  1  0  0  0  0
 13 18  1  0  0  0  0
 15 23  1  0  0  0  0
 16  2  1  0  0  0  0
 17  3  1  0  0  0  0
 18 25  2  0  0  0  0
 19 26  1  0  0  0  0
 20 17  1  0  0  0  0
 20 22  1  0  0  0  0
 22 10  1  0  0  0  0
 23 14  1  0  0  0  0
 26 25  1  0  0  0  0
 26 17  2  0  0  0  0
 27 24  1  1  0  0  0
 27 12  1  0  0  0  0
 27  7  1  0  0  0  0
 28 11  1  0  0  0  0
 29 30  1  0  0  0  0
 30 28  1  0  0  0  0
M  END
>  <MODEL>
4

>  <REMARK>
 VINA RESULT:      -7.7      2.583      5.879
  Name = 
  2 active torsions:
  status: ('A' for Active; 'I' for Inactive)
    1  A    between atoms: N_11  and  C_28
    2  A    between atoms: C_28  and  C_30
                            x       y       z     vdW  Elec       q    Type
                         _______ _______ _______ _____ _____    ______ ____

>  <TORSDO>
F 2

$$$$
=
 OpenBabel11112416133D

 30 35  0  0  1  0  0  0  0  0999 V2000
  189.2980  176.5450  145.5350 C   0  0  0  0  0  0  0  0  0  0  0  0
  191.4370  176.4100  146.8330 C   0  0  0  0  0  0  0  0  0  0  0  0
  191.1070  174.0900  142.1100 S   0  0  0  0  0  0  0  0  0  0  0  0
  188.5580  176.1760  144.3850 C   0  0  0  0  0  0  0  0  0  0  0  0
  188.6530  177.4810  146.5240 C   0  0  0  0  0  2  0  0  0  0  0  0
  185.1910  176.6650  145.7120 O   0  0  0  0  0  0  0  0  0  0  0  0
  187.5150  177.3320  141.8910 C   0  0  1  0  0  3  0  0  0  0  0  0
  186.4400  176.7910  145.5900 C   0  0  0  0  0  0  0  0  0  0  0  0
  187.4680  175.8690  141.5240 C   0  0  1  0  0  3  0  0  0  0  0  0
  189.4910  174.2940  141.2640 C   0  0  1  0  0  3  0  0  0  0  0  0
  187.2450  177.1650  146.7160 N   0  0  0  0  0  0  0  0  0  0  0  0
  187.0850  176.5210  144.2600 C   0  0  1  0  0  3  0  0  0  0  0  0
  192.7490  175.9420  146.9250 C   0  0  0  0  0  3  0  0  0  0  0  0
  187.4410  175.8860  140.0100 C   0  0  0  0  0  2  0  0  0  0  0  0
  186.9270  178.0700  140.7050 C   0  0  0  0  0  2  0  0  0  0  0  0
  190.9480  177.1670  147.8900 O   0  0  0  0  0  1  0  0  0  0  0  0
  190.4860  174.9990  143.5210 C   0  0  0  0  0  0  0  0  0  0  0  0
  193.3040  175.1690  145.9090 C   0  0  0  0  0  3  0  0  0  0  0  0
  190.6440  176.1030  145.6920 C   0  0  0  0  0  0  0  0  0  0  0  0
  189.1950  175.4410  143.3660 C   0  0  0  0  0  0  0  0  0  0  0  0
  188.8380  172.9340  141.1010 C   0  0  0  0  0  1  0  0  0  0  0  0
  188.6370  175.1610  142.0770 N   0  0  0  0  0  0  0  0  0  0  0  0
  186.8170  177.1360  139.5880 N   0  0  0  0  0  2  0  0  0  0  0  0
  185.4140  177.7050  143.0160 O   0  0  0  0  0  1  0  0  0  0  0  0
  192.5460  174.8540  144.7850 C   0  0  0  0  0  3  0  0  0  0  0  0
  191.2280  175.3070  144.6650 C   0  0  0  0  0  0  0  0  0  0  0  0
  186.7950  177.6160  143.2210 C   0  0  2  0  0  3  0  0  0  0  0  0
  186.6450  177.4480  148.0120 C   0  0  0  0  0  2  0  0  0  0  0  0
  185.9410  179.7830  147.5950 C   0  0  0  0  0  1  0  0  0  0  0  0
  186.8800  178.8990  148.3880 C   0  0  0  0  0  2  0  0  0  0  0  0
  1 19  1  0  0  0  0
  1  5  1  0  0  0  0
  2 13  1  0  0  0  0
  2 16  1  0  0  0  0
  3 17  1  0  0  0  0
  4  1  2  0  0  0  0
  5 11  1  0  0  0  0
  7 15  1  6  0  0  0
  7 27  1  0  0  0  0
  8  6  2  0  0  0  0
  8 11  1  0  0  0  0
  9 14  1  6  0  0  0
  9  7  1  0  0  0  0
  9 22  1  0  0  0  0
 10 21  1  1  0  0  0
 10 22  1  0  0  0  0
 10  3  1  0  0  0  0
 11 28  1  0  0  0  0
 12  4  1  1  0  0  0
 12  8  1  0  0  0  0
 17 26  1  0  0  0  0
 18 13  2  0  0  0  0
 19  2  2  0  0  0  0
 20 17  2  0  0  0  0
 20  4  1  0  0  0  0
 22 20  1  0  0  0  0
 23 14  1  0  0  0  0
 23 15  1  0  0  0  0
 25 18  1  0  0  0  0
 26 25  2  0  0  0  0
 26 19  1  0  0  0  0
 27 24  1  6  0  0  0
 27 12  1  0  0  0  0
 28 30  1  0  0  0  0
 29 30  1  0  0  0  0
M  END
>  <MODEL>
5

>  <REMARK>
 VINA RESULT:      -7.5      2.389      5.013
  Name = 
  2 active torsions:
  status: ('A' for Active; 'I' for Inactive)
    1  A    between atoms: N_11  and  C_28
    2  A    between atoms: C_28  and  C_30
                            x       y       z     vdW  Elec       q    Type
                         _______ _______ _______ _____ _____    ______ ____

>  <TORSDO>
F 2

$$$$
=
 OpenBabel11112416133D

 30 35  0  0  1  0  0  0  0  0999 V2000
  188.1180  175.7730  142.1550 C   0  0  0  0  0  0  0  0  0  0  0  0
  186.7170  176.9360  140.4350 C   0  0  0  0  0  0  0  0  0  0  0  0
  186.3330  178.3560  145.4980 S   0  0  0  0  0  0  0  0  0  0  0  0
  188.4640  175.6060  143.5190 C   0  0  0  0  0  0  0  0  0  0  0  0
  188.8780  174.9770  141.1270 C   0  0  0  0  0  2  0  0  0  0  0  0
  189.8600  172.2360  143.3280 O   0  0  0  0  0  0  0  0  0  0  0  0
  190.6590  176.1810  145.3890 C   0  0  1  0  0  3  0  0  0  0  0  0
  189.4900  173.3830  142.9520 C   0  0  0  0  0  0  0  0  0  0  0  0
  189.5400  175.9700  146.3790 C   0  0  1  0  0  3  0  0  0  0  0  0
  187.4370  177.4380  146.6410 C   0  0  1  0  0  3  0  0  0  0  0  0
  189.1280  173.6170  141.5850 N   0  0  0  0  0  0  0  0  0  0  0  0
  189.4060  174.4980  143.9550 C   0  0  1  0  0  3  0  0  0  0  0  0
  185.7460  177.8940  140.1360 C   0  0  0  0  0  3  0  0  0  0  0  0
  190.0360  176.6730  147.6260 C   0  0  0  0  0  2  0  0  0  0  0  0
  191.9030  176.4210  146.2220 C   0  0  0  0  0  2  0  0  0  0  0  0
  187.2380  176.1970  139.3810 O   0  0  0  0  0  1  0  0  0  0  0  0
  186.9290  177.3730  144.1270 C   0  0  0  0  0  0  0  0  0  0  0  0
  185.1700  178.6660  141.1420 C   0  0  0  0  0  3  0  0  0  0  0  0
  187.1350  176.7350  141.7800 C   0  0  0  0  0  0  0  0  0  0  0  0
  187.8890  176.4570  144.4830 C   0  0  0  0  0  0  0  0  0  0  0  0
  186.5930  176.6420  147.6180 C   0  0  0  0  0  1  0  0  0  0  0  0
  188.2800  176.5310  145.8590 N   0  0  0  0  0  0  0  0  0  0  0  0
  191.4940  176.6380  147.6070 N   0  0  0  0  0  2  0  0  0  0  0  0
  191.4960  173.9530  144.9930 O   0  0  0  0  0  1  0  0  0  0  0  0
  185.5630  178.4840  142.4650 C   0  0  0  0  0  3  0  0  0  0  0  0
  186.5310  177.5310  142.7960 C   0  0  0  0  0  0  0  0  0  0  0  0
  190.7870  175.0050  144.4040 C   0  0  2  0  0  3  0  0  0  0  0  0
  189.2160  172.5600  140.5890 C   0  0  0  0  0  2  0  0  0  0  0  0
  188.8860  172.7970  138.1480 C   0  0  0  0  0  1  0  0  0  0  0  0
  188.1920  172.7900  139.4930 C   0  0  0  0  0  2  0  0  0  0  0  0
  1  4  1  0  0  0  0
  2 19  1  0  0  0  0
  3 10  1  0  0  0  0
  4 12  1  0  0  0  0
  4 20  2  0  0  0  0
  5 11  1  0  0  0  0
  5  1  1  0  0  0  0
  7 15  1  1  0  0  0
  7  9  1  0  0  0  0
  8  6  2  0  0  0  0
  9 14  1  1  0  0  0
 10 21  1  1  0  0  0
 11  8  1  0  0  0  0
 12  8  1  6  0  0  0
 12 27  1  0  0  0  0
 13  2  2  0  0  0  0
 13 18  1  0  0  0  0
 15 23  1  0  0  0  0
 16  2  1  0  0  0  0
 17 20  1  0  0  0  0
 17  3  1  0  0  0  0
 18 25  2  0  0  0  0
 19  1  2  0  0  0  0
 19 26  1  0  0  0  0
 20 22  1  0  0  0  0
 22  9  1  0  0  0  0
 22 10  1  0  0  0  0
 23 14  1  0  0  0  0
 25 26  1  0  0  0  0
 26 17  2  0  0  0  0
 27 24  1  1  0  0  0
 27  7  1  0  0  0  0
 28 11  1  0  0  0  0
 29 30  1  0  0  0  0
 30 28  1  0  0  0  0
M  END
>  <MODEL>
6

>  <REMARK>
 VINA RESULT:      -7.5      2.151      5.887
  Name = 
  2 active torsions:
  status: ('A' for Active; 'I' for Inactive)
    1  A    between atoms: N_11  and  C_28
    2  A    between atoms: C_28  and  C_30
                            x       y       z     vdW  Elec       q    Type
                         _______ _______ _______ _____ _____    ______ ____

>  <TORSDO>
F 2

$$$$
=
 OpenBabel11112416133D

 30 35  0  0  1  0  0  0  0  0999 V2000
  190.1300  176.6130  144.9560 C   0  0  0  0  0  0  0  0  0  0  0  0
  189.0750  177.5410  147.0300 C   0  0  0  0  0  0  0  0  0  0  0  0
  186.1460  176.8640  142.6990 S   0  0  0  0  0  0  0  0  0  0  0  0
  190.0000  176.2540  143.5920 C   0  0  0  0  0  0  0  0  0  0  0  0
  191.4470  176.3460  145.6390 C   0  0  0  0  0  2  0  0  0  0  0  0
  193.5220  176.4160  142.6380 O   0  0  0  0  0  0  0  0  0  0  0  0
  189.8630  173.8690  141.8780 C   0  0  1  0  0  3  0  0  0  0  0  0
  192.5030  176.3030  143.3740 C   0  0  0  0  0  0  0  0  0  0  0  0
  189.2660  174.8850  140.9360 C   0  0  1  0  0  3  0  0  0  0  0  0
  187.0450  176.1520  141.2660 C   0  0  1  0  0  3  0  0  0  0  0  0
  192.5710  176.6480  144.7640 N   0  0  0  0  0  0  0  0  0  0  0  0
  191.2080  175.8280  142.7790 C   0  0  1  0  0  3  0  0  0  0  0  0
  187.9390  178.0440  147.6690 C   0  0  0  0  0  3  0  0  0  0  0  0
  188.4930  174.0370  139.9470 C   0  0  0  0  0  2  0  0  0  0  0  0
  189.9280  172.5730  141.0940 C   0  0  0  0  0  2  0  0  0  0  0  0
  190.2490  177.4680  147.7690 O   0  0  0  0  0  1  0  0  0  0  0  0
  187.6580  176.8520  143.6560 C   0  0  0  0  0  0  0  0  0  0  0  0
  186.7290  178.1570  146.9900 C   0  0  0  0  0  3  0  0  0  0  0  0
  189.0100  177.1320  145.6700 C   0  0  0  0  0  0  0  0  0  0  0  0
  188.7350  176.3370  142.9780 C   0  0  0  0  0  0  0  0  0  0  0  0
  187.0660  177.1650  140.1370 C   0  0  0  0  0  1  0  0  0  0  0  0
  188.4140  175.8350  141.6750 N   0  0  0  0  0  0  0  0  0  0  0  0
  189.1450  172.7340  139.8720 N   0  0  0  0  0  2  0  0  0  0  0  0
  192.2380  174.0770  141.5070 O   0  0  0  0  0  1  0  0  0  0  0  0
  186.6440  177.7650  145.6570 C   0  0  0  0  0  3  0  0  0  0  0  0
  187.7640  177.2590  144.9900 C   0  0  0  0  0  0  0  0  0  0  0  0
  191.2220  174.3290  142.4350 C   0  0  2  0  0  3  0  0  0  0  0  0
  193.8150  177.0960  145.3720 C   0  0  0  0  0  2  0  0  0  0  0  0
  195.0530  175.0420  145.9800 C   0  0  0  0  0  1  0  0  0  0  0  0
  194.1990  176.1730  146.5130 C   0  0  0  0  0  2  0  0  0  0  0  0
  1  5  1  0  0  0  0
  1 19  1  0  0  0  0
  2 13  1  0  0  0  0
  2 16  1  0  0  0  0
  3 17  1  0  0  0  0
  4  1  2  0  0  0  0
  6  8  2  0  0  0  0
  7 15  1  6  0  0  0
  7 27  1  0  0  0  0
  8 11  1  0  0  0  0
  9 14  1  6  0  0  0
  9 22  1  0  0  0  0
  9  7  1  0  0  0  0
 10 21  1  6  0  0  0
 10 22  1  0  0  0  0
 10  3  1  0  0  0  0
 11 28  1  0  0  0  0
 11  5  1  0  0  0  0
 12  8  1  1  0  0  0
 12  4  1  0  0  0  0
 17 26  1  0  0  0  0
 18 13  2  0  0  0  0
 19  2  2  0  0  0  0
 20  4  1  0  0  0  0
 20 17  2  0  0  0  0
 22 20  1  0  0  0  0
 23 14  1  0  0  0  0
 23 15  1  0  0  0  0
 25 18  1  0  0  0  0
 26 25  2  0  0  0  0
 26 19  1  0  0  0  0
 27 24  1  6  0  0  0
 27 12  1  0  0  0  0
 28 30  1  0  0  0  0
 29 30  1  0  0  0  0
M  END
>  <MODEL>
7

>  <REMARK>
 VINA RESULT:      -7.5      2.080      2.630
  Name = 
  2 active torsions:
  status: ('A' for Active; 'I' for Inactive)
    1  A    between atoms: N_11  and  C_28
    2  A    between atoms: C_28  and  C_30
                            x       y       z     vdW  Elec       q    Type
                         _______ _______ _______ _____ _____    ______ ____

>  <TORSDO>
F 2

$$$$
=
 OpenBabel11112416133D

 30 35  0  0  1  0  0  0  0  0999 V2000
  189.2510  174.9610  142.0850 C   0  0  0  0  0  0  0  0  0  0  0  0
  189.4370  173.6260  139.9730 C   0  0  0  0  0  0  0  0  0  0  0  0
  193.6590  174.1800  143.0810 S   0  0  0  0  0  0  0  0  0  0  0  0
  189.8850  175.5070  143.2290 C   0  0  0  0  0  0  0  0  0  0  0  0
  187.7640  175.1540  141.9380 C   0  0  0  0  0  2  0  0  0  0  0  0
  187.5110  178.1850  143.9530 O   0  0  0  0  0  0  0  0  0  0  0  0
  190.0270  175.1300  146.1410 C   0  0  1  0  0  3  0  0  0  0  0  0
  187.9580  177.0970  143.4980 C   0  0  0  0  0  0  0  0  0  0  0  0
  191.2940  175.9210  145.9320 C   0  0  1  0  0  3  0  0  0  0  0  0
  193.3690  175.1590  144.6060 C   0  0  1  0  0  3  0  0  0  0  0  0
  187.3580  176.4920  142.3450 N   0  0  0  0  0  0  0  0  0  0  0  0
  189.1430  176.4490  144.1570 C   0  0  1  0  0  3  0  0  0  0  0  0
  190.2280  172.8730  139.1030 C   0  0  0  0  0  3  0  0  0  0  0  0
  192.1160  175.6020  147.1640 C   0  0  0  0  0  2  0  0  0  0  0  0
  189.9200  174.9160  147.6380 C   0  0  0  0  0  2  0  0  0  0  0  0
  188.1030  173.8130  139.6320 O   0  0  0  0  0  1  0  0  0  0  0  0
  191.9660  174.4620  142.5750 C   0  0  0  0  0  0  0  0  0  0  0  0
  191.5760  172.6530  139.3730 C   0  0  0  0  0  3  0  0  0  0  0  0
  190.0000  174.1800  141.1560 C   0  0  0  0  0  0  0  0  0  0  0  0
  191.2380  175.1990  143.4760 C   0  0  0  0  0  0  0  0  0  0  0  0
  194.2180  176.4160  144.5610 C   0  0  0  0  0  1  0  0  0  0  0  0
  191.9520  175.5190  144.6760 N   0  0  0  0  0  0  0  0  0  0  0  0
  191.1910  175.2920  148.2490 N   0  0  0  0  0  2  0  0  0  0  0  0
  188.3290  176.8270  146.3800 O   0  0  0  0  0  1  0  0  0  0  0  0
  192.1480  173.1870  140.5240 C   0  0  0  0  0  3  0  0  0  0  0  0
  191.3820  173.9470  141.4140 C   0  0  0  0  0  0  0  0  0  0  0  0
  188.8030  175.8280  145.5220 C   0  0  2  0  0  3  0  0  0  0  0  0
  186.2000  177.0870  141.6960 C   0  0  0  0  0  2  0  0  0  0  0  0
  186.3420  177.1660  139.2270 C   0  0  0  0  0  1  0  0  0  0  0  0
  186.6400  177.9190  140.5060 C   0  0  0  0  0  2  0  0  0  0  0  0
  1  4  1  0  0  0  0
  2 19  1  0  0  0  0
  3 10  1  0  0  0  0
  4 20  2  0  0  0  0
  5  1  1  0  0  0  0
  5 11  1  0  0  0  0
  7 15  1  1  0  0  0
  8  6  2  0  0  0  0
  8 12  1  0  0  0  0
  9  7  1  0  0  0  0
  9 14  1  1  0  0  0
 10 21  1  6  0  0  0
 10 22  1  0  0  0  0
 11  8  1  0  0  0  0
 12  4  1  6  0  0  0
 12 27  1  0  0  0  0
 13 18  1  0  0  0  0
 13  2  2  0  0  0  0
 14 23  1  0  0  0  0
 15 23  1  0  0  0  0
 16  2  1  0  0  0  0
 17  3  1  0  0  0  0
 17 20  1  0  0  0  0
 18 25  2  0  0  0  0
 19 26  1  0  0  0  0
 19  1  2  0  0  0  0
 20 22  1  0  0  0  0
 22  9  1  0  0  0  0
 25 26  1  0  0  0  0
 26 17  2  0  0  0  0
 27  7  1  0  0  0  0
 27 24  1  1  0  0  0
 28 11  1  0  0  0  0
 29 30  1  0  0  0  0
 30 28  1  0  0  0  0
M  END
>  <MODEL>
8

>  <REMARK>
 VINA RESULT:      -6.9      3.080      7.222
  Name = 
  2 active torsions:
  status: ('A' for Active; 'I' for Inactive)
    1  A    between atoms: N_11  and  C_28
    2  A    between atoms: C_28  and  C_30
                            x       y       z     vdW  Elec       q    Type
                         _______ _______ _______ _____ _____    ______ ____

>  <TORSDO>
F 2

$$$$
=
 OpenBabel11112416133D

 30 35  0  0  1  0  0  0  0  0999 V2000
  190.6350  175.3910  143.2960 C   0  0  0  0  0  0  0  0  0  0  0  0
  188.7080  176.2920  144.6180 C   0  0  0  0  0  0  0  0  0  0  0  0
  193.5780  176.5300  146.6240 S   0  0  0  0  0  0  0  0  0  0  0  0
  192.0210  175.1060  143.2220 C   0  0  0  0  0  0  0  0  0  0  0  0
  189.7880  175.1130  142.0820 C   0  0  0  0  0  2  0  0  0  0  0  0
  191.9200  172.5280  140.6380 O   0  0  0  0  0  0  0  0  0  0  0  0
  194.4640  176.0520  141.8870 C   0  0  1  0  0  3  0  0  0  0  0  0
  191.5620  173.5230  141.3260 C   0  0  0  0  0  0  0  0  0  0  0  0
  195.0870  175.2870  143.0290 C   0  0  1  0  0  3  0  0  0  0  0  0
  194.8920  175.8580  145.5350 C   0  0  1  0  0  3  0  0  0  0  0  0
  190.1740  173.8650  141.4380 N   0  0  0  0  0  0  0  0  0  0  0  0
  192.5980  174.3340  142.0500 C   0  0  1  0  0  3  0  0  0  0  0  0
  188.2410  176.8920  145.7900 C   0  0  0  0  0  3  0  0  0  0  0  0
  196.4800  175.8740  143.1280 C   0  0  0  0  0  2  0  0  0  0  0  0
  195.6240  176.5500  141.0470 C   0  0  0  0  0  2  0  0  0  0  0  0
  187.7750  175.9880  143.6350 O   0  0  0  0  0  1  0  0  0  0  0  0
  192.3410  176.0860  145.4100 C   0  0  0  0  0  0  0  0  0  0  0  0
  189.1150  177.2150  146.8240 C   0  0  0  0  0  3  0  0  0  0  0  0
  190.0920  176.0040  144.4630 C   0  0  0  0  0  0  0  0  0  0  0  0
  192.8620  175.5110  144.2770 C   0  0  0  0  0  0  0  0  0  0  0  0
  195.5260  174.6520  146.2030 C   0  0  0  0  0  1  0  0  0  0  0  0
  194.2940  175.4610  144.2590 N   0  0  0  0  0  0  0  0  0  0  0  0
  196.8580  176.3530  141.8030 N   0  0  0  0  0  2  0  0  0  0  0  0
  194.1160  174.3670  140.1950 O   0  0  0  0  0  1  0  0  0  0  0  0
  190.4740  176.9400  146.6950 C   0  0  0  0  0  3  0  0  0  0  0  0
  190.9710  176.3390  145.5340 C   0  0  0  0  0  0  0  0  0  0  0  0
  193.4510  175.1960  141.1050 C   0  0  2  0  0  3  0  0  0  0  0  0
  189.1500  173.1070  140.7350 C   0  0  0  0  0  2  0  0  0  0  0  0
  189.2770  173.7120  138.3390 C   0  0  0  0  0  1  0  0  0  0  0  0
  188.5360  173.9550  139.6360 C   0  0  0  0  0  2  0  0  0  0  0  0
  1 19  1  0  0  0  0
  2 13  1  0  0  0  0
  4  1  2  0  0  0  0
  4 20  1  0  0  0  0
  5  1  1  0  0  0  0
  6  8  2  0  0  0  0
  7 15  1  6  0  0  0
  7  9  1  0  0  0  0
  8 11  1  0  0  0  0
  9 14  1  1  0  0  0
  9 22  1  0  0  0  0
 10 21  1  1  0  0  0
 10  3  1  0  0  0  0
 11  5  1  0  0  0  0
 12  8  1  6  0  0  0
 12  4  1  0  0  0  0
 13 18  2  0  0  0  0
 15 23  1  0  0  0  0
 16  2  1  0  0  0  0
 17 26  1  0  0  0  0
 17  3  1  0  0  0  0
 19  2  2  0  0  0  0
 19 26  1  0  0  0  0
 20 17  2  0  0  0  0
 22 20  1  0  0  0  0
 22 10  1  0  0  0  0
 23 14  1  0  0  0  0
 25 18  1  0  0  0  0
 26 25  2  0  0  0  0
 27 24  1  6  0  0  0
 27  7  1  0  0  0  0
 27 12  1  0  0  0  0
 28 11  1  0  0  0  0
 29 30  1  0  0  0  0
 30 28  1  0  0  0  0
M  END
>  <MODEL>
9

>  <REMARK>
 VINA RESULT:      -6.9      4.105      6.864
  Name = 
  2 active torsions:
  status: ('A' for Active; 'I' for Inactive)
    1  A    between atoms: N_11  and  C_28
    2  A    between atoms: C_28  and  C_30
                            x       y       z     vdW  Elec       q    Type
                         _______ _______ _______ _____ _____    ______ ____

>  <TORSDO>
F 2

$$$$
