=
 OpenBabel11112416163D

 30 35  0  0  1  0  0  0  0  0999 V2000
  187.1650  176.9930  143.9250 C   0  0  1  0  0  3  0  0  0  0  0  0
  185.0730  177.9400  145.0390 C   0  0  0  0  0  0  0  0  0  0  0  0
  189.0560  176.9010  147.5730 N   0  0  0  0  0  0  0  0  0  0  0  0
  188.4560  176.1970  144.2520 C   0  0  1  0  0  3  0  0  0  0  0  0
  186.3290  176.2120  143.1040 O   0  0  0  0  0  0  0  0  0  0  0  0
  188.9260  175.1740  140.7750 O   0  0  0  0  0  1  0  0  0  0  0  0
  191.6070  175.8370  143.5820 C   0  0  1  0  0  3  0  0  0  0  0  0
  188.2950  175.2800  142.0180 C   0  0  2  0  0  3  0  0  0  0  0  0
  191.7350  176.1970  145.0650 C   0  0  2  0  0  3  0  0  0  0  0  0
  190.2920  176.3430  147.1730 C   0  0  0  0  0  0  0  0  0  0  0  0
  186.9710  176.0430  141.8570 C   0  0  2  0  0  3  0  0  0  0  0  0
  189.1850  175.9350  142.9930 N   0  0  2  0  0  0  0  0  0  0  0  0
  184.4020  178.4320  146.1630 C   0  0  0  0  0  3  0  0  0  0  0  0
  192.6450  175.1370  145.6490 C   0  0  0  0  0  2  0  0  0  0  0  0
  192.8460  175.0250  143.2360 C   0  0  0  0  0  2  0  0  0  0  0  0
  184.4130  177.8940  143.8550 F   0  0  0  0  0  0  0  0  0  0  0  0
  188.4850  177.2600  146.4700 C   0  0  0  0  0  0  0  0  0  0  0  0
  185.0560  178.5230  147.3930 C   0  0  0  0  0  3  0  0  0  0  0  0
  186.4120  177.5090  145.1440 C   0  0  0  0  0  0  0  0  0  0  0  0
  189.3030  177.0110  145.2400 C   0  0  1  0  0  3  0  0  0  0  0  0
  191.1620  175.9550  147.9970 O   0  0  0  0  0  0  0  0  0  0  0  0
  190.4460  176.2670  145.7580 N   0  0  0  0  0  0  0  0  0  0  0  0
  193.6030  174.7890  144.5320 C   0  0  0  0  0  2  0  0  0  0  0  0
  190.0640  173.7970  144.0310 C   0  0  0  0  0  1  0  0  0  0  0  0
  186.3930  178.1390  147.5020 C   0  0  0  0  0  3  0  0  0  0  0  0
  187.0770  177.6550  146.3800 C   0  0  0  0  0  0  0  0  0  0  0  0
  190.3470  175.0500  143.1910 C   0  0  2  0  0  3  0  0  0  0  0  0
  187.1590  177.2740  141.2110 O   0  0  0  0  0  0  0  0  0  0  0  0
  185.1140  178.3100  140.5860 C   0  0  0  0  0  1  0  0  0  0  0  0
  186.1850  177.3060  140.2130 C   0  0  0  0  0  2  0  0  0  0  0  0
  1  5  1  1  0  0  0
  1  4  1  0  0  0  0
  1 19  1  0  0  0  0
  2 19  2  0  0  0  0
  2 13  1  0  0  0  0
  4 20  1  0  0  0  0
  6  8  1  0  0  0  0
  7  9  1  0  0  0  0
  8 12  1  0  0  0  0
  9 14  1  0  0  0  0
  9 22  1  0  0  0  0
 10  3  1  0  0  0  0
 10 21  2  0  0  0  0
 11  8  1  0  0  0  0
 11  5  1  0  0  0  0
 12 27  1  0  0  0  0
 12  4  1  0  0  0  0
 13 18  2  0  0  0  0
 15  7  1  0  0  0  0
 15 23  1  0  0  0  0
 16  2  1  0  0  0  0
 17  3  2  0  0  0  0
 18 25  1  0  0  0  0
 19 26  1  0  0  0  0
 20 22  1  0  0  0  0
 20 17  1  0  0  0  0
 22 10  1  0  0  0  0
 23 14  1  0  0  0  0
 26 17  1  0  0  0  0
 26 25  2  0  0  0  0
 27  7  1  0  0  0  0
 27 24  1  0  0  0  0
 28 11  1  0  0  0  0
 30 29  1  0  0  0  0
 30 28  1  0  0  0  0
M  END
>  <MODEL>
1

>  <REMARK>
 VINA RESULT:      -8.6      0.000      0.000
  Name = 
  2 active torsions:
  status: ('A' for Active; 'I' for Inactive)
    1  A    between atoms: C_11  and  O_28
    2  A    between atoms: O_28  and  C_30
                            x       y       z     vdW  Elec       q    Type
                         _______ _______ _______ _____ _____    ______ ____

>  <TORSDO>
F 2

$$$$
=
 OpenBabel11112416163D

 30 35  0  0  1  0  0  0  0  0999 V2000
  189.3360  175.4540  143.9660 C   0  0  1  0  0  3  0  0  0  0  0  0
  191.3610  174.7280  145.3400 C   0  0  0  0  0  0  0  0  0  0  0  0
  187.9620  177.6420  147.1640 N   0  0  0  0  0  0  0  0  0  0  0  0
  188.2500  176.5610  143.9030 C   0  0  1  0  0  3  0  0  0  0  0  0
  190.1830  175.5640  142.8460 O   0  0  0  0  0  0  0  0  0  0  0  0
  187.5260  175.9030  140.3820 O   0  0  0  0  0  1  0  0  0  0  0  0
  185.1470  177.2140  143.2320 C   0  0  1  0  0  3  0  0  0  0  0  0
  188.2820  176.2640  141.5010 C   0  0  2  0  0  3  0  0  0  0  0  0
  185.1480  177.6280  144.7070 C   0  0  2  0  0  3  0  0  0  0  0  0
  186.7990  178.1910  146.5780 C   0  0  0  0  0  0  0  0  0  0  0  0
  189.4260  175.2570  141.6930 C   0  0  2  0  0  3  0  0  0  0  0  0
  187.4230  176.3460  142.6960 N   0  0  2  0  0  0  0  0  0  0  0  0
  192.0750  174.6930  146.5420 C   0  0  0  0  0  3  0  0  0  0  0  0
  184.5110  179.0020  144.7290 C   0  0  0  0  0  2  0  0  0  0  0  0
  184.0290  178.0070  142.5710 C   0  0  0  0  0  2  0  0  0  0  0  0
  191.8650  174.0730  144.2650 F   0  0  0  0  0  0  0  0  0  0  0  0
  188.3220  176.6960  146.3580 C   0  0  0  0  0  0  0  0  0  0  0  0
  191.5750  175.3300  147.6790 C   0  0  0  0  0  3  0  0  0  0  0  0
  190.1390  175.4270  145.2610 C   0  0  0  0  0  0  0  0  0  0  0  0
  187.4090  176.5030  145.1850 C   0  0  1  0  0  3  0  0  0  0  0  0
  186.1180  179.0930  147.1350 O   0  0  0  0  0  0  0  0  0  0  0  0
  186.4820  177.6240  145.3090 N   0  0  0  0  0  0  0  0  0  0  0  0
  183.4930  178.9750  143.6100 C   0  0  0  0  0  2  0  0  0  0  0  0
  187.0570  178.8510  142.5900 C   0  0  0  0  0  1  0  0  0  0  0  0
  190.3480  175.9900  147.6260 C   0  0  0  0  0  3  0  0  0  0  0  0
  189.6190  176.0210  146.4310 C   0  0  0  0  0  0  0  0  0  0  0  0
  186.4620  177.4410  142.4720 C   0  0  2  0  0  3  0  0  0  0  0  0
  188.9530  173.9370  141.7320 O   0  0  0  0  0  0  0  0  0  0  0  0
  190.2040  171.9690  142.1850 C   0  0  0  0  0  1  0  0  0  0  0  0
  190.0180  173.1620  141.2720 C   0  0  0  0  0  2  0  0  0  0  0  0
  1  5  1  6  0  0  0
  1 19  1  0  0  0  0
  2 13  1  0  0  0  0
  4  1  1  0  0  0  0
  4 20  1  0  0  0  0
  6  8  1  0  0  0  0
  7  9  1  0  0  0  0
  8 11  1  0  0  0  0
  8 12  1  0  0  0  0
  9 14  1  0  0  0  0
  9 22  1  0  0  0  0
 10 21  2  0  0  0  0
 10  3  1  0  0  0  0
 11 28  1  0  0  0  0
 11  5  1  0  0  0  0
 12  4  1  0  0  0  0
 13 18  2  0  0  0  0
 15  7  1  0  0  0  0
 15 23  1  0  0  0  0
 16  2  1  0  0  0  0
 17 26  1  0  0  0  0
 17  3  2  0  0  0  0
 19  2  2  0  0  0  0
 19 26  1  0  0  0  0
 20 22  1  0  0  0  0
 20 17  1  0  0  0  0
 22 10  1  0  0  0  0
 23 14  1  0  0  0  0
 25 18  1  0  0  0  0
 26 25  2  0  0  0  0
 27 24  1  0  0  0  0
 27 12  1  0  0  0  0
 27  7  1  0  0  0  0
 30 28  1  0  0  0  0
 30 29  1  0  0  0  0
M  END
>  <MODEL>
2

>  <REMARK>
 VINA RESULT:      -7.9      2.455      5.655
  Name = 
  2 active torsions:
  status: ('A' for Active; 'I' for Inactive)
    1  A    between atoms: C_11  and  O_28
    2  A    between atoms: O_28  and  C_30
                            x       y       z     vdW  Elec       q    Type
                         _______ _______ _______ _____ _____    ______ ____

>  <TORSDO>
F 2

$$$$
=
 OpenBabel11112416163D

 30 35  0  0  1  0  0  0  0  0999 V2000
  187.9430  176.2440  143.4270 C   0  0  1  0  0  3  0  0  0  0  0  0
  185.6630  177.3310  143.7970 C   0  0  0  0  0  0  0  0  0  0  0  0
  189.1250  177.4740  147.1680 N   0  0  0  0  0  0  0  0  0  0  0  0
  189.1660  175.6980  144.2130 C   0  0  1  0  0  3  0  0  0  0  0  0
  187.2890  175.1780  142.7810 O   0  0  0  0  0  0  0  0  0  0  0  0
  190.2920  173.6570  141.4000 O   0  0  0  0  0  1  0  0  0  0  0  0
  192.3920  175.3910  144.2430 C   0  0  1  0  0  3  0  0  0  0  0  0
  189.4390  174.1050  142.4120 C   0  0  2  0  0  3  0  0  0  0  0  0
  192.2350  176.2160  145.5240 C   0  0  2  0  0  3  0  0  0  0  0  0
  190.4230  176.9160  147.1890 C   0  0  0  0  0  0  0  0  0  0  0  0
  188.1540  174.6700  141.7870 C   0  0  2  0  0  3  0  0  0  0  0  0
  190.1210  175.1050  143.2530 N   0  0  2  0  0  0  0  0  0  0  0  0
  184.7860  178.1020  144.5650 C   0  0  0  0  0  3  0  0  0  0  0  0
  193.0410  175.4740  146.5700 C   0  0  0  0  0  2  0  0  0  0  0  0
  193.6890  174.6110  144.3990 C   0  0  0  0  0  2  0  0  0  0  0  0
  185.2350  176.8570  142.6000 F   0  0  0  0  0  0  0  0  0  0  0  0
  188.7610  177.4150  145.9280 C   0  0  0  0  0  0  0  0  0  0  0  0
  185.1990  178.6330  145.7880 C   0  0  0  0  0  3  0  0  0  0  0  0
  186.9670  177.0620  144.2630 C   0  0  0  0  0  0  0  0  0  0  0  0
  189.7980  176.8490  145.0060 C   0  0  1  0  0  3  0  0  0  0  0  0
  191.1320  176.8820  148.2300 O   0  0  0  0  0  0  0  0  0  0  0  0
  190.8400  176.4030  145.9260 N   0  0  0  0  0  0  0  0  0  0  0  0
  194.1960  174.8630  145.8080 C   0  0  0  0  0  2  0  0  0  0  0  0
  190.8310  173.4880  145.0700 C   0  0  0  0  0  1  0  0  0  0  0  0
  186.4980  178.4110  146.2430 C   0  0  0  0  0  3  0  0  0  0  0  0
  187.3880  177.6490  145.4760 C   0  0  0  0  0  0  0  0  0  0  0  0
  191.2420  174.4240  143.9250 C   0  0  2  0  0  3  0  0  0  0  0  0
  188.4360  175.6400  140.8140 O   0  0  0  0  0  0  0  0  0  0  0  0
  188.2010  174.3300  138.8460 C   0  0  0  0  0  1  0  0  0  0  0  0
  187.5650  175.3540  139.7620 C   0  0  0  0  0  2  0  0  0  0  0  0
  1  5  1  1  0  0  0
  1  4  1  0  0  0  0
  1 19  1  0  0  0  0
  2 19  2  0  0  0  0
  2 13  1  0  0  0  0
  3 10  1  0  0  0  0
  4 20  1  0  0  0  0
  6  8  1  0  0  0  0
  7 15  1  0  0  0  0
  7  9  1  0  0  0  0
  8 12  1  0  0  0  0
  9 22  1  0  0  0  0
  9 14  1  0  0  0  0
 10 21  2  0  0  0  0
 11  8  1  0  0  0  0
 11  5  1  0  0  0  0
 12 27  1  0  0  0  0
 12  4  1  0  0  0  0
 13 18  2  0  0  0  0
 15 23  1  0  0  0  0
 16  2  1  0  0  0  0
 17  3  2  0  0  0  0
 18 25  1  0  0  0  0
 19 26  1  0  0  0  0
 20 22  1  0  0  0  0
 20 17  1  0  0  0  0
 22 10  1  0  0  0  0
 23 14  1  0  0  0  0
 26 17  1  0  0  0  0
 26 25  2  0  0  0  0
 27  7  1  0  0  0  0
 27 24  1  0  0  0  0
 28 11  1  0  0  0  0
 29 30  1  0  0  0  0
 30 28  1  0  0  0  0
M  END
>  <MODEL>
3

>  <REMARK>
 VINA RESULT:      -7.9      1.316      1.668
  Name = 
  2 active torsions:
  status: ('A' for Active; 'I' for Inactive)
    1  A    between atoms: C_11  and  O_28
    2  A    between atoms: O_28  and  C_30
                            x       y       z     vdW  Elec       q    Type
                         _______ _______ _______ _____ _____    ______ ____

>  <TORSDO>
F 2

$$$$
=
 OpenBabel11112416163D

 30 35  0  0  1  0  0  0  0  0999 V2000
  187.9130  176.5570  144.1190 C   0  0  1  0  0  3  0  0  0  0  0  0
  186.3290  178.3390  143.2070 C   0  0  0  0  0  0  0  0  0  0  0  0
  188.3570  175.0270  140.3290 N   0  0  0  0  0  0  0  0  0  0  0  0
  189.0360  175.5880  143.6620 C   0  0  1  0  0  3  0  0  0  0  0  0
  188.4570  177.5320  144.9770 O   0  0  0  0  0  0  0  0  0  0  0  0
  190.3440  175.2160  147.0540 O   0  0  0  0  0  1  0  0  0  0  0  0
  190.3500  172.6520  144.0660 C   0  0  1  0  0  3  0  0  0  0  0  0
  189.9870  175.8680  145.8700 C   0  0  2  0  0  3  0  0  0  0  0  0
  189.9610  172.5210  142.5900 C   0  0  2  0  0  3  0  0  0  0  0  0
  189.2770  173.9910  140.6100 C   0  0  0  0  0  0  0  0  0  0  0  0
  188.8770  176.8890  146.1620 C   0  0  2  0  0  3  0  0  0  0  0  0
  189.5720  174.8890  144.8500 N   0  0  2  0  0  0  0  0  0  0  0  0
  185.5980  178.9050  142.1580 C   0  0  0  0  0  3  0  0  0  0  0  0
  191.2090  172.0110  141.9000 C   0  0  0  0  0  2  0  0  0  0  0  0
  191.5100  171.6930  144.2840 C   0  0  0  0  0  2  0  0  0  0  0  0
  186.2430  178.9020  144.4380 F   0  0  0  0  0  0  0  0  0  0  0  0
  187.9070  175.3900  141.4860 C   0  0  0  0  0  0  0  0  0  0  0  0
  185.6370  178.3370  140.8840 C   0  0  0  0  0  3  0  0  0  0  0  0
  187.1300  177.2010  142.9810 C   0  0  0  0  0  0  0  0  0  0  0  0
  188.4560  174.6040  142.6380 C   0  0  1  0  0  3  0  0  0  0  0  0
  189.8590  173.3340  139.7070 O   0  0  0  0  0  0  0  0  0  0  0  0
  189.4740  173.7730  142.0050 N   0  0  0  0  0  0  0  0  0  0  0  0
  191.8860  171.1290  142.9250 C   0  0  0  0  0  2  0  0  0  0  0  0
  191.8130  174.7610  143.6740 C   0  0  0  0  0  1  0  0  0  0  0  0
  186.3920  177.1870  140.6550 C   0  0  0  0  0  3  0  0  0  0  0  0
  187.1180  176.6050  141.7020 C   0  0  0  0  0  0  0  0  0  0  0  0
  190.7490  174.0610  144.5300 C   0  0  2  0  0  3  0  0  0  0  0  0
  187.7950  176.2980  146.8320 O   0  0  0  0  0  0  0  0  0  0  0  0
  185.5510  177.0630  146.9850 C   0  0  0  0  0  1  0  0  0  0  0  0
  187.0090  177.3700  147.2540 C   0  0  0  0  0  2  0  0  0  0  0  0
  1 19  1  6  0  0  0
  1  5  1  0  0  0  0
  2 16  1  0  0  0  0
  3 10  1  0  0  0  0
  3 17  2  0  0  0  0
  4  1  1  0  0  0  0
  4 12  1  0  0  0  0
  5 11  1  0  0  0  0
  7 15  1  0  0  0  0
  7 27  1  0  0  0  0
  8 11  1  0  0  0  0
  8  6  1  0  0  0  0
  9  7  1  0  0  0  0
 10 22  1  0  0  0  0
 11 28  1  0  0  0  0
 12  8  1  0  0  0  0
 13  2  2  0  0  0  0
 14  9  1  0  0  0  0
 14 23  1  0  0  0  0
 17 26  1  0  0  0  0
 17 20  1  0  0  0  0
 18 13  1  0  0  0  0
 19  2  1  0  0  0  0
 20  4  1  0  0  0  0
 21 10  2  0  0  0  0
 22  9  1  0  0  0  0
 22 20  1  0  0  0  0
 23 15  1  0  0  0  0
 24 27  1  0  0  0  0
 25 18  2  0  0  0  0
 25 26  1  0  0  0  0
 26 19  2  0  0  0  0
 27 12  1  0  0  0  0
 28 30  1  0  0  0  0
 29 30  1  0  0  0  0
M  END
>  <MODEL>
4

>  <REMARK>
 VINA RESULT:      -7.6      1.896      4.892
  Name = 
  2 active torsions:
  status: ('A' for Active; 'I' for Inactive)
    1  A    between atoms: C_11  and  O_28
    2  A    between atoms: O_28  and  C_30
                            x       y       z     vdW  Elec       q    Type
                         _______ _______ _______ _____ _____    ______ ____

>  <TORSDO>
F 2

$$$$
=
 OpenBabel11112416163D

 30 35  0  0  1  0  0  0  0  0999 V2000
  190.5860  175.0000  144.0520 C   0  0  1  0  0  3  0  0  0  0  0  0
  193.0840  174.4790  144.0830 C   0  0  0  0  0  0  0  0  0  0  0  0
  191.0350  177.3150  147.4190 N   0  0  0  0  0  0  0  0  0  0  0  0
  189.5590  176.0390  144.5770 C   0  0  1  0  0  3  0  0  0  0  0  0
  190.6580  175.0830  142.6470 O   0  0  0  0  0  0  0  0  0  0  0  0
  187.0650  175.1120  142.0720 O   0  0  0  0  0  1  0  0  0  0  0  0
  186.5620  176.4740  145.7320 C   0  0  1  0  0  3  0  0  0  0  0  0
  188.2810  175.5870  142.5720 C   0  0  2  0  0  3  0  0  0  0  0  0
  187.3440  176.9830  146.9460 C   0  0  2  0  0  3  0  0  0  0  0  0
  189.7010  177.7590  147.5680 C   0  0  0  0  0  0  0  0  0  0  0  0
  189.4190  174.6600  142.1180 C   0  0  2  0  0  3  0  0  0  0  0  0
  188.2230  175.7000  144.0400 N   0  0  2  0  0  0  0  0  0  0  0  0
  194.3430  174.5630  144.6840 C   0  0  0  0  0  3  0  0  0  0  0  0
  186.7150  178.3180  147.2860 C   0  0  0  0  0  2  0  0  0  0  0  0
  185.2040  177.1590  145.7860 C   0  0  0  0  0  2  0  0  0  0  0  0
  192.9610  173.7840  142.9250 F   0  0  0  0  0  0  0  0  0  0  0  0
  190.9650  176.3390  146.5730 C   0  0  0  0  0  0  0  0  0  0  0  0
  194.5060  175.2440  145.8920 C   0  0  0  0  0  3  0  0  0  0  0  0
  191.9690  175.1030  144.6810 C   0  0  0  0  0  0  0  0  0  0  0  0
  189.5760  176.0200  146.1110 C   0  0  1  0  0  3  0  0  0  0  0  0
  189.3710  178.6560  148.3880 O   0  0  0  0  0  0  0  0  0  0  0  0
  188.7840  177.0930  146.7040 N   0  0  0  0  0  0  0  0  0  0  0  0
  185.2540  178.1620  146.9240 C   0  0  0  0  0  2  0  0  0  0  0  0
  187.6550  178.1690  144.0970 C   0  0  0  0  0  1  0  0  0  0  0  0
  193.4050  175.8300  146.5160 C   0  0  0  0  0  3  0  0  0  0  0  0
  192.1370  175.7420  145.9280 C   0  0  0  0  0  0  0  0  0  0  0  0
  187.2130  176.7230  144.3630 C   0  0  2  0  0  3  0  0  0  0  0  0
  189.1560  173.3210  142.4460 O   0  0  0  0  0  0  0  0  0  0  0  0
  190.3680  171.3320  141.9770 C   0  0  0  0  0  1  0  0  0  0  0  0
  189.7280  172.5820  141.4100 C   0  0  0  0  0  2  0  0  0  0  0  0
  1  5  1  6  0  0  0
  1  4  1  0  0  0  0
  1 19  1  0  0  0  0
  2 19  2  0  0  0  0
  2 13  1  0  0  0  0
  3 10  1  0  0  0  0
  4 20  1  0  0  0  0
  6  8  1  0  0  0  0
  7 15  1  0  0  0  0
  7  9  1  0  0  0  0
  8 12  1  0  0  0  0
  9 14  1  0  0  0  0
 10 21  2  0  0  0  0
 11 28  1  0  0  0  0
 11  8  1  0  0  0  0
 11  5  1  0  0  0  0
 12 27  1  0  0  0  0
 12  4  1  0  0  0  0
 13 18  2  0  0  0  0
 15 23  1  0  0  0  0
 16  2  1  0  0  0  0
 17  3  2  0  0  0  0
 18 25  1  0  0  0  0
 19 26  1  0  0  0  0
 20 17  1  0  0  0  0
 20 22  1  0  0  0  0
 22  9  1  0  0  0  0
 22 10  1  0  0  0  0
 23 14  1  0  0  0  0
 24 27  1  0  0  0  0
 26 25  2  0  0  0  0
 26 17  1  0  0  0  0
 27  7  1  0  0  0  0
 30 29  1  0  0  0  0
 30 28  1  0  0  0  0
M  END
>  <MODEL>
5

>  <REMARK>
 VINA RESULT:      -7.5      2.417      5.842
  Name = 
  2 active torsions:
  status: ('A' for Active; 'I' for Inactive)
    1  A    between atoms: C_11  and  O_28
    2  A    between atoms: O_28  and  C_30
                            x       y       z     vdW  Elec       q    Type
                         _______ _______ _______ _____ _____    ______ ____

>  <TORSDO>
F 2

$$$$
=
 OpenBabel11112416163D

 30 35  0  0  1  0  0  0  0  0999 V2000
  189.1230  175.3080  143.1690 C   0  0  1  0  0  3  0  0  0  0  0  0
  186.7600  176.2030  143.5290 C   0  0  0  0  0  0  0  0  0  0  0  0
  190.3080  177.0410  146.7040 N   0  0  0  0  0  0  0  0  0  0  0  0
  190.4220  174.9710  143.9500 C   0  0  1  0  0  3  0  0  0  0  0  0
  188.5570  174.1200  142.6670 O   0  0  0  0  0  0  0  0  0  0  0  0
  191.6470  172.7560  141.3140 O   0  0  0  0  0  1  0  0  0  0  0  0
  193.6620  174.9810  143.8620 C   0  0  1  0  0  3  0  0  0  0  0  0
  190.7900  173.2260  142.3130 C   0  0  2  0  0  3  0  0  0  0  0  0
  193.4690  175.9200  145.0570 C   0  0  2  0  0  3  0  0  0  0  0  0
  191.6560  176.6170  146.7230 C   0  0  0  0  0  0  0  0  0  0  0  0
  189.4340  173.5940  141.6930 C   0  0  2  0  0  3  0  0  0  0  0  0
  191.3970  174.3720  143.0130 N   0  0  2  0  0  0  0  0  0  0  0  0
  185.8380  176.9650  144.2520 C   0  0  0  0  0  3  0  0  0  0  0  0
  194.3820  175.3760  146.1350 C   0  0  0  0  0  2  0  0  0  0  0  0
  195.0360  174.3510  144.0380 C   0  0  0  0  0  2  0  0  0  0  0  0
  186.3400  175.5640  142.4090 F   0  0  0  0  0  0  0  0  0  0  0  0
  189.9080  176.8150  145.4950 C   0  0  0  0  0  0  0  0  0  0  0  0
  186.2380  177.6610  145.3940 C   0  0  0  0  0  3  0  0  0  0  0  0
  188.1000  176.1140  143.9600 C   0  0  0  0  0  0  0  0  0  0  0  0
  190.9630  176.2560  144.5890 C   0  0  1  0  0  3  0  0  0  0  0  0
  192.4010  176.7630  147.7280 O   0  0  0  0  0  0  0  0  0  0  0  0
  192.0760  176.0140  145.5010 N   0  0  0  0  0  0  0  0  0  0  0  0
  195.5650  174.8010  145.3890 C   0  0  0  0  0  2  0  0  0  0  0  0
  192.3310  173.0360  144.9530 C   0  0  0  0  0  1  0  0  0  0  0  0
  187.5690  177.6160  145.8090 C   0  0  0  0  0  3  0  0  0  0  0  0
  188.5030  176.8650  145.0840 C   0  0  0  0  0  0  0  0  0  0  0  0
  192.6040  173.8790  143.7000 C   0  0  2  0  0  3  0  0  0  0  0  0
  189.5810  174.4770  140.6120 O   0  0  0  0  0  0  0  0  0  0  0  0
  188.4650  172.7470  139.4260 C   0  0  0  0  0  1  0  0  0  0  0  0
  188.4870  174.2180  139.7870 C   0  0  0  0  0  2  0  0  0  0  0  0
  1  5  1  1  0  0  0
  1  4  1  0  0  0  0
  1 19  1  0  0  0  0
  2 19  2  0  0  0  0
  2 13  1  0  0  0  0
  3 10  1  0  0  0  0
  4 20  1  0  0  0  0
  6  8  1  0  0  0  0
  7 15  1  0  0  0  0
  7  9  1  0  0  0  0
  8 12  1  0  0  0  0
  9 22  1  0  0  0  0
  9 14  1  0  0  0  0
 10 21  2  0  0  0  0
 11  8  1  0  0  0  0
 11  5  1  0  0  0  0
 12 27  1  0  0  0  0
 12  4  1  0  0  0  0
 13 18  2  0  0  0  0
 15 23  1  0  0  0  0
 16  2  1  0  0  0  0
 17  3  2  0  0  0  0
 18 25  1  0  0  0  0
 19 26  1  0  0  0  0
 20 17  1  0  0  0  0
 20 22  1  0  0  0  0
 22 10  1  0  0  0  0
 23 14  1  0  0  0  0
 26 17  1  0  0  0  0
 26 25  2  0  0  0  0
 27  7  1  0  0  0  0
 27 24  1  0  0  0  0
 28 11  1  0  0  0  0
 29 30  1  0  0  0  0
 30 28  1  0  0  0  0
M  END
>  <MODEL>
6

>  <REMARK>
 VINA RESULT:      -7.3      1.938      2.819
  Name = 
  2 active torsions:
  status: ('A' for Active; 'I' for Inactive)
    1  A    between atoms: C_11  and  O_28
    2  A    between atoms: O_28  and  C_30
                            x       y       z     vdW  Elec       q    Type
                         _______ _______ _______ _____ _____    ______ ____

>  <TORSDO>
F 2

$$$$
=
 OpenBabel11112416163D

 30 35  0  0  1  0  0  0  0  0999 V2000
  187.8290  175.8300  141.3820 C   0  0  1  0  0  3  0  0  0  0  0  0
  187.8170  174.9770  138.9760 C   0  0  0  0  0  0  0  0  0  0  0  0
  190.9840  173.3370  142.2400 N   0  0  0  0  0  0  0  0  0  0  0  0
  188.7550  175.9390  142.6230 C   0  0  1  0  0  3  0  0  0  0  0  0
  187.5550  177.1190  140.8870 O   0  0  0  0  0  0  0  0  0  0  0  0
  186.7530  178.6110  144.1080 O   0  0  0  0  0  1  0  0  0  0  0  0
  188.9010  175.8140  145.8580 C   0  0  1  0  0  3  0  0  0  0  0  0
  187.5630  177.9750  143.1630 C   0  0  2  0  0  3  0  0  0  0  0  0
  189.8480  174.6510  145.5480 C   0  0  2  0  0  3  0  0  0  0  0  0
  191.1910  173.6920  143.5920 C   0  0  0  0  0  0  0  0  0  0  0  0
  186.7830  177.8040  141.8510 C   0  0  2  0  0  3  0  0  0  0  0  0
  188.0420  176.6830  143.6830 N   0  0  2  0  0  0  0  0  0  0  0  0
  188.2910  174.1170  137.9810 C   0  0  0  0  0  3  0  0  0  0  0  0
  191.0820  174.9150  146.3860 C   0  0  0  0  0  2  0  0  0  0  0  0
  189.3070  176.3350  147.2290 C   0  0  0  0  0  2  0  0  0  0  0  0
  186.8330  175.8560  138.6620 F   0  0  0  0  0  0  0  0  0  0  0  0
  189.8260  173.8320  141.9430 C   0  0  0  0  0  0  0  0  0  0  0  0
  189.2820  173.1780  138.2720 C   0  0  0  0  0  3  0  0  0  0  0  0
  188.3520  174.9170  140.2800 C   0  0  0  0  0  0  0  0  0  0  0  0
  189.1400  174.5260  143.0800 C   0  0  1  0  0  3  0  0  0  0  0  0
  192.1910  173.3040  144.2520 O   0  0  0  0  0  0  0  0  0  0  0  0
  190.1610  174.5230  144.1230 N   0  0  0  0  0  0  0  0  0  0  0  0
  190.5640  175.5870  147.6380 C   0  0  0  0  0  2  0  0  0  0  0  0
  190.2860  177.5360  144.4940 C   0  0  0  0  0  1  0  0  0  0  0  0
  189.7910  173.0800  139.5670 C   0  0  0  0  0  3  0  0  0  0  0  0
  189.3150  173.9280  140.5740 C   0  0  0  0  0  0  0  0  0  0  0  0
  188.9040  176.9680  144.8440 C   0  0  2  0  0  3  0  0  0  0  0  0
  185.5510  177.1660  142.0610 O   0  0  0  0  0  0  0  0  0  0  0  0
  183.4730  178.2910  142.3080 C   0  0  0  0  0  1  0  0  0  0  0  0
  184.6210  177.9520  141.3800 C   0  0  0  0  0  2  0  0  0  0  0  0
  1 19  1  6  0  0  0
  1  4  1  0  0  0  0
  2 19  1  0  0  0  0
  3 10  1  0  0  0  0
  4 20  1  0  0  0  0
  4 12  1  0  0  0  0
  5  1  1  0  0  0  0
  5 11  1  0  0  0  0
  7 15  1  0  0  0  0
  8 12  1  0  0  0  0
  8  6  1  0  0  0  0
  9  7  1  0  0  0  0
  9 14  1  0  0  0  0
 10 22  1  0  0  0  0
 10 21  2  0  0  0  0
 11 28  1  0  0  0  0
 11  8  1  0  0  0  0
 12 27  1  0  0  0  0
 13 18  1  0  0  0  0
 13  2  2  0  0  0  0
 14 23  1  0  0  0  0
 15 23  1  0  0  0  0
 16  2  1  0  0  0  0
 17  3  2  0  0  0  0
 17 20  1  0  0  0  0
 18 25  2  0  0  0  0
 19 26  2  0  0  0  0
 20 22  1  0  0  0  0
 22  9  1  0  0  0  0
 24 27  1  0  0  0  0
 25 26  1  0  0  0  0
 26 17  1  0  0  0  0
 27  7  1  0  0  0  0
 30 28  1  0  0  0  0
 30 29  1  0  0  0  0
M  END
>  <MODEL>
7

>  <REMARK>
 VINA RESULT:      -7.3      2.605      5.207
  Name = 
  2 active torsions:
  status: ('A' for Active; 'I' for Inactive)
    1  A    between atoms: C_11  and  O_28
    2  A    between atoms: O_28  and  C_30
                            x       y       z     vdW  Elec       q    Type
                         _______ _______ _______ _____ _____    ______ ____

>  <TORSDO>
F 2

$$$$
=
 OpenBabel11112416163D

 30 35  0  0  1  0  0  0  0  0999 V2000
  188.6320  175.7790  144.0340 C   0  0  1  0  0  3  0  0  0  0  0  0
  187.2870  177.8620  144.6370 C   0  0  0  0  0  0  0  0  0  0  0  0
  187.2830  176.0400  140.1590 N   0  0  0  0  0  0  0  0  0  0  0  0
  189.2500  175.0480  142.8110 C   0  0  1  0  0  3  0  0  0  0  0  0
  189.6650  176.2490  144.8680 O   0  0  0  0  0  0  0  0  0  0  0  0
  191.5870  173.1590  144.8900 O   0  0  0  0  0  1  0  0  0  0  0  0
  189.8960  172.1660  141.4760 C   0  0  1  0  0  3  0  0  0  0  0  0
  190.9830  174.2820  144.3170 C   0  0  2  0  0  3  0  0  0  0  0  0
  188.9730  172.7160  140.3830 C   0  0  2  0  0  3  0  0  0  0  0  0
  187.9730  174.9380  139.6050 C   0  0  0  0  0  0  0  0  0  0  0  0
  190.3290  175.1300  145.4180 C   0  0  2  0  0  3  0  0  0  0  0  0
  190.0060  173.8720  143.2920 N   0  0  2  0  0  0  0  0  0  0  0  0
  186.3760  178.8690  144.3040 C   0  0  0  0  0  3  0  0  0  0  0  0
  189.7230  172.4930  139.0870 C   0  0  0  0  0  2  0  0  0  0  0  0
  190.7970  171.1470  140.7940 C   0  0  0  0  0  2  0  0  0  0  0  0
  187.7940  177.8330  145.8950 F   0  0  0  0  0  0  0  0  0  0  0  0
  187.3870  175.8840  141.4390 C   0  0  0  0  0  0  0  0  0  0  0  0
  185.8090  178.9140  143.0290 C   0  0  0  0  0  3  0  0  0  0  0  0
  187.6600  176.8960  143.6790 C   0  0  0  0  0  0  0  0  0  0  0  0
  188.1210  174.6450  141.8530 C   0  0  1  0  0  3  0  0  0  0  0  0
  188.0110  174.7130  138.3660 O   0  0  0  0  0  0  0  0  0  0  0  0
  188.6120  174.1210  140.5830 N   0  0  0  0  0  0  0  0  0  0  0  0
  190.5040  171.2160  139.3060 C   0  0  0  0  0  2  0  0  0  0  0  0
  191.5610  174.1520  141.3120 C   0  0  0  0  0  1  0  0  0  0  0  0
  186.1370  177.9420  142.0840 C   0  0  0  0  0  3  0  0  0  0  0  0
  187.0400  176.9230  142.4120 C   0  0  0  0  0  0  0  0  0  0  0  0
  190.7540  173.2060  142.2120 C   0  0  2  0  0  3  0  0  0  0  0  0
  189.4630  174.3650  146.2140 O   0  0  0  0  0  0  0  0  0  0  0  0
  190.9820  175.2630  147.8040 C   0  0  0  0  0  1  0  0  0  0  0  0
  189.5380  174.9440  147.4810 C   0  0  0  0  0  2  0  0  0  0  0  0
  1 19  1  6  0  0  0
  1  5  1  0  0  0  0
  2 16  1  0  0  0  0
  3 17  2  0  0  0  0
  4 12  1  0  0  0  0
  4  1  1  0  0  0  0
  5 11  1  0  0  0  0
  7 27  1  0  0  0  0
  8  6  1  0  0  0  0
  8 11  1  0  0  0  0
  9 22  1  0  0  0  0
  9  7  1  0  0  0  0
 10  3  1  0  0  0  0
 10 22  1  0  0  0  0
 11 28  1  0  0  0  0
 12  8  1  0  0  0  0
 13  2  1  0  0  0  0
 14 23  1  0  0  0  0
 14  9  1  0  0  0  0
 15  7  1  0  0  0  0
 17 20  1  0  0  0  0
 17 26  1  0  0  0  0
 18 13  2  0  0  0  0
 19  2  2  0  0  0  0
 20  4  1  0  0  0  0
 21 10  2  0  0  0  0
 22 20  1  0  0  0  0
 23 15  1  0  0  0  0
 24 27  1  0  0  0  0
 25 26  2  0  0  0  0
 25 18  1  0  0  0  0
 26 19  1  0  0  0  0
 27 12  1  0  0  0  0
 28 30  1  0  0  0  0
 30 29  1  0  0  0  0
M  END
>  <MODEL>
8

>  <REMARK>
 VINA RESULT:      -7.3      2.662      5.522
  Name = 
  2 active torsions:
  status: ('A' for Active; 'I' for Inactive)
    1  A    between atoms: C_11  and  O_28
    2  A    between atoms: O_28  and  C_30
                            x       y       z     vdW  Elec       q    Type
                         _______ _______ _______ _____ _____    ______ ____

>  <TORSDO>
F 2

$$$$
=
 OpenBabel11112416163D

 30 35  0  0  1  0  0  0  0  0999 V2000
  190.4850  175.6390  145.2950 C   0  0  1  0  0  3  0  0  0  0  0  0
  192.4230  173.9780  145.2940 C   0  0  0  0  0  0  0  0  0  0  0  0
  189.6470  174.6510  141.3940 N   0  0  0  0  0  0  0  0  0  0  0  0
  189.1620  175.9570  144.5480 C   0  0  1  0  0  3  0  0  0  0  0  0
  190.1920  175.2400  146.6140 O   0  0  0  0  0  0  0  0  0  0  0  0
  187.8530  177.9340  147.3280 O   0  0  0  0  0  1  0  0  0  0  0  0
  187.2150  178.3100  143.4610 C   0  0  1  0  0  3  0  0  0  0  0  0
  188.3330  176.8050  146.6570 C   0  0  2  0  0  3  0  0  0  0  0  0
  187.5420  177.6530  142.1160 C   0  0  2  0  0  3  0  0  0  0  0  0
  188.5170  175.4760  141.1900 C   0  0  0  0  0  0  0  0  0  0  0  0
  189.6520  176.3500  147.2990 C   0  0  2  0  0  3  0  0  0  0  0  0
  188.4970  177.0930  145.2210 N   0  0  2  0  0  0  0  0  0  0  0  0
  193.2490  173.0630  144.6340 C   0  0  0  0  0  3  0  0  0  0  0  0
  186.2010  177.4480  141.4440 C   0  0  0  0  0  2  0  0  0  0  0  0
  185.8690  178.9950  143.2800 C   0  0  0  0  0  2  0  0  0  0  0  0
  192.6530  174.2350  146.6050 F   0  0  0  0  0  0  0  0  0  0  0  0
  190.1850  175.0940  142.4840 C   0  0  0  0  0  0  0  0  0  0  0  0
  193.0630  172.7940  143.2770 C   0  0  0  0  0  3  0  0  0  0  0  0
  191.3780  174.6210  144.5980 C   0  0  0  0  0  0  0  0  0  0  0  0
  189.4870  176.2770  143.0820 C   0  0  1  0  0  3  0  0  0  0  0  0
  187.7870  175.3900  140.1670 O   0  0  0  0  0  0  0  0  0  0  0  0
  188.2950  176.4040  142.2490 N   0  0  0  0  0  0  0  0  0  0  0  0
  185.3540  178.6130  141.9040 C   0  0  0  0  0  2  0  0  0  0  0  0
  186.2710  176.1250  144.4970 C   0  0  0  0  0  1  0  0  0  0  0  0
  192.0600  173.4530  142.5660 C   0  0  0  0  0  3  0  0  0  0  0  0
  191.2350  174.3800  143.2150 C   0  0  0  0  0  0  0  0  0  0  0  0
  187.1570  177.3650  144.6710 C   0  0  2  0  0  3  0  0  0  0  0  0
  190.5790  177.4000  147.3760 O   0  0  0  0  0  0  0  0  0  0  0  0
  191.3720  178.0950  149.5050 C   0  0  0  0  0  1  0  0  0  0  0  0
  191.4370  177.0440  148.4170 C   0  0  0  0  0  2  0  0  0  0  0  0
  1 19  1  6  0  0  0
  1  5  1  0  0  0  0
  2 16  1  0  0  0  0
  3 17  2  0  0  0  0
  4 12  1  0  0  0  0
  4  1  1  0  0  0  0
  5 11  1  0  0  0  0
  7 27  1  0  0  0  0
  8 11  1  0  0  0  0
  8  6  1  0  0  0  0
  9 22  1  0  0  0  0
  9  7  1  0  0  0  0
 10  3  1  0  0  0  0
 10 22  1  0  0  0  0
 11 28  1  0  0  0  0
 12  8  1  0  0  0  0
 13  2  1  0  0  0  0
 14 23  1  0  0  0  0
 14  9  1  0  0  0  0
 15  7  1  0  0  0  0
 17 20  1  0  0  0  0
 17 26  1  0  0  0  0
 18 13  2  0  0  0  0
 19  2  2  0  0  0  0
 20  4  1  0  0  0  0
 21 10  2  0  0  0  0
 22 20  1  0  0  0  0
 23 15  1  0  0  0  0
 24 27  1  0  0  0  0
 25 26  2  0  0  0  0
 25 18  1  0  0  0  0
 26 19  1  0  0  0  0
 27 12  1  0  0  0  0
 28 30  1  0  0  0  0
 30 29  1  0  0  0  0
M  END
>  <MODEL>
9

>  <REMARK>
 VINA RESULT:      -7.2      2.485      7.000
  Name = 
  2 active torsions:
  status: ('A' for Active; 'I' for Inactive)
    1  A    between atoms: C_11  and  O_28
    2  A    between atoms: O_28  and  C_30
                            x       y       z     vdW  Elec       q    Type
                         _______ _______ _______ _____ _____    ______ ____

>  <TORSDO>
F 2

$$$$
