=
 OpenBabel11112416243D

 30 35  0  0  1  0  0  0  0  0999 V2000
  187.1470  176.6070  144.1120 C   0  0  0  0  0  0  0  0  0  0  0  0
  185.2000  177.7110  145.1980 C   0  0  0  0  0  0  0  0  0  0  0  0
  189.3440  176.7490  147.6340 O   0  0  0  0  0  0  0  0  0  0  0  0
  188.4820  176.1380  144.1930 C   0  0  0  0  0  0  0  0  0  0  0  0
  186.4140  176.3990  142.8980 N   0  0  0  0  0  2  0  0  0  0  0  0
  188.6340  174.3490  141.0400 O   0  0  0  0  0  0  0  0  0  0  0  0
  191.4690  176.2260  143.4610 C   0  0  1  0  0  3  0  0  0  0  0  0
  188.2730  175.2000  141.8960 C   0  0  0  0  0  0  0  0  0  0  0  0
  191.6440  176.3130  144.9750 C   0  0  2  0  0  3  0  0  0  0  0  0
  190.5790  176.1080  147.3320 C   0  0  2  0  0  3  0  0  0  0  0  0
  187.0440  176.0100  141.6400 C   0  0  2  0  0  3  0  0  0  0  0  0
  189.0780  175.4650  143.0590 N   0  0  0  0  0  0  0  0  0  0  0  0
  184.6290  178.2830  146.3390 C   0  0  0  0  0  3  0  0  0  0  0  0
  192.9360  175.5880  145.2330 C   0  0  0  0  0  2  0  0  0  0  0  0
  192.7820  175.9850  142.8650 N   0  0  0  0  0  2  0  0  0  0  0  0
  184.4510  177.6600  144.0680 F   0  0  0  0  0  0  0  0  0  0  0  0
  188.5440  176.8100  146.5140 C   0  0  0  0  0  0  0  0  0  0  0  0
  185.3510  178.3660  147.5300 C   0  0  0  0  0  3  0  0  0  0  0  0
  186.5240  177.2120  145.2390 C   0  0  0  0  0  0  0  0  0  0  0  0
  189.1570  176.2660  145.4220 C   0  0  0  0  0  0  0  0  0  0  0  0
  191.6330  176.9830  147.6130 O   0  0  0  0  0  1  0  0  0  0  0  0
  190.4980  175.7310  145.8210 C   0  0  1  0  0  3  0  0  0  0  0  0
  193.7260  175.7990  143.9630 C   0  0  0  0  0  2  0  0  0  0  0  0
  190.8890  174.0440  142.6370 O   0  0  0  0  0  0  0  0  0  0  0  0
  186.6560  177.8810  147.5910 C   0  0  0  0  0  3  0  0  0  0  0  0
  187.2470  177.3120  146.4590 C   0  0  0  0  0  0  0  0  0  0  0  0
  190.4850  175.1760  143.0220 C   0  0  0  0  0  0  0  0  0  0  0  0
  187.3980  177.1710  140.9040 O   0  0  0  0  0  0  0  0  0  0  0  0
  185.3510  178.0880  140.2010 C   0  0  0  0  0  2  0  0  0  0  0  0
  186.5650  177.6560  139.9020 C   0  0  0  0  0  3  0  0  0  0  0  0
  1  4  2  0  0  0  0
  1 19  1  0  0  0  0
  2 19  2  0  0  0  0
  2 13  1  0  0  0  0
  4 20  1  0  0  0  0
  5  1  1  0  0  0  0
  6  8  2  0  0  0  0
  7 15  1  6  0  0  0
  7  9  1  0  0  0  0
  8 12  1  0  0  0  0
  9 14  1  6  0  0  0
  9 22  1  0  0  0  0
 10 21  1  6  0  0  0
 10  3  1  0  0  0  0
 11 28  1  1  0  0  0
 11  8  1  0  0  0  0
 11  5  1  0  0  0  0
 12  4  1  0  0  0  0
 13 18  2  0  0  0  0
 15 23  1  0  0  0  0
 16  2  1  0  0  0  0
 17  3  1  0  0  0  0
 18 25  1  0  0  0  0
 19 26  1  0  0  0  0
 20 17  2  0  0  0  0
 22 20  1  6  0  0  0
 22 10  1  0  0  0  0
 23 14  1  0  0  0  0
 24 27  2  0  0  0  0
 26 17  1  0  0  0  0
 26 25  2  0  0  0  0
 27 12  1  0  0  0  0
 27  7  1  0  0  0  0
 30 29  2  0  0  0  0
 30 28  1  0  0  0  0
M  END
>  <MODEL>
1

>  <REMARK>
 VINA RESULT:      -8.7      0.000      0.000
  Name = 
  2 active torsions:
  status: ('A' for Active; 'I' for Inactive)
    1  A    between atoms: C_11  and  O_28
    2  A    between atoms: O_28  and  C_30
                            x       y       z     vdW  Elec       q    Type
                         _______ _______ _______ _____ _____    ______ ____

>  <TORSDO>
F 2

$$$$
=
 OpenBabel11112416243D

 30 35  0  0  1  0  0  0  0  0999 V2000
  187.9280  175.4780  143.5070 C   0  0  0  0  0  0  0  0  0  0  0  0
  186.0810  177.1450  143.4970 C   0  0  0  0  0  0  0  0  0  0  0  0
  189.3950  176.9510  147.1040 O   0  0  0  0  0  0  0  0  0  0  0  0
  189.0970  174.9610  144.1180 C   0  0  0  0  0  0  0  0  0  0  0  0
  187.4130  174.8270  142.3390 N   0  0  0  0  0  2  0  0  0  0  0  0
  189.4740  171.9480  142.1320 O   0  0  0  0  0  0  0  0  0  0  0  0
  192.1210  174.4050  144.2240 C   0  0  1  0  0  3  0  0  0  0  0  0
  189.1400  173.1230  142.4390 C   0  0  0  0  0  0  0  0  0  0  0  0
  192.0190  175.1390  145.5590 C   0  0  2  0  0  3  0  0  0  0  0  0
  190.5050  176.1190  147.4240 C   0  0  2  0  0  3  0  0  0  0  0  0
  188.1760  173.8560  141.5620 C   0  0  2  0  0  3  0  0  0  0  0  0
  189.7460  173.7950  143.5580 N   0  0  0  0  0  0  0  0  0  0  0  0
  185.4340  178.2220  144.1110 C   0  0  0  0  0  3  0  0  0  0  0  0
  193.0590  174.4780  146.4180 C   0  0  0  0  0  2  0  0  0  0  0  0
  193.4450  173.7890  144.1450 N   0  0  0  0  0  2  0  0  0  0  0  0
  185.5670  176.6730  142.3340 F   0  0  0  0  0  0  0  0  0  0  0  0
  188.8530  176.5880  145.8900 C   0  0  0  0  0  0  0  0  0  0  0  0
  185.9170  178.7530  145.3070 C   0  0  0  0  0  3  0  0  0  0  0  0
  187.2400  176.5840  144.0830 C   0  0  0  0  0  0  0  0  0  0  0  0
  189.5370  175.5530  145.3180 C   0  0  0  0  0  0  0  0  0  0  0  0
  191.6440  176.9130  147.5880 O   0  0  0  0  0  1  0  0  0  0  0  0
  190.6370  175.1180  146.2360 C   0  0  1  0  0  3  0  0  0  0  0  0
  194.1030  174.0170  145.4280 C   0  0  0  0  0  2  0  0  0  0  0  0
  191.2700  172.1570  144.2430 O   0  0  0  0  0  0  0  0  0  0  0  0
  187.0580  178.2140  145.9000 C   0  0  0  0  0  3  0  0  0  0  0  0
  187.7220  177.1420  145.2980 C   0  0  0  0  0  0  0  0  0  0  0  0
  191.0440  173.3760  144.0120 C   0  0  0  0  0  0  0  0  0  0  0  0
  188.8960  174.5230  140.5370 O   0  0  0  0  0  0  0  0  0  0  0  0
  188.2390  172.9220  138.9470 C   0  0  0  0  0  2  0  0  0  0  0  0
  188.8790  174.0440  139.2320 C   0  0  0  0  0  3  0  0  0  0  0  0
  1 19  2  0  0  0  0
  1  4  1  0  0  0  0
  2 19  1  0  0  0  0
  2 13  2  0  0  0  0
  3 10  1  0  0  0  0
  4 20  2  0  0  0  0
  5  1  1  0  0  0  0
  6  8  2  0  0  0  0
  7 27  1  1  0  0  0
  7  9  1  0  0  0  0
  8 12  1  0  0  0  0
  9 22  1  0  0  0  0
  9 14  1  1  0  0  0
 10 21  1  6  0  0  0
 11 28  1  6  0  0  0
 11  5  1  0  0  0  0
 11  8  1  0  0  0  0
 12 27  1  0  0  0  0
 12  4  1  0  0  0  0
 13 18  1  0  0  0  0
 15  7  1  0  0  0  0
 15 23  1  0  0  0  0
 16  2  1  0  0  0  0
 17  3  1  0  0  0  0
 18 25  2  0  0  0  0
 19 26  1  0  0  0  0
 20 17  1  0  0  0  0
 22 20  1  6  0  0  0
 22 10  1  0  0  0  0
 23 14  1  0  0  0  0
 26 17  2  0  0  0  0
 26 25  1  0  0  0  0
 27 24  2  0  0  0  0
 29 30  2  0  0  0  0
 30 28  1  0  0  0  0
M  END
>  <MODEL>
2

>  <REMARK>
 VINA RESULT:      -7.9      1.838      2.283
  Name = 
  2 active torsions:
  status: ('A' for Active; 'I' for Inactive)
    1  A    between atoms: C_11  and  O_28
    2  A    between atoms: O_28  and  C_30
                            x       y       z     vdW  Elec       q    Type
                         _______ _______ _______ _____ _____    ______ ____

>  <TORSDO>
F 2

$$$$
=
 OpenBabel11112416243D

 30 35  0  0  1  0  0  0  0  0999 V2000
  188.2730  177.0190  143.7700 C   0  0  0  0  0  0  0  0  0  0  0  0
  186.3910  178.4770  143.0490 C   0  0  0  0  0  0  0  0  0  0  0  0
  188.2580  175.0010  140.1390 O   0  0  0  0  0  0  0  0  0  0  0  0
  189.1480  175.9380  143.4990 C   0  0  0  0  0  0  0  0  0  0  0  0
  188.4330  177.7480  144.9940 N   0  0  0  0  0  2  0  0  0  0  0  0
  191.4210  176.3500  146.2970 O   0  0  0  0  0  0  0  0  0  0  0  0
  190.2260  173.0950  143.9730 C   0  0  1  0  0  3  0  0  0  0  0  0
  190.3580  176.4090  145.6240 C   0  0  0  0  0  0  0  0  0  0  0  0
  189.9320  172.9390  142.4830 C   0  0  2  0  0  3  0  0  0  0  0  0
  189.3280  174.0650  140.2260 C   0  0  2  0  0  3  0  0  0  0  0  0
  189.2360  177.2650  146.1130 C   0  0  2  0  0  3  0  0  0  0  0  0
  190.1790  175.5900  144.4530 N   0  0  0  0  0  0  0  0  0  0  0  0
  185.4600  178.8370  142.0690 C   0  0  0  0  0  3  0  0  0  0  0  0
  190.9950  171.9930  142.0010 C   0  0  0  0  0  2  0  0  0  0  0  0
  191.0070  171.9380  144.4060 N   0  0  0  0  0  2  0  0  0  0  0  0
  186.3850  179.1670  144.2160 F   0  0  0  0  0  0  0  0  0  0  0  0
  188.1300  175.7000  141.3200 C   0  0  0  0  0  0  0  0  0  0  0  0
  185.4160  178.1620  140.8490 C   0  0  0  0  0  3  0  0  0  0  0  0
  187.2970  177.4170  142.8130 C   0  0  0  0  0  0  0  0  0  0  0  0
  189.0400  175.2930  142.2520 C   0  0  0  0  0  0  0  0  0  0  0  0
  188.8320  172.7780  139.9990 O   0  0  0  0  0  1  0  0  0  0  0  0
  189.9210  174.2370  141.6570 C   0  0  1  0  0  3  0  0  0  0  0  0
  191.3030  171.1480  143.2150 C   0  0  0  0  0  2  0  0  0  0  0  0
  192.1870  174.3890  144.4820 O   0  0  0  0  0  0  0  0  0  0  0  0
  186.3000  177.1140  140.5970 C   0  0  0  0  0  3  0  0  0  0  0  0
  187.2320  176.7350  141.5670 C   0  0  0  0  0  0  0  0  0  0  0  0
  190.9360  174.3760  144.3210 C   0  0  0  0  0  0  0  0  0  0  0  0
  188.4210  176.5060  146.9930 O   0  0  0  0  0  0  0  0  0  0  0  0
  186.2730  177.2360  147.6080 C   0  0  0  0  0  2  0  0  0  0  0  0
  187.0400  176.4820  146.8370 C   0  0  0  0  0  3  0  0  0  0  0  0
  1  5  1  0  0  0  0
  2 16  1  0  0  0  0
  3 10  1  0  0  0  0
  3 17  1  0  0  0  0
  4  1  1  0  0  0  0
  4 12  1  0  0  0  0
  5 11  1  0  0  0  0
  7 27  1  6  0  0  0
  7 15  1  0  0  0  0
  8 11  1  0  0  0  0
  8  6  2  0  0  0  0
  9 14  1  6  0  0  0
  9  7  1  0  0  0  0
 10 21  1  1  0  0  0
 10 22  1  0  0  0  0
 11 28  1  1  0  0  0
 12  8  1  0  0  0  0
 13  2  2  0  0  0  0
 14 23  1  0  0  0  0
 17 26  2  0  0  0  0
 17 20  1  0  0  0  0
 18 13  1  0  0  0  0
 19  2  1  0  0  0  0
 19  1  2  0  0  0  0
 20  4  2  0  0  0  0
 22 20  1  1  0  0  0
 22  9  1  0  0  0  0
 23 15  1  0  0  0  0
 25 18  2  0  0  0  0
 25 26  1  0  0  0  0
 26 19  1  0  0  0  0
 27 12  1  0  0  0  0
 27 24  2  0  0  0  0
 30 28  1  0  0  0  0
 30 29  2  0  0  0  0
M  END
>  <MODEL>
3

>  <REMARK>
 VINA RESULT:      -7.7      1.999      5.098
  Name = 
  2 active torsions:
  status: ('A' for Active; 'I' for Inactive)
    1  A    between atoms: C_11  and  O_28
    2  A    between atoms: O_28  and  C_30
                            x       y       z     vdW  Elec       q    Type
                         _______ _______ _______ _____ _____    ______ ____

>  <TORSDO>
F 2

$$$$
=
 OpenBabel11112416243D

 30 35  0  0  1  0  0  0  0  0999 V2000
  189.6810  174.8740  144.5850 C   0  0  0  0  0  0  0  0  0  0  0  0
  191.5540  173.5900  143.5700 C   0  0  0  0  0  0  0  0  0  0  0  0
  188.0770  175.7180  140.8470 O   0  0  0  0  0  0  0  0  0  0  0  0
  188.5230  175.6740  144.4190 C   0  0  0  0  0  0  0  0  0  0  0  0
  190.0910  174.5190  145.9120 N   0  0  0  0  0  2  0  0  0  0  0  0
  187.3970  175.7420  147.8670 O   0  0  0  0  0  0  0  0  0  0  0  0
  186.9670  178.3220  144.6150 C   0  0  1  0  0  3  0  0  0  0  0  0
  188.1820  175.6590  146.8850 C   0  0  0  0  0  0  0  0  0  0  0  0
  186.7410  178.0810  143.1240 C   0  0  2  0  0  3  0  0  0  0  0  0
  186.8870  176.4550  141.1080 C   0  0  2  0  0  3  0  0  0  0  0  0
  189.5760  175.1730  147.1100 C   0  0  2  0  0  3  0  0  0  0  0  0
  187.7820  176.1170  145.5800 N   0  0  0  0  0  0  0  0  0  0  0  0
  192.1980  173.1120  142.4250 C   0  0  0  0  0  3  0  0  0  0  0  0
  185.3800  178.6610  142.8640 C   0  0  0  0  0  2  0  0  0  0  0  0
  186.0920  179.4150  145.0350 N   0  0  0  0  0  2  0  0  0  0  0  0
  192.0900  173.2810  144.7770 F   0  0  0  0  0  0  0  0  0  0  0  0
  188.7320  175.4240  142.0240 C   0  0  0  0  0  0  0  0  0  0  0  0
  191.6960  173.3990  141.1550 C   0  0  0  0  0  3  0  0  0  0  0  0
  190.3830  174.3760  143.4520 C   0  0  0  0  0  0  0  0  0  0  0  0
  188.0790  175.9360  143.1090 C   0  0  0  0  0  0  0  0  0  0  0  0
  186.9500  177.6820  140.4400 O   0  0  0  0  0  1  0  0  0  0  0  0
  186.8230  176.6160  142.6570 C   0  0  1  0  0  3  0  0  0  0  0  0
  185.2580  179.7640  143.8900 C   0  0  0  0  0  2  0  0  0  0  0  0
  185.6460  176.9380  146.0700 O   0  0  0  0  0  0  0  0  0  0  0  0
  190.5450  174.1720  141.0170 C   0  0  0  0  0  3  0  0  0  0  0  0
  189.8910  174.6640  142.1500 C   0  0  0  0  0  0  0  0  0  0  0  0
  186.7420  177.1030  145.4680 C   0  0  0  0  0  0  0  0  0  0  0  0
  190.4040  176.2770  147.4450 O   0  0  0  0  0  0  0  0  0  0  0  0
  192.6780  176.4440  146.8740 C   0  0  0  0  0  2  0  0  0  0  0  0
  191.7480  176.0890  147.7460 C   0  0  0  0  0  3  0  0  0  0  0  0
  1  5  1  0  0  0  0
  2 16  1  0  0  0  0
  3 10  1  0  0  0  0
  3 17  1  0  0  0  0
  4  1  1  0  0  0  0
  4 12  1  0  0  0  0
  5 11  1  0  0  0  0
  7 15  1  1  0  0  0
  7 27  1  0  0  0  0
  8 11  1  0  0  0  0
  8  6  2  0  0  0  0
  9 14  1  1  0  0  0
  9  7  1  0  0  0  0
 10 21  1  6  0  0  0
 10 22  1  0  0  0  0
 11 28  1  6  0  0  0
 12  8  1  0  0  0  0
 13  2  2  0  0  0  0
 14 23  1  0  0  0  0
 17 26  2  0  0  0  0
 17 20  1  0  0  0  0
 18 13  1  0  0  0  0
 19  2  1  0  0  0  0
 19  1  2  0  0  0  0
 20  4  2  0  0  0  0
 22 20  1  1  0  0  0
 22  9  1  0  0  0  0
 23 15  1  0  0  0  0
 25 18  2  0  0  0  0
 25 26  1  0  0  0  0
 26 19  1  0  0  0  0
 27 12  1  0  0  0  0
 27 24  2  0  0  0  0
 28 30  1  0  0  0  0
 29 30  2  0  0  0  0
M  END
>  <MODEL>
4

>  <REMARK>
 VINA RESULT:      -7.6      2.591      6.957
  Name = 
  2 active torsions:
  status: ('A' for Active; 'I' for Inactive)
    1  A    between atoms: C_11  and  O_28
    2  A    between atoms: O_28  and  C_30
                            x       y       z     vdW  Elec       q    Type
                         _______ _______ _______ _____ _____    ______ ____

>  <TORSDO>
F 2

$$$$
=
 OpenBabel11112416243D

 30 35  0  0  1  0  0  0  0  0999 V2000
  188.1710  175.7820  143.9860 C   0  0  0  0  0  0  0  0  0  0  0  0
  186.3020  176.9800  145.1080 C   0  0  0  0  0  0  0  0  0  0  0  0
  190.7140  176.5010  147.1920 O   0  0  0  0  0  0  0  0  0  0  0  0
  189.5260  175.3670  143.9880 C   0  0  0  0  0  0  0  0  0  0  0  0
  187.3260  175.3770  142.9020 N   0  0  0  0  0  2  0  0  0  0  0  0
  189.4270  173.1380  141.1270 O   0  0  0  0  0  0  0  0  0  0  0  0
  192.4150  175.4260  142.9310 C   0  0  1  0  0  3  0  0  0  0  0  0
  189.1200  174.0950  141.8860 C   0  0  0  0  0  0  0  0  0  0  0  0
  192.7420  175.7400  144.3890 C   0  0  2  0  0  3  0  0  0  0  0  0
  191.9370  175.8560  146.8520 C   0  0  2  0  0  3  0  0  0  0  0  0
  187.8380  174.8250  141.6520 C   0  0  2  0  0  3  0  0  0  0  0  0
  190.0300  174.5500  142.9050 N   0  0  0  0  0  0  0  0  0  0  0  0
  185.8280  177.6990  146.2100 C   0  0  0  0  0  3  0  0  0  0  0  0
  194.0830  175.0970  144.6070 C   0  0  0  0  0  2  0  0  0  0  0  0
  193.6690  175.1360  142.2370 N   0  0  0  0  0  2  0  0  0  0  0  0
  185.4430  176.7440  144.0850 F   0  0  0  0  0  0  0  0  0  0  0  0
  189.8000  176.3750  146.1680 C   0  0  0  0  0  0  0  0  0  0  0  0
  186.6660  177.9760  147.2910 C   0  0  0  0  0  3  0  0  0  0  0  0
  187.6430  176.5290  145.0760 C   0  0  0  0  0  0  0  0  0  0  0  0
  190.3190  175.6920  145.1060 C   0  0  0  0  0  0  0  0  0  0  0  0
  192.9760  176.7910  146.8880 O   0  0  0  0  0  1  0  0  0  0  0  0
  191.7150  175.2580  145.4290 C   0  0  1  0  0  3  0  0  0  0  0  0
  194.7280  175.1400  143.2410 C   0  0  0  0  0  2  0  0  0  0  0  0
  191.8460  173.1320  142.4970 O   0  0  0  0  0  0  0  0  0  0  0  0
  187.9900  177.5410  147.2790 C   0  0  0  0  0  3  0  0  0  0  0  0
  188.4830  176.8270  146.1830 C   0  0  0  0  0  0  0  0  0  0  0  0
  191.4370  174.2960  142.7570 C   0  0  0  0  0  0  0  0  0  0  0  0
  188.0640  175.8740  140.7230 O   0  0  0  0  0  0  0  0  0  0  0  0
  187.8160  178.1480  141.2630 C   0  0  0  0  0  2  0  0  0  0  0  0
  187.3020  177.0350  140.7650 C   0  0  0  0  0  3  0  0  0  0  0  0
  1  4  2  0  0  0  0
  1 19  1  0  0  0  0
  2 13  1  0  0  0  0
  4 20  1  0  0  0  0
  5  1  1  0  0  0  0
  6  8  2  0  0  0  0
  7 15  1  6  0  0  0
  7  9  1  0  0  0  0
  8 12  1  0  0  0  0
  9 14  1  1  0  0  0
  9 22  1  0  0  0  0
 10 21  1  6  0  0  0
 10  3  1  0  0  0  0
 11 28  1  6  0  0  0
 11  8  1  0  0  0  0
 11  5  1  0  0  0  0
 12  4  1  0  0  0  0
 13 18  2  0  0  0  0
 15 23  1  0  0  0  0
 16  2  1  0  0  0  0
 17 26  1  0  0  0  0
 17  3  1  0  0  0  0
 19  2  2  0  0  0  0
 19 26  1  0  0  0  0
 20 17  2  0  0  0  0
 22 20  1  6  0  0  0
 22 10  1  0  0  0  0
 23 14  1  0  0  0  0
 24 27  2  0  0  0  0
 25 18  1  0  0  0  0
 26 25  2  0  0  0  0
 27 12  1  0  0  0  0
 27  7  1  0  0  0  0
 28 30  1  0  0  0  0
 30 29  2  0  0  0  0
M  END
>  <MODEL>
5

>  <REMARK>
 VINA RESULT:      -7.4      1.217      1.441
  Name = 
  2 active torsions:
  status: ('A' for Active; 'I' for Inactive)
    1  A    between atoms: C_11  and  O_28
    2  A    between atoms: O_28  and  C_30
                            x       y       z     vdW  Elec       q    Type
                         _______ _______ _______ _____ _____    ______ ____

>  <TORSDO>
F 2

$$$$
=
 OpenBabel11112416243D

 30 35  0  0  1  0  0  0  0  0999 V2000
  188.7720  175.9760  143.7410 C   0  0  0  0  0  0  0  0  0  0  0  0
  190.4370  174.8130  145.1780 C   0  0  0  0  0  0  0  0  0  0  0  0
  187.2510  178.0670  146.9930 O   0  0  0  0  0  0  0  0  0  0  0  0
  187.6780  176.8690  143.6250 C   0  0  0  0  0  0  0  0  0  0  0  0
  189.3220  175.3970  142.5510 N   0  0  0  0  0  2  0  0  0  0  0  0
  187.5630  177.1350  140.0080 O   0  0  0  0  0  0  0  0  0  0  0  0
  184.7300  177.5350  143.0470 C   0  0  1  0  0  3  0  0  0  0  0  0
  187.7830  176.6440  141.1470 C   0  0  0  0  0  0  0  0  0  0  0  0
  184.7900  178.1450  144.4460 C   0  0  2  0  0  3  0  0  0  0  0  0
  186.2410  178.9130  146.4540 C   0  0  2  0  0  3  0  0  0  0  0  0
  188.6430  175.4280  141.2590 C   0  0  2  0  0  3  0  0  0  0  0  0
  187.1390  177.1790  142.3180 N   0  0  0  0  0  0  0  0  0  0  0  0
  190.9860  174.6000  146.4460 C   0  0  0  0  0  3  0  0  0  0  0  0
  183.8450  179.3110  144.3740 C   0  0  0  0  0  2  0  0  0  0  0  0
  183.4760  177.9520  142.4240 N   0  0  0  0  0  2  0  0  0  0  0  0
  190.9680  174.1310  144.1320 F   0  0  0  0  0  0  0  0  0  0  0  0
  187.7980  177.2760  146.0040 C   0  0  0  0  0  0  0  0  0  0  0  0
  190.4800  175.2690  147.5610 C   0  0  0  0  0  3  0  0  0  0  0  0
  189.3570  175.7110  145.0120 C   0  0  0  0  0  0  0  0  0  0  0  0
  187.2100  177.5010  144.7920 C   0  0  0  0  0  0  0  0  0  0  0  0
  185.0310  178.6580  147.1070 O   0  0  0  0  0  1  0  0  0  0  0  0
  186.1830  178.5830  144.9320 C   0  0  1  0  0  3  0  0  0  0  0  0
  182.8300  178.8880  143.3390 C   0  0  0  0  0  2  0  0  0  0  0  0
  185.8080  178.8340  141.3350 O   0  0  0  0  0  0  0  0  0  0  0  0
  189.4160  176.1580  147.4190 C   0  0  0  0  0  3  0  0  0  0  0  0
  188.8500  176.3790  146.1590 C   0  0  0  0  0  0  0  0  0  0  0  0
  185.9020  177.8970  142.1750 C   0  0  0  0  0  0  0  0  0  0  0  0
  187.8330  174.2710  141.1170 O   0  0  0  0  0  0  0  0  0  0  0  0
  188.4180  172.3480  142.3360 C   0  0  0  0  0  2  0  0  0  0  0  0
  188.3940  173.0010  141.1860 C   0  0  0  0  0  3  0  0  0  0  0  0
  1 19  1  0  0  0  0
  2 13  1  0  0  0  0
  4  1  2  0  0  0  0
  4 20  1  0  0  0  0
  5  1  1  0  0  0  0
  6  8  2  0  0  0  0
  7 27  1  6  0  0  0
  7  9  1  0  0  0  0
  8 11  1  0  0  0  0
  8 12  1  0  0  0  0
  9 14  1  6  0  0  0
  9 22  1  0  0  0  0
 10  3  1  0  0  0  0
 10 21  1  1  0  0  0
 11 28  1  1  0  0  0
 11  5  1  0  0  0  0
 12  4  1  0  0  0  0
 13 18  2  0  0  0  0
 15  7  1  0  0  0  0
 15 23  1  0  0  0  0
 16  2  1  0  0  0  0
 17 26  1  0  0  0  0
 17  3  1  0  0  0  0
 19  2  2  0  0  0  0
 19 26  1  0  0  0  0
 20 17  2  0  0  0  0
 22 20  1  1  0  0  0
 22 10  1  0  0  0  0
 23 14  1  0  0  0  0
 24 27  2  0  0  0  0
 25 18  1  0  0  0  0
 26 25  2  0  0  0  0
 27 12  1  0  0  0  0
 28 30  1  0  0  0  0
 30 29  2  0  0  0  0
M  END
>  <MODEL>
6

>  <REMARK>
 VINA RESULT:      -7.4      2.358      5.579
  Name = 
  2 active torsions:
  status: ('A' for Active; 'I' for Inactive)
    1  A    between atoms: C_11  and  O_28
    2  A    between atoms: O_28  and  C_30
                            x       y       z     vdW  Elec       q    Type
                         _______ _______ _______ _____ _____    ______ ____

>  <TORSDO>
F 2

$$$$
=
 OpenBabel11112416243D

 30 35  0  0  1  0  0  0  0  0999 V2000
  189.7490  176.0410  143.6730 C   0  0  0  0  0  0  0  0  0  0  0  0
  187.9350  177.6910  144.0940 C   0  0  0  0  0  0  0  0  0  0  0  0
  187.9800  174.8270  140.1160 O   0  0  0  0  0  0  0  0  0  0  0  0
  190.2900  175.0060  142.8710 C   0  0  0  0  0  0  0  0  0  0  0  0
  190.4900  176.4910  144.8140 N   0  0  0  0  0  2  0  0  0  0  0  0
  193.5480  174.7330  144.4450 O   0  0  0  0  0  0  0  0  0  0  0  0
  191.1010  172.0860  142.3410 C   0  0  1  0  0  3  0  0  0  0  0  0
  192.3180  174.9730  144.3160 C   0  0  0  0  0  0  0  0  0  0  0  0
  190.2000  172.2550  141.1200 C   0  0  2  0  0  3  0  0  0  0  0  0
  188.8640  173.8510  139.5720 C   0  0  2  0  0  3  0  0  0  0  0  0
  191.6160  175.7540  145.3780 C   0  0  2  0  0  3  0  0  0  0  0  0
  191.5710  174.4250  143.2140 N   0  0  0  0  0  0  0  0  0  0  0  0
  186.7370  178.2860  143.6870 C   0  0  0  0  0  3  0  0  0  0  0  0
  190.8420  171.3890  140.0730 C   0  0  0  0  0  2  0  0  0  0  0  0
  191.8390  170.8330  142.1900 N   0  0  0  0  0  2  0  0  0  0  0  0
  188.4990  178.1230  145.2490 F   0  0  0  0  0  0  0  0  0  0  0  0
  188.4410  175.2690  141.3370 C   0  0  0  0  0  0  0  0  0  0  0  0
  186.1070  177.8820  142.5100 C   0  0  0  0  0  3  0  0  0  0  0  0
  188.5220  176.6680  143.3130 C   0  0  0  0  0  0  0  0  0  0  0  0
  189.5960  174.6390  141.7030 C   0  0  0  0  0  0  0  0  0  0  0  0
  188.1620  172.6600  139.3640 O   0  0  0  0  0  1  0  0  0  0  0  0
  190.0120  173.6970  140.6150 C   0  0  1  0  0  3  0  0  0  0  0  0
  191.5150  170.2980  140.8720 C   0  0  0  0  0  2  0  0  0  0  0  0
  193.2430  173.1640  142.1710 O   0  0  0  0  0  0  0  0  0  0  0  0
  186.6690  176.8750  141.7260 C   0  0  0  0  0  3  0  0  0  0  0  0
  187.8630  176.2650  142.1200 C   0  0  0  0  0  0  0  0  0  0  0  0
  192.0460  173.2350  142.5640 C   0  0  0  0  0  0  0  0  0  0  0  0
  191.1500  174.8610  146.3790 O   0  0  0  0  0  0  0  0  0  0  0  0
  189.0510  174.6050  147.4050 C   0  0  0  0  0  2  0  0  0  0  0  0
  190.1920  175.2670  147.3000 C   0  0  0  0  0  3  0  0  0  0  0  0
  1  5  1  0  0  0  0
  2 16  1  0  0  0  0
  3 17  1  0  0  0  0
  4 12  1  0  0  0  0
  4  1  2  0  0  0  0
  5 11  1  0  0  0  0
  7 15  1  6  0  0  0
  7 27  1  0  0  0  0
  8  6  2  0  0  0  0
  8 11  1  0  0  0  0
  9 14  1  6  0  0  0
  9  7  1  0  0  0  0
 10 21  1  1  0  0  0
 10  3  1  0  0  0  0
 10 22  1  0  0  0  0
 11 28  1  1  0  0  0
 12  8  1  0  0  0  0
 13  2  1  0  0  0  0
 14 23  1  0  0  0  0
 17 20  2  0  0  0  0
 17 26  1  0  0  0  0
 18 13  2  0  0  0  0
 19  1  1  0  0  0  0
 19  2  2  0  0  0  0
 20  4  1  0  0  0  0
 22  9  1  0  0  0  0
 22 20  1  1  0  0  0
 23 15  1  0  0  0  0
 24 27  2  0  0  0  0
 25 26  2  0  0  0  0
 25 18  1  0  0  0  0
 26 19  1  0  0  0  0
 27 12  1  0  0  0  0
 28 30  1  0  0  0  0
 30 29  2  0  0  0  0
M  END
>  <MODEL>
7

>  <REMARK>
 VINA RESULT:      -7.4      2.633      5.643
  Name = 
  2 active torsions:
  status: ('A' for Active; 'I' for Inactive)
    1  A    between atoms: C_11  and  O_28
    2  A    between atoms: O_28  and  C_30
                            x       y       z     vdW  Elec       q    Type
                         _______ _______ _______ _____ _____    ______ ____

>  <TORSDO>
F 2

$$$$
=
 OpenBabel11112416243D

 30 35  0  0  1  0  0  0  0  0999 V2000
  188.9020  174.9060  143.5160 C   0  0  0  0  0  0  0  0  0  0  0  0
  186.9200  176.3700  143.8600 C   0  0  0  0  0  0  0  0  0  0  0  0
  190.7560  176.4190  146.9120 O   0  0  0  0  0  0  0  0  0  0  0  0
  190.1970  174.4960  143.9200 C   0  0  0  0  0  0  0  0  0  0  0  0
  188.2790  174.2390  142.4110 N   0  0  0  0  0  2  0  0  0  0  0  0
  190.5570  171.5990  141.7660 O   0  0  0  0  0  0  0  0  0  0  0  0
  193.2410  174.2570  143.5410 C   0  0  1  0  0  3  0  0  0  0  0  0
  190.1600  172.7230  142.1720 C   0  0  0  0  0  0  0  0  0  0  0  0
  193.2740  174.9380  144.9080 C   0  0  2  0  0  3  0  0  0  0  0  0
  191.9790  175.6980  147.0230 C   0  0  2  0  0  3  0  0  0  0  0  0
  189.0050  173.3760  141.4850 C   0  0  2  0  0  3  0  0  0  0  0  0
  190.8630  173.4220  143.2160 N   0  0  0  0  0  0  0  0  0  0  0  0
  186.2720  177.3540  144.6130 C   0  0  0  0  0  3  0  0  0  0  0  0
  194.4960  174.3640  145.5690 C   0  0  0  0  0  2  0  0  0  0  0  0
  194.5910  173.7860  143.2360 N   0  0  0  0  0  2  0  0  0  0  0  0
  186.2810  175.8810  142.7680 F   0  0  0  0  0  0  0  0  0  0  0  0
  190.0710  176.0360  145.7790 C   0  0  0  0  0  0  0  0  0  0  0  0
  186.8800  177.8980  145.7450 C   0  0  0  0  0  3  0  0  0  0  0  0
  188.2050  175.9160  144.2380 C   0  0  0  0  0  0  0  0  0  0  0  0
  190.7560  175.0960  145.0640 C   0  0  0  0  0  0  0  0  0  0  0  0
  193.0450  176.6030  147.0480 O   0  0  0  0  0  1  0  0  0  0  0  0
  192.0240  174.7520  145.7850 C   0  0  1  0  0  3  0  0  0  0  0  0
  195.4140  174.0450  144.4130 C   0  0  0  0  0  2  0  0  0  0  0  0
  192.6300  171.9330  143.5880 O   0  0  0  0  0  0  0  0  0  0  0  0
  188.1470  177.4650  146.1340 C   0  0  0  0  0  3  0  0  0  0  0  0
  188.8130  176.4870  145.3900 C   0  0  0  0  0  0  0  0  0  0  0  0
  192.2510  173.1280  143.4490 C   0  0  0  0  0  0  0  0  0  0  0  0
  189.4870  174.1440  140.3940 O   0  0  0  0  0  0  0  0  0  0  0  0
  188.3040  172.8180  138.8560 C   0  0  0  0  0  2  0  0  0  0  0  0
  189.1380  173.8180  139.0880 C   0  0  0  0  0  3  0  0  0  0  0  0
  1  4  2  0  0  0  0
  1 19  1  0  0  0  0
  2 19  2  0  0  0  0
  2 13  1  0  0  0  0
  3 10  1  0  0  0  0
  4 20  1  0  0  0  0
  5  1  1  0  0  0  0
  6  8  2  0  0  0  0
  7 15  1  1  0  0  0
  7  9  1  0  0  0  0
  8 12  1  0  0  0  0
  9 14  1  1  0  0  0
  9 22  1  0  0  0  0
 10 21  1  6  0  0  0
 11 28  1  6  0  0  0
 11  8  1  0  0  0  0
 11  5  1  0  0  0  0
 12 27  1  0  0  0  0
 12  4  1  0  0  0  0
 13 18  2  0  0  0  0
 15 23  1  0  0  0  0
 16  2  1  0  0  0  0
 17  3  1  0  0  0  0
 18 25  1  0  0  0  0
 19 26  1  0  0  0  0
 20 17  2  0  0  0  0
 22 20  1  6  0  0  0
 22 10  1  0  0  0  0
 23 14  1  0  0  0  0
 26 17  1  0  0  0  0
 26 25  2  0  0  0  0
 27  7  1  0  0  0  0
 27 24  2  0  0  0  0
 29 30  2  0  0  0  0
 30 28  1  0  0  0  0
M  END
>  <MODEL>
8

>  <REMARK>
 VINA RESULT:      -7.3      2.080      2.826
  Name = 
  2 active torsions:
  status: ('A' for Active; 'I' for Inactive)
    1  A    between atoms: C_11  and  O_28
    2  A    between atoms: O_28  and  C_30
                            x       y       z     vdW  Elec       q    Type
                         _______ _______ _______ _____ _____    ______ ____

>  <TORSDO>
F 2

$$$$
=
 OpenBabel11112416243D

 30 35  0  0  1  0  0  0  0  0999 V2000
  188.7430  177.2580  145.7220 C   0  0  0  0  0  0  0  0  0  0  0  0
  186.6360  178.2540  146.5920 C   0  0  0  0  0  0  0  0  0  0  0  0
  186.9870  176.4590  142.0440 O   0  0  0  0  0  0  0  0  0  0  0  0
  189.4380  176.6010  144.6770 C   0  0  0  0  0  0  0  0  0  0  0  0
  189.4610  177.6160  146.9100 N   0  0  0  0  0  2  0  0  0  0  0  0
  192.8010  176.8240  146.0200 O   0  0  0  0  0  0  0  0  0  0  0  0
  190.8700  174.1790  143.4320 C   0  0  1  0  0  3  0  0  0  0  0  0
  191.5430  176.7650  145.9970 C   0  0  0  0  0  0  0  0  0  0  0  0
  189.8430  174.3810  142.3200 C   0  0  2  0  0  3  0  0  0  0  0  0
  188.0220  175.8880  141.2500 C   0  0  2  0  0  3  0  0  0  0  0  0
  190.7780  177.0830  147.2400 C   0  0  2  0  0  3  0  0  0  0  0  0
  190.8470  176.3050  144.8240 N   0  0  0  0  0  0  0  0  0  0  0  0
  185.2970  178.5980  146.3830 C   0  0  0  0  0  3  0  0  0  0  0  0
  190.5700  173.9640  141.0740 C   0  0  0  0  0  2  0  0  0  0  0  0
  191.8690  173.2220  142.9580 N   0  0  0  0  0  2  0  0  0  0  0  0
  187.1880  178.5460  147.7960 F   0  0  0  0  0  0  0  0  0  0  0  0
  187.4420  176.7190  143.3180 C   0  0  0  0  0  0  0  0  0  0  0  0
  184.6730  178.3210  145.1670 C   0  0  0  0  0  3  0  0  0  0  0  0
  187.3740  177.6150  145.5680 C   0  0  0  0  0  0  0  0  0  0  0  0
  188.7440  176.3400  143.4800 C   0  0  0  0  0  0  0  0  0  0  0  0
  187.6090  174.6350  140.7880 O   0  0  0  0  0  1  0  0  0  0  0  0
  189.2680  175.8020  142.1840 C   0  0  1  0  0  3  0  0  0  0  0  0
  191.5580  172.9300  141.5620 C   0  0  0  0  0  2  0  0  0  0  0  0
  192.6650  175.7780  143.4480 O   0  0  0  0  0  0  0  0  0  0  0  0
  185.3830  177.6920  144.1450 C   0  0  0  0  0  3  0  0  0  0  0  0
  186.7200  177.3340  144.3370 C   0  0  0  0  0  0  0  0  0  0  0  0
  191.5290  175.4520  143.8900 C   0  0  0  0  0  0  0  0  0  0  0  0
  190.6370  175.9010  148.0130 O   0  0  0  0  0  0  0  0  0  0  0  0
  188.8960  174.3800  147.5910 C   0  0  0  0  0  2  0  0  0  0  0  0
  190.1620  174.7290  147.4360 C   0  0  0  0  0  3  0  0  0  0  0  0
  1  5  1  0  0  0  0
  2 16  1  0  0  0  0
  3 17  1  0  0  0  0
  4 12  1  0  0  0  0
  4  1  2  0  0  0  0
  5 11  1  0  0  0  0
  7 15  1  6  0  0  0
  7 27  1  0  0  0  0
  8  6  2  0  0  0  0
  8 11  1  0  0  0  0
  9 14  1  6  0  0  0
  9  7  1  0  0  0  0
 10 21  1  1  0  0  0
 10  3  1  0  0  0  0
 10 22  1  0  0  0  0
 11 28  1  1  0  0  0
 12  8  1  0  0  0  0
 13  2  1  0  0  0  0
 14 23  1  0  0  0  0
 17 20  2  0  0  0  0
 17 26  1  0  0  0  0
 18 13  2  0  0  0  0
 19  1  1  0  0  0  0
 19  2  2  0  0  0  0
 20  4  1  0  0  0  0
 22  9  1  0  0  0  0
 22 20  1  1  0  0  0
 23 15  1  0  0  0  0
 24 27  2  0  0  0  0
 25 26  2  0  0  0  0
 25 18  1  0  0  0  0
 26 19  1  0  0  0  0
 27 12  1  0  0  0  0
 30 29  2  0  0  0  0
 30 28  1  0  0  0  0
M  END
>  <MODEL>
9

>  <REMARK>
 VINA RESULT:      -7.3      2.008      4.825
  Name = 
  2 active torsions:
  status: ('A' for Active; 'I' for Inactive)
    1  A    between atoms: C_11  and  O_28
    2  A    between atoms: O_28  and  C_30
                            x       y       z     vdW  Elec       q    Type
                         _______ _______ _______ _____ _____    ______ ____

>  <TORSDO>
F 2

$$$$
