=
 OpenBabel11112416593D

 31 35  0  0  0  0  0  0  0  0999 V2000
  184.8770  178.0310  146.7480 C   0  0  0  0  0  0  0  0  0  0  0  0
  186.8060  177.6790  143.5440 C   0  0  0  0  0  0  0  0  0  0  0  0
  185.8730  177.8500  142.4870 C   0  0  0  0  0  0  0  0  0  0  0  0
  191.3990  176.8360  145.9530 O   0  0  0  0  0  0  0  0  0  0  0  0
  191.5900  176.8020  144.7080 C   0  0  0  0  0  0  0  0  0  0  0  0
  183.6570  178.2570  141.7060 C   0  0  0  0  0  0  0  0  0  0  0  0
  186.4710  177.7400  144.9250 C   0  0  0  0  0  0  0  0  0  0  0  0
  185.8960  177.8440  147.6830 C   0  0  0  0  0  3  0  0  0  0  0  0
  184.5510  178.0920  142.7170 N   0  0  0  0  0  0  0  0  0  0  0  0
  189.1260  177.2540  144.1840 C   0  0  0  0  0  0  0  0  0  0  0  0
  183.6100  178.2630  147.1660 F   0  0  0  0  0  0  0  0  0  0  0  0
  187.6330  177.5280  140.8960 N   0  0  0  0  0  0  0  0  0  0  0  0
  181.9740  178.5650  142.0720 Cl  0  0  0  0  0  0  0  0  0  0  0  0
  188.7700  177.3180  145.4930 N   0  0  0  0  0  0  0  0  0  0  0  0
  188.1560  177.4320  143.1890 C   0  0  0  0  0  0  0  0  0  0  0  0
  190.4890  177.0040  143.8100 N   0  0  0  0  0  2  0  0  0  0  0  0
  185.1640  177.9790  145.3830 C   0  0  0  0  0  3  0  0  0  0  0  0
  184.0780  178.1800  140.3780 C   0  0  0  0  0  3  0  0  0  0  0  0
  187.4950  177.5520  145.8860 C   0  0  0  0  0  0  0  0  0  0  0  0
  187.2010  177.6050  147.2520 C   0  0  0  0  0  3  0  0  0  0  0  0
  188.5160  177.3660  141.8780 N   0  0  0  0  0  0  0  0  0  0  0  0
  186.3260  177.7680  141.1540 C   0  0  0  0  0  0  0  0  0  0  0  0
  185.4230  177.9340  140.1040 C   0  0  0  0  0  3  0  0  0  0  0  0
  195.4460  176.0600  142.9510 C   0  0  0  0  0  0  0  0  0  0  0  0
  193.0460  176.2630  142.7820 C   0  0  0  0  0  3  0  0  0  0  0  0
  194.1680  176.9470  146.6480 Cl  0  0  0  0  0  0  0  0  0  0  0  0
  196.6480  175.8230  142.3740 F   0  0  0  0  0  0  0  0  0  0  0  0
  194.2840  176.0180  142.1840 C   0  0  0  0  0  3  0  0  0  0  0  0
  194.1360  176.5950  144.9250 C   0  0  0  0  0  0  0  0  0  0  0  0
  192.9450  176.5540  144.1510 C   0  0  0  0  0  0  0  0  0  0  0  0
  195.3700  176.3480  144.3140 C   0  0  0  0  0  3  0  0  0  0  0  0
  1 11  1  0  0  0  0
  1  8  1  0  0  0  0
  2  7  1  0  0  0  0
  3  9  1  0  0  0  0
  3  2  2  0  0  0  0
  5  4  2  0  0  0  0
  6 13  1  0  0  0  0
  6  9  2  0  0  0  0
  7 17  1  0  0  0  0
  7 19  2  0  0  0  0
 10 14  2  0  0  0  0
 12 22  2  0  0  0  0
 12 21  1  0  0  0  0
 14 19  1  0  0  0  0
 15  2  1  0  0  0  0
 15 10  1  0  0  0  0
 16 10  1  0  0  0  0
 16  5  1  0  0  0  0
 17  1  2  0  0  0  0
 18  6  1  0  0  0  0
 19 20  1  0  0  0  0
 20  8  2  0  0  0  0
 21 15  2  0  0  0  0
 22  3  1  0  0  0  0
 23 18  2  0  0  0  0
 23 22  1  0  0  0  0
 24 31  1  0  0  0  0
 25 30  2  0  0  0  0
 27 24  1  0  0  0  0
 28 25  1  0  0  0  0
 28 24  2  0  0  0  0
 29 26  1  0  0  0  0
 30  5  1  0  0  0  0
 30 29  1  0  0  0  0
 31 29  2  0  0  0  0
M  END
>  <MODEL>
1

>  <REMARK>
 VINA RESULT:     -10.4      0.000      0.000
  Name = 
  1 active torsions:
  status: ('A' for Active; 'I' for Inactive)
    1  A    between atoms: C_5  and  C_30
                            x       y       z     vdW  Elec       q    Type
                         _______ _______ _______ _____ _____    ______ ____

>  <TORSDO>
F 1

$$$$
=
 OpenBabel11112416593D

 31 35  0  0  0  0  0  0  0  0999 V2000
  190.7130  176.7910  147.1810 C   0  0  0  0  0  0  0  0  0  0  0  0
  188.1810  176.4790  144.4230 C   0  0  0  0  0  0  0  0  0  0  0  0
  187.0510  177.2400  144.8210 C   0  0  0  0  0  0  0  0  0  0  0  0
  191.2230  173.3830  141.4610 O   0  0  0  0  0  0  0  0  0  0  0  0
  190.1340  173.5700  140.8540 C   0  0  0  0  0  0  0  0  0  0  0  0
  185.9280  178.6460  146.3870 C   0  0  0  0  0  0  0  0  0  0  0  0
  189.3660  176.3400  145.1980 C   0  0  0  0  0  0  0  0  0  0  0  0
  191.7490  176.0100  146.6680 C   0  0  0  0  0  3  0  0  0  0  0  0
  187.0100  177.9160  146.0060 N   0  0  0  0  0  0  0  0  0  0  0  0
  189.1970  175.0510  142.7200 C   0  0  0  0  0  0  0  0  0  0  0  0
  190.8520  177.3910  148.3870 F   0  0  0  0  0  0  0  0  0  0  0  0
  185.9440  176.6440  142.7830 N   0  0  0  0  0  0  0  0  0  0  0  0
  185.9410  179.4870  147.9210 Cl  0  0  0  0  0  0  0  0  0  0  0  0
  190.3120  174.9400  143.4860 N   0  0  0  0  0  0  0  0  0  0  0  0
  188.1140  175.8180  143.1710 C   0  0  0  0  0  0  0  0  0  0  0  0
  189.1150  174.3870  141.4500 N   0  0  0  0  0  2  0  0  0  0  0  0
  189.5330  176.9530  146.4520 C   0  0  0  0  0  3  0  0  0  0  0  0
  184.8080  178.7250  145.5600 C   0  0  0  0  0  3  0  0  0  0  0  0
  190.4270  175.5510  144.6900 C   0  0  0  0  0  0  0  0  0  0  0  0
  191.6060  175.3920  145.4260 C   0  0  0  0  0  3  0  0  0  0  0  0
  186.9990  175.9270  142.4000 N   0  0  0  0  0  0  0  0  0  0  0  0
  185.9320  177.3040  143.9650 C   0  0  0  0  0  0  0  0  0  0  0  0
  184.8130  178.0480  144.3400 C   0  0  0  0  0  3  0  0  0  0  0  0
  189.3750  171.9310  136.9510 C   0  0  0  0  0  0  0  0  0  0  0  0
  189.4430  173.7910  138.4890 C   0  0  0  0  0  3  0  0  0  0  0  0
  190.6230  170.4050  140.4430 Cl  0  0  0  0  0  0  0  0  0  0  0  0
  189.1290  171.4390  135.7130 F   0  0  0  0  0  0  0  0  0  0  0  0
  189.1890  173.2860  137.2120 C   0  0  0  0  0  3  0  0  0  0  0  0
  190.0730  171.5730  139.2490 C   0  0  0  0  0  0  0  0  0  0  0  0
  189.8860  172.9540  139.5260 C   0  0  0  0  0  0  0  0  0  0  0  0
  189.8150  171.0810  137.9650 C   0  0  0  0  0  3  0  0  0  0  0  0
  1 11  1  0  0  0  0
  2  3  1  0  0  0  0
  2  7  1  0  0  0  0
  3  9  1  0  0  0  0
  5 16  1  0  0  0  0
  5  4  2  0  0  0  0
  6 13  1  0  0  0  0
  7 17  1  0  0  0  0
  8  1  1  0  0  0  0
  9  6  2  0  0  0  0
 10 15  1  0  0  0  0
 10 14  2  0  0  0  0
 12 22  1  0  0  0  0
 14 19  1  0  0  0  0
 15  2  2  0  0  0  0
 16 10  1  0  0  0  0
 17  1  2  0  0  0  0
 18  6  1  0  0  0  0
 19  7  2  0  0  0  0
 19 20  1  0  0  0  0
 20  8  2  0  0  0  0
 21 12  2  0  0  0  0
 21 15  1  0  0  0  0
 22 23  1  0  0  0  0
 22  3  2  0  0  0  0
 23 18  2  0  0  0  0
 24 28  2  0  0  0  0
 24 31  1  0  0  0  0
 25 30  2  0  0  0  0
 27 24  1  0  0  0  0
 28 25  1  0  0  0  0
 29 30  1  0  0  0  0
 29 26  1  0  0  0  0
 30  5  1  0  0  0  0
 31 29  2  0  0  0  0
M  END
>  <MODEL>
2

>  <REMARK>
 VINA RESULT:      -9.1      4.786      5.920
  Name = 
  1 active torsions:
  status: ('A' for Active; 'I' for Inactive)
    1  A    between atoms: C_5  and  C_30
                            x       y       z     vdW  Elec       q    Type
                         _______ _______ _______ _____ _____    ______ ____

>  <TORSDO>
F 1

$$$$
=
 OpenBabel11112416593D

 31 35  0  0  0  0  0  0  0  0999 V2000
  195.1240  174.0800  145.4660 C   0  0  0  0  0  0  0  0  0  0  0  0
  191.6520  173.3610  144.2230 C   0  0  0  0  0  0  0  0  0  0  0  0
  191.7260  172.1510  143.4850 C   0  0  0  0  0  0  0  0  0  0  0  0
  189.5640  177.6540  146.4200 O   0  0  0  0  0  0  0  0  0  0  0  0
  188.6490  177.0280  145.8210 C   0  0  0  0  0  0  0  0  0  0  0  0
  192.9690  170.3070  142.6220 C   0  0  0  0  0  0  0  0  0  0  0  0
  192.7620  173.9790  144.8630 C   0  0  0  0  0  0  0  0  0  0  0  0
  194.9070  175.2710  146.1590 C   0  0  0  0  0  3  0  0  0  0  0  0
  192.8960  171.4670  143.3280 N   0  0  0  0  0  0  0  0  0  0  0  0
  190.2430  175.1850  145.0370 C   0  0  0  0  0  0  0  0  0  0  0  0
  196.3660  173.5420  145.4160 F   0  0  0  0  0  0  0  0  0  0  0  0
  189.3790  172.2920  143.0360 N   0  0  0  0  0  0  0  0  0  0  0  0
  194.5020  169.4810  142.4580 Cl  0  0  0  0  0  0  0  0  0  0  0  0
  191.3250  175.7470  145.6350 N   0  0  0  0  0  0  0  0  0  0  0  0
  190.3840  173.9870  144.3230 C   0  0  0  0  0  0  0  0  0  0  0  0
  188.9530  175.8080  145.1290 N   0  0  0  0  0  2  0  0  0  0  0  0
  194.0610  173.4410  144.8250 C   0  0  0  0  0  3  0  0  0  0  0  0
  191.8240  169.7750  142.0280 C   0  0  0  0  0  3  0  0  0  0  0  0
  192.5580  175.1890  145.5700 C   0  0  0  0  0  0  0  0  0  0  0  0
  193.6280  175.8240  146.2110 C   0  0  0  0  0  3  0  0  0  0  0  0
  189.2980  173.4280  143.7250 N   0  0  0  0  0  0  0  0  0  0  0  0
  190.5540  171.6350  142.8960 C   0  0  0  0  0  0  0  0  0  0  0  0
  190.6100  170.4460  142.1680 C   0  0  0  0  0  3  0  0  0  0  0  0
  184.5980  178.4650  145.9700 C   0  0  0  0  0  0  0  0  0  0  0  0
  186.5340  177.4780  147.0220 C   0  0  0  0  0  3  0  0  0  0  0  0
  187.3860  178.2180  143.0970 Cl  0  0  0  0  0  0  0  0  0  0  0  0
  183.3210  178.9120  146.0430 F   0  0  0  0  0  0  0  0  0  0  0  0
  185.2180  177.9370  147.1000 C   0  0  0  0  0  3  0  0  0  0  0  0
  186.6130  178.0780  144.6710 C   0  0  0  0  0  0  0  0  0  0  0  0
  187.2540  177.5370  145.8180 C   0  0  0  0  0  0  0  0  0  0  0  0
  185.2940  178.5350  144.7630 C   0  0  0  0  0  3  0  0  0  0  0  0
  1  8  1  0  0  0  0
  2 15  1  0  0  0  0
  2  7  1  0  0  0  0
  3  2  2  0  0  0  0
  5  4  2  0  0  0  0
  6  9  2  0  0  0  0
  7 19  2  0  0  0  0
  8 20  2  0  0  0  0
  9  3  1  0  0  0  0
 10 16  1  0  0  0  0
 10 14  2  0  0  0  0
 11  1  1  0  0  0  0
 12 21  1  0  0  0  0
 13  6  1  0  0  0  0
 15 10  1  0  0  0  0
 16  5  1  0  0  0  0
 17  7  1  0  0  0  0
 17  1  2  0  0  0  0
 18 23  2  0  0  0  0
 18  6  1  0  0  0  0
 19 14  1  0  0  0  0
 19 20  1  0  0  0  0
 21 15  2  0  0  0  0
 22 12  2  0  0  0  0
 22  3  1  0  0  0  0
 23 22  1  0  0  0  0
 24 27  1  0  0  0  0
 24 28  1  0  0  0  0
 25 28  2  0  0  0  0
 26 29  1  0  0  0  0
 29 31  1  0  0  0  0
 29 30  2  0  0  0  0
 30  5  1  0  0  0  0
 30 25  1  0  0  0  0
 31 24  2  0  0  0  0
M  END
>  <MODEL>
3

>  <REMARK>
 VINA RESULT:      -8.9      3.756      8.798
  Name = 
  1 active torsions:
  status: ('A' for Active; 'I' for Inactive)
    1  A    between atoms: C_5  and  C_30
                            x       y       z     vdW  Elec       q    Type
                         _______ _______ _______ _____ _____    ______ ____

>  <TORSDO>
F 1

$$$$
=
 OpenBabel11112416593D

 31 35  0  0  0  0  0  0  0  0999 V2000
  192.6710  172.7850  140.4250 C   0  0  0  0  0  0  0  0  0  0  0  0
  192.0260  174.8090  143.5240 C   0  0  0  0  0  0  0  0  0  0  0  0
  193.2460  174.8430  144.2490 C   0  0  0  0  0  0  0  0  0  0  0  0
  186.9910  175.7300  142.3370 O   0  0  0  0  0  0  0  0  0  0  0  0
  187.2500  176.2910  143.4350 C   0  0  0  0  0  0  0  0  0  0  0  0
  195.5440  174.2510  144.4960 C   0  0  0  0  0  0  0  0  0  0  0  0
  191.8510  174.1380  142.2820 C   0  0  0  0  0  0  0  0  0  0  0  0
  191.4150  172.8340  139.8200 C   0  0  0  0  0  3  0  0  0  0  0  0
  194.3740  174.2190  143.8020 N   0  0  0  0  0  0  0  0  0  0  0  0
  189.6840  175.4980  143.4160 C   0  0  0  0  0  0  0  0  0  0  0  0
  193.6840  172.1110  139.8290 F   0  0  0  0  0  0  0  0  0  0  0  0
  192.1940  176.1720  145.9390 N   0  0  0  0  0  0  0  0  0  0  0  0
  196.9540  173.4280  143.8650 Cl  0  0  0  0  0  0  0  0  0  0  0  0
  189.5520  174.8460  142.2320 N   0  0  0  0  0  0  0  0  0  0  0  0
  190.9170  175.4930  144.0820 C   0  0  0  0  0  0  0  0  0  0  0  0
  188.5690  176.1940  143.9930 N   0  0  0  0  0  2  0  0  0  0  0  0
  192.8860  173.4310  141.6440 C   0  0  0  0  0  3  0  0  0  0  0  0
  195.6220  174.9370  145.7080 C   0  0  0  0  0  3  0  0  0  0  0  0
  190.5810  174.1780  141.6560 C   0  0  0  0  0  0  0  0  0  0  0  0
  190.3730  173.5290  140.4340 C   0  0  0  0  0  3  0  0  0  0  0  0
  191.0450  176.1470  145.2680 N   0  0  0  0  0  0  0  0  0  0  0  0
  193.2980  175.5440  145.4710 C   0  0  0  0  0  0  0  0  0  0  0  0
  194.4890  175.5870  146.1960 C   0  0  0  0  0  3  0  0  0  0  0  0
  184.2550  178.4080  145.6820 C   0  0  0  0  0  0  0  0  0  0  0  0
  185.9390  176.6880  145.4950 C   0  0  0  0  0  3  0  0  0  0  0  0
  185.6930  178.6990  141.9490 Cl  0  0  0  0  0  0  0  0  0  0  0  0
  183.3170  179.0590  146.4110 F   0  0  0  0  0  0  0  0  0  0  0  0
  184.9730  177.3570  146.2480 C   0  0  0  0  0  3  0  0  0  0  0  0
  185.4690  178.1270  143.5980 C   0  0  0  0  0  0  0  0  0  0  0  0
  186.2060  177.0540  144.1660 C   0  0  0  0  0  0  0  0  0  0  0  0
  184.5040  178.7890  144.3640 C   0  0  0  0  0  3  0  0  0  0  0  0
  1 17  1  0  0  0  0
  2 15  2  0  0  0  0
  2  3  1  0  0  0  0
  3 22  1  0  0  0  0
  4  5  2  0  0  0  0
  5 16  1  0  0  0  0
  5 30  1  0  0  0  0
  6 18  2  0  0  0  0
  7  2  1  0  0  0  0
  8  1  2  0  0  0  0
  8 20  1  0  0  0  0
  9  3  2  0  0  0  0
  9  6  1  0  0  0  0
 10 16  1  0  0  0  0
 10 15  1  0  0  0  0
 11  1  1  0  0  0  0
 13  6  1  0  0  0  0
 14 10  2  0  0  0  0
 15 21  1  0  0  0  0
 17  7  2  0  0  0  0
 18 23  1  0  0  0  0
 19 14  1  0  0  0  0
 19  7  1  0  0  0  0
 20 19  2  0  0  0  0
 21 12  2  0  0  0  0
 22 12  1  0  0  0  0
 22 23  2  0  0  0  0
 24 28  1  0  0  0  0
 24 27  1  0  0  0  0
 25 28  2  0  0  0  0
 26 29  1  0  0  0  0
 29 30  2  0  0  0  0
 29 31  1  0  0  0  0
 30 25  1  0  0  0  0
 31 24  2  0  0  0  0
M  END
>  <MODEL>
4

>  <REMARK>
 VINA RESULT:      -8.7      2.975      9.347
  Name = 
  1 active torsions:
  status: ('A' for Active; 'I' for Inactive)
    1  A    between atoms: C_5  and  C_30
                            x       y       z     vdW  Elec       q    Type
                         _______ _______ _______ _____ _____    ______ ____

>  <TORSDO>
F 1

$$$$
=
 OpenBabel11112416593D

 31 35  0  0  0  0  0  0  0  0999 V2000
  186.1450  177.1660  141.3030 C   0  0  0  0  0  0  0  0  0  0  0  0
  187.8840  176.9550  144.6270 C   0  0  0  0  0  0  0  0  0  0  0  0
  186.9860  177.4840  145.5900 C   0  0  0  0  0  0  0  0  0  0  0  0
  192.2480  174.8060  142.6390 O   0  0  0  0  0  0  0  0  0  0  0  0
  192.3990  174.9370  143.8830 C   0  0  0  0  0  0  0  0  0  0  0  0
  184.8870  178.4580  146.1730 C   0  0  0  0  0  0  0  0  0  0  0  0
  187.6000  176.8560  143.2360 C   0  0  0  0  0  0  0  0  0  0  0  0
  187.1220  176.6240  140.4670 C   0  0  0  0  0  3  0  0  0  0  0  0
  185.7490  177.9510  145.2510 N   0  0  0  0  0  0  0  0  0  0  0  0
  190.0750  175.9640  144.1910 C   0  0  0  0  0  0  0  0  0  0  0  0
  184.9650  177.5810  140.7830 F   0  0  0  0  0  0  0  0  0  0  0  0
  188.6010  177.0730  147.3080 N   0  0  0  0  0  0  0  0  0  0  0  0
  183.3160  179.0410  145.6690 Cl  0  0  0  0  0  0  0  0  0  0  0  0
  189.7710  175.8850  142.8700 N   0  0  0  0  0  0  0  0  0  0  0  0
  189.1430  176.4980  145.0910 C   0  0  0  0  0  0  0  0  0  0  0  0
  191.3460  175.5050  144.6760 N   0  0  0  0  0  2  0  0  0  0  0  0
  186.3840  177.2800  142.6740 C   0  0  0  0  0  3  0  0  0  0  0  0
  185.2530  178.5150  147.5180 C   0  0  0  0  0  3  0  0  0  0  0  0
  188.5820  176.3080  142.3750 C   0  0  0  0  0  0  0  0  0  0  0  0
  188.3370  176.1960  141.0020 C   0  0  0  0  0  3  0  0  0  0  0  0
  189.4510  176.5750  146.4130 N   0  0  0  0  0  0  0  0  0  0  0  0
  187.3800  177.5290  146.9420 C   0  0  0  0  0  0  0  0  0  0  0  0
  186.5090  178.0460  147.9020 C   0  0  0  0  0  3  0  0  0  0  0  0
  196.0110  173.5510  145.7630 C   0  0  0  0  0  0  0  0  0  0  0  0
  193.9660  173.1410  144.5460 C   0  0  0  0  0  3  0  0  0  0  0  0
  194.3120  177.1480  145.2560 Cl  0  0  0  0  0  0  0  0  0  0  0  0
  197.1420  173.0890  146.3470 F   0  0  0  0  0  0  0  0  0  0  0  0
  195.1320  172.6630  145.1470 C   0  0  0  0  0  3  0  0  0  0  0  0
  194.5620  175.4090  145.1760 C   0  0  0  0  0  0  0  0  0  0  0  0
  193.6590  174.5110  144.5460 C   0  0  0  0  0  0  0  0  0  0  0  0
  195.7260  174.9160  145.7750 C   0  0  0  0  0  3  0  0  0  0  0  0
  1 17  1  0  0  0  0
  2 15  2  0  0  0  0
  2  3  1  0  0  0  0
  3 22  1  0  0  0  0
  4  5  2  0  0  0  0
  5 30  1  0  0  0  0
  5 16  1  0  0  0  0
  6 18  2  0  0  0  0
  7  2  1  0  0  0  0
  8 20  1  0  0  0  0
  8  1  2  0  0  0  0
  9  3  2  0  0  0  0
  9  6  1  0  0  0  0
 10 16  1  0  0  0  0
 10 15  1  0  0  0  0
 11  1  1  0  0  0  0
 13  6  1  0  0  0  0
 14 10  2  0  0  0  0
 15 21  1  0  0  0  0
 17  7  2  0  0  0  0
 18 23  1  0  0  0  0
 19 14  1  0  0  0  0
 19  7  1  0  0  0  0
 20 19  2  0  0  0  0
 21 12  2  0  0  0  0
 22 12  1  0  0  0  0
 22 23  2  0  0  0  0
 24 31  1  0  0  0  0
 24 27  1  0  0  0  0
 25 28  1  0  0  0  0
 28 24  2  0  0  0  0
 29 26  1  0  0  0  0
 29 31  2  0  0  0  0
 30 25  2  0  0  0  0
 30 29  1  0  0  0  0
M  END
>  <MODEL>
5

>  <REMARK>
 VINA RESULT:      -8.7      2.475      4.403
  Name = 
  1 active torsions:
  status: ('A' for Active; 'I' for Inactive)
    1  A    between atoms: C_5  and  C_30
                            x       y       z     vdW  Elec       q    Type
                         _______ _______ _______ _____ _____    ______ ____

>  <TORSDO>
F 1

$$$$
=
 OpenBabel11112416593D

 31 35  0  0  0  0  0  0  0  0999 V2000
  195.0890  175.1150  145.5030 C   0  0  0  0  0  0  0  0  0  0  0  0
  192.0800  174.7900  143.2770 C   0  0  0  0  0  0  0  0  0  0  0  0
  192.4630  173.9550  142.1950 C   0  0  0  0  0  0  0  0  0  0  0  0
  189.0430  177.8380  146.2940 O   0  0  0  0  0  0  0  0  0  0  0  0
  188.3630  177.4520  145.3050 C   0  0  0  0  0  0  0  0  0  0  0  0
  194.0860  172.6290  141.0560 C   0  0  0  0  0  0  0  0  0  0  0  0
  192.9420  175.1600  144.3470 C   0  0  0  0  0  0  0  0  0  0  0  0
  194.5800  175.9440  146.5040 C   0  0  0  0  0  3  0  0  0  0  0  0
  193.7180  173.4290  142.0920 N   0  0  0  0  0  0  0  0  0  0  0  0
  190.3090  176.1100  144.3240 C   0  0  0  0  0  0  0  0  0  0  0  0
  196.3720  174.6860  145.5680 F   0  0  0  0  0  0  0  0  0  0  0  0
  190.2660  174.1660  141.2680 N   0  0  0  0  0  0  0  0  0  0  0  0
  195.7120  171.9870  140.9850 Cl  0  0  0  0  0  0  0  0  0  0  0  0
  191.1590  176.4430  145.3290 N   0  0  0  0  0  0  0  0  0  0  0  0
  190.7510  175.2810  143.2830 C   0  0  0  0  0  0  0  0  0  0  0  0
  188.9600  176.6000  144.3160 N   0  0  0  0  0  2  0  0  0  0  0  0
  194.2770  174.7280  144.4360 C   0  0  0  0  0  3  0  0  0  0  0  0
  193.1710  172.3190  140.0500 C   0  0  0  0  0  3  0  0  0  0  0  0
  192.4390  176.0010  145.3710 C   0  0  0  0  0  0  0  0  0  0  0  0
  193.2590  176.3850  146.4370 C   0  0  0  0  0  3  0  0  0  0  0  0
  189.8960  174.9490  142.2780 N   0  0  0  0  0  0  0  0  0  0  0  0
  191.5190  173.6570  141.1920 C   0  0  0  0  0  0  0  0  0  0  0  0
  191.8790  172.8380  140.1220 C   0  0  0  0  0  3  0  0  0  0  0  0
  184.2990  178.7230  144.6970 C   0  0  0  0  0  0  0  0  0  0  0  0
  186.5930  178.5430  143.9650 C   0  0  0  0  0  3  0  0  0  0  0  0
  186.2290  176.7960  147.6380 Cl  0  0  0  0  0  0  0  0  0  0  0  0
  183.0270  179.1330  144.4810 F   0  0  0  0  0  0  0  0  0  0  0  0
  185.2820  178.9660  143.7400 C   0  0  0  0  0  3  0  0  0  0  0  0
  185.9380  177.6250  146.1140 C   0  0  0  0  0  0  0  0  0  0  0  0
  186.9470  177.8690  145.1450 C   0  0  0  0  0  0  0  0  0  0  0  0
  184.6280  178.0560  145.8770 C   0  0  0  0  0  3  0  0  0  0  0  0
  1 11  1  0  0  0  0
  1  8  1  0  0  0  0
  2 15  1  0  0  0  0
  2  7  1  0  0  0  0
  3  2  2  0  0  0  0
  5  4  2  0  0  0  0
  6  9  2  0  0  0  0
  7 17  1  0  0  0  0
  7 19  2  0  0  0  0
  9  3  1  0  0  0  0
 10 14  2  0  0  0  0
 12 21  1  0  0  0  0
 13  6  1  0  0  0  0
 14 19  1  0  0  0  0
 15 10  1  0  0  0  0
 16 10  1  0  0  0  0
 16  5  1  0  0  0  0
 17  1  2  0  0  0  0
 18 23  2  0  0  0  0
 18  6  1  0  0  0  0
 19 20  1  0  0  0  0
 20  8  2  0  0  0  0
 21 15  2  0  0  0  0
 22 12  2  0  0  0  0
 22  3  1  0  0  0  0
 23 22  1  0  0  0  0
 24 31  1  0  0  0  0
 25 30  2  0  0  0  0
 27 24  1  0  0  0  0
 28 25  1  0  0  0  0
 28 24  2  0  0  0  0
 29 26  1  0  0  0  0
 30  5  1  0  0  0  0
 30 29  1  0  0  0  0
 31 29  2  0  0  0  0
M  END
>  <MODEL>
6

>  <REMARK>
 VINA RESULT:      -8.7      3.091      8.467
  Name = 
  1 active torsions:
  status: ('A' for Active; 'I' for Inactive)
    1  A    between atoms: C_5  and  C_30
                            x       y       z     vdW  Elec       q    Type
                         _______ _______ _______ _____ _____    ______ ____

>  <TORSDO>
F 1

$$$$
=
 OpenBabel11112416593D

 31 35  0  0  0  0  0  0  0  0999 V2000
  186.4150  178.7750  143.5180 C   0  0  0  0  0  0  0  0  0  0  0  0
  189.0510  176.1000  143.4140 C   0  0  0  0  0  0  0  0  0  0  0  0
  189.7360  176.1560  144.6560 C   0  0  0  0  0  0  0  0  0  0  0  0
  187.7770  174.4970  138.5740 O   0  0  0  0  0  0  0  0  0  0  0  0
  188.7360  173.7910  138.9890 C   0  0  0  0  0  0  0  0  0  0  0  0
  190.0630  177.1100  146.8170 C   0  0  0  0  0  0  0  0  0  0  0  0
  187.9730  176.9560  143.0550 C   0  0  0  0  0  0  0  0  0  0  0  0
  185.8310  178.6100  142.2610 C   0  0  0  0  0  3  0  0  0  0  0  0
  189.4070  177.0560  145.6270 N   0  0  0  0  0  0  0  0  0  0  0  0
  188.8410  175.0160  141.2330 C   0  0  0  0  0  0  0  0  0  0  0  0
  185.9520  179.7320  144.3580 F   0  0  0  0  0  0  0  0  0  0  0  0
  191.1390  174.3480  143.9520 N   0  0  0  0  0  0  0  0  0  0  0  0
  189.5910  178.2910  148.0190 Cl  0  0  0  0  0  0  0  0  0  0  0  0
  187.8150  175.8510  140.9240 N   0  0  0  0  0  0  0  0  0  0  0  0
  189.4760  175.1240  142.4780 C   0  0  0  0  0  0  0  0  0  0  0  0
  189.2820  174.0240  140.2950 N   0  0  0  0  0  2  0  0  0  0  0  0
  187.4750  177.9550  143.9090 C   0  0  0  0  0  3  0  0  0  0  0  0
  191.1110  176.2280  147.0820 C   0  0  0  0  0  3  0  0  0  0  0  0
  187.3700  176.8000  141.7820 C   0  0  0  0  0  0  0  0  0  0  0  0
  186.3080  177.6250  141.3970 C   0  0  0  0  0  3  0  0  0  0  0  0
  190.5030  174.2860  142.7840 N   0  0  0  0  0  0  0  0  0  0  0  0
  190.7910  175.2520  144.8980 C   0  0  0  0  0  0  0  0  0  0  0  0
  191.4740  175.2930  146.1130 C   0  0  0  0  0  3  0  0  0  0  0  0
  190.3720  170.5740  136.6490 C   0  0  0  0  0  0  0  0  0  0  0  0
  189.3160  171.4100  138.6540 C   0  0  0  0  0  3  0  0  0  0  0  0
  189.9210  174.5170  136.0740 Cl  0  0  0  0  0  0  0  0  0  0  0  0
  190.8810  169.5440  135.9330 F   0  0  0  0  0  0  0  0  0  0  0  0
  189.8400  170.3460  137.9170 C   0  0  0  0  0  3  0  0  0  0  0  0
  189.8570  172.9390  136.8470 C   0  0  0  0  0  0  0  0  0  0  0  0
  189.3130  172.7170  138.1400 C   0  0  0  0  0  0  0  0  0  0  0  0
  190.3790  171.8640  136.1190 C   0  0  0  0  0  3  0  0  0  0  0  0
  1 17  1  0  0  0  0
  1 11  1  0  0  0  0
  2  3  1  0  0  0  0
  3 22  2  0  0  0  0
  3  9  1  0  0  0  0
  4  5  2  0  0  0  0
  5 16  1  0  0  0  0
  6 18  1  0  0  0  0
  6 13  1  0  0  0  0
  7  2  1  0  0  0  0
  7 17  2  0  0  0  0
  8  1  2  0  0  0  0
  9  6  2  0  0  0  0
 10 15  1  0  0  0  0
 12 22  1  0  0  0  0
 14 10  2  0  0  0  0
 14 19  1  0  0  0  0
 15 21  1  0  0  0  0
 15  2  2  0  0  0  0
 16 10  1  0  0  0  0
 19  7  1  0  0  0  0
 20 19  2  0  0  0  0
 20  8  1  0  0  0  0
 21 12  2  0  0  0  0
 22 23  1  0  0  0  0
 23 18  2  0  0  0  0
 24 28  1  0  0  0  0
 26 29  1  0  0  0  0
 27 24  1  0  0  0  0
 28 25  2  0  0  0  0
 29 30  2  0  0  0  0
 30 25  1  0  0  0  0
 30  5  1  0  0  0  0
 31 24  2  0  0  0  0
 31 29  1  0  0  0  0
M  END
>  <MODEL>
7

>  <REMARK>
 VINA RESULT:      -8.5      5.131      7.068
  Name = 
  1 active torsions:
  status: ('A' for Active; 'I' for Inactive)
    1  A    between atoms: C_5  and  C_30
                            x       y       z     vdW  Elec       q    Type
                         _______ _______ _______ _____ _____    ______ ____

>  <TORSDO>
F 1

$$$$
=
 OpenBabel11112416593D

 31 35  0  0  0  0  0  0  0  0999 V2000
  194.6010  174.7490  141.8860 C   0  0  0  0  0  0  0  0  0  0  0  0
  190.9200  174.1910  141.3850 C   0  0  0  0  0  0  0  0  0  0  0  0
  190.7920  173.1900  140.3870 C   0  0  0  0  0  0  0  0  0  0  0  0
  189.5010  177.7590  144.9720 O   0  0  0  0  0  0  0  0  0  0  0  0
  188.4570  177.2500  144.4810 C   0  0  0  0  0  0  0  0  0  0  0  0
  191.7570  171.6540  138.8370 C   0  0  0  0  0  0  0  0  0  0  0  0
  192.1630  174.6900  141.8650 C   0  0  0  0  0  0  0  0  0  0  0  0
  194.5800  175.7360  142.8720 C   0  0  0  0  0  3  0  0  0  0  0  0
  191.8770  172.6130  139.7940 N   0  0  0  0  0  0  0  0  0  0  0  0
  189.7810  175.7120  142.9230 C   0  0  0  0  0  0  0  0  0  0  0  0
  195.7850  174.2930  141.4110 F   0  0  0  0  0  0  0  0  0  0  0  0
  188.4090  173.3300  140.5640 N   0  0  0  0  0  0  0  0  0  0  0  0
  193.1900  170.9560  138.1170 Cl  0  0  0  0  0  0  0  0  0  0  0  0
  190.9850  176.1650  143.3570 N   0  0  0  0  0  0  0  0  0  0  0  0
  189.7250  174.7210  141.9330 C   0  0  0  0  0  0  0  0  0  0  0  0
  188.5630  176.2390  143.4690 N   0  0  0  0  0  2  0  0  0  0  0  0
  193.4040  174.2320  141.3880 C   0  0  0  0  0  3  0  0  0  0  0  0
  190.4930  171.2250  138.4290 C   0  0  0  0  0  3  0  0  0  0  0  0
  192.1570  175.6920  142.8660 C   0  0  0  0  0  0  0  0  0  0  0  0
  193.3600  176.2050  143.3610 C   0  0  0  0  0  3  0  0  0  0  0  0
  188.5170  174.2690  141.5010 N   0  0  0  0  0  0  0  0  0  0  0  0
  189.5040  172.7750  139.9930 C   0  0  0  0  0  0  0  0  0  0  0  0
  189.3610  171.7920  139.0140 C   0  0  0  0  0  3  0  0  0  0  0  0
  184.5490  178.6010  145.6650 C   0  0  0  0  0  0  0  0  0  0  0  0
  186.4050  178.5840  144.1210 C   0  0  0  0  0  3  0  0  0  0  0  0
  187.2660  176.1210  147.2630 Cl  0  0  0  0  0  0  0  0  0  0  0  0
  183.3160  179.0410  146.0140 F   0  0  0  0  0  0  0  0  0  0  0  0
  185.1350  179.0390  144.4790 C   0  0  0  0  0  3  0  0  0  0  0  0
  186.5050  177.2440  146.1430 C   0  0  0  0  0  0  0  0  0  0  0  0
  187.1120  177.6850  144.9360 C   0  0  0  0  0  0  0  0  0  0  0  0
  185.2320  177.7080  146.4900 C   0  0  0  0  0  3  0  0  0  0  0  0
  1  8  1  0  0  0  0
  2  7  1  0  0  0  0
  2 15  1  0  0  0  0
  3  2  2  0  0  0  0
  5 30  1  0  0  0  0
  5  4  2  0  0  0  0
  6  9  2  0  0  0  0
  7 19  2  0  0  0  0
  8 20  2  0  0  0  0
  9  3  1  0  0  0  0
 10 14  2  0  0  0  0
 10 16  1  0  0  0  0
 11  1  1  0  0  0  0
 12 21  1  0  0  0  0
 13  6  1  0  0  0  0
 15 10  1  0  0  0  0
 16  5  1  0  0  0  0
 17  7  1  0  0  0  0
 17  1  2  0  0  0  0
 18  6  1  0  0  0  0
 18 23  2  0  0  0  0
 19 14  1  0  0  0  0
 19 20  1  0  0  0  0
 21 15  2  0  0  0  0
 22  3  1  0  0  0  0
 22 12  2  0  0  0  0
 23 22  1  0  0  0  0
 24 27  1  0  0  0  0
 24 31  1  0  0  0  0
 25 28  1  0  0  0  0
 25 30  2  0  0  0  0
 28 24  2  0  0  0  0
 29 31  2  0  0  0  0
 29 26  1  0  0  0  0
 30 29  1  0  0  0  0
M  END
>  <MODEL>
8

>  <REMARK>
 VINA RESULT:      -8.5      3.908      8.341
  Name = 
  1 active torsions:
  status: ('A' for Active; 'I' for Inactive)
    1  A    between atoms: C_5  and  C_30
                            x       y       z     vdW  Elec       q    Type
                         _______ _______ _______ _____ _____    ______ ____

>  <TORSDO>
F 1

$$$$
=
 OpenBabel11112416593D

 31 35  0  0  0  0  0  0  0  0999 V2000
  192.2880  170.3480  142.5320 C   0  0  0  0  0  0  0  0  0  0  0  0
  192.3440  173.6990  144.2290 C   0  0  0  0  0  0  0  0  0  0  0  0
  193.6240  173.8290  144.8280 C   0  0  0  0  0  0  0  0  0  0  0  0
  187.4400  174.9320  142.8010 O   0  0  0  0  0  0  0  0  0  0  0  0
  187.9110  175.8880  143.4740 C   0  0  0  0  0  0  0  0  0  0  0  0
  195.8000  172.9780  145.3090 C   0  0  0  0  0  0  0  0  0  0  0  0
  191.9200  172.5630  143.4850 C   0  0  0  0  0  0  0  0  0  0  0  0
  190.9990  170.3520  141.9970 C   0  0  0  0  0  3  0  0  0  0  0  0
  194.5730  172.8530  144.7360 N   0  0  0  0  0  0  0  0  0  0  0  0
  190.1560  174.7090  143.8220 C   0  0  0  0  0  0  0  0  0  0  0  0
  193.0980  169.2800  142.3360 F   0  0  0  0  0  0  0  0  0  0  0  0
  193.0070  175.9910  145.6510 N   0  0  0  0  0  0  0  0  0  0  0  0
  196.9700  171.6870  145.1520 Cl  0  0  0  0  0  0  0  0  0  0  0  0
  189.7860  173.6090  143.1180 N   0  0  0  0  0  0  0  0  0  0  0  0
  191.4360  174.7750  144.3890 C   0  0  0  0  0  0  0  0  0  0  0  0
  189.2480  175.8070  143.9920 N   0  0  0  0  0  2  0  0  0  0  0  0
  192.7430  171.4430  143.2680 C   0  0  0  0  0  3  0  0  0  0  0  0
  196.1270  174.1320  146.0220 C   0  0  0  0  0  3  0  0  0  0  0  0
  190.6150  172.5520  142.9360 C   0  0  0  0  0  0  0  0  0  0  0  0
  190.1660  171.4520  142.1980 C   0  0  0  0  0  3  0  0  0  0  0  0
  191.8040  175.8790  145.0930 N   0  0  0  0  0  0  0  0  0  0  0  0
  193.9290  175.0060  145.5430 C   0  0  0  0  0  0  0  0  0  0  0  0
  195.1830  175.1510  146.1370 C   0  0  0  0  0  3  0  0  0  0  0  0
  185.5590  179.4350  144.0940 C   0  0  0  0  0  0  0  0  0  0  0  0
  186.7110  177.8850  142.6450 C   0  0  0  0  0  3  0  0  0  0  0  0
  187.1100  176.6360  146.5120 Cl  0  0  0  0  0  0  0  0  0  0  0  0
  184.8180  180.5560  144.2630 F   0  0  0  0  0  0  0  0  0  0  0  0
  185.9470  179.0410  142.8160 C   0  0  0  0  0  3  0  0  0  0  0  0
  186.6990  177.5120  145.0430 C   0  0  0  0  0  0  0  0  0  0  0  0
  187.1000  177.1030  143.7440 C   0  0  0  0  0  0  0  0  0  0  0  0
  185.9340  178.6730  145.2000 C   0  0  0  0  0  3  0  0  0  0  0  0
  1 17  1  0  0  0  0
  2 15  2  0  0  0  0
  2  3  1  0  0  0  0
  3 22  1  0  0  0  0
  4  5  2  0  0  0  0
  5 30  1  0  0  0  0
  5 16  1  0  0  0  0
  6 18  2  0  0  0  0
  7  2  1  0  0  0  0
  8 20  1  0  0  0  0
  8  1  2  0  0  0  0
  9  3  2  0  0  0  0
  9  6  1  0  0  0  0
 10 16  1  0  0  0  0
 10 15  1  0  0  0  0
 11  1  1  0  0  0  0
 13  6  1  0  0  0  0
 14 10  2  0  0  0  0
 15 21  1  0  0  0  0
 17  7  2  0  0  0  0
 18 23  1  0  0  0  0
 19 14  1  0  0  0  0
 19  7  1  0  0  0  0
 20 19  2  0  0  0  0
 21 12  2  0  0  0  0
 22 12  1  0  0  0  0
 22 23  2  0  0  0  0
 24 27  1  0  0  0  0
 24 31  1  0  0  0  0
 25 28  1  0  0  0  0
 25 30  2  0  0  0  0
 28 24  2  0  0  0  0
 29 31  2  0  0  0  0
 29 26  1  0  0  0  0
 30 29  1  0  0  0  0
M  END
>  <MODEL>
9

>  <REMARK>
 VINA RESULT:      -8.5      3.959      9.288
  Name = 
  1 active torsions:
  status: ('A' for Active; 'I' for Inactive)
    1  A    between atoms: C_5  and  C_30
                            x       y       z     vdW  Elec       q    Type
                         _______ _______ _______ _____ _____    ______ ____

>  <TORSDO>
F 1

$$$$
