=
 OpenBabel11112417233D

 37 42  0  0  1  0  0  0  0  0999 V2000
  189.3070  172.8240  139.2320 C   0  0  0  0  0  0  0  0  0  0  0  0
  188.2350  176.1330  141.4780 C   0  0  0  0  0  0  0  0  0  0  0  0
  188.4140  175.7740  145.2530 O   0  0  0  0  0  0  0  0  0  0  0  0
  187.9120  174.9620  139.3670 C   0  0  0  0  0  0  0  0  0  0  0  0
  188.8420  175.9030  142.8260 C   0  0  1  0  0  3  0  0  0  0  0  0
  188.4230  175.0820  140.7270 C   0  0  0  0  0  0  0  0  0  0  0  0
  187.8600  176.1250  143.9940 C   0  0  2  0  0  3  0  0  0  0  0  0
  187.1100  175.9240  138.8890 C   0  0  0  0  0  3  0  0  0  0  0  0
  189.1420  174.0590  141.3630 N   0  0  0  0  0  0  0  0  0  0  0  0
  190.6540  173.3980  138.8330 C   0  0  0  0  0  1  0  0  0  0  0  0
  187.1410  178.3650  141.9290 C   0  0  0  0  0  2  0  0  0  0  0  0
  186.6850  177.0970  139.7620 C   0  0  0  0  0  2  0  0  0  0  0  0
  189.2200  172.7280  140.7750 C   0  0  0  0  0  2  0  0  0  0  0  0
  190.7700  175.3550  145.6270 C   0  0  1  0  0  3  0  0  0  0  0  0
  189.6710  176.3930  145.3900 C   0  0  0  0  0  2  0  0  0  0  0  0
  187.7030  177.4080  140.8800 C   0  0  2  0  0  3  0  0  0  0  0  0
  189.2570  174.4180  142.7700 C   0  0  1  0  0  3  0  0  0  0  0  0
  188.1790  173.6860  138.6140 C   0  0  0  0  0  2  0  0  0  0  0  0
  187.2180  177.5280  143.9950 C   0  0  1  0  0  3  0  0  0  0  0  0
  189.2020  171.4250  138.6630 C   0  0  0  0  0  1  0  0  0  0  0  0
  190.6640  174.0600  144.8000 C   0  0  0  0  0  2  0  0  0  0  0  0
  190.6790  174.2550  143.2830 C   0  0  0  0  0  2  0  0  0  0  0  0
  186.3780  177.6780  142.8810 O   0  0  0  0  0  0  0  0  0  0  0  0
  185.1060  177.3570  145.3230 C   0  0  0  0  0  3  0  0  0  0  0  0
  186.4360  177.7850  145.2470 C   0  0  0  0  0  0  0  0  0  0  0  0
  187.0120  178.4580  146.3330 C   0  0  0  0  0  3  0  0  0  0  0  0
  186.8770  179.4030  148.6420 C   0  0  0  0  0  1  0  0  0  0  0  0
  184.9350  178.2640  147.5620 C   0  0  0  0  0  3  0  0  0  0  0  0
  186.2620  178.6950  147.4890 C   0  0  0  0  0  0  0  0  0  0  0  0
  184.3560  177.5950  146.4780 C   0  0  0  0  0  3  0  0  0  0  0  0
  194.9020  176.8170  145.4610 O   0  0  0  0  0  0  0  0  0  0  0  0
  194.6270  175.6610  145.8760 C   0  0  0  0  0  0  0  0  0  0  0  0
  192.1250  175.9740  145.5360 C   0  0  0  0  0  0  0  0  0  0  0  0
  193.2700  175.2000  145.9060 N   0  0  0  0  0  2  0  0  0  0  0  0
  192.2510  177.1680  145.1460 O   0  0  0  0  0  0  0  0  0  0  0  0
  196.5600  174.2180  145.4000 C   0  0  0  0  0  1  0  0  0  0  0  0
  195.6640  174.8360  146.3110 O   0  0  0  0  0  0  0  0  0  0  0  0
  1 13  1  0  0  0  0
  3 15  1  0  0  0  0
  4  6  1  0  0  0  0
  5  2  1  6  0  0  0
  5  7  1  0  0  0  0
  6  9  1  0  0  0  0
  6  2  2  0  0  0  0
  7 19  1  0  0  0  0
  7  3  1  1  0  0  0
  8  4  2  0  0  0  0
  8 12  1  0  0  0  0
  9 17  1  0  0  0  0
 10  1  1  0  0  0  0
 11 23  1  0  0  0  0
 13  9  1  0  0  0  0
 14 33  1  6  0  0  0
 15 14  1  0  0  0  0
 16 12  1  6  0  0  0
 16  2  1  0  0  0  0
 16 11  1  0  0  0  0
 17  5  1  0  0  0  0
 17 22  1  6  0  0  0
 18  1  1  0  0  0  0
 18  4  1  0  0  0  0
 19 25  1  1  0  0  0
 20  1  1  0  0  0  0
 21 14  1  0  0  0  0
 22 21  1  0  0  0  0
 23 19  1  0  0  0  0
 24 30  1  0  0  0  0
 25 24  2  0  0  0  0
 25 26  1  0  0  0  0
 26 29  2  0  0  0  0
 29 28  1  0  0  0  0
 29 27  1  0  0  0  0
 30 28  2  0  0  0  0
 31 32  2  0  0  0  0
 32 34  1  0  0  0  0
 32 37  1  0  0  0  0
 33 34  1  0  0  0  0
 35 33  2  0  0  0  0
 36 37  1  0  0  0  0
M  END
>  <MODEL>
1

>  <REMARK>
 VINA RESULT:      -8.6      0.000      0.000
  Name = 
  3 active torsions:
  status: ('A' for Active; 'I' for Inactive)
    1  A    between atoms: C_4  and  O_37
    2  A    between atoms: C_8  and  C_18
    3  A    between atoms: C_23  and  C_30
                            x       y       z     vdW  Elec       q    Type
                         _______ _______ _______ _____ _____    ______ ____

>  <TORSDO>
F 3

$$$$
=
 OpenBabel11112417233D

 37 42  0  0  1  0  0  0  0  0999 V2000
  196.1210  176.1450  143.2880 C   0  0  0  0  0  0  0  0  0  0  0  0
  192.4410  175.7900  145.1520 C   0  0  0  0  0  0  0  0  0  0  0  0
  189.3970  175.5200  142.9000 O   0  0  0  0  0  0  0  0  0  0  0  0
  194.7100  176.6500  145.3590 C   0  0  0  0  0  0  0  0  0  0  0  0
  191.5280  175.2260  144.1100 C   0  0  1  0  0  3  0  0  0  0  0  0
  193.6060  176.0470  144.6230 C   0  0  0  0  0  0  0  0  0  0  0  0
  190.1920  175.9850  143.9810 C   0  0  2  0  0  3  0  0  0  0  0  0
  194.4990  177.0730  146.6140 C   0  0  0  0  0  3  0  0  0  0  0  0
  193.6900  175.7130  143.2630 N   0  0  0  0  0  0  0  0  0  0  0  0
  196.5230  174.7080  143.5710 C   0  0  0  0  0  1  0  0  0  0  0  0
  190.7870  175.9630  147.0540 C   0  0  0  0  0  2  0  0  0  0  0  0
  193.1170  176.9850  147.2480 C   0  0  0  0  0  2  0  0  0  0  0  0
  194.8170  176.1630  142.4550 C   0  0  0  0  0  2  0  0  0  0  0  0
  189.8200  173.4610  141.6950 C   0  0  1  0  0  3  0  0  0  0  0  0
  189.2960  174.1180  142.9750 C   0  0  0  0  0  2  0  0  0  0  0  0
  192.2550  175.8560  146.6440 C   0  0  2  0  0  3  0  0  0  0  0  0
  192.3450  175.3870  142.8110 C   0  0  1  0  0  3  0  0  0  0  0  0
  195.9980  176.9150  144.6260 C   0  0  0  0  0  2  0  0  0  0  0  0
  189.4060  176.0680  145.3060 C   0  0  1  0  0  3  0  0  0  0  0  0
  197.2180  176.7880  142.4680 C   0  0  0  0  0  1  0  0  0  0  0  0
  191.0910  174.0840  141.0900 C   0  0  0  0  0  2  0  0  0  0  0  0
  192.3120  174.0940  142.0120 C   0  0  0  0  0  2  0  0  0  0  0  0
  190.0990  176.8630  146.2320 O   0  0  0  0  0  0  0  0  0  0  0  0
  187.0080  176.2620  145.9930 C   0  0  0  0  0  3  0  0  0  0  0  0
  188.0280  176.6230  145.1060 C   0  0  0  0  0  0  0  0  0  0  0  0
  187.7450  177.4850  144.0360 C   0  0  0  0  0  3  0  0  0  0  0  0
  186.1550  178.9030  142.7320 C   0  0  0  0  0  1  0  0  0  0  0  0
  185.4360  177.6230  144.7520 C   0  0  0  0  0  3  0  0  0  0  0  0
  186.4510  177.9840  143.8620 C   0  0  0  0  0  0  0  0  0  0  0  0
  185.7150  176.7610  145.8170 C   0  0  0  0  0  3  0  0  0  0  0  0
  190.3780  169.1130  141.8320 O   0  0  0  0  0  0  0  0  0  0  0  0
  190.7480  169.7950  140.8410 C   0  0  0  0  0  0  0  0  0  0  0  0
  189.9380  171.9820  141.8580 C   0  0  0  0  0  0  0  0  0  0  0  0
  190.5700  171.2180  140.8260 N   0  0  0  0  0  2  0  0  0  0  0  0
  189.4760  171.4190  142.8890 O   0  0  0  0  0  0  0  0  0  0  0  0
  190.5600  168.6730  138.6610 C   0  0  0  0  0  1  0  0  0  0  0  0
  191.3330  169.1450  139.7550 O   0  0  0  0  0  0  0  0  0  0  0  0
  1 10  1  0  0  0  0
  1 18  1  0  0  0  0
  2 16  1  0  0  0  0
  3 15  1  0  0  0  0
  4  8  2  0  0  0  0
  5  2  1  1  0  0  0
  6  2  2  0  0  0  0
  6  4  1  0  0  0  0
  7  3  1  6  0  0  0
  7  5  1  0  0  0  0
  7 19  1  0  0  0  0
  8 12  1  0  0  0  0
  9  6  1  0  0  0  0
 13  9  1  0  0  0  0
 13  1  1  0  0  0  0
 14 33  1  1  0  0  0
 14 15  1  0  0  0  0
 16 11  1  6  0  0  0
 16 12  1  0  0  0  0
 17 22  1  1  0  0  0
 17  9  1  0  0  0  0
 17  5  1  0  0  0  0
 18  4  1  0  0  0  0
 19 25  1  6  0  0  0
 19 23  1  0  0  0  0
 20  1  1  0  0  0  0
 21 14  1  0  0  0  0
 21 22  1  0  0  0  0
 23 11  1  0  0  0  0
 25 24  2  0  0  0  0
 26 25  1  0  0  0  0
 27 29  1  0  0  0  0
 28 30  2  0  0  0  0
 29 26  2  0  0  0  0
 29 28  1  0  0  0  0
 30 24  1  0  0  0  0
 32 31  2  0  0  0  0
 33 35  2  0  0  0  0
 34 32  1  0  0  0  0
 34 33  1  0  0  0  0
 36 37  1  0  0  0  0
 37 32  1  0  0  0  0
M  END
>  <MODEL>
2

>  <REMARK>
 VINA RESULT:      -8.1      2.889      6.556
  Name = 
  3 active torsions:
  status: ('A' for Active; 'I' for Inactive)
    1  A    between atoms: C_4  and  O_37
    2  A    between atoms: C_8  and  C_18
    3  A    between atoms: C_23  and  C_30
                            x       y       z     vdW  Elec       q    Type
                         _______ _______ _______ _____ _____    ______ ____

>  <TORSDO>
F 3

$$$$
=
 OpenBabel11112417233D

 37 42  0  0  1  0  0  0  0  0999 V2000
  189.0800  176.6580  146.0750 C   0  0  0  0  0  0  0  0  0  0  0  0
  192.5410  174.6240  145.0590 C   0  0  0  0  0  0  0  0  0  0  0  0
  192.1460  171.0130  143.9570 O   0  0  0  0  0  0  0  0  0  0  0  0
  191.6030  176.4200  146.4100 C   0  0  0  0  0  0  0  0  0  0  0  0
  192.0830  173.4640  144.2320 C   0  0  1  0  0  3  0  0  0  0  0  0
  191.5050  175.2660  145.5250 C   0  0  0  0  0  0  0  0  0  0  0  0
  192.6920  172.1150  144.6650 C   0  0  2  0  0  3  0  0  0  0  0  0
  192.8100  176.7830  146.8700 C   0  0  0  0  0  3  0  0  0  0  0  0
  190.2780  174.7220  145.1180 N   0  0  0  0  0  0  0  0  0  0  0  0
  189.0480  177.4620  144.7870 C   0  0  0  0  0  1  0  0  0  0  0  0
  195.0260  174.1730  145.0050 C   0  0  0  0  0  2  0  0  0  0  0  0
  194.0550  175.9760  146.5280 C   0  0  0  0  0  2  0  0  0  0  0  0
  189.0310  175.1470  145.7430 C   0  0  0  0  0  2  0  0  0  0  0  0
  190.7940  171.2210  141.9570 C   0  0  1  0  0  3  0  0  0  0  0  0
  192.1930  171.2850  142.5760 C   0  0  0  0  0  2  0  0  0  0  0  0
  193.9200  175.2100  145.1940 C   0  0  2  0  0  3  0  0  0  0  0  0
  190.5590  173.4480  144.4700 C   0  0  1  0  0  3  0  0  0  0  0  0
  190.3300  177.0580  146.8970 C   0  0  0  0  0  2  0  0  0  0  0  0
  194.2350  172.1140  144.6720 C   0  0  1  0  0  3  0  0  0  0  0  0
  187.8480  177.0080  146.8810 C   0  0  0  0  0  1  0  0  0  0  0  0
  189.6570  171.8300  142.7980 C   0  0  0  0  0  2  0  0  0  0  0  0
  189.8260  173.3100  143.1450 C   0  0  0  0  0  2  0  0  0  0  0  0
  194.7150  172.9790  145.6670 O   0  0  0  0  0  0  0  0  0  0  0  0
  195.4080  170.0720  143.8300 C   0  0  0  0  0  3  0  0  0  0  0  0
  194.7920  170.7410  144.8930 C   0  0  0  0  0  0  0  0  0  0  0  0
  194.6920  170.1140  146.1440 C   0  0  0  0  0  3  0  0  0  0  0  0
  195.1110  168.1690  147.6540 C   0  0  0  0  0  1  0  0  0  0  0  0
  195.8280  168.1660  145.2620 C   0  0  0  0  0  3  0  0  0  0  0  0
  195.2110  168.8290  146.3270 C   0  0  0  0  0  0  0  0  0  0  0  0
  195.9260  168.7870  144.0130 C   0  0  0  0  0  3  0  0  0  0  0  0
  190.4310  172.8470  137.9000 O   0  0  0  0  0  0  0  0  0  0  0  0
  189.4370  172.7610  138.6670 C   0  0  0  0  0  0  0  0  0  0  0  0
  190.8010  171.7380  140.5570 C   0  0  0  0  0  0  0  0  0  0  0  0
  189.5840  172.2410  139.9960 N   0  0  0  0  0  2  0  0  0  0  0  0
  191.8660  171.7210  139.8800 O   0  0  0  0  0  0  0  0  0  0  0  0
  187.9040  174.5420  137.9450 C   0  0  0  0  0  1  0  0  0  0  0  0
  188.1890  173.1760  138.2050 O   0  0  0  0  0  0  0  0  0  0  0  0
  1 20  1  0  0  0  0
  1 18  1  0  0  0  0
  2 16  1  0  0  0  0
  2  6  2  0  0  0  0
  4  8  2  0  0  0  0
  4 18  1  0  0  0  0
  5 17  1  0  0  0  0
  5  7  1  0  0  0  0
  5  2  1  1  0  0  0
  6  4  1  0  0  0  0
  7  3  1  6  0  0  0
  7 19  1  0  0  0  0
  9  6  1  0  0  0  0
  9 13  1  0  0  0  0
 10  1  1  0  0  0  0
 11 23  1  0  0  0  0
 12  8  1  0  0  0  0
 13  1  1  0  0  0  0
 14 33  1  6  0  0  0
 14 15  1  0  0  0  0
 14 21  1  0  0  0  0
 15  3  1  0  0  0  0
 16 11  1  1  0  0  0
 16 12  1  0  0  0  0
 17 22  1  6  0  0  0
 17  9  1  0  0  0  0
 19 25  1  1  0  0  0
 19 23  1  0  0  0  0
 21 22  1  0  0  0  0
 24 30  2  0  0  0  0
 24 25  1  0  0  0  0
 25 26  2  0  0  0  0
 26 29  1  0  0  0  0
 28 29  2  0  0  0  0
 29 27  1  0  0  0  0
 30 28  1  0  0  0  0
 31 32  2  0  0  0  0
 32 34  1  0  0  0  0
 34 33  1  0  0  0  0
 35 33  2  0  0  0  0
 36 37  1  0  0  0  0
 37 32  1  0  0  0  0
M  END
>  <MODEL>
3

>  <REMARK>
 VINA RESULT:      -8.0      3.658      9.024
  Name = 
  3 active torsions:
  status: ('A' for Active; 'I' for Inactive)
    1  A    between atoms: C_4  and  O_37
    2  A    between atoms: C_8  and  C_18
    3  A    between atoms: C_23  and  C_30
                            x       y       z     vdW  Elec       q    Type
                         _______ _______ _______ _____ _____    ______ ____

>  <TORSDO>
F 3

$$$$
=
 OpenBabel11112417233D

 37 42  0  0  1  0  0  0  0  0999 V2000
  188.9850  176.7180  146.0900 C   0  0  0  0  0  0  0  0  0  0  0  0
  192.4230  174.6580  145.0520 C   0  0  0  0  0  0  0  0  0  0  0  0
  191.9910  171.0600  143.9220 O   0  0  0  0  0  0  0  0  0  0  0  0
  191.5070  176.4520  146.4190 C   0  0  0  0  0  0  0  0  0  0  0  0
  191.9530  173.5090  144.2160 C   0  0  1  0  0  3  0  0  0  0  0  0
  191.3950  175.3060  145.5250 C   0  0  0  0  0  0  0  0  0  0  0  0
  192.5490  172.1510  144.6380 C   0  0  2  0  0  3  0  0  0  0  0  0
  192.7170  176.8000  146.8790 C   0  0  0  0  0  3  0  0  0  0  0  0
  190.1620  174.7790  145.1160 N   0  0  0  0  0  0  0  0  0  0  0  0
  188.9590  177.5330  144.8090 C   0  0  0  0  0  1  0  0  0  0  0  0
  194.9040  174.1820  144.9900 C   0  0  0  0  0  2  0  0  0  0  0  0
  193.9540  175.9830  146.5280 C   0  0  0  0  0  2  0  0  0  0  0  0
  188.9210  175.2110  145.7460 C   0  0  0  0  0  2  0  0  0  0  0  0
  190.6370  171.2980  141.9270 C   0  0  1  0  0  3  0  0  0  0  0  0
  192.0380  171.3420  142.5430 C   0  0  0  0  0  2  0  0  0  0  0  0
  193.8090  175.2290  145.1890 C   0  0  2  0  0  3  0  0  0  0  0  0
  190.4290  173.5070  144.4570 C   0  0  1  0  0  3  0  0  0  0  0  0
  190.2410  177.0990  146.9130 C   0  0  0  0  0  2  0  0  0  0  0  0
  194.0920  172.1350  144.6420 C   0  0  1  0  0  3  0  0  0  0  0  0
  187.7590  177.0750  146.9010 C   0  0  0  0  0  1  0  0  0  0  0  0
  189.5080  171.9110  142.7740 C   0  0  0  0  0  2  0  0  0  0  0  0
  189.6930  173.3870  143.1330 C   0  0  0  0  0  2  0  0  0  0  0  0
  194.5820  172.9870  145.6430 O   0  0  0  0  0  0  0  0  0  0  0  0
  195.2260  170.0800  143.7770 C   0  0  0  0  0  3  0  0  0  0  0  0
  194.6360  170.7550  144.8510 C   0  0  0  0  0  0  0  0  0  0  0  0
  194.5490  170.1260  146.1020 C   0  0  0  0  0  3  0  0  0  0  0  0
  194.9690  168.1730  147.6020 C   0  0  0  0  0  1  0  0  0  0  0  0
  195.6460  168.1660  145.1980 C   0  0  0  0  0  3  0  0  0  0  0  0
  195.0550  168.8340  146.2740 C   0  0  0  0  0  0  0  0  0  0  0  0
  195.7300  168.7890  143.9490 C   0  0  0  0  0  3  0  0  0  0  0  0
  191.0230  173.0110  137.9080 O   0  0  0  0  0  0  0  0  0  0  0  0
  191.8560  173.2660  138.8160 C   0  0  0  0  0  0  0  0  0  0  0  0
  190.6470  171.8260  140.5300 C   0  0  0  0  0  0  0  0  0  0  0  0
  191.7180  172.6810  140.1180 N   0  0  0  0  0  2  0  0  0  0  0  0
  189.7150  171.5260  139.7330 O   0  0  0  0  0  0  0  0  0  0  0  0
  193.7850  174.5970  139.5580 C   0  0  0  0  0  1  0  0  0  0  0  0
  192.9150  174.1290  138.5390 O   0  0  0  0  0  0  0  0  0  0  0  0
  1 20  1  0  0  0  0
  1 18  1  0  0  0  0
  2 16  1  0  0  0  0
  2  6  2  0  0  0  0
  4  8  2  0  0  0  0
  4 18  1  0  0  0  0
  5 17  1  0  0  0  0
  5  7  1  0  0  0  0
  5  2  1  1  0  0  0
  6  4  1  0  0  0  0
  7  3  1  6  0  0  0
  7 19  1  0  0  0  0
  9  6  1  0  0  0  0
  9 13  1  0  0  0  0
 10  1  1  0  0  0  0
 11 23  1  0  0  0  0
 12  8  1  0  0  0  0
 13  1  1  0  0  0  0
 14 33  1  6  0  0  0
 14 15  1  0  0  0  0
 14 21  1  0  0  0  0
 15  3  1  0  0  0  0
 16 11  1  1  0  0  0
 16 12  1  0  0  0  0
 17 22  1  6  0  0  0
 17  9  1  0  0  0  0
 19 25  1  1  0  0  0
 19 23  1  0  0  0  0
 21 22  1  0  0  0  0
 24 30  2  0  0  0  0
 24 25  1  0  0  0  0
 25 26  2  0  0  0  0
 26 29  1  0  0  0  0
 28 29  2  0  0  0  0
 29 27  1  0  0  0  0
 30 28  1  0  0  0  0
 31 32  2  0  0  0  0
 32 34  1  0  0  0  0
 34 33  1  0  0  0  0
 35 33  2  0  0  0  0
 37 32  1  0  0  0  0
 37 36  1  0  0  0  0
M  END
>  <MODEL>
4

>  <REMARK>
 VINA RESULT:      -7.9      3.741      8.693
  Name = 
  3 active torsions:
  status: ('A' for Active; 'I' for Inactive)
    1  A    between atoms: C_4  and  O_37
    2  A    between atoms: C_8  and  C_18
    3  A    between atoms: C_23  and  C_30
                            x       y       z     vdW  Elec       q    Type
                         _______ _______ _______ _____ _____    ______ ____

>  <TORSDO>
F 3

$$$$
=
 OpenBabel11112417233D

 37 42  0  0  1  0  0  0  0  0999 V2000
  196.7720  169.1120  145.8930 C   0  0  0  0  0  0  0  0  0  0  0  0
  193.5020  171.2100  144.4600 C   0  0  0  0  0  0  0  0  0  0  0  0
  193.1210  174.8010  145.6310 O   0  0  0  0  0  0  0  0  0  0  0  0
  194.3740  169.0040  145.0130 C   0  0  0  0  0  0  0  0  0  0  0  0
  193.8460  172.6520  144.6570 C   0  0  1  0  0  3  0  0  0  0  0  0
  194.4300  170.4610  144.9900 C   0  0  0  0  0  0  0  0  0  0  0  0
  192.7270  173.4700  145.3320 C   0  0  2  0  0  3  0  0  0  0  0  0
  193.2650  168.3910  144.5730 C   0  0  0  0  0  3  0  0  0  0  0  0
  195.4800  171.1910  145.5650 N   0  0  0  0  0  0  0  0  0  0  0  0
  197.5400  169.2090  144.5870 C   0  0  0  0  0  1  0  0  0  0  0  0
  191.2170  171.5030  143.4220 C   0  0  0  0  0  2  0  0  0  0  0  0
  192.0560  169.1930  144.1110 C   0  0  0  0  0  2  0  0  0  0  0  0
  196.4620  170.5350  146.4190 C   0  0  0  0  0  2  0  0  0  0  0  0
  195.1200  175.8510  144.7520 C   0  0  1  0  0  3  0  0  0  0  0  0
  193.6880  175.3810  144.4800 C   0  0  0  0  0  2  0  0  0  0  0  0
  192.4350  170.5970  143.5920 C   0  0  2  0  0  3  0  0  0  0  0  0
  195.0780  172.5910  145.5850 C   0  0  1  0  0  3  0  0  0  0  0  0
  195.4990  168.2560  145.6760 C   0  0  0  0  0  2  0  0  0  0  0  0
  191.3810  173.4020  144.5800 C   0  0  1  0  0  3  0  0  0  0  0  0
  197.6500  168.4110  146.9060 C   0  0  0  0  0  1  0  0  0  0  0  0
  195.9830  174.9160  145.6170 C   0  0  0  0  0  2  0  0  0  0  0  0
  196.1720  173.5040  145.0580 C   0  0  0  0  0  2  0  0  0  0  0  0
  190.8600  172.1000  144.6370 O   0  0  0  0  0  0  0  0  0  0  0  0
  189.8840  174.1650  146.4320 C   0  0  0  0  0  3  0  0  0  0  0  0
  190.3790  174.3650  145.1390 C   0  0  0  0  0  0  0  0  0  0  0  0
  189.9200  175.4510  144.3800 C   0  0  0  0  0  3  0  0  0  0  0  0
  188.4990  177.4880  144.1140 C   0  0  0  0  0  1  0  0  0  0  0  0
  188.4880  176.1320  146.2100 C   0  0  0  0  0  3  0  0  0  0  0  0
  188.9780  176.3330  144.9170 C   0  0  0  0  0  0  0  0  0  0  0  0
  188.9410  175.0470  146.9680 C   0  0  0  0  0  3  0  0  0  0  0  0
  196.8510  176.8090  140.8370 O   0  0  0  0  0  0  0  0  0  0  0  0
  195.8760  176.0220  140.9530 C   0  0  0  0  0  0  0  0  0  0  0  0
  195.8060  176.2460  143.4870 C   0  0  0  0  0  0  0  0  0  0  0  0
  195.3170  175.7360  142.2420 N   0  0  0  0  0  2  0  0  0  0  0  0
  196.8100  177.0110  143.5220 O   0  0  0  0  0  0  0  0  0  0  0  0
  194.0880  174.7740  139.8160 C   0  0  0  0  0  1  0  0  0  0  0  0
  195.3490  175.4270  139.8070 O   0  0  0  0  0  0  0  0  0  0  0  0
  1 13  1  0  0  0  0
  1 20  1  0  0  0  0
  2  6  2  0  0  0  0
  4 18  1  0  0  0  0
  5  2  1  1  0  0  0
  5  7  1  0  0  0  0
  5 17  1  0  0  0  0
  6  4  1  0  0  0  0
  6  9  1  0  0  0  0
  7  3  1  6  0  0  0
  8  4  2  0  0  0  0
  9 17  1  0  0  0  0
  9 13  1  0  0  0  0
 10  1  1  0  0  0  0
 11 23  1  0  0  0  0
 12  8  1  0  0  0  0
 14 33  1  6  0  0  0
 14 21  1  0  0  0  0
 15 14  1  0  0  0  0
 15  3  1  0  0  0  0
 16 11  1  1  0  0  0
 16 12  1  0  0  0  0
 16  2  1  0  0  0  0
 17 22  1  6  0  0  0
 18  1  1  0  0  0  0
 19 23  1  0  0  0  0
 19 25  1  1  0  0  0
 19  7  1  0  0  0  0
 22 21  1  0  0  0  0
 24 30  1  0  0  0  0
 25 24  2  0  0  0  0
 26 29  2  0  0  0  0
 26 25  1  0  0  0  0
 27 29  1  0  0  0  0
 28 30  2  0  0  0  0
 29 28  1  0  0  0  0
 31 32  2  0  0  0  0
 32 34  1  0  0  0  0
 33 35  2  0  0  0  0
 34 33  1  0  0  0  0
 37 36  1  0  0  0  0
 37 32  1  0  0  0  0
M  END
>  <MODEL>
5

>  <REMARK>
 VINA RESULT:      -7.8      3.741      7.297
  Name = 
  3 active torsions:
  status: ('A' for Active; 'I' for Inactive)
    1  A    between atoms: C_4  and  O_37
    2  A    between atoms: C_8  and  C_18
    3  A    between atoms: C_23  and  C_30
                            x       y       z     vdW  Elec       q    Type
                         _______ _______ _______ _____ _____    ______ ____

>  <TORSDO>
F 3

$$$$
=
 OpenBabel11112417233D

 37 42  0  0  1  0  0  0  0  0999 V2000
  192.0770  170.1920  142.2790 C   0  0  0  0  0  0  0  0  0  0  0  0
  190.2130  173.8790  142.5440 C   0  0  0  0  0  0  0  0  0  0  0  0
  190.0580  175.4800  145.9820 O   0  0  0  0  0  0  0  0  0  0  0  0
  190.3220  171.7800  141.3140 C   0  0  0  0  0  0  0  0  0  0  0  0
  190.7070  174.4760  143.8230 C   0  0  1  0  0  3  0  0  0  0  0  0
  190.6590  172.6590  142.4270 C   0  0  0  0  0  0  0  0  0  0  0  0
  189.5850  175.0400  144.7180 C   0  0  2  0  0  3  0  0  0  0  0  0
  189.4170  172.1920  140.4140 C   0  0  0  0  0  3  0  0  0  0  0  0
  191.4770  172.2560  143.4930 N   0  0  0  0  0  0  0  0  0  0  0  0
  193.3370  170.7550  141.6460 C   0  0  0  0  0  1  0  0  0  0  0  0
  188.7010  175.7640  141.8040 C   0  0  0  0  0  2  0  0  0  0  0  0
  188.7030  173.5270  140.5750 C   0  0  0  0  0  2  0  0  0  0  0  0
  191.8490  170.8570  143.6580 C   0  0  0  0  0  2  0  0  0  0  0  0
  192.4000  175.7930  146.5190 C   0  0  1  0  0  3  0  0  0  0  0  0
  191.1650  176.3280  145.7880 C   0  0  0  0  0  2  0  0  0  0  0  0
  189.5300  174.5510  141.3830 C   0  0  2  0  0  3  0  0  0  0  0  0
  191.3810  173.2790  144.5260 C   0  0  1  0  0  3  0  0  0  0  0  0
  190.8860  170.3840  141.3090 C   0  0  0  0  0  2  0  0  0  0  0  0
  188.7100  176.0950  144.0090 C   0  0  1  0  0  3  0  0  0  0  0  0
  192.2800  168.7080  142.4950 C   0  0  0  0  0  1  0  0  0  0  0  0
  192.6100  174.2690  146.4590 C   0  0  0  0  0  2  0  0  0  0  0  0
  192.7480  173.6860  145.0520 C   0  0  0  0  0  2  0  0  0  0  0  0
  187.9770  175.4990  142.9720 O   0  0  0  0  0  0  0  0  0  0  0  0
  187.5830  176.2350  146.2380 C   0  0  0  0  0  3  0  0  0  0  0  0
  187.7690  176.7710  144.9590 C   0  0  0  0  0  0  0  0  0  0  0  0
  187.0620  177.9210  144.5800 C   0  0  0  0  0  3  0  0  0  0  0  0
  185.4400  179.7550  145.0770 C   0  0  0  0  0  1  0  0  0  0  0  0
  186.0020  177.9940  146.7560 C   0  0  0  0  0  3  0  0  0  0  0  0
  186.1820  178.5320  145.4780 C   0  0  0  0  0  0  0  0  0  0  0  0
  186.7030  176.8450  147.1360 C   0  0  0  0  0  3  0  0  0  0  0  0
  195.9790  177.8310  145.0110 O   0  0  0  0  0  0  0  0  0  0  0  0
  195.4010  176.9340  144.3450 C   0  0  0  0  0  0  0  0  0  0  0  0
  193.6270  176.5480  146.1270 C   0  0  0  0  0  0  0  0  0  0  0  0
  194.2230  176.2920  144.8520 N   0  0  0  0  0  2  0  0  0  0  0  0
  194.1310  177.3920  146.9190 O   0  0  0  0  0  0  0  0  0  0  0  0
  197.1910  175.9330  142.9880 C   0  0  0  0  0  1  0  0  0  0  0  0
  195.9270  176.5680  143.1060 O   0  0  0  0  0  0  0  0  0  0  0  0
  1 20  1  0  0  0  0
  1 13  1  0  0  0  0
  4  6  1  0  0  0  0
  5  2  1  6  0  0  0
  5 17  1  0  0  0  0
  5  7  1  0  0  0  0
  6  2  2  0  0  0  0
  6  9  1  0  0  0  0
  7  3  1  1  0  0  0
  8 12  1  0  0  0  0
  8  4  2  0  0  0  0
  9 13  1  0  0  0  0
  9 17  1  0  0  0  0
 10  1  1  0  0  0  0
 11 23  1  0  0  0  0
 14 33  1  6  0  0  0
 15  3  1  0  0  0  0
 15 14  1  0  0  0  0
 16 12  1  1  0  0  0
 16 11  1  0  0  0  0
 16  2  1  0  0  0  0
 17 22  1  6  0  0  0
 18  4  1  0  0  0  0
 18  1  1  0  0  0  0
 19  7  1  0  0  0  0
 19 25  1  1  0  0  0
 21 14  1  0  0  0  0
 22 21  1  0  0  0  0
 23 19  1  0  0  0  0
 24 30  1  0  0  0  0
 25 24  2  0  0  0  0
 26 25  1  0  0  0  0
 26 29  2  0  0  0  0
 27 29  1  0  0  0  0
 28 30  2  0  0  0  0
 29 28  1  0  0  0  0
 32 34  1  0  0  0  0
 32 31  2  0  0  0  0
 33 35  2  0  0  0  0
 34 33  1  0  0  0  0
 36 37  1  0  0  0  0
 37 32  1  0  0  0  0
M  END
>  <MODEL>
6

>  <REMARK>
 VINA RESULT:      -7.7      2.227      3.197
  Name = 
  3 active torsions:
  status: ('A' for Active; 'I' for Inactive)
    1  A    between atoms: C_4  and  O_37
    2  A    between atoms: C_8  and  C_18
    3  A    between atoms: C_23  and  C_30
                            x       y       z     vdW  Elec       q    Type
                         _______ _______ _______ _____ _____    ______ ____

>  <TORSDO>
F 3

$$$$
=
 OpenBabel11112417233D

 37 42  0  0  1  0  0  0  0  0999 V2000
  186.4580  177.5320  143.5030 C   0  0  0  0  0  0  0  0  0  0  0  0
  190.1780  175.7400  143.2000 C   0  0  0  0  0  0  0  0  0  0  0  0
  190.3230  172.3730  141.4530 O   0  0  0  0  0  0  0  0  0  0  0  0
  188.7950  177.2640  144.5030 C   0  0  0  0  0  0  0  0  0  0  0  0
  190.0400  174.7380  142.0970 C   0  0  1  0  0  3  0  0  0  0  0  0
  189.0170  176.2810  143.4490 C   0  0  0  0  0  0  0  0  0  0  0  0
  190.5820  173.3400  142.4590 C   0  0  2  0  0  3  0  0  0  0  0  0
  189.8010  177.5530  145.3410 C   0  0  0  0  0  3  0  0  0  0  0  0
  187.9880  175.8050  142.6240 N   0  0  0  0  0  0  0  0  0  0  0  0
  186.7400  178.5480  142.4110 C   0  0  0  0  0  1  0  0  0  0  0  0
  192.6020  175.3300  143.7860 C   0  0  0  0  0  2  0  0  0  0  0  0
  191.1370  176.8300  145.2420 C   0  0  0  0  0  2  0  0  0  0  0  0
  186.5930  176.1020  142.9270 C   0  0  0  0  0  2  0  0  0  0  0  0
  189.5750  172.9140  139.2130 C   0  0  1  0  0  3  0  0  0  0  0  0
  190.7380  172.8820  140.2080 C   0  0  0  0  0  2  0  0  0  0  0  0
  191.4280  176.3070  143.8180 C   0  0  2  0  0  3  0  0  0  0  0  0
  188.5140  174.6660  141.8840 C   0  0  1  0  0  3  0  0  0  0  0  0
  187.4010  177.7940  144.7030 C   0  0  0  0  0  2  0  0  0  0  0  0
  192.0580  173.3530  142.9070 C   0  0  1  0  0  3  0  0  0  0  0  0
  185.0310  177.7240  143.9690 C   0  0  0  0  0  1  0  0  0  0  0  0
  188.2140  173.3560  139.7810 C   0  0  0  0  0  2  0  0  0  0  0  0
  188.1910  174.7540  140.4010 C   0  0  0  0  0  2  0  0  0  0  0  0
  192.1890  174.0360  144.1260 O   0  0  0  0  0  0  0  0  0  0  0  0
  192.1760  171.1610  144.1060 C   0  0  0  0  0  3  0  0  0  0  0  0
  192.6120  171.9680  143.0500 C   0  0  0  0  0  0  0  0  0  0  0  0
  193.5690  171.4770  142.1500 C   0  0  0  0  0  3  0  0  0  0  0  0
  195.0880  169.6630  141.3470 C   0  0  0  0  0  1  0  0  0  0  0  0
  193.6390  169.3820  143.3610 C   0  0  0  0  0  3  0  0  0  0  0  0
  194.0790  170.1850  142.3060 C   0  0  0  0  0  0  0  0  0  0  0  0
  192.6870  169.8700  144.2620 C   0  0  0  0  0  3  0  0  0  0  0  0
  190.2650  175.2000  135.5330 O   0  0  0  0  0  0  0  0  0  0  0  0
  189.1040  174.9210  135.9290 C   0  0  0  0  0  0  0  0  0  0  0  0
  189.9430  173.6680  137.9780 C   0  0  0  0  0  0  0  0  0  0  0  0
  188.9020  174.1860  137.1440 N   0  0  0  0  0  2  0  0  0  0  0  0
  191.1580  173.8330  137.6750 O   0  0  0  0  0  0  0  0  0  0  0  0
  187.1480  176.3740  135.5970 C   0  0  0  0  0  1  0  0  0  0  0  0
  188.0130  175.3350  135.1650 O   0  0  0  0  0  0  0  0  0  0  0  0
  1 20  1  0  0  0  0
  1 18  1  0  0  0  0
  2  6  2  0  0  0  0
  2 16  1  0  0  0  0
  4 18  1  0  0  0  0
  4  8  2  0  0  0  0
  5  7  1  0  0  0  0
  5  2  1  1  0  0  0
  6  4  1  0  0  0  0
  7  3  1  6  0  0  0
  7 19  1  0  0  0  0
  9 13  1  0  0  0  0
  9  6  1  0  0  0  0
 10  1  1  0  0  0  0
 11 23  1  0  0  0  0
 12  8  1  0  0  0  0
 13  1  1  0  0  0  0
 14 33  1  6  0  0  0
 14 21  1  0  0  0  0
 14 15  1  0  0  0  0
 15  3  1  0  0  0  0
 16 11  1  1  0  0  0
 16 12  1  0  0  0  0
 17 22  1  6  0  0  0
 17  5  1  0  0  0  0
 17  9  1  0  0  0  0
 19 25  1  1  0  0  0
 19 23  1  0  0  0  0
 21 22  1  0  0  0  0
 24 30  1  0  0  0  0
 25 24  2  0  0  0  0
 26 29  2  0  0  0  0
 26 25  1  0  0  0  0
 27 29  1  0  0  0  0
 28 30  2  0  0  0  0
 29 28  1  0  0  0  0
 31 32  2  0  0  0  0
 32 34  1  0  0  0  0
 34 33  1  0  0  0  0
 35 33  2  0  0  0  0
 37 36  1  0  0  0  0
 37 32  1  0  0  0  0
M  END
>  <MODEL>
7

>  <REMARK>
 VINA RESULT:      -7.6      3.628      8.352
  Name = 
  3 active torsions:
  status: ('A' for Active; 'I' for Inactive)
    1  A    between atoms: C_4  and  O_37
    2  A    between atoms: C_8  and  C_18
    3  A    between atoms: C_23  and  C_30
                            x       y       z     vdW  Elec       q    Type
                         _______ _______ _______ _____ _____    ______ ____

>  <TORSDO>
F 3

$$$$
=
 OpenBabel11112417233D

 37 42  0  0  1  0  0  0  0  0999 V2000
  186.5630  177.5130  143.4560 C   0  0  0  0  0  0  0  0  0  0  0  0
  190.3310  175.8400  143.0690 C   0  0  0  0  0  0  0  0  0  0  0  0
  190.5120  172.3450  141.5980 O   0  0  0  0  0  0  0  0  0  0  0  0
  188.9650  177.4160  144.3270 C   0  0  0  0  0  0  0  0  0  0  0  0
  190.1700  174.7440  142.0630 C   0  0  1  0  0  3  0  0  0  0  0  0
  189.1650  176.3560  143.3460 C   0  0  0  0  0  0  0  0  0  0  0  0
  190.7900  173.4020  142.5040 C   0  0  2  0  0  3  0  0  0  0  0  0
  190.0050  177.8120  145.0740 C   0  0  0  0  0  3  0  0  0  0  0  0
  188.1090  175.7750  142.6280 N   0  0  0  0  0  0  0  0  0  0  0  0
  186.7380  178.4430  142.2690 C   0  0  0  0  0  1  0  0  0  0  0  0
  192.7990  175.5700  143.5350 C   0  0  0  0  0  2  0  0  0  0  0  0
  191.3630  177.1320  144.9510 C   0  0  0  0  0  2  0  0  0  0  0  0
  186.7240  176.0450  142.9920 C   0  0  0  0  0  2  0  0  0  0  0  0
  189.6110  172.6680  139.3720 C   0  0  1  0  0  3  0  0  0  0  0  0
  190.8320  172.7630  140.2920 C   0  0  0  0  0  2  0  0  0  0  0  0
  191.5900  176.5020  143.5600 C   0  0  2  0  0  3  0  0  0  0  0  0
  188.6380  174.5980  141.9520 C   0  0  1  0  0  3  0  0  0  0  0  0
  187.5640  177.9100  144.5700 C   0  0  0  0  0  2  0  0  0  0  0  0
  192.2880  173.5080  142.8560 C   0  0  1  0  0  3  0  0  0  0  0  0
  185.1590  177.6910  143.9930 C   0  0  0  0  0  1  0  0  0  0  0  0
  188.2690  173.1050  139.9870 C   0  0  0  0  0  2  0  0  0  0  0  0
  188.2240  174.5490  140.4900 C   0  0  0  0  0  2  0  0  0  0  0  0
  192.4620  174.2950  144.0050 O   0  0  0  0  0  0  0  0  0  0  0  0
  192.4910  171.3860  144.1650 C   0  0  0  0  0  3  0  0  0  0  0  0
  192.9060  172.1610  143.0770 C   0  0  0  0  0  0  0  0  0  0  0  0
  193.9030  171.6740  142.2180 C   0  0  0  0  0  3  0  0  0  0  0  0
  195.5240  169.9020  141.5320 C   0  0  0  0  0  1  0  0  0  0  0  0
  194.0540  169.6470  143.5340 C   0  0  0  0  0  3  0  0  0  0  0  0
  194.4740  170.4190  142.4470 C   0  0  0  0  0  0  0  0  0  0  0  0
  193.0630  170.1310  144.3940 C   0  0  0  0  0  3  0  0  0  0  0  0
  190.7650  174.6460  135.6320 O   0  0  0  0  0  0  0  0  0  0  0  0
  191.5660  174.5400  136.5970 C   0  0  0  0  0  0  0  0  0  0  0  0
  189.8740  173.3270  138.0590 C   0  0  0  0  0  0  0  0  0  0  0  0
  191.1710  173.8750  137.8040 N   0  0  0  0  0  2  0  0  0  0  0  0
  188.9570  173.4060  137.1950 O   0  0  0  0  0  0  0  0  0  0  0  0
  193.0530  176.4100  136.0130 C   0  0  0  0  0  1  0  0  0  0  0  0
  192.8440  175.0840  136.4760 O   0  0  0  0  0  0  0  0  0  0  0  0
  1 20  1  0  0  0  0
  1 18  1  0  0  0  0
  2  6  2  0  0  0  0
  2 16  1  0  0  0  0
  4 18  1  0  0  0  0
  4  8  2  0  0  0  0
  5  7  1  0  0  0  0
  5  2  1  1  0  0  0
  6  4  1  0  0  0  0
  7  3  1  6  0  0  0
  7 19  1  0  0  0  0
  9 13  1  0  0  0  0
  9  6  1  0  0  0  0
 10  1  1  0  0  0  0
 11 23  1  0  0  0  0
 12  8  1  0  0  0  0
 13  1  1  0  0  0  0
 14 33  1  6  0  0  0
 14 21  1  0  0  0  0
 14 15  1  0  0  0  0
 15  3  1  0  0  0  0
 16 11  1  1  0  0  0
 16 12  1  0  0  0  0
 17 22  1  6  0  0  0
 17  5  1  0  0  0  0
 17  9  1  0  0  0  0
 19 25  1  1  0  0  0
 19 23  1  0  0  0  0
 21 22  1  0  0  0  0
 24 30  1  0  0  0  0
 25 24  2  0  0  0  0
 26 29  2  0  0  0  0
 26 25  1  0  0  0  0
 27 29  1  0  0  0  0
 28 30  2  0  0  0  0
 29 28  1  0  0  0  0
 31 32  2  0  0  0  0
 32 34  1  0  0  0  0
 34 33  1  0  0  0  0
 35 33  2  0  0  0  0
 36 37  1  0  0  0  0
 37 32  1  0  0  0  0
M  END
>  <MODEL>
8

>  <REMARK>
 VINA RESULT:      -7.6      3.677      8.011
  Name = 
  3 active torsions:
  status: ('A' for Active; 'I' for Inactive)
    1  A    between atoms: C_4  and  O_37
    2  A    between atoms: C_8  and  C_18
    3  A    between atoms: C_23  and  C_30
                            x       y       z     vdW  Elec       q    Type
                         _______ _______ _______ _____ _____    ______ ____

>  <TORSDO>
F 3

$$$$
=
 OpenBabel11112417233D

 37 42  0  0  1  0  0  0  0  0999 V2000
  189.0160  176.6860  146.0950 C   0  0  0  0  0  0  0  0  0  0  0  0
  192.4690  174.6650  145.0280 C   0  0  0  0  0  0  0  0  0  0  0  0
  192.0620  171.0810  143.8480 O   0  0  0  0  0  0  0  0  0  0  0  0
  191.5390  176.4340  146.4200 C   0  0  0  0  0  0  0  0  0  0  0  0
  192.0060  173.5260  144.1760 C   0  0  1  0  0  3  0  0  0  0  0  0
  191.4360  175.3000  145.5110 C   0  0  0  0  0  0  0  0  0  0  0  0
  192.6120  172.1660  144.5790 C   0  0  2  0  0  3  0  0  0  0  0  0
  192.7480  176.7840  146.8850 C   0  0  0  0  0  3  0  0  0  0  0  0
  190.2060  174.7690  145.0940 N   0  0  0  0  0  0  0  0  0  0  0  0
  188.9840  177.5180  144.8260 C   0  0  0  0  0  1  0  0  0  0  0  0
  194.9530  174.2090  144.9590 C   0  0  0  0  0  2  0  0  0  0  0  0
  193.9900  175.9810  146.5230 C   0  0  0  0  0  2  0  0  0  0  0  0
  188.9620  175.1830  145.7310 C   0  0  0  0  0  2  0  0  0  0  0  0
  190.7060  171.3370  141.8560 C   0  0  1  0  0  3  0  0  0  0  0  0
  192.1070  171.3830  142.4740 C   0  0  0  0  0  2  0  0  0  0  0  0
  193.8500  175.2450  145.1730 C   0  0  2  0  0  3  0  0  0  0  0  0
  190.4830  173.5090  144.4180 C   0  0  1  0  0  3  0  0  0  0  0  0
  190.2690  177.0650  146.9240 C   0  0  0  0  0  2  0  0  0  0  0  0
  194.1550  172.1610  144.5830 C   0  0  1  0  0  3  0  0  0  0  0  0
  187.7870  177.0220  146.9120 C   0  0  0  0  0  1  0  0  0  0  0  0
  189.5730  171.9300  142.7130 C   0  0  0  0  0  2  0  0  0  0  0  0
  189.7470  173.4020  143.0920 C   0  0  0  0  0  2  0  0  0  0  0  0
  194.6400  173.0020  145.5960 O   0  0  0  0  0  0  0  0  0  0  0  0
  194.5380  170.1370  146.0030 C   0  0  0  0  0  3  0  0  0  0  0  0
  194.7090  170.7820  144.7730 C   0  0  0  0  0  0  0  0  0  0  0  0
  195.4080  170.1360  143.7420 C   0  0  0  0  0  3  0  0  0  0  0  0
  196.6580  168.1670  142.8470 C   0  0  0  0  0  1  0  0  0  0  0  0
  195.7490  168.2120  145.1720 C   0  0  0  0  0  3  0  0  0  0  0  0
  195.9250  168.8530  143.9430 C   0  0  0  0  0  0  0  0  0  0  0  0
  195.0560  168.8550  146.2030 C   0  0  0  0  0  3  0  0  0  0  0  0
  191.0740  173.1170  137.8650 O   0  0  0  0  0  0  0  0  0  0  0  0
  191.8910  173.3830  138.7840 C   0  0  0  0  0  0  0  0  0  0  0  0
  190.7120  171.8840  140.4680 C   0  0  0  0  0  0  0  0  0  0  0  0
  191.7600  172.7760  140.0770 N   0  0  0  0  0  2  0  0  0  0  0  0
  189.7960  171.5680  139.6580 O   0  0  0  0  0  0  0  0  0  0  0  0
  193.0640  174.9260  137.2700 C   0  0  0  0  0  1  0  0  0  0  0  0
  192.9270  174.2820  138.5280 O   0  0  0  0  0  0  0  0  0  0  0  0
  1 20  1  0  0  0  0
  1 18  1  0  0  0  0
  2 16  1  0  0  0  0
  2  6  2  0  0  0  0
  4  8  2  0  0  0  0
  4 18  1  0  0  0  0
  5 17  1  0  0  0  0
  5  7  1  0  0  0  0
  5  2  1  1  0  0  0
  6  4  1  0  0  0  0
  7  3  1  6  0  0  0
  7 19  1  0  0  0  0
  9  6  1  0  0  0  0
  9 13  1  0  0  0  0
 10  1  1  0  0  0  0
 11 23  1  0  0  0  0
 12  8  1  0  0  0  0
 13  1  1  0  0  0  0
 14 33  1  6  0  0  0
 14 15  1  0  0  0  0
 14 21  1  0  0  0  0
 15  3  1  0  0  0  0
 16 11  1  1  0  0  0
 16 12  1  0  0  0  0
 17 22  1  6  0  0  0
 17  9  1  0  0  0  0
 19 25  1  1  0  0  0
 19 23  1  0  0  0  0
 21 22  1  0  0  0  0
 24 30  1  0  0  0  0
 25 24  2  0  0  0  0
 26 29  2  0  0  0  0
 26 25  1  0  0  0  0
 27 29  1  0  0  0  0
 28 30  2  0  0  0  0
 29 28  1  0  0  0  0
 31 32  2  0  0  0  0
 32 34  1  0  0  0  0
 34 33  1  0  0  0  0
 35 33  2  0  0  0  0
 36 37  1  0  0  0  0
 37 32  1  0  0  0  0
M  END
>  <MODEL>
9

>  <REMARK>
 VINA RESULT:      -7.5      3.719      8.867
  Name = 
  3 active torsions:
  status: ('A' for Active; 'I' for Inactive)
    1  A    between atoms: C_4  and  O_37
    2  A    between atoms: C_8  and  C_18
    3  A    between atoms: C_23  and  C_30
                            x       y       z     vdW  Elec       q    Type
                         _______ _______ _______ _____ _____    ______ ____

>  <TORSDO>
F 3

$$$$
