=
 OpenBabel11112417353D

 28 32  0  0  1  0  0  0  0  0999 V2000
  190.7180  175.0900  143.5260 C   0  0  0  0  0  0  0  0  0  0  0  0
  188.1500  175.5940  147.1630 O   0  0  0  0  0  1  0  0  0  0  0  0
  187.1410  176.9310  139.6290 O   0  0  0  0  0  0  0  0  0  0  0  0
  191.5350  177.6670  144.2700 C   0  0  0  0  0  3  0  0  0  0  0  0
  186.1550  177.0650  141.7730 N   0  0  0  0  0  0  0  0  0  0  0  0
  190.3080  173.7210  143.0700 C   0  0  0  0  0  2  0  0  0  0  0  0
  188.4250  177.8160  146.7630 O   0  0  0  0  0  1  0  0  0  0  0  0
  187.5950  176.7150  146.5450 C   0  0  0  0  0  0  0  0  0  0  0  0
  185.2340  177.6270  146.3860 C   0  0  0  0  0  0  0  0  0  0  0  0
  187.4610  176.4730  145.0640 C   0  0  0  0  0  0  0  0  0  0  0  0
  189.9310  173.8640  139.4130 O   0  0  0  0  0  0  0  0  0  0  0  0
  187.6250  175.7240  142.8880 C   0  0  1  0  0  3  0  0  0  0  0  0
  185.3950  177.8800  144.9140 C   0  0  0  0  0  2  0  0  0  0  0  0
  186.2820  176.9900  147.1310 N   0  0  0  0  0  2  0  0  0  0  0  0
  189.5820  173.9140  140.6200 C   0  0  0  0  0  0  0  0  0  0  0  0
  189.7800  175.9940  144.0750 C   0  0  0  0  0  0  0  0  0  0  0  0
  187.1260  176.5940  140.8420 C   0  0  0  0  0  0  0  0  0  0  0  0
  184.1750  177.9760  146.9670 O   0  0  0  0  0  0  0  0  0  0  0  0
  188.1810  174.3250  140.9460 C   0  0  0  0  0  2  0  0  0  0  0  0
  190.1990  177.2890  144.4170 C   0  0  0  0  0  3  0  0  0  0  0  0
  192.0570  175.4780  143.3900 C   0  0  0  0  0  3  0  0  0  0  0  0
  192.4650  176.7590  143.7620 C   0  0  0  0  0  3  0  0  0  0  0  0
  190.5320  173.5700  141.6360 N   0  0  0  0  0  2  0  0  0  0  0  0
  186.5630  176.4820  142.9990 C   0  0  1  0  0  3  0  0  0  0  0  0
  188.1710  175.7380  141.4960 C   0  0  2  0  0  3  0  0  0  0  0  0
  186.4520  176.9790  144.3550 C   0  0  0  0  0  0  0  0  0  0  0  0
  185.3750  178.2820  141.6280 C   0  0  0  0  0  1  0  0  0  0  0  0
  188.3310  175.5800  144.2000 C   0  0  1  0  0  3  0  0  0  0  0  0
  1 16  1  0  0  0  0
  3 17  2  0  0  0  0
  4 20  1  0  0  0  0
  5 24  1  0  0  0  0
  6  1  1  0  0  0  0
  8  7  1  0  0  0  0
  8 14  1  0  0  0  0
  8  2  1  0  0  0  0
  9 18  2  0  0  0  0
  9 14  1  0  0  0  0
 10  8  1  0  0  0  0
 11 15  2  0  0  0  0
 12 24  1  0  0  0  0
 12 28  1  0  0  0  0
 13  9  1  0  0  0  0
 15 19  1  0  0  0  0
 15 23  1  0  0  0  0
 16 28  1  0  0  0  0
 16 20  2  0  0  0  0
 17 25  1  0  0  0  0
 17  5  1  0  0  0  0
 19 25  1  0  0  0  0
 21  1  2  0  0  0  0
 21 22  1  0  0  0  0
 22  4  2  0  0  0  0
 23  6  1  0  0  0  0
 24 26  1  0  0  0  0
 25 12  1  0  0  0  0
 26 13  1  0  0  0  0
 26 10  2  0  0  0  0
 27  5  1  0  0  0  0
 28 10  1  0  0  0  0
M  END
>  <MODEL>
1

>  <REMARK>
 VINA RESULT:      -8.8      0.000      0.000
  Name = 
  0 active torsions:
  status: ('A' for Active; 'I' for Inactive)
                            x       y       z     vdW  Elec       q    Type
                         _______ _______ _______ _____ _____    ______ ____

>  <TORSDO>
F 0

$$$$
=
 OpenBabel11112417353D

 28 32  0  0  1  0  0  0  0  0999 V2000
  190.5100  174.7390  142.2990 C   0  0  0  0  0  0  0  0  0  0  0  0
  188.0570  178.3020  141.1320 O   0  0  0  0  0  1  0  0  0  0  0  0
  189.3130  174.5680  147.7680 O   0  0  0  0  0  0  0  0  0  0  0  0
  188.1600  173.4080  141.5460 C   0  0  0  0  0  3  0  0  0  0  0  0
  188.1540  176.3490  146.7320 N   0  0  0  0  0  0  0  0  0  0  0  0
  191.7880  175.3960  142.7320 C   0  0  0  0  0  2  0  0  0  0  0  0
  186.2910  176.9330  141.5550 O   0  0  0  0  0  1  0  0  0  0  0  0
  187.1300  177.9080  142.0970 C   0  0  0  0  0  0  0  0  0  0  0  0
  185.7390  179.1750  143.7960 C   0  0  0  0  0  0  0  0  0  0  0  0
  187.8450  177.3440  143.2970 C   0  0  0  0  0  0  0  0  0  0  0  0
  192.8790  173.7190  145.8190 O   0  0  0  0  0  0  0  0  0  0  0  0
  189.3440  176.4190  144.7870 C   0  0  1  0  0  3  0  0  0  0  0  0
  186.0870  178.1850  144.8710 C   0  0  0  0  0  2  0  0  0  0  0  0
  186.3200  179.0630  142.4890 N   0  0  0  0  0  2  0  0  0  0  0  0
  192.3050  174.5810  145.1050 C   0  0  0  0  0  0  0  0  0  0  0  0
  189.2530  175.3260  142.5690 C   0  0  0  0  0  0  0  0  0  0  0  0
  189.1710  175.3530  146.7930 C   0  0  0  0  0  0  0  0  0  0  0  0
  184.9330  180.1080  144.0450 O   0  0  0  0  0  0  0  0  0  0  0  0
  191.4430  175.6070  145.7710 C   0  0  0  0  0  2  0  0  0  0  0  0
  188.0860  174.6350  142.2090 C   0  0  0  0  0  3  0  0  0  0  0  0
  190.5730  173.5120  141.6260 C   0  0  0  0  0  3  0  0  0  0  0  0
  189.4040  172.8500  141.2490 C   0  0  0  0  0  3  0  0  0  0  0  0
  192.5000  174.5530  143.6860 N   0  0  0  0  0  2  0  0  0  0  0  0
  188.3420  176.9340  145.4550 C   0  0  1  0  0  3  0  0  0  0  0  0
  189.9800  175.2890  145.5310 C   0  0  2  0  0  3  0  0  0  0  0  0
  187.3790  177.5040  144.5360 C   0  0  0  0  0  0  0  0  0  0  0  0
  186.9100  176.3240  147.4820 C   0  0  0  0  0  1  0  0  0  0  0  0
  189.1880  176.6400  143.3150 C   0  0  1  0  0  3  0  0  0  0  0  0
  1 16  1  0  0  0  0
  1  6  1  0  0  0  0
  2  8  1  0  0  0  0
  4 20  1  0  0  0  0
  5 17  1  0  0  0  0
  5 27  1  0  0  0  0
  6 23  1  0  0  0  0
  7  8  1  0  0  0  0
  8 14  1  0  0  0  0
  8 10  1  0  0  0  0
  9 18  2  0  0  0  0
  9 13  1  0  0  0  0
 10 28  1  0  0  0  0
 10 26  2  0  0  0  0
 12 24  1  0  0  0  0
 12 25  1  0  0  0  0
 14  9  1  0  0  0  0
 15 19  1  0  0  0  0
 15 11  2  0  0  0  0
 16 28  1  0  0  0  0
 17  3  2  0  0  0  0
 20 16  2  0  0  0  0
 21  1  2  0  0  0  0
 22  4  2  0  0  0  0
 22 21  1  0  0  0  0
 23 15  1  0  0  0  0
 24  5  1  0  0  0  0
 25 19  1  0  0  0  0
 25 17  1  0  0  0  0
 26 13  1  0  0  0  0
 26 24  1  0  0  0  0
 28 12  1  0  0  0  0
M  END
>  <MODEL>
2

>  <REMARK>
 VINA RESULT:      -8.6      2.058      4.644
  Name = 
  0 active torsions:
  status: ('A' for Active; 'I' for Inactive)
                            x       y       z     vdW  Elec       q    Type
                         _______ _______ _______ _____ _____    ______ ____

>  <TORSDO>
F 0

$$$$
=
 OpenBabel11112417353D

 28 32  0  0  1  0  0  0  0  0999 V2000
  186.6730  177.1570  143.5960 C   0  0  0  0  0  0  0  0  0  0  0  0
  188.3950  173.1880  142.4290 O   0  0  0  0  0  1  0  0  0  0  0  0
  189.9270  178.2910  148.0130 O   0  0  0  0  0  0  0  0  0  0  0  0
  188.5660  178.0480  141.7300 C   0  0  0  0  0  3  0  0  0  0  0  0
  190.5480  176.2240  147.0490 N   0  0  0  0  0  0  0  0  0  0  0  0
  185.6550  176.7420  144.6180 C   0  0  0  0  0  2  0  0  0  0  0  0
  190.2130  174.4160  141.8310 O   0  0  0  0  0  1  0  0  0  0  0  0
  189.6350  173.6650  142.8550 C   0  0  0  0  0  0  0  0  0  0  0  0
  191.5540  172.6220  144.1410 C   0  0  0  0  0  0  0  0  0  0  0  0
  189.4610  174.5320  144.0750 C   0  0  0  0  0  0  0  0  0  0  0  0
  185.9000  179.1120  147.4210 O   0  0  0  0  0  0  0  0  0  0  0  0
  188.6880  175.8940  145.7700 C   0  0  1  0  0  3  0  0  0  0  0  0
  191.6770  173.8390  145.0130 C   0  0  0  0  0  2  0  0  0  0  0  0
  190.5090  172.5320  143.1630 N   0  0  0  0  0  2  0  0  0  0  0  0
  186.1300  178.0680  146.7580 C   0  0  0  0  0  0  0  0  0  0  0  0
  187.9230  176.5030  143.4960 C   0  0  0  0  0  0  0  0  0  0  0  0
  189.6580  177.3160  147.2630 C   0  0  0  0  0  0  0  0  0  0  0  0
  192.3730  171.6760  144.2710 O   0  0  0  0  0  0  0  0  0  0  0  0
  187.1620  177.1090  147.2630 C   0  0  0  0  0  2  0  0  0  0  0  0
  188.8700  176.9790  142.5750 C   0  0  0  0  0  3  0  0  0  0  0  0
  186.3770  178.2230  142.7390 C   0  0  0  0  0  3  0  0  0  0  0  0
  187.3180  178.6660  141.8070 C   0  0  0  0  0  3  0  0  0  0  0  0
  185.3930  177.8310  145.5520 N   0  0  0  0  0  2  0  0  0  0  0  0
  189.8610  175.4180  146.1060 C   0  0  1  0  0  3  0  0  0  0  0  0
  188.4190  177.2120  146.4220 C   0  0  2  0  0  3  0  0  0  0  0  0
  190.3730  174.5750  145.0460 C   0  0  0  0  0  0  0  0  0  0  0  0
  191.9870  176.2640  147.2460 C   0  0  0  0  0  1  0  0  0  0  0  0
  188.2490  175.3670  144.4400 C   0  0  1  0  0  3  0  0  0  0  0  0
  1  6  1  0  0  0  0
  2  8  1  0  0  0  0
  4 22  2  0  0  0  0
  4 20  1  0  0  0  0
  5 27  1  0  0  0  0
  5 17  1  0  0  0  0
  6 23  1  0  0  0  0
  7  8  1  0  0  0  0
  8 14  1  0  0  0  0
  8 10  1  0  0  0  0
  9 18  2  0  0  0  0
  9 13  1  0  0  0  0
 10 28  1  0  0  0  0
 10 26  2  0  0  0  0
 12 24  1  0  0  0  0
 12 25  1  0  0  0  0
 13 26  1  0  0  0  0
 14  9  1  0  0  0  0
 15 19  1  0  0  0  0
 15 11  2  0  0  0  0
 16  1  1  0  0  0  0
 16 28  1  0  0  0  0
 17  3  2  0  0  0  0
 20 16  2  0  0  0  0
 21  1  2  0  0  0  0
 22 21  1  0  0  0  0
 23 15  1  0  0  0  0
 24  5  1  0  0  0  0
 25 17  1  0  0  0  0
 25 19  1  0  0  0  0
 26 24  1  0  0  0  0
 28 12  1  0  0  0  0
M  END
>  <MODEL>
3

>  <REMARK>
 VINA RESULT:      -8.1      2.268      6.457
  Name = 
  0 active torsions:
  status: ('A' for Active; 'I' for Inactive)
                            x       y       z     vdW  Elec       q    Type
                         _______ _______ _______ _____ _____    ______ ____

>  <TORSDO>
F 0

$$$$
=
 OpenBabel11112417353D

 28 32  0  0  1  0  0  0  0  0999 V2000
  188.0450  177.5130  144.9470 C   0  0  0  0  0  0  0  0  0  0  0  0
  192.2400  176.7790  146.3400 O   0  0  0  0  0  1  0  0  0  0  0  0
  187.4410  173.1120  141.5350 O   0  0  0  0  0  0  0  0  0  0  0  0
  187.4710  176.0410  147.2630 C   0  0  0  0  0  3  0  0  0  0  0  0
  189.5830  173.0830  142.5360 N   0  0  0  0  0  0  0  0  0  0  0  0
  188.2900  178.2910  143.6870 C   0  0  0  0  0  2  0  0  0  0  0  0
  191.3200  175.0040  147.4250 O   0  0  0  0  0  1  0  0  0  0  0  0
  191.9670  175.4130  146.2580 C   0  0  0  0  0  0  0  0  0  0  0  0
  193.3030  173.4160  145.4500 C   0  0  0  0  0  0  0  0  0  0  0  0
  191.0820  175.1360  145.0710 C   0  0  0  0  0  0  0  0  0  0  0  0
  185.9860  176.9800  141.1360 O   0  0  0  0  0  0  0  0  0  0  0  0
  189.6120  175.2340  143.2950 C   0  0  1  0  0  3  0  0  0  0  0  0
  192.1200  172.8890  144.6880 C   0  0  0  0  0  2  0  0  0  0  0  0
  193.2250  174.6760  146.1310 N   0  0  0  0  0  2  0  0  0  0  0  0
  187.0550  177.0900  141.7900 C   0  0  0  0  0  0  0  0  0  0  0  0
  188.8910  176.4470  145.3280 C   0  0  0  0  0  0  0  0  0  0  0  0
  188.3620  173.7100  142.1520 C   0  0  0  0  0  0  0  0  0  0  0  0
  194.3670  172.7470  145.4890 O   0  0  0  0  0  0  0  0  0  0  0  0
  188.1660  176.1250  141.5200 C   0  0  0  0  0  2  0  0  0  0  0  0
  188.5740  175.7020  146.4760 C   0  0  0  0  0  3  0  0  0  0  0  0
  186.9460  177.8490  145.7470 C   0  0  0  0  0  3  0  0  0  0  0  0
  186.6610  177.1180  146.9020 C   0  0  0  0  0  3  0  0  0  0  0  0
  187.1720  178.1360  142.7630 N   0  0  0  0  0  2  0  0  0  0  0  0
  190.2690  174.1030  143.2430 C   0  0  1  0  0  3  0  0  0  0  0  0
  188.2670  175.1220  142.6520 C   0  0  2  0  0  3  0  0  0  0  0  0
  191.1850  174.0130  144.3610 C   0  0  0  0  0  0  0  0  0  0  0  0
  189.7730  171.6530  142.7070 C   0  0  0  0  0  1  0  0  0  0  0  0
  190.0630  176.0720  144.4500 C   0  0  1  0  0  3  0  0  0  0  0  0
  1 16  2  0  0  0  0
  1 21  1  0  0  0  0
  3 17  2  0  0  0  0
  5 27  1  0  0  0  0
  5 24  1  0  0  0  0
  6  1  1  0  0  0  0
  8  2  1  0  0  0  0
  8  7  1  0  0  0  0
  9 18  2  0  0  0  0
  9 14  1  0  0  0  0
 10  8  1  0  0  0  0
 11 15  2  0  0  0  0
 12 28  1  0  0  0  0
 13  9  1  0  0  0  0
 14  8  1  0  0  0  0
 15 23  1  0  0  0  0
 16 20  1  0  0  0  0
 17  5  1  0  0  0  0
 17 25  1  0  0  0  0
 19 15  1  0  0  0  0
 19 25  1  0  0  0  0
 20  4  2  0  0  0  0
 21 22  2  0  0  0  0
 22  4  1  0  0  0  0
 23  6  1  0  0  0  0
 24 12  1  0  0  0  0
 24 26  1  0  0  0  0
 25 12  1  0  0  0  0
 26 13  1  0  0  0  0
 26 10  2  0  0  0  0
 28 10  1  0  0  0  0
 28 16  1  0  0  0  0
M  END
>  <MODEL>
4

>  <REMARK>
 VINA RESULT:      -7.9      2.532      5.478
  Name = 
  0 active torsions:
  status: ('A' for Active; 'I' for Inactive)
                            x       y       z     vdW  Elec       q    Type
                         _______ _______ _______ _____ _____    ______ ____

>  <TORSDO>
F 0

$$$$
=
 OpenBabel11112417353D

 28 32  0  0  1  0  0  0  0  0999 V2000
  186.3640  178.2460  144.5960 C   0  0  0  0  0  0  0  0  0  0  0  0
  190.1650  178.1290  146.9660 O   0  0  0  0  0  1  0  0  0  0  0  0
  187.3500  173.9890  141.0920 O   0  0  0  0  0  0  0  0  0  0  0  0
  185.5110  176.5820  146.6850 C   0  0  0  0  0  3  0  0  0  0  0  0
  189.1620  174.2550  142.5870 N   0  0  0  0  0  0  0  0  0  0  0  0
  186.7680  179.1180  143.4440 C   0  0  0  0  0  2  0  0  0  0  0  0
  189.3270  176.1750  147.7730 O   0  0  0  0  0  1  0  0  0  0  0  0
  190.1560  176.7430  146.8040 C   0  0  0  0  0  0  0  0  0  0  0  0
  191.9650  175.0330  146.3250 C   0  0  0  0  0  0  0  0  0  0  0  0
  189.6410  176.3880  145.4340 C   0  0  0  0  0  0  0  0  0  0  0  0
  185.3980  177.5860  140.3920 O   0  0  0  0  0  0  0  0  0  0  0  0
  188.6440  176.3400  143.3530 C   0  0  1  0  0  3  0  0  0  0  0  0
  191.1060  174.3620  145.2920 C   0  0  0  0  0  2  0  0  0  0  0  0
  191.5140  176.2270  146.9810 N   0  0  0  0  0  2  0  0  0  0  0  0
  186.2450  177.8340  141.2890 C   0  0  0  0  0  0  0  0  0  0  0  0
  187.2620  177.3120  145.1620 C   0  0  0  0  0  0  0  0  0  0  0  0
  187.9800  174.6950  141.9230 C   0  0  0  0  0  0  0  0  0  0  0  0
  193.0860  174.5440  146.6170 O   0  0  0  0  0  0  0  0  0  0  0  0
  187.5350  177.0770  141.2880 C   0  0  0  0  0  2  0  0  0  0  0  0
  186.8110  176.4680  146.1890 C   0  0  0  0  0  3  0  0  0  0  0  0
  185.0650  178.3570  145.1070 C   0  0  0  0  0  3  0  0  0  0  0  0
  184.6400  177.5310  146.1490 C   0  0  0  0  0  3  0  0  0  0  0  0
  185.9460  178.8330  142.2730 N   0  0  0  0  0  2  0  0  0  0  0  0
  189.4760  175.3340  143.4510 C   0  0  1  0  0  3  0  0  0  0  0  0
  187.5310  176.0450  142.4000 C   0  0  2  0  0  3  0  0  0  0  0  0
  190.0990  175.3350  144.7580 C   0  0  0  0  0  0  0  0  0  0  0  0
  189.5460  172.8680  142.7830 C   0  0  0  0  0  1  0  0  0  0  0  0
  188.6570  177.1790  144.5930 C   0  0  1  0  0  3  0  0  0  0  0  0
  1 21  2  0  0  0  0
  1 16  1  0  0  0  0
  3 17  2  0  0  0  0
  5 27  1  0  0  0  0
  5 24  1  0  0  0  0
  6  1  1  0  0  0  0
  8  2  1  0  0  0  0
  8 14  1  0  0  0  0
  8  7  1  0  0  0  0
  9 18  2  0  0  0  0
  9 14  1  0  0  0  0
 10  8  1  0  0  0  0
 11 15  2  0  0  0  0
 12 24  1  0  0  0  0
 12 28  1  0  0  0  0
 13  9  1  0  0  0  0
 15 23  1  0  0  0  0
 16 20  2  0  0  0  0
 17 25  1  0  0  0  0
 17  5  1  0  0  0  0
 19 15  1  0  0  0  0
 19 25  1  0  0  0  0
 20  4  1  0  0  0  0
 21 22  1  0  0  0  0
 22  4  2  0  0  0  0
 23  6  1  0  0  0  0
 24 26  1  0  0  0  0
 25 12  1  0  0  0  0
 26 13  1  0  0  0  0
 26 10  2  0  0  0  0
 28 16  1  0  0  0  0
 28 10  1  0  0  0  0
M  END
>  <MODEL>
5

>  <REMARK>
 VINA RESULT:      -7.9      2.121      5.154
  Name = 
  0 active torsions:
  status: ('A' for Active; 'I' for Inactive)
                            x       y       z     vdW  Elec       q    Type
                         _______ _______ _______ _____ _____    ______ ____

>  <TORSDO>
F 0

$$$$
=
 OpenBabel11112417353D

 28 32  0  0  1  0  0  0  0  0999 V2000
  189.8990  175.2440  147.0030 C   0  0  0  0  0  0  0  0  0  0  0  0
  185.8380  176.6040  148.3210 O   0  0  0  0  0  1  0  0  0  0  0  0
  189.6250  176.6820  141.5970 O   0  0  0  0  0  0  0  0  0  0  0  0
  190.5730  177.8280  147.8550 C   0  0  0  0  0  3  0  0  0  0  0  0
  187.6230  177.2780  142.7040 N   0  0  0  0  0  0  0  0  0  0  0  0
  189.5950  173.8580  146.5150 C   0  0  0  0  0  2  0  0  0  0  0  0
  186.6790  178.6880  147.9700 O   0  0  0  0  0  1  0  0  0  0  0  0
  185.9500  177.6450  147.3980 C   0  0  0  0  0  0  0  0  0  0  0  0
  184.3220  178.7210  145.7800 C   0  0  0  0  0  0  0  0  0  0  0  0
  186.6570  177.1590  146.1590 C   0  0  0  0  0  0  0  0  0  0  0  0
  191.4340  173.3900  143.3630 O   0  0  0  0  0  0  0  0  0  0  0  0
  187.9140  176.0280  144.5900 C   0  0  1  0  0  3  0  0  0  0  0  0
  185.3450  178.6970  144.6810 C   0  0  0  0  0  2  0  0  0  0  0  0
  184.6130  178.1330  147.0560 N   0  0  0  0  0  2  0  0  0  0  0  0
  190.4660  173.6810  144.1120 C   0  0  0  0  0  0  0  0  0  0  0  0
  188.9920  176.3090  146.8000 C   0  0  0  0  0  0  0  0  0  0  0  0
  188.8520  176.5670  142.5840 C   0  0  0  0  0  0  0  0  0  0  0  0
  183.2030  179.2590  145.5800 O   0  0  0  0  0  0  0  0  0  0  0  0
  189.2340  174.2670  143.4980 C   0  0  0  0  0  2  0  0  0  0  0  0
  189.3570  177.6020  147.2080 C   0  0  0  0  0  3  0  0  0  0  0  0
  191.1130  175.4800  147.6600 C   0  0  0  0  0  3  0  0  0  0  0  0
  191.4480  176.7660  148.0870 C   0  0  0  0  0  3  0  0  0  0  0  0
  190.5760  173.4380  145.5190 N   0  0  0  0  0  2  0  0  0  0  0  0
  187.1370  176.8850  143.9760 C   0  0  1  0  0  3  0  0  0  0  0  0
  189.1560  175.7490  143.8050 C   0  0  2  0  0  3  0  0  0  0  0  0
  186.3520  177.6200  144.9460 C   0  0  0  0  0  0  0  0  0  0  0  0
  187.3000  178.5160  142.0150 C   0  0  0  0  0  1  0  0  0  0  0  0
  187.6930  176.0550  146.0690 C   0  0  1  0  0  3  0  0  0  0  0  0
  1 21  1  0  0  0  0
  3 17  2  0  0  0  0
  4 22  1  0  0  0  0
  5 24  1  0  0  0  0
  6  1  1  0  0  0  0
  8  7  1  0  0  0  0
  8  2  1  0  0  0  0
  9 14  1  0  0  0  0
 10  8  1  0  0  0  0
 11 15  2  0  0  0  0
 12 28  1  0  0  0  0
 13 26  1  0  0  0  0
 13  9  1  0  0  0  0
 14  8  1  0  0  0  0
 15 23  1  0  0  0  0
 16  1  2  0  0  0  0
 16 20  1  0  0  0  0
 17  5  1  0  0  0  0
 17 25  1  0  0  0  0
 18  9  2  0  0  0  0
 19 25  1  0  0  0  0
 19 15  1  0  0  0  0
 20  4  2  0  0  0  0
 21 22  2  0  0  0  0
 23  6  1  0  0  0  0
 24 12  1  0  0  0  0
 24 26  1  0  0  0  0
 25 12  1  0  0  0  0
 26 10  2  0  0  0  0
 27  5  1  0  0  0  0
 28 10  1  0  0  0  0
 28 16  1  0  0  0  0
M  END
>  <MODEL>
6

>  <REMARK>
 VINA RESULT:      -7.8      2.319      2.794
  Name = 
  0 active torsions:
  status: ('A' for Active; 'I' for Inactive)
                            x       y       z     vdW  Elec       q    Type
                         _______ _______ _______ _____ _____    ______ ____

>  <TORSDO>
F 0

$$$$
=
 OpenBabel11112417353D

 28 32  0  0  1  0  0  0  0  0999 V2000
  188.5370  176.0130  145.4130 C   0  0  0  0  0  0  0  0  0  0  0  0
  188.1950  173.0120  142.1030 O   0  0  0  0  0  1  0  0  0  0  0  0
  194.0120  177.1400  145.0510 O   0  0  0  0  0  0  0  0  0  0  0  0
  187.8440  177.7560  143.3290 C   0  0  0  0  0  3  0  0  0  0  0  0
  193.3890  175.5680  143.3980 N   0  0  0  0  0  0  0  0  0  0  0  0
  188.9280  175.1320  146.5630 C   0  0  0  0  0  2  0  0  0  0  0  0
  188.5900  174.8010  140.7550 O   0  0  0  0  0  1  0  0  0  0  0  0
  189.1820  173.7300  141.4270 C   0  0  0  0  0  0  0  0  0  0  0  0
  191.1930  173.0480  140.0420 C   0  0  0  0  0  0  0  0  0  0  0  0
  190.1990  174.2540  142.4070 C   0  0  0  0  0  0  0  0  0  0  0  0
  191.5890  176.8750  148.4110 O   0  0  0  0  0  0  0  0  0  0  0  0
  191.3630  174.9770  144.2640 C   0  0  1  0  0  3  0  0  0  0  0  0
  192.0600  174.0540  140.7430 C   0  0  0  0  0  2  0  0  0  0  0  0
  189.8300  172.8570  140.4470 N   0  0  0  0  0  2  0  0  0  0  0  0
  191.0800  176.0910  147.5690 C   0  0  0  0  0  0  0  0  0  0  0  0
  189.0260  175.7760  144.1080 C   0  0  0  0  0  0  0  0  0  0  0  0
  193.1900  176.2960  144.6070 C   0  0  0  0  0  0  0  0  0  0  0  0
  191.6650  172.3700  139.0940 O   0  0  0  0  0  0  0  0  0  0  0  0
  191.9830  175.3880  146.6050 C   0  0  0  0  0  2  0  0  0  0  0  0
  188.6910  176.6740  143.0810 C   0  0  0  0  0  3  0  0  0  0  0  0
  187.6830  177.0970  145.6490 C   0  0  0  0  0  3  0  0  0  0  0  0
  187.3350  177.9630  144.6120 C   0  0  0  0  0  3  0  0  0  0  0  0
  189.6610  175.8950  147.5680 N   0  0  0  0  0  2  0  0  0  0  0  0
  192.2040  174.8010  143.2760 C   0  0  1  0  0  3  0  0  0  0  0  0
  191.8540  176.0090  145.2280 C   0  0  2  0  0  3  0  0  0  0  0  0
  191.4900  174.3640  142.0930 C   0  0  0  0  0  0  0  0  0  0  0  0
  194.2550  175.9780  142.3060 C   0  0  0  0  0  1  0  0  0  0  0  0
  189.9670  174.6190  143.8610 C   0  0  1  0  0  3  0  0  0  0  0  0
  1 21  1  0  0  0  0
  1  6  1  0  0  0  0
  4 22  1  0  0  0  0
  5 17  1  0  0  0  0
  6 23  1  0  0  0  0
  7  8  1  0  0  0  0
  8  2  1  0  0  0  0
  8 10  1  0  0  0  0
  9 14  1  0  0  0  0
  9 13  1  0  0  0  0
 10 28  1  0  0  0  0
 12 25  1  0  0  0  0
 13 26  1  0  0  0  0
 14  8  1  0  0  0  0
 15 11  2  0  0  0  0
 16  1  2  0  0  0  0
 17  3  2  0  0  0  0
 17 25  1  0  0  0  0
 18  9  2  0  0  0  0
 19 15  1  0  0  0  0
 20  4  2  0  0  0  0
 20 16  1  0  0  0  0
 22 21  2  0  0  0  0
 23 15  1  0  0  0  0
 24  5  1  0  0  0  0
 24 12  1  0  0  0  0
 25 19  1  0  0  0  0
 26 10  2  0  0  0  0
 26 24  1  0  0  0  0
 27  5  1  0  0  0  0
 28 16  1  0  0  0  0
 28 12  1  0  0  0  0
M  END
>  <MODEL>
7

>  <REMARK>
 VINA RESULT:      -7.8      2.688      6.703
  Name = 
  0 active torsions:
  status: ('A' for Active; 'I' for Inactive)
                            x       y       z     vdW  Elec       q    Type
                         _______ _______ _______ _____ _____    ______ ____

>  <TORSDO>
F 0

$$$$
=
 OpenBabel11112417353D

 28 32  0  0  1  0  0  0  0  0999 V2000
  190.6710  175.8400  143.9920 C   0  0  0  0  0  0  0  0  0  0  0  0
  188.3150  177.9650  140.8280 O   0  0  0  0  0  1  0  0  0  0  0  0
  186.9920  176.1250  148.2060 O   0  0  0  0  0  0  0  0  0  0  0  0
  189.4400  173.6140  142.8120 C   0  0  0  0  0  3  0  0  0  0  0  0
  186.0960  177.1390  146.2670 N   0  0  0  0  0  0  0  0  0  0  0  0
  191.3450  176.9940  144.6750 C   0  0  0  0  0  2  0  0  0  0  0  0
  186.9900  176.1180  140.9040 O   0  0  0  0  0  1  0  0  0  0  0  0
  187.1650  177.4130  141.3940 C   0  0  0  0  0  0  0  0  0  0  0  0
  184.8420  178.3180  141.8540 C   0  0  0  0  0  0  0  0  0  0  0  0
  187.3020  177.3660  142.8940 C   0  0  0  0  0  0  0  0  0  0  0  0
  191.1350  176.3840  148.2970 O   0  0  0  0  0  0  0  0  0  0  0  0
  188.0350  177.3360  145.0820 C   0  0  1  0  0  3  0  0  0  0  0  0
  184.8460  177.7230  143.2330 C   0  0  0  0  0  2  0  0  0  0  0  0
  186.0050  178.2220  141.0180 N   0  0  0  0  0  2  0  0  0  0  0  0
  190.7960  176.8350  147.1720 C   0  0  0  0  0  0  0  0  0  0  0  0
  189.3460  175.9430  143.5110 C   0  0  0  0  0  0  0  0  0  0  0  0
  187.1620  176.6270  147.0630 C   0  0  0  0  0  0  0  0  0  0  0  0
  183.8130  178.9030  141.4290 O   0  0  0  0  0  0  0  0  0  0  0  0
  189.4890  177.5520  147.0500 C   0  0  0  0  0  2  0  0  0  0  0  0
  188.7350  174.8120  142.9480 C   0  0  0  0  0  3  0  0  0  0  0  0
  191.3720  174.6370  143.8440 C   0  0  0  0  0  3  0  0  0  0  0  0
  190.7610  173.5290  143.2540 C   0  0  0  0  0  3  0  0  0  0  0  0
  191.6740  176.6520  146.0540 N   0  0  0  0  0  2  0  0  0  0  0  0
  186.7400  177.5340  145.0680 C   0  0  1  0  0  3  0  0  0  0  0  0
  188.4780  176.6690  146.3440 C   0  0  2  0  0  3  0  0  0  0  0  0
  186.2560  177.5370  143.7030 C   0  0  0  0  0  0  0  0  0  0  0  0
  184.6980  176.7670  146.4000 C   0  0  0  0  0  1  0  0  0  0  0  0
  188.5840  177.2370  143.6930 C   0  0  1  0  0  3  0  0  0  0  0  0
  1  6  1  0  0  0  0
  2  8  1  0  0  0  0
  4 20  2  0  0  0  0
  4 22  1  0  0  0  0
  5 27  1  0  0  0  0
  5 17  1  0  0  0  0
  6 23  1  0  0  0  0
  7  8  1  0  0  0  0
  8 10  1  0  0  0  0
  9 13  1  0  0  0  0
 10 28  1  0  0  0  0
 10 26  2  0  0  0  0
 12 25  1  0  0  0  0
 13 26  1  0  0  0  0
 14  8  1  0  0  0  0
 14  9  1  0  0  0  0
 15 11  2  0  0  0  0
 16 28  1  0  0  0  0
 16  1  2  0  0  0  0
 17  3  2  0  0  0  0
 18  9  2  0  0  0  0
 19 15  1  0  0  0  0
 20 16  1  0  0  0  0
 21  1  1  0  0  0  0
 22 21  2  0  0  0  0
 23 15  1  0  0  0  0
 24 12  1  0  0  0  0
 24  5  1  0  0  0  0
 25 19  1  0  0  0  0
 25 17  1  0  0  0  0
 26 24  1  0  0  0  0
 28 12  1  0  0  0  0
M  END
>  <MODEL>
8

>  <REMARK>
 VINA RESULT:      -7.7      1.941      4.986
  Name = 
  0 active torsions:
  status: ('A' for Active; 'I' for Inactive)
                            x       y       z     vdW  Elec       q    Type
                         _______ _______ _______ _____ _____    ______ ____

>  <TORSDO>
F 0

$$$$
=
 OpenBabel11112417353D

 28 32  0  0  1  0  0  0  0  0999 V2000
  191.9840  173.8860  143.4560 C   0  0  0  0  0  0  0  0  0  0  0  0
  188.6340  175.2650  140.8190 O   0  0  0  0  0  1  0  0  0  0  0  0
  190.8760  176.9570  148.0070 O   0  0  0  0  0  0  0  0  0  0  0  0
  190.1000  171.9100  144.0940 C   0  0  0  0  0  3  0  0  0  0  0  0
  189.2660  177.3750  146.3270 N   0  0  0  0  0  0  0  0  0  0  0  0
  193.0260  174.9260  143.1670 C   0  0  0  0  0  2  0  0  0  0  0  0
  187.3210  174.1310  142.2900 O   0  0  0  0  0  1  0  0  0  0  0  0
  187.8520  175.3810  141.9690 C   0  0  0  0  0  0  0  0  0  0  0  0
  186.1610  177.0960  142.7610 C   0  0  0  0  0  0  0  0  0  0  0  0
  188.6950  175.8760  143.1160 C   0  0  0  0  0  0  0  0  0  0  0  0
  194.5390  175.8680  146.3860 O   0  0  0  0  0  0  0  0  0  0  0  0
  190.3920  176.4560  144.5680 C   0  0  1  0  0  3  0  0  0  0  0  0
  186.7710  177.1140  144.1330 C   0  0  0  0  0  2  0  0  0  0  0  0
  186.7520  176.3120  141.7140 N   0  0  0  0  0  2  0  0  0  0  0  0
  193.7480  175.9330  145.4100 C   0  0  0  0  0  0  0  0  0  0  0  0
  190.6120  174.2210  143.5290 C   0  0  0  0  0  0  0  0  0  0  0  0
  190.5210  176.8940  146.8010 C   0  0  0  0  0  0  0  0  0  0  0  0
  185.1260  177.7710  142.5280 O   0  0  0  0  0  0  0  0  0  0  0  0
  192.6330  176.9300  145.4550 C   0  0  0  0  0  2  0  0  0  0  0  0
  189.6850  173.2260  143.8760 C   0  0  0  0  0  3  0  0  0  0  0  0
  192.3880  172.5620  143.6690 C   0  0  0  0  0  3  0  0  0  0  0  0
  191.4510  171.5780  143.9840 C   0  0  0  0  0  3  0  0  0  0  0  0
  193.9450  175.0580  144.2930 N   0  0  0  0  0  2  0  0  0  0  0  0
  189.2850  177.0430  144.9490 C   0  0  1  0  0  3  0  0  0  0  0  0
  191.3170  176.2240  145.7190 C   0  0  2  0  0  3  0  0  0  0  0  0
  188.2010  176.6760  144.0600 C   0  0  0  0  0  0  0  0  0  0  0  0
  188.0780  177.5600  147.1420 C   0  0  0  0  0  1  0  0  0  0  0  0
  190.1810  175.6550  143.3220 C   0  0  1  0  0  3  0  0  0  0  0  0
  1 16  2  0  0  0  0
  1 21  1  0  0  0  0
  2  8  1  0  0  0  0
  5 17  1  0  0  0  0
  5 27  1  0  0  0  0
  6  1  1  0  0  0  0
  6 23  1  0  0  0  0
  8  7  1  0  0  0  0
  8 10  1  0  0  0  0
  9 13  1  0  0  0  0
 10 28  1  0  0  0  0
 10 26  2  0  0  0  0
 12 24  1  0  0  0  0
 12 25  1  0  0  0  0
 14  8  1  0  0  0  0
 14  9  1  0  0  0  0
 15 19  1  0  0  0  0
 15 11  2  0  0  0  0
 16 20  1  0  0  0  0
 17  3  2  0  0  0  0
 18  9  2  0  0  0  0
 19 25  1  0  0  0  0
 20  4  2  0  0  0  0
 21 22  2  0  0  0  0
 22  4  1  0  0  0  0
 23 15  1  0  0  0  0
 24  5  1  0  0  0  0
 25 17  1  0  0  0  0
 26 13  1  0  0  0  0
 26 24  1  0  0  0  0
 28 16  1  0  0  0  0
 28 12  1  0  0  0  0
M  END
>  <MODEL>
9

>  <REMARK>
 VINA RESULT:      -7.5      2.415      5.074
  Name = 
  0 active torsions:
  status: ('A' for Active; 'I' for Inactive)
                            x       y       z     vdW  Elec       q    Type
                         _______ _______ _______ _____ _____    ______ ____

>  <TORSDO>
F 0

$$$$
