=
 OpenBabel11112418083D

 34 40  0  0  1  0  0  0  0  0999 V2000
  189.3770  174.5380  142.9630 N   0  0  1  0  0  0  0  0  0  0  0  0
  191.6570  173.5110  143.2370 C   0  0  0  0  0  2  0  0  0  0  0  0
  185.1230  179.1780  144.7270 C   0  0  1  0  0  3  0  0  0  0  0  0
  187.2800  175.8040  142.6850 C   0  0  2  0  0  3  0  0  0  0  0  0
  186.3570  176.8600  144.7610 C   0  0  2  0  0  3  0  0  0  0  0  0
  185.6270  178.0420  146.9200 C   0  0  0  0  0  1  0  0  0  0  0  0
  186.3070  179.8190  144.3320 O   0  0  0  0  0  1  0  0  0  0  0  0
  184.7930  178.6180  142.4930 C   0  0  0  0  0  2  0  0  0  0  0  0
  190.5100  174.4050  145.0930 C   0  0  2  0  0  3  0  0  0  0  0  0
  192.0700  175.8960  147.4660 C   0  0  0  0  0  2  0  0  0  0  0  0
  187.6900  176.9110  145.3660 N   0  0  0  0  0  2  0  0  0  0  0  0
  185.1390  177.1370  142.5390 C   0  0  0  0  0  2  0  0  0  0  0  0
  189.7580  175.6000  145.6840 C   0  0  1  0  0  3  0  0  0  0  0  0
  192.6360  173.4740  144.4090 C   0  0  0  0  0  2  0  0  0  0  0  0
  186.4840  176.9910  143.2300 C   0  0  2  0  0  3  0  0  0  0  0  0
  184.1740  179.0490  143.6840 O   0  0  0  0  0  0  0  0  0  0  0  0
  192.6670  175.3170  146.1660 C   0  0  1  0  0  3  0  0  0  0  0  0
  188.6220  175.7180  143.4280 C   0  0  1  0  0  3  0  0  0  0  0  0
  185.3700  177.8420  145.4350 C   0  0  1  0  0  3  0  0  0  0  0  0
  188.4050  175.7010  144.9610 C   0  0  2  0  0  3  0  0  0  0  0  0
  188.1730  174.8090  140.8480 C   0  0  0  0  0  2  0  0  0  0  0  0
  190.8350  175.1540  147.9850 C   0  0  0  0  0  2  0  0  0  0  0  0
  187.5290  175.9760  141.3080 O   0  0  0  0  0  0  0  0  0  0  0  0
  189.5570  175.4790  147.1990 C   0  0  0  0  0  2  0  0  0  0  0  0
  191.9110  174.0910  145.6080 C   0  0  1  0  0  3  0  0  0  0  0  0
  189.5490  174.6700  141.5140 C   0  0  0  0  0  2  0  0  0  0  0  0
  190.6870  174.6120  143.6120 C   0  0  2  0  0  3  0  0  0  0  0  0
  192.7680  176.3310  145.2070 O   0  0  0  0  0  0  0  0  0  0  0  0
  194.0000  176.9430  145.4490 C   0  0  0  0  0  2  0  0  0  0  0  0
  195.8960  174.7120  143.4370 C   0  0  0  0  0  2  0  0  0  0  0  0
  194.1500  176.2870  143.0640 C   0  0  0  0  0  2  0  0  0  0  0  0
  194.9410  176.6780  144.2880 C   0  0  2  0  0  3  0  0  0  0  0  0
  195.0580  175.3350  142.3430 C   0  0  0  0  0  2  0  0  0  0  0  0
  195.8470  175.5820  144.6090 N   0  0  0  0  0  2  0  0  0  0  0  0
  1 26  1  6  0  0  0
  1 18  1  0  0  0  0
  1 27  1  0  0  0  0
  2 27  1  0  0  0  0
  2 14  1  0  0  0  0
  3  7  1  6  0  0  0
  3 19  1  0  0  0  0
  4 23  1  6  0  0  0
  4 15  1  0  0  0  0
  4 18  1  0  0  0  0
  5 11  1  1  0  0  0
  5 19  1  0  0  0  0
  8 12  1  0  0  0  0
  8 16  1  0  0  0  0
  9 25  1  0  0  0  0
  9 13  1  0  0  0  0
 10 22  1  0  0  0  0
 12 15  1  0  0  0  0
 13 24  1  0  0  0  0
 14 25  1  0  0  0  0
 15  5  1  0  0  0  0
 16  3  1  0  0  0  0
 17 10  1  0  0  0  0
 18 20  1  0  0  0  0
 19  6  1  0  0  0  0
 20 11  1  0  0  0  0
 20 13  1  0  0  0  0
 21 23  1  0  0  0  0
 21 26  1  0  0  0  0
 24 22  1  0  0  0  0
 25 17  1  0  0  0  0
 27  9  1  0  0  0  0
 28 29  1  0  0  0  0
 28 17  1  0  0  0  0
 30 34  1  0  0  0  0
 31 32  1  0  0  0  0
 32 34  1  0  0  0  0
 32 29  1  0  0  0  0
 33 31  1  0  0  0  0
 33 30  1  0  0  0  0
M  END
>  <MODEL>
1

>  <REMARK>
 VINA RESULT:      -8.2      0.000      0.000
  Name = 
  3 active torsions:
  status: ('A' for Active; 'I' for Inactive)
    1  A    between atoms: C_17  and  O_28
    2  A    between atoms: O_28  and  C_29
    3  A    between atoms: C_29  and  C_32
                            x       y       z     vdW  Elec       q    Type
                         _______ _______ _______ _____ _____    ______ ____

>  <TORSDO>
F 3

$$$$
=
 OpenBabel11112418083D

 34 40  0  0  1  0  0  0  0  0999 V2000
  192.1430  173.5270  142.6540 N   0  0  1  0  0  0  0  0  0  0  0  0
  194.5110  172.9810  143.3030 C   0  0  0  0  0  2  0  0  0  0  0  0
  187.3280  177.9410  142.3970 C   0  0  1  0  0  3  0  0  0  0  0  0
  189.9300  174.3090  141.9000 C   0  0  2  0  0  3  0  0  0  0  0  0
  188.8120  176.0040  143.3680 C   0  0  2  0  0  3  0  0  0  0  0  0
  187.8680  177.8700  144.8580 C   0  0  0  0  0  1  0  0  0  0  0  0
  188.4460  178.5000  141.7610 O   0  0  0  0  0  1  0  0  0  0  0  0
  187.1520  176.4810  140.5930 C   0  0  0  0  0  2  0  0  0  0  0  0
  193.1980  174.4130  144.6380 C   0  0  2  0  0  3  0  0  0  0  0  0
  194.4850  176.9180  146.1740 C   0  0  0  0  0  2  0  0  0  0  0  0
  190.1050  176.4570  143.8850 N   0  0  0  0  0  2  0  0  0  0  0  0
  187.6600  175.2010  141.2410 C   0  0  0  0  0  2  0  0  0  0  0  0
  192.2940  175.6470  144.6930 C   0  0  1  0  0  3  0  0  0  0  0  0
  195.4410  173.5430  144.3770 C   0  0  0  0  0  2  0  0  0  0  0  0
  188.9850  175.5110  141.9180 C   0  0  2  0  0  3  0  0  0  0  0  0
  186.4410  177.2840  141.5080 O   0  0  0  0  0  0  0  0  0  0  0  0
  195.1940  175.9340  145.2210 C   0  0  1  0  0  3  0  0  0  0  0  0
  191.2420  174.6950  142.6000 C   0  0  1  0  0  3  0  0  0  0  0  0
  187.6950  177.0510  143.5890 C   0  0  1  0  0  3  0  0  0  0  0  0
  190.9680  175.2810  144.0060 C   0  0  2  0  0  3  0  0  0  0  0  0
  191.0020  172.7640  140.6260 C   0  0  0  0  0  2  0  0  0  0  0  0
  193.3210  176.3120  146.9640 C   0  0  0  0  0  2  0  0  0  0  0  0
  190.2130  173.9300  140.5720 O   0  0  0  0  0  0  0  0  0  0  0  0
  192.0470  176.1330  146.1270 C   0  0  0  0  0  2  0  0  0  0  0  0
  194.6040  174.5060  145.2230 C   0  0  1  0  0  3  0  0  0  0  0  0
  192.3570  173.0740  141.2770 C   0  0  0  0  0  2  0  0  0  0  0  0
  193.4100  174.0150  143.2020 C   0  0  2  0  0  3  0  0  0  0  0  0
  195.2180  176.4710  143.9290 O   0  0  0  0  0  0  0  0  0  0  0  0
  196.5630  176.7480  143.6720 C   0  0  0  0  0  2  0  0  0  0  0  0
  196.9480  174.5560  140.9030 C   0  0  0  0  0  2  0  0  0  0  0  0
  195.5810  176.4350  141.4190 C   0  0  0  0  0  2  0  0  0  0  0  0
  196.8660  176.5050  142.2050 C   0  0  2  0  0  3  0  0  0  0  0  0
  195.8890  175.4630  140.3190 C   0  0  0  0  0  2  0  0  0  0  0  0
  197.5690  175.2400  142.0340 N   0  0  0  0  0  2  0  0  0  0  0  0
  1 26  1  6  0  0  0
  1 27  1  0  0  0  0
  2 14  1  0  0  0  0
  3  7  1  6  0  0  0
  3 19  1  0  0  0  0
  4 23  1  6  0  0  0
  4 15  1  0  0  0  0
  4 18  1  0  0  0  0
  5 19  1  0  0  0  0
  5 11  1  6  0  0  0
  8 12  1  0  0  0  0
  8 16  1  0  0  0  0
  9 13  1  0  0  0  0
  9 25  1  0  0  0  0
 10 22  1  0  0  0  0
 11 20  1  0  0  0  0
 12 15  1  0  0  0  0
 13 24  1  0  0  0  0
 14 25  1  0  0  0  0
 15  5  1  0  0  0  0
 16  3  1  0  0  0  0
 17 25  1  0  0  0  0
 17 10  1  0  0  0  0
 18  1  1  0  0  0  0
 18 20  1  0  0  0  0
 19  6  1  0  0  0  0
 20 13  1  0  0  0  0
 21 26  1  0  0  0  0
 23 21  1  0  0  0  0
 24 22  1  0  0  0  0
 27  2  1  0  0  0  0
 27  9  1  0  0  0  0
 28 17  1  0  0  0  0
 29 28  1  0  0  0  0
 30 34  1  0  0  0  0
 31 32  1  0  0  0  0
 32 29  1  0  0  0  0
 33 30  1  0  0  0  0
 33 31  1  0  0  0  0
 34 32  1  0  0  0  0
M  END
>  <MODEL>
2

>  <REMARK>
 VINA RESULT:      -7.6      2.099      3.021
  Name = 
  3 active torsions:
  status: ('A' for Active; 'I' for Inactive)
    1  A    between atoms: C_17  and  O_28
    2  A    between atoms: O_28  and  C_29
    3  A    between atoms: C_29  and  C_32
                            x       y       z     vdW  Elec       q    Type
                         _______ _______ _______ _____ _____    ______ ____

>  <TORSDO>
F 3

$$$$
=
 OpenBabel11112418083D

 34 40  0  0  1  0  0  0  0  0999 V2000
  189.1590  174.6120  141.0370 N   0  0  1  0  0  0  0  0  0  0  0  0
  187.3860  176.3770  141.2930 C   0  0  0  0  0  2  0  0  0  0  0  0
  194.0040  171.1670  143.7560 C   0  0  1  0  0  3  0  0  0  0  0  0
  190.8010  172.7730  141.0420 C   0  0  2  0  0  3  0  0  0  0  0  0
  192.8380  173.1290  142.4580 C   0  0  2  0  0  3  0  0  0  0  0  0
  194.7750  173.5440  144.0910 C   0  0  0  0  0  1  0  0  0  0  0  0
  192.8670  171.0020  144.5600 O   0  0  0  0  0  1  0  0  0  0  0  0
  192.9340  169.8770  142.1430 C   0  0  0  0  0  2  0  0  0  0  0  0
  189.4620  176.5920  142.3880 C   0  0  2  0  0  3  0  0  0  0  0  0
  189.6910  177.9160  145.3010 C   0  0  0  0  0  2  0  0  0  0  0  0
  192.1100  174.0580  143.3260 N   0  0  0  0  0  2  0  0  0  0  0  0
  192.5610  170.9630  141.1430 C   0  0  0  0  0  2  0  0  0  0  0  0
  190.5110  175.9400  143.2920 C   0  0  1  0  0  3  0  0  0  0  0  0
  187.2670  177.5940  142.2100 C   0  0  0  0  0  2  0  0  0  0  0  0
  191.8580  172.0770  141.9010 C   0  0  2  0  0  3  0  0  0  0  0  0
  194.1600  170.1520  142.7810 O   0  0  0  0  0  0  0  0  0  0  0  0
  188.4070  177.6500  144.4860 C   0  0  1  0  0  3  0  0  0  0  0  0
  190.1360  173.8830  141.8700 C   0  0  1  0  0  3  0  0  0  0  0  0
  194.1070  172.5650  143.1380 C   0  0  1  0  0  3  0  0  0  0  0  0
  191.1980  174.8300  142.4810 C   0  0  2  0  0  3  0  0  0  0  0  0
  188.9330  172.5270  139.7730 C   0  0  0  0  0  2  0  0  0  0  0  0
  190.9340  178.2030  144.4540 C   0  0  0  0  0  2  0  0  0  0  0  0
  189.8150  171.8490  140.6380 O   0  0  0  0  0  0  0  0  0  0  0  0
  191.5420  176.9450  143.8200 C   0  0  0  0  0  2  0  0  0  0  0  0
  188.5990  177.7140  142.9550 C   0  0  1  0  0  3  0  0  0  0  0  0
  188.1910  173.6320  140.5380 C   0  0  0  0  0  2  0  0  0  0  0  0
  188.4780  175.5470  141.9330 C   0  0  2  0  0  3  0  0  0  0  0  0
  187.8520  176.4260  144.8780 O   0  0  0  0  0  0  0  0  0  0  0  0
  187.9670  176.4000  146.2690 C   0  0  0  0  0  2  0  0  0  0  0  0
  185.4740  178.7620  147.1740 C   0  0  0  0  0  2  0  0  0  0  0  0
  185.5580  176.7910  145.8420 C   0  0  0  0  0  2  0  0  0  0  0  0
  186.6310  176.7400  146.9020 C   0  0  2  0  0  3  0  0  0  0  0  0
  184.6090  177.8380  146.3460 C   0  0  0  0  0  2  0  0  0  0  0  0
  186.6910  178.0470  147.5450 N   0  0  0  0  0  2  0  0  0  0  0  0
  1 26  1  1  0  0  0
  1 18  1  0  0  0  0
  1 27  1  0  0  0  0
  2 27  1  0  0  0  0
  2 14  1  0  0  0  0
  3  7  1  6  0  0  0
  4 23  1  1  0  0  0
  4 18  1  0  0  0  0
  4 15  1  0  0  0  0
  5 19  1  0  0  0  0
  5 11  1  1  0  0  0
  8 16  1  0  0  0  0
  9 25  1  0  0  0  0
  9 13  1  0  0  0  0
 12 15  1  0  0  0  0
 12  8  1  0  0  0  0
 13 24  1  0  0  0  0
 14 25  1  0  0  0  0
 15  5  1  0  0  0  0
 16  3  1  0  0  0  0
 17 28  1  0  0  0  0
 17 10  1  0  0  0  0
 18 20  1  0  0  0  0
 19  3  1  0  0  0  0
 19  6  1  0  0  0  0
 20 13  1  0  0  0  0
 20 11  1  0  0  0  0
 21 26  1  0  0  0  0
 21 23  1  0  0  0  0
 22 10  1  0  0  0  0
 24 22  1  0  0  0  0
 25 17  1  0  0  0  0
 27  9  1  0  0  0  0
 28 29  1  0  0  0  0
 29 32  1  0  0  0  0
 30 34  1  0  0  0  0
 31 33  1  0  0  0  0
 31 32  1  0  0  0  0
 32 34  1  0  0  0  0
 33 30  1  0  0  0  0
M  END
>  <MODEL>
3

>  <REMARK>
 VINA RESULT:      -7.3      2.675      7.563
  Name = 
  3 active torsions:
  status: ('A' for Active; 'I' for Inactive)
    1  A    between atoms: C_17  and  O_28
    2  A    between atoms: O_28  and  C_29
    3  A    between atoms: C_29  and  C_32
                            x       y       z     vdW  Elec       q    Type
                         _______ _______ _______ _____ _____    ______ ____

>  <TORSDO>
F 3

$$$$
=
 OpenBabel11112418083D

 34 40  0  0  1  0  0  0  0  0999 V2000
  192.0440  176.6460  146.2740 N   0  0  1  0  0  0  0  0  0  0  0  0
  194.3700  175.7200  146.5130 C   0  0  0  0  0  2  0  0  0  0  0  0
  186.4770  176.8740  142.8530 C   0  0  1  0  0  3  0  0  0  0  0  0
  189.6780  177.2780  145.9830 C   0  0  2  0  0  3  0  0  0  0  0  0
  188.9000  177.5410  143.6160 C   0  0  2  0  0  3  0  0  0  0  0  0
  188.1910  177.5910  141.1490 C   0  0  0  0  0  1  0  0  0  0  0  0
  186.7420  175.5260  143.1380 O   0  0  0  0  0  1  0  0  0  0  0  0
  186.0210  177.1650  145.1160 C   0  0  0  0  0  2  0  0  0  0  0  0
  193.4890  176.2210  144.3850 C   0  0  2  0  0  3  0  0  0  0  0  0
  194.1910  174.4320  141.8170 C   0  0  0  0  0  2  0  0  0  0  0  0
  189.9400  176.6260  143.1390 N   0  0  0  0  0  2  0  0  0  0  0  0
  187.2740  177.9160  145.5430 C   0  0  0  0  0  2  0  0  0  0  0  0
  192.3270  176.0510  143.4030 C   0  0  1  0  0  3  0  0  0  0  0  0
  195.3840  175.2040  145.4930 C   0  0  0  0  0  2  0  0  0  0  0  0
  188.4800  177.1380  145.0430 C   0  0  2  0  0  3  0  0  0  0  0  0
  185.6320  177.4990  143.8030 O   0  0  0  0  0  0  0  0  0  0  0  0
  194.6350  174.1980  143.2760 C   0  0  1  0  0  3  0  0  0  0  0  0
  190.8550  176.4690  145.4160 C   0  0  1  0  0  3  0  0  0  0  0  0
  187.7450  177.6960  142.5980 C   0  0  1  0  0  3  0  0  0  0  0  0
  191.1380  176.8610  143.9460 C   0  0  2  0  0  3  0  0  0  0  0  0
  190.4600  177.0300  148.1020 C   0  0  0  0  0  2  0  0  0  0  0  0
  193.9930  175.9030  141.4400 C   0  0  0  0  0  2  0  0  0  0  0  0
  189.3550  176.7810  147.2630 O   0  0  0  0  0  0  0  0  0  0  0  0
  192.6860  176.4980  141.9810 C   0  0  0  0  0  2  0  0  0  0  0  0
  194.7980  175.4900  144.1080 C   0  0  1  0  0  3  0  0  0  0  0  0
  191.6750  176.2210  147.6270 C   0  0  0  0  0  2  0  0  0  0  0  0
  193.0650  175.7390  145.7470 C   0  0  2  0  0  3  0  0  0  0  0  0
  193.7540  173.3050  143.8940 O   0  0  0  0  0  0  0  0  0  0  0  0
  193.2000  172.5570  142.8530 C   0  0  0  0  0  2  0  0  0  0  0  0
  190.1700  173.0860  144.6290 C   0  0  0  0  0  2  0  0  0  0  0  0
  190.7980  172.8820  142.3420 C   0  0  0  0  0  2  0  0  0  0  0  0
  191.7850  172.1450  143.2130 C   0  0  2  0  0  3  0  0  0  0  0  0
  189.6000  173.0540  143.2300 C   0  0  0  0  0  2  0  0  0  0  0  0
  191.4960  172.4770  144.6030 N   0  0  0  0  0  2  0  0  0  0  0  0
  1 26  1  1  0  0  0
  3  7  1  1  0  0  0
  3 16  1  0  0  0  0
  4 23  1  1  0  0  0
  5 11  1  6  0  0  0
  5 15  1  0  0  0  0
  6 19  1  0  0  0  0
  8 12  1  0  0  0  0
  9 27  1  0  0  0  0
 10 17  1  0  0  0  0
 11 20  1  0  0  0  0
 13 20  1  0  0  0  0
 13  9  1  0  0  0  0
 14  2  1  0  0  0  0
 15 12  1  0  0  0  0
 15  4  1  0  0  0  0
 16  8  1  0  0  0  0
 17 28  1  0  0  0  0
 17 25  1  0  0  0  0
 18  4  1  0  0  0  0
 18  1  1  0  0  0  0
 19  3  1  0  0  0  0
 19  5  1  0  0  0  0
 20 18  1  0  0  0  0
 22 10  1  0  0  0  0
 22 24  1  0  0  0  0
 23 21  1  0  0  0  0
 24 13  1  0  0  0  0
 25  9  1  0  0  0  0
 25 14  1  0  0  0  0
 26 21  1  0  0  0  0
 27  1  1  0  0  0  0
 27  2  1  0  0  0  0
 29 32  1  0  0  0  0
 29 28  1  0  0  0  0
 31 32  1  0  0  0  0
 31 33  1  0  0  0  0
 32 34  1  0  0  0  0
 33 30  1  0  0  0  0
 34 30  1  0  0  0  0
M  END
>  <MODEL>
4

>  <REMARK>
 VINA RESULT:      -7.2      2.024      4.753
  Name = 
  3 active torsions:
  status: ('A' for Active; 'I' for Inactive)
    1  A    between atoms: C_17  and  O_28
    2  A    between atoms: O_28  and  C_29
    3  A    between atoms: C_29  and  C_32
                            x       y       z     vdW  Elec       q    Type
                         _______ _______ _______ _____ _____    ______ ____

>  <TORSDO>
F 3

$$$$
=
 OpenBabel11112418083D

 34 40  0  0  1  0  0  0  0  0999 V2000
  191.9020  175.7790  145.6870 N   0  0  1  0  0  0  0  0  0  0  0  0
  189.4900  176.1010  146.3220 C   0  0  0  0  0  2  0  0  0  0  0  0
  196.4360  175.6190  140.9800 C   0  0  1  0  0  3  0  0  0  0  0  0
  194.2370  175.7060  144.9000 C   0  0  2  0  0  3  0  0  0  0  0  0
  194.5930  174.7230  142.6220 C   0  0  2  0  0  3  0  0  0  0  0  0
  194.7910  173.8710  140.2090 C   0  0  0  0  0  1  0  0  0  0  0  0
  195.7750  176.8530  140.8870 O   0  0  0  0  0  1  0  0  0  0  0  0
  197.3870  176.3850  142.9610 C   0  0  0  0  0  2  0  0  0  0  0  0
  190.0680  175.0300  144.3030 C   0  0  2  0  0  3  0  0  0  0  0  0
  188.3090  175.3990  141.6470 C   0  0  0  0  0  2  0  0  0  0  0  0
  193.2280  175.0750  142.2230 N   0  0  0  0  0  2  0  0  0  0  0  0
  196.5820  175.5770  143.9690 C   0  0  0  0  0  2  0  0  0  0  0  0
  190.8880  175.0820  143.0110 C   0  0  1  0  0  3  0  0  0  0  0  0
  188.1850  175.8890  145.5550 C   0  0  0  0  0  2  0  0  0  0  0  0
  195.1080  175.7570  143.6440 C   0  0  2  0  0  3  0  0  0  0  0  0
  197.6100  175.6640  141.7700 O   0  0  0  0  0  0  0  0  0  0  0  0
  188.0980  176.0770  143.0170 C   0  0  1  0  0  3  0  0  0  0  0  0
  192.7670  175.8930  144.4960 C   0  0  1  0  0  3  0  0  0  0  0  0
  195.5130  174.4720  141.4040 C   0  0  1  0  0  3  0  0  0  0  0  0
  192.3650  174.8870  143.3900 C   0  0  2  0  0  3  0  0  0  0  0  0
  193.8360  176.5740  146.9600 C   0  0  0  0  0  2  0  0  0  0  0  0
  188.9350  174.0030  141.7170 C   0  0  0  0  0  2  0  0  0  0  0  0
  194.6030  176.7380  145.7890 O   0  0  0  0  0  0  0  0  0  0  0  0
  190.4440  174.0270  141.9900 C   0  0  0  0  0  2  0  0  0  0  0  0
  188.5590  175.2310  144.2250 C   0  0  1  0  0  3  0  0  0  0  0  0
  192.3490  176.7890  146.6510 C   0  0  0  0  0  2  0  0  0  0  0  0
  190.5470  176.1080  145.2400 C   0  0  2  0  0  3  0  0  0  0  0  0
  188.7100  177.3350  143.0140 O   0  0  0  0  0  0  0  0  0  0  0  0
  187.7350  178.2170  142.5430 C   0  0  0  0  0  2  0  0  0  0  0  0
  184.8830  179.4510  144.2640 C   0  0  0  0  0  2  0  0  0  0  0  0
  185.2680  178.1110  142.3340 C   0  0  0  0  0  2  0  0  0  0  0  0
  186.4320  177.9860  143.2860 C   0  0  2  0  0  3  0  0  0  0  0  0
  184.1670  178.6640  143.1900 C   0  0  0  0  0  2  0  0  0  0  0  0
  186.2640  178.9820  144.3370 N   0  0  0  0  0  2  0  0  0  0  0  0
  1 26  1  1  0  0  0
  3  7  1  1  0  0  0
  3 19  1  0  0  0  0
  3 16  1  0  0  0  0
  4 23  1  1  0  0  0
  5 11  1  6  0  0  0
  5 15  1  0  0  0  0
  6 19  1  0  0  0  0
  8 12  1  0  0  0  0
  9 27  1  0  0  0  0
 10 22  1  0  0  0  0
 10 17  1  0  0  0  0
 11 20  1  0  0  0  0
 13 20  1  0  0  0  0
 13  9  1  0  0  0  0
 14  2  1  0  0  0  0
 15 12  1  0  0  0  0
 15  4  1  0  0  0  0
 16  8  1  0  0  0  0
 17 25  1  0  0  0  0
 18  4  1  0  0  0  0
 18  1  1  0  0  0  0
 19  5  1  0  0  0  0
 20 18  1  0  0  0  0
 22 24  1  0  0  0  0
 23 21  1  0  0  0  0
 24 13  1  0  0  0  0
 25  9  1  0  0  0  0
 25 14  1  0  0  0  0
 26 21  1  0  0  0  0
 27  1  1  0  0  0  0
 27  2  1  0  0  0  0
 28 17  1  0  0  0  0
 29 28  1  0  0  0  0
 29 32  1  0  0  0  0
 30 34  1  0  0  0  0
 31 33  1  0  0  0  0
 31 32  1  0  0  0  0
 32 34  1  0  0  0  0
 33 30  1  0  0  0  0
M  END
>  <MODEL>
5

>  <REMARK>
 VINA RESULT:      -7.2      2.146      8.332
  Name = 
  3 active torsions:
  status: ('A' for Active; 'I' for Inactive)
    1  A    between atoms: C_17  and  O_28
    2  A    between atoms: O_28  and  C_29
    3  A    between atoms: C_29  and  C_32
                            x       y       z     vdW  Elec       q    Type
                         _______ _______ _______ _____ _____    ______ ____

>  <TORSDO>
F 3

$$$$
=
 OpenBabel11112418083D

 34 40  0  0  1  0  0  0  0  0999 V2000
  189.7690  172.5220  142.8820 N   0  0  1  0  0  0  0  0  0  0  0  0
  190.0530  173.4260  145.2120 C   0  0  0  0  0  2  0  0  0  0  0  0
  189.3270  173.7200  136.4710 C   0  0  1  0  0  3  0  0  0  0  0  0
  189.7120  171.8110  140.5220 C   0  0  2  0  0  3  0  0  0  0  0  0
  188.5240  173.3530  138.9440 C   0  0  2  0  0  3  0  0  0  0  0  0
  187.4450  175.1090  137.4130 C   0  0  0  0  0  1  0  0  0  0  0  0
  190.5180  174.3040  136.9280 O   0  0  0  0  0  1  0  0  0  0  0  0
  190.3230  171.6460  136.8150 C   0  0  0  0  0  2  0  0  0  0  0  0
  188.8120  174.6200  143.6020 C   0  0  2  0  0  3  0  0  0  0  0  0
  188.8440  177.8260  143.5020 C   0  0  0  0  0  2  0  0  0  0  0  0
  188.7780  174.4980  139.8220 N   0  0  0  0  0  2  0  0  0  0  0  0
  189.5870  171.2060  138.0730 C   0  0  0  0  0  2  0  0  0  0  0  0
  188.7690  175.2040  142.1880 C   0  0  1  0  0  3  0  0  0  0  0  0
  189.7140  174.7760  145.8420 C   0  0  0  0  0  2  0  0  0  0  0  0
  189.6740  172.3350  139.0860 C   0  0  2  0  0  3  0  0  0  0  0  0
  189.4970  172.4080  135.9650 O   0  0  0  0  0  0  0  0  0  0  0  0
  189.6450  176.9060  144.4480 C   0  0  1  0  0  3  0  0  0  0  0  0
  189.7980  173.0040  141.4870 C   0  0  1  0  0  3  0  0  0  0  0  0
  188.1910  173.7860  137.4970 C   0  0  1  0  0  3  0  0  0  0  0  0
  188.6730  174.0270  141.2030 C   0  0  2  0  0  3  0  0  0  0  0  0
  190.7640  170.4600  142.0150 C   0  0  0  0  0  2  0  0  0  0  0  0
  187.4880  177.2640  143.0650 C   0  0  0  0  0  2  0  0  0  0  0  0
  190.8410  170.9870  140.7100 O   0  0  0  0  0  0  0  0  0  0  0  0
  187.6010  176.1770  141.9880 C   0  0  0  0  0  2  0  0  0  0  0  0
  188.9430  175.5730  144.7860 C   0  0  1  0  0  3  0  0  0  0  0  0
  190.8860  171.5880  143.0470 C   0  0  0  0  0  2  0  0  0  0  0  0
  189.9960  173.6980  143.7240 C   0  0  2  0  0  3  0  0  0  0  0  0
  190.9210  176.6880  143.9160 O   0  0  0  0  0  0  0  0  0  0  0  0
  191.7640  177.5500  144.6200 C   0  0  0  0  0  2  0  0  0  0  0  0
  193.3200  174.9750  146.5090 C   0  0  0  0  0  2  0  0  0  0  0  0
  193.2070  175.5780  144.2090 C   0  0  0  0  0  2  0  0  0  0  0  0
  193.0050  176.8000  145.0700 C   0  0  2  0  0  3  0  0  0  0  0  0
  193.8360  174.5850  145.1420 C   0  0  0  0  0  2  0  0  0  0  0  0
  192.8580  176.3590  146.4520 N   0  0  0  0  0  2  0  0  0  0  0  0
  1 26  1  6  0  0  0
  1 27  1  0  0  0  0
  2 14  1  0  0  0  0
  3  7  1  1  0  0  0
  3 19  1  0  0  0  0
  4 23  1  6  0  0  0
  4 18  1  0  0  0  0
  5 15  1  0  0  0  0
  5 11  1  1  0  0  0
  6 19  1  0  0  0  0
  8 12  1  0  0  0  0
  9 27  1  0  0  0  0
  9 25  1  0  0  0  0
 10 17  1  0  0  0  0
 11 20  1  0  0  0  0
 12 15  1  0  0  0  0
 13  9  1  0  0  0  0
 15  4  1  0  0  0  0
 16  3  1  0  0  0  0
 16  8  1  0  0  0  0
 17 25  1  0  0  0  0
 18  1  1  0  0  0  0
 19  5  1  0  0  0  0
 20 18  1  0  0  0  0
 20 13  1  0  0  0  0
 21 26  1  0  0  0  0
 22 10  1  0  0  0  0
 23 21  1  0  0  0  0
 24 13  1  0  0  0  0
 24 22  1  0  0  0  0
 25 14  1  0  0  0  0
 27  2  1  0  0  0  0
 28 17  1  0  0  0  0
 28 29  1  0  0  0  0
 29 32  1  0  0  0  0
 31 32  1  0  0  0  0
 31 33  1  0  0  0  0
 32 34  1  0  0  0  0
 33 30  1  0  0  0  0
 34 30  1  0  0  0  0
M  END
>  <MODEL>
6

>  <REMARK>
 VINA RESULT:      -7.1      3.069      6.002
  Name = 
  3 active torsions:
  status: ('A' for Active; 'I' for Inactive)
    1  A    between atoms: C_17  and  O_28
    2  A    between atoms: O_28  and  C_29
    3  A    between atoms: C_29  and  C_32
                            x       y       z     vdW  Elec       q    Type
                         _______ _______ _______ _____ _____    ______ ____

>  <TORSDO>
F 3

$$$$
=
 OpenBabel11112418083D

 34 40  0  0  1  0  0  0  0  0999 V2000
  190.7400  174.8900  142.1750 N   0  0  1  0  0  0  0  0  0  0  0  0
  189.4510  176.9670  142.7690 C   0  0  0  0  0  2  0  0  0  0  0  0
  193.6580  169.3950  144.1830 C   0  0  1  0  0  3  0  0  0  0  0  0
  191.8170  172.7100  141.7680 C   0  0  2  0  0  3  0  0  0  0  0  0
  193.4080  171.9290  143.5390 C   0  0  2  0  0  3  0  0  0  0  0  0
  194.8620  171.1660  145.5130 C   0  0  0  0  0  1  0  0  0  0  0  0
  192.3390  169.3700  144.6590 O   0  0  0  0  0  1  0  0  0  0  0  0
  192.7910  169.0880  142.0460 C   0  0  0  0  0  2  0  0  0  0  0  0
  191.1340  176.1450  144.2020 C   0  0  2  0  0  3  0  0  0  0  0  0
  190.8680  176.3560  147.3920 C   0  0  0  0  0  2  0  0  0  0  0  0
  192.7200  172.7290  144.5550 N   0  0  0  0  0  2  0  0  0  0  0  0
  192.9840  170.4880  141.4800 C   0  0  0  0  0  2  0  0  0  0  0  0
  191.7010  174.9420  144.9590 C   0  0  1  0  0  3  0  0  0  0  0  0
  189.3850  177.8100  144.0420 C   0  0  0  0  0  2  0  0  0  0  0  0
  192.3940  171.4790  142.4690 C   0  0  2  0  0  3  0  0  0  0  0  0
  193.8230  168.7380  142.9390 O   0  0  0  0  0  0  0  0  0  0  0  0
  189.8340  176.7880  146.3310 C   0  0  1  0  0  3  0  0  0  0  0  0
  191.2420  173.6640  142.8270 C   0  0  1  0  0  3  0  0  0  0  0  0
  194.2640  170.8020  144.1630 C   0  0  1  0  0  3  0  0  0  0  0  0
  192.2920  173.9760  143.9200 C   0  0  2  0  0  3  0  0  0  0  0  0
  190.3680  173.4900  140.2020 C   0  0  0  0  0  2  0  0  0  0  0  0
  192.3270  176.4700  146.9400 C   0  0  0  0  0  2  0  0  0  0  0  0
  190.7860  172.3290  140.8850 O   0  0  0  0  0  0  0  0  0  0  0  0
  192.7600  175.3420  145.9940 C   0  0  0  0  0  2  0  0  0  0  0  0
  190.4490  177.2550  144.9930 C   0  0  1  0  0  3  0  0  0  0  0  0
  189.7380  174.4830  141.1870 C   0  0  0  0  0  2  0  0  0  0  0  0
  190.0880  175.6720  143.2270 C   0  0  2  0  0  3  0  0  0  0  0  0
  188.9110  175.7540  146.1320 O   0  0  0  0  0  0  0  0  0  0  0  0
  187.8530  176.0360  147.0000 C   0  0  0  0  0  2  0  0  0  0  0  0
  184.7670  177.6260  146.2530 C   0  0  0  0  0  2  0  0  0  0  0  0
  186.6460  178.1040  147.6320 C   0  0  0  0  0  2  0  0  0  0  0  0
  187.0660  177.2240  146.4820 C   0  0  2  0  0  3  0  0  0  0  0  0
  185.3320  178.6730  147.1850 C   0  0  0  0  0  2  0  0  0  0  0  0
  185.8610  176.7750  145.7940 N   0  0  0  0  0  2  0  0  0  0  0  0
  1 26  1  6  0  0  0
  1 18  1  0  0  0  0
  1 27  1  0  0  0  0
  2 27  1  0  0  0  0
  2 14  1  0  0  0  0
  3  7  1  6  0  0  0
  4 23  1  6  0  0  0
  4 15  1  0  0  0  0
  4 18  1  0  0  0  0
  5 19  1  0  0  0  0
  5 11  1  1  0  0  0
  8 16  1  0  0  0  0
  9 13  1  0  0  0  0
  9 25  1  0  0  0  0
 12  8  1  0  0  0  0
 12 15  1  0  0  0  0
 13 24  1  0  0  0  0
 14 25  1  0  0  0  0
 15  5  1  0  0  0  0
 16  3  1  0  0  0  0
 17 10  1  0  0  0  0
 18 20  1  0  0  0  0
 19  3  1  0  0  0  0
 19  6  1  0  0  0  0
 20 11  1  0  0  0  0
 20 13  1  0  0  0  0
 21 23  1  0  0  0  0
 21 26  1  0  0  0  0
 22 10  1  0  0  0  0
 24 22  1  0  0  0  0
 25 17  1  0  0  0  0
 27  9  1  0  0  0  0
 28 17  1  0  0  0  0
 28 29  1  0  0  0  0
 30 33  1  0  0  0  0
 32 29  1  0  0  0  0
 32 31  1  0  0  0  0
 33 31  1  0  0  0  0
 34 30  1  0  0  0  0
 34 32  1  0  0  0  0
M  END
>  <MODEL>
7

>  <REMARK>
 VINA RESULT:      -7.0      2.967      7.663
  Name = 
  3 active torsions:
  status: ('A' for Active; 'I' for Inactive)
    1  A    between atoms: C_17  and  O_28
    2  A    between atoms: O_28  and  C_29
    3  A    between atoms: C_29  and  C_32
                            x       y       z     vdW  Elec       q    Type
                         _______ _______ _______ _____ _____    ______ ____

>  <TORSDO>
F 3

$$$$
=
 OpenBabel11112418083D

 34 40  0  0  1  0  0  0  0  0999 V2000
  190.9920  172.8020  142.3380 N   0  0  1  0  0  0  0  0  0  0  0  0
  188.5270  173.2580  142.1330 C   0  0  0  0  0  2  0  0  0  0  0  0
  196.7400  174.4170  145.0020 C   0  0  1  0  0  3  0  0  0  0  0  0
  193.3710  172.3820  142.8300 C   0  0  2  0  0  3  0  0  0  0  0  0
  194.7740  174.4130  143.2610 C   0  0  2  0  0  3  0  0  0  0  0  0
  196.0470  176.5580  143.8660 C   0  0  0  0  0  1  0  0  0  0  0  0
  195.8310  174.2130  146.0510 O   0  0  0  0  0  1  0  0  0  0  0  0
  196.6680  172.1220  144.6210 C   0  0  0  0  0  2  0  0  0  0  0  0
  190.0620  175.0320  142.3620 C   0  0  2  0  0  3  0  0  0  0  0  0
  189.3290  177.6800  144.0180 C   0  0  0  0  0  2  0  0  0  0  0  0
  193.5990  175.1700  143.6980 N   0  0  0  0  0  2  0  0  0  0  0  0
  195.8260  172.0930  143.3530 C   0  0  0  0  0  2  0  0  0  0  0  0
  191.2340  175.6230  143.1500 C   0  0  1  0  0  3  0  0  0  0  0  0
  187.6960  174.5290  142.3010 C   0  0  0  0  0  2  0  0  0  0  0  0
  194.5770  172.9220  143.6000 C   0  0  2  0  0  3  0  0  0  0  0  0
  197.4940  173.2630  144.6740 O   0  0  0  0  0  0  0  0  0  0  0  0
  188.4620  176.4160  143.8310 C   0  0  1  0  0  3  0  0  0  0  0  0
  192.1510  173.2670  143.1260 C   0  0  1  0  0  3  0  0  0  0  0  0
  196.0950  175.0420  143.7610 C   0  0  1  0  0  3  0  0  0  0  0  0
  192.4710  174.7580  142.8610 C   0  0  2  0  0  3  0  0  0  0  0  0
  192.0370  170.5900  142.4180 C   0  0  0  0  0  2  0  0  0  0  0  0
  190.2600  177.9920  142.8430 C   0  0  0  0  0  2  0  0  0  0  0  0
  193.0880  171.0600  143.2320 O   0  0  0  0  0  0  0  0  0  0  0  0
  191.5020  177.0910  142.7960 C   0  0  0  0  0  2  0  0  0  0  0  0
  188.6880  175.6800  142.4910 C   0  0  1  0  0  3  0  0  0  0  0  0
  190.7610  171.3980  142.6860 C   0  0  0  0  0  2  0  0  0  0  0  0
  189.8500  173.6020  142.7830 C   0  0  2  0  0  3  0  0  0  0  0  0
  188.6490  175.5580  144.9200 O   0  0  0  0  0  0  0  0  0  0  0  0
  188.1780  176.2640  146.0290 C   0  0  0  0  0  2  0  0  0  0  0  0
  191.2850  175.1770  147.3630 C   0  0  0  0  0  2  0  0  0  0  0  0
  190.0850  177.2310  147.2790 C   0  0  0  0  0  2  0  0  0  0  0  0
  189.1230  176.0720  147.2000 C   0  0  2  0  0  3  0  0  0  0  0  0
  191.3400  176.6150  147.8250 C   0  0  0  0  0  2  0  0  0  0  0  0
  189.9010  174.8510  147.0300 N   0  0  0  0  0  2  0  0  0  0  0  0
  1 26  1  1  0  0  0
  1 27  1  0  0  0  0
  1 18  1  0  0  0  0
  2 14  1  0  0  0  0
  2 27  1  0  0  0  0
  3  7  1  1  0  0  0
  4 18  1  0  0  0  0
  4 23  1  1  0  0  0
  4 15  1  0  0  0  0
  5 15  1  0  0  0  0
  5 11  1  1  0  0  0
  5 19  1  0  0  0  0
  8 16  1  0  0  0  0
  9 25  1  0  0  0  0
  9 27  1  0  0  0  0
  9 13  1  0  0  0  0
 12 15  1  0  0  0  0
 12  8  1  0  0  0  0
 14 25  1  0  0  0  0
 16  3  1  0  0  0  0
 17 10  1  0  0  0  0
 17 28  1  0  0  0  0
 19  6  1  0  0  0  0
 19  3  1  0  0  0  0
 20 18  1  0  0  0  0
 20 13  1  0  0  0  0
 20 11  1  0  0  0  0
 21 26  1  0  0  0  0
 21 23  1  0  0  0  0
 22 10  1  0  0  0  0
 24 22  1  0  0  0  0
 24 13  1  0  0  0  0
 25 17  1  0  0  0  0
 28 29  1  0  0  0  0
 29 32  1  0  0  0  0
 30 33  1  0  0  0  0
 31 33  1  0  0  0  0
 32 31  1  0  0  0  0
 34 32  1  0  0  0  0
 34 30  1  0  0  0  0
M  END
>  <MODEL>
8

>  <REMARK>
 VINA RESULT:      -7.0      2.653      7.510
  Name = 
  3 active torsions:
  status: ('A' for Active; 'I' for Inactive)
    1  A    between atoms: C_17  and  O_28
    2  A    between atoms: O_28  and  C_29
    3  A    between atoms: C_29  and  C_32
                            x       y       z     vdW  Elec       q    Type
                         _______ _______ _______ _____ _____    ______ ____

>  <TORSDO>
F 3

$$$$
=
 OpenBabel11112418083D

 34 40  0  0  1  0  0  0  0  0999 V2000
  192.6310  176.0040  146.2220 N   0  0  1  0  0  0  0  0  0  0  0  0
  194.9540  175.0440  146.1380 C   0  0  0  0  0  2  0  0  0  0  0  0
  186.9330  177.0420  143.1900 C   0  0  1  0  0  3  0  0  0  0  0  0
  190.2630  176.6910  146.1890 C   0  0  2  0  0  3  0  0  0  0  0  0
  189.3930  177.5060  143.9850 C   0  0  2  0  0  3  0  0  0  0  0  0
  188.5850  178.1370  141.6320 C   0  0  0  0  0  1  0  0  0  0  0  0
  187.1930  175.6650  143.1390 O   0  0  0  0  0  1  0  0  0  0  0  0
  186.5720  176.7920  145.4750 C   0  0  0  0  0  2  0  0  0  0  0  0
  193.9930  176.0340  144.2270 C   0  0  2  0  0  3  0  0  0  0  0  0
  194.5690  174.8990  141.2830 C   0  0  0  0  0  2  0  0  0  0  0  0
  190.4010  176.7270  143.2630 N   0  0  0  0  0  2  0  0  0  0  0  0
  187.8510  177.4190  146.0130 C   0  0  0  0  0  2  0  0  0  0  0  0
  192.7900  176.1020  143.2830 C   0  0  1  0  0  3  0  0  0  0  0  0
  195.9200  174.7810  144.9830 C   0  0  0  0  0  2  0  0  0  0  0  0
  189.0260  176.7790  145.2940 C   0  0  2  0  0  3  0  0  0  0  0  0
  186.1350  177.4270  144.2950 O   0  0  0  0  0  0  0  0  0  0  0  0
  195.0690  174.3270  142.6260 C   0  0  1  0  0  3  0  0  0  0  0  0
  191.4070  176.0370  145.3980 C   0  0  1  0  0  3  0  0  0  0  0  0
  188.1990  177.8980  143.0830 C   0  0  1  0  0  3  0  0  0  0  0  0
  191.6340  176.7630  144.0510 C   0  0  2  0  0  3  0  0  0  0  0  0
  191.1280  175.9500  148.1550 C   0  0  0  0  0  2  0  0  0  0  0  0
  194.3730  176.4180  141.2710 C   0  0  0  0  0  2  0  0  0  0  0  0
  189.9870  175.9080  147.3280 O   0  0  0  0  0  0  0  0  0  0  0  0
  193.0970  176.8710  141.9920 C   0  0  0  0  0  2  0  0  0  0  0  0
  195.2810  175.3870  143.7310 C   0  0  1  0  0  3  0  0  0  0  0  0
  192.3120  175.2730  147.4520 C   0  0  0  0  0  2  0  0  0  0  0  0
  193.6190  175.2450  145.4540 C   0  0  2  0  0  3  0  0  0  0  0  0
  194.2030  173.3150  143.0530 O   0  0  0  0  0  0  0  0  0  0  0  0
  194.7770  172.1250  142.5980 C   0  0  0  0  0  2  0  0  0  0  0  0
  196.1390  171.0810  145.7070 C   0  0  0  0  0  2  0  0  0  0  0  0
  193.9630  171.5570  144.8670 C   0  0  0  0  0  2  0  0  0  0  0  0
  194.8670  171.1280  143.7380 C   0  0  2  0  0  3  0  0  0  0  0  0
  194.6780  171.0770  146.0960 C   0  0  0  0  0  2  0  0  0  0  0  0
  196.2300  171.0630  144.2500 N   0  0  0  0  0  2  0  0  0  0  0  0
  1 26  1  1  0  0  0
  3  7  1  1  0  0  0
  3 16  1  0  0  0  0
  4 23  1  1  0  0  0
  5 11  1  6  0  0  0
  5 15  1  0  0  0  0
  6 19  1  0  0  0  0
  8 12  1  0  0  0  0
  9 27  1  0  0  0  0
 10 17  1  0  0  0  0
 11 20  1  0  0  0  0
 13 20  1  0  0  0  0
 13  9  1  0  0  0  0
 14  2  1  0  0  0  0
 15 12  1  0  0  0  0
 15  4  1  0  0  0  0
 16  8  1  0  0  0  0
 17 28  1  0  0  0  0
 17 25  1  0  0  0  0
 18  4  1  0  0  0  0
 18  1  1  0  0  0  0
 19  3  1  0  0  0  0
 19  5  1  0  0  0  0
 20 18  1  0  0  0  0
 22 10  1  0  0  0  0
 22 24  1  0  0  0  0
 23 21  1  0  0  0  0
 24 13  1  0  0  0  0
 25  9  1  0  0  0  0
 25 14  1  0  0  0  0
 26 21  1  0  0  0  0
 27  2  1  0  0  0  0
 27  1  1  0  0  0  0
 29 28  1  0  0  0  0
 29 32  1  0  0  0  0
 30 33  1  0  0  0  0
 31 33  1  0  0  0  0
 32 34  1  0  0  0  0
 32 31  1  0  0  0  0
 34 30  1  0  0  0  0
M  END
>  <MODEL>
9

>  <REMARK>
 VINA RESULT:      -6.9      2.356      4.877
  Name = 
  3 active torsions:
  status: ('A' for Active; 'I' for Inactive)
    1  A    between atoms: C_17  and  O_28
    2  A    between atoms: O_28  and  C_29
    3  A    between atoms: C_29  and  C_32
                            x       y       z     vdW  Elec       q    Type
                         _______ _______ _______ _____ _____    ______ ____

>  <TORSDO>
F 3

$$$$
