=
 OpenBabel11112417183D

 37 44  0  0  1  0  0  0  0  0999 V2000
  193.3680  174.7280  144.4390 C   0  0  0  0  0  2  0  0  0  0  0  0
  191.7370  171.3720  142.6460 C   0  0  0  0  0  0  0  0  0  0  0  0
  189.3090  174.6380  142.4800 C   0  0  0  0  0  0  0  0  0  0  0  0
  194.3460  174.4520  145.5910 C   0  0  2  0  0  3  0  0  0  0  0  0
  190.9940  177.5510  144.4330 C   0  0  2  0  0  3  0  0  0  0  0  0
  189.3460  172.1700  141.9100 C   0  0  1  0  0  3  0  0  0  0  0  0
  190.0470  175.4560  143.3200 C   0  0  0  0  0  0  0  0  0  0  0  0
  193.9170  176.6630  146.6430 C   0  0  0  0  0  0  0  0  0  0  0  0
  189.7290  173.3550  142.7350 C   0  0  0  0  0  0  0  0  0  0  0  0
  190.1280  176.9540  143.3090 C   0  0  1  0  0  3  0  0  0  0  0  0
  189.0060  172.6230  140.4870 C   0  0  0  0  0  2  0  0  0  0  0  0
  194.1360  175.2870  146.7340 O   0  0  0  0  0  0  0  0  0  0  0  0
  190.6990  173.3440  143.6570 N   0  0  0  0  0  0  0  0  0  0  0  0
  192.6370  172.1540  141.7030 C   0  0  0  0  0  1  0  0  0  0  0  0
  187.3870  175.9410  141.6240 C   0  0  0  0  0  2  0  0  0  0  0  0
  187.9810  173.7710  140.5360 C   0  0  0  0  0  2  0  0  0  0  0  0
  191.5160  172.1710  143.9390 C   0  0  0  0  0  2  0  0  0  0  0  0
  192.5260  177.1810  146.4670 C   0  0  0  0  0  2  0  0  0  0  0  0
  192.3500  177.3870  144.0780 O   0  0  0  0  0  0  0  0  0  0  0  0
  188.5340  175.0190  141.2520 C   0  0  2  0  0  3  0  0  0  0  0  0
  190.9080  174.6280  144.0150 C   0  0  0  0  0  0  0  0  0  0  0  0
  190.4030  171.0450  141.9370 C   0  0  0  0  0  2  0  0  0  0  0  0
  188.7590  177.6470  143.2830 C   0  0  1  0  0  3  0  0  0  0  0  0
  192.4290  170.0720  142.9940 C   0  0  0  0  0  1  0  0  0  0  0  0
  191.9130  176.6360  145.1860 C   0  0  2  0  0  0  0  0  0  0  0  0
  194.8810  177.4650  146.7410 O   0  0  0  0  0  0  0  0  0  0  0  0
  191.9790  175.1140  144.9360 C   0  0  2  0  0  3  0  0  0  0  0  0
  187.9400  177.6760  141.6450 S   0  0  0  0  0  0  0  0  0  0  0  0
  188.2870  176.5650  145.4860 C   0  0  0  0  0  3  0  0  0  0  0  0
  187.8470  177.3990  144.4530 C   0  0  0  0  0  0  0  0  0  0  0  0
  186.5740  177.9820  144.5320 C   0  0  0  0  0  3  0  0  0  0  0  0
  184.1620  178.4600  145.7150 Cl  0  0  0  0  0  0  0  0  0  0  0  0
  186.1930  176.8930  146.6580 C   0  0  0  0  0  3  0  0  0  0  0  0
  185.7500  177.7300  145.6300 C   0  0  0  0  0  0  0  0  0  0  0  0
  187.4620  176.3110  146.5870 C   0  0  0  0  0  3  0  0  0  0  0  0
  196.7170  173.8190  146.0380 C   0  0  0  0  0  1  0  0  0  0  0  0
  195.7830  174.5720  145.1090 C   0  0  0  0  0  2  0  0  0  0  0  0
  1  4  1  0  0  0  0
  2 24  1  0  0  0  0
  2 17  1  0  0  0  0
  3  9  2  0  0  0  0
  3  7  1  0  0  0  0
  4 37  1  6  0  0  0
  4 12  1  0  0  0  0
  5 19  1  6  0  0  0
  5 25  1  0  0  0  0
  6 11  1  6  0  0  0
  6 22  1  0  0  0  0
  6  9  1  0  0  0  0
  7 21  2  0  0  0  0
  8 12  1  0  0  0  0
  8 26  2  0  0  0  0
  9 13  1  0  0  0  0
 10  7  1  1  0  0  0
 10  5  1  0  0  0  0
 11 16  1  0  0  0  0
 13 17  1  0  0  0  0
 13 21  1  0  0  0  0
 14  2  1  0  0  0  0
 15 28  1  0  0  0  0
 18  8  1  0  0  0  0
 19 25  1  0  0  0  0
 20 16  1  1  0  0  0
 20 15  1  0  0  0  0
 20  3  1  0  0  0  0
 21 27  1  0  0  0  0
 22  2  1  0  0  0  0
 23 10  1  0  0  0  0
 23 30  1  1  0  0  0
 25 18  1  1  0  0  0
 27  1  1  6  0  0  0
 27 25  1  0  0  0  0
 28 23  1  0  0  0  0
 29 35  1  0  0  0  0
 30 31  1  0  0  0  0
 30 29  2  0  0  0  0
 31 34  2  0  0  0  0
 34 32  1  0  0  0  0
 34 33  1  0  0  0  0
 35 33  2  0  0  0  0
 37 36  1  0  0  0  0
M  END
>  <MODEL>
1

>  <REMARK>
 VINA RESULT:      -9.1      0.000      0.000
  Name = 
  2 active torsions:
  status: ('A' for Active; 'I' for Inactive)
    1  A    between atoms: C_4  and  C_37
    2  A    between atoms: C_23  and  C_30
                            x       y       z     vdW  Elec       q    Type
                         _______ _______ _______ _____ _____    ______ ____

>  <TORSDO>
F 2

$$$$
=
 OpenBabel11112417183D

 37 44  0  0  1  0  0  0  0  0999 V2000
  192.4650  173.3760  141.3810 C   0  0  0  0  0  2  0  0  0  0  0  0
  195.4250  175.8200  142.9300 C   0  0  0  0  0  0  0  0  0  0  0  0
  192.0200  175.7880  145.1640 C   0  0  0  0  0  0  0  0  0  0  0  0
  192.4830  173.2010  139.8550 C   0  0  2  0  0  3  0  0  0  0  0  0
  189.3550  173.6060  143.3530 C   0  0  2  0  0  3  0  0  0  0  0  0
  194.2820  176.9190  145.0220 C   0  0  1  0  0  3  0  0  0  0  0  0
  191.2260  175.0790  144.2760 C   0  0  0  0  0  0  0  0  0  0  0  0
  190.0540  172.6800  139.7660 C   0  0  0  0  0  0  0  0  0  0  0  0
  193.0750  176.2700  144.4280 C   0  0  0  0  0  0  0  0  0  0  0  0
  190.0620  174.1880  144.5910 C   0  0  1  0  0  3  0  0  0  0  0  0
  194.4800  176.4180  146.4560 C   0  0  0  0  0  2  0  0  0  0  0  0
  191.1900  173.3070  139.2500 O   0  0  0  0  0  0  0  0  0  0  0  0
  192.9900  175.8740  143.1520 N   0  0  0  0  0  0  0  0  0  0  0  0
  195.5760  174.3740  143.3730 C   0  0  0  0  0  1  0  0  0  0  0  0
  190.6980  176.2130  147.2120 C   0  0  0  0  0  2  0  0  0  0  0  0
  193.1700  176.5750  147.2500 C   0  0  0  0  0  2  0  0  0  0  0  0
  194.0860  176.0060  142.2020 C   0  0  0  0  0  2  0  0  0  0  0  0
  189.2250  173.3800  140.7930 C   0  0  0  0  0  2  0  0  0  0  0  0
  190.1440  172.5470  142.8530 O   0  0  0  0  0  0  0  0  0  0  0  0
  192.0260  175.7250  146.6630 C   0  0  2  0  0  3  0  0  0  0  0  0
  191.8640  175.1350  143.0520 C   0  0  0  0  0  0  0  0  0  0  0  0
  195.5490  176.7530  144.1550 C   0  0  0  0  0  2  0  0  0  0  0  0
  189.0280  174.8280  145.5270 C   0  0  1  0  0  3  0  0  0  0  0  0
  196.5470  176.1390  141.9660 C   0  0  0  0  0  1  0  0  0  0  0  0
  190.0560  173.6860  142.0300 C   0  0  2  0  0  0  0  0  0  0  0  0
  189.7110  171.5450  139.3450 O   0  0  0  0  0  0  0  0  0  0  0  0
  191.4180  174.3880  141.8370 C   0  0  2  0  0  3  0  0  0  0  0  0
  189.4980  174.8460  147.2980 S   0  0  0  0  0  0  0  0  0  0  0  0
  187.4720  176.7480  145.8980 C   0  0  0  0  0  3  0  0  0  0  0  0
  188.3370  176.0690  145.0330 C   0  0  0  0  0  0  0  0  0  0  0  0
  188.5410  176.5600  143.7360 C   0  0  0  0  0  3  0  0  0  0  0  0
  188.1410  178.3130  141.6840 Cl  0  0  0  0  0  0  0  0  0  0  0  0
  187.0160  178.3860  144.1740 C   0  0  0  0  0  3  0  0  0  0  0  0
  187.8820  177.7140  143.3070 C   0  0  0  0  0  0  0  0  0  0  0  0
  186.8110  177.9040  145.4700 C   0  0  0  0  0  3  0  0  0  0  0  0
  193.2750  170.9920  140.7000 C   0  0  0  0  0  1  0  0  0  0  0  0
  193.1340  171.8800  139.4780 C   0  0  0  0  0  2  0  0  0  0  0  0
  2 14  1  0  0  0  0
  2 22  1  0  0  0  0
  3 20  1  0  0  0  0
  4 37  1  1  0  0  0
  4  1  1  0  0  0  0
  5 19  1  1  0  0  0
  5 10  1  0  0  0  0
  6 22  1  6  0  0  0
  6 11  1  0  0  0  0
  7  3  1  0  0  0  0
  8 18  1  0  0  0  0
  9  6  1  0  0  0  0
  9  3  2  0  0  0  0
 10  7  1  6  0  0  0
 10 23  1  0  0  0  0
 11 16  1  0  0  0  0
 12  8  1  0  0  0  0
 12  4  1  0  0  0  0
 13  9  1  0  0  0  0
 15 28  1  0  0  0  0
 17  2  1  0  0  0  0
 17 13  1  0  0  0  0
 20 15  1  1  0  0  0
 20 16  1  0  0  0  0
 21 13  1  0  0  0  0
 21  7  2  0  0  0  0
 23 30  1  6  0  0  0
 23 28  1  0  0  0  0
 24  2  1  0  0  0  0
 25 18  1  6  0  0  0
 25 19  1  0  0  0  0
 25  5  1  0  0  0  0
 26  8  2  0  0  0  0
 27  1  1  1  0  0  0
 27 25  1  0  0  0  0
 27 21  1  0  0  0  0
 30 29  2  0  0  0  0
 31 30  1  0  0  0  0
 32 34  1  0  0  0  0
 33 35  2  0  0  0  0
 34 31  2  0  0  0  0
 34 33  1  0  0  0  0
 35 29  1  0  0  0  0
 37 36  1  0  0  0  0
M  END
>  <MODEL>
2

>  <REMARK>
 VINA RESULT:      -8.9      2.871      5.754
  Name = 
  2 active torsions:
  status: ('A' for Active; 'I' for Inactive)
    1  A    between atoms: C_4  and  C_37
    2  A    between atoms: C_23  and  C_30
                            x       y       z     vdW  Elec       q    Type
                         _______ _______ _______ _____ _____    ______ ____

>  <TORSDO>
F 2

$$$$
=
 OpenBabel11112417183D

 37 44  0  0  1  0  0  0  0  0999 V2000
  194.0230  175.0130  143.4180 C   0  0  0  0  0  2  0  0  0  0  0  0
  192.5170  171.4400  141.9700 C   0  0  0  0  0  0  0  0  0  0  0  0
  189.7100  174.3750  142.2700 C   0  0  0  0  0  0  0  0  0  0  0  0
  195.2270  174.8890  144.3620 C   0  0  2  0  0  3  0  0  0  0  0  0
  191.3540  177.5200  143.8650 C   0  0  2  0  0  3  0  0  0  0  0  0
  189.9490  171.9180  141.7040 C   0  0  1  0  0  3  0  0  0  0  0  0
  190.4840  175.2980  142.9530 C   0  0  0  0  0  0  0  0  0  0  0  0
  194.7300  177.0550  145.4760 C   0  0  0  0  0  0  0  0  0  0  0  0
  190.3290  173.1610  142.4400 C   0  0  0  0  0  0  0  0  0  0  0  0
  190.3720  176.7940  142.9270 C   0  0  1  0  0  3  0  0  0  0  0  0
  189.2920  172.2910  140.3720 C   0  0  0  0  0  2  0  0  0  0  0  0
  195.1340  175.7190  145.5240 O   0  0  0  0  0  0  0  0  0  0  0  0
  191.4490  173.2910  143.1600 N   0  0  0  0  0  0  0  0  0  0  0  0
  193.1160  172.3030  140.8730 C   0  0  0  0  0  1  0  0  0  0  0  0
  187.5120  175.4090  141.7960 C   0  0  0  0  0  2  0  0  0  0  0  0
  188.1570  173.3040  140.6160 C   0  0  0  0  0  2  0  0  0  0  0  0
  192.4460  172.2360  143.2820 C   0  0  0  0  0  2  0  0  0  0  0  0
  193.2770  177.3920  145.5690 C   0  0  0  0  0  2  0  0  0  0  0  0
  192.6280  177.5170  143.2570 O   0  0  0  0  0  0  0  0  0  0  0  0
  188.6740  174.6270  141.2130 C   0  0  2  0  0  3  0  0  0  0  0  0
  191.5590  174.6000  143.4710 C   0  0  0  0  0  0  0  0  0  0  0  0
  191.1250  170.9330  141.5290 C   0  0  0  0  0  2  0  0  0  0  0  0
  188.9470  177.3120  143.1630 C   0  0  1  0  0  3  0  0  0  0  0  0
  193.4200  170.2440  142.1800 C   0  0  0  0  0  1  0  0  0  0  0  0
  192.5060  176.7450  144.4290 C   0  0  2  0  0  0  0  0  0  0  0  0
  195.5860  177.9720  145.3880 O   0  0  0  0  0  0  0  0  0  0  0  0
  192.7150  175.2370  144.1710 C   0  0  2  0  0  3  0  0  0  0  0  0
  187.8360  177.2000  141.7110 S   0  0  0  0  0  0  0  0  0  0  0  0
  187.1430  177.6540  144.8580 C   0  0  0  0  0  3  0  0  0  0  0  0
  188.3120  176.9810  144.4850 C   0  0  0  0  0  0  0  0  0  0  0  0
  188.8590  176.0200  145.3470 C   0  0  0  0  0  3  0  0  0  0  0  0
  188.9410  174.5410  147.6380 Cl  0  0  0  0  0  0  0  0  0  0  0  0
  187.0800  176.4160  146.9380 C   0  0  0  0  0  3  0  0  0  0  0  0
  188.2460  175.7380  146.5690 C   0  0  0  0  0  0  0  0  0  0  0  0
  186.5270  177.3730  146.0820 C   0  0  0  0  0  3  0  0  0  0  0  0
  196.2360  175.9350  142.3340 C   0  0  0  0  0  1  0  0  0  0  0  0
  196.5210  175.1730  143.6150 C   0  0  0  0  0  2  0  0  0  0  0  0
  1  4  1  0  0  0  0
  2 24  1  0  0  0  0
  2 17  1  0  0  0  0
  3  9  2  0  0  0  0
  3  7  1  0  0  0  0
  4 37  1  6  0  0  0
  4 12  1  0  0  0  0
  5 19  1  6  0  0  0
  5 25  1  0  0  0  0
  6 11  1  6  0  0  0
  6  9  1  0  0  0  0
  7 21  2  0  0  0  0
  8 12  1  0  0  0  0
  8 18  1  0  0  0  0
  9 13  1  0  0  0  0
 10  7  1  1  0  0  0
 10 23  1  0  0  0  0
 10  5  1  0  0  0  0
 11 16  1  0  0  0  0
 13 17  1  0  0  0  0
 13 21  1  0  0  0  0
 14  2  1  0  0  0  0
 19 25  1  0  0  0  0
 20 16  1  1  0  0  0
 20 15  1  0  0  0  0
 20  3  1  0  0  0  0
 21 27  1  0  0  0  0
 22  6  1  0  0  0  0
 22  2  1  0  0  0  0
 23 30  1  1  0  0  0
 25 18  1  1  0  0  0
 26  8  2  0  0  0  0
 27  1  1  6  0  0  0
 27 25  1  0  0  0  0
 28 15  1  0  0  0  0
 28 23  1  0  0  0  0
 29 35  1  0  0  0  0
 30 29  2  0  0  0  0
 30 31  1  0  0  0  0
 31 34  2  0  0  0  0
 34 33  1  0  0  0  0
 34 32  1  0  0  0  0
 35 33  2  0  0  0  0
 36 37  1  0  0  0  0
M  END
>  <MODEL>
3

>  <REMARK>
 VINA RESULT:      -8.5      1.493      1.782
  Name = 
  2 active torsions:
  status: ('A' for Active; 'I' for Inactive)
    1  A    between atoms: C_4  and  C_37
    2  A    between atoms: C_23  and  C_30
                            x       y       z     vdW  Elec       q    Type
                         _______ _______ _______ _____ _____    ______ ____

>  <TORSDO>
F 2

$$$$
=
 OpenBabel11112417183D

 37 44  0  0  1  0  0  0  0  0999 V2000
  189.3880  175.1620  142.4080 C   0  0  0  0  0  2  0  0  0  0  0  0
  189.9370  176.8480  146.1490 C   0  0  0  0  0  0  0  0  0  0  0  0
  193.0540  174.5150  144.9520 C   0  0  0  0  0  0  0  0  0  0  0  0
  187.9290  174.9020  142.0070 C   0  0  2  0  0  3  0  0  0  0  0  0
  192.1600  172.8910  141.5310 C   0  0  2  0  0  3  0  0  0  0  0  0
  192.2290  175.8460  146.9440 C   0  0  1  0  0  3  0  0  0  0  0  0
  192.4560  173.9780  143.8240 C   0  0  0  0  0  0  0  0  0  0  0  0
  188.5580  173.0830  140.4350 C   0  0  0  0  0  0  0  0  0  0  0  0
  192.0290  174.9990  145.7290 C   0  0  0  0  0  0  0  0  0  0  0  0
  193.1230  173.4990  142.5680 C   0  0  1  0  0  3  0  0  0  0  0  0
  193.5620  176.5920  146.8360 C   0  0  0  0  0  2  0  0  0  0  0  0
  187.7170  173.6180  141.4120 O   0  0  0  0  0  0  0  0  0  0  0  0
  190.8470  174.8180  145.1300 N   0  0  0  0  0  0  0  0  0  0  0  0
  190.3680  177.7760  145.0250 C   0  0  0  0  0  1  0  0  0  0  0  0
  195.3790  173.6780  145.0690 C   0  0  0  0  0  2  0  0  0  0  0  0
  194.6930  175.5980  146.5130 C   0  0  0  0  0  2  0  0  0  0  0  0
  189.6170  175.4560  145.5830 C   0  0  0  0  0  2  0  0  0  0  0  0
  189.7550  172.2880  140.8450 C   0  0  0  0  0  2  0  0  0  0  0  0
  191.4930  173.9500  140.8780 O   0  0  0  0  0  0  0  0  0  0  0  0
  194.4890  174.9040  145.1520 C   0  0  2  0  0  3  0  0  0  0  0  0
  191.0990  174.2010  143.9560 C   0  0  0  0  0  0  0  0  0  0  0  0
  191.0420  176.7910  147.2270 C   0  0  0  0  0  2  0  0  0  0  0  0
  194.2930  172.5380  142.8170 C   0  0  1  0  0  3  0  0  0  0  0  0
  188.6810  177.4140  146.7750 C   0  0  0  0  0  1  0  0  0  0  0  0
  190.6900  173.1320  141.6970 C   0  0  2  0  0  0  0  0  0  0  0  0
  188.2930  173.2410  139.2160 O   0  0  0  0  0  0  0  0  0  0  0  0
  190.0900  173.8990  142.8960 C   0  0  2  0  0  3  0  0  0  0  0  0
  195.8530  173.3430  143.3430 S   0  0  0  0  0  0  0  0  0  0  0  0
  193.0890  170.3500  142.8950 C   0  0  0  0  0  3  0  0  0  0  0  0
  193.9760  171.2410  143.5080 C   0  0  0  0  0  0  0  0  0  0  0  0
  194.5450  170.9060  144.7450 C   0  0  0  0  0  3  0  0  0  0  0  0
  194.9410  169.2890  146.9070 Cl  0  0  0  0  0  0  0  0  0  0  0  0
  193.3390  168.8080  144.7460 C   0  0  0  0  0  3  0  0  0  0  0  0
  194.2280  169.6940  145.3620 C   0  0  0  0  0  0  0  0  0  0  0  0
  192.7700  169.1360  143.5120 C   0  0  0  0  0  3  0  0  0  0  0  0
  187.8210  177.3640  141.6170 C   0  0  0  0  0  1  0  0  0  0  0  0
  187.4270  176.0000  141.0830 C   0  0  0  0  0  2  0  0  0  0  0  0
  2 24  1  0  0  0  0
  2 22  1  0  0  0  0
  3 20  1  0  0  0  0
  3  9  2  0  0  0  0
  4 37  1  6  0  0  0
  4  1  1  0  0  0  0
  5 19  1  6  0  0  0
  5 25  1  0  0  0  0
  5 10  1  0  0  0  0
  6 11  1  6  0  0  0
  6 22  1  0  0  0  0
  7 21  2  0  0  0  0
  7  3  1  0  0  0  0
  8 18  1  0  0  0  0
  8 12  1  0  0  0  0
  9  6  1  0  0  0  0
 10 23  1  0  0  0  0
 10  7  1  1  0  0  0
 12  4  1  0  0  0  0
 13 17  1  0  0  0  0
 13  9  1  0  0  0  0
 14  2  1  0  0  0  0
 16 11  1  0  0  0  0
 17  2  1  0  0  0  0
 19 25  1  0  0  0  0
 20 15  1  1  0  0  0
 20 16  1  0  0  0  0
 21 13  1  0  0  0  0
 23 28  1  0  0  0  0
 23 30  1  1  0  0  0
 25 18  1  6  0  0  0
 25 27  1  0  0  0  0
 26  8  2  0  0  0  0
 27  1  1  6  0  0  0
 27 21  1  0  0  0  0
 28 15  1  0  0  0  0
 29 30  2  0  0  0  0
 29 35  1  0  0  0  0
 30 31  1  0  0  0  0
 31 34  2  0  0  0  0
 33 34  1  0  0  0  0
 34 32  1  0  0  0  0
 35 33  2  0  0  0  0
 37 36  1  0  0  0  0
M  END
>  <MODEL>
4

>  <REMARK>
 VINA RESULT:      -8.2      3.631      7.899
  Name = 
  2 active torsions:
  status: ('A' for Active; 'I' for Inactive)
    1  A    between atoms: C_4  and  C_37
    2  A    between atoms: C_23  and  C_30
                            x       y       z     vdW  Elec       q    Type
                         _______ _______ _______ _____ _____    ______ ____

>  <TORSDO>
F 2

$$$$
=
 OpenBabel11112417183D

 37 44  0  0  1  0  0  0  0  0999 V2000
  190.1900  173.7340  142.4410 C   0  0  0  0  0  2  0  0  0  0  0  0
  189.6120  175.9200  145.9080 C   0  0  0  0  0  0  0  0  0  0  0  0
  193.4690  174.7270  145.3720 C   0  0  0  0  0  0  0  0  0  0  0  0
  188.9760  172.9290  141.9560 C   0  0  2  0  0  3  0  0  0  0  0  0
  193.6610  172.5130  142.1780 C   0  0  2  0  0  3  0  0  0  0  0  0
  191.9750  175.8950  147.0510 C   0  0  1  0  0  3  0  0  0  0  0  0
  193.2510  173.8870  144.2910 C   0  0  0  0  0  0  0  0  0  0  0  0
  190.3960  171.2850  140.7480 C   0  0  0  0  0  0  0  0  0  0  0  0
  192.2440  174.9010  145.9700 C   0  0  0  0  0  0  0  0  0  0  0  0
  194.2070  173.5370  143.1900 C   0  0  1  0  0  3  0  0  0  0  0  0
  192.9760  177.0490  146.9490 C   0  0  0  0  0  2  0  0  0  0  0  0
  189.2970  171.5940  141.5510 O   0  0  0  0  0  0  0  0  0  0  0  0
  191.2880  174.2440  145.3020 N   0  0  0  0  0  0  0  0  0  0  0  0
  189.8530  176.8060  144.6980 C   0  0  0  0  0  1  0  0  0  0  0  0
  195.9000  174.7900  145.8250 C   0  0  0  0  0  2  0  0  0  0  0  0
  194.4110  176.4920  146.8860 C   0  0  0  0  0  2  0  0  0  0  0  0
  189.8650  174.4510  145.5390 C   0  0  0  0  0  2  0  0  0  0  0  0
  191.7230  171.0200  141.3810 C   0  0  0  0  0  2  0  0  0  0  0  0
  192.7710  173.1830  141.3110 O   0  0  0  0  0  0  0  0  0  0  0  0
  194.6450  175.6210  145.6360 C   0  0  2  0  0  3  0  0  0  0  0  0
  191.8940  173.6270  144.2660 C   0  0  0  0  0  0  0  0  0  0  0  0
  190.5100  176.3820  147.0770 C   0  0  0  0  0  2  0  0  0  0  0  0
  195.5880  173.0900  143.6890 C   0  0  1  0  0  3  0  0  0  0  0  0
  188.1650  176.0700  146.3250 C   0  0  0  0  0  1  0  0  0  0  0  0
  192.1890  172.2330  142.1720 C   0  0  2  0  0  0  0  0  0  0  0  0
  190.2640  171.1990  139.5000 O   0  0  0  0  0  0  0  0  0  0  0  0
  191.2050  172.8680  143.1800 C   0  0  2  0  0  3  0  0  0  0  0  0
  196.6930  174.4510  144.2200 S   0  0  0  0  0  0  0  0  0  0  0  0
  196.7430  171.6520  145.3750 C   0  0  0  0  0  3  0  0  0  0  0  0
  195.6380  171.8530  144.5420 C   0  0  0  0  0  0  0  0  0  0  0  0
  194.6070  170.9020  144.5220 C   0  0  0  0  0  3  0  0  0  0  0  0
  193.3950  168.5800  145.2870 Cl  0  0  0  0  0  0  0  0  0  0  0  0
  195.7930  169.5650  146.1530 C   0  0  0  0  0  3  0  0  0  0  0  0
  194.6850  169.7610  145.3240 C   0  0  0  0  0  0  0  0  0  0  0  0
  196.8230  170.5100  146.1790 C   0  0  0  0  0  3  0  0  0  0  0  0
  188.1920  175.1490  141.1320 C   0  0  0  0  0  1  0  0  0  0  0  0
  188.2640  173.6640  140.8320 C   0  0  0  0  0  2  0  0  0  0  0  0
  2 24  1  0  0  0  0
  2 22  1  0  0  0  0
  3 20  1  0  0  0  0
  3  9  2  0  0  0  0
  4 37  1  6  0  0  0
  4  1  1  0  0  0  0
  5 19  1  6  0  0  0
  5 10  1  0  0  0  0
  6 11  1  6  0  0  0
  6 22  1  0  0  0  0
  7  3  1  0  0  0  0
  8 18  1  0  0  0  0
  8 12  1  0  0  0  0
  9  6  1  0  0  0  0
 10 23  1  0  0  0  0
 10  7  1  1  0  0  0
 12  4  1  0  0  0  0
 13 17  1  0  0  0  0
 13  9  1  0  0  0  0
 14  2  1  0  0  0  0
 16 11  1  0  0  0  0
 17  2  1  0  0  0  0
 19 25  1  0  0  0  0
 20 15  1  1  0  0  0
 20 16  1  0  0  0  0
 21  7  2  0  0  0  0
 21 13  1  0  0  0  0
 23 28  1  0  0  0  0
 23 30  1  1  0  0  0
 25 18  1  6  0  0  0
 25  5  1  0  0  0  0
 25 27  1  0  0  0  0
 26  8  2  0  0  0  0
 27  1  1  6  0  0  0
 27 21  1  0  0  0  0
 28 15  1  0  0  0  0
 29 35  1  0  0  0  0
 30 29  2  0  0  0  0
 31 30  1  0  0  0  0
 31 34  2  0  0  0  0
 32 34  1  0  0  0  0
 33 35  2  0  0  0  0
 34 33  1  0  0  0  0
 37 36  1  0  0  0  0
M  END
>  <MODEL>
5

>  <REMARK>
 VINA RESULT:      -7.9      3.744      8.000
  Name = 
  2 active torsions:
  status: ('A' for Active; 'I' for Inactive)
    1  A    between atoms: C_4  and  C_37
    2  A    between atoms: C_23  and  C_30
                            x       y       z     vdW  Elec       q    Type
                         _______ _______ _______ _____ _____    ______ ____

>  <TORSDO>
F 2

$$$$
=
 OpenBabel11112417183D

 37 44  0  0  1  0  0  0  0  0999 V2000
  190.1600  173.6130  142.5580 C   0  0  0  0  0  2  0  0  0  0  0  0
  190.1390  174.9820  146.4650 C   0  0  0  0  0  0  0  0  0  0  0  0
  193.7630  175.3460  144.6430 C   0  0  0  0  0  0  0  0  0  0  0  0
  189.1600  172.4920  142.2450 C   0  0  2  0  0  3  0  0  0  0  0  0
  193.5400  173.7760  141.0900 C   0  0  2  0  0  3  0  0  0  0  0  0
  192.6360  175.6700  146.8880 C   0  0  1  0  0  3  0  0  0  0  0  0
  193.4630  174.6290  143.4960 C   0  0  0  0  0  0  0  0  0  0  0  0
  190.5230  171.6420  140.3480 C   0  0  0  0  0  0  0  0  0  0  0  0
  192.8170  174.9870  145.5730 C   0  0  0  0  0  0  0  0  0  0  0  0
  194.0550  174.7910  142.1270 C   0  0  1  0  0  3  0  0  0  0  0  0
  193.1450  177.1120  146.7920 C   0  0  0  0  0  2  0  0  0  0  0  0
  189.7160  171.4270  141.4670 O   0  0  0  0  0  0  0  0  0  0  0  0
  191.9410  174.1190  145.0540 N   0  0  0  0  0  0  0  0  0  0  0  0
  189.6800  176.0420  145.4770 C   0  0  0  0  0  1  0  0  0  0  0  0
  196.0650  176.2270  144.4240 C   0  0  0  0  0  2  0  0  0  0  0  0
  194.5730  177.1240  146.2160 C   0  0  0  0  0  2  0  0  0  0  0  0
  190.6880  173.7640  145.7070 C   0  0  0  0  0  2  0  0  0  0  0  0
  191.9990  171.7970  140.5190 C   0  0  0  0  0  2  0  0  0  0  0  0
  192.2530  174.1830  140.6780 O   0  0  0  0  0  0  0  0  0  0  0  0
  194.6290  176.5640  144.7820 C   0  0  2  0  0  3  0  0  0  0  0  0
  192.3230  173.9000  143.7770 C   0  0  0  0  0  0  0  0  0  0  0  0
  191.1900  175.5860  147.4220 C   0  0  0  0  0  2  0  0  0  0  0  0
  195.5890  174.8150  142.1160 C   0  0  1  0  0  3  0  0  0  0  0  0
  188.9410  174.5440  147.2800 C   0  0  0  0  0  1  0  0  0  0  0  0
  192.3100  172.9850  141.4160 C   0  0  2  0  0  0  0  0  0  0  0  0
  190.0140  171.6730  139.1980 O   0  0  0  0  0  0  0  0  0  0  0  0
  191.5760  173.0870  142.7710 C   0  0  2  0  0  3  0  0  0  0  0  0
  196.3390  176.4050  142.6320 S   0  0  0  0  0  0  0  0  0  0  0  0
  197.0270  172.8150  141.6970 C   0  0  0  0  0  3  0  0  0  0  0  0
  196.2940  173.5820  142.6090 C   0  0  0  0  0  0  0  0  0  0  0  0
  196.2360  173.1870  143.9530 C   0  0  0  0  0  3  0  0  0  0  0  0
  196.8170  171.5500  146.0570 Cl  0  0  0  0  0  0  0  0  0  0  0  0
  197.6290  171.2700  143.4620 C   0  0  0  0  0  3  0  0  0  0  0  0
  196.9000  172.0350  144.3780 C   0  0  0  0  0  0  0  0  0  0  0  0
  197.6930  171.6600  142.1210 C   0  0  0  0  0  3  0  0  0  0  0  0
  188.1930  174.4620  141.0580 C   0  0  0  0  0  1  0  0  0  0  0  0
  187.9250  173.0550  141.5590 C   0  0  0  0  0  2  0  0  0  0  0  0
  2 24  1  0  0  0  0
  2 22  1  0  0  0  0
  3 20  1  0  0  0  0
  3  9  2  0  0  0  0
  4 37  1  6  0  0  0
  4  1  1  0  0  0  0
  5 19  1  6  0  0  0
  5 25  1  0  0  0  0
  5 10  1  0  0  0  0
  6 11  1  6  0  0  0
  6 22  1  0  0  0  0
  7 21  2  0  0  0  0
  7  3  1  0  0  0  0
  8 18  1  0  0  0  0
  8 12  1  0  0  0  0
  9  6  1  0  0  0  0
 10  7  1  1  0  0  0
 12  4  1  0  0  0  0
 13  9  1  0  0  0  0
 13 17  1  0  0  0  0
 14  2  1  0  0  0  0
 16 11  1  0  0  0  0
 17  2  1  0  0  0  0
 19 25  1  0  0  0  0
 20 15  1  1  0  0  0
 20 16  1  0  0  0  0
 21 13  1  0  0  0  0
 23 10  1  0  0  0  0
 23 30  1  1  0  0  0
 23 28  1  0  0  0  0
 25 18  1  6  0  0  0
 25 27  1  0  0  0  0
 26  8  2  0  0  0  0
 27  1  1  6  0  0  0
 27 21  1  0  0  0  0
 28 15  1  0  0  0  0
 29 35  2  0  0  0  0
 29 30  1  0  0  0  0
 30 31  2  0  0  0  0
 31 34  1  0  0  0  0
 33 34  2  0  0  0  0
 34 32  1  0  0  0  0
 35 33  1  0  0  0  0
 36 37  1  0  0  0  0
M  END
>  <MODEL>
6

>  <REMARK>
 VINA RESULT:      -7.7      3.870      8.010
  Name = 
  2 active torsions:
  status: ('A' for Active; 'I' for Inactive)
    1  A    between atoms: C_4  and  C_37
    2  A    between atoms: C_23  and  C_30
                            x       y       z     vdW  Elec       q    Type
                         _______ _______ _______ _____ _____    ______ ____

>  <TORSDO>
F 2

$$$$
=
 OpenBabel11112417183D

 37 44  0  0  1  0  0  0  0  0999 V2000
  189.2600  175.3880  144.0720 C   0  0  0  0  0  2  0  0  0  0  0  0
  189.1140  173.4370  140.4240 C   0  0  0  0  0  0  0  0  0  0  0  0
  192.2670  172.3040  142.7400 C   0  0  0  0  0  0  0  0  0  0  0  0
  188.6530  176.7980  144.0930 C   0  0  2  0  0  3  0  0  0  0  0  0
  192.2760  174.4570  145.9820 C   0  0  2  0  0  3  0  0  0  0  0  0
  191.2810  171.9560  140.4330 C   0  0  1  0  0  3  0  0  0  0  0  0
  192.1220  173.2660  143.7270 C   0  0  0  0  0  0  0  0  0  0  0  0
  190.0590  177.5060  146.0170 C   0  0  0  0  0  0  0  0  0  0  0  0
  191.5660  172.7690  141.6530 C   0  0  0  0  0  0  0  0  0  0  0  0
  192.5170  173.1700  145.1710 C   0  0  1  0  0  3  0  0  0  0  0  0
  191.2880  170.4680  140.7940 C   0  0  0  0  0  2  0  0  0  0  0  0
  189.4580  177.7600  144.7820 O   0  0  0  0  0  0  0  0  0  0  0  0
  190.9780  173.9390  141.9270 N   0  0  0  0  0  0  0  0  0  0  0  0
  188.2590  172.7560  141.4810 C   0  0  0  0  0  1  0  0  0  0  0  0
  194.1350  170.8140  143.3800 C   0  0  0  0  0  2  0  0  0  0  0  0
  192.5840  170.1190  141.5490 C   0  0  0  0  0  2  0  0  0  0  0  0
  189.9630  174.5410  141.0720 C   0  0  0  0  0  2  0  0  0  0  0  0
  191.4150  176.8800  146.0650 C   0  0  0  0  0  2  0  0  0  0  0  0
  190.8970  174.5410  146.2730 O   0  0  0  0  0  0  0  0  0  0  0  0
  192.7020  170.8750  142.8870 C   0  0  2  0  0  3  0  0  0  0  0  0
  191.3050  174.2480  143.2000 C   0  0  0  0  0  0  0  0  0  0  0  0
  189.9880  172.3840  139.7070 C   0  0  0  0  0  2  0  0  0  0  0  0
  193.9550  172.6810  145.3880 C   0  0  1  0  0  3  0  0  0  0  0  0
  188.1920  174.0720  139.4060 C   0  0  0  0  0  1  0  0  0  0  0  0
  191.3970  175.5170  145.3900 C   0  0  2  0  0  0  0  0  0  0  0  0
  189.4760  177.8310  147.0830 O   0  0  0  0  0  0  0  0  0  0  0  0
  190.7820  175.4110  143.9770 C   0  0  2  0  0  3  0  0  0  0  0  0
  194.1910  170.8740  145.2000 S   0  0  0  0  0  0  0  0  0  0  0  0
  196.3520  173.3850  145.3360 C   0  0  0  0  0  3  0  0  0  0  0  0
  195.0580  173.5340  144.8260 C   0  0  0  0  0  0  0  0  0  0  0  0
  194.8220  174.4690  143.8090 C   0  0  0  0  0  3  0  0  0  0  0  0
  195.5580  176.4160  142.0440 Cl  0  0  0  0  0  0  0  0  0  0  0  0
  197.1580  175.0980  143.8260 C   0  0  0  0  0  3  0  0  0  0  0  0
  195.8670  175.2490  143.3100 C   0  0  0  0  0  0  0  0  0  0  0  0
  197.4010  174.1660  144.8380 C   0  0  0  0  0  3  0  0  0  0  0  0
  186.6380  178.1540  144.6660 C   0  0  0  0  0  1  0  0  0  0  0  0
  187.2510  176.7660  144.6820 C   0  0  0  0  0  2  0  0  0  0  0  0
  1  4  1  0  0  0  0
  2 17  1  0  0  0  0
  2 14  1  0  0  0  0
  3 20  1  0  0  0  0
  3  7  1  0  0  0  0
  4 37  1  1  0  0  0
  4 12  1  0  0  0  0
  5 19  1  1  0  0  0
  6 22  1  1  0  0  0
  6 11  1  0  0  0  0
  6  9  1  0  0  0  0
  8 18  1  0  0  0  0
  8 26  2  0  0  0  0
  9 13  1  0  0  0  0
  9  3  2  0  0  0  0
 10  7  1  6  0  0  0
 10 23  1  0  0  0  0
 10  5  1  0  0  0  0
 11 16  1  0  0  0  0
 12  8  1  0  0  0  0
 13 21  1  0  0  0  0
 15 28  1  0  0  0  0
 17 13  1  0  0  0  0
 20 16  1  6  0  0  0
 20 15  1  0  0  0  0
 21  7  2  0  0  0  0
 21 27  1  0  0  0  0
 22  2  1  0  0  0  0
 23 30  1  6  0  0  0
 24  2  1  0  0  0  0
 25  5  1  0  0  0  0
 25 18  1  1  0  0  0
 25 19  1  0  0  0  0
 27  1  1  1  0  0  0
 27 25  1  0  0  0  0
 28 23  1  0  0  0  0
 30 29  2  0  0  0  0
 31 30  1  0  0  0  0
 32 34  1  0  0  0  0
 33 35  2  0  0  0  0
 34 31  2  0  0  0  0
 34 33  1  0  0  0  0
 35 29  1  0  0  0  0
 36 37  1  0  0  0  0
M  END
>  <MODEL>
7

>  <REMARK>
 VINA RESULT:      -7.6      3.123      6.517
  Name = 
  2 active torsions:
  status: ('A' for Active; 'I' for Inactive)
    1  A    between atoms: C_4  and  C_37
    2  A    between atoms: C_23  and  C_30
                            x       y       z     vdW  Elec       q    Type
                         _______ _______ _______ _____ _____    ______ ____

>  <TORSDO>
F 2

$$$$
=
 OpenBabel11112417183D

 37 44  0  0  1  0  0  0  0  0999 V2000
  193.3360  172.1860  141.0970 C   0  0  0  0  0  2  0  0  0  0  0  0
  196.3040  174.5520  142.7490 C   0  0  0  0  0  0  0  0  0  0  0  0
  192.6280  175.1920  144.3810 C   0  0  0  0  0  0  0  0  0  0  0  0
  193.5570  171.7730  139.6350 C   0  0  2  0  0  3  0  0  0  0  0  0
  190.0200  173.0140  142.4850 C   0  0  2  0  0  3  0  0  0  0  0  0
  195.0030  176.0690  144.4520 C   0  0  1  0  0  3  0  0  0  0  0  0
  191.8950  174.4310  143.4840 C   0  0  0  0  0  0  0  0  0  0  0  0
  191.1230  171.4750  139.2250 C   0  0  0  0  0  0  0  0  0  0  0  0
  193.8280  175.4520  143.7660 C   0  0  0  0  0  0  0  0  0  0  0  0
  190.6010  173.7140  143.7280 C   0  0  1  0  0  3  0  0  0  0  0  0
  194.9290  175.7830  145.9540 C   0  0  0  0  0  2  0  0  0  0  0  0
  192.3880  171.9030  138.8190 O   0  0  0  0  0  0  0  0  0  0  0  0
  193.8850  174.8700  142.5620 N   0  0  0  0  0  0  0  0  0  0  0  0
  196.2170  173.1860  143.4090 C   0  0  0  0  0  1  0  0  0  0  0  0
  191.0800  176.0560  146.1070 C   0  0  0  0  0  2  0  0  0  0  0  0
  193.5440  176.1850  146.4950 C   0  0  0  0  0  2  0  0  0  0  0  0
  195.1170  174.7470  141.7940 C   0  0  0  0  0  2  0  0  0  0  0  0
  190.2400  172.4020  139.9960 C   0  0  0  0  0  2  0  0  0  0  0  0
  190.7430  171.8210  142.2740 O   0  0  0  0  0  0  0  0  0  0  0  0
  192.4070  175.3650  145.8560 C   0  0  2  0  0  3  0  0  0  0  0  0
  192.7080  174.2330  142.3850 C   0  0  0  0  0  0  0  0  0  0  0  0
  196.3550  175.6500  143.8340 C   0  0  0  0  0  2  0  0  0  0  0  0
  189.5240  174.5880  144.3840 C   0  0  1  0  0  3  0  0  0  0  0  0
  197.5840  174.6090  141.9450 C   0  0  0  0  0  1  0  0  0  0  0  0
  190.9110  172.8190  141.2960 C   0  0  2  0  0  0  0  0  0  0  0  0
  190.7150  170.3250  138.9180 O   0  0  0  0  0  0  0  0  0  0  0  0
  192.3600  173.3500  141.2310 C   0  0  2  0  0  3  0  0  0  0  0  0
  189.7270  174.8390  146.1870 S   0  0  0  0  0  0  0  0  0  0  0  0
  190.0210  176.7060  143.1550 C   0  0  0  0  0  3  0  0  0  0  0  0
  189.0630  175.7960  143.6160 C   0  0  0  0  0  0  0  0  0  0  0  0
  187.7070  176.0280  143.3510 C   0  0  0  0  0  3  0  0  0  0  0  0
  185.6150  177.4430  142.3170 Cl  0  0  0  0  0  0  0  0  0  0  0  0
  188.2720  178.0690  142.1810 C   0  0  0  0  0  3  0  0  0  0  0  0
  187.3110  177.1610  142.6370 C   0  0  0  0  0  0  0  0  0  0  0  0
  189.6260  177.8420  142.4390 C   0  0  0  0  0  3  0  0  0  0  0  0
  194.4740  169.8550  140.9400 C   0  0  0  0  0  1  0  0  0  0  0  0
  194.0970  170.3530  139.5580 C   0  0  0  0  0  2  0  0  0  0  0  0
  2 14  1  0  0  0  0
  2 22  1  0  0  0  0
  3 20  1  0  0  0  0
  4 37  1  1  0  0  0
  4  1  1  0  0  0  0
  5 19  1  1  0  0  0
  5 10  1  0  0  0  0
  6 22  1  6  0  0  0
  6 11  1  0  0  0  0
  7  3  1  0  0  0  0
  8 18  1  0  0  0  0
  9  3  2  0  0  0  0
  9  6  1  0  0  0  0
 10  7  1  6  0  0  0
 10 23  1  0  0  0  0
 11 16  1  0  0  0  0
 12  8  1  0  0  0  0
 12  4  1  0  0  0  0
 13  9  1  0  0  0  0
 15 28  1  0  0  0  0
 17 13  1  0  0  0  0
 17  2  1  0  0  0  0
 20 15  1  6  0  0  0
 20 16  1  0  0  0  0
 21 13  1  0  0  0  0
 21  7  2  0  0  0  0
 23 30  1  6  0  0  0
 23 28  1  0  0  0  0
 24  2  1  0  0  0  0
 25 18  1  6  0  0  0
 25 19  1  0  0  0  0
 25  5  1  0  0  0  0
 26  8  2  0  0  0  0
 27  1  1  1  0  0  0
 27 25  1  0  0  0  0
 27 21  1  0  0  0  0
 29 30  1  0  0  0  0
 31 30  2  0  0  0  0
 32 34  1  0  0  0  0
 33 35  1  0  0  0  0
 33 34  2  0  0  0  0
 34 31  1  0  0  0  0
 35 29  2  0  0  0  0
 37 36  1  0  0  0  0
M  END
>  <MODEL>
8

>  <REMARK>
 VINA RESULT:      -7.4      3.032      5.923
  Name = 
  2 active torsions:
  status: ('A' for Active; 'I' for Inactive)
    1  A    between atoms: C_4  and  C_37
    2  A    between atoms: C_23  and  C_30
                            x       y       z     vdW  Elec       q    Type
                         _______ _______ _______ _____ _____    ______ ____

>  <TORSDO>
F 2

$$$$
=
 OpenBabel11112417183D

 37 44  0  0  1  0  0  0  0  0999 V2000
  193.7660  172.0340  144.6340 C   0  0  0  0  0  2  0  0  0  0  0  0
  193.1280  175.9550  145.7990 C   0  0  0  0  0  0  0  0  0  0  0  0
  190.3690  174.5900  143.1320 C   0  0  0  0  0  0  0  0  0  0  0  0
  195.2280  171.5670  144.6590 C   0  0  2  0  0  3  0  0  0  0  0  0
  191.3520  170.9840  142.0500 C   0  0  2  0  0  3  0  0  0  0  0  0
  191.0620  176.6950  144.3590 C   0  0  1  0  0  3  0  0  0  0  0  0
  190.9920  173.3920  142.8230 C   0  0  0  0  0  0  0  0  0  0  0  0
  194.8240  169.8170  142.9400 C   0  0  0  0  0  0  0  0  0  0  0  0
  191.3380  175.3880  143.6910 C   0  0  0  0  0  0  0  0  0  0  0  0
  190.3530  172.1100  142.3780 C   0  0  1  0  0  3  0  0  0  0  0  0
  189.6240  176.7090  144.8860 C   0  0  0  0  0  2  0  0  0  0  0  0
  195.6140  170.8250  143.4970 O   0  0  0  0  0  0  0  0  0  0  0  0
  192.5060  174.7400  143.7700 N   0  0  0  0  0  0  0  0  0  0  0  0
  192.5040  174.9550  146.7600 C   0  0  0  0  0  1  0  0  0  0  0  0
  188.2130  174.6760  141.9200 C   0  0  0  0  0  2  0  0  0  0  0  0
  188.6520  176.3070  143.7610 C   0  0  0  0  0  2  0  0  0  0  0  0
  193.6380  175.2270  144.5470 C   0  0  0  0  0  2  0  0  0  0  0  0
  193.7880  170.1680  141.9220 C   0  0  0  0  0  2  0  0  0  0  0  0
  191.8130  170.4360  143.2660 O   0  0  0  0  0  0  0  0  0  0  0  0
  188.9000  174.8720  143.2590 C   0  0  2  0  0  3  0  0  0  0  0  0
  192.3010  173.5110  143.2480 C   0  0  0  0  0  0  0  0  0  0  0  0
  192.0960  177.0500  145.4490 C   0  0  0  0  0  2  0  0  0  0  0  0
  189.3630  172.2810  141.2190 C   0  0  1  0  0  3  0  0  0  0  0  0
  194.3050  176.6060  146.4920 C   0  0  0  0  0  1  0  0  0  0  0  0
  192.7710  171.1350  142.5070 C   0  0  2  0  0  0  0  0  0  0  0  0
  195.0050  168.6170  143.2680 O   0  0  0  0  0  0  0  0  0  0  0  0
  193.2960  172.3960  143.2290 C   0  0  2  0  0  3  0  0  0  0  0  0
  187.7210  172.9370  141.6990 S   0  0  0  0  0  0  0  0  0  0  0  0
  189.0620  172.9040  138.8180 C   0  0  0  0  0  3  0  0  0  0  0  0
  189.9130  172.8130  139.9250 C   0  0  0  0  0  0  0  0  0  0  0  0
  191.2490  173.2180  139.8030 C   0  0  0  0  0  3  0  0  0  0  0  0
  193.4010  174.2030  138.4450 Cl  0  0  0  0  0  0  0  0  0  0  0  0
  190.8770  173.7910  137.4820 C   0  0  0  0  0  3  0  0  0  0  0  0
  191.7300  173.7050  138.5860 C   0  0  0  0  0  0  0  0  0  0  0  0
  189.5430  173.3910  137.5970 C   0  0  0  0  0  3  0  0  0  0  0  0
  196.9680  170.3520  145.9720 C   0  0  0  0  0  1  0  0  0  0  0  0
  195.5070  170.7580  145.9160 C   0  0  0  0  0  2  0  0  0  0  0  0
  1  4  1  0  0  0  0
  2 24  1  0  0  0  0
  2 14  1  0  0  0  0
  3 20  1  0  0  0  0
  3  9  2  0  0  0  0
  4 37  1  1  0  0  0
  5 10  1  0  0  0  0
  5 25  1  0  0  0  0
  5 19  1  1  0  0  0
  6 11  1  1  0  0  0
  6 22  1  0  0  0  0
  7  3  1  0  0  0  0
  7 21  2  0  0  0  0
  8 26  2  0  0  0  0
  8 12  1  0  0  0  0
  9 13  1  0  0  0  0
  9  6  1  0  0  0  0
 10  7  1  6  0  0  0
 12  4  1  0  0  0  0
 13 17  1  0  0  0  0
 16 11  1  0  0  0  0
 17  2  1  0  0  0  0
 18  8  1  0  0  0  0
 20 15  1  6  0  0  0
 20 16  1  0  0  0  0
 21 13  1  0  0  0  0
 22  2  1  0  0  0  0
 23 30  1  6  0  0  0
 23 28  1  0  0  0  0
 23 10  1  0  0  0  0
 25 18  1  6  0  0  0
 25 27  1  0  0  0  0
 25 19  1  0  0  0  0
 27 21  1  0  0  0  0
 27  1  1  1  0  0  0
 28 15  1  0  0  0  0
 29 30  1  0  0  0  0
 31 30  2  0  0  0  0
 32 34  1  0  0  0  0
 33 35  1  0  0  0  0
 33 34  2  0  0  0  0
 34 31  1  0  0  0  0
 35 29  2  0  0  0  0
 37 36  1  0  0  0  0
M  END
>  <MODEL>
9

>  <REMARK>
 VINA RESULT:      -7.2      3.417      6.306
  Name = 
  2 active torsions:
  status: ('A' for Active; 'I' for Inactive)
    1  A    between atoms: C_4  and  C_37
    2  A    between atoms: C_23  and  C_30
                            x       y       z     vdW  Elec       q    Type
                         _______ _______ _______ _____ _____    ______ ____

>  <TORSDO>
F 2

$$$$
