=
 OpenBabel11112418063D

 34 40  0  0  1  0  0  0  0  0999 V2000
  189.3600  175.0570  142.8210 C   0  0  0  0  0  0  0  0  0  0  0  0
  191.7950  174.5610  142.4130 C   0  0  0  0  0  2  0  0  0  0  0  0
  184.9040  178.6180  146.2520 C   0  0  0  0  0  0  0  0  0  0  0  0
  187.4120  176.4500  143.3010 C   0  0  0  0  0  0  0  0  0  0  0  0
  186.8530  177.0460  145.7320 C   0  0  2  0  0  3  0  0  0  0  0  0
  186.3800  177.8200  147.9570 O   0  0  0  0  0  1  0  0  0  0  0  0
  183.9640  178.4540  147.0770 O   0  0  0  0  0  0  0  0  0  0  0  0
  185.2000  178.9400  143.7920 C   0  0  0  0  0  2  0  0  0  0  0  0
  191.0180  174.4320  144.7130 C   0  0  2  0  0  3  0  0  0  0  0  0
  193.1050  175.8080  146.7160 C   0  0  0  0  0  2  0  0  0  0  0  0
  188.3590  176.9560  145.9460 C   0  0  0  0  0  2  0  0  0  0  0  0
  186.5550  178.6060  143.9010 O   0  0  0  0  0  0  0  0  0  0  0  0
  190.4310  175.6640  145.4210 C   0  0  1  0  0  3  0  0  0  0  0  0
  192.9530  174.0850  143.2570 C   0  0  0  0  0  2  0  0  0  0  0  0
  186.5390  177.2470  144.2370 C   0  0  1  0  0  3  0  0  0  0  0  0
  184.6420  179.3010  145.0580 O   0  0  0  0  0  0  0  0  0  0  0  0
  193.2970  175.6250  145.2140 C   0  0  2  0  0  3  0  0  0  0  0  0
  188.5780  175.7830  143.7460 C   0  0  0  0  0  0  0  0  0  0  0  0
  186.3010  178.1780  146.6080 C   0  0  2  0  0  3  0  0  0  0  0  0
  188.9190  175.7400  145.2160 C   0  0  2  0  0  3  0  0  0  0  0  0
  187.8240  175.6700  141.0430 C   0  0  0  0  0  3  0  0  0  0  0  0
  191.7690  176.4780  147.0030 C   0  0  0  0  0  2  0  0  0  0  0  0
  187.0520  176.3910  141.9510 C   0  0  0  0  0  3  0  0  0  0  0  0
  190.7210  175.5780  146.7890 O   0  0  0  0  0  0  0  0  0  0  0  0
  192.5640  174.3650  144.7030 C   0  0  1  0  0  3  0  0  0  0  0  0
  188.9680  175.0020  141.4770 C   0  0  0  0  0  3  0  0  0  0  0  0
  190.5730  174.2670  143.2550 C   0  0  1  0  0  3  0  0  0  0  0  0
  194.6670  175.5260  144.9530 O   0  0  0  0  0  0  0  0  0  0  0  0
  195.2110  174.9560  146.1060 C   0  0  0  0  0  2  0  0  0  0  0  0
  197.3760  171.8780  144.6640 S   0  0  0  0  0  0  0  0  0  0  0  0
  196.9430  174.5300  144.3700 C   0  0  0  0  0  2  0  0  0  0  0  0
  196.4640  174.1770  145.7560 C   0  0  2  0  0  3  0  0  0  0  0  0
  197.9410  173.4650  143.9790 C   0  0  0  0  0  2  0  0  0  0  0  0
  196.1630  172.6960  145.7460 C   0  0  0  0  0  2  0  0  0  0  0  0
  1 27  1  0  0  0  0
  1 18  1  0  0  0  0
  2 27  1  0  0  0  0
  2 14  1  0  0  0  0
  3 19  1  0  0  0  0
  3  7  2  0  0  0  0
  4 18  2  0  0  0  0
  4 15  1  0  0  0  0
  5 11  1  6  0  0  0
  5 19  1  0  0  0  0
  8 12  1  0  0  0  0
  8 16  1  0  0  0  0
  9 13  1  0  0  0  0
 10 22  1  0  0  0  0
 12 15  1  0  0  0  0
 13 24  1  0  0  0  0
 14 25  1  0  0  0  0
 15  5  1  0  0  0  0
 16  3  1  0  0  0  0
 17 10  1  0  0  0  0
 18 20  1  0  0  0  0
 19  6  1  0  0  0  0
 20 13  1  0  0  0  0
 20 11  1  0  0  0  0
 21 26  1  0  0  0  0
 21 23  2  0  0  0  0
 23  4  1  0  0  0  0
 24 22  1  0  0  0  0
 25  9  1  0  0  0  0
 25 17  1  0  0  0  0
 26  1  2  0  0  0  0
 27  9  1  0  0  0  0
 28 17  1  0  0  0  0
 28 29  1  0  0  0  0
 30 34  1  0  0  0  0
 31 32  1  0  0  0  0
 32 29  1  0  0  0  0
 33 31  1  0  0  0  0
 33 30  1  0  0  0  0
 34 32  1  0  0  0  0
M  END
>  <MODEL>
1

>  <REMARK>
 VINA RESULT:      -8.9      0.000      0.000
  Name = 
  3 active torsions:
  status: ('A' for Active; 'I' for Inactive)
    1  A    between atoms: C_17  and  O_28
    2  A    between atoms: O_28  and  C_29
    3  A    between atoms: C_29  and  C_32
                            x       y       z     vdW  Elec       q    Type
                         _______ _______ _______ _____ _____    ______ ____

>  <TORSDO>
F 3

$$$$
=
 OpenBabel11112418063D

 34 40  0  0  1  0  0  0  0  0999 V2000
  189.3280  174.9580  142.6600 C   0  0  0  0  0  0  0  0  0  0  0  0
  191.7420  174.3780  142.2460 C   0  0  0  0  0  2  0  0  0  0  0  0
  185.0010  178.5900  146.1810 C   0  0  0  0  0  0  0  0  0  0  0  0
  187.4340  176.4120  143.1750 C   0  0  0  0  0  0  0  0  0  0  0  0
  186.8890  176.9580  145.6210 C   0  0  2  0  0  3  0  0  0  0  0  0
  186.4380  177.6850  147.8670 O   0  0  0  0  0  1  0  0  0  0  0  0
  184.0530  178.4400  146.9990 O   0  0  0  0  0  0  0  0  0  0  0  0
  185.3200  178.9730  143.7340 C   0  0  0  0  0  2  0  0  0  0  0  0
  190.9510  174.2120  144.5380 C   0  0  2  0  0  3  0  0  0  0  0  0
  193.0830  175.4440  146.5880 C   0  0  0  0  0  2  0  0  0  0  0  0
  188.3890  176.8020  145.8370 C   0  0  0  0  0  2  0  0  0  0  0  0
  186.6600  178.5820  143.8360 O   0  0  0  0  0  0  0  0  0  0  0  0
  190.4100  175.4450  145.2800 C   0  0  1  0  0  3  0  0  0  0  0  0
  192.8770  173.8320  143.0780 C   0  0  0  0  0  2  0  0  0  0  0  0
  186.5900  177.2160  144.1320 C   0  0  1  0  0  3  0  0  0  0  0  0
  184.7720  179.3180  145.0080 O   0  0  0  0  0  0  0  0  0  0  0  0
  193.2740  175.2980  145.0820 C   0  0  2  0  0  3  0  0  0  0  0  0
  188.5710  175.6870  143.6040 C   0  0  0  0  0  0  0  0  0  0  0  0
  186.3790  178.0850  146.5290 C   0  0  2  0  0  3  0  0  0  0  0  0
  188.9040  175.5870  145.0730 C   0  0  2  0  0  3  0  0  0  0  0  0
  187.8250  175.6840  140.8970 C   0  0  0  0  0  3  0  0  0  0  0  0
  191.7730  176.1580  146.8900 C   0  0  0  0  0  2  0  0  0  0  0  0
  187.0780  176.4080  141.8240 C   0  0  0  0  0  3  0  0  0  0  0  0
  190.6910  175.3080  146.6460 O   0  0  0  0  0  0  0  0  0  0  0  0
  192.4930  174.0840  144.5310 C   0  0  1  0  0  3  0  0  0  0  0  0
  188.9400  174.9580  141.3150 C   0  0  0  0  0  3  0  0  0  0  0  0
  190.5060  174.1080  143.0740 C   0  0  1  0  0  3  0  0  0  0  0  0
  194.6390  175.1530  144.8210 O   0  0  0  0  0  0  0  0  0  0  0  0
  195.1130  176.4580  144.6610 C   0  0  0  0  0  2  0  0  0  0  0  0
  197.8470  174.9700  142.1010 S   0  0  0  0  0  0  0  0  0  0  0  0
  195.5360  176.3700  142.2090 C   0  0  0  0  0  2  0  0  0  0  0  0
  196.1690  176.4950  143.5740 C   0  0  2  0  0  3  0  0  0  0  0  0
  196.6560  176.0480  141.2470 C   0  0  0  0  0  2  0  0  0  0  0  0
  197.1060  175.3200  143.7260 C   0  0  0  0  0  2  0  0  0  0  0  0
  1 27  1  0  0  0  0
  1 18  1  0  0  0  0
  2 27  1  0  0  0  0
  2 14  1  0  0  0  0
  3 19  1  0  0  0  0
  3  7  2  0  0  0  0
  4 18  2  0  0  0  0
  4 15  1  0  0  0  0
  5 11  1  6  0  0  0
  5 19  1  0  0  0  0
  8 12  1  0  0  0  0
  8 16  1  0  0  0  0
  9 13  1  0  0  0  0
 10 22  1  0  0  0  0
 12 15  1  0  0  0  0
 13 24  1  0  0  0  0
 14 25  1  0  0  0  0
 15  5  1  0  0  0  0
 16  3  1  0  0  0  0
 17 10  1  0  0  0  0
 18 20  1  0  0  0  0
 19  6  1  0  0  0  0
 20 13  1  0  0  0  0
 20 11  1  0  0  0  0
 21 26  1  0  0  0  0
 21 23  2  0  0  0  0
 23  4  1  0  0  0  0
 24 22  1  0  0  0  0
 25  9  1  0  0  0  0
 25 17  1  0  0  0  0
 26  1  2  0  0  0  0
 27  9  1  0  0  0  0
 28 17  1  0  0  0  0
 29 28  1  0  0  0  0
 30 34  1  0  0  0  0
 31 32  1  0  0  0  0
 32 34  1  0  0  0  0
 32 29  1  0  0  0  0
 33 30  1  0  0  0  0
 33 31  1  0  0  0  0
M  END
>  <MODEL>
2

>  <REMARK>
 VINA RESULT:      -8.9      1.219      1.436
  Name = 
  3 active torsions:
  status: ('A' for Active; 'I' for Inactive)
    1  A    between atoms: C_17  and  O_28
    2  A    between atoms: O_28  and  C_29
    3  A    between atoms: C_29  and  C_32
                            x       y       z     vdW  Elec       q    Type
                         _______ _______ _______ _____ _____    ______ ____

>  <TORSDO>
F 3

$$$$
=
 OpenBabel11112418063D

 34 40  0  0  1  0  0  0  0  0999 V2000
  189.7120  174.0810  142.6860 C   0  0  0  0  0  0  0  0  0  0  0  0
  191.9680  173.6610  143.7210 C   0  0  0  0  0  2  0  0  0  0  0  0
  184.5590  178.2500  142.0720 C   0  0  0  0  0  0  0  0  0  0  0  0
  187.9380  175.4030  141.6510 C   0  0  0  0  0  0  0  0  0  0  0  0
  186.3350  176.7460  143.1340 C   0  0  2  0  0  3  0  0  0  0  0  0
  184.9240  178.1930  144.4360 O   0  0  0  0  0  1  0  0  0  0  0  0
  183.3260  178.3060  142.3270 O   0  0  0  0  0  0  0  0  0  0  0  0
  186.0470  177.7380  140.1310 C   0  0  0  0  0  2  0  0  0  0  0  0
  190.1620  174.2630  145.2320 C   0  0  2  0  0  3  0  0  0  0  0  0
  191.1440  176.3900  147.4160 C   0  0  0  0  0  2  0  0  0  0  0  0
  187.5260  176.8480  144.0780 C   0  0  0  0  0  2  0  0  0  0  0  0
  187.1330  177.5640  140.9970 O   0  0  0  0  0  0  0  0  0  0  0  0
  189.4400  175.6140  145.1040 C   0  0  1  0  0  3  0  0  0  0  0  0
  192.5110  173.5880  145.1280 C   0  0  0  0  0  2  0  0  0  0  0  0
  186.8110  176.4030  141.7100 C   0  0  1  0  0  3  0  0  0  0  0  0
  184.9870  178.4650  140.7560 O   0  0  0  0  0  0  0  0  0  0  0  0
  192.0210  175.7230  146.3630 C   0  0  2  0  0  3  0  0  0  0  0  0
  188.6610  175.0170  142.8040 C   0  0  0  0  0  0  0  0  0  0  0  0
  185.5500  178.0640  143.1930 C   0  0  2  0  0  3  0  0  0  0  0  0
  188.2370  175.5020  144.1700 C   0  0  2  0  0  3  0  0  0  0  0  0
  189.3110  173.9360  140.2950 C   0  0  0  0  0  3  0  0  0  0  0  0
  189.9170  177.0160  146.7670 C   0  0  0  0  0  2  0  0  0  0  0  0
  188.2760  174.8620  140.4070 C   0  0  0  0  0  3  0  0  0  0  0  0
  189.0170  176.0210  146.3760 O   0  0  0  0  0  0  0  0  0  0  0  0
  191.5000  174.3130  146.0080 C   0  0  1  0  0  3  0  0  0  0  0  0
  190.0200  173.5430  141.4300 C   0  0  0  0  0  3  0  0  0  0  0  0
  190.4680  173.5790  143.8940 C   0  0  1  0  0  3  0  0  0  0  0  0
  193.3260  175.6450  146.8590 O   0  0  0  0  0  0  0  0  0  0  0  0
  193.9680  176.7780  146.3540 C   0  0  0  0  0  2  0  0  0  0  0  0
  196.4030  174.2370  144.3880 S   0  0  0  0  0  0  0  0  0  0  0  0
  194.6700  176.2800  144.0180 C   0  0  0  0  0  2  0  0  0  0  0  0
  195.1190  176.3630  145.4560 C   0  0  2  0  0  3  0  0  0  0  0  0
  195.7480  175.5210  143.2780 C   0  0  0  0  0  2  0  0  0  0  0  0
  195.6000  174.9840  145.8410 C   0  0  0  0  0  2  0  0  0  0  0  0
  1 18  1  0  0  0  0
  1 27  1  0  0  0  0
  2 27  1  0  0  0  0
  2 14  1  0  0  0  0
  3  7  2  0  0  0  0
  3 19  1  0  0  0  0
  4 15  1  0  0  0  0
  4 18  2  0  0  0  0
  5 19  1  0  0  0  0
  5 11  1  1  0  0  0
  8 16  1  0  0  0  0
  8 12  1  0  0  0  0
  9 25  1  0  0  0  0
 11 20  1  0  0  0  0
 12 15  1  0  0  0  0
 13  9  1  0  0  0  0
 13 24  1  0  0  0  0
 14 25  1  0  0  0  0
 15  5  1  0  0  0  0
 16  3  1  0  0  0  0
 17 28  1  0  0  0  0
 17 10  1  0  0  0  0
 18 20  1  0  0  0  0
 19  6  1  0  0  0  0
 20 13  1  0  0  0  0
 21 23  2  0  0  0  0
 21 26  1  0  0  0  0
 22 10  1  0  0  0  0
 23  4  1  0  0  0  0
 24 22  1  0  0  0  0
 25 17  1  0  0  0  0
 26  1  2  0  0  0  0
 27  9  1  0  0  0  0
 29 28  1  0  0  0  0
 30 34  1  0  0  0  0
 31 32  1  0  0  0  0
 32 34  1  0  0  0  0
 32 29  1  0  0  0  0
 33 31  1  0  0  0  0
 33 30  1  0  0  0  0
M  END
>  <MODEL>
3

>  <REMARK>
 VINA RESULT:      -8.8      1.765      2.592
  Name = 
  3 active torsions:
  status: ('A' for Active; 'I' for Inactive)
    1  A    between atoms: C_17  and  O_28
    2  A    between atoms: O_28  and  C_29
    3  A    between atoms: C_29  and  C_32
                            x       y       z     vdW  Elec       q    Type
                         _______ _______ _______ _____ _____    ______ ____

>  <TORSDO>
F 3

$$$$
=
 OpenBabel11112418063D

 34 40  0  0  1  0  0  0  0  0999 V2000
  189.6370  177.1300  145.9190 C   0  0  0  0  0  0  0  0  0  0  0  0
  191.4010  175.5980  146.8570 C   0  0  0  0  0  2  0  0  0  0  0  0
  185.1010  178.1380  141.1530 C   0  0  0  0  0  0  0  0  0  0  0  0
  187.5200  177.7130  144.8500 C   0  0  0  0  0  0  0  0  0  0  0  0
  187.3430  177.6710  142.2920 C   0  0  2  0  0  3  0  0  0  0  0  0
  187.0340  177.4560  139.9190 O   0  0  0  0  0  1  0  0  0  0  0  0
  184.8540  178.9320  140.2060 O   0  0  0  0  0  0  0  0  0  0  0  0
  184.4220  177.7930  143.5330 C   0  0  0  0  0  2  0  0  0  0  0  0
  191.5990  176.1930  144.5090 C   0  0  2  0  0  3  0  0  0  0  0  0
  192.3570  173.6390  142.7300 C   0  0  0  0  0  2  0  0  0  0  0  0
  188.3890  176.5670  142.3840 C   0  0  0  0  0  2  0  0  0  0  0  0
  185.5320  176.9650  143.7400 O   0  0  0  0  0  0  0  0  0  0  0  0
  190.4950  175.8270  143.5040 C   0  0  1  0  0  3  0  0  0  0  0  0
  192.6810  174.9860  146.3410 C   0  0  0  0  0  2  0  0  0  0  0  0
  186.6230  177.8370  143.6440 C   0  0  1  0  0  3  0  0  0  0  0  0
  184.1290  177.9420  142.1420 O   0  0  0  0  0  0  0  0  0  0  0  0
  192.2340  173.6640  144.2500 C   0  0  2  0  0  3  0  0  0  0  0  0
  188.8470  177.2310  144.7530 C   0  0  0  0  0  0  0  0  0  0  0  0
  186.3780  177.3360  141.1470 C   0  0  2  0  0  3  0  0  0  0  0  0
  189.4590  176.9440  143.4040 C   0  0  2  0  0  3  0  0  0  0  0  0
  187.7880  177.9790  147.2440 C   0  0  0  0  0  3  0  0  0  0  0  0
  191.1070  174.2220  142.0870 C   0  0  0  0  0  2  0  0  0  0  0  0
  187.0030  178.0760  146.0970 C   0  0  0  0  0  3  0  0  0  0  0  0
  191.0820  175.6100  142.2500 O   0  0  0  0  0  0  0  0  0  0  0  0
  192.5970  175.0520  144.8210 C   0  0  1  0  0  3  0  0  0  0  0  0
  189.1000  177.5150  147.1540 C   0  0  0  0  0  3  0  0  0  0  0  0
  191.0820  176.6930  145.8630 C   0  0  1  0  0  3  0  0  0  0  0  0
  193.0820  172.6870  144.7790 O   0  0  0  0  0  0  0  0  0  0  0  0
  193.9250  172.3360  143.7210 C   0  0  0  0  0  2  0  0  0  0  0  0
  197.3960  174.0560  144.8350 S   0  0  0  0  0  0  0  0  0  0  0  0
  195.4630  172.3640  145.6780 C   0  0  0  0  0  2  0  0  0  0  0  0
  195.3720  172.3900  144.1720 C   0  0  2  0  0  3  0  0  0  0  0  0
  196.8710  172.7870  146.0280 C   0  0  0  0  0  2  0  0  0  0  0  0
  196.0030  173.6870  143.7230 C   0  0  0  0  0  2  0  0  0  0  0  0
  1 26  1  0  0  0  0
  3 16  1  0  0  0  0
  4 23  2  0  0  0  0
  5 11  1  1  0  0  0
  5 15  1  0  0  0  0
  6 19  1  0  0  0  0
  7  3  2  0  0  0  0
  8 12  1  0  0  0  0
  9 25  1  0  0  0  0
  9 27  1  0  0  0  0
 10 17  1  0  0  0  0
 11 20  1  0  0  0  0
 13  9  1  0  0  0  0
 14  2  1  0  0  0  0
 15 12  1  0  0  0  0
 15  4  1  0  0  0  0
 16  8  1  0  0  0  0
 17 28  1  0  0  0  0
 17 25  1  0  0  0  0
 18  4  1  0  0  0  0
 18  1  2  0  0  0  0
 19  3  1  0  0  0  0
 19  5  1  0  0  0  0
 20 13  1  0  0  0  0
 20 18  1  0  0  0  0
 22 24  1  0  0  0  0
 22 10  1  0  0  0  0
 23 21  1  0  0  0  0
 24 13  1  0  0  0  0
 25 14  1  0  0  0  0
 26 21  2  0  0  0  0
 27  1  1  0  0  0  0
 27  2  1  0  0  0  0
 29 32  1  0  0  0  0
 29 28  1  0  0  0  0
 30 33  1  0  0  0  0
 31 33  1  0  0  0  0
 32 31  1  0  0  0  0
 34 32  1  0  0  0  0
 34 30  1  0  0  0  0
M  END
>  <MODEL>
4

>  <REMARK>
 VINA RESULT:      -8.6      1.986      3.936
  Name = 
  3 active torsions:
  status: ('A' for Active; 'I' for Inactive)
    1  A    between atoms: C_17  and  O_28
    2  A    between atoms: O_28  and  C_29
    3  A    between atoms: C_29  and  C_32
                            x       y       z     vdW  Elec       q    Type
                         _______ _______ _______ _____ _____    ______ ____

>  <TORSDO>
F 3

$$$$
=
 OpenBabel11112418063D

 34 40  0  0  1  0  0  0  0  0999 V2000
  192.1130  175.7220  145.9270 C   0  0  0  0  0  0  0  0  0  0  0  0
  190.4360  177.5130  145.3620 C   0  0  0  0  0  2  0  0  0  0  0  0
  195.0680  170.0670  144.0320 C   0  0  0  0  0  0  0  0  0  0  0  0
  193.8720  174.0870  145.4840 C   0  0  0  0  0  0  0  0  0  0  0  0
  193.2400  171.7500  144.6370 C   0  0  2  0  0  3  0  0  0  0  0  0
  192.7490  169.6150  143.6490 O   0  0  0  0  0  1  0  0  0  0  0  0
  195.1770  168.8640  144.3950 O   0  0  0  0  0  0  0  0  0  0  0  0
  196.3540  172.2010  144.2110 C   0  0  0  0  0  2  0  0  0  0  0  0
  189.6580  175.2120  145.2700 C   0  0  2  0  0  3  0  0  0  0  0  0
  187.8570  174.7060  142.6700 C   0  0  0  0  0  2  0  0  0  0  0  0
  192.0600  172.4640  143.9900 C   0  0  0  0  0  2  0  0  0  0  0  0
  195.2110  172.9310  143.8670 O   0  0  0  0  0  0  0  0  0  0  0  0
  190.2930  174.2010  144.3010 C   0  0  1  0  0  3  0  0  0  0  0  0
  188.9590  177.5460  145.0520 C   0  0  0  0  0  2  0  0  0  0  0  0
  194.3580  172.7580  144.9640 C   0  0  1  0  0  3  0  0  0  0  0  0
  196.2310  170.8250  143.8460 O   0  0  0  0  0  0  0  0  0  0  0  0
  188.4440  176.0450  143.1020 C   0  0  2  0  0  3  0  0  0  0  0  0
  192.5080  174.4610  145.4300 C   0  0  0  0  0  0  0  0  0  0  0  0
  193.7090  170.6300  143.6990 C   0  0  2  0  0  3  0  0  0  0  0  0
  191.4640  173.4770  144.9620 C   0  0  2  0  0  3  0  0  0  0  0  0
  194.4180  176.2120  146.5130 C   0  0  0  0  0  3  0  0  0  0  0  0
  188.9430  173.6400  142.6220 C   0  0  0  0  0  2  0  0  0  0  0  0
  194.8130  174.9710  146.0200 C   0  0  0  0  0  3  0  0  0  0  0  0
  189.3160  173.2720  143.9170 O   0  0  0  0  0  0  0  0  0  0  0  0
  188.5830  176.1290  144.6380 C   0  0  1  0  0  3  0  0  0  0  0  0
  193.0740  176.5830  146.4720 C   0  0  0  0  0  3  0  0  0  0  0  0
  190.6620  176.1430  145.9610 C   0  0  1  0  0  3  0  0  0  0  0  0
  187.6090  177.0650  142.6360 O   0  0  0  0  0  0  0  0  0  0  0  0
  186.3180  176.5380  142.7270 C   0  0  0  0  0  2  0  0  0  0  0  0
  184.7300  178.7610  145.6910 S   0  0  0  0  0  0  0  0  0  0  0  0
  185.9890  178.9380  143.3040 C   0  0  0  0  0  2  0  0  0  0  0  0
  185.3880  177.5550  143.3630 C   0  0  2  0  0  3  0  0  0  0  0  0
  185.1900  179.7910  144.2630 C   0  0  0  0  0  2  0  0  0  0  0  0
  185.1920  177.2290  144.8250 C   0  0  0  0  0  2  0  0  0  0  0  0
  1 27  1  0  0  0  0
  1 26  1  0  0  0  0
  2 27  1  0  0  0  0
  3  7  2  0  0  0  0
  4 23  2  0  0  0  0
  5 11  1  6  0  0  0
  5 15  1  0  0  0  0
  6 19  1  0  0  0  0
  9 27  1  0  0  0  0
 10 17  1  0  0  0  0
 11 20  1  0  0  0  0
 12  8  1  0  0  0  0
 12 15  1  0  0  0  0
 13 20  1  0  0  0  0
 13  9  1  0  0  0  0
 14  2  1  0  0  0  0
 15  4  1  0  0  0  0
 16  3  1  0  0  0  0
 16  8  1  0  0  0  0
 17 25  1  0  0  0  0
 18  4  1  0  0  0  0
 18  1  2  0  0  0  0
 19  3  1  0  0  0  0
 19  5  1  0  0  0  0
 20 18  1  0  0  0  0
 22 10  1  0  0  0  0
 22 24  1  0  0  0  0
 23 21  1  0  0  0  0
 24 13  1  0  0  0  0
 25 14  1  0  0  0  0
 25  9  1  0  0  0  0
 26 21  2  0  0  0  0
 28 29  1  0  0  0  0
 28 17  1  0  0  0  0
 29 32  1  0  0  0  0
 31 32  1  0  0  0  0
 31 33  1  0  0  0  0
 32 34  1  0  0  0  0
 33 30  1  0  0  0  0
 34 30  1  0  0  0  0
M  END
>  <MODEL>
5

>  <REMARK>
 VINA RESULT:      -8.3      3.508      9.107
  Name = 
  3 active torsions:
  status: ('A' for Active; 'I' for Inactive)
    1  A    between atoms: C_17  and  O_28
    2  A    between atoms: O_28  and  C_29
    3  A    between atoms: C_29  and  C_32
                            x       y       z     vdW  Elec       q    Type
                         _______ _______ _______ _____ _____    ______ ____

>  <TORSDO>
F 3

$$$$
=
 OpenBabel11112418063D

 34 40  0  0  1  0  0  0  0  0999 V2000
  192.6340  176.5340  146.1980 C   0  0  0  0  0  0  0  0  0  0  0  0
  194.6850  175.0740  146.2080 C   0  0  0  0  0  2  0  0  0  0  0  0
  186.8730  178.0210  143.2140 C   0  0  0  0  0  0  0  0  0  0  0  0
  190.2670  177.0640  145.9090 C   0  0  0  0  0  0  0  0  0  0  0  0
  189.3710  177.6030  143.5670 C   0  0  2  0  0  3  0  0  0  0  0  0
  188.4130  177.9150  141.3860 O   0  0  0  0  0  1  0  0  0  0  0  0
  186.3170  178.9770  142.6080 O   0  0  0  0  0  0  0  0  0  0  0  0
  186.9240  177.0370  145.5100 C   0  0  0  0  0  2  0  0  0  0  0  0
  194.1670  176.2270  144.1320 C   0  0  2  0  0  3  0  0  0  0  0  0
  194.5460  174.2900  141.6090 C   0  0  0  0  0  2  0  0  0  0  0  0
  190.4680  176.6590  143.0900 C   0  0  0  0  0  2  0  0  0  0  0  0
  188.0970  176.3400  145.1960 O   0  0  0  0  0  0  0  0  0  0  0  0
  192.8480  175.9640  143.3870 C   0  0  1  0  0  3  0  0  0  0  0  0
  195.8000  174.7770  145.2340 C   0  0  0  0  0  2  0  0  0  0  0  0
  189.0580  177.3480  145.0530 C   0  0  1  0  0  3  0  0  0  0  0  0
  186.2370  177.4700  144.3330 O   0  0  0  0  0  0  0  0  0  0  0  0
  194.8600  173.9380  143.0590 C   0  0  2  0  0  3  0  0  0  0  0  0
  191.5390  176.8000  145.3470 C   0  0  0  0  0  0  0  0  0  0  0  0
  188.1430  177.4220  142.6650 C   0  0  2  0  0  3  0  0  0  0  0  0
  191.7580  176.9250  143.8580 C   0  0  2  0  0  3  0  0  0  0  0  0
  191.1900  176.7910  148.1330 C   0  0  0  0  0  3  0  0  0  0  0  0
  193.1300  174.8360  141.4890 C   0  0  0  0  0  2  0  0  0  0  0  0
  190.1060  177.0500  147.2970 C   0  0  0  0  0  3  0  0  0  0  0  0
  193.0650  176.1300  142.0130 O   0  0  0  0  0  0  0  0  0  0  0  0
  195.2830  175.1890  143.8620 C   0  0  1  0  0  3  0  0  0  0  0  0
  192.4480  176.5410  147.5870 C   0  0  0  0  0  3  0  0  0  0  0  0
  194.0270  176.3190  145.6560 C   0  0  1  0  0  3  0  0  0  0  0  0
  195.8840  172.9870  143.0720 O   0  0  0  0  0  0  0  0  0  0  0  0
  195.2300  171.7610  143.2150 C   0  0  0  0  0  2  0  0  0  0  0  0
  194.9530  169.2490  146.3550 S   0  0  0  0  0  0  0  0  0  0  0  0
  196.6040  171.0210  145.1550 C   0  0  0  0  0  2  0  0  0  0  0  0
  195.2120  171.3520  144.6760 C   0  0  2  0  0  3  0  0  0  0  0  0
  196.4420  170.2880  146.4660 C   0  0  0  0  0  2  0  0  0  0  0  0
  194.3860  170.0990  144.8490 C   0  0  0  0  0  2  0  0  0  0  0  0
  1 26  1  0  0  0  0
  3 16  1  0  0  0  0
  4 23  2  0  0  0  0
  5 11  1  6  0  0  0
  5 15  1  0  0  0  0
  6 19  1  0  0  0  0
  7  3  2  0  0  0  0
  9 27  1  0  0  0  0
 10 17  1  0  0  0  0
 11 20  1  0  0  0  0
 12  8  1  0  0  0  0
 13 20  1  0  0  0  0
 13  9  1  0  0  0  0
 14  2  1  0  0  0  0
 15 12  1  0  0  0  0
 15  4  1  0  0  0  0
 16  8  1  0  0  0  0
 17 28  1  0  0  0  0
 17 25  1  0  0  0  0
 18  4  1  0  0  0  0
 18  1  2  0  0  0  0
 19  3  1  0  0  0  0
 19  5  1  0  0  0  0
 20 18  1  0  0  0  0
 22 10  1  0  0  0  0
 22 24  1  0  0  0  0
 23 21  1  0  0  0  0
 24 13  1  0  0  0  0
 25  9  1  0  0  0  0
 25 14  1  0  0  0  0
 26 21  2  0  0  0  0
 27  1  1  0  0  0  0
 27  2  1  0  0  0  0
 28 29  1  0  0  0  0
 29 32  1  0  0  0  0
 30 33  1  0  0  0  0
 31 33  1  0  0  0  0
 32 34  1  0  0  0  0
 32 31  1  0  0  0  0
 34 30  1  0  0  0  0
M  END
>  <MODEL>
6

>  <REMARK>
 VINA RESULT:      -8.2      2.169      4.442
  Name = 
  3 active torsions:
  status: ('A' for Active; 'I' for Inactive)
    1  A    between atoms: C_17  and  O_28
    2  A    between atoms: O_28  and  C_29
    3  A    between atoms: C_29  and  C_32
                            x       y       z     vdW  Elec       q    Type
                         _______ _______ _______ _____ _____    ______ ____

>  <TORSDO>
F 3

$$$$
=
 OpenBabel11112418063D

 34 40  0  0  1  0  0  0  0  0999 V2000
  188.0890  176.9670  145.6320 C   0  0  0  0  0  0  0  0  0  0  0  0
  185.8950  178.1590  145.3090 C   0  0  0  0  0  2  0  0  0  0  0  0
  193.8660  175.1010  142.9010 C   0  0  0  0  0  0  0  0  0  0  0  0
  190.4870  176.5850  145.3670 C   0  0  0  0  0  0  0  0  0  0  0  0
  191.3510  175.3870  143.2710 C   0  0  2  0  0  3  0  0  0  0  0  0
  192.2590  174.4600  141.2480 O   0  0  0  0  0  1  0  0  0  0  0  0
  194.4990  174.0530  142.6010 O   0  0  0  0  0  0  0  0  0  0  0  0
  193.7920  176.7780  144.7510 C   0  0  0  0  0  2  0  0  0  0  0  0
  186.4590  176.4360  143.6880 C   0  0  2  0  0  3  0  0  0  0  0  0
  185.7840  177.3920  140.7060 C   0  0  0  0  0  2  0  0  0  0  0  0
  190.1440  176.0180  142.5900 C   0  0  0  0  0  2  0  0  0  0  0  0
  192.5410  177.2250  144.3100 O   0  0  0  0  0  0  0  0  0  0  0  0
  187.7150  176.5560  142.8100 C   0  0  1  0  0  3  0  0  0  0  0  0
  184.7200  178.0170  144.3710 C   0  0  0  0  0  2  0  0  0  0  0  0
  191.6880  176.1450  144.5690 C   0  0  1  0  0  3  0  0  0  0  0  0
  194.4780  176.0450  143.7350 O   0  0  0  0  0  0  0  0  0  0  0  0
  185.4870  178.1720  141.9820 C   0  0  2  0  0  3  0  0  0  0  0  0
  189.1750  176.5340  144.8390 C   0  0  0  0  0  0  0  0  0  0  0  0
  192.5190  175.3700  142.2770 C   0  0  2  0  0  3  0  0  0  0  0  0
  188.9180  175.9070  143.4900 C   0  0  2  0  0  3  0  0  0  0  0  0
  189.6210  177.4930  147.4410 C   0  0  0  0  0  3  0  0  0  0  0  0
  187.2450  176.9660  140.6730 C   0  0  0  0  0  2  0  0  0  0  0  0
  190.6960  177.0710  146.6610 C   0  0  0  0  0  3  0  0  0  0  0  0
  187.4670  175.9280  141.5820 O   0  0  0  0  0  0  0  0  0  0  0  0
  185.2290  177.2240  143.1740 C   0  0  1  0  0  3  0  0  0  0  0  0
  188.3250  177.4350  146.9310 C   0  0  0  0  0  3  0  0  0  0  0  0
  186.6620  176.8650  145.1460 C   0  0  1  0  0  3  0  0  0  0  0  0
  184.3680  178.9790  141.7560 O   0  0  0  0  0  0  0  0  0  0  0  0
  183.5980  178.2700  140.8310 C   0  0  0  0  0  2  0  0  0  0  0  0
  179.5730  178.0740  140.7670 S   0  0  0  0  0  0  0  0  0  0  0  0
  181.6620  178.9590  142.2370 C   0  0  0  0  0  2  0  0  0  0  0  0
  182.1760  178.7990  140.8270 C   0  0  2  0  0  3  0  0  0  0  0  0
  180.1640  179.1260  142.1290 C   0  0  0  0  0  2  0  0  0  0  0  0
  181.2610  177.8120  140.1420 C   0  0  0  0  0  2  0  0  0  0  0  0
  1 26  1  0  0  0  0
  3 16  1  0  0  0  0
  4 23  2  0  0  0  0
  5 11  1  6  0  0  0
  5 15  1  0  0  0  0
  6 19  1  0  0  0  0
  7  3  2  0  0  0  0
  9 27  1  0  0  0  0
 10 17  1  0  0  0  0
 11 20  1  0  0  0  0
 12 15  1  0  0  0  0
 12  8  1  0  0  0  0
 13 20  1  0  0  0  0
 13  9  1  0  0  0  0
 14  2  1  0  0  0  0
 15  4  1  0  0  0  0
 16  8  1  0  0  0  0
 17 25  1  0  0  0  0
 18  4  1  0  0  0  0
 18  1  2  0  0  0  0
 19  3  1  0  0  0  0
 19  5  1  0  0  0  0
 20 18  1  0  0  0  0
 22 10  1  0  0  0  0
 22 24  1  0  0  0  0
 23 21  1  0  0  0  0
 24 13  1  0  0  0  0
 25  9  1  0  0  0  0
 25 14  1  0  0  0  0
 26 21  2  0  0  0  0
 27  2  1  0  0  0  0
 27  1  1  0  0  0  0
 28 17  1  0  0  0  0
 29 28  1  0  0  0  0
 30 33  1  0  0  0  0
 32 29  1  0  0  0  0
 32 31  1  0  0  0  0
 33 31  1  0  0  0  0
 34 30  1  0  0  0  0
 34 32  1  0  0  0  0
M  END
>  <MODEL>
7

>  <REMARK>
 VINA RESULT:      -8.2      4.164      9.719
  Name = 
  3 active torsions:
  status: ('A' for Active; 'I' for Inactive)
    1  A    between atoms: C_17  and  O_28
    2  A    between atoms: O_28  and  C_29
    3  A    between atoms: C_29  and  C_32
                            x       y       z     vdW  Elec       q    Type
                         _______ _______ _______ _____ _____    ______ ____

>  <TORSDO>
F 3

$$$$
=
 OpenBabel11112418063D

 34 40  0  0  1  0  0  0  0  0999 V2000
  190.9750  176.2490  144.9960 C   0  0  0  0  0  0  0  0  0  0  0  0
  192.5350  174.5170  144.0470 C   0  0  0  0  0  2  0  0  0  0  0  0
  184.6730  178.2700  145.7120 C   0  0  0  0  0  0  0  0  0  0  0  0
  188.9370  177.0850  146.0510 C   0  0  0  0  0  0  0  0  0  0  0  0
  186.8610  177.5310  144.6130 C   0  0  2  0  0  3  0  0  0  0  0  0
  184.8160  177.7770  143.3750 O   0  0  0  0  0  1  0  0  0  0  0  0
  183.9260  179.2360  145.3980 O   0  0  0  0  0  0  0  0  0  0  0  0
  186.0160  177.5030  147.6740 C   0  0  0  0  0  2  0  0  0  0  0  0
  190.9590  175.5380  142.5040 C   0  0  2  0  0  3  0  0  0  0  0  0
  189.6450  173.3440  140.5750 C   0  0  0  0  0  2  0  0  0  0  0  0
  187.3990  176.4000  143.7460 C   0  0  0  0  0  2  0  0  0  0  0  0
  186.7270  176.6190  146.8540 O   0  0  0  0  0  0  0  0  0  0  0  0
  189.4420  175.4010  142.7150 C   0  0  1  0  0  3  0  0  0  0  0  0
  192.8340  173.9750  142.6700 C   0  0  0  0  0  2  0  0  0  0  0  0
  187.4770  177.4600  146.0230 C   0  0  1  0  0  3  0  0  0  0  0  0
  184.7940  177.9210  147.0630 O   0  0  0  0  0  0  0  0  0  0  0  0
  190.7360  173.0850  141.6090 C   0  0  2  0  0  3  0  0  0  0  0  0
  189.6070  176.5910  144.9080 C   0  0  0  0  0  0  0  0  0  0  0  0
  185.3290  177.4470  144.6320 C   0  0  2  0  0  3  0  0  0  0  0  0
  188.9070  176.5460  143.5710 C   0  0  2  0  0  3  0  0  0  0  0  0
  190.9810  176.8860  147.3390 C   0  0  0  0  0  3  0  0  0  0  0  0
  188.4720  174.0750  141.2130 C   0  0  0  0  0  2  0  0  0  0  0  0
  189.6310  177.2210  147.2570 C   0  0  0  0  0  3  0  0  0  0  0  0
  188.8110  175.4070  141.4640 O   0  0  0  0  0  0  0  0  0  0  0  0
  191.6290  174.3300  141.8070 C   0  0  1  0  0  3  0  0  0  0  0  0
  191.6500  176.4100  146.2130 C   0  0  0  0  0  3  0  0  0  0  0  0
  191.7570  175.7880  143.7890 C   0  0  1  0  0  3  0  0  0  0  0  0
  191.5060  172.0020  141.1760 O   0  0  0  0  0  0  0  0  0  0  0  0
  190.9380  170.8880  141.8000 C   0  0  0  0  0  2  0  0  0  0  0  0
  194.6630  169.9640  143.0310 S   0  0  0  0  0  0  0  0  0  0  0  0
  192.1980  170.6160  143.9300 C   0  0  0  0  0  2  0  0  0  0  0  0
  192.0100  170.0980  142.5250 C   0  0  2  0  0  3  0  0  0  0  0  0
  193.5010  170.0360  144.4290 C   0  0  0  0  0  2  0  0  0  0  0  0
  193.3370  170.2650  141.8210 C   0  0  0  0  0  2  0  0  0  0  0  0
  1 26  1  0  0  0  0
  3 16  1  0  0  0  0
  4 23  2  0  0  0  0
  5 11  1  6  0  0  0
  5 19  1  0  0  0  0
  5 15  1  0  0  0  0
  6 19  1  0  0  0  0
  7  3  2  0  0  0  0
  9 13  1  0  0  0  0
  9 27  1  0  0  0  0
 10 22  1  0  0  0  0
 10 17  1  0  0  0  0
 12  8  1  0  0  0  0
 13 20  1  0  0  0  0
 14  2  1  0  0  0  0
 15  4  1  0  0  0  0
 15 12  1  0  0  0  0
 16  8  1  0  0  0  0
 17 25  1  0  0  0  0
 18  1  2  0  0  0  0
 18  4  1  0  0  0  0
 19  3  1  0  0  0  0
 20 11  1  0  0  0  0
 20 18  1  0  0  0  0
 22 24  1  0  0  0  0
 23 21  1  0  0  0  0
 24 13  1  0  0  0  0
 25  9  1  0  0  0  0
 25 14  1  0  0  0  0
 26 21  2  0  0  0  0
 27  2  1  0  0  0  0
 27  1  1  0  0  0  0
 28 17  1  0  0  0  0
 28 29  1  0  0  0  0
 29 32  1  0  0  0  0
 30 33  1  0  0  0  0
 31 33  1  0  0  0  0
 32 31  1  0  0  0  0
 34 32  1  0  0  0  0
 34 30  1  0  0  0  0
M  END
>  <MODEL>
8

>  <REMARK>
 VINA RESULT:      -8.1      2.421      4.437
  Name = 
  3 active torsions:
  status: ('A' for Active; 'I' for Inactive)
    1  A    between atoms: C_17  and  O_28
    2  A    between atoms: O_28  and  C_29
    3  A    between atoms: C_29  and  C_32
                            x       y       z     vdW  Elec       q    Type
                         _______ _______ _______ _____ _____    ______ ____

>  <TORSDO>
F 3

$$$$
=
 OpenBabel11112418063D

 34 40  0  0  1  0  0  0  0  0999 V2000
  192.1280  175.9200  145.9950 C   0  0  0  0  0  0  0  0  0  0  0  0
  189.8580  176.8340  146.5850 C   0  0  0  0  0  2  0  0  0  0  0  0
  196.3730  174.2640  141.1430 C   0  0  0  0  0  0  0  0  0  0  0  0
  194.2050  175.7420  144.7230 C   0  0  0  0  0  0  0  0  0  0  0  0
  194.2510  174.3510  142.5680 C   0  0  2  0  0  3  0  0  0  0  0  0
  194.3270  173.2430  140.4370 O   0  0  0  0  0  1  0  0  0  0  0  0
  196.9640  173.2510  140.6790 O   0  0  0  0  0  0  0  0  0  0  0  0
  196.8530  176.1690  142.6860 C   0  0  0  0  0  2  0  0  0  0  0  0
  189.9190  174.9650  145.0320 C   0  0  2  0  0  3  0  0  0  0  0  0
  187.8920  175.4210  142.5940 C   0  0  0  0  0  2  0  0  0  0  0  0
  192.7890  174.7600  142.4470 C   0  0  0  0  0  2  0  0  0  0  0  0
  195.4820  176.4250  142.8130 O   0  0  0  0  0  0  0  0  0  0  0  0
  190.6410  175.0830  143.6800 C   0  0  1  0  0  3  0  0  0  0  0  0
  188.4300  176.4470  146.2840 C   0  0  0  0  0  2  0  0  0  0  0  0
  194.9970  175.3130  143.5120 C   0  0  1  0  0  3  0  0  0  0  0  0
  197.1360  175.3710  141.5350 O   0  0  0  0  0  0  0  0  0  0  0  0
  188.0600  176.3400  143.8000 C   0  0  2  0  0  3  0  0  0  0  0  0
  192.8180  175.4890  144.8410 C   0  0  0  0  0  0  0  0  0  0  0  0
  194.8660  174.3090  141.1630 C   0  0  2  0  0  3  0  0  0  0  0  0
  192.1020  174.6560  143.8040 C   0  0  2  0  0  3  0  0  0  0  0  0
  194.1910  176.8420  146.8820 C   0  0  0  0  0  3  0  0  0  0  0  0
  189.2420  175.1400  141.9490 C   0  0  0  0  0  2  0  0  0  0  0  0
  194.8760  176.4220  145.7430 C   0  0  0  0  0  3  0  0  0  0  0  0
  189.9860  174.2680  142.7470 O   0  0  0  0  0  0  0  0  0  0  0  0
  188.4860  175.5480  145.0550 C   0  0  1  0  0  3  0  0  0  0  0  0
  192.8270  176.5860  147.0100 C   0  0  0  0  0  3  0  0  0  0  0  0
  190.6640  175.6120  146.2060 C   0  0  1  0  0  3  0  0  0  0  0  0
  186.8460  176.9940  144.0300 O   0  0  0  0  0  0  0  0  0  0  0  0
  187.0420  178.2910  143.5490 C   0  0  0  0  0  2  0  0  0  0  0  0
  184.2810  178.2340  140.6140 S   0  0  0  0  0  0  0  0  0  0  0  0
  184.5750  178.0680  143.2960 C   0  0  0  0  0  2  0  0  0  0  0  0
  185.8190  178.7470  142.7770 C   0  0  2  0  0  3  0  0  0  0  0  0
  183.5010  178.2910  142.2570 C   0  0  0  0  0  2  0  0  0  0  0  0
  185.9520  178.3550  141.3240 C   0  0  0  0  0  2  0  0  0  0  0  0
  1 27  1  0  0  0  0
  1 26  1  0  0  0  0
  3 19  1  0  0  0  0
  3 16  1  0  0  0  0
  4 18  1  0  0  0  0
  4 23  2  0  0  0  0
  5 11  1  6  0  0  0
  5 15  1  0  0  0  0
  6 19  1  0  0  0  0
  7  3  2  0  0  0  0
  8 12  1  0  0  0  0
  9 25  1  0  0  0  0
  9 27  1  0  0  0  0
 10 17  1  0  0  0  0
 11 20  1  0  0  0  0
 12 15  1  0  0  0  0
 13 20  1  0  0  0  0
 13  9  1  0  0  0  0
 14  2  1  0  0  0  0
 15  4  1  0  0  0  0
 16  8  1  0  0  0  0
 17 28  1  0  0  0  0
 17 25  1  0  0  0  0
 18  1  2  0  0  0  0
 19  5  1  0  0  0  0
 20 18  1  0  0  0  0
 21 26  2  0  0  0  0
 22 10  1  0  0  0  0
 22 24  1  0  0  0  0
 23 21  1  0  0  0  0
 24 13  1  0  0  0  0
 25 14  1  0  0  0  0
 27  2  1  0  0  0  0
 29 28  1  0  0  0  0
 30 34  1  0  0  0  0
 30 33  1  0  0  0  0
 32 31  1  0  0  0  0
 32 29  1  0  0  0  0
 33 31  1  0  0  0  0
 34 32  1  0  0  0  0
M  END
>  <MODEL>
9

>  <REMARK>
 VINA RESULT:      -8.0      3.406      9.186
  Name = 
  3 active torsions:
  status: ('A' for Active; 'I' for Inactive)
    1  A    between atoms: C_17  and  O_28
    2  A    between atoms: O_28  and  C_29
    3  A    between atoms: C_29  and  C_32
                            x       y       z     vdW  Elec       q    Type
                         _______ _______ _______ _____ _____    ______ ____

>  <TORSDO>
F 3

$$$$
