=
 OpenBabel11112416233D

 30 35  0  0  1  0  0  0  0  0999 V2000
  186.9720  176.4000  143.7820 C   0  0  2  0  0  3  0  0  0  0  0  0
  185.1350  177.7610  144.9090 C   0  0  0  0  0  0  0  0  0  0  0  0
  188.8810  176.0930  147.6290 N   0  0  0  0  0  2  0  0  0  0  0  0
  188.3300  175.6330  143.9860 C   0  0  1  0  0  3  0  0  0  0  0  0
  187.0960  177.3760  142.7730 O   0  0  0  0  0  0  0  0  0  0  0  0
  188.1980  174.4940  140.9470 C   0  0  0  0  0  1  0  0  0  0  0  0
  191.5870  175.7150  143.6580 C   0  0  0  0  0  0  0  0  0  0  0  0
  188.4960  175.9050  141.4310 C   0  0  1  0  0  3  0  0  0  0  0  0
  191.4340  175.8250  145.0160 C   0  0  0  0  0  0  0  0  0  0  0  0
  190.1730  175.6670  147.2140 C   0  0  0  0  0  0  0  0  0  0  0  0
  187.1700  176.6710  141.5570 C   0  0  2  0  0  3  0  0  0  0  0  0
  189.2560  175.9060  142.7680 C   0  0  2  0  0  3  0  0  0  0  0  0
  184.5520  178.3430  146.0390 C   0  0  0  0  0  3  0  0  0  0  0  0
  192.5840  176.4120  145.5090 C   0  0  0  0  0  3  0  0  0  0  0  0
  192.7480  176.2030  143.3090 O   0  0  0  0  0  0  0  0  0  0  0  0
  184.5170  177.9260  143.6750 O   0  0  0  0  0  1  0  0  0  0  0  0
  188.0480  175.9130  146.4510 C   0  0  2  0  0  3  0  0  0  0  0  0
  185.1290  178.1740  147.2980 C   0  0  0  0  0  3  0  0  0  0  0  0
  186.3270  177.0170  145.0270 C   0  0  0  0  0  0  0  0  0  0  0  0
  188.9930  176.0790  145.2880 C   0  0  1  0  0  3  0  0  0  0  0  0
  191.1300  175.5230  148.0190 O   0  0  0  0  0  0  0  0  0  0  0  0
  190.2310  175.3360  145.7590 C   0  0  1  0  0  3  0  0  0  0  0  0
  193.3740  176.6300  144.3870 C   0  0  0  0  0  3  0  0  0  0  0  0
  190.3910  173.7770  142.9770 O   0  0  0  0  0  1  0  0  0  0  0  0
  186.2920  177.4150  147.4360 C   0  0  0  0  0  3  0  0  0  0  0  0
  186.9000  176.8500  146.3100 C   0  0  0  0  0  0  0  0  0  0  0  0
  190.5850  175.1350  142.7090 C   0  0  2  0  0  3  0  0  0  0  0  0
  187.0230  177.6310  140.3910 C   0  0  0  0  0  2  0  0  0  0  0  0
  184.8840  178.6650  140.4780 O   0  0  0  0  0  1  0  0  0  0  0  0
  185.5940  177.6240  139.8830 C   0  0  0  0  0  2  0  0  0  0  0  0
  1  5  1  6  0  0  0
  1  4  1  0  0  0  0
  1 19  1  0  0  0  0
  2 19  2  0  0  0  0
  2 13  1  0  0  0  0
  4 20  1  0  0  0  0
  6  8  1  0  0  0  0
  7  9  2  0  0  0  0
  8 11  1  0  0  0  0
  8 12  1  0  0  0  0
  9 14  1  0  0  0  0
  9 22  1  0  0  0  0
 10  3  1  0  0  0  0
 10 21  2  0  0  0  0
 11  5  1  0  0  0  0
 12  4  1  0  0  0  0
 13 18  2  0  0  0  0
 15  7  1  0  0  0  0
 15 23  1  0  0  0  0
 16  2  1  0  0  0  0
 17  3  1  0  0  0  0
 18 25  1  0  0  0  0
 19 26  1  0  0  0  0
 20 22  1  0  0  0  0
 20 17  1  0  0  0  0
 22 10  1  0  0  0  0
 23 14  2  0  0  0  0
 26 17  1  0  0  0  0
 26 25  2  0  0  0  0
 27 12  1  0  0  0  0
 27 24  1  0  0  0  0
 27  7  1  0  0  0  0
 28 11  1  0  0  0  0
 30 28  1  0  0  0  0
 30 29  1  0  0  0  0
M  END
>  <MODEL>
1

>  <REMARK>
 VINA RESULT:      -8.7      0.000      0.000
  Name = 
  2 active torsions:
  status: ('A' for Active; 'I' for Inactive)
    1  A    between atoms: C_11  and  C_28
    2  A    between atoms: C_28  and  C_30
                            x       y       z     vdW  Elec       q    Type
                         _______ _______ _______ _____ _____    ______ ____

>  <TORSDO>
F 2

$$$$
=
 OpenBabel11112416233D

 30 35  0  0  1  0  0  0  0  0999 V2000
  188.0990  177.4440  145.5000 C   0  0  2  0  0  3  0  0  0  0  0  0
  186.0290  178.0910  146.8390 C   0  0  0  0  0  0  0  0  0  0  0  0
  185.8180  178.1820  141.9240 N   0  0  0  0  0  2  0  0  0  0  0  0
  188.7070  177.2490  144.0630 C   0  0  1  0  0  3  0  0  0  0  0  0
  188.2460  176.2710  146.2670 O   0  0  0  0  0  0  0  0  0  0  0  0
  191.6660  176.7910  145.3230 C   0  0  0  0  0  1  0  0  0  0  0  0
  189.5380  175.1240  141.7150 C   0  0  0  0  0  0  0  0  0  0  0  0
  190.4600  175.8630  145.3420 C   0  0  1  0  0  3  0  0  0  0  0  0
  188.4300  175.7250  141.1760 C   0  0  0  0  0  0  0  0  0  0  0  0
  186.6530  177.5280  140.9760 C   0  0  0  0  0  0  0  0  0  0  0  0
  189.6140  176.1810  146.5840 C   0  0  2  0  0  3  0  0  0  0  0  0
  189.6170  175.9890  144.0610 C   0  0  2  0  0  3  0  0  0  0  0  0
  184.7030  178.5280  146.9200 C   0  0  0  0  0  3  0  0  0  0  0  0
  187.9140  174.8580  140.2320 C   0  0  0  0  0  3  0  0  0  0  0  0
  189.7120  173.9530  141.1590 O   0  0  0  0  0  0  0  0  0  0  0  0
  186.7170  177.8120  148.0140 O   0  0  0  0  0  1  0  0  0  0  0  0
  186.6440  178.2900  143.1150 C   0  0  2  0  0  3  0  0  0  0  0  0
  183.9920  178.8450  145.7630 C   0  0  0  0  0  3  0  0  0  0  0  0
  186.6530  177.9430  145.5830 C   0  0  0  0  0  0  0  0  0  0  0  0
  187.5860  177.1150  143.0340 C   0  0  1  0  0  3  0  0  0  0  0  0
  186.3370  177.4060  139.7640 O   0  0  0  0  0  0  0  0  0  0  0  0
  187.9560  177.0910  141.5610 C   0  0  1  0  0  3  0  0  0  0  0  0
  188.7610  173.7570  140.2680 C   0  0  0  0  0  3  0  0  0  0  0  0
  191.0510  176.8560  142.3130 O   0  0  0  0  0  1  0  0  0  0  0  0
  184.6040  178.7320  144.5150 C   0  0  0  0  0  3  0  0  0  0  0  0
  185.9220  178.2710  144.4180 C   0  0  0  0  0  0  0  0  0  0  0  0
  190.4160  175.7020  142.7790 C   0  0  2  0  0  3  0  0  0  0  0  0
  189.8340  175.1110  147.6380 C   0  0  0  0  0  2  0  0  0  0  0  0
  191.3470  176.6190  148.6820 O   0  0  0  0  0  1  0  0  0  0  0  0
  191.1910  175.2910  148.2910 C   0  0  0  0  0  2  0  0  0  0  0  0
  1 19  1  6  0  0  0
  1  5  1  0  0  0  0
  2 13  1  0  0  0  0
  2 16  1  0  0  0  0
  3 17  1  0  0  0  0
  4  1  1  0  0  0  0
  5 11  1  0  0  0  0
  6  8  1  0  0  0  0
  7 27  1  0  0  0  0
  8 11  1  0  0  0  0
  9 22  1  0  0  0  0
  9  7  2  0  0  0  0
 10 22  1  0  0  0  0
 10  3  1  0  0  0  0
 11 28  1  0  0  0  0
 12  4  1  0  0  0  0
 12  8  1  0  0  0  0
 14 23  2  0  0  0  0
 14  9  1  0  0  0  0
 15  7  1  0  0  0  0
 17 26  1  0  0  0  0
 18 13  2  0  0  0  0
 19  2  2  0  0  0  0
 20 17  1  0  0  0  0
 20  4  1  0  0  0  0
 21 10  2  0  0  0  0
 22 20  1  0  0  0  0
 23 15  1  0  0  0  0
 24 27  1  0  0  0  0
 25 18  1  0  0  0  0
 26 25  2  0  0  0  0
 26 19  1  0  0  0  0
 27 12  1  0  0  0  0
 28 30  1  0  0  0  0
 30 29  1  0  0  0  0
M  END
>  <MODEL>
2

>  <REMARK>
 VINA RESULT:      -8.5      2.043      5.361
  Name = 
  2 active torsions:
  status: ('A' for Active; 'I' for Inactive)
    1  A    between atoms: C_11  and  C_28
    2  A    between atoms: C_28  and  C_30
                            x       y       z     vdW  Elec       q    Type
                         _______ _______ _______ _____ _____    ______ ____

>  <TORSDO>
F 2

$$$$
=
 OpenBabel11112416233D

 30 35  0  0  1  0  0  0  0  0999 V2000
  187.0670  177.5650  144.1860 C   0  0  2  0  0  3  0  0  0  0  0  0
  184.9790  178.5360  143.0930 C   0  0  0  0  0  0  0  0  0  0  0  0
  187.9640  175.6780  140.4220 N   0  0  0  0  0  2  0  0  0  0  0  0
  188.3380  176.6610  143.9830 C   0  0  1  0  0  3  0  0  0  0  0  0
  186.3010  177.1110  145.2790 O   0  0  0  0  0  0  0  0  0  0  0  0
  189.4710  177.5130  146.9050 C   0  0  0  0  0  1  0  0  0  0  0  0
  189.7070  173.7270  144.4700 C   0  0  0  0  0  0  0  0  0  0  0  0
  188.3080  176.5970  146.5570 C   0  0  1  0  0  3  0  0  0  0  0  0
  189.4660  173.7090  143.1200 C   0  0  0  0  0  0  0  0  0  0  0  0
  188.9350  174.7350  140.8590 C   0  0  0  0  0  0  0  0  0  0  0  0
  187.0330  177.4460  146.4340 C   0  0  2  0  0  3  0  0  0  0  0  0
  188.5650  175.8070  145.2620 C   0  0  2  0  0  3  0  0  0  0  0  0
  184.1390  178.7170  141.9900 C   0  0  0  0  0  3  0  0  0  0  0  0
  189.4160  172.3830  142.7340 C   0  0  0  0  0  3  0  0  0  0  0  0
  189.7970  172.5000  144.9130 O   0  0  0  0  0  0  0  0  0  0  0  0
  184.6290  179.1160  144.3060 O   0  0  0  0  0  1  0  0  0  0  0  0
  187.8270  176.5970  141.5390 C   0  0  2  0  0  3  0  0  0  0  0  0
  184.4740  178.1720  140.7500 C   0  0  0  0  0  3  0  0  0  0  0  0
  186.1620  177.7780  142.9690 C   0  0  0  0  0  0  0  0  0  0  0  0
  188.1550  175.7690  142.7560 C   0  0  1  0  0  3  0  0  0  0  0  0
  189.4380  173.8740  140.0920 O   0  0  0  0  0  0  0  0  0  0  0  0
  189.3380  174.9420  142.2820 C   0  0  1  0  0  3  0  0  0  0  0  0
  189.6270  171.6680  143.9060 C   0  0  0  0  0  3  0  0  0  0  0  0
  190.9610  175.6940  144.9280 O   0  0  0  0  0  1  0  0  0  0  0  0
  185.6550  177.4460  140.6030 C   0  0  0  0  0  3  0  0  0  0  0  0
  186.4910  177.2340  141.7050 C   0  0  0  0  0  0  0  0  0  0  0  0
  189.8420  174.9530  145.3180 C   0  0  2  0  0  3  0  0  0  0  0  0
  186.1720  177.2540  147.6680 C   0  0  0  0  0  2  0  0  0  0  0  0
  185.8540  179.6040  147.4910 O   0  0  0  0  0  1  0  0  0  0  0  0
  185.2060  178.4140  147.8190 C   0  0  0  0  0  2  0  0  0  0  0  0
  1 19  1  6  0  0  0
  1  5  1  0  0  0  0
  2 16  1  0  0  0  0
  3 10  1  0  0  0  0
  3 17  1  0  0  0  0
  4  1  1  0  0  0  0
  4 12  1  0  0  0  0
  5 11  1  0  0  0  0
  7 15  1  0  0  0  0
  7 27  1  0  0  0  0
  8  6  1  0  0  0  0
  9  7  2  0  0  0  0
 10 22  1  0  0  0  0
 11  8  1  0  0  0  0
 11 28  1  0  0  0  0
 12 27  1  0  0  0  0
 12  8  1  0  0  0  0
 13  2  2  0  0  0  0
 14  9  1  0  0  0  0
 14 23  2  0  0  0  0
 17 26  1  0  0  0  0
 17 20  1  0  0  0  0
 18 13  1  0  0  0  0
 19  2  1  0  0  0  0
 20  4  1  0  0  0  0
 21 10  2  0  0  0  0
 22 20  1  0  0  0  0
 22  9  1  0  0  0  0
 23 15  1  0  0  0  0
 24 27  1  0  0  0  0
 25 18  2  0  0  0  0
 25 26  1  0  0  0  0
 26 19  2  0  0  0  0
 28 30  1  0  0  0  0
 29 30  1  0  0  0  0
M  END
>  <MODEL>
3

>  <REMARK>
 VINA RESULT:      -8.4      2.334      5.046
  Name = 
  2 active torsions:
  status: ('A' for Active; 'I' for Inactive)
    1  A    between atoms: C_11  and  C_28
    2  A    between atoms: C_28  and  C_30
                            x       y       z     vdW  Elec       q    Type
                         _______ _______ _______ _____ _____    ______ ____

>  <TORSDO>
F 2

$$$$
=
 OpenBabel11112416233D

 30 35  0  0  1  0  0  0  0  0999 V2000
  190.1810  174.8860  143.1510 C   0  0  2  0  0  3  0  0  0  0  0  0
  192.1440  173.3410  143.6600 C   0  0  0  0  0  0  0  0  0  0  0  0
  190.9410  176.8260  146.9180 N   0  0  0  0  0  2  0  0  0  0  0  0
  189.3080  176.0880  143.6670 C   0  0  1  0  0  3  0  0  0  0  0  0
  189.3710  173.7770  142.8390 O   0  0  0  0  0  0  0  0  0  0  0  0
  187.7760  176.2640  140.8080 C   0  0  0  0  0  1  0  0  0  0  0  0
  186.4960  177.0160  145.0650 C   0  0  0  0  0  0  0  0  0  0  0  0
  187.6460  175.2160  141.9030 C   0  0  1  0  0  3  0  0  0  0  0  0
  187.4000  177.2260  146.0740 C   0  0  0  0  0  0  0  0  0  0  0  0
  189.7170  177.5330  147.0670 C   0  0  0  0  0  0  0  0  0  0  0  0
  188.6870  174.1140  141.6560 C   0  0  2  0  0  3  0  0  0  0  0  0
  187.8190  175.8260  143.3050 C   0  0  2  0  0  3  0  0  0  0  0  0
  193.2000  172.9210  144.4740 C   0  0  0  0  0  3  0  0  0  0  0  0
  186.6940  177.2120  147.2620 C   0  0  0  0  0  3  0  0  0  0  0  0
  185.3010  176.8710  145.5730 O   0  0  0  0  0  0  0  0  0  0  0  0
  191.8960  172.6560  142.4760 O   0  0  0  0  0  1  0  0  0  0  0  0
  190.9420  176.3970  145.5300 C   0  0  2  0  0  3  0  0  0  0  0  0
  193.4950  173.6020  145.6550 C   0  0  0  0  0  3  0  0  0  0  0  0
  191.3510  174.4440  144.0370 C   0  0  0  0  0  0  0  0  0  0  0  0
  189.4830  176.2530  145.1750 C   0  0  1  0  0  3  0  0  0  0  0  0
  189.4380  178.1970  148.1000 O   0  0  0  0  0  0  0  0  0  0  0  0
  188.8600  177.4640  145.8460 C   0  0  1  0  0  3  0  0  0  0  0  0
  185.3770  176.9800  146.8840 C   0  0  0  0  0  3  0  0  0  0  0  0
  187.2960  178.1860  143.1570 O   0  0  0  0  0  1  0  0  0  0  0  0
  192.7390  174.7130  146.0280 C   0  0  0  0  0  3  0  0  0  0  0  0
  191.6630  175.1280  145.2350 C   0  0  0  0  0  0  0  0  0  0  0  0
  186.8160  176.9520  143.6040 C   0  0  2  0  0  3  0  0  0  0  0  0
  188.0020  172.8870  141.0830 C   0  0  0  0  0  2  0  0  0  0  0  0
  188.1100  173.4510  138.7760 O   0  0  0  0  0  1  0  0  0  0  0  0
  188.5860  172.5480  139.7240 C   0  0  0  0  0  2  0  0  0  0  0  0
  1  5  1  1  0  0  0
  1  4  1  0  0  0  0
  1 19  1  0  0  0  0
  2 19  2  0  0  0  0
  2 13  1  0  0  0  0
  3 10  1  0  0  0  0
  4 20  1  0  0  0  0
  6  8  1  0  0  0  0
  7 15  1  0  0  0  0
  7  9  2  0  0  0  0
  8 12  1  0  0  0  0
  9 14  1  0  0  0  0
 10 21  2  0  0  0  0
 11  8  1  0  0  0  0
 11  5  1  0  0  0  0
 12 27  1  0  0  0  0
 12  4  1  0  0  0  0
 13 18  2  0  0  0  0
 15 23  1  0  0  0  0
 16  2  1  0  0  0  0
 17  3  1  0  0  0  0
 18 25  1  0  0  0  0
 19 26  1  0  0  0  0
 20 17  1  0  0  0  0
 20 22  1  0  0  0  0
 22  9  1  0  0  0  0
 22 10  1  0  0  0  0
 23 14  2  0  0  0  0
 24 27  1  0  0  0  0
 26 17  1  0  0  0  0
 26 25  2  0  0  0  0
 27  7  1  0  0  0  0
 28 11  1  0  0  0  0
 29 30  1  0  0  0  0
 30 28  1  0  0  0  0
M  END
>  <MODEL>
4

>  <REMARK>
 VINA RESULT:      -7.8      1.858      5.518
  Name = 
  2 active torsions:
  status: ('A' for Active; 'I' for Inactive)
    1  A    between atoms: C_11  and  C_28
    2  A    between atoms: C_28  and  C_30
                            x       y       z     vdW  Elec       q    Type
                         _______ _______ _______ _____ _____    ______ ____

>  <TORSDO>
F 2

$$$$
=
 OpenBabel11112416233D

 30 35  0  0  1  0  0  0  0  0999 V2000
  187.8730  175.5490  143.1740 C   0  0  2  0  0  3  0  0  0  0  0  0
  186.2190  177.4500  142.7900 C   0  0  0  0  0  0  0  0  0  0  0  0
  188.9630  177.4620  146.8740 N   0  0  0  0  0  2  0  0  0  0  0  0
  188.9680  174.9550  144.1340 C   0  0  1  0  0  3  0  0  0  0  0  0
  188.3870  175.7130  141.8720 O   0  0  0  0  0  0  0  0  0  0  0  0
  189.1180  172.2370  142.3620 C   0  0  0  0  0  1  0  0  0  0  0  0
  192.1660  174.5740  144.7220 C   0  0  0  0  0  0  0  0  0  0  0  0
  189.6340  173.6290  142.0300 C   0  0  1  0  0  3  0  0  0  0  0  0
  191.8070  175.4870  145.6800 C   0  0  0  0  0  0  0  0  0  0  0  0
  190.1790  176.7750  147.1420 C   0  0  0  0  0  0  0  0  0  0  0  0
  188.5130  174.4170  141.3370 C   0  0  2  0  0  3  0  0  0  0  0  0
  190.1300  174.3730  143.2830 C   0  0  2  0  0  3  0  0  0  0  0  0
  185.5930  178.6350  143.1870 C   0  0  0  0  0  3  0  0  0  0  0  0
  192.9550  176.1620  146.0500 C   0  0  0  0  0  3  0  0  0  0  0  0
  193.4510  174.6650  144.4930 O   0  0  0  0  0  0  0  0  0  0  0  0
  185.8800  176.8900  141.5630 O   0  0  0  0  0  1  0  0  0  0  0  0
  188.3300  176.6760  145.8280 C   0  0  2  0  0  3  0  0  0  0  0  0
  185.8890  179.2100  144.4230 C   0  0  0  0  0  3  0  0  0  0  0  0
  187.1750  176.8360  143.6250 C   0  0  0  0  0  0  0  0  0  0  0  0
  189.4760  176.0400  145.0830 C   0  0  1  0  0  3  0  0  0  0  0  0
  190.9240  177.0680  148.1130 O   0  0  0  0  0  0  0  0  0  0  0  0
  190.4150  175.6350  146.2070 C   0  0  1  0  0  3  0  0  0  0  0  0
  193.9580  175.6030  145.2670 C   0  0  0  0  0  3  0  0  0  0  0  0
  190.7060  172.7140  144.9500 O   0  0  0  0  0  1  0  0  0  0  0  0
  186.8100  178.5990  145.2740 C   0  0  0  0  0  3  0  0  0  0  0  0
  187.4630  177.4270  144.8780 C   0  0  0  0  0  0  0  0  0  0  0  0
  191.2420  173.6200  144.0320 C   0  0  2  0  0  3  0  0  0  0  0  0
  188.7910  174.4950  139.8470 C   0  0  0  0  0  2  0  0  0  0  0  0
  188.2220  173.4850  137.7720 O   0  0  0  0  0  1  0  0  0  0  0  0
  188.2460  173.2650  139.1470 C   0  0  0  0  0  2  0  0  0  0  0  0
  1  5  1  6  0  0  0
  1 19  1  0  0  0  0
  1  4  1  0  0  0  0
  2 13  2  0  0  0  0
  2 19  1  0  0  0  0
  3 10  1  0  0  0  0
  4 20  1  0  0  0  0
  7  9  2  0  0  0  0
  8  6  1  0  0  0  0
  8 12  1  0  0  0  0
  9 14  1  0  0  0  0
  9 22  1  0  0  0  0
 10 21  2  0  0  0  0
 11  5  1  0  0  0  0
 11  8  1  0  0  0  0
 12 27  1  0  0  0  0
 12  4  1  0  0  0  0
 13 18  1  0  0  0  0
 15  7  1  0  0  0  0
 15 23  1  0  0  0  0
 16  2  1  0  0  0  0
 17  3  1  0  0  0  0
 18 25  2  0  0  0  0
 19 26  2  0  0  0  0
 20 17  1  0  0  0  0
 20 22  1  0  0  0  0
 22 10  1  0  0  0  0
 23 14  2  0  0  0  0
 26 25  1  0  0  0  0
 26 17  1  0  0  0  0
 27  7  1  0  0  0  0
 27 24  1  0  0  0  0
 28 11  1  0  0  0  0
 29 30  1  0  0  0  0
 30 28  1  0  0  0  0
M  END
>  <MODEL>
5

>  <REMARK>
 VINA RESULT:      -7.6      1.849      2.518
  Name = 
  2 active torsions:
  status: ('A' for Active; 'I' for Inactive)
    1  A    between atoms: C_11  and  C_28
    2  A    between atoms: C_28  and  C_30
                            x       y       z     vdW  Elec       q    Type
                         _______ _______ _______ _____ _____    ______ ____

>  <TORSDO>
F 2

$$$$
=
 OpenBabel11112416233D

 30 35  0  0  1  0  0  0  0  0999 V2000
  188.1100  175.6050  143.0270 C   0  0  2  0  0  3  0  0  0  0  0  0
  187.0080  176.7530  141.0360 C   0  0  0  0  0  0  0  0  0  0  0  0
  185.9580  178.3250  145.5790 N   0  0  0  0  0  2  0  0  0  0  0  0
  188.2490  175.5730  144.5930 C   0  0  1  0  0  3  0  0  0  0  0  0
  189.3740  175.7290  142.4160 O   0  0  0  0  0  0  0  0  0  0  0  0
  189.9720  172.8250  144.4320 C   0  0  0  0  0  1  0  0  0  0  0  0
  190.0680  176.3900  147.1900 C   0  0  0  0  0  0  0  0  0  0  0  0
  190.3850  174.2400  144.0550 C   0  0  1  0  0  3  0  0  0  0  0  0
  189.0180  177.2650  147.2910 C   0  0  0  0  0  0  0  0  0  0  0  0
  186.6870  178.1380  146.7850 C   0  0  0  0  0  0  0  0  0  0  0  0
  190.0110  174.4850  142.5850 C   0  0  2  0  0  3  0  0  0  0  0  0
  189.7310  175.2920  144.9670 C   0  0  2  0  0  3  0  0  0  0  0  0
  186.1410  177.7040  140.4890 C   0  0  0  0  0  3  0  0  0  0  0  0
  189.4520  178.3360  148.0490 C   0  0  0  0  0  3  0  0  0  0  0  0
  191.1000  176.8710  147.8320 O   0  0  0  0  0  0  0  0  0  0  0  0
  187.7260  175.9280  140.1780 O   0  0  0  0  0  1  0  0  0  0  0  0
  186.3760  177.2190  144.7330 C   0  0  2  0  0  3  0  0  0  0  0  0
  185.3830  178.5300  141.3200 C   0  0  0  0  0  3  0  0  0  0  0  0
  187.1430  176.6350  142.4340 C   0  0  0  0  0  0  0  0  0  0  0  0
  187.7770  176.8990  145.1880 C   0  0  1  0  0  3  0  0  0  0  0  0
  186.4640  178.8130  147.8240 O   0  0  0  0  0  0  0  0  0  0  0  0
  187.6670  177.0140  146.6990 C   0  0  1  0  0  3  0  0  0  0  0  0
  190.7720  178.0340  148.3580 C   0  0  0  0  0  3  0  0  0  0  0  0
  189.1440  174.2050  147.0500 O   0  0  0  0  0  1  0  0  0  0  0  0
  185.4830  178.4050  142.7050 C   0  0  0  0  0  3  0  0  0  0  0  0
  186.3660  177.4760  143.2660 C   0  0  0  0  0  0  0  0  0  0  0  0
  190.0520  175.0850  146.4570 C   0  0  2  0  0  3  0  0  0  0  0  0
  191.2600  174.4200  141.7250 C   0  0  0  0  0  2  0  0  0  0  0  0
  192.6990  176.2340  142.2620 O   0  0  0  0  0  1  0  0  0  0  0  0
  192.4670  174.8850  142.5170 C   0  0  0  0  0  2  0  0  0  0  0  0
  1  5  1  6  0  0  0
  1  4  1  0  0  0  0
  2 19  1  0  0  0  0
  3 10  1  0  0  0  0
  4 12  1  0  0  0  0
  4 20  1  0  0  0  0
  5 11  1  0  0  0  0
  7  9  2  0  0  0  0
  7 15  1  0  0  0  0
  8  6  1  0  0  0  0
  8 12  1  0  0  0  0
  9 14  1  0  0  0  0
 10 21  2  0  0  0  0
 11  8  1  0  0  0  0
 12 27  1  0  0  0  0
 13  2  2  0  0  0  0
 13 18  1  0  0  0  0
 14 23  2  0  0  0  0
 15 23  1  0  0  0  0
 16  2  1  0  0  0  0
 17 20  1  0  0  0  0
 17  3  1  0  0  0  0
 18 25  2  0  0  0  0
 19  1  1  0  0  0  0
 19 26  2  0  0  0  0
 20 22  1  0  0  0  0
 22 10  1  0  0  0  0
 22  9  1  0  0  0  0
 25 26  1  0  0  0  0
 26 17  1  0  0  0  0
 27 24  1  0  0  0  0
 27  7  1  0  0  0  0
 28 30  1  0  0  0  0
 28 11  1  0  0  0  0
 29 30  1  0  0  0  0
M  END
>  <MODEL>
6

>  <REMARK>
 VINA RESULT:      -7.6      2.031      4.466
  Name = 
  2 active torsions:
  status: ('A' for Active; 'I' for Inactive)
    1  A    between atoms: C_11  and  C_28
    2  A    between atoms: C_28  and  C_30
                            x       y       z     vdW  Elec       q    Type
                         _______ _______ _______ _____ _____    ______ ____

>  <TORSDO>
F 2

$$$$
=
 OpenBabel11112416233D

 30 35  0  0  1  0  0  0  0  0999 V2000
  188.9860  174.9830  143.6730 C   0  0  2  0  0  3  0  0  0  0  0  0
  186.9250  176.4430  143.3300 C   0  0  0  0  0  0  0  0  0  0  0  0
  189.6930  177.1270  147.3400 N   0  0  0  0  0  2  0  0  0  0  0  0
  190.2130  174.6690  144.6050 C   0  0  1  0  0  3  0  0  0  0  0  0
  189.4130  175.2520  142.3580 O   0  0  0  0  0  0  0  0  0  0  0  0
  190.9480  172.0470  142.8350 C   0  0  0  0  0  1  0  0  0  0  0  0
  193.4260  175.0490  145.1080 C   0  0  0  0  0  0  0  0  0  0  0  0
  191.1160  173.5180  142.4860 C   0  0  1  0  0  3  0  0  0  0  0  0
  192.8880  175.8600  146.0730 C   0  0  0  0  0  0  0  0  0  0  0  0
  191.0420  176.7440  147.5760 C   0  0  0  0  0  0  0  0  0  0  0  0
  189.8240  174.0170  141.8220 C   0  0  2  0  0  3  0  0  0  0  0  0
  191.4570  174.3670  143.7240 C   0  0  2  0  0  3  0  0  0  0  0  0
  186.0490  177.4530  143.7420 C   0  0  0  0  0  3  0  0  0  0  0  0
  193.8560  176.7870  146.4120 C   0  0  0  0  0  3  0  0  0  0  0  0
  194.6470  175.4350  144.8450 O   0  0  0  0  0  0  0  0  0  0  0  0
  186.6940  175.8090  142.1140 O   0  0  0  0  0  1  0  0  0  0  0  0
  189.2340  176.2070  146.3120 C   0  0  2  0  0  3  0  0  0  0  0  0
  186.2340  178.0910  144.9680 C   0  0  0  0  0  3  0  0  0  0  0  0
  188.0180  176.0750  144.1400 C   0  0  0  0  0  0  0  0  0  0  0  0
  190.4780  175.8490  145.5380 C   0  0  1  0  0  3  0  0  0  0  0  0
  191.7230  177.2110  148.5270 O   0  0  0  0  0  0  0  0  0  0  0  0
  191.5130  175.6830  146.6370 C   0  0  1  0  0  3  0  0  0  0  0  0
  194.9410  176.4710  145.6030 C   0  0  0  0  0  3  0  0  0  0  0  0
  192.4460  172.9010  145.3780 O   0  0  0  0  0  1  0  0  0  0  0  0
  187.2940  177.7180  145.7960 C   0  0  0  0  0  3  0  0  0  0  0  0
  188.1920  176.7270  145.3840 C   0  0  0  0  0  0  0  0  0  0  0  0
  192.7320  173.9000  144.4450 C   0  0  2  0  0  3  0  0  0  0  0  0
  190.0380  174.1460  140.3250 C   0  0  0  0  0  2  0  0  0  0  0  0
  188.1810  172.6720  140.1600 O   0  0  0  0  0  1  0  0  0  0  0  0
  188.7630  173.7970  139.5810 C   0  0  0  0  0  2  0  0  0  0  0  0
  1  5  1  6  0  0  0
  1 19  1  0  0  0  0
  1  4  1  0  0  0  0
  2 13  2  0  0  0  0
  2 19  1  0  0  0  0
  3 10  1  0  0  0  0
  4 20  1  0  0  0  0
  7  9  2  0  0  0  0
  8  6  1  0  0  0  0
  8 12  1  0  0  0  0
  9 14  1  0  0  0  0
  9 22  1  0  0  0  0
 10 21  2  0  0  0  0
 11  5  1  0  0  0  0
 11  8  1  0  0  0  0
 12 27  1  0  0  0  0
 12  4  1  0  0  0  0
 13 18  1  0  0  0  0
 15  7  1  0  0  0  0
 15 23  1  0  0  0  0
 16  2  1  0  0  0  0
 17  3  1  0  0  0  0
 18 25  2  0  0  0  0
 19 26  2  0  0  0  0
 20 17  1  0  0  0  0
 20 22  1  0  0  0  0
 22 10  1  0  0  0  0
 23 14  2  0  0  0  0
 26 25  1  0  0  0  0
 26 17  1  0  0  0  0
 27  7  1  0  0  0  0
 27 24  1  0  0  0  0
 28 11  1  0  0  0  0
 30 29  1  0  0  0  0
 30 28  1  0  0  0  0
M  END
>  <MODEL>
7

>  <REMARK>
 VINA RESULT:      -7.5      1.959      2.987
  Name = 
  2 active torsions:
  status: ('A' for Active; 'I' for Inactive)
    1  A    between atoms: C_11  and  C_28
    2  A    between atoms: C_28  and  C_30
                            x       y       z     vdW  Elec       q    Type
                         _______ _______ _______ _____ _____    ______ ____

>  <TORSDO>
F 2

$$$$
=
 OpenBabel11112416233D

 30 35  0  0  1  0  0  0  0  0999 V2000
  188.0500  175.4100  142.6980 C   0  0  2  0  0  3  0  0  0  0  0  0
  186.8730  176.8030  140.9170 C   0  0  0  0  0  0  0  0  0  0  0  0
  186.3630  178.0530  145.6480 N   0  0  0  0  0  2  0  0  0  0  0  0
  188.3230  175.2330  144.2360 C   0  0  1  0  0  3  0  0  0  0  0  0
  189.2600  175.4910  141.9810 O   0  0  0  0  0  0  0  0  0  0  0  0
  189.7940  172.3880  143.6970 C   0  0  0  0  0  1  0  0  0  0  0  0
  190.4260  175.6850  146.7050 C   0  0  0  0  0  0  0  0  0  0  0  0
  190.2860  173.7950  143.3940 C   0  0  1  0  0  3  0  0  0  0  0  0
  189.4640  176.6250  146.9730 C   0  0  0  0  0  0  0  0  0  0  0  0
  187.1780  177.7100  146.7620 C   0  0  0  0  0  0  0  0  0  0  0  0
  189.8060  174.1930  141.9900 C   0  0  2  0  0  3  0  0  0  0  0  0
  189.8040  174.8110  144.4450 C   0  0  2  0  0  3  0  0  0  0  0  0
  186.0430  177.8600  140.5310 C   0  0  0  0  0  3  0  0  0  0  0  0
  190.0500  177.5920  147.7690 C   0  0  0  0  0  3  0  0  0  0  0  0
  191.5470  176.0320  147.2810 O   0  0  0  0  0  0  0  0  0  0  0  0
  187.4430  176.0040  139.9320 O   0  0  0  0  0  1  0  0  0  0  0  0
  186.6120  176.9960  144.6820 C   0  0  2  0  0  3  0  0  0  0  0  0
  185.4320  178.6660  141.4920 C   0  0  0  0  0  3  0  0  0  0  0  0
  187.1210  176.5560  142.2820 C   0  0  0  0  0  0  0  0  0  0  0  0
  188.0170  176.5340  144.9750 C   0  0  1  0  0  3  0  0  0  0  0  0
  187.1040  178.3080  147.8670 O   0  0  0  0  0  0  0  0  0  0  0  0
  188.0500  176.5270  146.4940 C   0  0  1  0  0  3  0  0  0  0  0  0
  191.3640  177.1660  147.9260 C   0  0  0  0  0  3  0  0  0  0  0  0
  189.3170  173.5960  146.4810 O   0  0  0  0  0  1  0  0  0  0  0  0
  185.6430  178.4160  142.8480 C   0  0  0  0  0  3  0  0  0  0  0  0
  186.4930  177.3780  143.2470 C   0  0  0  0  0  0  0  0  0  0  0  0
  190.2380  174.4530  145.8760 C   0  0  2  0  0  3  0  0  0  0  0  0
  190.9630  174.1090  141.0130 C   0  0  0  0  0  2  0  0  0  0  0  0
  189.3690  172.6760  139.9850 O   0  0  0  0  0  1  0  0  0  0  0  0
  190.5230  173.4160  139.7380 C   0  0  0  0  0  2  0  0  0  0  0  0
  1  5  1  6  0  0  0
  1  4  1  0  0  0  0
  2 19  1  0  0  0  0
  3 10  1  0  0  0  0
  4 12  1  0  0  0  0
  4 20  1  0  0  0  0
  5 11  1  0  0  0  0
  7  9  2  0  0  0  0
  7 15  1  0  0  0  0
  8  6  1  0  0  0  0
  8 12  1  0  0  0  0
  9 14  1  0  0  0  0
 10 21  2  0  0  0  0
 11  8  1  0  0  0  0
 12 27  1  0  0  0  0
 13  2  2  0  0  0  0
 13 18  1  0  0  0  0
 14 23  2  0  0  0  0
 15 23  1  0  0  0  0
 16  2  1  0  0  0  0
 17 20  1  0  0  0  0
 17  3  1  0  0  0  0
 18 25  2  0  0  0  0
 19  1  1  0  0  0  0
 19 26  2  0  0  0  0
 20 22  1  0  0  0  0
 22 10  1  0  0  0  0
 22  9  1  0  0  0  0
 25 26  1  0  0  0  0
 26 17  1  0  0  0  0
 27 24  1  0  0  0  0
 27  7  1  0  0  0  0
 28 11  1  0  0  0  0
 30 29  1  0  0  0  0
 30 28  1  0  0  0  0
M  END
>  <MODEL>
8

>  <REMARK>
 VINA RESULT:      -7.5      2.205      4.050
  Name = 
  2 active torsions:
  status: ('A' for Active; 'I' for Inactive)
    1  A    between atoms: C_11  and  C_28
    2  A    between atoms: C_28  and  C_30
                            x       y       z     vdW  Elec       q    Type
                         _______ _______ _______ _____ _____    ______ ____

>  <TORSDO>
F 2

$$$$
=
 OpenBabel11112416233D

 30 35  0  0  1  0  0  0  0  0999 V2000
  188.0430  175.7410  143.7430 C   0  0  2  0  0  3  0  0  0  0  0  0
  186.3890  177.2910  144.9090 C   0  0  0  0  0  0  0  0  0  0  0  0
  190.7030  176.3400  147.0750 N   0  0  0  0  0  2  0  0  0  0  0  0
  189.4590  175.0620  143.8180 C   0  0  1  0  0  3  0  0  0  0  0  0
  187.9000  176.4670  142.5440 O   0  0  0  0  0  0  0  0  0  0  0  0
  188.7900  173.2660  141.1960 C   0  0  0  0  0  1  0  0  0  0  0  0
  192.5720  175.1210  142.8030 C   0  0  0  0  0  0  0  0  0  0  0  0
  189.0900  174.7550  141.2890 C   0  0  1  0  0  3  0  0  0  0  0  0
  192.6890  175.5320  144.1060 C   0  0  0  0  0  0  0  0  0  0  0  0
  191.9090  175.8530  146.5010 C   0  0  0  0  0  0  0  0  0  0  0  0
  187.7710  175.5080  141.5210 C   0  0  2  0  0  3  0  0  0  0  0  0
  190.1030  175.0690  142.4030 C   0  0  2  0  0  3  0  0  0  0  0  0
  186.0100  178.1040  145.9820 C   0  0  0  0  0  3  0  0  0  0  0  0
  193.8760  176.2330  144.2070 C   0  0  0  0  0  3  0  0  0  0  0  0
  193.6070  175.5360  142.1200 O   0  0  0  0  0  0  0  0  0  0  0  0
  185.5260  177.1650  143.8260 O   0  0  0  0  0  1  0  0  0  0  0  0
  189.6640  175.8850  146.1670 C   0  0  2  0  0  3  0  0  0  0  0  0
  186.8380  178.2320  147.0980 C   0  0  0  0  0  3  0  0  0  0  0  0
  187.6240  176.6130  144.9320 C   0  0  0  0  0  0  0  0  0  0  0  0
  190.3420  175.8010  144.8230 C   0  0  1  0  0  3  0  0  0  0  0  0
  193.0160  175.9090  147.0980 O   0  0  0  0  0  0  0  0  0  0  0  0
  191.6930  175.2030  145.1740 C   0  0  1  0  0  3  0  0  0  0  0  0
  194.4080  176.2060  142.9230 C   0  0  0  0  0  3  0  0  0  0  0  0
  191.3870  173.0610  142.8250 O   0  0  0  0  0  1  0  0  0  0  0  0
  188.0500  177.5430  147.1500 C   0  0  0  0  0  3  0  0  0  0  0  0
  188.4530  176.7480  146.0710 C   0  0  0  0  0  0  0  0  0  0  0  0
  191.4380  174.3260  142.2350 C   0  0  2  0  0  3  0  0  0  0  0  0
  187.3330  176.1780  140.2330 C   0  0  0  0  0  2  0  0  0  0  0  0
  185.5780  177.7810  140.1830 O   0  0  0  0  0  1  0  0  0  0  0  0
  186.9240  177.6140  140.5010 C   0  0  0  0  0  2  0  0  0  0  0  0
  1  5  1  6  0  0  0
  1  4  1  0  0  0  0
  1 19  1  0  0  0  0
  2 19  2  0  0  0  0
  2 13  1  0  0  0  0
  4 20  1  0  0  0  0
  6  8  1  0  0  0  0
  7  9  2  0  0  0  0
  8 11  1  0  0  0  0
  8 12  1  0  0  0  0
  9 14  1  0  0  0  0
  9 22  1  0  0  0  0
 10  3  1  0  0  0  0
 10 21  2  0  0  0  0
 11  5  1  0  0  0  0
 12  4  1  0  0  0  0
 13 18  2  0  0  0  0
 15  7  1  0  0  0  0
 15 23  1  0  0  0  0
 16  2  1  0  0  0  0
 17  3  1  0  0  0  0
 18 25  1  0  0  0  0
 19 26  1  0  0  0  0
 20 22  1  0  0  0  0
 20 17  1  0  0  0  0
 22 10  1  0  0  0  0
 23 14  2  0  0  0  0
 26 17  1  0  0  0  0
 26 25  2  0  0  0  0
 27 12  1  0  0  0  0
 27  7  1  0  0  0  0
 27 24  1  0  0  0  0
 28 30  1  0  0  0  0
 28 11  1  0  0  0  0
 29 30  1  0  0  0  0
M  END
>  <MODEL>
9

>  <REMARK>
 VINA RESULT:      -7.4      1.241      1.523
  Name = 
  2 active torsions:
  status: ('A' for Active; 'I' for Inactive)
    1  A    between atoms: C_11  and  C_28
    2  A    between atoms: C_28  and  C_30
                            x       y       z     vdW  Elec       q    Type
                         _______ _______ _______ _____ _____    ______ ____

>  <TORSDO>
F 2

$$$$
