=
 OpenBabel11112417253D

 37 44  0  0  1  0  0  0  0  0999 V2000
  190.9290  172.2150  142.2710 C   0  0  0  0  0  2  0  0  0  0  0  0
  195.3920  173.1020  144.3130 C   0  0  0  0  0  0  0  0  0  0  0  0
  191.8240  174.6610  146.2530 C   0  0  1  0  0  3  0  0  0  0  0  0
  191.1020  171.8770  140.7860 C   0  0  2  0  0  3  0  0  0  0  0  0
  188.8990  175.3270  143.6450 O   0  0  0  0  0  0  0  0  0  0  0  0
  194.2510  175.0370  145.5190 C   0  0  1  0  0  3  0  0  0  0  0  0
  191.0090  174.6850  144.9750 C   0  0  0  0  0  0  0  0  0  0  0  0
  189.1390  173.4080  140.4490 C   0  0  0  0  0  0  0  0  0  0  0  0
  193.1660  174.0110  145.8900 C   0  0  2  0  0  3  0  0  0  0  0  0
  189.6210  175.3460  144.8530 C   0  0  0  0  0  0  0  0  0  0  0  0
  194.4080  176.1160  146.5670 C   0  0  0  0  0  2  0  0  0  0  0  0
  190.4000  172.8660  139.8500 C   0  0  0  0  0  2  0  0  0  0  0  0
  192.8380  173.1970  144.6420 C   0  0  2  0  0  3  0  0  0  0  0  0
  195.5980  171.8360  145.1240 C   0  0  0  0  0  1  0  0  0  0  0  0
  190.7310  176.7480  147.3860 C   0  0  0  0  0  2  0  0  0  0  0  0
  193.1020  176.8850  146.6270 C   0  0  0  0  0  2  0  0  0  0  0  0
  194.0090  173.0700  143.6400 C   0  0  0  0  0  2  0  0  0  0  0  0
  189.1820  174.6440  141.2980 C   0  0  1  0  0  3  0  0  0  0  0  0
  189.1650  174.3260  142.7090 C   0  0  1  0  0  3  0  0  0  0  0  0
  191.9920  175.9560  147.0980 C   0  0  2  0  0  3  0  0  0  0  0  0
  191.6490  173.8980  144.0590 C   0  0  0  0  0  0  0  0  0  0  0  0
  195.5700  174.3260  145.2290 C   0  0  0  0  0  2  0  0  0  0  0  0
  188.9830  175.9300  145.9030 C   0  0  0  0  0  0  0  0  0  0  0  0
  196.4510  173.1520  143.2320 C   0  0  0  0  0  1  0  0  0  0  0  0
  190.4320  174.7430  142.0970 N   0  0  1  0  0  0  0  0  0  0  0  0
  188.0780  172.8390  140.2510 O   0  0  0  0  0  0  0  0  0  0  0  0
  191.3100  173.6760  142.5890 C   0  0  2  0  0  3  0  0  0  0  0  0
  189.5110  175.8660  147.2980 C   0  0  0  0  0  2  0  0  0  0  0  0
  186.6570  176.4510  146.6690 C   0  0  0  0  0  3  0  0  0  0  0  0
  187.6880  176.6400  145.7350 C   0  0  0  0  0  0  0  0  0  0  0  0
  187.4910  177.5500  144.6820 C   0  0  0  0  0  3  0  0  0  0  0  0
  186.0820  179.1880  143.4290 C   0  0  0  0  0  1  0  0  0  0  0  0
  185.2570  178.0280  145.4810 C   0  0  0  0  0  3  0  0  0  0  0  0
  186.2790  178.2350  144.5520 C   0  0  0  0  0  0  0  0  0  0  0  0
  185.4460  177.1380  146.5400 C   0  0  0  0  0  3  0  0  0  0  0  0
  190.9310  169.5510  141.6720 C   0  0  0  0  0  1  0  0  0  0  0  0
  190.6030  170.4680  140.5090 C   0  0  0  0  0  2  0  0  0  0  0  0
  1 27  1  0  0  0  0
  2 14  1  0  0  0  0
  2 22  1  0  0  0  0
  3  7  1  6  0  0  0
  3 20  1  0  0  0  0
  4 37  1  1  0  0  0
  4  1  1  0  0  0  0
  5 10  1  0  0  0  0
  6 22  1  1  0  0  0
  6  9  1  0  0  0  0
  6 11  1  0  0  0  0
  8 18  1  0  0  0  0
  9  3  1  0  0  0  0
 10  7  1  0  0  0  0
 10 23  2  0  0  0  0
 11 16  1  0  0  0  0
 12  8  1  0  0  0  0
 12  4  1  0  0  0  0
 13  9  1  0  0  0  0
 16 20  1  0  0  0  0
 17  2  1  0  0  0  0
 17 13  1  0  0  0  0
 18 25  1  0  0  0  0
 18 19  1  0  0  0  0
 19  5  1  0  0  0  0
 20 15  1  0  0  0  0
 21 13  1  0  0  0  0
 21  7  2  0  0  0  0
 23 28  1  0  0  0  0
 24  2  1  0  0  0  0
 25 27  1  0  0  0  0
 25 19  1  0  0  0  0
 26  8  2  0  0  0  0
 27 21  1  0  0  0  0
 28 15  1  0  0  0  0
 30 23  1  0  0  0  0
 30 29  2  0  0  0  0
 31 30  1  0  0  0  0
 32 34  1  0  0  0  0
 33 35  2  0  0  0  0
 34 31  2  0  0  0  0
 34 33  1  0  0  0  0
 35 29  1  0  0  0  0
 37 36  1  0  0  0  0
M  END
>  <MODEL>
1

>  <REMARK>
 VINA RESULT:     -10.2      0.000      0.000
  Name = 
  2 active torsions:
  status: ('A' for Active; 'I' for Inactive)
    1  A    between atoms: C_4  and  C_37
    2  A    between atoms: C_23  and  C_30
                            x       y       z     vdW  Elec       q    Type
                         _______ _______ _______ _____ _____    ______ ____

>  <TORSDO>
F 2

$$$$
=
 OpenBabel11112417253D

 37 44  0  0  1  0  0  0  0  0999 V2000
  191.0600  171.9030  142.2150 C   0  0  0  0  0  2  0  0  0  0  0  0
  195.5370  172.5120  144.3260 C   0  0  0  0  0  0  0  0  0  0  0  0
  192.0750  174.4670  146.0930 C   0  0  1  0  0  3  0  0  0  0  0  0
  191.2350  171.4750  140.7540 C   0  0  2  0  0  3  0  0  0  0  0  0
  189.2750  175.2430  143.3790 O   0  0  0  0  0  0  0  0  0  0  0  0
  194.5400  174.5970  145.4050 C   0  0  1  0  0  3  0  0  0  0  0  0
  191.2930  174.4940  144.7940 C   0  0  0  0  0  0  0  0  0  0  0  0
  189.4190  173.1470  140.2900 C   0  0  0  0  0  0  0  0  0  0  0  0
  193.3630  173.6870  145.7980 C   0  0  2  0  0  3  0  0  0  0  0  0
  189.9700  175.2630  144.6030 C   0  0  0  0  0  0  0  0  0  0  0  0
  194.7660  175.7120  146.4010 C   0  0  0  0  0  2  0  0  0  0  0  0
  190.6420  172.4700  139.7510 C   0  0  0  0  0  2  0  0  0  0  0  0
  192.9930  172.8400  144.5840 C   0  0  2  0  0  3  0  0  0  0  0  0
  195.6160  171.2770  145.2050 C   0  0  0  0  0  1  0  0  0  0  0  0
  191.1410  176.6940  147.0910 C   0  0  0  0  0  2  0  0  0  0  0  0
  193.5310  176.5900  146.3900 C   0  0  0  0  0  2  0  0  0  0  0  0
  194.1720  172.5630  143.6200 C   0  0  0  0  0  2  0  0  0  0  0  0
  189.5490  174.4180  141.0780 C   0  0  1  0  0  3  0  0  0  0  0  0
  189.4750  174.1760  142.5010 C   0  0  1  0  0  3  0  0  0  0  0  0
  192.3350  175.7840  146.8770 C   0  0  2  0  0  3  0  0  0  0  0  0
  191.8830  173.6090  143.9350 C   0  0  0  0  0  0  0  0  0  0  0  0
  195.7990  173.7620  145.1850 C   0  0  0  0  0  2  0  0  0  0  0  0
  189.3620  175.9520  145.6060 C   0  0  0  0  0  0  0  0  0  0  0  0
  196.6200  172.4160  143.2720 C   0  0  0  0  0  1  0  0  0  0  0  0
  190.7860  174.4520  141.9030 N   0  0  1  0  0  0  0  0  0  0  0  0
  188.3170  172.6610  140.0930 O   0  0  0  0  0  0  0  0  0  0  0  0
  191.5580  173.3410  142.4700 C   0  0  2  0  0  3  0  0  0  0  0  0
  189.8520  175.9160  147.0150 C   0  0  0  0  0  2  0  0  0  0  0  0
  188.1050  177.6990  144.3250 C   0  0  0  0  0  3  0  0  0  0  0  0
  188.1370  176.7600  145.3690 C   0  0  0  0  0  0  0  0  0  0  0  0
  186.9780  176.5630  146.1390 C   0  0  0  0  0  3  0  0  0  0  0  0
  184.6060  177.0950  146.7150 C   0  0  0  0  0  1  0  0  0  0  0  0
  185.8080  178.2470  144.8530 C   0  0  0  0  0  3  0  0  0  0  0  0
  185.8220  177.3080  145.8860 C   0  0  0  0  0  0  0  0  0  0  0  0
  186.9490  178.4420  144.0710 C   0  0  0  0  0  3  0  0  0  0  0  0
  190.9640  169.1780  141.6890 C   0  0  0  0  0  1  0  0  0  0  0  0
  190.6230  170.1010  140.5340 C   0  0  0  0  0  2  0  0  0  0  0  0
  1 27  1  0  0  0  0
  2 22  1  0  0  0  0
  2 14  1  0  0  0  0
  3  7  1  6  0  0  0
  3 20  1  0  0  0  0
  4 37  1  1  0  0  0
  4  1  1  0  0  0  0
  5 10  1  0  0  0  0
  6 22  1  1  0  0  0
  6  9  1  0  0  0  0
  6 11  1  0  0  0  0
  8 18  1  0  0  0  0
  9  3  1  0  0  0  0
 10  7  1  0  0  0  0
 10 23  2  0  0  0  0
 12  8  1  0  0  0  0
 12  4  1  0  0  0  0
 13  9  1  0  0  0  0
 16 11  1  0  0  0  0
 16 20  1  0  0  0  0
 17  2  1  0  0  0  0
 17 13  1  0  0  0  0
 18 25  1  0  0  0  0
 18 19  1  0  0  0  0
 19  5  1  0  0  0  0
 20 15  1  0  0  0  0
 21 13  1  0  0  0  0
 21  7  2  0  0  0  0
 23 28  1  0  0  0  0
 24  2  1  0  0  0  0
 25 27  1  0  0  0  0
 25 19  1  0  0  0  0
 26  8  2  0  0  0  0
 27 21  1  0  0  0  0
 28 15  1  0  0  0  0
 29 30  1  0  0  0  0
 30 23  1  0  0  0  0
 30 31  2  0  0  0  0
 33 34  2  0  0  0  0
 34 31  1  0  0  0  0
 34 32  1  0  0  0  0
 35 29  2  0  0  0  0
 35 33  1  0  0  0  0
 37 36  1  0  0  0  0
M  END
>  <MODEL>
2

>  <REMARK>
 VINA RESULT:      -9.7      0.556      1.170
  Name = 
  2 active torsions:
  status: ('A' for Active; 'I' for Inactive)
    1  A    between atoms: C_4  and  C_37
    2  A    between atoms: C_23  and  C_30
                            x       y       z     vdW  Elec       q    Type
                         _______ _______ _______ _____ _____    ______ ____

>  <TORSDO>
F 2

$$$$
=
 OpenBabel11112417253D

 37 44  0  0  1  0  0  0  0  0999 V2000
  190.0080  174.3340  140.8570 C   0  0  0  0  0  2  0  0  0  0  0  0
  186.9990  177.2580  143.5530 C   0  0  0  0  0  0  0  0  0  0  0  0
  191.1090  176.6710  144.8530 C   0  0  1  0  0  3  0  0  0  0  0  0
  189.1670  173.3870  139.9950 C   0  0  2  0  0  3  0  0  0  0  0  0
  192.5440  173.1590  143.6650 O   0  0  0  0  0  0  0  0  0  0  0  0
  188.6290  176.8530  145.4720 C   0  0  1  0  0  3  0  0  0  0  0  0
  191.2520  175.3330  144.1550 C   0  0  0  0  0  0  0  0  0  0  0  0
  190.8100  171.6340  140.7290 C   0  0  0  0  0  0  0  0  0  0  0  0
  189.7290  177.2120  144.4580 C   0  0  2  0  0  3  0  0  0  0  0  0
  192.4530  174.3850  144.3510 C   0  0  0  0  0  0  0  0  0  0  0  0
  189.0020  177.2310  146.8880 C   0  0  0  0  0  2  0  0  0  0  0  0
  189.3970  171.9060  140.3120 C   0  0  0  0  0  2  0  0  0  0  0  0
  189.4250  176.4840  143.1520 C   0  0  2  0  0  3  0  0  0  0  0  0
  187.1440  178.5800  142.8200 C   0  0  0  0  0  1  0  0  0  0  0  0
  192.6670  176.1540  146.8880 C   0  0  0  0  0  2  0  0  0  0  0  0
  190.2170  176.4090  147.2720 C   0  0  0  0  0  2  0  0  0  0  0  0
  187.9210  176.2060  142.9140 C   0  0  0  0  0  2  0  0  0  0  0  0
  191.2000  171.7370  142.1740 C   0  0  1  0  0  3  0  0  0  0  0  0
  191.8470  172.9960  142.4670 C   0  0  1  0  0  3  0  0  0  0  0  0
  191.3880  176.7910  146.3790 C   0  0  2  0  0  3  0  0  0  0  0  0
  190.2390  175.2290  143.2430 C   0  0  0  0  0  0  0  0  0  0  0  0
  187.3000  177.4720  145.0470 C   0  0  0  0  0  2  0  0  0  0  0  0
  193.5180  174.6910  145.1390 C   0  0  0  0  0  0  0  0  0  0  0  0
  185.5660  176.7910  143.4120 C   0  0  0  0  0  1  0  0  0  0  0  0
  190.4550  172.8060  142.8910 N   0  0  1  0  0  0  0  0  0  0  0  0
  191.6450  171.3360  139.8900 O   0  0  0  0  0  0  0  0  0  0  0  0
  189.8630  174.0410  142.3650 C   0  0  2  0  0  3  0  0  0  0  0  0
  193.6820  176.0290  145.7800 C   0  0  0  0  0  2  0  0  0  0  0  0
  195.9340  174.1770  145.5500 C   0  0  0  0  0  3  0  0  0  0  0  0
  194.6170  173.7200  145.3820 C   0  0  0  0  0  0  0  0  0  0  0  0
  194.3560  172.3440  145.5040 C   0  0  0  0  0  3  0  0  0  0  0  0
  195.1030  169.9910  145.8810 C   0  0  0  0  0  1  0  0  0  0  0  0
  196.7010  171.9110  145.9160 C   0  0  0  0  0  3  0  0  0  0  0  0
  195.3930  171.4440  145.7630 C   0  0  0  0  0  0  0  0  0  0  0  0
  196.9710  173.2770  145.8110 C   0  0  0  0  0  3  0  0  0  0  0  0
  188.1910  174.1710  137.8360 C   0  0  0  0  0  1  0  0  0  0  0  0
  189.4380  173.6420  138.5210 C   0  0  0  0  0  2  0  0  0  0  0  0
  1 27  1  0  0  0  0
  2 22  1  0  0  0  0
  3  7  1  1  0  0  0
  3 20  1  0  0  0  0
  4 37  1  6  0  0  0
  4 12  1  0  0  0  0
  4  1  1  0  0  0  0
  5 10  1  0  0  0  0
  6 22  1  6  0  0  0
  6 11  1  0  0  0  0
  7 10  1  0  0  0  0
  8 18  1  0  0  0  0
  9  3  1  0  0  0  0
  9  6  1  0  0  0  0
 10 23  2  0  0  0  0
 11 16  1  0  0  0  0
 12  8  1  0  0  0  0
 13 21  1  0  0  0  0
 13  9  1  0  0  0  0
 14  2  1  0  0  0  0
 17 13  1  0  0  0  0
 17  2  1  0  0  0  0
 18 19  1  0  0  0  0
 18 25  1  0  0  0  0
 19 25  1  0  0  0  0
 19  5  1  0  0  0  0
 20 15  1  0  0  0  0
 20 16  1  0  0  0  0
 21  7  2  0  0  0  0
 23 30  1  0  0  0  0
 23 28  1  0  0  0  0
 24  2  1  0  0  0  0
 26  8  2  0  0  0  0
 27 25  1  0  0  0  0
 27 21  1  0  0  0  0
 28 15  1  0  0  0  0
 29 35  1  0  0  0  0
 30 31  1  0  0  0  0
 30 29  2  0  0  0  0
 31 34  2  0  0  0  0
 34 32  1  0  0  0  0
 34 33  1  0  0  0  0
 35 33  2  0  0  0  0
 36 37  1  0  0  0  0
M  END
>  <MODEL>
3

>  <REMARK>
 VINA RESULT:      -9.2      1.680      6.673
  Name = 
  2 active torsions:
  status: ('A' for Active; 'I' for Inactive)
    1  A    between atoms: C_4  and  C_37
    2  A    between atoms: C_23  and  C_30
                            x       y       z     vdW  Elec       q    Type
                         _______ _______ _______ _____ _____    ______ ____

>  <TORSDO>
F 2

$$$$
=
 OpenBabel11112417253D

 37 44  0  0  1  0  0  0  0  0999 V2000
  194.1530  175.7820  143.6260 C   0  0  0  0  0  2  0  0  0  0  0  0
  193.5670  172.2050  140.2010 C   0  0  0  0  0  0  0  0  0  0  0  0
  190.1170  174.5580  141.4220 C   0  0  1  0  0  3  0  0  0  0  0  0
  195.4230  175.5110  144.4400 C   0  0  2  0  0  3  0  0  0  0  0  0
  190.4950  175.9070  145.1420 O   0  0  0  0  0  0  0  0  0  0  0  0
  191.0960  172.2650  140.8280 C   0  0  1  0  0  3  0  0  0  0  0  0
  190.6990  174.9030  142.7790 C   0  0  0  0  0  0  0  0  0  0  0  0
  193.9990  176.1080  146.4220 C   0  0  0  0  0  0  0  0  0  0  0  0
  191.2140  173.7910  140.6720 C   0  0  2  0  0  3  0  0  0  0  0  0
  189.9020  175.5940  143.9050 C   0  0  0  0  0  0  0  0  0  0  0  0
  189.7130  171.7550  140.4890 C   0  0  0  0  0  2  0  0  0  0  0  0
  195.1550  175.2910  145.9320 C   0  0  0  0  0  2  0  0  0  0  0  0
  192.4970  174.2400  141.3660 C   0  0  2  0  0  3  0  0  0  0  0  0
  193.9540  172.9470  138.9350 C   0  0  0  0  0  1  0  0  0  0  0  0
  187.6070  174.4760  142.1460 C   0  0  0  0  0  2  0  0  0  0  0  0
  188.7480  172.3590  141.4900 C   0  0  0  0  0  2  0  0  0  0  0  0
  193.6100  173.1660  141.4010 C   0  0  0  0  0  2  0  0  0  0  0  0
  192.6060  175.5550  146.3560 C   0  0  1  0  0  3  0  0  0  0  0  0
  191.8800  176.0620  145.2130 C   0  0  1  0  0  3  0  0  0  0  0  0
  188.7260  173.8710  141.3200 C   0  0  2  0  0  3  0  0  0  0  0  0
  192.0410  174.6460  142.7340 C   0  0  0  0  0  0  0  0  0  0  0  0
  192.1790  171.5670  140.0100 C   0  0  0  0  0  2  0  0  0  0  0  0
  188.6110  175.9950  143.7600 C   0  0  0  0  0  0  0  0  0  0  0  0
  194.5770  171.1010  140.4320 C   0  0  0  0  0  1  0  0  0  0  0  0
  192.3930  174.6880  145.1670 N   0  0  1  0  0  0  0  0  0  0  0  0
  194.1910  177.2280  146.8670 O   0  0  0  0  0  0  0  0  0  0  0  0
  193.0640  174.7150  143.8620 C   0  0  2  0  0  3  0  0  0  0  0  0
  187.8910  175.9240  142.4550 C   0  0  0  0  0  2  0  0  0  0  0  0
  187.9820  176.0410  146.1840 C   0  0  0  0  0  3  0  0  0  0  0  0
  187.8400  176.5730  144.8920 C   0  0  0  0  0  0  0  0  0  0  0  0
  187.0050  177.6880  144.7070 C   0  0  0  0  0  3  0  0  0  0  0  0
  185.4220  179.4160  145.5730 C   0  0  0  0  0  1  0  0  0  0  0  0
  186.4500  177.6950  147.0630 C   0  0  0  0  0  3  0  0  0  0  0  0
  186.3080  178.2420  145.7860 C   0  0  0  0  0  0  0  0  0  0  0  0
  187.2870  176.5950  147.2630 C   0  0  0  0  0  3  0  0  0  0  0  0
  196.8160  176.7770  142.8040 C   0  0  0  0  0  1  0  0  0  0  0  0
  196.4120  176.6500  144.2600 C   0  0  0  0  0  2  0  0  0  0  0  0
  1 27  1  0  0  0  0
  1  4  1  0  0  0  0
  2 24  1  0  0  0  0
  2 17  1  0  0  0  0
  3  7  1  1  0  0  0
  4 37  1  1  0  0  0
  4 12  1  0  0  0  0
  5 19  1  0  0  0  0
  6 22  1  6  0  0  0
  7 10  1  0  0  0  0
  8 26  2  0  0  0  0
  9  6  1  0  0  0  0
  9 13  1  0  0  0  0
  9  3  1  0  0  0  0
 10  5  1  0  0  0  0
 11  6  1  0  0  0  0
 11 16  1  0  0  0  0
 12  8  1  0  0  0  0
 13 17  1  0  0  0  0
 13 21  1  0  0  0  0
 14  2  1  0  0  0  0
 15 28  1  0  0  0  0
 18  8  1  0  0  0  0
 19 18  1  0  0  0  0
 20  3  1  0  0  0  0
 20 16  1  0  0  0  0
 20 15  1  0  0  0  0
 21  7  2  0  0  0  0
 21 27  1  0  0  0  0
 22  2  1  0  0  0  0
 23 10  2  0  0  0  0
 23 30  1  0  0  0  0
 25 19  1  0  0  0  0
 25 18  1  0  0  0  0
 27 25  1  0  0  0  0
 28 23  1  0  0  0  0
 29 35  1  0  0  0  0
 30 29  2  0  0  0  0
 31 30  1  0  0  0  0
 31 34  2  0  0  0  0
 32 34  1  0  0  0  0
 33 35  2  0  0  0  0
 34 33  1  0  0  0  0
 36 37  1  0  0  0  0
M  END
>  <MODEL>
4

>  <REMARK>
 VINA RESULT:      -8.6      2.124      5.420
  Name = 
  2 active torsions:
  status: ('A' for Active; 'I' for Inactive)
    1  A    between atoms: C_4  and  C_37
    2  A    between atoms: C_23  and  C_30
                            x       y       z     vdW  Elec       q    Type
                         _______ _______ _______ _____ _____    ______ ____

>  <TORSDO>
F 2

$$$$
=
 OpenBabel11112417253D

 37 44  0  0  1  0  0  0  0  0999 V2000
  192.5540  175.6310  145.1470 C   0  0  0  0  0  2  0  0  0  0  0  0
  192.7710  172.0960  141.6360 C   0  0  0  0  0  0  0  0  0  0  0  0
  189.6990  175.1640  141.3690 C   0  0  1  0  0  3  0  0  0  0  0  0
  193.2640  175.1410  146.4140 C   0  0  2  0  0  3  0  0  0  0  0  0
  188.7120  176.5790  144.9510 O   0  0  0  0  0  0  0  0  0  0  0  0
  190.3410  172.6940  141.1440 C   0  0  1  0  0  3  0  0  0  0  0  0
  189.6990  175.4460  142.8580 C   0  0  0  0  0  0  0  0  0  0  0  0
  191.2850  176.1120  147.6180 C   0  0  0  0  0  0  0  0  0  0  0  0
  190.8270  174.1530  141.1270 C   0  0  2  0  0  3  0  0  0  0  0  0
  188.6570  176.3380  143.5650 C   0  0  0  0  0  0  0  0  0  0  0  0
  189.1660  172.4650  140.2200 C   0  0  0  0  0  2  0  0  0  0  0  0
  192.3430  175.0510  147.6340 C   0  0  0  0  0  2  0  0  0  0  0  0
  191.7490  174.3600  142.3250 C   0  0  2  0  0  3  0  0  0  0  0  0
  193.8080  172.6820  140.6960 C   0  0  0  0  0  1  0  0  0  0  0  0
  187.1640  175.6370  140.9400 C   0  0  0  0  0  2  0  0  0  0  0  0
  188.0120  173.3020  140.7370 C   0  0  0  0  0  2  0  0  0  0  0  0
  192.4920  173.0810  142.7830 C   0  0  0  0  0  2  0  0  0  0  0  0
  189.9740  175.8550  146.9350 C   0  0  1  0  0  3  0  0  0  0  0  0
  189.9320  176.4480  145.6170 C   0  0  1  0  0  3  0  0  0  0  0  0
  188.3780  174.7760  140.6460 C   0  0  2  0  0  3  0  0  0  0  0  0
  190.8450  174.9150  143.3820 C   0  0  0  0  0  0  0  0  0  0  0  0
  191.5010  171.7500  140.8380 C   0  0  0  0  0  2  0  0  0  0  0  0
  187.6670  176.9900  142.9000 C   0  0  0  0  0  0  0  0  0  0  0  0
  193.3310  170.8190  142.2260 C   0  0  0  0  0  1  0  0  0  0  0  0
  190.1190  174.9970  145.7290 N   0  0  1  0  0  0  0  0  0  0  0  0
  191.4940  177.1870  148.1560 O   0  0  0  0  0  0  0  0  0  0  0  0
  191.2740  174.8240  144.8420 C   0  0  2  0  0  3  0  0  0  0  0  0
  187.5800  177.0090  141.4090 C   0  0  0  0  0  2  0  0  0  0  0  0
  186.1890  179.0010  143.1060 C   0  0  0  0  0  3  0  0  0  0  0  0
  186.6220  177.7670  143.6170 C   0  0  0  0  0  0  0  0  0  0  0  0
  186.0110  177.2620  144.7780 C   0  0  0  0  0  3  0  0  0  0  0  0
  184.3780  177.4460  146.6580 C   0  0  0  0  0  1  0  0  0  0  0  0
  184.5960  179.2210  144.9140 C   0  0  0  0  0  3  0  0  0  0  0  0
  185.0080  177.9890  145.4260 C   0  0  0  0  0  0  0  0  0  0  0  0
  185.1850  179.7260  143.7530 C   0  0  0  0  0  3  0  0  0  0  0  0
  194.5180  177.1910  145.7440 C   0  0  0  0  0  1  0  0  0  0  0  0
  194.4470  176.0420  146.7310 C   0  0  0  0  0  2  0  0  0  0  0  0
  1  4  1  0  0  0  0
  2 24  1  0  0  0  0
  2 17  1  0  0  0  0
  3  7  1  1  0  0  0
  4 37  1  1  0  0  0
  4 12  1  0  0  0  0
  5 19  1  0  0  0  0
  6 11  1  6  0  0  0
  7 21  2  0  0  0  0
  7 10  1  0  0  0  0
  8 12  1  0  0  0  0
  8 26  2  0  0  0  0
  9  6  1  0  0  0  0
  9  3  1  0  0  0  0
  9 13  1  0  0  0  0
 10  5  1  0  0  0  0
 11 16  1  0  0  0  0
 13 17  1  0  0  0  0
 13 21  1  0  0  0  0
 14  2  1  0  0  0  0
 15 28  1  0  0  0  0
 18  8  1  0  0  0  0
 19 25  1  0  0  0  0
 19 18  1  0  0  0  0
 20 16  1  0  0  0  0
 20 15  1  0  0  0  0
 20  3  1  0  0  0  0
 21 27  1  0  0  0  0
 22  6  1  0  0  0  0
 22  2  1  0  0  0  0
 23 10  2  0  0  0  0
 23 30  1  0  0  0  0
 25 18  1  0  0  0  0
 27  1  1  0  0  0  0
 27 25  1  0  0  0  0
 28 23  1  0  0  0  0
 29 30  2  0  0  0  0
 29 35  1  0  0  0  0
 30 31  1  0  0  0  0
 31 34  2  0  0  0  0
 33 34  1  0  0  0  0
 34 32  1  0  0  0  0
 35 33  2  0  0  0  0
 36 37  1  0  0  0  0
M  END
>  <MODEL>
5

>  <REMARK>
 VINA RESULT:      -8.6      2.009      5.544
  Name = 
  2 active torsions:
  status: ('A' for Active; 'I' for Inactive)
    1  A    between atoms: C_4  and  C_37
    2  A    between atoms: C_23  and  C_30
                            x       y       z     vdW  Elec       q    Type
                         _______ _______ _______ _____ _____    ______ ____

>  <TORSDO>
F 2

$$$$
=
 OpenBabel11112417253D

 37 44  0  0  1  0  0  0  0  0999 V2000
  193.8440  174.6060  144.3990 C   0  0  0  0  0  2  0  0  0  0  0  0
  189.5140  176.1990  146.2920 C   0  0  0  0  0  0  0  0  0  0  0  0
  189.5040  173.9790  142.5510 C   0  0  1  0  0  3  0  0  0  0  0  0
  194.9940  175.4350  144.9800 C   0  0  2  0  0  3  0  0  0  0  0  0
  192.9100  174.4430  140.5530 O   0  0  0  0  0  0  0  0  0  0  0  0
  188.5960  175.9410  143.9270 C   0  0  1  0  0  3  0  0  0  0  0  0
  190.9270  174.3620  142.1960 C   0  0  0  0  0  0  0  0  0  0  0  0
  195.8460  175.4790  142.6160 C   0  0  0  0  0  0  0  0  0  0  0  0
  189.2480  174.5470  143.9530 C   0  0  2  0  0  3  0  0  0  0  0  0
  191.5780  174.0800  140.8250 C   0  0  0  0  0  0  0  0  0  0  0  0
  187.3560  175.9830  143.0620 C   0  0  0  0  0  2  0  0  0  0  0  0
  195.7800  176.2150  143.9200 C   0  0  0  0  0  2  0  0  0  0  0  0
  190.6500  174.6910  144.5370 C   0  0  2  0  0  3  0  0  0  0  0  0
  189.1890  175.0770  147.2620 C   0  0  0  0  0  1  0  0  0  0  0  0
  188.5670  173.8800  140.1130 C   0  0  0  0  0  2  0  0  0  0  0  0
  187.7860  175.6910  141.6370 C   0  0  0  0  0  2  0  0  0  0  0  0
  190.8070  175.8690  145.5290 C   0  0  0  0  0  2  0  0  0  0  0  0
  194.7700  175.6750  141.5880 C   0  0  1  0  0  3  0  0  0  0  0  0
  193.8030  174.6000  141.6130 C   0  0  1  0  0  3  0  0  0  0  0  0
  188.3440  174.2770  141.5590 C   0  0  2  0  0  3  0  0  0  0  0  0
  191.5290  174.8270  143.3320 C   0  0  0  0  0  0  0  0  0  0  0  0
  188.3160  176.4160  145.3510 C   0  0  0  0  0  2  0  0  0  0  0  0
  190.9390  173.4160  139.8250 C   0  0  0  0  0  0  0  0  0  0  0  0
  189.7360  177.4660  147.0890 C   0  0  0  0  0  1  0  0  0  0  0  0
  193.4320  175.8940  142.1990 N   0  0  1  0  0  0  0  0  0  0  0  0
  196.7720  174.7150  142.3950 O   0  0  0  0  0  0  0  0  0  0  0  0
  192.9150  175.4420  143.4950 C   0  0  2  0  0  3  0  0  0  0  0  0
  189.5990  172.7850  140.0090 C   0  0  0  0  0  2  0  0  0  0  0  0
  192.3390  172.1060  138.2150 C   0  0  0  0  0  3  0  0  0  0  0  0
  191.5560  173.2400  138.4840 C   0  0  0  0  0  0  0  0  0  0  0  0
  191.3240  174.1640  137.4510 C   0  0  0  0  0  3  0  0  0  0  0  0
  191.6390  174.9630  135.1060 C   0  0  0  0  0  1  0  0  0  0  0  0
  192.6730  172.8460  135.9350 C   0  0  0  0  0  3  0  0  0  0  0  0
  191.8860  173.9720  136.1860 C   0  0  0  0  0  0  0  0  0  0  0  0
  192.8990  171.9130  136.9490 C   0  0  0  0  0  3  0  0  0  0  0  0
  195.6900  173.0820  145.4290 C   0  0  0  0  0  1  0  0  0  0  0  0
  195.9410  174.5410  145.7630 C   0  0  0  0  0  2  0  0  0  0  0  0
  1  4  1  0  0  0  0
  2 24  1  0  0  0  0
  2 14  1  0  0  0  0
  3  7  1  6  0  0  0
  3  9  1  0  0  0  0
  4 37  1  6  0  0  0
  5 10  1  0  0  0  0
  5 19  1  0  0  0  0
  6 11  1  6  0  0  0
  6  9  1  0  0  0  0
  6 22  1  0  0  0  0
  7 21  2  0  0  0  0
  8 12  1  0  0  0  0
  9 13  1  0  0  0  0
 10  7  1  0  0  0  0
 12  4  1  0  0  0  0
 13 17  1  0  0  0  0
 15 20  1  0  0  0  0
 16 11  1  0  0  0  0
 17  2  1  0  0  0  0
 18 19  1  0  0  0  0
 18 25  1  0  0  0  0
 18  8  1  0  0  0  0
 19 25  1  0  0  0  0
 20 16  1  0  0  0  0
 20  3  1  0  0  0  0
 21 27  1  0  0  0  0
 21 13  1  0  0  0  0
 22  2  1  0  0  0  0
 23 28  1  0  0  0  0
 23 10  2  0  0  0  0
 25 27  1  0  0  0  0
 26  8  2  0  0  0  0
 27  1  1  0  0  0  0
 28 15  1  0  0  0  0
 29 30  1  0  0  0  0
 30 23  1  0  0  0  0
 31 30  2  0  0  0  0
 32 34  1  0  0  0  0
 33 34  2  0  0  0  0
 33 35  1  0  0  0  0
 34 31  1  0  0  0  0
 35 29  2  0  0  0  0
 36 37  1  0  0  0  0
M  END
>  <MODEL>
6

>  <REMARK>
 VINA RESULT:      -8.4      2.675      7.456
  Name = 
  2 active torsions:
  status: ('A' for Active; 'I' for Inactive)
    1  A    between atoms: C_4  and  C_37
    2  A    between atoms: C_23  and  C_30
                            x       y       z     vdW  Elec       q    Type
                         _______ _______ _______ _____ _____    ______ ____

>  <TORSDO>
F 2

$$$$
=
 OpenBabel11112417253D

 37 44  0  0  1  0  0  0  0  0999 V2000
  189.9880  174.9590  141.6300 C   0  0  0  0  0  2  0  0  0  0  0  0
  190.3420  175.8620  146.5220 C   0  0  0  0  0  0  0  0  0  0  0  0
  193.8420  176.4300  144.0030 C   0  0  1  0  0  3  0  0  0  0  0  0
  188.7980  174.0320  141.3640 C   0  0  2  0  0  3  0  0  0  0  0  0
  193.7590  174.0650  140.8090 O   0  0  0  0  0  0  0  0  0  0  0  0
  192.8560  175.5730  146.2070 C   0  0  1  0  0  3  0  0  0  0  0  0
  193.3730  175.4510  142.9450 C   0  0  0  0  0  0  0  0  0  0  0  0
  190.3740  172.8350  139.8170 C   0  0  0  0  0  0  0  0  0  0  0  0
  192.6980  176.5390  145.0200 C   0  0  2  0  0  3  0  0  0  0  0  0
  194.2500  174.9640  141.7740 C   0  0  0  0  0  0  0  0  0  0  0  0
  194.2130  175.6830  146.8650 C   0  0  0  0  0  2  0  0  0  0  0  0
  189.1950  172.6950  140.7300 C   0  0  0  0  0  2  0  0  0  0  0  0
  191.4720  176.1090  144.2200 C   0  0  2  0  0  3  0  0  0  0  0  0
  189.8350  177.2910  146.5920 C   0  0  0  0  0  1  0  0  0  0  0  0
  196.4060  175.9860  143.7530 C   0  0  0  0  0  2  0  0  0  0  0  0
  195.2500  175.2650  145.8410 C   0  0  0  0  0  2  0  0  0  0  0  0
  190.3840  175.3960  145.0570 C   0  0  0  0  0  2  0  0  0  0  0  0
  191.7660  172.6940  140.3600 C   0  0  1  0  0  3  0  0  0  0  0  0
  192.3830  173.9810  140.5940 C   0  0  1  0  0  3  0  0  0  0  0  0
  195.2310  176.2460  144.6770 C   0  0  2  0  0  3  0  0  0  0  0  0
  192.0360  175.2380  143.1390 C   0  0  0  0  0  0  0  0  0  0  0  0
  191.7180  175.7780  147.2050 C   0  0  0  0  0  2  0  0  0  0  0  0
  195.5180  175.4100  141.5620 C   0  0  0  0  0  0  0  0  0  0  0  0
  189.3740  174.9770  147.2790 C   0  0  0  0  0  1  0  0  0  0  0  0
  191.8920  173.2170  141.7470 N   0  0  1  0  0  0  0  0  0  0  0  0
  190.2020  173.0710  138.6320 O   0  0  0  0  0  0  0  0  0  0  0  0
  191.1120  174.2590  142.4230 C   0  0  2  0  0  3  0  0  0  0  0  0
  196.1250  176.5100  142.3670 C   0  0  0  0  0  2  0  0  0  0  0  0
  197.1580  173.7150  140.7210 C   0  0  0  0  0  3  0  0  0  0  0  0
  196.3720  174.8540  140.4810 C   0  0  0  0  0  0  0  0  0  0  0  0
  196.3690  175.4150  139.1920 C   0  0  0  0  0  3  0  0  0  0  0  0
  197.1470  175.4750  136.8200 C   0  0  0  0  0  1  0  0  0  0  0  0
  197.9400  173.7390  138.4310 C   0  0  0  0  0  3  0  0  0  0  0  0
  197.1540  174.8650  138.1750 C   0  0  0  0  0  0  0  0  0  0  0  0
  197.9410  173.1630  139.7030 C   0  0  0  0  0  3  0  0  0  0  0  0
  187.6100  176.1780  140.9100 C   0  0  0  0  0  1  0  0  0  0  0  0
  187.7770  174.7320  140.4820 C   0  0  0  0  0  2  0  0  0  0  0  0
  1 27  1  0  0  0  0
  2 14  1  0  0  0  0
  2 22  1  0  0  0  0
  2 24  1  0  0  0  0
  3  7  1  6  0  0  0
  3 20  1  0  0  0  0
  3  9  1  0  0  0  0
  4 37  1  6  0  0  0
  4  1  1  0  0  0  0
  5 10  1  0  0  0  0
  6 11  1  1  0  0  0
  6 22  1  0  0  0  0
  7 21  2  0  0  0  0
  8 18  1  0  0  0  0
  8 12  1  0  0  0  0
  9  6  1  0  0  0  0
 10  7  1  0  0  0  0
 12  4  1  0  0  0  0
 13  9  1  0  0  0  0
 13 17  1  0  0  0  0
 15 20  1  0  0  0  0
 16 11  1  0  0  0  0
 17  2  1  0  0  0  0
 18 19  1  0  0  0  0
 18 25  1  0  0  0  0
 19  5  1  0  0  0  0
 19 25  1  0  0  0  0
 20 16  1  0  0  0  0
 21 13  1  0  0  0  0
 23 10  2  0  0  0  0
 23 28  1  0  0  0  0
 25 27  1  0  0  0  0
 26  8  2  0  0  0  0
 27 21  1  0  0  0  0
 28 15  1  0  0  0  0
 30 29  1  0  0  0  0
 30 23  1  0  0  0  0
 31 30  2  0  0  0  0
 32 34  1  0  0  0  0
 33 35  1  0  0  0  0
 34 33  2  0  0  0  0
 34 31  1  0  0  0  0
 35 29  2  0  0  0  0
 37 36  1  0  0  0  0
M  END
>  <MODEL>
7

>  <REMARK>
 VINA RESULT:      -8.1      2.755      7.052
  Name = 
  2 active torsions:
  status: ('A' for Active; 'I' for Inactive)
    1  A    between atoms: C_4  and  C_37
    2  A    between atoms: C_23  and  C_30
                            x       y       z     vdW  Elec       q    Type
                         _______ _______ _______ _____ _____    ______ ____

>  <TORSDO>
F 2

$$$$
=
 OpenBabel11112417253D

 37 44  0  0  1  0  0  0  0  0999 V2000
  193.6630  173.7740  144.3960 C   0  0  0  0  0  2  0  0  0  0  0  0
  189.6420  175.9900  146.3450 C   0  0  0  0  0  0  0  0  0  0  0  0
  189.3000  173.9680  142.5080 C   0  0  1  0  0  3  0  0  0  0  0  0
  194.9300  174.3710  145.0170 C   0  0  2  0  0  3  0  0  0  0  0  0
  192.7560  173.9380  140.5440 O   0  0  0  0  0  0  0  0  0  0  0  0
  188.7200  175.9930  143.9670 C   0  0  1  0  0  3  0  0  0  0  0  0
  190.7710  174.1210  142.1750 C   0  0  0  0  0  0  0  0  0  0  0  0
  195.8020  174.3740  142.6610 C   0  0  0  0  0  0  0  0  0  0  0  0
  189.1280  174.5100  143.9330 C   0  0  2  0  0  3  0  0  0  0  0  0
  191.3790  173.7930  140.7960 C   0  0  0  0  0  0  0  0  0  0  0  0
  187.5140  176.2810  143.1010 C   0  0  0  0  0  2  0  0  0  0  0  0
  195.8470  175.0520  143.9960 C   0  0  0  0  0  2  0  0  0  0  0  0
  190.5280  174.3900  144.5280 C   0  0  2  0  0  3  0  0  0  0  0  0
  189.1240  174.8980  147.2620 C   0  0  0  0  0  1  0  0  0  0  0  0
  188.3860  174.1340  140.0650 C   0  0  0  0  0  2  0  0  0  0  0  0
  187.9040  175.9830  141.6660 C   0  0  0  0  0  2  0  0  0  0  0  0
  190.8710  175.4800  145.5720 C   0  0  0  0  0  2  0  0  0  0  0  0
  194.7860  174.7920  141.6390 C   0  0  1  0  0  3  0  0  0  0  0  0
  193.6520  173.8960  141.6130 C   0  0  1  0  0  3  0  0  0  0  0  0
  188.2170  174.5000  141.5270 C   0  0  2  0  0  3  0  0  0  0  0  0
  191.4300  174.4280  143.3330 C   0  0  0  0  0  0  0  0  0  0  0  0
  188.5090  176.4470  145.4100 C   0  0  0  0  0  2  0  0  0  0  0  0
  190.6480  173.2900  139.7650 C   0  0  0  0  0  0  0  0  0  0  0  0
  190.0670  177.1660  147.1980 C   0  0  0  0  0  1  0  0  0  0  0  0
  193.4970  175.2070  142.2550 N   0  0  1  0  0  0  0  0  0  0  0  0
  196.5890  173.4750  142.4090 O   0  0  0  0  0  0  0  0  0  0  0  0
  192.8970  174.7930  143.5280 C   0  0  2  0  0  3  0  0  0  0  0  0
  189.2190  172.8870  139.9160 C   0  0  0  0  0  2  0  0  0  0  0  0
  191.2960  174.1260  137.4950 C   0  0  0  0  0  3  0  0  0  0  0  0
  191.2420  173.0710  138.4190 C   0  0  0  0  0  0  0  0  0  0  0  0
  191.8070  171.8330  138.0680 C   0  0  0  0  0  3  0  0  0  0  0  0
  192.9750  170.3300  136.4510 C   0  0  0  0  0  1  0  0  0  0  0  0
  192.4250  172.7030  135.8960 C   0  0  0  0  0  3  0  0  0  0  0  0
  192.3890  171.6480  136.8110 C   0  0  0  0  0  0  0  0  0  0  0  0
  191.8800  173.9420  136.2380 C   0  0  0  0  0  3  0  0  0  0  0  0
  197.0960  173.7910  146.1120 C   0  0  0  0  0  1  0  0  0  0  0  0
  195.7050  173.2970  145.7630 C   0  0  0  0  0  2  0  0  0  0  0  0
  1  4  1  0  0  0  0
  2 24  1  0  0  0  0
  2 14  1  0  0  0  0
  3  7  1  6  0  0  0
  3  9  1  0  0  0  0
  4 37  1  6  0  0  0
  5 10  1  0  0  0  0
  5 19  1  0  0  0  0
  6 11  1  6  0  0  0
  6 22  1  0  0  0  0
  7 21  2  0  0  0  0
  8 12  1  0  0  0  0
  9  6  1  0  0  0  0
  9 13  1  0  0  0  0
 10  7  1  0  0  0  0
 12  4  1  0  0  0  0
 13 17  1  0  0  0  0
 15 20  1  0  0  0  0
 16 11  1  0  0  0  0
 17  2  1  0  0  0  0
 18 25  1  0  0  0  0
 18  8  1  0  0  0  0
 19 18  1  0  0  0  0
 19 25  1  0  0  0  0
 20 16  1  0  0  0  0
 20  3  1  0  0  0  0
 21 27  1  0  0  0  0
 21 13  1  0  0  0  0
 22  2  1  0  0  0  0
 23 28  1  0  0  0  0
 23 10  2  0  0  0  0
 25 27  1  0  0  0  0
 26  8  2  0  0  0  0
 27  1  1  0  0  0  0
 28 15  1  0  0  0  0
 29 30  1  0  0  0  0
 30 23  1  0  0  0  0
 31 30  2  0  0  0  0
 32 34  1  0  0  0  0
 33 35  1  0  0  0  0
 33 34  2  0  0  0  0
 34 31  1  0  0  0  0
 35 29  2  0  0  0  0
 37 36  1  0  0  0  0
M  END
>  <MODEL>
8

>  <REMARK>
 VINA RESULT:      -8.0      2.525      7.516
  Name = 
  2 active torsions:
  status: ('A' for Active; 'I' for Inactive)
    1  A    between atoms: C_4  and  C_37
    2  A    between atoms: C_23  and  C_30
                            x       y       z     vdW  Elec       q    Type
                         _______ _______ _______ _____ _____    ______ ____

>  <TORSDO>
F 2

$$$$
=
 OpenBabel11112417253D

 37 44  0  0  1  0  0  0  0  0999 V2000
  188.8020  175.8080  141.3050 C   0  0  0  0  0  2  0  0  0  0  0  0
  186.8340  177.1660  145.6820 C   0  0  0  0  0  0  0  0  0  0  0  0
  191.1610  177.0710  145.2400 C   0  0  1  0  0  3  0  0  0  0  0  0
  187.7720  174.9990  140.5090 C   0  0  2  0  0  3  0  0  0  0  0  0
  192.3070  174.4130  142.5150 O   0  0  0  0  0  0  0  0  0  0  0  0
  189.1030  176.5640  146.6800 C   0  0  1  0  0  3  0  0  0  0  0  0
  191.1320  176.0480  144.1230 C   0  0  0  0  0  0  0  0  0  0  0  0
  189.7070  173.4780  140.0010 C   0  0  0  0  0  0  0  0  0  0  0  0
  189.6960  177.4130  145.5420 C   0  0  2  0  0  3  0  0  0  0  0  0
  192.3880  175.3460  143.5660 C   0  0  0  0  0  0  0  0  0  0  0  0
  189.9600  176.5870  147.9260 C   0  0  0  0  0  2  0  0  0  0  0  0
  188.2250  173.5670  140.2040 C   0  0  0  0  0  2  0  0  0  0  0  0
  188.9730  177.0450  144.2500 C   0  0  2  0  0  3  0  0  0  0  0  0
  186.5790  178.6430  145.4420 C   0  0  0  0  0  1  0  0  0  0  0  0
  193.4160  176.3170  146.3240 C   0  0  0  0  0  2  0  0  0  0  0  0
  191.2900  175.9510  147.5740 C   0  0  0  0  0  2  0  0  0  0  0  0
  187.5210  176.5490  144.4520 C   0  0  0  0  0  2  0  0  0  0  0  0
  190.6120  173.2380  141.1730 C   0  0  1  0  0  3  0  0  0  0  0  0
  191.2190  174.4640  141.6430 C   0  0  1  0  0  3  0  0  0  0  0  0
  191.9940  176.8020  146.5260 C   0  0  2  0  0  3  0  0  0  0  0  0
  189.8580  176.0080  143.6270 C   0  0  0  0  0  0  0  0  0  0  0  0
  187.6670  176.9980  146.9660 C   0  0  0  0  0  2  0  0  0  0  0  0
  193.6450  175.6210  144.0040 C   0  0  0  0  0  0  0  0  0  0  0  0
  185.4990  176.4790  145.8810 C   0  0  0  0  0  1  0  0  0  0  0  0
  190.1160  173.8840  142.4180 N   0  0  1  0  0  0  0  0  0  0  0  0
  190.1760  173.6080  138.8820 O   0  0  0  0  0  0  0  0  0  0  0  0
  189.2700  175.0710  142.5780 C   0  0  2  0  0  3  0  0  0  0  0  0
  193.9350  176.7240  144.9680 C   0  0  0  0  0  2  0  0  0  0  0  0
  195.6580  175.4170  142.5280 C   0  0  0  0  0  3  0  0  0  0  0  0
  194.8270  174.8640  143.5150 C   0  0  0  0  0  0  0  0  0  0  0  0
  195.1680  173.6170  144.0660 C   0  0  0  0  0  3  0  0  0  0  0  0
  196.6430  171.6060  144.2060 C   0  0  0  0  0  1  0  0  0  0  0  0
  197.1100  173.4840  142.6280 C   0  0  0  0  0  3  0  0  0  0  0  0
  196.3000  172.9280  143.6200 C   0  0  0  0  0  0  0  0  0  0  0  0
  196.7900  174.7290  142.0830 C   0  0  0  0  0  3  0  0  0  0  0  0
  186.7960  177.0610  139.4990 C   0  0  0  0  0  1  0  0  0  0  0  0
  187.4350  175.7150  139.2110 C   0  0  0  0  0  2  0  0  0  0  0  0
  1 27  1  0  0  0  0
  2 24  1  0  0  0  0
  2 22  1  0  0  0  0
  3  7  1  6  0  0  0
  3  9  1  0  0  0  0
  3 20  1  0  0  0  0
  4 37  1  6  0  0  0
  4  1  1  0  0  0  0
  5 10  1  0  0  0  0
  6 22  1  1  0  0  0
  6 11  1  0  0  0  0
  8 12  1  0  0  0  0
  8 18  1  0  0  0  0
  9  6  1  0  0  0  0
 10 23  2  0  0  0  0
 10  7  1  0  0  0  0
 12  4  1  0  0  0  0
 13 17  1  0  0  0  0
 13  9  1  0  0  0  0
 14  2  1  0  0  0  0
 15 20  1  0  0  0  0
 16 11  1  0  0  0  0
 17  2  1  0  0  0  0
 18 19  1  0  0  0  0
 18 25  1  0  0  0  0
 19 25  1  0  0  0  0
 19  5  1  0  0  0  0
 20 16  1  0  0  0  0
 21  7  2  0  0  0  0
 21 13  1  0  0  0  0
 23 28  1  0  0  0  0
 25 27  1  0  0  0  0
 26  8  2  0  0  0  0
 27 21  1  0  0  0  0
 28 15  1  0  0  0  0
 29 30  1  0  0  0  0
 30 23  1  0  0  0  0
 30 31  2  0  0  0  0
 33 34  2  0  0  0  0
 34 31  1  0  0  0  0
 34 32  1  0  0  0  0
 35 29  2  0  0  0  0
 35 33  1  0  0  0  0
 37 36  1  0  0  0  0
M  END
>  <MODEL>
9

>  <REMARK>
 VINA RESULT:      -7.9      1.690      6.855
  Name = 
  2 active torsions:
  status: ('A' for Active; 'I' for Inactive)
    1  A    between atoms: C_4  and  C_37
    2  A    between atoms: C_23  and  C_30
                            x       y       z     vdW  Elec       q    Type
                         _______ _______ _______ _____ _____    ______ ____

>  <TORSDO>
F 2

$$$$
