=
 OpenBabel11112416363D

 32 37  0  0  1  0  0  0  0  0999 V2000
  184.9850  179.4910  143.8680 C   0  0  0  0  0  2  0  0  0  0  0  0
  189.1990  175.9250  143.9310 C   0  0  2  0  0  3  0  0  0  0  0  0
  189.3200  173.3490  139.8450 C   0  0  0  0  0  2  0  0  0  0  0  0
  190.8300  173.2690  139.9610 C   0  0  0  0  0  3  0  0  0  0  0  0
  191.2590  176.0510  145.4310 C   0  0  0  0  0  0  0  0  0  0  0  0
  192.7080  175.9420  145.5630 C   0  0  0  0  0  0  0  0  0  0  0  0
  187.1090  177.2650  144.4110 C   0  0  2  0  0  3  0  0  0  0  0  0
  187.3320  176.1870  142.2600 C   0  0  0  0  0  2  0  0  0  0  0  0
  194.7800  175.3100  145.1240 C   0  0  0  0  0  0  0  0  0  0  0  0
  185.3450  177.1980  142.8150 C   0  0  0  0  0  2  0  0  0  0  0  0
  188.6670  174.0370  141.0570 C   0  0  0  0  0  2  0  0  0  0  0  0
  188.8480  176.0780  142.4440 C   0  0  2  0  0  3  0  0  0  0  0  0
  189.5230  175.1350  141.5160 N   0  0  1  0  0  0  0  0  0  0  0  0
  191.5180  175.4410  142.9800 C   0  0  2  0  0  3  0  0  0  0  0  0
  194.8790  175.7670  146.3280 N   0  0  0  0  0  0  0  0  0  0  0  0
  185.2410  178.7460  145.0930 N   0  0  0  0  0  2  0  0  0  0  0  0
  186.7890  177.3480  142.9670 N   0  0  1  0  0  0  0  0  0  0  0  0
  193.5620  176.2410  146.7540 C   0  0  0  0  0  2  0  0  0  0  0  0
  186.6800  178.5350  145.1560 C   0  0  0  0  0  2  0  0  0  0  0  0
  184.6460  178.5550  142.7070 C   0  0  1  0  0  3  0  0  0  0  0  0
  191.4960  173.8350  140.9800 C   0  0  0  0  0  3  0  0  0  0  0  0
  190.7150  174.4950  142.0840 C   0  0  2  0  0  3  0  0  0  0  0  0
  192.8410  174.7610  143.4100 C   0  0  0  0  0  2  0  0  0  0  0  0
  188.6190  177.1510  144.6320 C   0  0  0  0  0  2  0  0  0  0  0  0
  190.5560  176.3090  146.4450 O   0  0  0  0  0  0  0  0  0  0  0  0
  195.8790  174.7400  144.4210 N   0  0  0  0  0  1  0  0  0  0  0  0
  190.6610  175.8250  144.1310 N   0  0  0  0  0  0  0  0  0  0  0  0
  193.4360  175.4240  144.6070 C   0  0  0  0  0  0  0  0  0  0  0  0
  183.2050  178.3610  142.6490 N   0  0  0  0  0  2  0  0  0  0  0  0
  182.4960  178.1990  141.4180 C   0  0  0  0  0  0  0  0  0  0  0  0
  183.1050  178.2430  140.3160 O   0  0  0  0  0  0  0  0  0  0  0  0
  181.1240  177.9960  141.4380 O   0  0  0  0  0  1  0  0  0  0  0  0
  1 16  1  0  0  0  0
  2 27  1  0  0  0  0
  2 24  1  1  0  0  0
  3  4  1  0  0  0  0
  3 11  1  0  0  0  0
  4 21  2  0  0  0  0
  5  6  1  0  0  0  0
  5 25  2  0  0  0  0
  6 18  1  0  0  0  0
  7 24  1  6  0  0  0
  7 19  1  0  0  0  0
  9 15  2  0  0  0  0
 10 17  1  0  0  0  0
 12  8  1  1  0  0  0
 12  2  1  0  0  0  0
 13 11  1  1  0  0  0
 13 22  1  0  0  0  0
 13 12  1  0  0  0  0
 14 23  1  1  0  0  0
 14 27  1  0  0  0  0
 15 18  1  0  0  0  0
 16 19  1  0  0  0  0
 17  8  1  6  0  0  0
 17  7  1  0  0  0  0
 20 29  1  1  0  0  0
 20 10  1  0  0  0  0
 20  1  1  0  0  0  0
 22 21  1  6  0  0  0
 22 14  1  0  0  0  0
 23 28  1  0  0  0  0
 26  9  1  0  0  0  0
 27  5  1  0  0  0  0
 28  9  1  0  0  0  0
 28  6  2  0  0  0  0
 30 32  1  0  0  0  0
 30 29  1  0  0  0  0
 31 30  2  0  0  0  0
M  END
>  <MODEL>
1

>  <REMARK>
 VINA RESULT:      -8.7      0.000      0.000
  Name = 
  1 active torsions:
  status: ('A' for Active; 'I' for Inactive)
    1  A    between atoms: C_20  and  N_29
                            x       y       z     vdW  Elec       q    Type
                         _______ _______ _______ _____ _____    ______ ____

>  <TORSDO>
F 1

$$$$
=
 OpenBabel11112416363D

 32 37  0  0  1  0  0  0  0  0999 V2000
  190.3980  173.7900  138.2750 C   0  0  0  0  0  2  0  0  0  0  0  0
  188.7270  175.1590  143.3570 C   0  0  2  0  0  3  0  0  0  0  0  0
  192.3680  174.7870  146.5110 C   0  0  0  0  0  2  0  0  0  0  0  0
  191.7620  175.9200  147.3170 C   0  0  0  0  0  3  0  0  0  0  0  0
  186.6510  176.5200  143.9460 C   0  0  0  0  0  0  0  0  0  0  0  0
  186.0480  177.5850  144.7410 C   0  0  0  0  0  0  0  0  0  0  0  0
  189.0440  174.1220  141.0720 C   0  0  2  0  0  3  0  0  0  0  0  0
  190.9280  174.2080  142.5830 C   0  0  0  0  0  2  0  0  0  0  0  0
  185.7460  178.9900  146.4200 C   0  0  0  0  0  0  0  0  0  0  0  0
  191.1180  173.0540  140.6060 C   0  0  0  0  0  2  0  0  0  0  0  0
  191.4840  174.3630  145.3250 C   0  0  0  0  0  2  0  0  0  0  0  0
  190.2540  175.3130  143.4000 C   0  0  2  0  0  3  0  0  0  0  0  0
  190.8460  175.5470  144.7410 N   0  0  1  0  0  0  0  0  0  0  0  0
  188.8370  176.9640  145.1580 C   0  0  2  0  0  3  0  0  0  0  0  0
  184.6090  179.0400  145.8090 N   0  0  0  0  0  0  0  0  0  0  0  0
  189.1080  173.2930  138.7360 N   0  0  0  0  0  2  0  0  0  0  0  0
  190.5160  174.2530  141.1790 N   0  0  1  0  0  0  0  0  0  0  0  0
  184.6670  178.1510  144.6480 C   0  0  0  0  0  3  0  0  0  0  0  0
  188.5670  174.3090  139.6270 C   0  0  0  0  0  2  0  0  0  0  0  0
  191.5400  173.2740  139.1510 C   0  0  1  0  0  3  0  0  0  0  0  0
  190.6230  176.5270  146.9470 C   0  0  0  0  0  3  0  0  0  0  0  0
  189.8790  176.0090  145.7440 C   0  0  2  0  0  3  0  0  0  0  0  0
  187.9560  177.5410  146.2920 C   0  0  0  0  0  2  0  0  0  0  0  0
  188.3370  175.2120  141.8810 C   0  0  0  0  0  2  0  0  0  0  0  0
  185.9410  175.8630  143.1380 O   0  0  0  0  0  0  0  0  0  0  0  0
  186.0130  179.7160  147.6150 N   0  0  0  0  0  1  0  0  0  0  0  0
  188.0570  176.2230  144.1350 N   0  0  0  0  0  0  0  0  0  0  0  0
  186.6780  178.1020  145.7640 C   0  0  1  0  0  3  0  0  0  0  0  0
  192.0500  172.0300  138.5940 N   0  0  0  0  0  2  0  0  0  0  0  0
  193.3960  171.8830  138.1380 C   0  0  0  0  0  0  0  0  0  0  0  0
  194.1980  172.8550  138.1800 O   0  0  0  0  0  1  0  0  0  0  0  0
  193.8220  170.6610  137.6380 O   0  0  0  0  0  0  0  0  0  0  0  0
  1 16  1  0  0  0  0
  1 20  1  0  0  0  0
  2 24  1  6  0  0  0
  2 12  1  0  0  0  0
  2 27  1  0  0  0  0
  3  4  1  0  0  0  0
  5 27  1  0  0  0  0
  5  6  1  0  0  0  0
  6 28  1  0  0  0  0
  7 19  1  6  0  0  0
  7 17  1  0  0  0  0
  7 24  1  0  0  0  0
  9 26  1  0  0  0  0
 11  3  1  0  0  0  0
 12  8  1  1  0  0  0
 12 13  1  0  0  0  0
 13 11  1  1  0  0  0
 13 22  1  0  0  0  0
 14 22  1  0  0  0  0
 14 23  1  1  0  0  0
 15  9  2  0  0  0  0
 16 19  1  0  0  0  0
 17 10  1  6  0  0  0
 17  8  1  0  0  0  0
 18  6  2  0  0  0  0
 18 15  1  0  0  0  0
 20 29  1  6  0  0  0
 20 10  1  0  0  0  0
 21  4  2  0  0  0  0
 22 21  1  1  0  0  0
 25  5  2  0  0  0  0
 27 14  1  0  0  0  0
 28 23  1  1  0  0  0
 28  9  1  0  0  0  0
 30 31  1  0  0  0  0
 30 29  1  0  0  0  0
 32 30  2  0  0  0  0
M  END
>  <MODEL>
2

>  <REMARK>
 VINA RESULT:      -8.2      3.237      7.939
  Name = 
  1 active torsions:
  status: ('A' for Active; 'I' for Inactive)
    1  A    between atoms: C_20  and  N_29
                            x       y       z     vdW  Elec       q    Type
                         _______ _______ _______ _____ _____    ______ ____

>  <TORSDO>
F 1

$$$$
=
 OpenBabel11112416363D

 32 37  0  0  1  0  0  0  0  0999 V2000
  194.2570  173.0300  140.5000 C   0  0  0  0  0  2  0  0  0  0  0  0
  190.0710  175.1350  143.4190 C   0  0  2  0  0  3  0  0  0  0  0  0
  191.4530  176.0860  147.9500 C   0  0  0  0  0  2  0  0  0  0  0  0
  190.4710  177.2410  147.9880 C   0  0  0  0  0  3  0  0  0  0  0  0
  187.9580  176.2050  142.4690 C   0  0  0  0  0  0  0  0  0  0  0  0
  186.9860  177.2920  142.5190 C   0  0  0  0  0  0  0  0  0  0  0  0
  191.6020  173.7070  142.0010 C   0  0  2  0  0  3  0  0  0  0  0  0
  192.3730  174.4420  144.1700 C   0  0  0  0  0  2  0  0  0  0  0  0
  185.7800  178.9470  143.3500 C   0  0  0  0  0  0  0  0  0  0  0  0
  193.6360  172.9440  142.9700 C   0  0  0  0  0  2  0  0  0  0  0  0
  191.3620  175.2710  146.6470 C   0  0  0  0  0  2  0  0  0  0  0  0
  191.3280  175.5600  144.1910 C   0  0  2  0  0  3  0  0  0  0  0  0
  191.0970  176.1740  145.5220 N   0  0  1  0  0  0  0  0  0  0  0  0
  189.1320  177.2730  144.4500 C   0  0  2  0  0  3  0  0  0  0  0  0
  185.1490  178.6660  142.2590 N   0  0  0  0  0  0  0  0  0  0  0  0
  192.9410  172.4240  140.3540 N   0  0  0  0  0  2  0  0  0  0  0  0
  192.7800  174.1130  142.8020 N   0  0  1  0  0  0  0  0  0  0  0  0
  185.8530  177.5750  141.5840 C   0  0  0  0  0  3  0  0  0  0  0  0
  191.9710  173.4960  140.5270 C   0  0  0  0  0  2  0  0  0  0  0  0
  194.7660  172.9200  141.9380 C   0  0  1  0  0  3  0  0  0  0  0  0
  189.6890  177.5450  146.9400 C   0  0  0  0  0  3  0  0  0  0  0  0
  189.7280  176.6620  145.7220 C   0  0  2  0  0  3  0  0  0  0  0  0
  187.7600  177.9140  144.7690 C   0  0  0  0  0  2  0  0  0  0  0  0
  190.5340  174.8030  142.0020 C   0  0  0  0  0  2  0  0  0  0  0  0
  187.8170  175.2770  141.6280 O   0  0  0  0  0  0  0  0  0  0  0  0
  185.3370  179.9460  144.2630 N   0  0  0  0  0  1  0  0  0  0  0  0
  189.0510  176.2060  143.4210 N   0  0  0  0  0  0  0  0  0  0  0  0
  186.9480  178.1180  143.5330 C   0  0  1  0  0  3  0  0  0  0  0  0
  195.5380  171.6950  142.0840 N   0  0  0  0  0  2  0  0  0  0  0  0
  196.6890  171.6030  142.9260 C   0  0  0  0  0  0  0  0  0  0  0  0
  197.0970  172.6090  143.5670 O   0  0  0  0  0  1  0  0  0  0  0  0
  197.3660  170.3970  143.0350 O   0  0  0  0  0  0  0  0  0  0  0  0
  1 20  1  0  0  0  0
  2 24  1  6  0  0  0
  2 27  1  0  0  0  0
  2 12  1  0  0  0  0
  3  4  1  0  0  0  0
  5  6  1  0  0  0  0
  5 27  1  0  0  0  0
  6 28  1  0  0  0  0
  7 19  1  6  0  0  0
  7 24  1  0  0  0  0
  7 17  1  0  0  0  0
  9 28  1  0  0  0  0
  9 26  1  0  0  0  0
 11  3  1  0  0  0  0
 12  8  1  1  0  0  0
 12 13  1  0  0  0  0
 13 22  1  0  0  0  0
 13 11  1  1  0  0  0
 14 23  1  1  0  0  0
 14 22  1  0  0  0  0
 15  9  2  0  0  0  0
 16  1  1  0  0  0  0
 16 19  1  0  0  0  0
 17 10  1  1  0  0  0
 17  8  1  0  0  0  0
 18 15  1  0  0  0  0
 18  6  2  0  0  0  0
 20 29  1  6  0  0  0
 20 10  1  0  0  0  0
 21  4  2  0  0  0  0
 22 21  1  1  0  0  0
 25  5  2  0  0  0  0
 27 14  1  0  0  0  0
 28 23  1  1  0  0  0
 29 30  1  0  0  0  0
 30 32  2  0  0  0  0
 30 31  1  0  0  0  0
M  END
>  <MODEL>
3

>  <REMARK>
 VINA RESULT:      -7.6      3.207      9.080
  Name = 
  1 active torsions:
  status: ('A' for Active; 'I' for Inactive)
    1  A    between atoms: C_20  and  N_29
                            x       y       z     vdW  Elec       q    Type
                         _______ _______ _______ _____ _____    ______ ____

>  <TORSDO>
F 1

$$$$
=
 OpenBabel11112416363D

 32 37  0  0  1  0  0  0  0  0999 V2000
  185.3260  177.2010  144.5460 C   0  0  0  0  0  2  0  0  0  0  0  0
  189.6480  174.5490  142.3600 C   0  0  2  0  0  3  0  0  0  0  0  0
  193.0680  173.8150  145.6940 C   0  0  0  0  0  2  0  0  0  0  0  0
  193.4630  172.5360  144.9820 C   0  0  0  0  0  3  0  0  0  0  0  0
  189.6500  173.1940  140.1980 C   0  0  0  0  0  0  0  0  0  0  0  0
  190.0550  171.9840  139.4910 C   0  0  0  0  0  0  0  0  0  0  0  0
  187.7900  176.1700  142.9230 C   0  0  2  0  0  3  0  0  0  0  0  0
  189.3640  175.5560  144.6520 C   0  0  0  0  0  2  0  0  0  0  0  0
  191.2310  170.1810  138.9900 C   0  0  0  0  0  0  0  0  0  0  0  0
  187.8220  177.2100  145.0630 C   0  0  0  0  0  2  0  0  0  0  0  0
  191.9830  174.6050  144.9400 C   0  0  0  0  0  2  0  0  0  0  0  0
  189.7720  174.3050  143.8720 C   0  0  2  0  0  3  0  0  0  0  0  0
  191.0350  173.6700  144.3260 N   0  0  1  0  0  0  0  0  0  0  0  0
  190.8610  172.3060  142.2450 C   0  0  2  0  0  3  0  0  0  0  0  0
  190.5390  170.3690  137.9150 N   0  0  0  0  0  0  0  0  0  0  0  0
  185.8010  177.6180  143.2340 N   0  0  0  0  0  2  0  0  0  0  0  0
  187.9760  175.9330  144.3740 N   0  0  1  0  0  0  0  0  0  0  0  0
  189.6890  171.5440  138.1100 C   0  0  0  0  0  3  0  0  0  0  0  0
  186.3170  176.4240  142.5810 C   0  0  0  0  0  2  0  0  0  0  0  0
  186.4050  177.3850  145.6150 C   0  0  1  0  0  3  0  0  0  0  0  0
  192.8420  172.1230  143.8650 C   0  0  0  0  0  3  0  0  0  0  0  0
  191.7800  172.9980  143.2550 C   0  0  2  0  0  3  0  0  0  0  0  0
  191.7060  171.4830  141.2440 C   0  0  0  0  0  2  0  0  0  0  0  0
  188.1920  174.9360  142.1110 C   0  0  0  0  0  2  0  0  0  0  0  0
  189.0070  174.0910  139.5880 O   0  0  0  0  0  0  0  0  0  0  0  0
  192.1870  169.1350  139.1210 N   0  0  0  0  0  1  0  0  0  0  0  0
  190.0310  173.3480  141.5880 N   0  0  0  0  0  0  0  0  0  0  0  0
  190.9360  171.1650  140.0060 C   0  0  1  0  0  3  0  0  0  0  0  0
  186.2710  178.7050  146.2120 N   0  0  0  0  0  2  0  0  0  0  0  0
  186.0520  178.9020  147.6100 C   0  0  0  0  0  0  0  0  0  0  0  0
  185.9410  177.9160  148.3880 O   0  0  0  0  0  1  0  0  0  0  0  0
  185.9550  180.1900  148.1160 O   0  0  0  0  0  0  0  0  0  0  0  0
  1 20  1  0  0  0  0
  2 24  1  1  0  0  0
  2 12  1  0  0  0  0
  4  3  1  0  0  0  0
  5 27  1  0  0  0  0
  6 28  1  0  0  0  0
  6  5  1  0  0  0  0
  7 24  1  6  0  0  0
  7 17  1  0  0  0  0
  9 26  1  0  0  0  0
  9 28  1  0  0  0  0
 10 20  1  0  0  0  0
 11  3  1  0  0  0  0
 12 13  1  0  0  0  0
 12  8  1  1  0  0  0
 13 11  1  6  0  0  0
 14 23  1  6  0  0  0
 14 22  1  0  0  0  0
 15 18  1  0  0  0  0
 15  9  2  0  0  0  0
 16  1  1  0  0  0  0
 17  8  1  6  0  0  0
 17 10  1  0  0  0  0
 18  6  2  0  0  0  0
 19  7  1  0  0  0  0
 19 16  1  0  0  0  0
 20 29  1  6  0  0  0
 21  4  2  0  0  0  0
 22 21  1  1  0  0  0
 22 13  1  0  0  0  0
 25  5  2  0  0  0  0
 27 14  1  0  0  0  0
 27  2  1  0  0  0  0
 28 23  1  6  0  0  0
 29 30  1  0  0  0  0
 30 32  2  0  0  0  0
 30 31  1  0  0  0  0
M  END
>  <MODEL>
4

>  <REMARK>
 VINA RESULT:      -7.2      3.074      5.765
  Name = 
  1 active torsions:
  status: ('A' for Active; 'I' for Inactive)
    1  A    between atoms: C_20  and  N_29
                            x       y       z     vdW  Elec       q    Type
                         _______ _______ _______ _____ _____    ______ ____

>  <TORSDO>
F 1

$$$$
=
 OpenBabel11112416363D

 32 37  0  0  1  0  0  0  0  0999 V2000
  190.9410  170.9730  141.1310 C   0  0  0  0  0  2  0  0  0  0  0  0
  188.8140  175.7900  142.7890 C   0  0  2  0  0  3  0  0  0  0  0  0
  185.7980  177.5650  139.4570 C   0  0  0  0  0  2  0  0  0  0  0  0
  184.9820  178.2050  140.5620 C   0  0  0  0  0  3  0  0  0  0  0  0
  188.7310  176.6570  145.1870 C   0  0  0  0  0  0  0  0  0  0  0  0
  187.9670  177.3040  146.2490 C   0  0  0  0  0  0  0  0  0  0  0  0
  190.3180  173.8740  142.1080 C   0  0  2  0  0  3  0  0  0  0  0  0
  188.6030  174.6110  140.5730 C   0  0  0  0  0  2  0  0  0  0  0  0
  186.4320  178.5700  147.2100 C   0  0  0  0  0  0  0  0  0  0  0  0
  190.1380  173.0460  139.8850 C   0  0  0  0  0  2  0  0  0  0  0  0
  187.0750  176.8830  139.9800 C   0  0  0  0  0  2  0  0  0  0  0  0
  187.8400  175.2910  141.7120 C   0  0  2  0  0  3  0  0  0  0  0  0
  186.8010  176.2580  141.2770 N   0  0  1  0  0  0  0  0  0  0  0  0
  186.7100  176.9300  143.6760 C   0  0  2  0  0  3  0  0  0  0  0  0
  187.2710  178.3730  148.1720 N   0  0  0  0  0  0  0  0  0  0  0  0
  191.8300  171.9410  141.7590 N   0  0  0  0  0  2  0  0  0  0  0  0
  189.3660  173.4570  141.0530 N   0  0  1  0  0  0  0  0  0  0  0  0
  188.3550  177.5260  147.6760 C   0  0  0  0  0  2  0  0  0  0  0  0
  191.0290  172.6670  142.7330 C   0  0  0  0  0  2  0  0  0  0  0  0
  190.3320  171.5280  139.8430 C   0  0  1  0  0  3  0  0  0  0  0  0
  185.3190  178.0860  141.8570 C   0  0  0  0  0  3  0  0  0  0  0  0
  186.5930  177.3680  142.2140 C   0  0  2  0  0  3  0  0  0  0  0  0
  186.3180  178.1020  144.6080 C   0  0  0  0  0  2  0  0  0  0  0  0
  189.5870  174.5620  143.2640 C   0  0  0  0  0  2  0  0  0  0  0  0
  189.9290  176.3220  145.3930 O   0  0  0  0  0  0  0  0  0  0  0  0
  185.2730  179.3840  147.3500 N   0  0  0  0  0  1  0  0  0  0  0  0
  188.0950  176.4450  143.9030 N   0  0  0  0  0  0  0  0  0  0  0  0
  186.8290  177.8960  145.9950 C   0  0  0  0  0  0  0  0  0  0  0  0
  191.1820  171.1730  138.7160 N   0  0  0  0  0  2  0  0  0  0  0  0
  190.7760  170.2510  137.7030 C   0  0  0  0  0  0  0  0  0  0  0  0
  189.6530  169.6810  137.7650 O   0  0  0  0  0  1  0  0  0  0  0  0
  191.6290  169.9740  136.6440 O   0  0  0  0  0  0  0  0  0  0  0  0
  1 16  1  0  0  0  0
  2 24  1  1  0  0  0
  2 27  1  0  0  0  0
  3 11  1  0  0  0  0
  3  4  1  0  0  0  0
  4 21  2  0  0  0  0
  5 25  2  0  0  0  0
  5  6  1  0  0  0  0
  6 18  1  0  0  0  0
  7 19  1  1  0  0  0
  7 24  1  0  0  0  0
  8 17  1  0  0  0  0
  9 26  1  0  0  0  0
  9 15  2  0  0  0  0
 12  8  1  6  0  0  0
 12  2  1  0  0  0  0
 13 11  1  6  0  0  0
 13 12  1  0  0  0  0
 13 22  1  0  0  0  0
 14 27  1  0  0  0  0
 14 23  1  1  0  0  0
 16 19  1  0  0  0  0
 17 10  1  6  0  0  0
 17  7  1  0  0  0  0
 18 15  1  0  0  0  0
 20 29  1  6  0  0  0
 20 10  1  0  0  0  0
 20  1  1  0  0  0  0
 22 21  1  1  0  0  0
 22 14  1  0  0  0  0
 23 28  1  0  0  0  0
 27  5  1  0  0  0  0
 28  6  2  0  0  0  0
 28  9  1  0  0  0  0
 30 31  1  0  0  0  0
 30 29  1  0  0  0  0
 32 30  2  0  0  0  0
M  END
>  <MODEL>
5

>  <REMARK>
 VINA RESULT:      -7.0      3.614      7.444
  Name = 
  1 active torsions:
  status: ('A' for Active; 'I' for Inactive)
    1  A    between atoms: C_20  and  N_29
                            x       y       z     vdW  Elec       q    Type
                         _______ _______ _______ _____ _____    ______ ____

>  <TORSDO>
F 1

$$$$
=
 OpenBabel11112416363D

 32 37  0  0  1  0  0  0  0  0999 V2000
  187.1220  178.4820  143.7730 C   0  0  0  0  0  2  0  0  0  0  0  0
  191.0100  174.5710  143.5050 C   0  0  2  0  0  3  0  0  0  0  0  0
  190.4980  171.9230  139.4960 C   0  0  0  0  0  2  0  0  0  0  0  0
  192.0000  171.7170  139.4620 C   0  0  0  0  0  3  0  0  0  0  0  0
  193.2160  174.5480  144.7870 C   0  0  0  0  0  0  0  0  0  0  0  0
  194.6570  174.3180  144.7760 C   0  0  0  0  0  0  0  0  0  0  0  0
  189.0990  176.0930  144.1580 C   0  0  2  0  0  3  0  0  0  0  0  0
  189.0110  174.9620  142.0230 C   0  0  0  0  0  2  0  0  0  0  0  0
  196.6140  173.5040  144.1470 C   0  0  0  0  0  0  0  0  0  0  0  0
  187.1820  176.1490  142.7490 C   0  0  0  0  0  2  0  0  0  0  0  0
  190.0320  172.6860  140.7490 C   0  0  0  0  0  2  0  0  0  0  0  0
  190.5220  174.7270  142.0570 C   0  0  2  0  0  3  0  0  0  0  0  0
  191.0190  173.7150  141.0920 N   0  0  1  0  0  0  0  0  0  0  0  0
  193.1720  173.8750  142.3400 C   0  0  2  0  0  3  0  0  0  0  0  0
  196.8730  173.9720  145.3230 N   0  0  0  0  0  0  0  0  0  0  0  0
  187.4400  177.7400  144.9850 N   0  0  0  0  0  2  0  0  0  0  0  0
  188.6410  176.1780  142.7510 N   0  0  1  0  0  0  0  0  0  0  0  0
  195.6500  174.5630  145.8660 C   0  0  0  0  0  2  0  0  0  0  0  0
  188.8550  177.4080  144.9080 C   0  0  0  0  0  2  0  0  0  0  0  0
  186.5900  177.5590  142.6760 C   0  0  1  0  0  3  0  0  0  0  0  0
  192.8120  172.2420  140.3940 C   0  0  0  0  0  3  0  0  0  0  0  0
  192.2050  172.9850  141.5540 C   0  0  2  0  0  3  0  0  0  0  0  0
  194.4700  173.0920  142.6520 C   0  0  0  0  0  2  0  0  0  0  0  0
  190.6090  175.8550  144.2290 C   0  0  0  0  0  2  0  0  0  0  0  0
  192.6440  174.8820  145.8590 O   0  0  0  0  0  0  0  0  0  0  0  0
  197.5830  172.8290  143.3530 N   0  0  0  0  0  1  0  0  0  0  0  0
  192.4720  174.3500  143.5600 N   0  0  0  0  0  0  0  0  0  0  0  0
  195.2380  173.7220  143.7650 C   0  0  0  0  0  0  0  0  0  0  0  0
  185.1400  177.4870  142.7680 N   0  0  0  0  0  2  0  0  0  0  0  0
  184.2740  178.0510  141.7810 C   0  0  0  0  0  0  0  0  0  0  0  0
  184.7480  178.6650  140.7860 O   0  0  0  0  0  0  0  0  0  0  0  0
  182.8990  177.9270  141.9200 O   0  0  0  0  0  1  0  0  0  0  0  0
  1 16  1  0  0  0  0
  2 27  1  0  0  0  0
  2 24  1  1  0  0  0
  3 11  1  0  0  0  0
  4  3  1  0  0  0  0
  4 21  2  0  0  0  0
  5 25  2  0  0  0  0
  6  5  1  0  0  0  0
  6 18  1  0  0  0  0
  7 24  1  6  0  0  0
  7 19  1  0  0  0  0
  9 15  2  0  0  0  0
 10 17  1  0  0  0  0
 12  8  1  1  0  0  0
 12  2  1  0  0  0  0
 13 11  1  1  0  0  0
 13 22  1  0  0  0  0
 13 12  1  0  0  0  0
 14 23  1  1  0  0  0
 14 27  1  0  0  0  0
 15 18  1  0  0  0  0
 17  8  1  6  0  0  0
 17  7  1  0  0  0  0
 19 16  1  0  0  0  0
 20 10  1  0  0  0  0
 20 29  1  1  0  0  0
 20  1  1  0  0  0  0
 22 21  1  6  0  0  0
 22 14  1  0  0  0  0
 23 28  1  0  0  0  0
 26  9  1  0  0  0  0
 27  5  1  0  0  0  0
 28  9  1  0  0  0  0
 28  6  2  0  0  0  0
 30 32  1  0  0  0  0
 30 29  1  0  0  0  0
 31 30  2  0  0  0  0
M  END
>  <MODEL>
6

>  <REMARK>
 VINA RESULT:      -7.0      1.693      2.323
  Name = 
  1 active torsions:
  status: ('A' for Active; 'I' for Inactive)
    1  A    between atoms: C_20  and  N_29
                            x       y       z     vdW  Elec       q    Type
                         _______ _______ _______ _____ _____    ______ ____

>  <TORSDO>
F 1

$$$$
=
 OpenBabel11112416363D

 32 37  0  0  1  0  0  0  0  0999 V2000
  194.5720  171.4870  145.6470 C   0  0  0  0  0  2  0  0  0  0  0  0
  190.9310  174.7150  143.0380 C   0  0  2  0  0  3  0  0  0  0  0  0
  190.0430  173.0450  138.5920 C   0  0  0  0  0  2  0  0  0  0  0  0
  188.6320  173.5920  138.6870 C   0  0  0  0  0  3  0  0  0  0  0  0
  189.3260  176.3690  144.1330 C   0  0  0  0  0  0  0  0  0  0  0  0
  187.9800  176.9290  144.2100 C   0  0  0  0  0  0  0  0  0  0  0  0
  192.9150  173.7550  144.2770 C   0  0  2  0  0  3  0  0  0  0  0  0
  192.2640  172.7600  142.1730 C   0  0  0  0  0  2  0  0  0  0  0  0
  185.9470  177.5130  143.5710 C   0  0  0  0  0  0  0  0  0  0  0  0
  194.2040  172.0740  143.1950 C   0  0  0  0  0  2  0  0  0  0  0  0
  190.9070  173.4150  139.8110 C   0  0  0  0  0  2  0  0  0  0  0  0
  190.8690  173.3790  142.2840 C   0  0  2  0  0  3  0  0  0  0  0  0
  190.0840  173.3800  141.0240 N   0  0  1  0  0  0  0  0  0  0  0  0
  188.5120  174.8860  142.2400 C   0  0  2  0  0  3  0  0  0  0  0  0
  186.1120  178.2140  144.6430 N   0  0  0  0  0  0  0  0  0  0  0  0
  194.7230  172.9320  145.7620 N   0  0  0  0  0  2  0  0  0  0  0  0
  192.8410  172.5000  143.4940 N   0  0  1  0  0  0  0  0  0  0  0  0
  187.4350  177.9150  145.1930 C   0  0  0  0  0  2  0  0  0  0  0  0
  193.3810  173.4930  145.7150 C   0  0  0  0  0  2  0  0  0  0  0  0
  194.7000  171.0270  144.1940 C   0  0  1  0  0  3  0  0  0  0  0  0
  188.1930  174.2420  139.7770 C   0  0  0  0  0  3  0  0  0  0  0  0
  189.1560  174.5100  140.9030 C   0  0  2  0  0  3  0  0  0  0  0  0
  187.4280  175.9670  142.0160 C   0  0  0  0  0  2  0  0  0  0  0  0
  191.5350  174.4030  144.4060 C   0  0  0  0  0  2  0  0  0  0  0  0
  190.2340  176.8170  144.8840 O   0  0  0  0  0  0  0  0  0  0  0  0
  184.7730  177.5920  142.7690 N   0  0  0  0  0  1  0  0  0  0  0  0
  189.5900  175.3260  143.1630 N   0  0  0  0  0  0  0  0  0  0  0  0
  187.0920  176.6810  143.2820 C   0  0  0  0  0  0  0  0  0  0  0  0
  196.0900  170.6990  143.9130 N   0  0  0  0  0  2  0  0  0  0  0  0
  196.6010  169.3670  143.9950 C   0  0  0  0  0  0  0  0  0  0  0  0
  195.8550  168.4130  144.3450 O   0  0  0  0  0  1  0  0  0  0  0  0
  197.9330  169.1230  143.6920 O   0  0  0  0  0  0  0  0  0  0  0  0
  1 16  1  0  0  0  0
  2 27  1  0  0  0  0
  2 24  1  1  0  0  0
  3  4  1  0  0  0  0
  3 11  1  0  0  0  0
  4 21  2  0  0  0  0
  5  6  1  0  0  0  0
  5 25  2  0  0  0  0
  6 18  1  0  0  0  0
  7 24  1  1  0  0  0
  7 19  1  0  0  0  0
  9 15  2  0  0  0  0
 10 17  1  0  0  0  0
 10 20  1  0  0  0  0
 12  8  1  6  0  0  0
 12  2  1  0  0  0  0
 13 11  1  6  0  0  0
 13 12  1  0  0  0  0
 14 23  1  6  0  0  0
 14 27  1  0  0  0  0
 15 18  1  0  0  0  0
 17  8  1  6  0  0  0
 17  7  1  0  0  0  0
 19 16  1  0  0  0  0
 20 29  1  6  0  0  0
 20  1  1  0  0  0  0
 22 21  1  6  0  0  0
 22 13  1  0  0  0  0
 22 14  1  0  0  0  0
 23 28  1  0  0  0  0
 26  9  1  0  0  0  0
 27  5  1  0  0  0  0
 28  9  1  0  0  0  0
 28  6  2  0  0  0  0
 29 30  1  0  0  0  0
 30 31  1  0  0  0  0
 32 30  2  0  0  0  0
M  END
>  <MODEL>
7

>  <REMARK>
 VINA RESULT:      -6.6      3.396      8.752
  Name = 
  1 active torsions:
  status: ('A' for Active; 'I' for Inactive)
    1  A    between atoms: C_20  and  N_29
                            x       y       z     vdW  Elec       q    Type
                         _______ _______ _______ _____ _____    ______ ____

>  <TORSDO>
F 1

$$$$
=
 OpenBabel11112416363D

 32 37  0  0  1  0  0  0  0  0999 V2000
  188.2850  177.3810  146.4160 C   0  0  0  0  0  2  0  0  0  0  0  0
  190.3980  173.5800  143.0150 C   0  0  2  0  0  3  0  0  0  0  0  0
  188.5280  174.0230  138.5820 C   0  0  0  0  0  2  0  0  0  0  0  0
  189.8340  173.5190  137.9990 C   0  0  0  0  0  3  0  0  0  0  0  0
  192.5590  172.2710  143.3720 C   0  0  0  0  0  0  0  0  0  0  0  0
  193.8030  171.7510  142.8140 C   0  0  0  0  0  0  0  0  0  0  0  0
  189.2640  174.8320  144.8970 C   0  0  2  0  0  3  0  0  0  0  0  0
  188.5430  175.2390  142.6260 C   0  0  0  0  0  2  0  0  0  0  0  0
  195.2420  171.0180  141.3050 C   0  0  0  0  0  0  0  0  0  0  0  0
  187.3690  176.1700  144.3680 C   0  0  0  0  0  2  0  0  0  0  0  0
  188.5100  173.9870  140.1200 C   0  0  0  0  0  2  0  0  0  0  0  0
  189.8550  174.6710  142.0810 C   0  0  2  0  0  3  0  0  0  0  0  0
  189.8380  174.3380  140.6340 N   0  0  1  0  0  0  0  0  0  0  0  0
  192.0140  173.2040  141.0750 C   0  0  2  0  0  3  0  0  0  0  0  0
  195.7770  170.6240  142.4130 N   0  0  0  0  0  0  0  0  0  0  0  0
  188.4290  176.0180  146.9080 N   0  0  0  0  0  2  0  0  0  0  0  0
  188.7270  175.8370  143.9500 N   0  0  1  0  0  0  0  0  0  0  0  0
  194.9240  171.0570  143.5200 C   0  0  0  0  0  2  0  0  0  0  0  0
  189.6040  175.4630  146.2520 C   0  0  0  0  0  2  0  0  0  0  0  0
  187.3370  177.4440  145.2170 C   0  0  1  0  0  3  0  0  0  0  0  0
  190.8750  173.1780  138.7760 C   0  0  0  0  0  3  0  0  0  0  0  0
  190.7110  173.2160  140.2720 C   0  0  2  0  0  3  0  0  0  0  0  0
  192.9560  172.1020  140.5330 C   0  0  0  0  0  2  0  0  0  0  0  0
  190.5780  174.2410  144.3800 C   0  0  0  0  0  2  0  0  0  0  0  0
  192.2660  172.0360  144.5760 O   0  0  0  0  0  0  0  0  0  0  0  0
  195.8050  170.7310  140.0300 N   0  0  0  0  0  1  0  0  0  0  0  0
  191.6710  173.0220  142.5080 N   0  0  0  0  0  0  0  0  0  0  0  0
  194.0130  171.7460  141.5230 C   0  0  0  0  0  0  0  0  0  0  0  0
  185.9810  177.6870  145.6860 N   0  0  0  0  0  2  0  0  0  0  0  0
  185.2470  178.8650  145.3490 C   0  0  0  0  0  0  0  0  0  0  0  0
  185.7690  179.7660  144.6390 O   0  0  0  0  0  0  0  0  0  0  0  0
  183.9490  179.0220  145.8140 O   0  0  0  0  0  1  0  0  0  0  0  0
  1 16  1  0  0  0  0
  2 24  1  1  0  0  0
  3 11  1  0  0  0  0
  4  3  1  0  0  0  0
  4 21  2  0  0  0  0
  5 25  2  0  0  0  0
  6  5  1  0  0  0  0
  6 18  1  0  0  0  0
  7 24  1  6  0  0  0
  7 19  1  0  0  0  0
  9 28  1  0  0  0  0
  9 15  2  0  0  0  0
 10 20  1  0  0  0  0
 12  8  1  1  0  0  0
 12  2  1  0  0  0  0
 13 11  1  1  0  0  0
 13 12  1  0  0  0  0
 14 23  1  6  0  0  0
 14 27  1  0  0  0  0
 15 18  1  0  0  0  0
 17  8  1  6  0  0  0
 17 10  1  0  0  0  0
 17  7  1  0  0  0  0
 19 16  1  0  0  0  0
 20 29  1  1  0  0  0
 20  1  1  0  0  0  0
 22 21  1  6  0  0  0
 22 13  1  0  0  0  0
 22 14  1  0  0  0  0
 23 28  1  0  0  0  0
 26  9  1  0  0  0  0
 27  2  1  0  0  0  0
 27  5  1  0  0  0  0
 28  6  2  0  0  0  0
 30 29  1  0  0  0  0
 30 32  1  0  0  0  0
 31 30  2  0  0  0  0
M  END
>  <MODEL>
8

>  <REMARK>
 VINA RESULT:      -6.5      2.995      4.055
  Name = 
  1 active torsions:
  status: ('A' for Active; 'I' for Inactive)
    1  A    between atoms: C_20  and  N_29
                            x       y       z     vdW  Elec       q    Type
                         _______ _______ _______ _____ _____    ______ ____

>  <TORSDO>
F 1

$$$$
=
 OpenBabel11112416363D

 32 37  0  0  1  0  0  0  0  0999 V2000
  189.7670  173.5060  137.2070 C   0  0  0  0  0  2  0  0  0  0  0  0
  190.4240  173.6170  142.6870 C   0  0  2  0  0  3  0  0  0  0  0  0
  194.2880  171.0300  143.9980 C   0  0  0  0  0  2  0  0  0  0  0  0
  194.5000  171.9710  145.1680 C   0  0  0  0  0  3  0  0  0  0  0  0
  189.4180  175.3260  144.2930 C   0  0  0  0  0  0  0  0  0  0  0  0
  189.5980  176.2090  145.4400 C   0  0  0  0  0  0  0  0  0  0  0  0
  189.5750  173.3410  140.3210 C   0  0  2  0  0  3  0  0  0  0  0  0
  191.6610  172.2880  140.9410 C   0  0  0  0  0  2  0  0  0  0  0  0
  190.4420  177.0030  147.3220 C   0  0  0  0  0  0  0  0  0  0  0  0
  190.7430  171.8510  138.8800 C   0  0  0  0  0  2  0  0  0  0  0  0
  193.0040  171.3410  143.2090 C   0  0  0  0  0  2  0  0  0  0  0  0
  191.8050  173.2240  142.1430 C   0  0  2  0  0  3  0  0  0  0  0  0
  192.8030  172.7920  143.1540 N   0  0  1  0  0  0  0  0  0  0  0  0
  191.8280  174.5850  144.5860 C   0  0  2  0  0  3  0  0  0  0  0  0
  189.3160  177.6300  147.2370 N   0  0  0  0  0  0  0  0  0  0  0  0
  188.5870  173.3510  138.0470 N   0  0  0  0  0  2  0  0  0  0  0  0
  190.9180  172.9250  139.8520 N   0  0  1  0  0  0  0  0  0  0  0  0
  188.6400  177.2060  146.0100 C   0  0  0  0  0  3  0  0  0  0  0  0
  188.8270  174.1400  139.2470 C   0  0  0  0  0  2  0  0  0  0  0  0
  190.7720  172.3790  137.4440 C   0  0  1  0  0  3  0  0  0  0  0  0
  193.6830  173.0110  145.4010 C   0  0  0  0  0  3  0  0  0  0  0  0
  192.4740  173.1980  144.5250 C   0  0  2  0  0  3  0  0  0  0  0  0
  191.6590  175.0210  146.0620 C   0  0  0  0  0  2  0  0  0  0  0  0
  189.6830  174.2770  141.5270 C   0  0  0  0  0  2  0  0  0  0  0  0
  188.2910  175.2500  143.7320 O   0  0  0  0  0  0  0  0  0  0  0  0
  191.3340  177.1630  148.4200 N   0  0  0  0  0  1  0  0  0  0  0  0
  190.5420  174.5280  143.8460 N   0  0  0  0  0  0  0  0  0  0  0  0
  190.6590  176.1190  146.2000 C   0  0  1  0  0  3  0  0  0  0  0  0
  190.5050  171.2910  136.5150 N   0  0  0  0  0  2  0  0  0  0  0  0
  191.3730  170.9740  135.4260 C   0  0  0  0  0  0  0  0  0  0  0  0
  192.4110  171.6560  135.2130 O   0  0  0  0  0  1  0  0  0  0  0  0
  191.0680  169.9080  134.5910 O   0  0  0  0  0  0  0  0  0  0  0  0
  1 20  1  0  0  0  0
  1 16  1  0  0  0  0
  2 24  1  6  0  0  0
  2 27  1  0  0  0  0
  3  4  1  0  0  0  0
  4 21  2  0  0  0  0
  5  6  1  0  0  0  0
  6 18  2  0  0  0  0
  6 28  1  0  0  0  0
  7 19  1  6  0  0  0
  7 24  1  0  0  0  0
  9 26  1  0  0  0  0
 11  3  1  0  0  0  0
 12  8  1  6  0  0  0
 12  2  1  0  0  0  0
 12 13  1  0  0  0  0
 13 11  1  1  0  0  0
 13 22  1  0  0  0  0
 14 23  1  1  0  0  0
 15  9  2  0  0  0  0
 16 19  1  0  0  0  0
 17 10  1  6  0  0  0
 17  7  1  0  0  0  0
 17  8  1  0  0  0  0
 18 15  1  0  0  0  0
 20 29  1  6  0  0  0
 20 10  1  0  0  0  0
 22 14  1  0  0  0  0
 22 21  1  1  0  0  0
 25  5  2  0  0  0  0
 27  5  1  0  0  0  0
 27 14  1  0  0  0  0
 28 23  1  1  0  0  0
 28  9  1  0  0  0  0
 30 29  1  0  0  0  0
 31 30  1  0  0  0  0
 32 30  2  0  0  0  0
M  END
>  <MODEL>
9

>  <REMARK>
 VINA RESULT:      -6.5      4.198      7.128
  Name = 
  1 active torsions:
  status: ('A' for Active; 'I' for Inactive)
    1  A    between atoms: C_20  and  N_29
                            x       y       z     vdW  Elec       q    Type
                         _______ _______ _______ _____ _____    ______ ____

>  <TORSDO>
F 1

$$$$
