=
 OpenBabel11112417553D

 34 40  0  0  1  0  0  0  0  0999 V2000
  189.2160  174.6850  141.8560 C   0  0  0  0  0  0  0  0  0  0  0  0
  186.9410  175.6290  142.4800 C   0  0  0  0  0  3  0  0  0  0  0  0
  195.1990  176.2330  143.9180 C   0  0  0  0  0  2  0  0  0  0  0  0
  191.5010  173.9070  141.6100 C   0  0  0  0  0  0  0  0  0  0  0  0
  192.9940  173.8730  143.6230 C   0  0  0  0  0  0  0  0  0  0  0  0
  194.7760  174.2190  145.3660 C   0  0  0  0  0  2  0  0  0  0  0  0
  195.8220  175.1970  144.8450 C   0  0  0  0  0  2  0  0  0  0  0  0
  195.2070  174.8390  141.7990 C   0  0  0  0  0  2  0  0  0  0  0  0
  188.5780  175.5880  144.0260 C   0  0  0  0  0  0  0  0  0  0  0  0
  188.4970  177.5020  146.3610 C   0  0  0  0  0  3  0  0  0  0  0  0
  192.0340  174.3930  144.3340 N   0  0  0  0  0  0  0  0  0  0  0  0
  193.7160  174.9680  141.5100 C   0  0  0  0  0  2  0  0  0  0  0  0
  189.8050  175.3540  144.5710 N   0  0  0  0  0  0  0  0  0  0  0  0
  186.4590  176.1710  143.6290 N   0  0  0  0  0  0  0  0  0  0  0  0
  192.9170  173.8110  142.1130 C   0  0  2  0  0  3  0  0  0  0  0  0
  195.7330  176.0910  142.4940 C   0  0  0  0  0  2  0  0  0  0  0  0
  187.3080  176.6630  145.9740 C   0  0  2  0  0  3  0  0  0  0  0  0
  190.4970  174.4660  142.4130 C   0  0  0  0  0  0  0  0  0  0  0  0
  194.2060  173.4680  144.2590 N   0  0  0  0  0  2  0  0  0  0  0  0
  190.7690  174.7790  143.7740 C   0  0  0  0  0  0  0  0  0  0  0  0
  189.9860  173.7550  139.7760 C   0  0  0  0  0  3  0  0  0  0  0  0
  189.7490  177.0240  146.3700 C   0  0  0  0  0  3  0  0  0  0  0  0
  191.2200  173.5710  140.3200 N   0  0  0  0  0  0  0  0  0  0  0  0
  190.0700  175.6050  145.9900 C   0  0  0  0  0  2  0  0  0  0  0  0
  187.4480  176.1630  144.5600 C   0  0  0  0  0  0  0  0  0  0  0  0
  188.9580  174.3230  140.5330 C   0  0  0  0  0  3  0  0  0  0  0  0
  188.2570  175.2590  142.6770 C   0  0  0  0  0  0  0  0  0  0  0  0
  186.0290  177.4690  146.1540 C   0  0  0  0  0  2  0  0  0  0  0  0
  186.3200  178.8910  146.0660 N   0  0  0  0  0  2  0  0  0  0  0  0
  185.2100  179.2300  143.1110 O   0  0  0  0  0  0  0  0  0  0  0  0
  184.1520  178.4830  145.0870 C   0  0  0  0  0  2  0  0  0  0  0  0
  185.1640  179.5280  145.4580 C   0  0  2  0  0  3  0  0  0  0  0  0
  184.0620  178.5770  143.5820 C   0  0  0  0  0  2  0  0  0  0  0  0
  185.5630  180.1270  144.1280 C   0  0  0  0  0  2  0  0  0  0  0  0
  1 18  1  0  0  0  0
  1 27  2  0  0  0  0
  2 27  1  0  0  0  0
  2 14  2  0  0  0  0
  3  7  1  0  0  0  0
  4 15  1  0  0  0  0
  4 18  1  0  0  0  0
  5 19  1  0  0  0  0
  5 11  2  0  0  0  0
  7  6  1  0  0  0  0
  8 16  1  0  0  0  0
  9 25  2  0  0  0  0
  9 13  1  0  0  0  0
 10 22  2  0  0  0  0
 12  8  1  0  0  0  0
 13 24  1  0  0  0  0
 14 25  1  0  0  0  0
 15 12  1  6  0  0  0
 15  5  1  0  0  0  0
 16  3  1  0  0  0  0
 17 28  1  6  0  0  0
 17 10  1  0  0  0  0
 18 20  2  0  0  0  0
 19  6  1  0  0  0  0
 20 11  1  0  0  0  0
 20 13  1  0  0  0  0
 21 23  1  0  0  0  0
 21 26  2  0  0  0  0
 23  4  2  0  0  0  0
 24 22  1  0  0  0  0
 25 17  1  0  0  0  0
 26  1  1  0  0  0  0
 27  9  1  0  0  0  0
 29 28  1  0  0  0  0
 30 33  1  0  0  0  0
 30 34  1  0  0  0  0
 31 32  1  0  0  0  0
 32 29  1  6  0  0  0
 33 31  1  0  0  0  0
 34 32  1  0  0  0  0
M  END
>  <MODEL>
1

>  <REMARK>
 VINA RESULT:      -7.8      0.000      0.000
  Name = 
  3 active torsions:
  status: ('A' for Active; 'I' for Inactive)
    1  A    between atoms: C_17  and  C_28
    2  A    between atoms: C_28  and  N_29
    3  A    between atoms: N_29  and  C_32
                            x       y       z     vdW  Elec       q    Type
                         _______ _______ _______ _____ _____    ______ ____

>  <TORSDO>
F 3

$$$$
=
 OpenBabel11112417553D

 34 40  0  0  1  0  0  0  0  0999 V2000
  190.6120  172.8730  142.0410 C   0  0  0  0  0  0  0  0  0  0  0  0
  188.1640  173.4840  141.7510 C   0  0  0  0  0  3  0  0  0  0  0  0
  195.9950  176.5340  141.7660 C   0  0  0  0  0  2  0  0  0  0  0  0
  193.0000  172.6600  142.4230 C   0  0  0  0  0  0  0  0  0  0  0  0
  194.2140  174.5210  143.5810 C   0  0  0  0  0  0  0  0  0  0  0  0
  195.6900  176.4420  144.2620 C   0  0  0  0  0  2  0  0  0  0  0  0
  196.6400  176.7890  143.1230 C   0  0  0  0  0  2  0  0  0  0  0  0
  196.4750  174.0470  141.6270 C   0  0  0  0  0  2  0  0  0  0  0  0
  189.5790  174.9980  142.6320 C   0  0  0  0  0  0  0  0  0  0  0  0
  188.9240  177.9430  142.4850 C   0  0  0  0  0  3  0  0  0  0  0  0
  193.1050  175.2040  143.6270 N   0  0  0  0  0  0  0  0  0  0  0  0
  195.0300  173.6110  141.4160 C   0  0  0  0  0  2  0  0  0  0  0  0
  190.7480  175.5270  143.0910 N   0  0  0  0  0  0  0  0  0  0  0  0
  187.4650  174.6200  142.0190 N   0  0  0  0  0  0  0  0  0  0  0  0
  194.3390  173.2700  142.7380 C   0  0  2  0  0  3  0  0  0  0  0  0
  196.7200  175.4210  141.0120 C   0  0  0  0  0  2  0  0  0  0  0  0
  187.9290  176.9260  142.9800 C   0  0  2  0  0  3  0  0  0  0  0  0
  191.8310  173.4310  142.4940 C   0  0  0  0  0  0  0  0  0  0  0  0
  195.3820  175.0210  144.2330 N   0  0  0  0  0  2  0  0  0  0  0  0
  191.8790  174.7440  143.0380 C   0  0  0  0  0  0  0  0  0  0  0  0
  191.7670  170.8290  141.5200 C   0  0  0  0  0  3  0  0  0  0  0  0
  190.2210  177.9100  142.8210 C   0  0  0  0  0  3  0  0  0  0  0  0
  192.9370  171.3870  141.9380 N   0  0  0  0  0  0  0  0  0  0  0  0
  190.7920  176.8490  143.7210 C   0  0  0  0  0  2  0  0  0  0  0  0
  188.3190  175.5410  142.5360 C   0  0  0  0  0  0  0  0  0  0  0  0
  190.5800  171.5640  141.5580 C   0  0  0  0  0  3  0  0  0  0  0  0
  189.4830  173.6750  142.1090 C   0  0  0  0  0  0  0  0  0  0  0  0
  186.5340  177.2930  142.4940 C   0  0  0  0  0  2  0  0  0  0  0  0
  185.5570  177.0280  143.5370 N   0  0  0  0  0  2  0  0  0  0  0  0
  184.0410  179.0220  145.4870 O   0  0  0  0  0  0  0  0  0  0  0  0
  185.4400  177.1750  145.9440 C   0  0  0  0  0  2  0  0  0  0  0  0
  185.9260  177.8370  144.6870 C   0  0  2  0  0  3  0  0  0  0  0  0
  184.4410  178.1550  146.5130 C   0  0  0  0  0  2  0  0  0  0  0  0
  185.1590  179.1390  144.6500 C   0  0  0  0  0  2  0  0  0  0  0  0
  1 27  2  0  0  0  0
  1 18  1  0  0  0  0
  2 14  2  0  0  0  0
  2 27  1  0  0  0  0
  3  7  1  0  0  0  0
  4 18  1  0  0  0  0
  4 15  1  0  0  0  0
  5 11  2  0  0  0  0
  5 19  1  0  0  0  0
  7  6  1  0  0  0  0
  9 13  1  0  0  0  0
 10 22  2  0  0  0  0
 10 17  1  0  0  0  0
 12  8  1  0  0  0  0
 13 24  1  0  0  0  0
 14 25  1  0  0  0  0
 15 12  1  6  0  0  0
 15  5  1  0  0  0  0
 16  8  1  0  0  0  0
 16  3  1  0  0  0  0
 17 28  1  6  0  0  0
 18 20  2  0  0  0  0
 19  6  1  0  0  0  0
 20 13  1  0  0  0  0
 20 11  1  0  0  0  0
 21 26  2  0  0  0  0
 21 23  1  0  0  0  0
 22 24  1  0  0  0  0
 23  4  2  0  0  0  0
 25  9  2  0  0  0  0
 25 17  1  0  0  0  0
 26  1  1  0  0  0  0
 27  9  1  0  0  0  0
 28 29  1  0  0  0  0
 30 33  1  0  0  0  0
 31 33  1  0  0  0  0
 32 29  1  6  0  0  0
 32 31  1  0  0  0  0
 34 32  1  0  0  0  0
 34 30  1  0  0  0  0
M  END
>  <MODEL>
2

>  <REMARK>
 VINA RESULT:      -7.7      1.803      2.505
  Name = 
  3 active torsions:
  status: ('A' for Active; 'I' for Inactive)
    1  A    between atoms: C_17  and  C_28
    2  A    between atoms: C_28  and  N_29
    3  A    between atoms: N_29  and  C_32
                            x       y       z     vdW  Elec       q    Type
                         _______ _______ _______ _____ _____    ______ ____

>  <TORSDO>
F 3

$$$$
=
 OpenBabel11112417553D

 34 40  0  0  1  0  0  0  0  0999 V2000
  194.3940  175.5630  144.1460 C   0  0  0  0  0  0  0  0  0  0  0  0
  192.7030  177.4380  144.4210 C   0  0  0  0  0  3  0  0  0  0  0  0
  194.5670  169.5570  146.6660 C   0  0  0  0  0  2  0  0  0  0  0  0
  195.7150  173.5340  143.9690 C   0  0  0  0  0  0  0  0  0  0  0  0
  194.5400  171.3200  143.9440 C   0  0  0  0  0  0  0  0  0  0  0  0
  193.6230  169.0200  144.3960 C   0  0  0  0  0  2  0  0  0  0  0  0
  194.2560  168.4540  145.6620 C   0  0  0  0  0  2  0  0  0  0  0  0
  196.7890  170.2890  145.6860 C   0  0  0  0  0  2  0  0  0  0  0  0
  191.9990  175.3010  144.5010 C   0  0  0  0  0  0  0  0  0  0  0  0
  189.4270  174.6100  145.9270 C   0  0  0  0  0  3  0  0  0  0  0  0
  193.4000  171.9320  144.1020 N   0  0  0  0  0  0  0  0  0  0  0  0
  196.4190  171.7570  145.5140 C   0  0  0  0  0  2  0  0  0  0  0  0
  192.0640  173.9390  144.4690 N   0  0  0  0  0  0  0  0  0  0  0  0
  191.3600  177.4360  144.6380 N   0  0  0  0  0  0  0  0  0  0  0  0
  195.8580  172.0430  144.1190 C   0  0  2  0  0  3  0  0  0  0  0  0
  196.0720  169.6880  146.8910 C   0  0  0  0  0  2  0  0  0  0  0  0
  189.5060  175.7210  144.9130 C   0  0  2  0  0  3  0  0  0  0  0  0
  194.4660  174.1500  144.1380 C   0  0  0  0  0  0  0  0  0  0  0  0
  194.5620  169.9090  143.7300 N   0  0  0  0  0  2  0  0  0  0  0  0
  193.2950  173.3550  144.2740 C   0  0  0  0  0  0  0  0  0  0  0  0
  196.7680  175.6640  143.7800 C   0  0  0  0  0  3  0  0  0  0  0  0
  190.0370  173.4290  145.7560 C   0  0  0  0  0  3  0  0  0  0  0  0
  196.8260  174.3040  143.7970 N   0  0  0  0  0  0  0  0  0  0  0  0
  190.8550  173.1160  144.5340 C   0  0  0  0  0  2  0  0  0  0  0  0
  190.9340  176.1480  144.7020 C   0  0  0  0  0  0  0  0  0  0  0  0
  195.5500  176.3230  143.9600 C   0  0  0  0  0  3  0  0  0  0  0  0
  193.1440  176.1330  144.3370 C   0  0  0  0  0  0  0  0  0  0  0  0
  188.6370  176.8870  145.3600 C   0  0  0  0  0  2  0  0  0  0  0  0
  187.5190  176.4010  146.1530 N   0  0  0  0  0  2  0  0  0  0  0  0
  185.0880  178.2980  146.9060 O   0  0  0  0  0  0  0  0  0  0  0  0
  186.4780  178.2450  144.9960 C   0  0  0  0  0  2  0  0  0  0  0  0
  186.3010  176.8390  145.4920 C   0  0  2  0  0  3  0  0  0  0  0  0
  185.4560  179.0400  145.7750 C   0  0  0  0  0  2  0  0  0  0  0  0
  185.1920  176.9570  146.5130 C   0  0  0  0  0  2  0  0  0  0  0  0
  1 27  2  0  0  0  0
  2 14  2  0  0  0  0
  3 16  1  0  0  0  0
  4 15  1  0  0  0  0
  4 18  1  0  0  0  0
  5 11  2  0  0  0  0
  5 15  1  0  0  0  0
  6  7  1  0  0  0  0
  7  3  1  0  0  0  0
  8 16  1  0  0  0  0
  9 25  2  0  0  0  0
 11 20  1  0  0  0  0
 12  8  1  0  0  0  0
 13  9  1  0  0  0  0
 13 24  1  0  0  0  0
 14 25  1  0  0  0  0
 15 12  1  1  0  0  0
 17 28  1  1  0  0  0
 17 10  1  0  0  0  0
 18  1  1  0  0  0  0
 18 20  2  0  0  0  0
 19  5  1  0  0  0  0
 19  6  1  0  0  0  0
 20 13  1  0  0  0  0
 21 23  1  0  0  0  0
 21 26  2  0  0  0  0
 22 10  2  0  0  0  0
 23  4  2  0  0  0  0
 24 22  1  0  0  0  0
 25 17  1  0  0  0  0
 26  1  1  0  0  0  0
 27  2  1  0  0  0  0
 27  9  1  0  0  0  0
 28 29  1  0  0  0  0
 31 32  1  0  0  0  0
 31 33  1  0  0  0  0
 32 29  1  1  0  0  0
 32 34  1  0  0  0  0
 33 30  1  0  0  0  0
 34 30  1  0  0  0  0
M  END
>  <MODEL>
3

>  <REMARK>
 VINA RESULT:      -7.7      2.702      4.830
  Name = 
  3 active torsions:
  status: ('A' for Active; 'I' for Inactive)
    1  A    between atoms: C_17  and  C_28
    2  A    between atoms: C_28  and  N_29
    3  A    between atoms: N_29  and  C_32
                            x       y       z     vdW  Elec       q    Type
                         _______ _______ _______ _____ _____    ______ ____

>  <TORSDO>
F 3

$$$$
=
 OpenBabel11112417553D

 34 40  0  0  1  0  0  0  0  0999 V2000
  191.5620  175.5990  145.1740 C   0  0  0  0  0  0  0  0  0  0  0  0
  189.9890  177.3490  146.1310 C   0  0  0  0  0  3  0  0  0  0  0  0
  190.4410  170.5600  141.1990 C   0  0  0  0  0  2  0  0  0  0  0  0
  192.8050  173.8970  143.9710 C   0  0  0  0  0  0  0  0  0  0  0  0
  192.1080  173.3060  141.6370 C   0  0  0  0  0  0  0  0  0  0  0  0
  191.2920  172.2260  139.5160 C   0  0  0  0  0  2  0  0  0  0  0  0
  190.9580  170.7620  139.7800 C   0  0  0  0  0  2  0  0  0  0  0  0
  192.6910  170.4270  142.3630 C   0  0  0  0  0  2  0  0  0  0  0  0
  189.5660  176.4850  144.0950 C   0  0  0  0  0  0  0  0  0  0  0  0
  186.7570  176.5370  142.9860 C   0  0  0  0  0  3  0  0  0  0  0  0
  191.1140  174.1430  141.7310 N   0  0  0  0  0  0  0  0  0  0  0  0
  192.4260  171.5450  143.3630 C   0  0  0  0  0  2  0  0  0  0  0  0
  189.7340  175.7190  142.9800 N   0  0  0  0  0  0  0  0  0  0  0  0
  188.8490  177.9150  145.6540 N   0  0  0  0  0  0  0  0  0  0  0  0
  192.9180  172.8990  142.8490 C   0  0  2  0  0  3  0  0  0  0  0  0
  191.3990  169.6940  142.0160 C   0  0  0  0  0  2  0  0  0  0  0  0
  187.4120  177.7650  143.5630 C   0  0  2  0  0  3  0  0  0  0  0  0
  191.7220  174.7840  144.0280 C   0  0  0  0  0  0  0  0  0  0  0  0
  192.3690  172.6530  140.3950 N   0  0  0  0  0  2  0  0  0  0  0  0
  190.8190  174.8740  142.9330 C   0  0  0  0  0  0  0  0  0  0  0  0
  193.5610  174.6410  146.1060 C   0  0  0  0  0  3  0  0  0  0  0  0
  187.4080  175.6730  142.1950 C   0  0  0  0  0  3  0  0  0  0  0  0
  193.6890  173.8480  145.0070 N   0  0  0  0  0  0  0  0  0  0  0  0
  188.8520  175.8590  141.8190 C   0  0  0  0  0  2  0  0  0  0  0  0
  188.5820  177.3850  144.4310 C   0  0  0  0  0  0  0  0  0  0  0  0
  192.4890  175.5310  146.2150 C   0  0  0  0  0  3  0  0  0  0  0  0
  190.4660  176.4490  145.1990 C   0  0  0  0  0  0  0  0  0  0  0  0
  186.3850  178.5790  144.3380 C   0  0  0  0  0  2  0  0  0  0  0  0
  185.1360  177.8410  144.4360 N   0  0  0  0  0  2  0  0  0  0  0  0
  185.9820  176.9310  147.3570 O   0  0  0  0  0  0  0  0  0  0  0  0
  185.4630  179.0670  146.4890 C   0  0  0  0  0  2  0  0  0  0  0  0
  184.6190  178.0490  145.7780 C   0  0  2  0  0  3  0  0  0  0  0  0
  186.0670  178.3010  147.6430 C   0  0  0  0  0  2  0  0  0  0  0  0
  184.8160  176.7900  146.5910 C   0  0  0  0  0  2  0  0  0  0  0  0
  1 27  2  0  0  0  0
  1 26  1  0  0  0  0
  3 16  1  0  0  0  0
  4 18  1  0  0  0  0
  4 23  2  0  0  0  0
  5 11  2  0  0  0  0
  5 15  1  0  0  0  0
  6  7  1  0  0  0  0
  6 19  1  0  0  0  0
  7  3  1  0  0  0  0
  8 12  1  0  0  0  0
  9 25  2  0  0  0  0
  9 27  1  0  0  0  0
 10 17  1  0  0  0  0
 11 20  1  0  0  0  0
 13  9  1  0  0  0  0
 14  2  2  0  0  0  0
 15 12  1  1  0  0  0
 15  4  1  0  0  0  0
 16  8  1  0  0  0  0
 17 28  1  1  0  0  0
 17 25  1  0  0  0  0
 18  1  1  0  0  0  0
 19  5  1  0  0  0  0
 20 13  1  0  0  0  0
 20 18  2  0  0  0  0
 21 26  2  0  0  0  0
 22 10  2  0  0  0  0
 23 21  1  0  0  0  0
 24 22  1  0  0  0  0
 24 13  1  0  0  0  0
 25 14  1  0  0  0  0
 27  2  1  0  0  0  0
 28 29  1  0  0  0  0
 30 33  1  0  0  0  0
 31 33  1  0  0  0  0
 32 29  1  6  0  0  0
 32 31  1  0  0  0  0
 32 34  1  0  0  0  0
 34 30  1  0  0  0  0
M  END
>  <MODEL>
4

>  <REMARK>
 VINA RESULT:      -7.6      2.061      4.466
  Name = 
  3 active torsions:
  status: ('A' for Active; 'I' for Inactive)
    1  A    between atoms: C_17  and  C_28
    2  A    between atoms: C_28  and  N_29
    3  A    between atoms: N_29  and  C_32
                            x       y       z     vdW  Elec       q    Type
                         _______ _______ _______ _____ _____    ______ ____

>  <TORSDO>
F 3

$$$$
=
 OpenBabel11112417553D

 34 40  0  0  1  0  0  0  0  0999 V2000
  193.8090  175.3830  145.3740 C   0  0  0  0  0  0  0  0  0  0  0  0
  192.3060  176.3630  147.1710 C   0  0  0  0  0  3  0  0  0  0  0  0
  192.4160  171.7620  140.1390 C   0  0  0  0  0  2  0  0  0  0  0  0
  194.9300  174.4560  143.4310 C   0  0  0  0  0  0  0  0  0  0  0  0
  193.7610  174.5100  141.2150 C   0  0  0  0  0  0  0  0  0  0  0  0
  192.5950  174.0180  139.0400 C   0  0  0  0  0  2  0  0  0  0  0  0
  192.5340  172.5120  138.8180 C   0  0  0  0  0  2  0  0  0  0  0  0
  194.8820  171.7400  140.7370 C   0  0  0  0  0  2  0  0  0  0  0  0
  191.5090  176.1280  145.0780 C   0  0  0  0  0  0  0  0  0  0  0  0
  188.5310  175.9390  144.6060 C   0  0  0  0  0  3  0  0  0  0  0  0
  192.7190  175.0440  141.7870 N   0  0  0  0  0  0  0  0  0  0  0  0
  194.7270  172.3980  142.1020 C   0  0  0  0  0  2  0  0  0  0  0  0
  191.4960  175.8110  143.7520 N   0  0  0  0  0  0  0  0  0  0  0  0
  191.0170  176.7990  147.1500 N   0  0  0  0  0  0  0  0  0  0  0  0
  194.8930  173.9170  142.0260 C   0  0  2  0  0  3  0  0  0  0  0  0
  193.6530  170.9030  140.3970 C   0  0  0  0  0  2  0  0  0  0  0  0
  189.1400  177.0270  145.4530 C   0  0  2  0  0  3  0  0  0  0  0  0
  193.7870  175.0310  144.0040 C   0  0  0  0  0  0  0  0  0  0  0  0
  193.7900  174.3590  139.7960 N   0  0  0  0  0  2  0  0  0  0  0  0
  192.6370  175.2740  143.2030 C   0  0  0  0  0  0  0  0  0  0  0  0
  196.0850  174.6200  145.5100 C   0  0  0  0  0  3  0  0  0  0  0  0
  189.0750  175.5310  143.4520 C   0  0  0  0  0  3  0  0  0  0  0  0
  196.0420  174.2660  144.1960 N   0  0  0  0  0  0  0  0  0  0  0  0
  190.3430  176.1260  142.9050 C   0  0  0  0  0  2  0  0  0  0  0  0
  190.5290  176.6440  145.8920 C   0  0  0  0  0  0  0  0  0  0  0  0
  194.9660  175.1820  146.1280 C   0  0  0  0  0  3  0  0  0  0  0  0
  192.6520  175.9300  145.9070 C   0  0  0  0  0  0  0  0  0  0  0  0
  188.2390  177.3150  146.6450 C   0  0  0  0  0  2  0  0  0  0  0  0
  187.0610  176.4640  146.5970 N   0  0  0  0  0  2  0  0  0  0  0  0
  185.5970  179.2730  146.3950 O   0  0  0  0  0  0  0  0  0  0  0  0
  184.7290  177.0830  146.5570 C   0  0  0  0  0  2  0  0  0  0  0  0
  186.0110  177.1430  147.3370 C   0  0  2  0  0  3  0  0  0  0  0  0
  184.4190  178.5290  146.2490 C   0  0  0  0  0  2  0  0  0  0  0  0
  186.3190  178.6210  147.4040 C   0  0  0  0  0  2  0  0  0  0  0  0
  1 27  2  0  0  0  0
  1 26  1  0  0  0  0
  3 16  1  0  0  0  0
  4 18  1  0  0  0  0
  4 23  2  0  0  0  0
  5 11  2  0  0  0  0
  5 15  1  0  0  0  0
  6 19  1  0  0  0  0
  7  6  1  0  0  0  0
  7  3  1  0  0  0  0
  8 12  1  0  0  0  0
  9 25  2  0  0  0  0
  9 27  1  0  0  0  0
 10 17  1  0  0  0  0
 11 20  1  0  0  0  0
 13  9  1  0  0  0  0
 14  2  2  0  0  0  0
 15 12  1  1  0  0  0
 15  4  1  0  0  0  0
 16  8  1  0  0  0  0
 17 25  1  0  0  0  0
 17 28  1  1  0  0  0
 18  1  1  0  0  0  0
 19  5  1  0  0  0  0
 20 13  1  0  0  0  0
 20 18  2  0  0  0  0
 21 26  2  0  0  0  0
 22 10  2  0  0  0  0
 23 21  1  0  0  0  0
 24 22  1  0  0  0  0
 24 13  1  0  0  0  0
 25 14  1  0  0  0  0
 27  2  1  0  0  0  0
 29 28  1  0  0  0  0
 30 34  1  0  0  0  0
 31 32  1  0  0  0  0
 32 29  1  6  0  0  0
 32 34  1  0  0  0  0
 33 30  1  0  0  0  0
 33 31  1  0  0  0  0
M  END
>  <MODEL>
5

>  <REMARK>
 VINA RESULT:      -7.6      2.058      4.564
  Name = 
  3 active torsions:
  status: ('A' for Active; 'I' for Inactive)
    1  A    between atoms: C_17  and  C_28
    2  A    between atoms: C_28  and  N_29
    3  A    between atoms: N_29  and  C_32
                            x       y       z     vdW  Elec       q    Type
                         _______ _______ _______ _____ _____    ______ ____

>  <TORSDO>
F 3

$$$$
=
 OpenBabel11112417553D

 34 40  0  0  1  0  0  0  0  0999 V2000
  190.5550  173.7670  141.2420 C   0  0  0  0  0  0  0  0  0  0  0  0
  188.2500  174.6750  141.8010 C   0  0  0  0  0  3  0  0  0  0  0  0
  196.4510  176.5030  141.6810 C   0  0  0  0  0  2  0  0  0  0  0  0
  192.8880  173.1560  140.9680 C   0  0  0  0  0  0  0  0  0  0  0  0
  194.5710  174.0290  142.6070 C   0  0  0  0  0  0  0  0  0  0  0  0
  196.4590  175.1730  143.8160 C   0  0  0  0  0  2  0  0  0  0  0  0
  197.3020  175.9620  142.8220 C   0  0  0  0  0  2  0  0  0  0  0  0
  196.4310  174.4080  140.2500 C   0  0  0  0  0  2  0  0  0  0  0  0
  190.0270  175.3750  142.9930 C   0  0  0  0  0  0  0  0  0  0  0  0
  189.9270  178.0260  144.4390 C   0  0  0  0  0  3  0  0  0  0  0  0
  193.6270  174.6970  143.2080 N   0  0  0  0  0  0  0  0  0  0  0  0
  194.9150  174.2850  140.1580 C   0  0  0  0  0  2  0  0  0  0  0  0
  191.3240  175.4770  143.3990 N   0  0  0  0  0  0  0  0  0  0  0  0
  187.8180  175.5740  142.7250 N   0  0  0  0  0  0  0  0  0  0  0  0
  194.3470  173.3840  141.2560 C   0  0  2  0  0  3  0  0  0  0  0  0
  196.8500  175.8710  140.3480 C   0  0  0  0  0  2  0  0  0  0  0  0
  188.8300  177.0020  144.5690 C   0  0  2  0  0  3  0  0  0  0  0  0
  191.9050  173.8910  141.6460 C   0  0  0  0  0  0  0  0  0  0  0  0
  195.8860  174.0070  143.1620 N   0  0  0  0  0  2  0  0  0  0  0  0
  192.2700  174.7260  142.7380 C   0  0  0  0  0  0  0  0  0  0  0  0
  191.2260  172.1790  139.5650 C   0  0  0  0  0  3  0  0  0  0  0  0
  191.2260  177.6990  144.4390 C   0  0  0  0  0  3  0  0  0  0  0  0
  192.5240  172.3260  139.9500 N   0  0  0  0  0  0  0  0  0  0  0  0
  191.6970  176.2760  144.5680 C   0  0  0  0  0  2  0  0  0  0  0  0
  188.8900  176.0100  143.4370 C   0  0  0  0  0  0  0  0  0  0  0  0
  190.2130  172.9020  140.2010 C   0  0  0  0  0  3  0  0  0  0  0  0
  189.6160  174.5260  141.9250 C   0  0  0  0  0  0  0  0  0  0  0  0
  187.4780  177.7000  144.6240 C   0  0  0  0  0  2  0  0  0  0  0  0
  186.7600  177.3020  145.8240 N   0  0  0  0  0  2  0  0  0  0  0  0
  184.1370  179.0850  145.9560 O   0  0  0  0  0  0  0  0  0  0  0  0
  185.0920  177.8650  144.1720 C   0  0  0  0  0  2  0  0  0  0  0  0
  185.3660  177.1270  145.4510 C   0  0  2  0  0  3  0  0  0  0  0  0
  184.0820  178.9170  144.5660 C   0  0  0  0  0  2  0  0  0  0  0  0
  184.4850  177.8250  146.4620 C   0  0  0  0  0  2  0  0  0  0  0  0
  1 18  1  0  0  0  0
  1 27  2  0  0  0  0
  2 27  1  0  0  0  0
  2 14  2  0  0  0  0
  3  7  1  0  0  0  0
  4 15  1  0  0  0  0
  4 18  1  0  0  0  0
  5 19  1  0  0  0  0
  5 11  2  0  0  0  0
  7  6  1  0  0  0  0
  8 16  1  0  0  0  0
  9 13  1  0  0  0  0
  9 25  2  0  0  0  0
 10 22  2  0  0  0  0
 10 17  1  0  0  0  0
 12  8  1  0  0  0  0
 13 24  1  0  0  0  0
 14 25  1  0  0  0  0
 15 12  1  6  0  0  0
 15  5  1  0  0  0  0
 16  3  1  0  0  0  0
 17 28  1  6  0  0  0
 18 20  2  0  0  0  0
 19  6  1  0  0  0  0
 20 11  1  0  0  0  0
 20 13  1  0  0  0  0
 21 23  1  0  0  0  0
 21 26  2  0  0  0  0
 22 24  1  0  0  0  0
 23  4  2  0  0  0  0
 25 17  1  0  0  0  0
 26  1  1  0  0  0  0
 27  9  1  0  0  0  0
 28 29  1  0  0  0  0
 30 34  1  0  0  0  0
 31 33  1  0  0  0  0
 31 32  1  0  0  0  0
 32 29  1  1  0  0  0
 32 34  1  0  0  0  0
 33 30  1  0  0  0  0
M  END
>  <MODEL>
6

>  <REMARK>
 VINA RESULT:      -7.6      1.623      2.101
  Name = 
  3 active torsions:
  status: ('A' for Active; 'I' for Inactive)
    1  A    between atoms: C_17  and  C_28
    2  A    between atoms: C_28  and  N_29
    3  A    between atoms: N_29  and  C_32
                            x       y       z     vdW  Elec       q    Type
                         _______ _______ _______ _____ _____    ______ ____

>  <TORSDO>
F 3

$$$$
=
 OpenBabel11112417553D

 34 40  0  0  1  0  0  0  0  0999 V2000
  185.8480  178.2090  145.6590 C   0  0  0  0  0  0  0  0  0  0  0  0
  183.6730  178.7270  144.4540 C   0  0  0  0  0  3  0  0  0  0  0  0
  190.9460  174.5530  143.8970 C   0  0  0  0  0  2  0  0  0  0  0  0
  188.0730  177.6540  146.4550 C   0  0  0  0  0  0  0  0  0  0  0  0
  189.9510  177.5040  144.8020 C   0  0  0  0  0  0  0  0  0  0  0  0
  191.8410  176.8240  143.2860 C   0  0  0  0  0  2  0  0  0  0  0  0
  192.1830  175.3570  143.5170 C   0  0  0  0  0  2  0  0  0  0  0  0
  190.9280  175.1090  146.3720 C   0  0  0  0  0  2  0  0  0  0  0  0
  185.5430  178.3830  143.2490 C   0  0  0  0  0  0  0  0  0  0  0  0
  185.3420  177.4940  140.3690 C   0  0  0  0  0  3  0  0  0  0  0  0
  189.1100  177.7480  143.8370 N   0  0  0  0  0  0  0  0  0  0  0  0
  189.5080  175.6590  146.4080 C   0  0  0  0  0  2  0  0  0  0  0  0
  186.8550  178.1220  142.9860 N   0  0  0  0  0  0  0  0  0  0  0  0
  183.3600  178.8380  143.1350 N   0  0  0  0  0  0  0  0  0  0  0  0
  189.4770  177.1740  146.2010 C   0  0  2  0  0  3  0  0  0  0  0  0
  191.0570  174.0110  145.3210 C   0  0  0  0  0  2  0  0  0  0  0  0
  184.5580  178.6650  140.9010 C   0  0  2  0  0  3  0  0  0  0  0  0
  187.2040  177.9120  145.3850 C   0  0  0  0  0  0  0  0  0  0  0  0
  191.3470  177.4170  144.5190 N   0  0  0  0  0  2  0  0  0  0  0  0
  187.6970  177.8980  144.0510 C   0  0  0  0  0  0  0  0  0  0  0  0
  186.3050  178.0170  148.0120 C   0  0  0  0  0  3  0  0  0  0  0  0
  186.6230  177.2730  140.6930 C   0  0  0  0  0  3  0  0  0  0  0  0
  187.6010  177.7110  147.7320 N   0  0  0  0  0  0  0  0  0  0  0  0
  187.3850  178.1780  141.6210 C   0  0  0  0  0  2  0  0  0  0  0  0
  184.4830  178.6150  142.4040 C   0  0  0  0  0  0  0  0  0  0  0  0
  185.3980  178.2670  146.9790 C   0  0  0  0  0  3  0  0  0  0  0  0
  185.0180  178.4380  144.5720 C   0  0  0  0  0  0  0  0  0  0  0  0
  183.1710  178.6820  140.2750 C   0  0  0  0  0  2  0  0  0  0  0  0
  182.2500  177.8980  141.0830 N   0  0  0  0  0  2  0  0  0  0  0  0
  179.5250  178.8650  142.3940 O   0  0  0  0  0  0  0  0  0  0  0  0
  180.7090  179.6660  140.5130 C   0  0  0  0  0  2  0  0  0  0  0  0
  180.9080  178.1810  140.6000 C   0  0  2  0  0  3  0  0  0  0  0  0
  179.6060  179.9470  141.5070 C   0  0  0  0  0  2  0  0  0  0  0  0
  179.9000  177.7450  141.6390 C   0  0  0  0  0  2  0  0  0  0  0  0
  1 26  1  0  0  0  0
  2 27  1  0  0  0  0
  3 16  1  0  0  0  0
  4 23  2  0  0  0  0
  5 15  1  0  0  0  0
  6  7  1  0  0  0  0
  6 19  1  0  0  0  0
  7  3  1  0  0  0  0
  8 12  1  0  0  0  0
  9 27  1  0  0  0  0
 10 22  2  0  0  0  0
 10 17  1  0  0  0  0
 11 20  1  0  0  0  0
 11  5  2  0  0  0  0
 13  9  1  0  0  0  0
 13 20  1  0  0  0  0
 14  2  2  0  0  0  0
 15 12  1  6  0  0  0
 15  4  1  0  0  0  0
 16  8  1  0  0  0  0
 17 28  1  6  0  0  0
 17 25  1  0  0  0  0
 18  1  1  0  0  0  0
 18  4  1  0  0  0  0
 19  5  1  0  0  0  0
 20 18  2  0  0  0  0
 22 24  1  0  0  0  0
 23 21  1  0  0  0  0
 24 13  1  0  0  0  0
 25 14  1  0  0  0  0
 25  9  2  0  0  0  0
 26 21  2  0  0  0  0
 27  1  2  0  0  0  0
 28 29  1  0  0  0  0
 31 32  1  0  0  0  0
 31 33  1  0  0  0  0
 32 29  1  1  0  0  0
 32 34  1  0  0  0  0
 33 30  1  0  0  0  0
 34 30  1  0  0  0  0
M  END
>  <MODEL>
7

>  <REMARK>
 VINA RESULT:      -7.5      2.851      5.986
  Name = 
  3 active torsions:
  status: ('A' for Active; 'I' for Inactive)
    1  A    between atoms: C_17  and  C_28
    2  A    between atoms: C_28  and  N_29
    3  A    between atoms: N_29  and  C_32
                            x       y       z     vdW  Elec       q    Type
                         _______ _______ _______ _____ _____    ______ ____

>  <TORSDO>
F 3

$$$$
=
 OpenBabel11112417553D

 34 40  0  0  1  0  0  0  0  0999 V2000
  192.2530  176.1650  145.0540 C   0  0  0  0  0  0  0  0  0  0  0  0
  190.2270  177.6920  144.9310 C   0  0  0  0  0  3  0  0  0  0  0  0
  192.8950  169.8030  143.8020 C   0  0  0  0  0  2  0  0  0  0  0  0
  194.0030  174.4890  144.9090 C   0  0  0  0  0  0  0  0  0  0  0  0
  193.9090  172.7940  143.0650 C   0  0  0  0  0  0  0  0  0  0  0  0
  193.7480  170.7360  141.6260 C   0  0  0  0  0  2  0  0  0  0  0  0
  193.6410  169.4980  142.5090 C   0  0  0  0  0  2  0  0  0  0  0  0
  194.8500  170.7630  145.1020 C   0  0  0  0  0  2  0  0  0  0  0  0
  190.3870  175.9590  143.5020 C   0  0  0  0  0  0  0  0  0  0  0  0
  187.8970  174.8100  142.2350 C   0  0  0  0  0  3  0  0  0  0  0  0
  192.7800  173.3050  142.6630 N   0  0  0  0  0  0  0  0  0  0  0  0
  194.1890  172.0950  145.4350 C   0  0  0  0  0  2  0  0  0  0  0  0
  190.9130  174.8570  142.8950 N   0  0  0  0  0  0  0  0  0  0  0  0
  189.1220  177.6850  144.1380 N   0  0  0  0  0  0  0  0  0  0  0  0
  194.5190  173.1710  144.3980 C   0  0  2  0  0  3  0  0  0  0  0  0
  193.8100  169.6500  145.0150 C   0  0  0  0  0  2  0  0  0  0  0  0
  188.1870  176.2880  142.2330 C   0  0  2  0  0  3  0  0  0  0  0  0
  192.7860  175.0060  144.4420 C   0  0  0  0  0  0  0  0  0  0  0  0
  194.5290  171.7590  142.3020 N   0  0  0  0  0  2  0  0  0  0  0  0
  192.1210  174.3810  143.3510 C   0  0  0  0  0  0  0  0  0  0  0  0
  194.1640  176.2470  146.5110 C   0  0  0  0  0  3  0  0  0  0  0  0
  188.8410  173.8870  142.0040 C   0  0  0  0  0  3  0  0  0  0  0  0
  194.6540  175.1190  145.9270 N   0  0  0  0  0  0  0  0  0  0  0  0
  190.2720  174.2530  141.7250 C   0  0  0  0  0  2  0  0  0  0  0  0
  189.2080  176.6320  143.2850 C   0  0  0  0  0  0  0  0  0  0  0  0
  192.9480  176.7910  146.0900 C   0  0  0  0  0  3  0  0  0  0  0  0
  191.0380  176.6330  144.5760 C   0  0  0  0  0  0  0  0  0  0  0  0
  186.8940  177.0650  142.4370 C   0  0  0  0  0  2  0  0  0  0  0  0
  186.0770  176.4160  143.4490 N   0  0  0  0  0  2  0  0  0  0  0  0
  186.0470  178.4000  145.9270 O   0  0  0  0  0  0  0  0  0  0  0  0
  185.6690  178.7880  143.6270 C   0  0  0  0  0  2  0  0  0  0  0  0
  185.1590  177.4170  143.9660 C   0  0  2  0  0  3  0  0  0  0  0  0
  185.9410  179.4210  144.9720 C   0  0  0  0  0  2  0  0  0  0  0  0
  185.1860  177.3890  145.4770 C   0  0  0  0  0  2  0  0  0  0  0  0
  1 26  1  0  0  0  0
  3 16  1  0  0  0  0
  4 23  2  0  0  0  0
  5 15  1  0  0  0  0
  6 19  1  0  0  0  0
  6  7  1  0  0  0  0
  7  3  1  0  0  0  0
  8 12  1  0  0  0  0
  9 27  1  0  0  0  0
 11  5  2  0  0  0  0
 11 20  1  0  0  0  0
 13 20  1  0  0  0  0
 13  9  1  0  0  0  0
 14  2  2  0  0  0  0
 15  4  1  0  0  0  0
 15 12  1  1  0  0  0
 16  8  1  0  0  0  0
 17 10  1  0  0  0  0
 17 28  1  1  0  0  0
 17 25  1  0  0  0  0
 18  4  1  0  0  0  0
 18  1  1  0  0  0  0
 19  5  1  0  0  0  0
 20 18  2  0  0  0  0
 22 10  2  0  0  0  0
 23 21  1  0  0  0  0
 24 22  1  0  0  0  0
 24 13  1  0  0  0  0
 25  9  2  0  0  0  0
 25 14  1  0  0  0  0
 26 21  2  0  0  0  0
 27  2  1  0  0  0  0
 27  1  2  0  0  0  0
 28 29  1  0  0  0  0
 31 32  1  0  0  0  0
 31 33  1  0  0  0  0
 32 29  1  6  0  0  0
 32 34  1  0  0  0  0
 33 30  1  0  0  0  0
 34 30  1  0  0  0  0
M  END
>  <MODEL>
8

>  <REMARK>
 VINA RESULT:      -7.5      2.248      4.439
  Name = 
  3 active torsions:
  status: ('A' for Active; 'I' for Inactive)
    1  A    between atoms: C_17  and  C_28
    2  A    between atoms: C_28  and  N_29
    3  A    between atoms: N_29  and  C_32
                            x       y       z     vdW  Elec       q    Type
                         _______ _______ _______ _____ _____    ______ ____

>  <TORSDO>
F 3

$$$$
=
 OpenBabel11112417553D

 34 40  0  0  1  0  0  0  0  0999 V2000
  189.9360  176.3050  146.3810 C   0  0  0  0  0  0  0  0  0  0  0  0
  187.5210  177.0640  146.5860 C   0  0  0  0  0  3  0  0  0  0  0  0
  193.2640  173.9650  141.2920 C   0  0  0  0  0  2  0  0  0  0  0  0
  192.2060  175.6670  145.8080 C   0  0  0  0  0  0  0  0  0  0  0  0
  193.1070  176.2850  143.5520 C   0  0  0  0  0  0  0  0  0  0  0  0
  194.0250  176.3620  141.2100 C   0  0  0  0  0  2  0  0  0  0  0  0
  194.2750  174.9440  140.7090 C   0  0  0  0  0  2  0  0  0  0  0  0
  194.4250  173.5610  143.5110 C   0  0  0  0  0  2  0  0  0  0  0  0
  188.5960  177.3350  144.6270 C   0  0  0  0  0  0  0  0  0  0  0  0
  187.0230  177.5630  142.0580 C   0  0  0  0  0  3  0  0  0  0  0  0
  191.9530  176.8030  143.2420 N   0  0  0  0  0  0  0  0  0  0  0  0
  193.2420  173.9470  144.3900 C   0  0  0  0  0  2  0  0  0  0  0  0
  189.6120  177.2910  143.7180 N   0  0  0  0  0  0  0  0  0  0  0  0
  186.6600  177.6310  145.6990 N   0  0  0  0  0  0  0  0  0  0  0  0
  193.2840  175.4250  144.7850 C   0  0  2  0  0  3  0  0  0  0  0  0
  193.9470  172.9440  142.2010 C   0  0  0  0  0  2  0  0  0  0  0  0
  186.6940  178.3900  143.2740 C   0  0  2  0  0  3  0  0  0  0  0  0
  190.9820  176.2360  145.4300 C   0  0  0  0  0  0  0  0  0  0  0  0
  194.2070  176.4160  142.6520 N   0  0  0  0  0  2  0  0  0  0  0  0
  190.8140  176.7540  144.1170 C   0  0  0  0  0  0  0  0  0  0  0  0
  191.3820  175.2910  148.0130 C   0  0  0  0  0  3  0  0  0  0  0  0
  188.2800  177.3370  141.6560 C   0  0  0  0  0  3  0  0  0  0  0  0
  192.3710  175.2110  147.0810 N   0  0  0  0  0  0  0  0  0  0  0  0
  189.4710  177.8890  142.3880 C   0  0  0  0  0  2  0  0  0  0  0  0
  187.3010  177.7820  144.5110 C   0  0  0  0  0  0  0  0  0  0  0  0
  190.1390  175.8360  147.6790 C   0  0  0  0  0  3  0  0  0  0  0  0
  188.7340  176.8560  145.9620 C   0  0  0  0  0  0  0  0  0  0  0  0
  185.1840  178.5310  143.4070 C   0  0  0  0  0  2  0  0  0  0  0  0
  184.5180  177.7480  142.3780 N   0  0  0  0  0  2  0  0  0  0  0  0
  182.6600  177.5160  139.8160 O   0  0  0  0  0  0  0  0  0  0  0  0
  182.2550  178.4650  141.9410 C   0  0  0  0  0  2  0  0  0  0  0  0
  183.7040  178.6660  141.6000 C   0  0  2  0  0  3  0  0  0  0  0  0
  181.6360  177.9920  140.6460 C   0  0  0  0  0  2  0  0  0  0  0  0
  183.7820  178.2900  140.1380 C   0  0  0  0  0  2  0  0  0  0  0  0
  1 26  1  0  0  0  0
  3 16  1  0  0  0  0
  4 23  2  0  0  0  0
  5 15  1  0  0  0  0
  6 19  1  0  0  0  0
  7  6  1  0  0  0  0
  7  3  1  0  0  0  0
  8 12  1  0  0  0  0
  9 27  1  0  0  0  0
 10 17  1  0  0  0  0
 11  5  2  0  0  0  0
 11 20  1  0  0  0  0
 13 20  1  0  0  0  0
 13  9  1  0  0  0  0
 14  2  2  0  0  0  0
 15 12  1  6  0  0  0
 15  4  1  0  0  0  0
 16  8  1  0  0  0  0
 17 28  1  1  0  0  0
 17 25  1  0  0  0  0
 18  4  1  0  0  0  0
 18  1  1  0  0  0  0
 19  5  1  0  0  0  0
 20 18  2  0  0  0  0
 22 10  2  0  0  0  0
 22 24  1  0  0  0  0
 23 21  1  0  0  0  0
 24 13  1  0  0  0  0
 25  9  2  0  0  0  0
 25 14  1  0  0  0  0
 26 21  2  0  0  0  0
 27  1  2  0  0  0  0
 27  2  1  0  0  0  0
 29 28  1  0  0  0  0
 30 34  1  0  0  0  0
 30 33  1  0  0  0  0
 32 31  1  0  0  0  0
 32 29  1  1  0  0  0
 33 31  1  0  0  0  0
 34 32  1  0  0  0  0
M  END
>  <MODEL>
9

>  <REMARK>
 VINA RESULT:      -7.4      2.273      4.195
  Name = 
  3 active torsions:
  status: ('A' for Active; 'I' for Inactive)
    1  A    between atoms: C_17  and  C_28
    2  A    between atoms: C_28  and  N_29
    3  A    between atoms: N_29  and  C_32
                            x       y       z     vdW  Elec       q    Type
                         _______ _______ _______ _____ _____    ______ ____

>  <TORSDO>
F 3

$$$$
