=
 OpenBabel11112416193D

 30 35  0  0  1  0  0  0  0  0999 V2000
  188.0610  177.4170  145.8600 C   0  0  0  0  0  0  0  0  0  0  0  0
  186.0830  178.4520  147.0360 C   0  0  0  0  0  0  0  0  0  0  0  0
  185.8730  177.0820  142.2960 N   0  0  0  0  0  2  0  0  0  0  0  0
  188.6060  176.8480  144.6730 C   0  0  0  0  0  0  0  0  0  0  0  0
  188.8550  177.5140  146.9600 N   0  0  0  0  0  0  0  0  0  0  0  0
  192.0280  176.0720  145.8750 O   0  0  0  0  0  1  0  0  0  0  0  0
  189.7450  174.5400  142.9500 C   0  0  1  0  0  3  0  0  0  0  0  0
  190.7090  176.5150  145.8440 C   0  0  0  0  0  0  0  0  0  0  0  0
  188.5280  174.8660  142.1690 N   0  0  2  0  0  0  0  0  0  0  0  0
  186.8370  176.5050  141.3680 C   0  0  1  0  0  3  0  0  0  0  0  0
  190.1470  177.0900  146.9840 C   0  0  0  0  0  0  0  0  0  0  0  0
  189.9410  176.3820  144.6790 C   0  0  0  0  0  0  0  0  0  0  0  0
  184.7550  178.8840  146.9690 C   0  0  0  0  0  3  0  0  0  0  0  0
  188.8300  174.4540  140.8000 C   0  0  0  0  0  2  0  0  0  0  0  0
  190.6270  173.6320  142.1140 C   0  0  0  0  0  2  0  0  0  0  0  0
  186.8650  178.6720  148.5990 Cl  0  0  0  0  0  0  0  0  0  0  0  0
  186.5020  177.2110  143.5550 C   0  0  0  0  0  0  0  0  0  0  0  0
  184.0190  178.7660  145.7950 C   0  0  0  0  0  3  0  0  0  0  0  0
  186.7060  177.8780  145.8870 C   0  0  0  0  0  0  0  0  0  0  0  0
  187.7890  176.7610  143.5370 C   0  0  0  0  0  0  0  0  0  0  0  0
  187.0870  177.4720  140.2270 C   0  0  0  0  0  1  0  0  0  0  0  0
  188.1490  176.2870  142.1630 C   0  0  1  0  0  3  0  0  0  0  0  0
  189.8240  173.3250  140.8810 C   0  0  0  0  0  2  0  0  0  0  0  0
  190.9050  176.6480  142.4930 O   0  0  0  0  0  1  0  0  0  0  0  0
  184.6020  178.2090  144.6630 C   0  0  0  0  0  3  0  0  0  0  0  0
  185.9270  177.7640  144.6970 C   0  0  0  0  0  0  0  0  0  0  0  0
  190.5730  175.7210  143.4870 C   0  0  2  0  0  3  0  0  0  0  0  0
  190.9160  177.2210  148.1410 O   0  0  0  0  0  0  0  0  0  0  0  0
  191.5750  178.0740  150.2800 C   0  0  0  0  0  1  0  0  0  0  0  0
  190.7730  178.3260  149.0210 C   0  0  0  0  0  2  0  0  0  0  0  0
  1 19  1  0  0  0  0
  1  5  1  0  0  0  0
  2 16  1  0  0  0  0
  3 17  1  0  0  0  0
  4 12  1  0  0  0  0
  4  1  2  0  0  0  0
  5 11  2  0  0  0  0
  7 15  1  6  0  0  0
  7 27  1  0  0  0  0
  8  6  1  0  0  0  0
  8 11  1  0  0  0  0
  9 14  1  6  0  0  0
  9  7  1  0  0  0  0
 10 21  1  6  0  0  0
 10 22  1  0  0  0  0
 10  3  1  0  0  0  0
 11 28  1  0  0  0  0
 12  8  2  0  0  0  0
 13  2  1  0  0  0  0
 14 23  1  0  0  0  0
 17 26  1  0  0  0  0
 18 13  2  0  0  0  0
 19  2  2  0  0  0  0
 20 17  2  0  0  0  0
 20  4  1  0  0  0  0
 22  9  1  0  0  0  0
 22 20  1  1  0  0  0
 23 15  1  0  0  0  0
 25 26  2  0  0  0  0
 25 18  1  0  0  0  0
 26 19  1  0  0  0  0
 27 24  1  6  0  0  0
 27 12  1  0  0  0  0
 28 30  1  0  0  0  0
 30 29  1  0  0  0  0
M  END
>  <MODEL>
1

>  <REMARK>
 VINA RESULT:      -8.5      0.000      0.000
  Name = 
  2 active torsions:
  status: ('A' for Active; 'I' for Inactive)
    1  A    between atoms: C_11  and  O_28
    2  A    between atoms: O_28  and  C_30
                            x       y       z     vdW  Elec       q    Type
                         _______ _______ _______ _____ _____    ______ ____

>  <TORSDO>
F 2

$$$$
=
 OpenBabel11112416193D

 30 35  0  0  1  0  0  0  0  0999 V2000
  186.2410  177.3630  143.7500 C   0  0  0  0  0  0  0  0  0  0  0  0
  184.5460  178.5380  145.2040 C   0  0  0  0  0  0  0  0  0  0  0  0
  188.4580  176.2140  147.1220 N   0  0  0  0  0  2  0  0  0  0  0  0
  187.4510  176.6170  143.6580 C   0  0  0  0  0  0  0  0  0  0  0  0
  185.5720  177.6630  142.6050 N   0  0  0  0  0  0  0  0  0  0  0  0
  187.6380  176.1970  139.9770 O   0  0  0  0  0  1  0  0  0  0  0  0
  190.4180  176.1920  142.8740 C   0  0  1  0  0  3  0  0  0  0  0  0
  187.1920  176.5700  141.2430 C   0  0  0  0  0  0  0  0  0  0  0  0
  190.5240  176.0760  144.3480 N   0  0  2  0  0  0  0  0  0  0  0  0
  189.5560  175.4430  146.5500 C   0  0  1  0  0  3  0  0  0  0  0  0
  186.0050  177.2890  141.3720 C   0  0  0  0  0  0  0  0  0  0  0  0
  187.9320  176.2330  142.3850 C   0  0  0  0  0  0  0  0  0  0  0  0
  184.1300  178.8960  146.4900 C   0  0  0  0  0  3  0  0  0  0  0  0
  191.6970  175.2380  144.5830 C   0  0  0  0  0  2  0  0  0  0  0  0
  191.7160  175.7080  142.2560 C   0  0  0  0  0  2  0  0  0  0  0  0
  183.5000  179.0860  143.8980 Cl  0  0  0  0  0  0  0  0  0  0  0  0
  187.6550  176.6830  146.0580 C   0  0  0  0  0  0  0  0  0  0  0  0
  184.8650  178.5290  147.6120 C   0  0  0  0  0  3  0  0  0  0  0  0
  185.7440  177.7820  145.0260 C   0  0  0  0  0  0  0  0  0  0  0  0
  188.1320  176.2980  144.8420 C   0  0  0  0  0  0  0  0  0  0  0  0
  189.4910  174.0150  147.0540 C   0  0  0  0  0  1  0  0  0  0  0  0
  189.3630  175.4630  145.0130 C   0  0  1  0  0  3  0  0  0  0  0  0
  192.6310  175.4390  143.4180 C   0  0  0  0  0  2  0  0  0  0  0  0
  189.1110  174.1450  142.5560 O   0  0  0  0  0  1  0  0  0  0  0  0
  186.0360  177.7950  147.4650 C   0  0  0  0  0  3  0  0  0  0  0  0
  186.4820  177.4230  146.1930 C   0  0  0  0  0  0  0  0  0  0  0  0
  189.2260  175.4920  142.1970 C   0  0  2  0  0  3  0  0  0  0  0  0
  185.2720  177.6210  140.2310 O   0  0  0  0  0  0  0  0  0  0  0  0
  182.8890  177.8530  140.3120 C   0  0  0  0  0  1  0  0  0  0  0  0
  184.2190  178.5740  140.2620 C   0  0  0  0  0  2  0  0  0  0  0  0
  1 19  1  0  0  0  0
  2 13  1  0  0  0  0
  4  1  2  0  0  0  0
  4 20  1  0  0  0  0
  5  1  1  0  0  0  0
  6  8  1  0  0  0  0
  7 15  1  6  0  0  0
  7  9  1  0  0  0  0
  8 11  1  0  0  0  0
  8 12  2  0  0  0  0
  9 14  1  6  0  0  0
  9 22  1  0  0  0  0
 10 21  1  1  0  0  0
 10  3  1  0  0  0  0
 11  5  2  0  0  0  0
 12  4  1  0  0  0  0
 13 18  2  0  0  0  0
 15 23  1  0  0  0  0
 16  2  1  0  0  0  0
 17 26  1  0  0  0  0
 17  3  1  0  0  0  0
 19  2  2  0  0  0  0
 19 26  1  0  0  0  0
 20 17  2  0  0  0  0
 22 20  1  1  0  0  0
 22 10  1  0  0  0  0
 23 14  1  0  0  0  0
 25 18  1  0  0  0  0
 26 25  2  0  0  0  0
 27 12  1  0  0  0  0
 27 24  1  1  0  0  0
 27  7  1  0  0  0  0
 28 30  1  0  0  0  0
 28 11  1  0  0  0  0
 30 29  1  0  0  0  0
M  END
>  <MODEL>
2

>  <REMARK>
 VINA RESULT:      -8.5      2.551      5.347
  Name = 
  2 active torsions:
  status: ('A' for Active; 'I' for Inactive)
    1  A    between atoms: C_11  and  O_28
    2  A    between atoms: O_28  and  C_30
                            x       y       z     vdW  Elec       q    Type
                         _______ _______ _______ _____ _____    ______ ____

>  <TORSDO>
F 2

$$$$
=
 OpenBabel11112416193D

 30 35  0  0  1  0  0  0  0  0999 V2000
  188.0400  175.7050  141.6640 C   0  0  0  0  0  0  0  0  0  0  0  0
  189.5950  173.8010  141.0940 C   0  0  0  0  0  0  0  0  0  0  0  0
  189.0830  175.4510  145.7200 N   0  0  0  0  0  2  0  0  0  0  0  0
  187.4730  176.5530  142.6590 C   0  0  0  0  0  0  0  0  0  0  0  0
  187.6670  175.8820  140.3680 N   0  0  0  0  0  0  0  0  0  0  0  0
  185.2620  178.6230  140.5190 O   0  0  0  0  0  1  0  0  0  0  0  0
  185.1640  177.6450  144.4120 C   0  0  1  0  0  3  0  0  0  0  0  0
  186.1860  177.6640  140.9240 C   0  0  0  0  0  0  0  0  0  0  0  0
  186.0440  177.0880  145.4660 N   0  0  2  0  0  0  0  0  0  0  0  0
  188.3080  176.5240  146.3300 C   0  0  1  0  0  3  0  0  0  0  0  0
  186.7720  176.8270  139.9750 C   0  0  0  0  0  0  0  0  0  0  0  0
  186.5250  177.5300  142.2770 C   0  0  0  0  0  0  0  0  0  0  0  0
  190.5170  172.8480  141.5360 C   0  0  0  0  0  3  0  0  0  0  0  0
  185.7400  177.8620  146.6670 C   0  0  0  0  0  2  0  0  0  0  0  0
  184.1070  178.5110  145.0710 C   0  0  0  0  0  2  0  0  0  0  0  0
  189.2740  173.7860  139.3620 Cl  0  0  0  0  0  0  0  0  0  0  0  0
  188.7800  175.4240  144.3400 C   0  0  0  0  0  0  0  0  0  0  0  0
  190.8600  172.7500  142.8810 C   0  0  0  0  0  3  0  0  0  0  0  0
  188.9870  174.6940  142.0270 C   0  0  0  0  0  0  0  0  0  0  0  0
  187.8700  176.3770  143.9930 C   0  0  0  0  0  0  0  0  0  0  0  0
  189.2470  177.5460  146.9410 C   0  0  0  0  0  1  0  0  0  0  0  0
  187.4870  177.1840  145.1940 C   0  0  1  0  0  3  0  0  0  0  0  0
  184.3130  178.3290  146.5490 C   0  0  0  0  0  2  0  0  0  0  0  0
  186.6900  179.4360  143.7330 O   0  0  0  0  0  1  0  0  0  0  0  0
  190.2800  173.6060  143.8100 C   0  0  0  0  0  3  0  0  0  0  0  0
  189.3520  174.5690  143.4000 C   0  0  0  0  0  0  0  0  0  0  0  0
  185.8400  178.4260  143.2710 C   0  0  2  0  0  3  0  0  0  0  0  0
  186.4310  176.9650  138.6290 O   0  0  0  0  0  0  0  0  0  0  0  0
  185.8800  176.0470  136.4850 C   0  0  0  0  0  1  0  0  0  0  0  0
  186.8550  176.0350  137.6430 C   0  0  0  0  0  2  0  0  0  0  0  0
  1 19  2  0  0  0  0
  1  4  1  0  0  0  0
  2 13  2  0  0  0  0
  2 19  1  0  0  0  0
  3 10  1  0  0  0  0
  4 20  2  0  0  0  0
  5  1  1  0  0  0  0
  6  8  1  0  0  0  0
  7 15  1  1  0  0  0
  7  9  1  0  0  0  0
  8 12  2  0  0  0  0
  9 14  1  1  0  0  0
 10 21  1  6  0  0  0
 11  5  2  0  0  0  0
 11  8  1  0  0  0  0
 12  4  1  0  0  0  0
 12 27  1  0  0  0  0
 13 18  1  0  0  0  0
 15 23  1  0  0  0  0
 16  2  1  0  0  0  0
 17  3  1  0  0  0  0
 18 25  2  0  0  0  0
 19 26  1  0  0  0  0
 20 17  1  0  0  0  0
 22 20  1  6  0  0  0
 22  9  1  0  0  0  0
 22 10  1  0  0  0  0
 23 14  1  0  0  0  0
 26 25  1  0  0  0  0
 26 17  2  0  0  0  0
 27 24  1  1  0  0  0
 27  7  1  0  0  0  0
 28 11  1  0  0  0  0
 29 30  1  0  0  0  0
 30 28  1  0  0  0  0
M  END
>  <MODEL>
3

>  <REMARK>
 VINA RESULT:      -8.3      3.148      7.530
  Name = 
  2 active torsions:
  status: ('A' for Active; 'I' for Inactive)
    1  A    between atoms: C_11  and  O_28
    2  A    between atoms: O_28  and  C_30
                            x       y       z     vdW  Elec       q    Type
                         _______ _______ _______ _____ _____    ______ ____

>  <TORSDO>
F 2

$$$$
=
 OpenBabel11112416193D

 30 35  0  0  1  0  0  0  0  0999 V2000
  187.4740  176.5500  142.3940 C   0  0  0  0  0  0  0  0  0  0  0  0
  185.7750  178.3900  142.6990 C   0  0  0  0  0  0  0  0  0  0  0  0
  188.4860  176.6970  146.4640 N   0  0  0  0  0  2  0  0  0  0  0  0
  188.4750  175.7140  142.9690 C   0  0  0  0  0  0  0  0  0  0  0  0
  187.1890  176.4100  141.0720 N   0  0  0  0  0  0  0  0  0  0  0  0
  189.4630  173.7780  139.9630 O   0  0  0  0  0  1  0  0  0  0  0  0
  191.3750  174.7020  143.3700 C   0  0  1  0  0  3  0  0  0  0  0  0
  188.8130  174.6890  140.7920 C   0  0  0  0  0  0  0  0  0  0  0  0
  191.0870  175.2020  144.7360 N   0  0  2  0  0  0  0  0  0  0  0  0
  189.4930  175.6500  146.5920 C   0  0  1  0  0  3  0  0  0  0  0  0
  187.8180  175.5130  140.2670 C   0  0  0  0  0  0  0  0  0  0  0  0
  189.1570  174.7870  142.1480 C   0  0  0  0  0  0  0  0  0  0  0  0
  185.1450  179.2940  143.5610 C   0  0  0  0  0  3  0  0  0  0  0  0
  191.9530  174.4250  145.6190 C   0  0  0  0  0  2  0  0  0  0  0  0
  192.6460  173.8750  143.4170 C   0  0  0  0  0  2  0  0  0  0  0  0
  185.2300  178.4460  141.0260 Cl  0  0  0  0  0  0  0  0  0  0  0  0
  188.0930  176.7580  145.1070 C   0  0  0  0  0  0  0  0  0  0  0  0
  185.4830  179.3570  144.9090 C   0  0  0  0  0  3  0  0  0  0  0  0
  186.7840  177.5120  143.1990 C   0  0  0  0  0  0  0  0  0  0  0  0
  188.7570  175.8520  144.3360 C   0  0  0  0  0  0  0  0  0  0  0  0
  188.9930  174.5780  147.5410 C   0  0  0  0  0  1  0  0  0  0  0  0
  189.6930  175.0450  145.1800 C   0  0  1  0  0  3  0  0  0  0  0  0
  193.1650  174.0250  144.8190 C   0  0  0  0  0  2  0  0  0  0  0  0
  189.7690  172.8540  143.4390 O   0  0  0  0  0  1  0  0  0  0  0  0
  186.4630  178.5140  145.4190 C   0  0  0  0  0  3  0  0  0  0  0  0
  187.1140  177.6010  144.5830 C   0  0  0  0  0  0  0  0  0  0  0  0
  190.2620  173.9080  142.6630 C   0  0  2  0  0  3  0  0  0  0  0  0
  187.4800  175.4100  138.9170 O   0  0  0  0  0  0  0  0  0  0  0  0
  186.5120  176.0050  136.8070 C   0  0  0  0  0  1  0  0  0  0  0  0
  186.6890  176.3900  138.2610 C   0  0  0  0  0  2  0  0  0  0  0  0
  1  4  2  0  0  0  0
  1 19  1  0  0  0  0
  2 19  2  0  0  0  0
  2 13  1  0  0  0  0
  3 10  1  0  0  0  0
  4 20  1  0  0  0  0
  5  1  1  0  0  0  0
  6  8  1  0  0  0  0
  7 15  1  1  0  0  0
  7  9  1  0  0  0  0
  8 12  2  0  0  0  0
  9 22  1  0  0  0  0
  9 14  1  1  0  0  0
 10 21  1  1  0  0  0
 11  8  1  0  0  0  0
 11  5  2  0  0  0  0
 12 27  1  0  0  0  0
 12  4  1  0  0  0  0
 13 18  2  0  0  0  0
 15 23  1  0  0  0  0
 16  2  1  0  0  0  0
 17  3  1  0  0  0  0
 18 25  1  0  0  0  0
 19 26  1  0  0  0  0
 20 17  2  0  0  0  0
 22 20  1  6  0  0  0
 22 10  1  0  0  0  0
 23 14  1  0  0  0  0
 26 17  1  0  0  0  0
 26 25  2  0  0  0  0
 27  7  1  0  0  0  0
 27 24  1  1  0  0  0
 28 11  1  0  0  0  0
 29 30  1  0  0  0  0
 30 28  1  0  0  0  0
M  END
>  <MODEL>
4

>  <REMARK>
 VINA RESULT:      -8.1      2.752      5.776
  Name = 
  2 active torsions:
  status: ('A' for Active; 'I' for Inactive)
    1  A    between atoms: C_11  and  O_28
    2  A    between atoms: O_28  and  C_30
                            x       y       z     vdW  Elec       q    Type
                         _______ _______ _______ _____ _____    ______ ____

>  <TORSDO>
F 2

$$$$
=
 OpenBabel11112416193D

 30 35  0  0  1  0  0  0  0  0999 V2000
  188.2240  175.6840  141.8350 C   0  0  0  0  0  0  0  0  0  0  0  0
  186.6350  176.9320  140.3240 C   0  0  0  0  0  0  0  0  0  0  0  0
  186.9460  177.9080  145.1550 N   0  0  0  0  0  2  0  0  0  0  0  0
  188.7660  175.4980  143.1400 C   0  0  0  0  0  0  0  0  0  0  0  0
  188.6770  174.8940  140.8240 N   0  0  0  0  0  0  0  0  0  0  0  0
  191.1690  172.7650  142.4290 O   0  0  0  0  0  1  0  0  0  0  0  0
  191.0110  175.5960  145.2720 C   0  0  1  0  0  3  0  0  0  0  0  0
  190.1890  173.7380  142.2580 C   0  0  0  0  0  0  0  0  0  0  0  0
  190.0530  176.5580  145.8660 N   0  0  2  0  0  0  0  0  0  0  0  0
  187.7250  177.3450  146.2510 C   0  0  1  0  0  3  0  0  0  0  0  0
  189.6270  173.9370  140.9980 C   0  0  0  0  0  0  0  0  0  0  0  0
  189.7690  174.5230  143.3410 C   0  0  0  0  0  0  0  0  0  0  0  0
  185.6550  177.9190  140.1890 C   0  0  0  0  0  3  0  0  0  0  0  0
  190.3180  176.5250  147.3020 C   0  0  0  0  0  2  0  0  0  0  0  0
  192.0600  175.2530  146.3130 C   0  0  0  0  0  2  0  0  0  0  0  0
  187.0520  176.0810  138.8400 Cl  0  0  0  0  0  0  0  0  0  0  0  0
  187.3250  177.2450  143.9660 C   0  0  0  0  0  0  0  0  0  0  0  0
  185.2330  178.6690  141.2820 C   0  0  0  0  0  3  0  0  0  0  0  0
  187.2220  176.6790  141.6010 C   0  0  0  0  0  0  0  0  0  0  0  0
  188.2880  176.3050  144.1830 C   0  0  0  0  0  0  0  0  0  0  0  0
  186.7910  176.7230  147.2710 C   0  0  0  0  0  1  0  0  0  0  0  0
  188.6330  176.2480  145.6390 C   0  0  1  0  0  3  0  0  0  0  0  0
  191.7650  176.1500  147.4820 C   0  0  0  0  0  2  0  0  0  0  0  0
  189.5930  173.6200  145.5620 O   0  0  0  0  0  1  0  0  0  0  0  0
  185.7910  178.4430  142.5350 C   0  0  0  0  0  3  0  0  0  0  0  0
  186.7760  177.4650  142.7040 C   0  0  0  0  0  0  0  0  0  0  0  0
  190.4300  174.3030  144.6730 C   0  0  2  0  0  3  0  0  0  0  0  0
  190.0490  173.1520  139.9230 O   0  0  0  0  0  0  0  0  0  0  0  0
  188.8870  172.8560  137.8490 C   0  0  0  0  0  1  0  0  0  0  0  0
  189.1620  172.2890  139.2250 C   0  0  0  0  0  2  0  0  0  0  0  0
  1  4  1  0  0  0  0
  2 19  1  0  0  0  0
  3 10  1  0  0  0  0
  4 12  1  0  0  0  0
  4 20  2  0  0  0  0
  5 11  2  0  0  0  0
  5  1  1  0  0  0  0
  7  9  1  0  0  0  0
  7 15  1  1  0  0  0
  8  6  1  0  0  0  0
  8 12  2  0  0  0  0
  9 14  1  1  0  0  0
 10 21  1  1  0  0  0
 11  8  1  0  0  0  0
 12 27  1  0  0  0  0
 13  2  2  0  0  0  0
 13 18  1  0  0  0  0
 14 23  1  0  0  0  0
 15 23  1  0  0  0  0
 16  2  1  0  0  0  0
 17 20  1  0  0  0  0
 17  3  1  0  0  0  0
 18 25  2  0  0  0  0
 19  1  2  0  0  0  0
 19 26  1  0  0  0  0
 22 20  1  6  0  0  0
 22  9  1  0  0  0  0
 22 10  1  0  0  0  0
 25 26  1  0  0  0  0
 26 17  2  0  0  0  0
 27  7  1  0  0  0  0
 27 24  1  1  0  0  0
 28 11  1  0  0  0  0
 29 30  1  0  0  0  0
 30 28  1  0  0  0  0
M  END
>  <MODEL>
5

>  <REMARK>
 VINA RESULT:      -7.8      2.779      6.054
  Name = 
  2 active torsions:
  status: ('A' for Active; 'I' for Inactive)
    1  A    between atoms: C_11  and  O_28
    2  A    between atoms: O_28  and  C_30
                            x       y       z     vdW  Elec       q    Type
                         _______ _______ _______ _____ _____    ______ ____

>  <TORSDO>
F 2

$$$$
=
 OpenBabel11112416193D

 30 35  0  0  1  0  0  0  0  0999 V2000
  188.5760  176.1450  143.7540 C   0  0  0  0  0  0  0  0  0  0  0  0
  186.3310  177.1570  144.3020 C   0  0  0  0  0  0  0  0  0  0  0  0
  190.0530  177.1630  147.5480 N   0  0  0  0  0  2  0  0  0  0  0  0
  189.9120  175.8620  144.1610 C   0  0  0  0  0  0  0  0  0  0  0  0
  188.1750  175.7480  142.5170 N   0  0  0  0  0  0  0  0  0  0  0  0
  191.1410  174.1590  141.1040 O   0  0  0  0  0  1  0  0  0  0  0  0
  192.9920  176.1700  144.0450 C   0  0  1  0  0  3  0  0  0  0  0  0
  190.3070  174.8170  142.0040 C   0  0  0  0  0  0  0  0  0  0  0  0
  192.7370  176.6660  145.4190 N   0  0  2  0  0  0  0  0  0  0  0  0
  191.4140  176.6390  147.5250 C   0  0  1  0  0  3  0  0  0  0  0  0
  188.9890  175.0970  141.6450 C   0  0  0  0  0  0  0  0  0  0  0  0
  190.7840  175.2030  143.2640 C   0  0  0  0  0  0  0  0  0  0  0  0
  185.5220  177.8200  145.2300 C   0  0  0  0  0  3  0  0  0  0  0  0
  193.9760  176.4160  146.1520 C   0  0  0  0  0  2  0  0  0  0  0  0
  194.4830  175.9430  143.8820 C   0  0  0  0  0  2  0  0  0  0  0  0
  185.5590  176.7910  142.7620 Cl  0  0  0  0  0  0  0  0  0  0  0  0
  189.4640  176.9000  146.2900 C   0  0  0  0  0  0  0  0  0  0  0  0
  186.0070  178.1710  146.4860 C   0  0  0  0  0  3  0  0  0  0  0  0
  187.6800  176.8290  144.6370 C   0  0  0  0  0  0  0  0  0  0  0  0
  190.3190  176.2600  145.4430 C   0  0  0  0  0  0  0  0  0  0  0  0
  191.5660  175.5750  148.5940 C   0  0  0  0  0  1  0  0  0  0  0  0
  191.6270  176.0080  146.1260 C   0  0  1  0  0  3  0  0  0  0  0  0
  195.1030  176.4530  145.1530 C   0  0  0  0  0  2  0  0  0  0  0  0
  192.3460  173.8510  144.4930 O   0  0  0  0  0  1  0  0  0  0  0  0
  187.3180  177.8650  146.8340 C   0  0  0  0  0  3  0  0  0  0  0  0
  188.1540  177.2050  145.9280 C   0  0  0  0  0  0  0  0  0  0  0  0
  192.2210  174.9160  143.5960 C   0  0  2  0  0  3  0  0  0  0  0  0
  188.5200  174.7100  140.3890 O   0  0  0  0  0  0  0  0  0  0  0  0
  188.5620  173.0590  138.6520 C   0  0  0  0  0  1  0  0  0  0  0  0
  188.1920  173.3610  140.0890 C   0  0  0  0  0  2  0  0  0  0  0  0
  1  4  2  0  0  0  0
  1 19  1  0  0  0  0
  2 19  2  0  0  0  0
  2 13  1  0  0  0  0
  4 20  1  0  0  0  0
  5  1  1  0  0  0  0
  6  8  1  0  0  0  0
  7 15  1  1  0  0  0
  7  9  1  0  0  0  0
  8 12  2  0  0  0  0
  9 22  1  0  0  0  0
  9 14  1  1  0  0  0
 10  3  1  0  0  0  0
 10 21  1  1  0  0  0
 11  8  1  0  0  0  0
 11  5  2  0  0  0  0
 12 27  1  0  0  0  0
 12  4  1  0  0  0  0
 13 18  2  0  0  0  0
 15 23  1  0  0  0  0
 16  2  1  0  0  0  0
 17  3  1  0  0  0  0
 18 25  1  0  0  0  0
 19 26  1  0  0  0  0
 20 17  2  0  0  0  0
 22 20  1  6  0  0  0
 22 10  1  0  0  0  0
 23 14  1  0  0  0  0
 26 17  1  0  0  0  0
 26 25  2  0  0  0  0
 27  7  1  0  0  0  0
 27 24  1  1  0  0  0
 28 11  1  0  0  0  0
 29 30  1  0  0  0  0
 30 28  1  0  0  0  0
M  END
>  <MODEL>
6

>  <REMARK>
 VINA RESULT:      -7.7      2.405      5.780
  Name = 
  2 active torsions:
  status: ('A' for Active; 'I' for Inactive)
    1  A    between atoms: C_11  and  O_28
    2  A    between atoms: O_28  and  C_30
                            x       y       z     vdW  Elec       q    Type
                         _______ _______ _______ _____ _____    ______ ____

>  <TORSDO>
F 2

$$$$
=
 OpenBabel11112416193D

 30 35  0  0  1  0  0  0  0  0999 V2000
  188.7960  174.5210  141.9290 C   0  0  0  0  0  0  0  0  0  0  0  0
  190.2770  172.4860  142.1190 C   0  0  0  0  0  0  0  0  0  0  0  0
  189.1280  175.2490  146.0480 N   0  0  0  0  0  2  0  0  0  0  0  0
  188.1370  175.6070  142.5740 C   0  0  0  0  0  0  0  0  0  0  0  0
  188.6580  174.3820  140.5830 N   0  0  0  0  0  0  0  0  0  0  0  0
  186.4740  177.1500  139.6400 O   0  0  0  0  0  1  0  0  0  0  0  0
  185.6570  177.1730  143.5700 C   0  0  1  0  0  3  0  0  0  0  0  0
  187.2430  176.2920  140.4210 C   0  0  0  0  0  0  0  0  0  0  0  0
  186.3050  176.8680  144.8680 N   0  0  2  0  0  0  0  0  0  0  0  0
  188.3450  176.4640  146.2330 C   0  0  1  0  0  3  0  0  0  0  0  0
  187.9140  175.2270  139.8210 C   0  0  0  0  0  0  0  0  0  0  0  0
  187.3420  176.4880  141.8050 C   0  0  0  0  0  0  0  0  0  0  0  0
  191.0380  171.6440  142.9340 C   0  0  0  0  0  3  0  0  0  0  0  0
  185.8640  177.9250  145.7740 C   0  0  0  0  0  2  0  0  0  0  0  0
  184.5730  178.2090  143.8030 C   0  0  0  0  0  2  0  0  0  0  0  0
  190.2480  172.0510  140.4120 Cl  0  0  0  0  0  0  0  0  0  0  0  0
  189.0580  174.8900  144.6820 C   0  0  0  0  0  0  0  0  0  0  0  0
  191.1440  171.8720  144.3030 C   0  0  0  0  0  3  0  0  0  0  0  0
  189.5910  173.6020  142.6870 C   0  0  0  0  0  0  0  0  0  0  0  0
  188.2930  175.7550  143.9600 C   0  0  0  0  0  0  0  0  0  0  0  0
  189.2430  177.5750  146.7410 C   0  0  0  0  0  1  0  0  0  0  0  0
  187.7760  176.8470  144.8440 C   0  0  1  0  0  3  0  0  0  0  0  0
  184.5160  178.3940  145.2930 C   0  0  0  0  0  2  0  0  0  0  0  0
  187.4050  178.6890  142.7690 O   0  0  0  0  0  1  0  0  0  0  0  0
  190.4840  172.9500  144.8800 C   0  0  0  0  0  3  0  0  0  0  0  0
  189.7120  173.8100  144.0930 C   0  0  0  0  0  0  0  0  0  0  0  0
  186.5700  177.6240  142.4170 C   0  0  2  0  0  3  0  0  0  0  0  0
  187.8130  175.0370  138.4420 O   0  0  0  0  0  0  0  0  0  0  0  0
  189.1390  174.2540  136.6070 C   0  0  0  0  0  1  0  0  0  0  0  0
  188.2980  173.8650  137.8040 C   0  0  0  0  0  2  0  0  0  0  0  0
  1  4  2  0  0  0  0
  1 19  1  0  0  0  0
  2 19  2  0  0  0  0
  2 13  1  0  0  0  0
  3 10  1  0  0  0  0
  4 20  1  0  0  0  0
  5  1  1  0  0  0  0
  6  8  1  0  0  0  0
  7 15  1  1  0  0  0
  7  9  1  0  0  0  0
  8 12  2  0  0  0  0
  9 14  1  1  0  0  0
 10 21  1  6  0  0  0
 11  8  1  0  0  0  0
 11  5  2  0  0  0  0
 12 27  1  0  0  0  0
 12  4  1  0  0  0  0
 13 18  2  0  0  0  0
 15 23  1  0  0  0  0
 16  2  1  0  0  0  0
 17  3  1  0  0  0  0
 18 25  1  0  0  0  0
 19 26  1  0  0  0  0
 20 17  2  0  0  0  0
 22 20  1  6  0  0  0
 22  9  1  0  0  0  0
 22 10  1  0  0  0  0
 23 14  1  0  0  0  0
 26 17  1  0  0  0  0
 26 25  2  0  0  0  0
 27 24  1  1  0  0  0
 27  7  1  0  0  0  0
 28 11  1  0  0  0  0
 29 30  1  0  0  0  0
 30 28  1  0  0  0  0
M  END
>  <MODEL>
7

>  <REMARK>
 VINA RESULT:      -7.6      3.137      7.425
  Name = 
  2 active torsions:
  status: ('A' for Active; 'I' for Inactive)
    1  A    between atoms: C_11  and  O_28
    2  A    between atoms: O_28  and  C_30
                            x       y       z     vdW  Elec       q    Type
                         _______ _______ _______ _____ _____    ______ ____

>  <TORSDO>
F 2

$$$$
=
 OpenBabel11112416193D

 30 35  0  0  1  0  0  0  0  0999 V2000
  187.8150  176.0160  140.8840 C   0  0  0  0  0  0  0  0  0  0  0  0
  187.8210  174.8440  138.6490 C   0  0  0  0  0  0  0  0  0  0  0  0
  190.8640  173.5050  142.3010 N   0  0  0  0  0  2  0  0  0  0  0  0
  188.3410  176.1140  142.2050 C   0  0  0  0  0  0  0  0  0  0  0  0
  186.8500  176.8940  140.5010 N   0  0  0  0  0  0  0  0  0  0  0  0
  186.3240  178.9610  143.4630 O   0  0  0  0  0  1  0  0  0  0  0  0
  188.1920  175.9140  145.2930 C   0  0  1  0  0  3  0  0  0  0  0  0
  186.8380  177.9760  142.6230 C   0  0  0  0  0  0  0  0  0  0  0  0
  189.2210  174.8830  145.0190 N   0  0  2  0  0  0  0  0  0  0  0  0
  191.1030  174.0030  143.6510 C   0  0  1  0  0  3  0  0  0  0  0  0
  186.3570  177.8610  141.3200 C   0  0  0  0  0  0  0  0  0  0  0  0
  187.8300  177.0990  143.0810 C   0  0  0  0  0  0  0  0  0  0  0  0
  188.3600  173.8440  137.8350 C   0  0  0  0  0  3  0  0  0  0  0  0
  190.0250  174.8110  146.2360 C   0  0  0  0  0  2  0  0  0  0  0  0
  188.1820  176.2040  146.7820 C   0  0  0  0  0  2  0  0  0  0  0  0
  186.5590  175.8190  137.9030 Cl  0  0  0  0  0  0  0  0  0  0  0  0
  189.8180  174.2690  141.7340 C   0  0  0  0  0  0  0  0  0  0  0  0
  189.3630  172.9990  138.3010 C   0  0  0  0  0  3  0  0  0  0  0  0
  188.3000  175.0140  139.9840 C   0  0  0  0  0  0  0  0  0  0  0  0
  189.3460  175.2150  142.5930 C   0  0  0  0  0  0  0  0  0  0  0  0
  192.5250  174.5180  143.7580 C   0  0  0  0  0  1  0  0  0  0  0  0
  190.1080  175.1690  143.8810 C   0  0  1  0  0  3  0  0  0  0  0  0
  189.1360  175.2110  147.3840 C   0  0  0  0  0  2  0  0  0  0  0  0
  189.5590  177.8210  144.5880 O   0  0  0  0  0  1  0  0  0  0  0  0
  189.8440  173.1430  139.5970 C   0  0  0  0  0  3  0  0  0  0  0  0
  189.3250  174.1320  140.4380 C   0  0  0  0  0  0  0  0  0  0  0  0
  188.2920  177.2330  144.5050 C   0  0  2  0  0  3  0  0  0  0  0  0
  185.3690  178.7380  140.8690 O   0  0  0  0  0  0  0  0  0  0  0  0
  183.1820  178.2910  141.7400 C   0  0  0  0  0  1  0  0  0  0  0  0
  184.0690  178.2910  140.5120 C   0  0  0  0  0  2  0  0  0  0  0  0
  1  4  1  0  0  0  0
  2 19  1  0  0  0  0
  3 10  1  0  0  0  0
  4 20  2  0  0  0  0
  4 12  1  0  0  0  0
  5  1  1  0  0  0  0
  5 11  2  0  0  0  0
  7 15  1  1  0  0  0
  8 12  2  0  0  0  0
  8  6  1  0  0  0  0
  9  7  1  0  0  0  0
  9 14  1  1  0  0  0
 10 21  1  6  0  0  0
 10 22  1  0  0  0  0
 11  8  1  0  0  0  0
 12 27  1  0  0  0  0
 13 18  1  0  0  0  0
 13  2  2  0  0  0  0
 14 23  1  0  0  0  0
 15 23  1  0  0  0  0
 16  2  1  0  0  0  0
 17  3  1  0  0  0  0
 17 20  1  0  0  0  0
 18 25  2  0  0  0  0
 19 26  1  0  0  0  0
 19  1  2  0  0  0  0
 22 20  1  6  0  0  0
 22  9  1  0  0  0  0
 25 26  1  0  0  0  0
 26 17  2  0  0  0  0
 27 24  1  6  0  0  0
 27  7  1  0  0  0  0
 28 11  1  0  0  0  0
 30 28  1  0  0  0  0
 30 29  1  0  0  0  0
M  END
>  <MODEL>
8

>  <REMARK>
 VINA RESULT:      -7.5      3.178      7.005
  Name = 
  2 active torsions:
  status: ('A' for Active; 'I' for Inactive)
    1  A    between atoms: C_11  and  O_28
    2  A    between atoms: O_28  and  C_30
                            x       y       z     vdW  Elec       q    Type
                         _______ _______ _______ _____ _____    ______ ____

>  <TORSDO>
F 2

$$$$
=
 OpenBabel11112416193D

 30 35  0  0  1  0  0  0  0  0999 V2000
  189.4720  175.8950  144.7090 C   0  0  0  0  0  0  0  0  0  0  0  0
  190.9870  176.5170  146.6280 C   0  0  0  0  0  0  0  0  0  0  0  0
  192.1450  172.9120  143.4570 N   0  0  0  0  0  2  0  0  0  0  0  0
  189.2350  175.0810  143.5640 C   0  0  0  0  0  0  0  0  0  0  0  0
  188.5330  176.8150  145.0590 N   0  0  0  0  0  0  0  0  0  0  0  0
  185.9440  176.4320  142.5150 O   0  0  0  0  0  1  0  0  0  0  0  0
  188.8910  174.5640  140.5290 C   0  0  1  0  0  3  0  0  0  0  0  0
  187.1220  176.2320  143.2300 C   0  0  0  0  0  0  0  0  0  0  0  0
  190.0980  173.7450  140.7920 N   0  0  2  0  0  0  0  0  0  0  0  0
  191.4710  172.3260  142.3050 C   0  0  1  0  0  3  0  0  0  0  0  0
  187.3790  177.0000  144.3650 C   0  0  0  0  0  0  0  0  0  0  0  0
  188.0510  175.2690  142.8140 C   0  0  0  0  0  0  0  0  0  0  0  0
  192.1800  176.2900  147.3200 C   0  0  0  0  0  3  0  0  0  0  0  0
  190.0870  172.7040  139.7680 C   0  0  0  0  0  2  0  0  0  0  0  0
  188.3580  174.2100  139.1530 C   0  0  0  0  0  2  0  0  0  0  0  0
  189.9700  177.7950  147.2870 Cl  0  0  0  0  0  0  0  0  0  0  0  0
  191.3360  173.9640  143.9460 C   0  0  0  0  0  0  0  0  0  0  0  0
  193.0770  175.3110  146.9050 C   0  0  0  0  0  3  0  0  0  0  0  0
  190.6720  175.7380  145.4740 C   0  0  0  0  0  0  0  0  0  0  0  0
  190.1990  174.1240  143.2130 C   0  0  0  0  0  0  0  0  0  0  0  0
  191.1680  170.8660  142.5830 C   0  0  0  0  0  1  0  0  0  0  0  0
  190.1450  173.1060  142.1170 C   0  0  1  0  0  3  0  0  0  0  0  0
  189.3700  173.2650  138.5680 C   0  0  0  0  0  2  0  0  0  0  0  0
  187.3600  173.1790  141.8480 O   0  0  0  0  0  1  0  0  0  0  0  0
  192.7950  174.5410  145.7830 C   0  0  0  0  0  3  0  0  0  0  0  0
  191.6110  174.7450  145.0670 C   0  0  0  0  0  0  0  0  0  0  0  0
  187.7530  174.4910  141.5630 C   0  0  2  0  0  3  0  0  0  0  0  0
  186.4490  177.9570  144.7750 O   0  0  0  0  0  0  0  0  0  0  0  0
  185.1570  176.7930  146.4220 C   0  0  0  0  0  1  0  0  0  0  0  0
  185.9780  178.0260  146.1130 C   0  0  0  0  0  2  0  0  0  0  0  0
  1  5  1  0  0  0  0
  1 19  1  0  0  0  0
  2 16  1  0  0  0  0
  2 13  1  0  0  0  0
  3 17  1  0  0  0  0
  4  1  2  0  0  0  0
  6  8  1  0  0  0  0
  7 15  1  6  0  0  0
  7  9  1  0  0  0  0
  7 27  1  0  0  0  0
  8 11  1  0  0  0  0
  9 14  1  6  0  0  0
  9 22  1  0  0  0  0
 10 21  1  1  0  0  0
 10  3  1  0  0  0  0
 11 28  1  0  0  0  0
 11  5  2  0  0  0  0
 12  8  2  0  0  0  0
 12  4  1  0  0  0  0
 17 26  1  0  0  0  0
 18 13  2  0  0  0  0
 19  2  2  0  0  0  0
 20  4  1  0  0  0  0
 20 17  2  0  0  0  0
 22 10  1  0  0  0  0
 22 20  1  1  0  0  0
 23 15  1  0  0  0  0
 23 14  1  0  0  0  0
 25 18  1  0  0  0  0
 26 19  1  0  0  0  0
 26 25  2  0  0  0  0
 27 24  1  1  0  0  0
 27 12  1  0  0  0  0
 28 30  1  0  0  0  0
 30 29  1  0  0  0  0
M  END
>  <MODEL>
9

>  <REMARK>
 VINA RESULT:      -7.3      2.551      5.381
  Name = 
  2 active torsions:
  status: ('A' for Active; 'I' for Inactive)
    1  A    between atoms: C_11  and  O_28
    2  A    between atoms: O_28  and  C_30
                            x       y       z     vdW  Elec       q    Type
                         _______ _______ _______ _____ _____    ______ ____

>  <TORSDO>
F 2

$$$$
