=
 OpenBabel11112418013D

 34 42  0  0  1  0  0  0  0  0999 V2000
  188.3830  176.6380  146.3180 C   0  0  0  0  0  0  0  0  0  0  0  0
  190.2720  175.7620  147.7010 N   0  0  0  0  0  2  0  0  0  0  0  0
  185.7150  177.3500  140.5730 C   0  0  2  0  0  0  0  0  0  0  0  0
  186.6470  177.4450  144.8240 C   0  0  0  0  0  0  0  0  0  0  0  0
  187.1490  177.5200  142.4180 N   0  0  1  0  0  0  0  0  0  0  0  0
  187.0740  177.5410  139.9100 C   0  0  1  0  0  3  0  0  0  0  0  0
  185.9370  177.1300  139.2040 O   0  0  0  0  0  0  0  0  0  0  0  0
  184.1050  178.5740  142.1220 C   0  0  0  0  0  2  0  0  0  0  0  0
  190.6730  176.5430  145.5580 C   0  0  0  0  0  0  0  0  0  0  0  0
  193.4790  176.3620  144.1920 C   0  0  0  0  0  2  0  0  0  0  0  0
  188.5140  177.9410  142.7380 C   0  0  0  0  0  2  0  0  0  0  0  0
  184.7480  177.6500  143.1830 C   0  0  0  0  0  2  0  0  0  0  0  0
  190.3270  177.0240  144.2780 C   0  0  0  0  0  0  0  0  0  0  0  0
  191.6860  175.5110  147.4470 C   0  0  0  0  0  2  0  0  0  0  0  0
  186.2290  178.0010  143.4820 C   0  0  1  0  0  3  0  0  0  0  0  0
  184.5460  178.3180  140.6560 C   0  0  0  0  0  2  0  0  0  0  0  0
  192.8270  175.3800  145.1460 C   0  0  2  0  0  3  0  0  0  0  0  0
  188.0020  177.1530  145.0610 C   0  0  0  0  0  0  0  0  0  0  0  0
  186.7750  178.2220  141.2030 C   0  0  1  0  0  3  0  0  0  0  0  0
  188.9660  177.3400  144.0440 C   0  0  0  0  0  0  0  0  0  0  0  0
  186.0930  176.7910  147.0480 C   0  0  0  0  0  3  0  0  0  0  0  0
  192.5800  176.8040  143.0790 C   0  0  0  0  0  3  0  0  0  0  0  0
  185.7390  177.2770  145.8280 N   0  0  0  0  0  0  0  0  0  0  0  0
  191.2770  177.1060  143.1370 C   0  0  0  0  0  3  0  0  0  0  0  0
  192.0130  176.2190  146.1170 C   0  0  1  0  0  3  0  0  0  0  0  0
  187.4220  176.4550  147.3150 C   0  0  0  0  0  3  0  0  0  0  0  0
  189.7270  176.3340  146.5280 C   0  0  0  0  0  0  0  0  0  0  0  0
  193.8340  174.6880  145.8260 O   0  0  0  0  0  0  0  0  0  0  0  0
  193.9650  173.4800  145.1370 C   0  0  0  0  0  2  0  0  0  0  0  0
  197.0710  173.4500  146.3610 N   0  0  0  0  0  0  0  0  0  0  0  0
  195.8700  171.9070  145.2270 C   0  0  0  0  0  3  0  0  0  0  0  0
  195.4200  173.2540  144.7650 C   0  0  2  0  0  3  0  0  0  0  0  0
  196.8160  172.0730  146.1380 C   0  0  0  0  0  3  0  0  0  0  0  0
  196.2890  174.1350  145.5960 C   0  0  0  0  0  3  0  0  0  0  0  0
  1 27  1  0  0  0  0
  1 26  2  0  0  0  0
  3 16  1  6  0  0  0
  3 19  1  0  0  0  0
  4 18  2  0  0  0  0
  4 23  1  0  0  0  0
  5 11  1  1  0  0  0
  5 15  1  0  0  0  0
  6  7  1  6  0  0  0
  6  3  1  0  0  0  0
  6 19  1  0  0  0  0
  7  3  1  0  0  0  0
  8 12  1  0  0  0  0
  9 25  1  0  0  0  0
  9 27  2  0  0  0  0
 10 17  1  0  0  0  0
 11 20  1  0  0  0  0
 13  9  1  0  0  0  0
 14  2  1  0  0  0  0
 15 12  1  6  0  0  0
 15  4  1  0  0  0  0
 16  8  1  0  0  0  0
 17 28  1  1  0  0  0
 17 25  1  0  0  0  0
 18  1  1  0  0  0  0
 19  5  1  0  0  0  0
 20 13  2  0  0  0  0
 20 18  1  0  0  0  0
 21 26  1  0  0  0  0
 22 24  2  0  0  0  0
 22 10  1  0  0  0  0
 23 21  2  0  0  0  0
 24 13  1  0  0  0  0
 25 14  1  0  0  0  0
 27  2  1  0  0  0  0
 29 28  1  0  0  0  0
 31 33  2  0  0  0  0
 32 29  1  0  0  0  0
 32 31  1  0  0  0  0
 32 34  1  0  0  0  0
 33 30  1  0  0  0  0
 34 30  2  0  0  0  0
M  END
>  <MODEL>
1

>  <REMARK>
 VINA RESULT:      -8.8      0.000      0.000
  Name = 
  3 active torsions:
  status: ('A' for Active; 'I' for Inactive)
    1  A    between atoms: C_17  and  O_28
    2  A    between atoms: O_28  and  C_29
    3  A    between atoms: C_29  and  C_32
                            x       y       z     vdW  Elec       q    Type
                         _______ _______ _______ _____ _____    ______ ____

>  <TORSDO>
F 3

$$$$
=
 OpenBabel11112418013D

 34 42  0  0  1  0  0  0  0  0999 V2000
  189.1240  175.6920  142.8940 C   0  0  0  0  0  0  0  0  0  0  0  0
  191.3020  174.9130  141.9470 N   0  0  0  0  0  2  0  0  0  0  0  0
  186.0060  179.1970  147.2110 C   0  0  2  0  0  0  0  0  0  0  0  0
  187.1040  176.5240  143.9540 C   0  0  0  0  0  0  0  0  0  0  0  0
  187.3150  177.5490  146.1790 N   0  0  1  0  0  0  0  0  0  0  0  0
  187.0430  178.8880  148.2840 C   0  0  1  0  0  3  0  0  0  0  0  0
  186.1990  180.0030  148.3440 O   0  0  0  0  0  0  0  0  0  0  0  0
  184.1310  178.0550  145.9180 C   0  0  0  0  0  2  0  0  0  0  0  0
  191.1030  175.3010  144.2220 C   0  0  0  0  0  0  0  0  0  0  0  0
  193.5250  175.1000  146.1880 C   0  0  0  0  0  2  0  0  0  0  0  0
  188.3230  176.5450  146.5220 C   0  0  0  0  0  2  0  0  0  0  0  0
  185.2230  177.9540  144.8270 C   0  0  0  0  0  2  0  0  0  0  0  0
  190.4670  175.7430  145.4010 C   0  0  0  0  0  0  0  0  0  0  0  0
  192.6350  174.7040  142.5020 C   0  0  0  0  0  2  0  0  0  0  0  0
  186.3640  176.9690  145.1950 C   0  0  1  0  0  3  0  0  0  0  0  0
  184.5240  178.8570  147.1870 C   0  0  0  0  0  2  0  0  0  0  0  0
  193.5110  175.5880  144.7530 C   0  0  2  0  0  3  0  0  0  0  0  0
  188.4430  176.1090  144.0580 C   0  0  0  0  0  0  0  0  0  0  0  0
  186.5530  177.8000  147.3900 C   0  0  1  0  0  3  0  0  0  0  0  0
  189.1110  176.1410  145.3030 C   0  0  0  0  0  0  0  0  0  0  0  0
  187.1150  176.0550  141.6170 C   0  0  0  0  0  3  0  0  0  0  0  0
  192.4390  175.6920  147.0340 C   0  0  0  0  0  3  0  0  0  0  0  0
  186.4740  176.4650  142.7450 N   0  0  0  0  0  0  0  0  0  0  0  0
  191.1640  175.9240  146.7010 C   0  0  0  0  0  3  0  0  0  0  0  0
  192.4700  174.7450  144.0350 C   0  0  1  0  0  3  0  0  0  0  0  0
  188.4550  175.6670  141.6680 C   0  0  0  0  0  3  0  0  0  0  0  0
  190.4580  175.3040  143.0120 C   0  0  0  0  0  0  0  0  0  0  0  0
  194.7770  175.3750  144.1990 O   0  0  0  0  0  0  0  0  0  0  0  0
  195.6160  175.1700  145.2960 C   0  0  0  0  0  2  0  0  0  0  0  0
  196.8130  172.1600  146.1040 N   0  0  0  0  0  0  0  0  0  0  0  0
  196.0890  173.0320  144.1490 C   0  0  0  0  0  3  0  0  0  0  0  0
  196.6820  174.1470  144.9450 C   0  0  2  0  0  3  0  0  0  0  0  0
  196.1900  171.9160  144.8530 C   0  0  0  0  0  3  0  0  0  0  0  0
  197.0970  173.4160  146.1760 C   0  0  0  0  0  3  0  0  0  0  0  0
  1 27  2  0  0  0  0
  1 18  1  0  0  0  0
  2 14  1  0  0  0  0
  2 27  1  0  0  0  0
  3 16  1  1  0  0  0
  3 19  1  0  0  0  0
  3  6  1  0  0  0  0
  3  7  1  0  0  0  0
  4 18  1  0  0  0  0
  4 15  1  0  0  0  0
  5 11  1  1  0  0  0
  5 19  1  0  0  0  0
  6  7  1  1  0  0  0
  8 16  1  0  0  0  0
  9 13  2  0  0  0  0
 10 22  1  0  0  0  0
 12  8  1  0  0  0  0
 13 24  1  0  0  0  0
 14 25  1  0  0  0  0
 15 12  1  6  0  0  0
 15  5  1  0  0  0  0
 17 28  1  6  0  0  0
 17 10  1  0  0  0  0
 18 20  2  0  0  0  0
 19  6  1  0  0  0  0
 20 13  1  0  0  0  0
 20 11  1  0  0  0  0
 21 26  2  0  0  0  0
 21 23  1  0  0  0  0
 23  4  2  0  0  0  0
 24 22  2  0  0  0  0
 25  9  1  0  0  0  0
 25 17  1  0  0  0  0
 26  1  1  0  0  0  0
 27  9  1  0  0  0  0
 28 29  1  0  0  0  0
 30 34  2  0  0  0  0
 31 33  2  0  0  0  0
 31 32  1  0  0  0  0
 32 29  1  0  0  0  0
 32 34  1  0  0  0  0
 33 30  1  0  0  0  0
M  END
>  <MODEL>
2

>  <REMARK>
 VINA RESULT:      -8.8      2.429      4.151
  Name = 
  3 active torsions:
  status: ('A' for Active; 'I' for Inactive)
    1  A    between atoms: C_17  and  O_28
    2  A    between atoms: O_28  and  C_29
    3  A    between atoms: C_29  and  C_32
                            x       y       z     vdW  Elec       q    Type
                         _______ _______ _______ _____ _____    ______ ____

>  <TORSDO>
F 3

$$$$
=
 OpenBabel11112418013D

 34 42  0  0  1  0  0  0  0  0999 V2000
  192.3000  176.1780  145.5280 C   0  0  0  0  0  0  0  0  0  0  0  0
  190.3400  177.2000  146.6970 N   0  0  0  0  0  2  0  0  0  0  0  0
  195.4030  175.0490  140.0760 C   0  0  2  0  0  0  0  0  0  0  0  0
  194.1180  175.2260  144.2320 C   0  0  0  0  0  0  0  0  0  0  0  0
  193.8150  175.0350  141.7990 N   0  0  1  0  0  0  0  0  0  0  0  0
  194.0970  174.8710  139.3110 C   0  0  1  0  0  3  0  0  0  0  0  0
  195.3040  175.1990  138.6830 O   0  0  0  0  0  0  0  0  0  0  0  0
  196.8270  173.8550  141.8180 C   0  0  0  0  0  2  0  0  0  0  0  0
  190.0860  176.3150  144.5710 C   0  0  0  0  0  0  0  0  0  0  0  0
  187.4130  176.5220  142.9650 C   0  0  0  0  0  2  0  0  0  0  0  0
  192.4120  174.6830  142.0230 C   0  0  0  0  0  2  0  0  0  0  0  0
  196.1370  174.8600  142.7710 C   0  0  0  0  0  2  0  0  0  0  0  0
  190.5170  175.7510  143.3530 C   0  0  0  0  0  0  0  0  0  0  0  0
  188.9640  177.4880  146.3110 C   0  0  0  0  0  2  0  0  0  0  0  0
  194.6230  174.5810  142.9600 C   0  0  1  0  0  3  0  0  0  0  0  0
  196.5200  174.0440  140.3090 C   0  0  0  0  0  2  0  0  0  0  0  0
  188.0230  177.5310  143.9180 C   0  0  2  0  0  3  0  0  0  0  0  0
  192.7620  175.5800  144.3370 C   0  0  0  0  0  0  0  0  0  0  0  0
  194.2590  174.2530  140.6580 C   0  0  1  0  0  3  0  0  0  0  0  0
  191.8790  175.3720  143.2520 C   0  0  0  0  0  0  0  0  0  0  0  0
  194.5130  175.9830  146.4570 C   0  0  0  0  0  3  0  0  0  0  0  0
  188.3830  175.9850  141.9570 C   0  0  0  0  0  3  0  0  0  0  0  0
  194.9470  175.4160  145.2990 N   0  0  0  0  0  0  0  0  0  0  0  0
  189.6630  175.6400  142.1420 C   0  0  0  0  0  3  0  0  0  0  0  0
  188.7190  176.7190  144.9970 C   0  0  1  0  0  3  0  0  0  0  0  0
  193.1820  176.3820  146.5920 C   0  0  0  0  0  3  0  0  0  0  0  0
  190.9570  176.5430  145.6070 C   0  0  0  0  0  0  0  0  0  0  0  0
  186.9940  178.2970  144.4720 O   0  0  0  0  0  0  0  0  0  0  0  0
  185.8530  177.5000  144.3540 C   0  0  0  0  0  2  0  0  0  0  0  0
  185.7140  177.4750  147.6900 N   0  0  0  0  0  0  0  0  0  0  0  0
  185.2220  179.0650  146.1610 C   0  0  0  0  0  3  0  0  0  0  0  0
  184.9330  177.7390  145.5390 C   0  0  2  0  0  3  0  0  0  0  0  0
  185.6640  178.8610  147.3920 C   0  0  0  0  0  3  0  0  0  0  0  0
  185.3060  176.8230  146.6540 C   0  0  0  0  0  3  0  0  0  0  0  0
  1 27  1  0  0  0  0
  1 26  2  0  0  0  0
  3 16  1  6  0  0  0
  3 19  1  0  0  0  0
  4 18  2  0  0  0  0
  4 23  1  0  0  0  0
  5 11  1  1  0  0  0
  5 15  1  0  0  0  0
  6  7  1  6  0  0  0
  6  3  1  0  0  0  0
  6 19  1  0  0  0  0
  7  3  1  0  0  0  0
  8 12  1  0  0  0  0
  9 25  1  0  0  0  0
  9 27  2  0  0  0  0
 10 17  1  0  0  0  0
 11 20  1  0  0  0  0
 13  9  1  0  0  0  0
 14  2  1  0  0  0  0
 15 12  1  6  0  0  0
 15  4  1  0  0  0  0
 16  8  1  0  0  0  0
 17 28  1  1  0  0  0
 17 25  1  0  0  0  0
 18  1  1  0  0  0  0
 19  5  1  0  0  0  0
 20 13  2  0  0  0  0
 20 18  1  0  0  0  0
 21 26  1  0  0  0  0
 22 24  2  0  0  0  0
 22 10  1  0  0  0  0
 23 21  2  0  0  0  0
 24 13  1  0  0  0  0
 25 14  1  0  0  0  0
 27  2  1  0  0  0  0
 29 28  1  0  0  0  0
 29 32  1  0  0  0  0
 31 33  2  0  0  0  0
 32 31  1  0  0  0  0
 32 34  1  0  0  0  0
 33 30  1  0  0  0  0
 34 30  2  0  0  0  0
M  END
>  <MODEL>
3

>  <REMARK>
 VINA RESULT:      -8.5      2.909      8.205
  Name = 
  3 active torsions:
  status: ('A' for Active; 'I' for Inactive)
    1  A    between atoms: C_17  and  O_28
    2  A    between atoms: O_28  and  C_29
    3  A    between atoms: C_29  and  C_32
                            x       y       z     vdW  Elec       q    Type
                         _______ _______ _______ _____ _____    ______ ____

>  <TORSDO>
F 3

$$$$
=
 OpenBabel11112418013D

 34 42  0  0  1  0  0  0  0  0999 V2000
  189.4780  174.5550  145.0710 C   0  0  0  0  0  0  0  0  0  0  0  0
  190.8780  172.5400  144.5940 N   0  0  0  0  0  2  0  0  0  0  0  0
  184.4410  178.1650  143.5750 C   0  0  2  0  0  0  0  0  0  0  0  0
  188.0290  176.4790  145.3760 C   0  0  0  0  0  0  0  0  0  0  0  0
  186.5190  177.0810  143.5310 N   0  0  1  0  0  0  0  0  0  0  0  0
  184.6520  177.9280  142.0840 C   0  0  1  0  0  3  0  0  0  0  0  0
  183.4200  178.3160  142.6230 O   0  0  0  0  0  0  0  0  0  0  0  0
  185.5010  179.4160  145.5250 C   0  0  0  0  0  2  0  0  0  0  0  0
  189.8800  173.6940  142.8510 C   0  0  0  0  0  0  0  0  0  0  0  0
  190.0200  172.7230  139.8830 C   0  0  0  0  0  2  0  0  0  0  0  0
  187.5730  176.7220  142.5810 C   0  0  0  0  0  2  0  0  0  0  0  0
  186.0890  178.0190  145.8340 C   0  0  0  0  0  2  0  0  0  0  0  0
  189.0340  174.6570  142.2640 C   0  0  0  0  0  0  0  0  0  0  0  0
  191.1860  171.7790  143.3880 C   0  0  0  0  0  2  0  0  0  0  0  0
  187.1430  177.5570  144.7940 C   0  0  1  0  0  3  0  0  0  0  0  0
  184.4860  179.4700  144.3520 C   0  0  0  0  0  2  0  0  0  0  0  0
  189.9300  171.8900  141.1470 C   0  0  2  0  0  3  0  0  0  0  0  0
  188.6500  175.5550  144.5190 C   0  0  0  0  0  0  0  0  0  0  0  0
  185.8210  178.2210  142.9620 C   0  0  1  0  0  3  0  0  0  0  0  0
  188.4230  175.6030  143.1240 C   0  0  0  0  0  0  0  0  0  0  0  0
  189.0830  175.4730  147.2630 C   0  0  0  0  0  3  0  0  0  0  0  0
  189.0330  173.8480  139.8340 C   0  0  0  0  0  3  0  0  0  0  0  0
  188.2800  176.4260  146.7160 N   0  0  0  0  0  0  0  0  0  0  0  0
  188.6560  174.6640  140.8260 C   0  0  0  0  0  3  0  0  0  0  0  0
  190.7160  172.6470  142.2040 C   0  0  1  0  0  3  0  0  0  0  0  0
  189.6930  174.5150  146.4520 C   0  0  0  0  0  3  0  0  0  0  0  0
  190.0690  173.6330  144.2080 C   0  0  0  0  0  0  0  0  0  0  0  0
  190.5180  170.6460  140.9010 O   0  0  0  0  0  0  0  0  0  0  0  0
  191.3080  170.8430  139.7660 C   0  0  0  0  0  2  0  0  0  0  0  0
  190.4410  169.6350  136.7760 N   0  0  0  0  0  0  0  0  0  0  0  0
  192.4020  169.6440  137.9010 C   0  0  0  0  0  3  0  0  0  0  0  0
  191.3050  169.5870  138.9120 C   0  0  2  0  0  3  0  0  0  0  0  0
  191.8570  169.6680  136.6950 C   0  0  0  0  0  3  0  0  0  0  0  0
  190.1090  169.5910  138.0220 C   0  0  0  0  0  3  0  0  0  0  0  0
  1 26  2  0  0  0  0
  3 16  1  6  0  0  0
  4 23  1  0  0  0  0
  5 11  1  6  0  0  0
  5 15  1  0  0  0  0
  6  7  1  6  0  0  0
  6 19  1  0  0  0  0
  6  3  1  0  0  0  0
  7  3  1  0  0  0  0
  8 12  1  0  0  0  0
  9 27  2  0  0  0  0
 10 17  1  0  0  0  0
 11 20  1  0  0  0  0
 13  9  1  0  0  0  0
 13 20  2  0  0  0  0
 14  2  1  0  0  0  0
 15  4  1  0  0  0  0
 15 12  1  1  0  0  0
 16  8  1  0  0  0  0
 17 28  1  6  0  0  0
 17 25  1  0  0  0  0
 18  1  1  0  0  0  0
 18  4  2  0  0  0  0
 19  5  1  0  0  0  0
 19  3  1  0  0  0  0
 20 18  1  0  0  0  0
 22 10  1  0  0  0  0
 22 24  2  0  0  0  0
 23 21  2  0  0  0  0
 24 13  1  0  0  0  0
 25  9  1  0  0  0  0
 25 14  1  0  0  0  0
 26 21  1  0  0  0  0
 27  2  1  0  0  0  0
 27  1  1  0  0  0  0
 29 28  1  0  0  0  0
 30 34  2  0  0  0  0
 31 32  1  0  0  0  0
 32 29  1  0  0  0  0
 33 30  1  0  0  0  0
 33 31  2  0  0  0  0
 34 32  1  0  0  0  0
M  END
>  <MODEL>
4

>  <REMARK>
 VINA RESULT:      -8.2      4.662      5.434
  Name = 
  3 active torsions:
  status: ('A' for Active; 'I' for Inactive)
    1  A    between atoms: C_17  and  O_28
    2  A    between atoms: O_28  and  C_29
    3  A    between atoms: C_29  and  C_32
                            x       y       z     vdW  Elec       q    Type
                         _______ _______ _______ _____ _____    ______ ____

>  <TORSDO>
F 3

$$$$
=
 OpenBabel11112418013D

 34 42  0  0  1  0  0  0  0  0999 V2000
  192.1800  176.0210  145.5390 C   0  0  0  0  0  0  0  0  0  0  0  0
  190.0330  176.7220  146.6120 N   0  0  0  0  0  2  0  0  0  0  0  0
  195.6130  175.2540  140.2230 C   0  0  2  0  0  0  0  0  0  0  0  0
  194.1800  175.3580  144.3330 C   0  0  0  0  0  0  0  0  0  0  0  0
  193.9960  175.0240  141.9040 N   0  0  1  0  0  0  0  0  0  0  0  0
  194.3850  174.8180  139.4330 C   0  0  1  0  0  3  0  0  0  0  0  0
  195.5350  175.3310  138.8240 O   0  0  0  0  0  0  0  0  0  0  0  0
  197.1660  174.3980  142.0530 C   0  0  0  0  0  2  0  0  0  0  0  0
  190.0100  175.7260  144.5210 C   0  0  0  0  0  0  0  0  0  0  0  0
  187.3970  175.3950  142.8380 C   0  0  0  0  0  2  0  0  0  0  0  0
  192.6700  174.4370  142.1070 C   0  0  0  0  0  2  0  0  0  0  0  0
  196.2790  175.3010  142.9420 C   0  0  0  0  0  2  0  0  0  0  0  0
  190.5730  175.2020  143.3400 C   0  0  0  0  0  0  0  0  0  0  0  0
  188.6410  176.7470  146.1780 C   0  0  0  0  0  2  0  0  0  0  0  0
  194.8320  174.7650  143.1050 C   0  0  1  0  0  3  0  0  0  0  0  0
  196.8800  174.4730  140.5290 C   0  0  0  0  0  2  0  0  0  0  0  0
  187.7880  176.5320  143.7620 C   0  0  2  0  0  3  0  0  0  0  0  0
  192.7790  175.4700  144.3880 C   0  0  0  0  0  0  0  0  0  0  0  0
  194.6080  174.2900  140.8100 C   0  0  1  0  0  3  0  0  0  0  0  0
  191.9830  175.0670  143.2910 C   0  0  0  0  0  0  0  0  0  0  0  0
  194.3610  176.2570  146.5330 C   0  0  0  0  0  3  0  0  0  0  0  0
  188.4790  175.0010  141.8800 C   0  0  0  0  0  3  0  0  0  0  0  0
  194.9260  175.7330  145.4120 N   0  0  0  0  0  0  0  0  0  0  0  0
  189.7930  174.8950  142.1130 C   0  0  0  0  0  3  0  0  0  0  0  0
  188.5790  175.8970  144.8930 C   0  0  1  0  0  3  0  0  0  0  0  0
  192.9760  176.4180  146.6160 C   0  0  0  0  0  3  0  0  0  0  0  0
  190.7910  176.1450  145.5680 C   0  0  0  0  0  0  0  0  0  0  0  0
  186.6210  177.1230  144.2560 O   0  0  0  0  0  0  0  0  0  0  0  0
  186.5080  178.3270  143.5570 C   0  0  0  0  0  2  0  0  0  0  0  0
  183.6890  178.6960  145.3070 N   0  0  0  0  0  0  0  0  0  0  0  0
  185.8590  179.0480  145.8310 C   0  0  0  0  0  3  0  0  0  0  0  0
  185.6990  179.3220  144.3710 C   0  0  2  0  0  3  0  0  0  0  0  0
  184.6810  178.6960  146.3210 C   0  0  0  0  0  3  0  0  0  0  0  0
  184.2450  179.0440  144.1970 C   0  0  0  0  0  3  0  0  0  0  0  0
  1 27  1  0  0  0  0
  1 26  2  0  0  0  0
  3 16  1  6  0  0  0
  3 19  1  0  0  0  0
  4 18  2  0  0  0  0
  4 23  1  0  0  0  0
  5 11  1  1  0  0  0
  5 15  1  0  0  0  0
  6  7  1  6  0  0  0
  6  3  1  0  0  0  0
  6 19  1  0  0  0  0
  7  3  1  0  0  0  0
  8 12  1  0  0  0  0
  9 25  1  0  0  0  0
  9 27  2  0  0  0  0
 10 17  1  0  0  0  0
 11 20  1  0  0  0  0
 13  9  1  0  0  0  0
 14  2  1  0  0  0  0
 15 12  1  6  0  0  0
 15  4  1  0  0  0  0
 16  8  1  0  0  0  0
 17 28  1  1  0  0  0
 17 25  1  0  0  0  0
 18  1  1  0  0  0  0
 19  5  1  0  0  0  0
 20 13  2  0  0  0  0
 20 18  1  0  0  0  0
 21 26  1  0  0  0  0
 22 24  2  0  0  0  0
 22 10  1  0  0  0  0
 23 21  2  0  0  0  0
 24 13  1  0  0  0  0
 25 14  1  0  0  0  0
 27  2  1  0  0  0  0
 29 28  1  0  0  0  0
 29 32  1  0  0  0  0
 30 33  1  0  0  0  0
 31 33  2  0  0  0  0
 32 31  1  0  0  0  0
 34 32  1  0  0  0  0
 34 30  2  0  0  0  0
M  END
>  <MODEL>
5

>  <REMARK>
 VINA RESULT:      -8.2      2.986      8.457
  Name = 
  3 active torsions:
  status: ('A' for Active; 'I' for Inactive)
    1  A    between atoms: C_17  and  O_28
    2  A    between atoms: O_28  and  C_29
    3  A    between atoms: C_29  and  C_32
                            x       y       z     vdW  Elec       q    Type
                         _______ _______ _______ _____ _____    ______ ____

>  <TORSDO>
F 3

$$$$
=
 OpenBabel11112418013D

 34 42  0  0  1  0  0  0  0  0999 V2000
  189.3640  174.8290  142.0410 C   0  0  0  0  0  0  0  0  0  0  0  0
  187.0850  175.6970  142.5920 N   0  0  0  0  0  2  0  0  0  0  0  0
  194.8880  172.3700  144.0610 C   0  0  2  0  0  0  0  0  0  0  0  0
  191.6120  173.9820  141.6890 C   0  0  0  0  0  0  0  0  0  0  0  0
  193.0960  173.8220  143.6430 N   0  0  1  0  0  0  0  0  0  0  0  0
  194.8690  173.2310  145.3180 C   0  0  1  0  0  3  0  0  0  0  0  0
  195.6060  172.0460  145.2220 O   0  0  0  0  0  0  0  0  0  0  0  0
  195.2290  172.5890  141.5460 C   0  0  0  0  0  2  0  0  0  0  0  0
  188.8440  176.0520  144.0580 C   0  0  0  0  0  0  0  0  0  0  0  0
  188.4670  177.4050  146.8500 C   0  0  0  0  0  2  0  0  0  0  0  0
  192.5320  175.0750  144.1470 C   0  0  0  0  0  2  0  0  0  0  0  0
  193.6820  172.5550  141.5410 C   0  0  0  0  0  2  0  0  0  0  0  0
  190.1540  175.9000  144.5550 C   0  0  0  0  0  0  0  0  0  0  0  0
  186.5030  176.3580  143.7540 C   0  0  0  0  0  2  0  0  0  0  0  0
  193.0410  173.8260  142.1580 C   0  0  1  0  0  3  0  0  0  0  0  0
  195.8990  172.3560  142.9260 C   0  0  0  0  0  2  0  0  0  0  0  0
  187.5190  176.4780  146.1130 C   0  0  2  0  0  3  0  0  0  0  0  0
  190.6940  174.6850  142.4890 C   0  0  0  0  0  0  0  0  0  0  0  0
  194.5040  173.8300  144.0020 C   0  0  1  0  0  3  0  0  0  0  0  0
  191.0870  175.2110  143.7410 C   0  0  0  0  0  0  0  0  0  0  0  0
  189.9390  173.6420  140.0260 C   0  0  0  0  0  3  0  0  0  0  0  0
  189.8790  176.9090  146.8920 C   0  0  0  0  0  3  0  0  0  0  0  0
  191.2160  173.5020  140.4750 N   0  0  0  0  0  0  0  0  0  0  0  0
  190.5770  176.3130  145.9190 C   0  0  0  0  0  3  0  0  0  0  0  0
  187.6910  176.7930  144.6370 C   0  0  1  0  0  3  0  0  0  0  0  0
  188.9860  174.3020  140.8030 C   0  0  0  0  0  3  0  0  0  0  0  0
  188.4610  175.5090  142.8570 C   0  0  0  0  0  0  0  0  0  0  0  0
  186.2130  176.7620  146.5230 O   0  0  0  0  0  0  0  0  0  0  0  0
  186.3300  177.9030  147.3220 C   0  0  0  0  0  2  0  0  0  0  0  0
  185.1050  179.5660  144.6980 N   0  0  0  0  0  0  0  0  0  0  0  0
  184.1250  178.2590  146.2600 C   0  0  0  0  0  3  0  0  0  0  0  0
  185.2920  178.9310  146.9050 C   0  0  2  0  0  3  0  0  0  0  0  0
  184.0590  178.6560  144.9990 C   0  0  0  0  0  3  0  0  0  0  0  0
  185.8150  179.7320  145.7630 C   0  0  0  0  0  3  0  0  0  0  0  0
  1 18  2  0  0  0  0
  1 27  1  0  0  0  0
  2 27  1  0  0  0  0
  2 14  1  0  0  0  0
  3 16  1  1  0  0  0
  3  7  1  0  0  0  0
  3  6  1  0  0  0  0
  4 15  1  0  0  0  0
  4 18  1  0  0  0  0
  5 19  1  0  0  0  0
  5 11  1  1  0  0  0
  6  7  1  6  0  0  0
  8 16  1  0  0  0  0
  9 13  1  0  0  0  0
  9 25  1  0  0  0  0
 10 22  1  0  0  0  0
 12  8  1  0  0  0  0
 13 24  1  0  0  0  0
 14 25  1  0  0  0  0
 15 12  1  1  0  0  0
 15  5  1  0  0  0  0
 17 28  1  1  0  0  0
 17 10  1  0  0  0  0
 18 20  1  0  0  0  0
 19  3  1  0  0  0  0
 19  6  1  0  0  0  0
 20 11  1  0  0  0  0
 20 13  2  0  0  0  0
 21 23  1  0  0  0  0
 21 26  2  0  0  0  0
 23  4  2  0  0  0  0
 24 22  2  0  0  0  0
 25 17  1  0  0  0  0
 26  1  1  0  0  0  0
 27  9  2  0  0  0  0
 28 29  1  0  0  0  0
 30 33  1  0  0  0  0
 30 34  2  0  0  0  0
 31 32  1  0  0  0  0
 32 29  1  0  0  0  0
 33 31  2  0  0  0  0
 34 32  1  0  0  0  0
M  END
>  <MODEL>
6

>  <REMARK>
 VINA RESULT:      -8.1      2.902      8.676
  Name = 
  3 active torsions:
  status: ('A' for Active; 'I' for Inactive)
    1  A    between atoms: C_17  and  O_28
    2  A    between atoms: O_28  and  C_29
    3  A    between atoms: C_29  and  C_32
                            x       y       z     vdW  Elec       q    Type
                         _______ _______ _______ _____ _____    ______ ____

>  <TORSDO>
F 3

$$$$
=
 OpenBabel11112418013D

 34 42  0  0  1  0  0  0  0  0999 V2000
  192.5020  175.9260  144.8700 C   0  0  0  0  0  0  0  0  0  0  0  0
  191.0550  177.8400  144.1700 N   0  0  0  0  0  2  0  0  0  0  0  0
  194.6450  170.0270  143.7510 C   0  0  2  0  0  0  0  0  0  0  0  0
  193.8260  173.9650  145.4170 C   0  0  0  0  0  0  0  0  0  0  0  0
  193.2780  171.8570  144.2770 N   0  0  1  0  0  0  0  0  0  0  0  0
  193.2890  169.5820  143.2170 C   0  0  1  0  0  3  0  0  0  0  0  0
  194.4820  168.9230  142.8990 O   0  0  0  0  0  0  0  0  0  0  0  0
  195.7730  170.6530  145.9480 C   0  0  0  0  0  2  0  0  0  0  0  0
  190.3660  175.6640  143.7740 C   0  0  0  0  0  0  0  0  0  0  0  0
  187.7630  174.9810  142.1850 C   0  0  0  0  0  2  0  0  0  0  0  0
  191.8590  172.2020  144.3670 C   0  0  0  0  0  2  0  0  0  0  0  0
  195.5070  172.0890  145.4380 C   0  0  0  0  0  2  0  0  0  0  0  0
  190.5000  174.2620  143.7240 C   0  0  0  0  0  0  0  0  0  0  0  0
  189.8070  177.9510  143.4240 C   0  0  0  0  0  2  0  0  0  0  0  0
  194.0010  172.4630  145.4250 C   0  0  1  0  0  3  0  0  0  0  0  0
  195.4140  169.5140  144.9570 C   0  0  0  0  0  2  0  0  0  0  0  0
  188.7300  176.1270  141.9650 C   0  0  2  0  0  3  0  0  0  0  0  0
  192.6580  174.5230  144.8700 C   0  0  0  0  0  0  0  0  0  0  0  0
  193.3640  170.4170  144.4510 C   0  0  1  0  0  3  0  0  0  0  0  0
  191.6670  173.6950  144.2950 C   0  0  0  0  0  0  0  0  0  0  0  0
  194.6180  176.1360  146.0020 C   0  0  0  0  0  3  0  0  0  0  0  0
  188.4330  173.6510  142.3410 C   0  0  0  0  0  3  0  0  0  0  0  0
  194.7590  174.7830  145.9850 N   0  0  0  0  0  0  0  0  0  0  0  0
  189.5560  173.3630  143.0110 C   0  0  0  0  0  3  0  0  0  0  0  0
  189.2300  176.5230  143.3450 C   0  0  1  0  0  3  0  0  0  0  0  0
  193.4890  176.7350  145.4390 C   0  0  0  0  0  3  0  0  0  0  0  0
  191.3480  176.4630  144.3040 C   0  0  0  0  0  0  0  0  0  0  0  0
  188.0350  177.1880  141.3760 O   0  0  0  0  0  0  0  0  0  0  0  0
  186.6930  176.9480  141.6820 C   0  0  0  0  0  2  0  0  0  0  0  0
  183.8080  178.2680  142.7250 N   0  0  0  0  0  0  0  0  0  0  0  0
  185.9310  178.4710  143.4750 C   0  0  0  0  0  3  0  0  0  0  0  0
  185.9950  178.2600  141.9980 C   0  0  2  0  0  3  0  0  0  0  0  0
  184.6590  178.4700  143.8420 C   0  0  0  0  0  3  0  0  0  0  0  0
  184.5460  178.1450  141.6730 C   0  0  0  0  0  3  0  0  0  0  0  0
  1 26  2  0  0  0  0
  2 27  1  0  0  0  0
  3 19  1  0  0  0  0
  3 16  1  1  0  0  0
  4 15  1  0  0  0  0
  4 23  1  0  0  0  0
  5 11  1  1  0  0  0
  5 19  1  0  0  0  0
  5 15  1  0  0  0  0
  6  7  1  1  0  0  0
  6  3  1  0  0  0  0
  6 19  1  0  0  0  0
  7  3  1  0  0  0  0
  9 27  2  0  0  0  0
 10 22  1  0  0  0  0
 12  8  1  0  0  0  0
 13  9  1  0  0  0  0
 13 20  2  0  0  0  0
 14  2  1  0  0  0  0
 15 12  1  6  0  0  0
 16  8  1  0  0  0  0
 17 28  1  1  0  0  0
 17 10  1  0  0  0  0
 17 25  1  0  0  0  0
 18  1  1  0  0  0  0
 18  4  2  0  0  0  0
 20 11  1  0  0  0  0
 20 18  1  0  0  0  0
 22 24  2  0  0  0  0
 23 21  2  0  0  0  0
 24 13  1  0  0  0  0
 25 14  1  0  0  0  0
 25  9  1  0  0  0  0
 26 21  1  0  0  0  0
 27  1  1  0  0  0  0
 28 29  1  0  0  0  0
 29 32  1  0  0  0  0
 30 33  1  0  0  0  0
 31 33  2  0  0  0  0
 32 31  1  0  0  0  0
 34 32  1  0  0  0  0
 34 30  2  0  0  0  0
M  END
>  <MODEL>
7

>  <REMARK>
 VINA RESULT:      -8.1      2.632      9.111
  Name = 
  3 active torsions:
  status: ('A' for Active; 'I' for Inactive)
    1  A    between atoms: C_17  and  O_28
    2  A    between atoms: O_28  and  C_29
    3  A    between atoms: C_29  and  C_32
                            x       y       z     vdW  Elec       q    Type
                         _______ _______ _______ _____ _____    ______ ____

>  <TORSDO>
F 3

$$$$
=
 OpenBabel11112418013D

 34 42  0  0  1  0  0  0  0  0999 V2000
  192.3840  176.3310  146.2180 C   0  0  0  0  0  0  0  0  0  0  0  0
  194.6600  175.3400  146.5120 N   0  0  0  0  0  2  0  0  0  0  0  0
  187.1380  176.9600  142.6510 C   0  0  2  0  0  0  0  0  0  0  0  0
  190.1750  177.2290  145.7590 C   0  0  0  0  0  0  0  0  0  0  0  0
  189.3370  177.0880  143.4510 N   0  0  1  0  0  0  0  0  0  0  0  0
  187.9530  176.9520  141.3620 C   0  0  1  0  0  3  0  0  0  0  0  0
  186.5920  176.6270  141.4010 O   0  0  0  0  0  0  0  0  0  0  0  0
  186.6670  178.4590  144.6560 C   0  0  0  0  0  2  0  0  0  0  0  0
  193.9180  175.9270  144.3970 C   0  0  0  0  0  0  0  0  0  0  0  0
  195.5660  175.3390  141.8070 C   0  0  0  0  0  2  0  0  0  0  0  0
  190.6890  177.3720  142.9660 C   0  0  0  0  0  2  0  0  0  0  0  0
  187.7130  177.5400  145.3290 C   0  0  0  0  0  2  0  0  0  0  0  0
  192.9800  176.3590  143.4370 C   0  0  0  0  0  0  0  0  0  0  0  0
  195.7090  174.9130  145.5930 C   0  0  0  0  0  2  0  0  0  0  0  0
  189.1480  177.7400  144.7730 C   0  0  1  0  0  3  0  0  0  0  0  0
  186.2520  178.0590  143.2150 C   0  0  0  0  0  2  0  0  0  0  0  0
  195.4550  174.5030  143.0670 C   0  0  2  0  0  3  0  0  0  0  0  0
  191.4300  176.8020  145.2910 C   0  0  0  0  0  0  0  0  0  0  0  0
  188.4230  177.7460  142.5340 C   0  0  1  0  0  3  0  0  0  0  0  0
  191.7230  176.8110  143.9070 C   0  0  0  0  0  0  0  0  0  0  0  0
  190.8370  176.7900  148.0060 C   0  0  0  0  0  3  0  0  0  0  0  0
  194.2440  175.8060  141.2790 C   0  0  0  0  0  3  0  0  0  0  0  0
  189.9240  177.2320  147.0990 N   0  0  0  0  0  0  0  0  0  0  0  0
  193.1890  176.2570  141.9690 C   0  0  0  0  0  3  0  0  0  0  0  0
  195.3290  175.4910  144.2140 C   0  0  1  0  0  3  0  0  0  0  0  0
  192.0830  176.3250  147.5820 C   0  0  0  0  0  3  0  0  0  0  0  0
  193.6150  175.8910  145.7350 C   0  0  0  0  0  0  0  0  0  0  0  0
  196.6240  173.7470  143.2020 O   0  0  0  0  0  0  0  0  0  0  0  0
  196.3360  172.5310  142.5780 C   0  0  0  0  0  2  0  0  0  0  0  0
  197.1870  171.7580  145.7130 N   0  0  0  0  0  0  0  0  0  0  0  0
  195.5780  170.9670  144.3370 C   0  0  0  0  0  3  0  0  0  0  0  0
  196.7340  171.3800  143.4860 C   0  0  2  0  0  3  0  0  0  0  0  0
  195.8870  171.2010  145.6020 C   0  0  0  0  0  3  0  0  0  0  0  0
  197.6820  171.8690  144.5260 C   0  0  0  0  0  3  0  0  0  0  0  0
  1 26  2  0  0  0  0
  3 16  1  6  0  0  0
  4 23  1  0  0  0  0
  5 11  1  6  0  0  0
  5 15  1  0  0  0  0
  6  7  1  6  0  0  0
  6 19  1  0  0  0  0
  6  3  1  0  0  0  0
  7  3  1  0  0  0  0
  8 12  1  0  0  0  0
  9 27  2  0  0  0  0
 10 17  1  0  0  0  0
 11 20  1  0  0  0  0
 13 20  2  0  0  0  0
 13  9  1  0  0  0  0
 14  2  1  0  0  0  0
 15 12  1  1  0  0  0
 15  4  1  0  0  0  0
 16  8  1  0  0  0  0
 17 28  1  1  0  0  0
 17 25  1  0  0  0  0
 18  4  2  0  0  0  0
 18  1  1  0  0  0  0
 19  3  1  0  0  0  0
 19  5  1  0  0  0  0
 20 18  1  0  0  0  0
 22 10  1  0  0  0  0
 22 24  2  0  0  0  0
 23 21  2  0  0  0  0
 24 13  1  0  0  0  0
 25  9  1  0  0  0  0
 25 14  1  0  0  0  0
 26 21  1  0  0  0  0
 27  1  1  0  0  0  0
 27  2  1  0  0  0  0
 29 28  1  0  0  0  0
 29 32  1  0  0  0  0
 31 33  2  0  0  0  0
 32 31  1  0  0  0  0
 32 34  1  0  0  0  0
 33 30  1  0  0  0  0
 34 30  2  0  0  0  0
M  END
>  <MODEL>
8

>  <REMARK>
 VINA RESULT:      -8.0      1.861      3.298
  Name = 
  3 active torsions:
  status: ('A' for Active; 'I' for Inactive)
    1  A    between atoms: C_17  and  O_28
    2  A    between atoms: O_28  and  C_29
    3  A    between atoms: C_29  and  C_32
                            x       y       z     vdW  Elec       q    Type
                         _______ _______ _______ _____ _____    ______ ____

>  <TORSDO>
F 3

$$$$
=
 OpenBabel11112418013D

 34 42  0  0  1  0  0  0  0  0999 V2000
  190.6570  173.9370  141.1790 C   0  0  0  0  0  0  0  0  0  0  0  0
  188.2130  174.2040  141.6340 N   0  0  0  0  0  2  0  0  0  0  0  0
  196.6610  174.3250  143.2860 C   0  0  2  0  0  0  0  0  0  0  0  0
  193.0620  173.7590  140.9010 C   0  0  0  0  0  0  0  0  0  0  0  0
  194.4940  174.8590  142.5710 N   0  0  1  0  0  0  0  0  0  0  0  0
  196.3430  175.5640  144.1140 C   0  0  1  0  0  3  0  0  0  0  0  0
  197.4330  174.7300  144.3860 O   0  0  0  0  0  0  0  0  0  0  0  0
  196.9370  173.6150  140.8550 C   0  0  0  0  0  2  0  0  0  0  0  0
  189.7380  175.6380  142.6260 C   0  0  0  0  0  0  0  0  0  0  0  0
  188.9020  177.8050  144.7180 C   0  0  0  0  0  2  0  0  0  0  0  0
  193.5400  175.9680  142.6260 C   0  0  0  0  0  2  0  0  0  0  0  0
  195.4900  173.1060  141.0540 C   0  0  0  0  0  2  0  0  0  0  0  0
  191.0190  176.1100  142.9790 C   0  0  0  0  0  0  0  0  0  0  0  0
  187.4320  175.0600  142.5200 C   0  0  0  0  0  2  0  0  0  0  0  0
  194.4570  174.2520  141.2150 C   0  0  1  0  0  3  0  0  0  0  0  0
  197.6310  174.1710  142.1270 C   0  0  0  0  0  2  0  0  0  0  0  0
  188.3240  176.4190  144.5120 C   0  0  2  0  0  3  0  0  0  0  0  0
  191.9540  174.4020  141.4800 C   0  0  0  0  0  0  0  0  0  0  0  0
  195.8150  175.4430  142.7240 C   0  0  1  0  0  3  0  0  0  0  0  0
  192.1360  175.4780  142.3800 C   0  0  0  0  0  0  0  0  0  0  0  0
  191.6150  172.2850  139.7120 C   0  0  0  0  0  3  0  0  0  0  0  0
  190.3990  177.8300  144.7720 C   0  0  0  0  0  3  0  0  0  0  0  0
  192.8610  172.7380  140.0200 N   0  0  0  0  0  0  0  0  0  0  0  0
  191.2660  177.1410  144.0200 C   0  0  0  0  0  3  0  0  0  0  0  0
  188.3980  176.1540  143.0170 C   0  0  1  0  0  3  0  0  0  0  0  0
  190.4880  172.8720  140.2910 C   0  0  0  0  0  3  0  0  0  0  0  0
  189.5710  174.5720  141.7790 C   0  0  0  0  0  0  0  0  0  0  0  0
  186.9930  176.4250  144.9400 O   0  0  0  0  0  0  0  0  0  0  0  0
  187.0670  176.4070  146.3350 C   0  0  0  0  0  2  0  0  0  0  0  0
  185.6810  179.3010  147.2590 N   0  0  0  0  0  0  0  0  0  0  0  0
  184.9970  177.6700  145.8520 C   0  0  0  0  0  3  0  0  0  0  0  0
  185.8110  177.0250  146.9250 C   0  0  2  0  0  3  0  0  0  0  0  0
  184.9500  178.9710  146.0890 C   0  0  0  0  0  3  0  0  0  0  0  0
  186.1780  178.2140  147.7450 C   0  0  0  0  0  3  0  0  0  0  0  0
  1 18  2  0  0  0  0
  1 27  1  0  0  0  0
  2 27  1  0  0  0  0
  2 14  1  0  0  0  0
  3 16  1  6  0  0  0
  3  6  1  0  0  0  0
  3  7  1  0  0  0  0
  4 15  1  0  0  0  0
  4 18  1  0  0  0  0
  5 11  1  6  0  0  0
  5 19  1  0  0  0  0
  6  7  1  6  0  0  0
  8 12  1  0  0  0  0
  8 16  1  0  0  0  0
  9 13  1  0  0  0  0
  9 25  1  0  0  0  0
 10 22  1  0  0  0  0
 13 24  1  0  0  0  0
 14 25  1  0  0  0  0
 15 12  1  1  0  0  0
 15  5  1  0  0  0  0
 17 10  1  0  0  0  0
 17 28  1  6  0  0  0
 18 20  1  0  0  0  0
 19  3  1  0  0  0  0
 19  6  1  0  0  0  0
 20 11  1  0  0  0  0
 20 13  2  0  0  0  0
 21 23  1  0  0  0  0
 21 26  2  0  0  0  0
 23  4  2  0  0  0  0
 24 22  2  0  0  0  0
 25 17  1  0  0  0  0
 26  1  1  0  0  0  0
 27  9  2  0  0  0  0
 28 29  1  0  0  0  0
 29 32  1  0  0  0  0
 30 34  2  0  0  0  0
 31 33  2  0  0  0  0
 31 32  1  0  0  0  0
 32 34  1  0  0  0  0
 33 30  1  0  0  0  0
M  END
>  <MODEL>
9

>  <REMARK>
 VINA RESULT:      -7.9      3.311      8.898
  Name = 
  3 active torsions:
  status: ('A' for Active; 'I' for Inactive)
    1  A    between atoms: C_17  and  O_28
    2  A    between atoms: O_28  and  C_29
    3  A    between atoms: C_29  and  C_32
                            x       y       z     vdW  Elec       q    Type
                         _______ _______ _______ _____ _____    ______ ____

>  <TORSDO>
F 3

$$$$
