=
 OpenBabel11112418003D

 34 40  0  0  0  0  0  0  0  0999 V2000
  186.6170  177.9870  145.1720 C   0  0  0  0  0  0  0  0  0  0  0  0
  184.1570  178.6390  144.7340 C   0  0  0  0  0  3  0  0  0  0  0  0
  190.8830  174.0640  144.2180 O   0  0  0  0  0  0  0  0  0  0  0  0
  188.9640  177.3470  145.4420 C   0  0  0  0  0  0  0  0  0  0  0  0
  190.3020  176.7890  143.4870 C   0  0  0  0  0  0  0  0  0  0  0  0
  191.5420  175.1410  142.1690 C   0  0  0  0  0  2  0  0  0  0  0  0
  191.7490  173.9620  143.1190 C   0  0  0  0  0  2  0  0  0  0  0  0
  192.3450  175.5940  145.4310 C   0  0  0  0  0  2  0  0  0  0  0  0
  185.6300  178.0490  142.9580 C   0  0  0  0  0  0  0  0  0  0  0  0
  184.7580  178.0070  140.0130 N   0  0  0  0  0  0  0  0  0  0  0  0
  189.1930  177.0180  142.6690 C   0  0  0  0  0  3  0  0  0  0  0  0
  191.3790  176.7190  145.8110 C   0  0  0  0  0  2  0  0  0  0  0  0
  186.8320  177.6510  142.3530 C   0  0  0  0  0  0  0  0  0  0  0  0
  183.4390  178.7180  143.4690 N   0  0  0  0  0  0  0  0  0  0  0  0
  190.1970  176.9390  144.8870 C   0  0  0  0  0  0  0  0  0  0  0  0
  191.6960  174.2070  145.3550 C   0  0  0  0  0  2  0  0  0  0  0  0
  183.9210  178.3520  141.1260 C   0  0  0  0  0  0  0  0  0  0  0  0
  187.8470  177.5840  144.6030 C   0  0  0  0  0  0  0  0  0  0  0  0
  191.4940  176.3620  142.9000 O   0  0  0  0  0  0  0  0  0  0  0  0
  187.9560  177.4170  143.1970 C   0  0  0  0  0  0  0  0  0  0  0  0
  187.6040  177.9210  147.3820 C   0  0  0  0  0  3  0  0  0  0  0  0
  186.0020  177.6490  139.9400 C   0  0  0  0  0  3  0  0  0  0  0  0
  188.8230  177.5220  146.8300 C   0  0  0  0  0  3  0  0  0  0  0  0
  186.9680  177.4840  141.0330 C   0  0  0  0  0  3  0  0  0  0  0  0
  184.3220  178.3640  142.4040 C   0  0  0  0  0  0  0  0  0  0  0  0
  186.5050  178.1530  146.5570 C   0  0  0  0  0  3  0  0  0  0  0  0
  185.5300  178.2120  144.3280 C   0  0  0  0  0  0  0  0  0  0  0  0
  182.5270  178.7160  140.8300 C   0  0  0  0  0  3  0  0  0  0  0  0
  181.5990  177.8170  140.7670 N   0  0  0  0  0  0  0  0  0  0  0  0
  178.7990  180.0410  141.0770 C   0  0  0  0  0  2  0  0  0  0  0  0
  179.3210  177.7440  141.6150 C   0  0  0  0  0  2  0  0  0  0  0  0
  180.2230  178.1870  140.4750 C   0  0  0  0  0  3  0  0  0  0  0  0
  178.6480  178.9920  142.1530 C   0  0  0  0  0  2  0  0  0  0  0  0
  180.0910  179.6970  140.3750 C   0  0  0  0  0  2  0  0  0  0  0  0
  1 26  2  0  0  0  0
  3 16  1  0  0  0  0
  4 23  1  0  0  0  0
  5 15  1  0  0  0  0
  6 19  1  0  0  0  0
  6  7  1  0  0  0  0
  7  3  1  0  0  0  0
  8 12  1  0  0  0  0
  9 27  2  0  0  0  0
 10 17  1  0  0  0  0
 11 20  1  0  0  0  0
 11  5  2  0  0  0  0
 13  9  1  0  0  0  0
 13 20  1  0  0  0  0
 14  2  2  0  0  0  0
 15  4  2  0  0  0  0
 15 12  1  0  0  0  0
 16  8  1  0  0  0  0
 17 25  2  0  0  0  0
 18  1  1  0  0  0  0
 18  4  1  0  0  0  0
 19  5  1  0  0  0  0
 20 18  2  0  0  0  0
 22 10  2  0  0  0  0
 22 24  1  0  0  0  0
 23 21  2  0  0  0  0
 24 13  2  0  0  0  0
 25  9  1  0  0  0  0
 25 14  1  0  0  0  0
 26 21  1  0  0  0  0
 27  2  1  0  0  0  0
 27  1  1  0  0  0  0
 28 17  1  0  0  0  0
 29 28  2  0  0  0  0
 30 33  1  0  0  0  0
 31 33  1  0  0  0  0
 32 29  1  0  0  0  0
 32 31  1  0  0  0  0
 34 32  1  0  0  0  0
 34 30  1  0  0  0  0
M  END
>  <MODEL>
1

>  <REMARK>
 VINA RESULT:     -10.0      0.000      0.000
  Name = 
  2 active torsions:
  status: ('A' for Active; 'I' for Inactive)
    1  A    between atoms: C_17  and  C_28
    2  A    between atoms: N_29  and  C_32
                            x       y       z     vdW  Elec       q    Type
                         _______ _______ _______ _____ _____    ______ ____

>  <TORSDO>
F 2

$$$$
=
 OpenBabel11112418003D

 34 40  0  0  0  0  0  0  0  0999 V2000
  187.0770  176.6310  144.9270 C   0  0  0  0  0  0  0  0  0  0  0  0
  184.8050  177.8360  144.7040 C   0  0  0  0  0  3  0  0  0  0  0  0
  190.4090  172.1110  143.2020 O   0  0  0  0  0  0  0  0  0  0  0  0
  189.2410  175.4870  144.9910 C   0  0  0  0  0  0  0  0  0  0  0  0
  190.4050  174.9780  142.9140 C   0  0  0  0  0  0  0  0  0  0  0  0
  191.2520  173.3360  141.3090 C   0  0  0  0  0  2  0  0  0  0  0  0
  191.2180  172.0060  142.0620 C   0  0  0  0  0  2  0  0  0  0  0  0
  192.1760  173.0990  144.5620 C   0  0  0  0  0  2  0  0  0  0  0  0
  186.0960  177.2410  142.7950 C   0  0  0  0  0  0  0  0  0  0  0  0
  185.1960  177.8390  139.9200 N   0  0  0  0  0  0  0  0  0  0  0  0
  189.3580  175.5550  142.1920 C   0  0  0  0  0  3  0  0  0  0  0  0
  191.4740  174.3250  145.1500 C   0  0  0  0  0  2  0  0  0  0  0  0
  187.1800  176.7030  142.0830 C   0  0  0  0  0  0  0  0  0  0  0  0
  184.1030  178.2580  143.5010 N   0  0  0  0  0  0  0  0  0  0  0  0
  190.3520  174.9250  144.3250 C   0  0  0  0  0  0  0  0  0  0  0  0
  191.2480  171.9040  144.3080 C   0  0  0  0  0  2  0  0  0  0  0  0
  184.4650  178.1710  141.1090 C   0  0  0  0  0  0  0  0  0  0  0  0
  188.1870  176.0770  144.2490 C   0  0  0  0  0  0  0  0  0  0  0  0
  191.4720  174.4110  142.2170 O   0  0  0  0  0  0  0  0  0  0  0  0
  188.2410  176.1130  142.8300 C   0  0  0  0  0  0  0  0  0  0  0  0
  188.0590  176.0190  147.0550 C   0  0  0  0  0  3  0  0  0  0  0  0
  186.3360  177.2480  139.7370 C   0  0  0  0  0  3  0  0  0  0  0  0
  189.1580  175.4680  146.3940 C   0  0  0  0  0  3  0  0  0  0  0  0
  187.2590  176.7190  140.7480 C   0  0  0  0  0  3  0  0  0  0  0  0
  184.8770  177.9010  142.3550 C   0  0  0  0  0  0  0  0  0  0  0  0
  187.0220  176.5980  146.3260 C   0  0  0  0  0  3  0  0  0  0  0  0
  186.0510  177.2040  144.1780 C   0  0  0  0  0  0  0  0  0  0  0  0
  183.1750  178.8560  140.9350 C   0  0  0  0  0  3  0  0  0  0  0  0
  182.0690  178.1910  140.8520 N   0  0  0  0  0  0  0  0  0  0  0  0
  178.6990  178.8800  141.8720 C   0  0  0  0  0  2  0  0  0  0  0  0
  179.8270  177.9770  139.9360 C   0  0  0  0  0  2  0  0  0  0  0  0
  180.7990  178.8770  140.6810 C   0  0  0  0  0  3  0  0  0  0  0  0
  178.6290  177.7760  140.8440 C   0  0  0  0  0  2  0  0  0  0  0  0
  180.1710  179.1720  142.0340 C   0  0  0  0  0  2  0  0  0  0  0  0
  1 26  2  0  0  0  0
  3 16  1  0  0  0  0
  4 23  1  0  0  0  0
  5 15  1  0  0  0  0
  6  7  1  0  0  0  0
  6 19  1  0  0  0  0
  7  3  1  0  0  0  0
  8 12  1  0  0  0  0
  9 27  2  0  0  0  0
 10 17  1  0  0  0  0
 11 20  1  0  0  0  0
 11  5  2  0  0  0  0
 13  9  1  0  0  0  0
 13 20  1  0  0  0  0
 14  2  2  0  0  0  0
 15  4  2  0  0  0  0
 15 12  1  0  0  0  0
 16  8  1  0  0  0  0
 17 25  2  0  0  0  0
 18  1  1  0  0  0  0
 18  4  1  0  0  0  0
 19  5  1  0  0  0  0
 20 18  2  0  0  0  0
 22 10  2  0  0  0  0
 22 24  1  0  0  0  0
 23 21  2  0  0  0  0
 24 13  2  0  0  0  0
 25  9  1  0  0  0  0
 25 14  1  0  0  0  0
 26 21  1  0  0  0  0
 27  2  1  0  0  0  0
 27  1  1  0  0  0  0
 28 17  1  0  0  0  0
 29 28  2  0  0  0  0
 30 34  1  0  0  0  0
 31 32  1  0  0  0  0
 31 33  1  0  0  0  0
 32 29  1  0  0  0  0
 32 34  1  0  0  0  0
 33 30  1  0  0  0  0
M  END
>  <MODEL>
2

>  <REMARK>
 VINA RESULT:      -9.4      1.392      1.632
  Name = 
  2 active torsions:
  status: ('A' for Active; 'I' for Inactive)
    1  A    between atoms: C_17  and  C_28
    2  A    between atoms: N_29  and  C_32
                            x       y       z     vdW  Elec       q    Type
                         _______ _______ _______ _____ _____    ______ ____

>  <TORSDO>
F 2

$$$$
=
 OpenBabel11112418003D

 34 40  0  0  0  0  0  0  0  0999 V2000
  187.4770  176.1130  140.9050 C   0  0  0  0  0  0  0  0  0  0  0  0
  188.3260  174.3790  139.1920 C   0  0  0  0  0  3  0  0  0  0  0  0
  184.9420  176.9930  146.1300 O   0  0  0  0  0  0  0  0  0  0  0  0
  186.7470  177.6850  142.6340 C   0  0  0  0  0  0  0  0  0  0  0  0
  187.5240  177.4150  144.9250 C   0  0  0  0  0  0  0  0  0  0  0  0
  187.0580  176.9110  147.2740 C   0  0  0  0  0  2  0  0  0  0  0  0
  185.5380  177.0190  147.4000 C   0  0  0  0  0  2  0  0  0  0  0  0
  185.3090  179.3710  145.7310 C   0  0  0  0  0  2  0  0  0  0  0  0
  188.9610  174.2850  141.4850 C   0  0  0  0  0  0  0  0  0  0  0  0
  190.8270  172.1210  142.6120 N   0  0  0  0  0  0  0  0  0  0  0  0
  188.2510  176.2870  144.5400 C   0  0  0  0  0  3  0  0  0  0  0  0
  185.9610  179.3620  144.3470 C   0  0  0  0  0  2  0  0  0  0  0  0
  189.0060  174.6790  142.8320 C   0  0  0  0  0  0  0  0  0  0  0  0
  189.2120  173.2410  139.3980 N   0  0  0  0  0  0  0  0  0  0  0  0
  186.7510  178.1210  143.9770 C   0  0  0  0  0  0  0  0  0  0  0  0
  184.3060  178.2340  145.9620 C   0  0  0  0  0  2  0  0  0  0  0  0
  190.4080  172.2320  141.2440 C   0  0  0  0  0  0  0  0  0  0  0  0
  187.4940  176.5430  142.2520 C   0  0  0  0  0  0  0  0  0  0  0  0
  187.5350  177.7980  146.2670 O   0  0  0  0  0  0  0  0  0  0  0  0
  188.2570  175.8290  143.2140 C   0  0  0  0  0  0  0  0  0  0  0  0
  185.9920  177.9380  140.3300 C   0  0  0  0  0  3  0  0  0  0  0  0
  190.5630  172.8350  143.6620 C   0  0  0  0  0  3  0  0  0  0  0  0
  186.0020  178.3690  141.6580 C   0  0  0  0  0  3  0  0  0  0  0  0
  189.7130  174.0280  143.7620 C   0  0  0  0  0  3  0  0  0  0  0  0
  189.5920  173.1850  140.7730 C   0  0  0  0  0  0  0  0  0  0  0  0
  186.7260  176.8140  139.9540 C   0  0  0  0  0  3  0  0  0  0  0  0
  188.2170  174.9860  140.5520 C   0  0  0  0  0  0  0  0  0  0  0  0
  190.9150  171.2210  140.3030 C   0  0  0  0  0  3  0  0  0  0  0  0
  191.1210  170.0010  140.6770 N   0  0  0  0  0  0  0  0  0  0  0  0
  191.8420  168.9030  137.3370 C   0  0  0  0  0  2  0  0  0  0  0  0
  190.4630  168.1930  139.1900 C   0  0  0  0  0  2  0  0  0  0  0  0
  191.6220  169.0090  139.7390 C   0  0  0  0  0  3  0  0  0  0  0  0
  190.4680  168.3790  137.6840 C   0  0  0  0  0  2  0  0  0  0  0  0
  192.2790  169.6900  138.5500 C   0  0  0  0  0  2  0  0  0  0  0  0
  1 18  2  0  0  0  0
  2 14  2  0  0  0  0
  2 27  1  0  0  0  0
  3  7  1  0  0  0  0
  4 15  1  0  0  0  0
  5 19  1  0  0  0  0
  6  7  1  0  0  0  0
  8 16  1  0  0  0  0
  9 13  1  0  0  0  0
 10 22  2  0  0  0  0
 11  5  1  0  0  0  0
 12  8  1  0  0  0  0
 13 20  1  0  0  0  0
 13 24  2  0  0  0  0
 14 25  1  0  0  0  0
 15 12  1  0  0  0  0
 15  5  2  0  0  0  0
 16  3  1  0  0  0  0
 17 10  1  0  0  0  0
 18  4  1  0  0  0  0
 18 20  1  0  0  0  0
 19  6  1  0  0  0  0
 20 11  2  0  0  0  0
 21 23  1  0  0  0  0
 22 24  1  0  0  0  0
 23  4  2  0  0  0  0
 25 17  2  0  0  0  0
 25  9  1  0  0  0  0
 26 21  2  0  0  0  0
 26  1  1  0  0  0  0
 27  1  1  0  0  0  0
 27  9  2  0  0  0  0
 28 29  2  0  0  0  0
 28 17  1  0  0  0  0
 30 33  1  0  0  0  0
 30 34  1  0  0  0  0
 31 32  1  0  0  0  0
 32 29  1  0  0  0  0
 33 31  1  0  0  0  0
 34 32  1  0  0  0  0
M  END
>  <MODEL>
3

>  <REMARK>
 VINA RESULT:      -8.9      4.377      8.810
  Name = 
  2 active torsions:
  status: ('A' for Active; 'I' for Inactive)
    1  A    between atoms: C_17  and  C_28
    2  A    between atoms: N_29  and  C_32
                            x       y       z     vdW  Elec       q    Type
                         _______ _______ _______ _____ _____    ______ ____

>  <TORSDO>
F 2

$$$$
=
 OpenBabel11112418003D

 34 40  0  0  0  0  0  0  0  0999 V2000
  194.3030  175.1900  145.3970 C   0  0  0  0  0  0  0  0  0  0  0  0
  192.4320  175.5090  147.1470 C   0  0  0  0  0  3  0  0  0  0  0  0
  195.7190  173.2040  140.0540 O   0  0  0  0  0  0  0  0  0  0  0  0
  195.9880  174.9490  143.6370 C   0  0  0  0  0  0  0  0  0  0  0  0
  195.5160  175.7490  141.3870 C   0  0  0  0  0  0  0  0  0  0  0  0
  195.1150  175.2900  139.0170 C   0  0  0  0  0  2  0  0  0  0  0  0
  195.5880  173.8500  138.8160 C   0  0  0  0  0  2  0  0  0  0  0  0
  197.9410  174.1160  140.4760 C   0  0  0  0  0  2  0  0  0  0  0  0
  192.1650  176.2140  144.8890 C   0  0  0  0  0  0  0  0  0  0  0  0
  189.6020  177.5530  143.8510 N   0  0  0  0  0  0  0  0  0  0  0  0
  194.2480  176.1620  141.8060 C   0  0  0  0  0  3  0  0  0  0  0  0
  197.7880  174.6770  141.8910 C   0  0  0  0  0  2  0  0  0  0  0  0
  192.5230  176.4190  143.5460 C   0  0  0  0  0  0  0  0  0  0  0  0
  191.1120  176.1020  146.9830 N   0  0  0  0  0  0  0  0  0  0  0  0
  196.3970  175.1240  142.2970 C   0  0  0  0  0  0  0  0  0  0  0  0
  197.0780  172.8800  140.1930 C   0  0  0  0  0  2  0  0  0  0  0  0
  189.8250  177.1070  145.1960 C   0  0  0  0  0  0  0  0  0  0  0  0
  194.7030  175.3770  144.0540 C   0  0  0  0  0  0  0  0  0  0  0  0
  195.8700  175.9180  140.0490 O   0  0  0  0  0  0  0  0  0  0  0  0
  193.8160  175.9910  143.1300 C   0  0  0  0  0  0  0  0  0  0  0  0
  196.4390  174.1660  145.9010 C   0  0  0  0  0  3  0  0  0  0  0  0
  190.3480  177.5220  142.7910 C   0  0  0  0  0  3  0  0  0  0  0  0
  196.8410  174.3450  144.5770 C   0  0  0  0  0  3  0  0  0  0  0  0
  191.7100  176.9920  142.6520 C   0  0  0  0  0  3  0  0  0  0  0  0
  190.9520  176.5250  145.6280 C   0  0  0  0  0  0  0  0  0  0  0  0
  195.1750  174.5860  146.3110 C   0  0  0  0  0  3  0  0  0  0  0  0
  193.0340  175.6170  145.7840 C   0  0  0  0  0  0  0  0  0  0  0  0
  188.7310  177.3070  146.1590 C   0  0  0  0  0  3  0  0  0  0  0  0
  187.5580  176.8030  145.9560 N   0  0  0  0  0  0  0  0  0  0  0  0
  184.4280  178.2720  146.9160 C   0  0  0  0  0  2  0  0  0  0  0  0
  186.7190  178.2960  147.6820 C   0  0  0  0  0  2  0  0  0  0  0  0
  186.4830  177.0060  146.9140 C   0  0  0  0  0  3  0  0  0  0  0  0
  185.5160  179.1850  147.4290 C   0  0  0  0  0  2  0  0  0  0  0  0
  185.1550  177.1630  146.1930 C   0  0  0  0  0  2  0  0  0  0  0  0
  1 27  1  0  0  0  0
  1 26  1  0  0  0  0
  3 16  1  0  0  0  0
  4 18  1  0  0  0  0
  4 23  2  0  0  0  0
  5 11  1  0  0  0  0
  5 15  2  0  0  0  0
  6 19  1  0  0  0  0
  7  6  1  0  0  0  0
  7  3  1  0  0  0  0
  8 12  1  0  0  0  0
  9 25  1  0  0  0  0
  9 27  1  0  0  0  0
 10 17  2  0  0  0  0
 11 20  2  0  0  0  0
 12 15  1  0  0  0  0
 13  9  2  0  0  0  0
 14  2  1  0  0  0  0
 15  4  1  0  0  0  0
 16  8  1  0  0  0  0
 17 25  1  0  0  0  0
 17 28  1  0  0  0  0
 18  1  2  0  0  0  0
 19  5  1  0  0  0  0
 20 13  1  0  0  0  0
 20 18  1  0  0  0  0
 21 26  2  0  0  0  0
 22 10  1  0  0  0  0
 23 21  1  0  0  0  0
 24 22  2  0  0  0  0
 24 13  1  0  0  0  0
 25 14  2  0  0  0  0
 27  2  2  0  0  0  0
 29 28  2  0  0  0  0
 29 32  1  0  0  0  0
 30 33  1  0  0  0  0
 32 31  1  0  0  0  0
 33 31  1  0  0  0  0
 34 32  1  0  0  0  0
 34 30  1  0  0  0  0
M  END
>  <MODEL>
4

>  <REMARK>
 VINA RESULT:      -8.7      4.513      7.505
  Name = 
  2 active torsions:
  status: ('A' for Active; 'I' for Inactive)
    1  A    between atoms: C_17  and  C_28
    2  A    between atoms: N_29  and  C_32
                            x       y       z     vdW  Elec       q    Type
                         _______ _______ _______ _____ _____    ______ ____

>  <TORSDO>
F 2

$$$$
=
 OpenBabel11112418003D

 34 40  0  0  0  0  0  0  0  0999 V2000
  192.8490  175.3590  145.0570 C   0  0  0  0  0  0  0  0  0  0  0  0
  190.9710  177.1300  145.0480 C   0  0  0  0  0  3  0  0  0  0  0  0
  194.2590  169.7270  145.9530 O   0  0  0  0  0  0  0  0  0  0  0  0
  194.5420  173.5920  144.9830 C   0  0  0  0  0  0  0  0  0  0  0  0
  194.1120  171.5510  143.7280 C   0  0  0  0  0  0  0  0  0  0  0  0
  193.7220  169.1360  143.6820 C   0  0  0  0  0  2  0  0  0  0  0  0
  194.1560  168.6470  145.0640 C   0  0  0  0  0  2  0  0  0  0  0  0
  196.5010  170.3340  145.2100 C   0  0  0  0  0  2  0  0  0  0  0  0
  190.7430  175.0620  143.8900 C   0  0  0  0  0  0  0  0  0  0  0  0
  188.2280  174.3100  142.2960 N   0  0  0  0  0  0  0  0  0  0  0  0
  192.8530  172.0410  143.3730 C   0  0  0  0  0  3  0  0  0  0  0  0
  196.3500  171.8330  144.9440 C   0  0  0  0  0  2  0  0  0  0  0  0
  191.1190  173.7910  143.4260 C   0  0  0  0  0  0  0  0  0  0  0  0
  189.6690  177.0850  144.3970 N   0  0  0  0  0  0  0  0  0  0  0  0
  194.9680  172.3170  144.5500 C   0  0  0  0  0  0  0  0  0  0  0  0
  195.6080  169.8020  146.3370 C   0  0  0  0  0  2  0  0  0  0  0  0
  188.4260  175.5370  143.0130 C   0  0  0  0  0  0  0  0  0  0  0  0
  193.2650  174.0830  144.6110 C   0  0  0  0  0  0  0  0  0  0  0  0
  194.4840  170.2760  143.3000 O   0  0  0  0  0  0  0  0  0  0  0  0
  192.4050  173.3000  143.7970 C   0  0  0  0  0  0  0  0  0  0  0  0
  194.9510  175.6500  146.2230 C   0  0  0  0  0  3  0  0  0  0  0  0
  188.9830  173.2680  142.1310 C   0  0  0  0  0  3  0  0  0  0  0  0
  195.3700  174.3920  145.7890 C   0  0  0  0  0  3  0  0  0  0  0  0
  190.3310  173.0290  142.6600 C   0  0  0  0  0  3  0  0  0  0  0  0
  189.5330  175.8450  143.7020 C   0  0  0  0  0  0  0  0  0  0  0  0
  193.6950  176.1330  145.8590 C   0  0  0  0  0  3  0  0  0  0  0  0
  191.5880  175.8200  144.6820 C   0  0  0  0  0  0  0  0  0  0  0  0
  187.3290  176.5170  142.9810 C   0  0  0  0  0  3  0  0  0  0  0  0
  186.4300  176.5470  143.9100 N   0  0  0  0  0  0  0  0  0  0  0  0
  185.2090  179.9110  144.1760 C   0  0  0  0  0  2  0  0  0  0  0  0
  184.8550  177.7920  145.2820 C   0  0  0  0  0  2  0  0  0  0  0  0
  185.3500  177.5200  143.8710 C   0  0  0  0  0  3  0  0  0  0  0  0
  185.0440  179.2760  145.5360 C   0  0  0  0  0  2  0  0  0  0  0  0
  185.8530  178.8450  143.3220 C   0  0  0  0  0  2  0  0  0  0  0  0
  1 26  2  0  0  0  0
  3 16  1  0  0  0  0
  4 23  1  0  0  0  0
  5 15  1  0  0  0  0
  6  7  1  0  0  0  0
  7  3  1  0  0  0  0
  8 16  1  0  0  0  0
  9 27  2  0  0  0  0
 10 17  1  0  0  0  0
 11  5  2  0  0  0  0
 11 20  1  0  0  0  0
 12  8  1  0  0  0  0
 13 20  1  0  0  0  0
 13  9  1  0  0  0  0
 14  2  2  0  0  0  0
 15 12  1  0  0  0  0
 15  4  2  0  0  0  0
 17 25  2  0  0  0  0
 18  4  1  0  0  0  0
 18  1  1  0  0  0  0
 19  6  1  0  0  0  0
 19  5  1  0  0  0  0
 20 18  2  0  0  0  0
 22 10  2  0  0  0  0
 22 24  1  0  0  0  0
 23 21  2  0  0  0  0
 24 13  2  0  0  0  0
 25  9  1  0  0  0  0
 25 14  1  0  0  0  0
 26 21  1  0  0  0  0
 27  2  1  0  0  0  0
 27  1  1  0  0  0  0
 28 17  1  0  0  0  0
 28 29  2  0  0  0  0
 30 33  1  0  0  0  0
 31 33  1  0  0  0  0
 32 29  1  0  0  0  0
 32 31  1  0  0  0  0
 34 32  1  0  0  0  0
 34 30  1  0  0  0  0
M  END
>  <MODEL>
5

>  <REMARK>
 VINA RESULT:      -8.3      3.693      6.462
  Name = 
  2 active torsions:
  status: ('A' for Active; 'I' for Inactive)
    1  A    between atoms: C_17  and  C_28
    2  A    between atoms: N_29  and  C_32
                            x       y       z     vdW  Elec       q    Type
                         _______ _______ _______ _____ _____    ______ ____

>  <TORSDO>
F 2

$$$$
=
 OpenBabel11112418003D

 34 40  0  0  0  0  0  0  0  0999 V2000
  191.2570  173.6420  143.2340 C   0  0  0  0  0  0  0  0  0  0  0  0
  189.0140  174.9100  143.3910 C   0  0  0  0  0  3  0  0  0  0  0  0
  197.1140  174.0090  143.5060 O   0  0  0  0  0  0  0  0  0  0  0  0
  193.4250  172.5040  143.2130 C   0  0  0  0  0  0  0  0  0  0  0  0
  194.9860  172.8330  145.0510 C   0  0  0  0  0  0  0  0  0  0  0  0
  197.1140  173.6990  145.8930 C   0  0  0  0  0  2  0  0  0  0  0  0
  197.9410  173.9810  144.6380 C   0  0  0  0  0  2  0  0  0  0  0  0
  197.1200  171.5840  143.2430 C   0  0  0  0  0  2  0  0  0  0  0  0
  190.6800  175.1040  145.0810 C   0  0  0  0  0  0  0  0  0  0  0  0
  190.3270  176.8580  147.5770 N   0  0  0  0  0  0  0  0  0  0  0  0
  194.0750  173.6970  145.6630 C   0  0  0  0  0  3  0  0  0  0  0  0
  195.6260  171.2760  143.1190 C   0  0  0  0  0  2  0  0  0  0  0  0
  191.9070  174.8670  145.7210 C   0  0  0  0  0  0  0  0  0  0  0  0
  188.5390  175.8110  144.4310 N   0  0  0  0  0  0  0  0  0  0  0  0
  194.6760  172.2350  143.8090 C   0  0  0  0  0  0  0  0  0  0  0  0
  197.5300  172.9510  142.6810 C   0  0  0  0  0  2  0  0  0  0  0  0
  189.3640  176.7000  146.5260 C   0  0  0  0  0  0  0  0  0  0  0  0
  192.5050  173.3770  143.8450 C   0  0  0  0  0  0  0  0  0  0  0  0
  196.2210  172.6140  145.6620 O   0  0  0  0  0  0  0  0  0  0  0  0
  192.8300  173.9860  145.0860 C   0  0  0  0  0  0  0  0  0  0  0  0
  191.8380  172.1840  141.3900 C   0  0  0  0  0  3  0  0  0  0  0  0
  191.5090  176.3550  147.7560 C   0  0  0  0  0  3  0  0  0  0  0  0
  193.0720  171.9170  141.9850 C   0  0  0  0  0  3  0  0  0  0  0  0
  192.2430  175.4260  146.8880 C   0  0  0  0  0  3  0  0  0  0  0  0
  189.5380  175.9280  145.4440 C   0  0  0  0  0  0  0  0  0  0  0  0
  190.9330  173.0430  142.0110 C   0  0  0  0  0  3  0  0  0  0  0  0
  190.3690  174.5060  143.8720 C   0  0  0  0  0  0  0  0  0  0  0  0
  188.1000  177.4410  146.6560 C   0  0  0  0  0  3  0  0  0  0  0  0
  187.0800  176.9270  147.2630 N   0  0  0  0  0  0  0  0  0  0  0  0
  184.0910  178.3250  145.8540 C   0  0  0  0  0  2  0  0  0  0  0  0
  186.0630  179.1200  146.9990 C   0  0  0  0  0  2  0  0  0  0  0  0
  185.8360  177.6680  147.3880 C   0  0  0  0  0  3  0  0  0  0  0  0
  185.1350  179.4160  145.8370 C   0  0  0  0  0  2  0  0  0  0  0  0
  184.7940  177.1180  146.4280 C   0  0  0  0  0  2  0  0  0  0  0  0
  1 18  1  0  0  0  0
  1 27  1  0  0  0  0
  2 27  2  0  0  0  0
  2 14  1  0  0  0  0
  3  7  1  0  0  0  0
  4 15  2  0  0  0  0
  4 18  1  0  0  0  0
  5 19  1  0  0  0  0
  5 11  2  0  0  0  0
  7  6  1  0  0  0  0
  9 25  1  0  0  0  0
  9 13  2  0  0  0  0
 10 22  1  0  0  0  0
 12  8  1  0  0  0  0
 12 15  1  0  0  0  0
 13 24  1  0  0  0  0
 14 25  2  0  0  0  0
 15  5  1  0  0  0  0
 16  8  1  0  0  0  0
 16  3  1  0  0  0  0
 17 28  1  0  0  0  0
 17 10  2  0  0  0  0
 18 20  2  0  0  0  0
 19  6  1  0  0  0  0
 20 11  1  0  0  0  0
 20 13  1  0  0  0  0
 21 23  2  0  0  0  0
 21 26  1  0  0  0  0
 23  4  1  0  0  0  0
 24 22  2  0  0  0  0
 25 17  1  0  0  0  0
 26  1  2  0  0  0  0
 27  9  1  0  0  0  0
 28 29  2  0  0  0  0
 29 32  1  0  0  0  0
 30 34  1  0  0  0  0
 31 32  1  0  0  0  0
 33 30  1  0  0  0  0
 33 31  1  0  0  0  0
 34 32  1  0  0  0  0
M  END
>  <MODEL>
6

>  <REMARK>
 VINA RESULT:      -8.3      4.248      7.389
  Name = 
  2 active torsions:
  status: ('A' for Active; 'I' for Inactive)
    1  A    between atoms: C_17  and  C_28
    2  A    between atoms: N_29  and  C_32
                            x       y       z     vdW  Elec       q    Type
                         _______ _______ _______ _____ _____    ______ ____

>  <TORSDO>
F 2

$$$$
=
 OpenBabel11112418003D

 34 40  0  0  0  0  0  0  0  0999 V2000
  190.2620  177.0300  146.6930 C   0  0  0  0  0  0  0  0  0  0  0  0
  192.7620  176.4160  146.8800 C   0  0  0  0  0  3  0  0  0  0  0  0
  186.0210  179.2970  143.3200 O   0  0  0  0  0  0  0  0  0  0  0  0
  187.8880  177.5410  146.3840 C   0  0  0  0  0  0  0  0  0  0  0  0
  186.7160  176.7240  144.4130 C   0  0  0  0  0  0  0  0  0  0  0  0
  185.5660  177.1660  142.2980 C   0  0  0  0  0  2  0  0  0  0  0  0
  185.2540  178.6620  142.3320 C   0  0  0  0  0  2  0  0  0  0  0  0
  184.4880  178.7020  145.1210 C   0  0  0  0  0  2  0  0  0  0  0  0
  191.4410  175.7220  145.0250 C   0  0  0  0  0  0  0  0  0  0  0  0
  192.5680  174.0530  142.7060 N   0  0  0  0  0  0  0  0  0  0  0  0
  187.8980  176.1280  143.9650 C   0  0  0  0  0  3  0  0  0  0  0  0
  185.4380  178.0980  146.1580 C   0  0  0  0  0  2  0  0  0  0  0  0
  190.2890  175.5950  144.2330 C   0  0  0  0  0  0  0  0  0  0  0  0
  193.5910  175.6450  145.9640 N   0  0  0  0  0  0  0  0  0  0  0  0
  186.7010  177.4510  145.6240 C   0  0  0  0  0  0  0  0  0  0  0  0
  185.1140  179.8080  144.2630 C   0  0  0  0  0  2  0  0  0  0  0  0
  193.3100  174.5010  143.8490 C   0  0  0  0  0  0  0  0  0  0  0  0
  189.0790  176.9270  145.9240 C   0  0  0  0  0  0  0  0  0  0  0  0
  185.5730  176.6330  143.6190 O   0  0  0  0  0  0  0  0  0  0  0  0
  189.0900  176.2110  144.6980 C   0  0  0  0  0  0  0  0  0  0  0  0
  189.0820  178.3380  148.3540 C   0  0  0  0  0  3  0  0  0  0  0  0
  191.3280  174.2100  142.3590 C   0  0  0  0  0  3  0  0  0  0  0  0
  187.9100  178.2420  147.6020 C   0  0  0  0  0  3  0  0  0  0  0  0
  190.2670  174.9290  143.0730 C   0  0  0  0  0  3  0  0  0  0  0  0
  192.7980  175.2290  144.8510 C   0  0  0  0  0  0  0  0  0  0  0  0
  190.2540  177.7350  147.9020 C   0  0  0  0  0  3  0  0  0  0  0  0
  191.4230  176.4200  146.2200 C   0  0  0  0  0  0  0  0  0  0  0  0
  194.7320  174.1290  143.9140 C   0  0  0  0  0  3  0  0  0  0  0  0
  195.1030  172.9750  144.3660 N   0  0  0  0  0  0  0  0  0  0  0  0
  197.7650  170.5950  144.0120 C   0  0  0  0  0  2  0  0  0  0  0  0
  196.8160  171.9630  145.7630 C   0  0  0  0  0  2  0  0  0  0  0  0
  196.5110  172.6160  144.4250 C   0  0  0  0  0  3  0  0  0  0  0  0
  197.3480  170.5740  145.4640 C   0  0  0  0  0  2  0  0  0  0  0  0
  196.8400  171.5900  143.3530 C   0  0  0  0  0  2  0  0  0  0  0  0
  1 26  2  0  0  0  0
  3 16  1  0  0  0  0
  4 23  1  0  0  0  0
  5 15  1  0  0  0  0
  6  7  1  0  0  0  0
  6 19  1  0  0  0  0
  7  3  1  0  0  0  0
  8 12  1  0  0  0  0
  9 27  2  0  0  0  0
 10 17  1  0  0  0  0
 11  5  2  0  0  0  0
 11 20  1  0  0  0  0
 13 20  1  0  0  0  0
 13  9  1  0  0  0  0
 14  2  2  0  0  0  0
 15 12  1  0  0  0  0
 15  4  2  0  0  0  0
 16  8  1  0  0  0  0
 17 28  1  0  0  0  0
 17 25  2  0  0  0  0
 18  4  1  0  0  0  0
 18  1  1  0  0  0  0
 19  5  1  0  0  0  0
 20 18  2  0  0  0  0
 22 10  2  0  0  0  0
 22 24  1  0  0  0  0
 23 21  2  0  0  0  0
 24 13  2  0  0  0  0
 25  9  1  0  0  0  0
 25 14  1  0  0  0  0
 26 21  1  0  0  0  0
 27  1  1  0  0  0  0
 27  2  1  0  0  0  0
 28 29  2  0  0  0  0
 29 32  1  0  0  0  0
 30 33  1  0  0  0  0
 32 31  1  0  0  0  0
 33 31  1  0  0  0  0
 34 30  1  0  0  0  0
 34 32  1  0  0  0  0
M  END
>  <MODEL>
7

>  <REMARK>
 VINA RESULT:      -8.3      4.394     10.035
  Name = 
  2 active torsions:
  status: ('A' for Active; 'I' for Inactive)
    1  A    between atoms: C_17  and  C_28
    2  A    between atoms: N_29  and  C_32
                            x       y       z     vdW  Elec       q    Type
                         _______ _______ _______ _____ _____    ______ ____

>  <TORSDO>
F 2

$$$$
=
 OpenBabel11112418003D

 34 40  0  0  0  0  0  0  0  0999 V2000
  187.7590  175.8030  141.1230 C   0  0  0  0  0  0  0  0  0  0  0  0
  188.6890  173.9190  139.6230 C   0  0  0  0  0  3  0  0  0  0  0  0
  184.8440  177.1520  146.0410 O   0  0  0  0  0  0  0  0  0  0  0  0
  186.9410  177.5230  142.6610 C   0  0  0  0  0  0  0  0  0  0  0  0
  187.5250  177.4160  145.0220 C   0  0  0  0  0  0  0  0  0  0  0  0
  186.8590  177.1090  147.3570 C   0  0  0  0  0  2  0  0  0  0  0  0
  185.3380  177.2640  147.3490 C   0  0  0  0  0  2  0  0  0  0  0  0
  185.3130  179.4820  145.4930 C   0  0  0  0  0  2  0  0  0  0  0  0
  189.1360  173.9910  141.9600 C   0  0  0  0  0  0  0  0  0  0  0  0
  190.8400  171.8780  143.3980 N   0  0  0  0  0  0  0  0  0  0  0  0
  188.2470  176.2440  144.7850 C   0  0  0  0  0  3  0  0  0  0  0  0
  186.0730  179.3480  144.1710 C   0  0  0  0  0  2  0  0  0  0  0  0
  189.0860  174.4890  143.2720 C   0  0  0  0  0  0  0  0  0  0  0  0
  189.5200  172.7800  139.9870 N   0  0  0  0  0  0  0  0  0  0  0  0
  186.8520  178.0640  143.9630 C   0  0  0  0  0  0  0  0  0  0  0  0
  184.2610  178.3910  145.7270 C   0  0  0  0  0  2  0  0  0  0  0  0
  190.5350  171.8910  141.9960 C   0  0  0  0  0  0  0  0  0  0  0  0
  187.6820  176.3370  142.4300 C   0  0  0  0  0  0  0  0  0  0  0  0
  187.4410  177.9030  146.3270 O   0  0  0  0  0  0  0  0  0  0  0  0
  188.3440  175.6830  143.5030 C   0  0  0  0  0  0  0  0  0  0  0  0
  186.3800  177.6120  140.2910 C   0  0  0  0  0  3  0  0  0  0  0  0
  190.5150  172.6790  144.3650 C   0  0  0  0  0  3  0  0  0  0  0  0
  186.2980  178.1460  141.5780 C   0  0  0  0  0  3  0  0  0  0  0  0
  189.6970  173.8960  144.3040 C   0  0  0  0  0  3  0  0  0  0  0  0
  189.7890  172.8240  141.3890 C   0  0  0  0  0  0  0  0  0  0  0  0
  187.1070  176.4450  140.0630 C   0  0  0  0  0  3  0  0  0  0  0  0
  188.4900  174.6340  140.9190 C   0  0  0  0  0  0  0  0  0  0  0  0
  191.0840  170.7980  141.1800 C   0  0  0  0  0  3  0  0  0  0  0  0
  192.0630  170.0690  141.6080 N   0  0  0  0  0  0  0  0  0  0  0  0
  194.8180  168.1680  140.3130 C   0  0  0  0  0  2  0  0  0  0  0  0
  193.0260  169.5320  139.4400 C   0  0  0  0  0  2  0  0  0  0  0  0
  192.5990  168.9890  140.7940 C   0  0  0  0  0  3  0  0  0  0  0  0
  194.5060  169.2380  139.2940 C   0  0  0  0  0  2  0  0  0  0  0  0
  193.8440  168.4070  141.4420 C   0  0  0  0  0  2  0  0  0  0  0  0
  1 18  2  0  0  0  0
  2 14  2  0  0  0  0
  2 27  1  0  0  0  0
  3  7  1  0  0  0  0
  4 15  1  0  0  0  0
  5 19  1  0  0  0  0
  7  6  1  0  0  0  0
  8 16  1  0  0  0  0
  9 13  1  0  0  0  0
 10 22  2  0  0  0  0
 11  5  1  0  0  0  0
 12  8  1  0  0  0  0
 13 20  1  0  0  0  0
 13 24  2  0  0  0  0
 14 25  1  0  0  0  0
 15 12  1  0  0  0  0
 15  5  2  0  0  0  0
 16  3  1  0  0  0  0
 17 10  1  0  0  0  0
 18  4  1  0  0  0  0
 18 20  1  0  0  0  0
 19  6  1  0  0  0  0
 20 11  2  0  0  0  0
 21 23  1  0  0  0  0
 23  4  2  0  0  0  0
 24 22  1  0  0  0  0
 25  9  1  0  0  0  0
 25 17  2  0  0  0  0
 26 21  2  0  0  0  0
 26  1  1  0  0  0  0
 27  1  1  0  0  0  0
 27  9  2  0  0  0  0
 28 29  2  0  0  0  0
 28 17  1  0  0  0  0
 30 34  1  0  0  0  0
 31 32  1  0  0  0  0
 32 34  1  0  0  0  0
 32 29  1  0  0  0  0
 33 31  1  0  0  0  0
 33 30  1  0  0  0  0
M  END
>  <MODEL>
8

>  <REMARK>
 VINA RESULT:      -8.2      4.331      9.424
  Name = 
  2 active torsions:
  status: ('A' for Active; 'I' for Inactive)
    1  A    between atoms: C_17  and  C_28
    2  A    between atoms: N_29  and  C_32
                            x       y       z     vdW  Elec       q    Type
                         _______ _______ _______ _____ _____    ______ ____

>  <TORSDO>
F 2

$$$$
=
 OpenBabel11112418003D

 34 40  0  0  0  0  0  0  0  0999 V2000
  188.9760  175.6520  142.5700 C   0  0  0  0  0  0  0  0  0  0  0  0
  190.7440  173.8950  141.8950 C   0  0  0  0  0  3  0  0  0  0  0  0
  184.9790  177.2900  146.5510 O   0  0  0  0  0  0  0  0  0  0  0  0
  187.3630  177.3220  143.3450 C   0  0  0  0  0  0  0  0  0  0  0  0
  187.5350  178.2200  145.6010 C   0  0  0  0  0  0  0  0  0  0  0  0
  186.6280  178.4550  147.8620 C   0  0  0  0  0  2  0  0  0  0  0  0
  185.1720  178.0010  147.7440 C   0  0  0  0  0  2  0  0  0  0  0  0
  184.6980  179.3060  145.2070 C   0  0  0  0  0  2  0  0  0  0  0  0
  190.7320  174.8880  144.0590 C   0  0  0  0  0  0  0  0  0  0  0  0
  192.7890  174.1840  146.2280 N   0  0  0  0  0  0  0  0  0  0  0  0
  188.6470  177.4080  145.8340 C   0  0  0  0  0  3  0  0  0  0  0  0
  185.6710  179.0540  144.0530 C   0  0  0  0  0  2  0  0  0  0  0  0
  190.2880  175.7230  145.0970 C   0  0  0  0  0  0  0  0  0  0  0  0
  191.8430  173.3490  142.6790 N   0  0  0  0  0  0  0  0  0  0  0  0
  186.8710  178.1770  144.3560 C   0  0  0  0  0  0  0  0  0  0  0  0
  184.0660  178.0340  145.7860 C   0  0  0  0  0  2  0  0  0  0  0  0
  192.7430  173.6230  144.9090 C   0  0  0  0  0  0  0  0  0  0  0  0
  188.4970  176.5070  143.5890 C   0  0  0  0  0  0  0  0  0  0  0  0
  187.0650  179.0310  146.6350 O   0  0  0  0  0  0  0  0  0  0  0  0
  189.1510  176.5450  144.8490 C   0  0  0  0  0  0  0  0  0  0  0  0
  187.2210  176.4150  141.0880 C   0  0  0  0  0  3  0  0  0  0  0  0
  192.0470  175.0640  146.8250 C   0  0  0  0  0  3  0  0  0  0  0  0
  186.7390  177.2620  142.0870 C   0  0  0  0  0  3  0  0  0  0  0  0
  190.8810  175.7810  146.2940 C   0  0  0  0  0  3  0  0  0  0  0  0
  191.8360  173.9450  143.9770 C   0  0  0  0  0  0  0  0  0  0  0  0
  188.3350  175.6120  141.3270 C   0  0  0  0  0  3  0  0  0  0  0  0
  190.0910  174.8570  142.8330 C   0  0  0  0  0  0  0  0  0  0  0  0
  193.7690  172.6250  144.5670 C   0  0  0  0  0  3  0  0  0  0  0  0
  194.2650  171.8390  145.4660 N   0  0  0  0  0  0  0  0  0  0  0  0
  195.9200  168.7000  145.9970 C   0  0  0  0  0  2  0  0  0  0  0  0
  196.5000  171.0450  146.0020 C   0  0  0  0  0  2  0  0  0  0  0  0
  195.2770  170.8550  145.1190 C   0  0  0  0  0  3  0  0  0  0  0  0
  196.7070  169.7440  146.7530 C   0  0  0  0  0  2  0  0  0  0  0  0
  194.7620  169.4500  145.3840 C   0  0  0  0  0  2  0  0  0  0  0  0
  1 27  1  0  0  0  0
  1 18  2  0  0  0  0
  2 14  2  0  0  0  0
  2 27  1  0  0  0  0
  3  7  1  0  0  0  0
  4 18  1  0  0  0  0
  4 15  1  0  0  0  0
  5 11  1  0  0  0  0
  5 19  1  0  0  0  0
  7  6  1  0  0  0  0
  8 16  1  0  0  0  0
  9 13  1  0  0  0  0
 10 22  2  0  0  0  0
 12 15  1  0  0  0  0
 12  8  1  0  0  0  0
 13 24  2  0  0  0  0
 14 25  1  0  0  0  0
 15  5  2  0  0  0  0
 16  3  1  0  0  0  0
 17 10  1  0  0  0  0
 18 20  1  0  0  0  0
 19  6  1  0  0  0  0
 20 13  1  0  0  0  0
 20 11  2  0  0  0  0
 21 26  2  0  0  0  0
 21 23  1  0  0  0  0
 23  4  2  0  0  0  0
 24 22  1  0  0  0  0
 25  9  1  0  0  0  0
 25 17  2  0  0  0  0
 26  1  1  0  0  0  0
 27  9  2  0  0  0  0
 28 17  1  0  0  0  0
 28 29  2  0  0  0  0
 30 33  1  0  0  0  0
 31 33  1  0  0  0  0
 32 34  1  0  0  0  0
 32 29  1  0  0  0  0
 32 31  1  0  0  0  0
 34 30  1  0  0  0  0
M  END
>  <MODEL>
9

>  <REMARK>
 VINA RESULT:      -8.2      4.484     10.289
  Name = 
  2 active torsions:
  status: ('A' for Active; 'I' for Inactive)
    1  A    between atoms: C_17  and  C_28
    2  A    between atoms: N_29  and  C_32
                            x       y       z     vdW  Elec       q    Type
                         _______ _______ _______ _____ _____    ______ ____

>  <TORSDO>
F 2

$$$$
