=
 OpenBabel11112417363D

 28 32  0  0  1  0  0  0  0  0999 V2000
  186.2250  178.3460  144.5460 C   0  0  0  0  0  0  0  0  0  0  0  0
  189.6700  178.0950  147.6140 O   0  0  0  0  0  0  0  0  0  0  0  0
  187.5660  173.5320  141.5980 O   0  0  0  0  0  0  0  0  0  0  0  0
  185.5110  176.7980  146.7670 C   0  0  0  0  0  3  0  0  0  0  0  0
  189.8450  174.4880  142.4650 C   0  0  2  0  0  3  0  0  0  0  0  0
  186.5010  179.0680  143.2640 C   0  0  0  0  0  2  0  0  0  0  0  0
  189.0260  175.7180  147.4550 O   0  0  0  0  0  0  0  0  0  0  0  0
  189.9240  176.7920  146.9120 S   0  0  0  0  0  0  0  0  0  0  0  0
  192.4570  176.5220  145.8680 C   0  0  1  0  0  3  0  0  0  0  0  0
  189.7770  176.9800  145.1490 C   0  0  1  0  0  3  0  0  0  0  0  0
  186.2180  177.3720  139.8040 C   0  0  0  0  0  1  0  0  0  0  0  0
  188.4870  176.0470  143.4140 C   0  0  2  0  0  3  0  0  0  0  0  0
  191.9330  175.8280  144.5870 C   0  0  0  0  0  2  0  0  0  0  0  0
  191.6230  176.2610  147.1340 C   0  0  0  0  0  2  0  0  0  0  0  0
  186.8940  178.0610  140.9750 C   0  0  2  0  0  3  0  0  0  0  0  0
  187.1430  177.4120  145.0710 C   0  0  0  0  0  0  0  0  0  0  0  0
  188.5070  174.6790  141.2570 S   0  0  2  0  0  0  0  0  0  0  0  0
  193.8980  176.1240  146.1090 C   0  0  0  0  0  1  0  0  0  0  0  0
  188.0990  177.3290  141.3870 N   0  0  0  0  0  2  0  0  0  0  0  0
  186.7550  176.6190  146.1580 C   0  0  0  0  0  3  0  0  0  0  0  0
  184.9760  178.5200  145.1580 C   0  0  0  0  0  3  0  0  0  0  0  0
  184.6260  177.7570  146.2730 C   0  0  0  0  0  3  0  0  0  0  0  0
  185.8930  178.2810  142.1110 C   0  0  0  0  0  2  0  0  0  0  0  0
  189.8850  175.7640  143.1570 N   0  0  1  0  0  0  0  0  0  0  0  0
  187.7590  176.0930  142.0920 C   0  0  2  0  0  3  0  0  0  0  0  0
  190.4020  175.7500  144.5120 C   0  0  2  0  0  3  0  0  0  0  0  0
  191.1510  174.2580  141.7280 C   0  0  0  0  0  1  0  0  0  0  0  0
  188.4660  177.2090  144.3770 C   0  0  1  0  0  3  0  0  0  0  0  0
  1 16  2  0  0  0  0
  1 21  1  0  0  0  0
  5 27  1  6  0  0  0
  5 24  1  0  0  0  0
  6  1  1  0  0  0  0
  8 14  1  0  0  0  0
  8  7  2  0  0  0  0
  8  2  2  0  0  0  0
  9 18  1  1  0  0  0
  9 14  1  0  0  0  0
 10  8  1  1  0  0  0
 11 15  1  0  0  0  0
 12 28  1  0  0  0  0
 13  9  1  0  0  0  0
 15 19  1  0  0  0  0
 15 23  1  0  0  0  0
 16 20  1  0  0  0  0
 17  3  2  0  0  0  0
 17 25  1  0  0  0  0
 17  5  1  0  0  0  0
 19 25  1  0  0  0  0
 20  4  2  0  0  0  0
 21 22  2  0  0  0  0
 22  4  1  0  0  0  0
 23  6  1  0  0  0  0
 24 12  1  0  0  0  0
 24 26  1  0  0  0  0
 25 12  1  0  0  0  0
 26 13  1  0  0  0  0
 26 10  1  0  0  0  0
 28 16  1  0  0  0  0
 28 10  1  0  0  0  0
M  END
>  <MODEL>
1

>  <REMARK>
 VINA RESULT:      -9.8      0.000      0.000
  Name = 
  0 active torsions:
  status: ('A' for Active; 'I' for Inactive)
                            x       y       z     vdW  Elec       q    Type
                         _______ _______ _______ _____ _____    ______ ____

>  <TORSDO>
F 0

$$$$
=
 OpenBabel11112417363D

 28 32  0  0  1  0  0  0  0  0999 V2000
  188.1630  176.5980  144.9420 C   0  0  0  0  0  0  0  0  0  0  0  0
  187.5920  173.1520  141.9170 O   0  0  0  0  0  0  0  0  0  0  0  0
  193.9570  176.7800  144.7030 O   0  0  0  0  0  0  0  0  0  0  0  0
  188.0160  177.5520  142.3140 C   0  0  0  0  0  3  0  0  0  0  0  0
  193.3110  174.2780  144.2810 C   0  0  2  0  0  3  0  0  0  0  0  0
  188.3500  176.2230  146.3790 C   0  0  0  0  0  2  0  0  0  0  0  0
  189.4150  174.4150  140.8330 O   0  0  0  0  0  0  0  0  0  0  0  0
  189.0810  173.3000  141.7830 S   0  0  0  0  0  0  0  0  0  0  0  0
  190.5160  171.0040  142.2790 C   0  0  1  0  0  3  0  0  0  0  0  0
  189.8460  173.5060  143.3750 C   0  0  1  0  0  3  0  0  0  0  0  0
  191.5070  177.1720  148.3940 C   0  0  0  0  0  1  0  0  0  0  0  0
  191.1990  175.1080  144.4470 C   0  0  2  0  0  3  0  0  0  0  0  0
  191.6290  171.7750  143.0290 C   0  0  0  0  0  2  0  0  0  0  0  0
  189.8240  171.7930  141.1550 C   0  0  0  0  0  2  0  0  0  0  0  0
  190.4950  176.2620  147.7210 C   0  0  2  0  0  3  0  0  0  0  0  0
  188.8630  175.9290  143.9150 C   0  0  0  0  0  0  0  0  0  0  0  0
  193.4660  175.5920  145.5190 S   0  0  2  0  0  0  0  0  0  0  0  0
  191.0750  169.7090  141.7300 C   0  0  0  0  0  1  0  0  0  0  0  0
  191.1690  175.2710  146.8710 N   0  0  0  0  0  2  0  0  0  0  0  0
  188.8090  176.4420  142.6130 C   0  0  0  0  0  3  0  0  0  0  0  0
  187.3700  177.7130  144.6370 C   0  0  0  0  0  3  0  0  0  0  0  0
  187.2870  178.1800  143.3240 C   0  0  0  0  0  3  0  0  0  0  0  0
  189.4470  177.0920  146.9780 C   0  0  0  0  0  2  0  0  0  0  0  0
  191.9260  173.8550  144.3820 N   0  0  1  0  0  0  0  0  0  0  0  0
  191.6890  175.8810  145.6470 C   0  0  2  0  0  3  0  0  0  0  0  0
  191.3370  173.2730  143.1900 C   0  0  2  0  0  3  0  0  0  0  0  0
  194.2300  173.1320  144.6540 C   0  0  0  0  0  1  0  0  0  0  0  0
  189.7430  174.7560  144.2660 C   0  0  1  0  0  3  0  0  0  0  0  0
  1  6  1  0  0  0  0
  3 17  2  0  0  0  0
  4 20  2  0  0  0  0
  4 22  1  0  0  0  0
  5 24  1  0  0  0  0
  5 27  1  1  0  0  0
  5 17  1  0  0  0  0
  6 23  1  0  0  0  0
  7  8  2  0  0  0  0
  8  2  2  0  0  0  0
  9 18  1  6  0  0  0
  9 13  1  0  0  0  0
 10  8  1  6  0  0  0
 10 28  1  0  0  0  0
 12 25  1  0  0  0  0
 13 26  1  0  0  0  0
 14  8  1  0  0  0  0
 14  9  1  0  0  0  0
 15 11  1  0  0  0  0
 16 28  1  0  0  0  0
 16  1  2  0  0  0  0
 17 25  1  0  0  0  0
 19 15  1  0  0  0  0
 20 16  1  0  0  0  0
 21  1  1  0  0  0  0
 22 21  2  0  0  0  0
 23 15  1  0  0  0  0
 24 12  1  0  0  0  0
 25 19  1  0  0  0  0
 26 10  1  0  0  0  0
 26 24  1  0  0  0  0
 28 12  1  0  0  0  0
M  END
>  <MODEL>
2

>  <REMARK>
 VINA RESULT:      -7.8      2.629      5.678
  Name = 
  0 active torsions:
  status: ('A' for Active; 'I' for Inactive)
                            x       y       z     vdW  Elec       q    Type
                         _______ _______ _______ _____ _____    ______ ____

>  <TORSDO>
F 0

$$$$
=
 OpenBabel11112417363D

 28 32  0  0  1  0  0  0  0  0999 V2000
  190.4780  176.9220  145.7220 C   0  0  0  0  0  0  0  0  0  0  0  0
  194.9150  176.7530  144.4440 O   0  0  0  0  0  0  0  0  0  0  0  0
  188.6790  172.3810  142.5900 O   0  0  0  0  0  0  0  0  0  0  0  0
  191.9570  175.2100  147.3710 C   0  0  0  0  0  3  0  0  0  0  0  0
  190.6400  173.4500  141.2230 C   0  0  2  0  0  3  0  0  0  0  0  0
  189.5500  177.7300  144.8680 C   0  0  0  0  0  2  0  0  0  0  0  0
  194.4170  174.3480  144.6880 O   0  0  0  0  0  0  0  0  0  0  0  0
  194.4490  175.5110  143.7390 S   0  0  0  0  0  0  0  0  0  0  0  0
  194.9280  175.4790  141.0280 C   0  0  1  0  0  3  0  0  0  0  0  0
  192.8850  175.7820  142.9370 C   0  0  1  0  0  3  0  0  0  0  0  0
  186.4680  176.2060  143.1060 C   0  0  0  0  0  1  0  0  0  0  0  0
  190.7220  174.8540  143.0110 C   0  0  2  0  0  3  0  0  0  0  0  0
  193.5610  174.8190  140.7220 C   0  0  0  0  0  2  0  0  0  0  0  0
  195.5460  175.0920  142.3820 C   0  0  0  0  0  2  0  0  0  0  0  0
  187.8240  176.8780  143.2260 C   0  0  2  0  0  3  0  0  0  0  0  0
  191.4080  176.0290  145.1470 C   0  0  0  0  0  0  0  0  0  0  0  0
  188.9040  173.6090  141.7190 S   0  0  2  0  0  0  0  0  0  0  0  0
  195.9020  175.1720  139.9110 C   0  0  0  0  0  1  0  0  0  0  0  0
  188.8130  176.2130  142.3680 N   0  0  0  0  0  2  0  0  0  0  0  0
  192.1110  175.1530  145.9840 C   0  0  0  0  0  3  0  0  0  0  0  0
  190.3250  176.9730  147.1140 C   0  0  0  0  0  3  0  0  0  0  0  0
  191.0720  176.1280  147.9360 C   0  0  0  0  0  3  0  0  0  0  0  0
  188.2460  176.9640  144.6940 C   0  0  0  0  0  2  0  0  0  0  0  0
  191.2540  174.6860  141.6730 N   0  0  1  0  0  0  0  0  0  0  0  0
  189.2170  174.9200  142.9200 C   0  0  2  0  0  3  0  0  0  0  0  0
  192.6750  174.6360  141.9620 C   0  0  2  0  0  3  0  0  0  0  0  0
  190.7180  173.3530  139.7120 C   0  0  0  0  0  1  0  0  0  0  0  0
  191.5310  175.9580  143.6460 C   0  0  1  0  0  3  0  0  0  0  0  0
  1 21  1  0  0  0  0
  4 22  1  0  0  0  0
  5 27  1  6  0  0  0
  5 24  1  0  0  0  0
  5 17  1  0  0  0  0
  6  1  1  0  0  0  0
  8  2  2  0  0  0  0
  8  7  2  0  0  0  0
  9 18  1  6  0  0  0
  9 14  1  0  0  0  0
 10 28  1  0  0  0  0
 10  8  1  1  0  0  0
 11 15  1  0  0  0  0
 12 28  1  0  0  0  0
 13  9  1  0  0  0  0
 13 26  1  0  0  0  0
 14  8  1  0  0  0  0
 15 23  1  0  0  0  0
 16  1  2  0  0  0  0
 16 20  1  0  0  0  0
 17  3  2  0  0  0  0
 17 25  1  0  0  0  0
 19 25  1  0  0  0  0
 19 15  1  0  0  0  0
 20  4  2  0  0  0  0
 21 22  2  0  0  0  0
 23  6  1  0  0  0  0
 24 26  1  0  0  0  0
 24 12  1  0  0  0  0
 25 12  1  0  0  0  0
 26 10  1  0  0  0  0
 28 16  1  0  0  0  0
M  END
>  <MODEL>
3

>  <REMARK>
 VINA RESULT:      -7.8      2.792      4.474
  Name = 
  0 active torsions:
  status: ('A' for Active; 'I' for Inactive)
                            x       y       z     vdW  Elec       q    Type
                         _______ _______ _______ _____ _____    ______ ____

>  <TORSDO>
F 0

$$$$
=
 OpenBabel11112417363D

 28 32  0  0  1  0  0  0  0  0999 V2000
  191.8710  174.9520  142.0610 C   0  0  0  0  0  0  0  0  0  0  0  0
  187.7220  176.3570  140.5910 O   0  0  0  0  0  0  0  0  0  0  0  0
  190.6260  174.9160  147.7280 O   0  0  0  0  0  0  0  0  0  0  0  0
  190.1380  172.7900  141.6570 C   0  0  0  0  0  3  0  0  0  0  0  0
  189.1640  176.8280  146.6960 C   0  0  2  0  0  3  0  0  0  0  0  0
  192.8700  176.0120  142.4060 C   0  0  0  0  0  2  0  0  0  0  0  0
  187.0660  174.7970  142.3880 O   0  0  0  0  0  0  0  0  0  0  0  0
  187.3900  176.2240  142.0500 S   0  0  0  0  0  0  0  0  0  0  0  0
  186.4030  178.5120  143.2200 C   0  0  1  0  0  3  0  0  0  0  0  0
  188.6930  176.8870  143.0630 C   0  0  1  0  0  3  0  0  0  0  0  0
  194.4300  176.3510  145.9250 C   0  0  0  0  0  1  0  0  0  0  0  0
  190.1260  176.1100  144.7630 C   0  0  2  0  0  3  0  0  0  0  0  0
  187.2010  178.2750  144.5260 C   0  0  0  0  0  2  0  0  0  0  0  0
  185.9720  177.2330  142.4830 C   0  0  0  0  0  2  0  0  0  0  0  0
  193.6090  176.7500  144.7120 C   0  0  2  0  0  3  0  0  0  0  0  0
  190.5340  175.0350  142.5060 C   0  0  0  0  0  0  0  0  0  0  0  0
  190.8310  176.3320  147.2080 S   0  0  2  0  0  0  0  0  0  0  0  0
  185.1910  179.3710  143.5130 C   0  0  0  0  0  1  0  0  0  0  0  0
  192.2690  177.1990  145.1130 N   0  0  0  0  0  2  0  0  0  0  0  0
  189.6920  173.9300  142.3300 C   0  0  0  0  0  3  0  0  0  0  0  0
  192.3150  173.8050  141.3890 C   0  0  0  0  0  3  0  0  0  0  0  0
  191.4470  172.7330  141.1770 C   0  0  0  0  0  3  0  0  0  0  0  0
  193.5920  175.6140  143.6860 C   0  0  0  0  0  2  0  0  0  0  0  0
  189.3130  177.1850  145.2960 N   0  0  1  0  0  0  0  0  0  0  0  0
  191.4290  176.0740  145.5240 C   0  0  2  0  0  3  0  0  0  0  0  0
  188.1310  177.0560  144.4650 C   0  0  2  0  0  3  0  0  0  0  0  0
  188.7390  178.0420  147.4970 C   0  0  0  0  0  1  0  0  0  0  0  0
  190.0840  176.2600  143.2620 C   0  0  1  0  0  3  0  0  0  0  0  0
  1  6  1  0  0  0  0
  1 16  1  0  0  0  0
  2  8  2  0  0  0  0
  4 20  1  0  0  0  0
  5 17  1  0  0  0  0
  5 27  1  1  0  0  0
  6 23  1  0  0  0  0
  8  7  2  0  0  0  0
  8 14  1  0  0  0  0
  9 18  1  1  0  0  0
  9 13  1  0  0  0  0
 10  8  1  6  0  0  0
 10 28  1  0  0  0  0
 10 26  1  0  0  0  0
 12 24  1  0  0  0  0
 12 25  1  0  0  0  0
 14  9  1  0  0  0  0
 15 19  1  0  0  0  0
 15 11  1  0  0  0  0
 16 28  1  0  0  0  0
 17  3  2  0  0  0  0
 19 25  1  0  0  0  0
 20 16  2  0  0  0  0
 21  1  2  0  0  0  0
 22 21  1  0  0  0  0
 22  4  2  0  0  0  0
 23 15  1  0  0  0  0
 24  5  1  0  0  0  0
 25 17  1  0  0  0  0
 26 13  1  0  0  0  0
 26 24  1  0  0  0  0
 28 12  1  0  0  0  0
M  END
>  <MODEL>
4

>  <REMARK>
 VINA RESULT:      -7.7      1.897      6.646
  Name = 
  0 active torsions:
  status: ('A' for Active; 'I' for Inactive)
                            x       y       z     vdW  Elec       q    Type
                         _______ _______ _______ _____ _____    ______ ____

>  <TORSDO>
F 0

$$$$
=
 OpenBabel11112417363D

 28 32  0  0  1  0  0  0  0  0999 V2000
  188.8170  176.7070  145.5340 C   0  0  0  0  0  0  0  0  0  0  0  0
  193.2080  176.6920  146.9720 O   0  0  0  0  0  0  0  0  0  0  0  0
  189.4630  172.8060  141.2880 O   0  0  0  0  0  0  0  0  0  0  0  0
  189.2640  174.7130  147.4470 C   0  0  0  0  0  3  0  0  0  0  0  0
  191.7540  174.0630  141.4460 C   0  0  2  0  0  3  0  0  0  0  0  0
  188.4580  177.6650  144.4400 C   0  0  0  0  0  2  0  0  0  0  0  0
  192.8650  174.2890  146.5260 O   0  0  0  0  0  0  0  0  0  0  0  0
  193.3220  175.5980  145.9490 S   0  0  0  0  0  0  0  0  0  0  0  0
  195.2320  176.0280  144.0130 C   0  0  1  0  0  3  0  0  0  0  0  0
  192.4540  176.0290  144.4570 C   0  0  1  0  0  3  0  0  0  0  0  0
  187.0250  176.5170  141.0410 C   0  0  0  0  0  1  0  0  0  0  0  0
  190.7060  175.1360  143.1570 C   0  0  2  0  0  3  0  0  0  0  0  0
  194.3300  175.4530  142.8940 C   0  0  0  0  0  2  0  0  0  0  0  0
  195.0190  175.4030  145.4030 C   0  0  0  0  0  2  0  0  0  0  0  0
  188.0210  177.1380  142.0040 C   0  0  2  0  0  3  0  0  0  0  0  0
  189.9810  175.9120  145.4560 C   0  0  0  0  0  0  0  0  0  0  0  0
  190.0300  174.1620  140.8940 S   0  0  2  0  0  0  0  0  0  0  0  0
  196.6850  175.9040  143.6090 C   0  0  0  0  0  1  0  0  0  0  0  0
  189.3730  176.6150  141.7650 N   0  0  0  0  0  2  0  0  0  0  0  0
  190.1690  174.8950  146.3990 C   0  0  0  0  0  3  0  0  0  0  0  0
  187.9100  176.5190  146.5850 C   0  0  0  0  0  3  0  0  0  0  0  0
  188.1400  175.5330  147.5460 C   0  0  0  0  0  3  0  0  0  0  0  0
  187.5440  176.9620  143.4470 C   0  0  0  0  0  2  0  0  0  0  0  0
  191.9050  175.1930  142.3460 N   0  0  1  0  0  0  0  0  0  0  0  0
  189.5080  175.2400  142.2450 C   0  0  2  0  0  3  0  0  0  0  0  0
  192.9220  175.0720  143.3740 C   0  0  2  0  0  3  0  0  0  0  0  0
  192.6690  174.2290  140.2490 C   0  0  0  0  0  1  0  0  0  0  0  0
  190.9260  176.1010  144.2970 C   0  0  1  0  0  3  0  0  0  0  0  0
  1 21  1  0  0  0  0
  4 22  1  0  0  0  0
  5 27  1  6  0  0  0
  5 24  1  0  0  0  0
  6  1  1  0  0  0  0
  8  7  2  0  0  0  0
  8  2  2  0  0  0  0
  9 18  1  6  0  0  0
  9 14  1  0  0  0  0
 10  8  1  1  0  0  0
 11 15  1  0  0  0  0
 12 28  1  0  0  0  0
 13 26  1  0  0  0  0
 13  9  1  0  0  0  0
 14  8  1  0  0  0  0
 15 23  1  0  0  0  0
 16  1  2  0  0  0  0
 16 20  1  0  0  0  0
 17  3  2  0  0  0  0
 17  5  1  0  0  0  0
 17 25  1  0  0  0  0
 19 15  1  0  0  0  0
 19 25  1  0  0  0  0
 20  4  2  0  0  0  0
 21 22  2  0  0  0  0
 23  6  1  0  0  0  0
 24 12  1  0  0  0  0
 24 26  1  0  0  0  0
 25 12  1  0  0  0  0
 26 10  1  0  0  0  0
 28 10  1  0  0  0  0
 28 16  1  0  0  0  0
M  END
>  <MODEL>
5

>  <REMARK>
 VINA RESULT:      -7.5      2.148      3.051
  Name = 
  0 active torsions:
  status: ('A' for Active; 'I' for Inactive)
                            x       y       z     vdW  Elec       q    Type
                         _______ _______ _______ _____ _____    ______ ____

>  <TORSDO>
F 0

$$$$
=
 OpenBabel11112417363D

 28 32  0  0  1  0  0  0  0  0999 V2000
  186.3570  176.4370  142.9330 C   0  0  0  0  0  0  0  0  0  0  0  0
  187.4410  172.6950  140.4480 O   0  0  0  0  0  0  0  0  0  0  0  0
  191.7370  177.6650  144.7250 O   0  0  0  0  0  0  0  0  0  0  0  0
  187.0660  177.1150  140.3110 C   0  0  0  0  0  3  0  0  0  0  0  0
  191.6520  175.0590  144.4790 C   0  0  2  0  0  3  0  0  0  0  0  0
  186.0470  176.2290  144.3830 C   0  0  0  0  0  2  0  0  0  0  0  0
  189.3410  174.1740  139.9010 O   0  0  0  0  0  0  0  0  0  0  0  0
  188.8370  173.1040  140.8260 S   0  0  0  0  0  0  0  0  0  0  0  0
  190.2910  171.1630  142.1310 C   0  0  1  0  0  3  0  0  0  0  0  0
  188.9180  173.5850  142.5370 C   0  0  1  0  0  3  0  0  0  0  0  0
  188.0610  177.9160  147.2160 C   0  0  0  0  0  1  0  0  0  0  0  0
  189.5360  175.4960  143.7660 C   0  0  2  0  0  3  0  0  0  0  0  0
  190.9250  172.1890  143.1010 C   0  0  0  0  0  2  0  0  0  0  0  0
  189.9630  171.7110  140.7310 C   0  0  0  0  0  2  0  0  0  0  0  0
  187.5110  176.7790  146.3720 C   0  0  2  0  0  3  0  0  0  0  0  0
  187.4760  175.8220  142.3300 C   0  0  0  0  0  0  0  0  0  0  0  0
  191.1500  176.4820  145.4830 S   0  0  2  0  0  0  0  0  0  0  0  0
  191.1900  169.9520  142.0130 C   0  0  0  0  0  1  0  0  0  0  0  0
  188.5840  175.8610  145.9720 N   0  0  0  0  0  2  0  0  0  0  0  0
  187.8380  176.2020  141.0320 C   0  0  0  0  0  3  0  0  0  0  0  0
  185.5870  177.3550  142.2070 C   0  0  0  0  0  3  0  0  0  0  0  0
  185.9340  177.6840  140.8950 C   0  0  0  0  0  3  0  0  0  0  0  0
  186.7090  177.3350  145.1940 C   0  0  0  0  0  2  0  0  0  0  0  0
  190.4030  174.3980  144.1470 N   0  0  1  0  0  0  0  0  0  0  0  0
  189.4310  176.4470  144.9330 C   0  0  2  0  0  3  0  0  0  0  0  0
  190.3870  173.6160  142.9250 C   0  0  2  0  0  3  0  0  0  0  0  0
  192.5170  174.1390  145.3180 C   0  0  0  0  0  1  0  0  0  0  0  0
  188.3170  174.8670  143.1380 C   0  0  1  0  0  3  0  0  0  0  0  0
  1  6  1  0  0  0  0
  2  8  2  0  0  0  0
  3 17  2  0  0  0  0
  4 22  2  0  0  0  0
  4 20  1  0  0  0  0
  5 27  1  1  0  0  0
  5 17  1  0  0  0  0
  6 23  1  0  0  0  0
  7  8  2  0  0  0  0
  9 18  1  6  0  0  0
  9 13  1  0  0  0  0
 10  8  1  6  0  0  0
 10 26  1  0  0  0  0
 10 28  1  0  0  0  0
 12 24  1  0  0  0  0
 12 25  1  0  0  0  0
 14  8  1  0  0  0  0
 14  9  1  0  0  0  0
 15 11  1  0  0  0  0
 16  1  1  0  0  0  0
 16 28  1  0  0  0  0
 19 15  1  0  0  0  0
 20 16  2  0  0  0  0
 21  1  2  0  0  0  0
 22 21  1  0  0  0  0
 23 15  1  0  0  0  0
 24  5  1  0  0  0  0
 25 17  1  0  0  0  0
 25 19  1  0  0  0  0
 26 13  1  0  0  0  0
 26 24  1  0  0  0  0
 28 12  1  0  0  0  0
M  END
>  <MODEL>
6

>  <REMARK>
 VINA RESULT:      -7.3      2.058      5.325
  Name = 
  0 active torsions:
  status: ('A' for Active; 'I' for Inactive)
                            x       y       z     vdW  Elec       q    Type
                         _______ _______ _______ _____ _____    ______ ____

>  <TORSDO>
F 0

$$$$
=
 OpenBabel11112417363D

 28 32  0  0  1  0  0  0  0  0999 V2000
  193.3080  174.6530  145.6210 C   0  0  0  0  0  0  0  0  0  0  0  0
  189.8130  177.5770  146.3850 O   0  0  0  0  0  0  0  0  0  0  0  0
  192.2610  173.7750  139.9820 O   0  0  0  0  0  0  0  0  0  0  0  0
  194.0470  177.2990  145.0810 C   0  0  0  0  0  3  0  0  0  0  0  0
  189.9210  174.2050  141.0760 C   0  0  2  0  0  3  0  0  0  0  0  0
  193.0250  173.1910  145.7810 C   0  0  0  0  0  2  0  0  0  0  0  0
  190.5730  178.3430  144.1640 O   0  0  0  0  0  0  0  0  0  0  0  0
  189.6370  177.4280  144.9000 S   0  0  0  0  0  0  0  0  0  0  0  0
  187.1420  176.5640  144.1190 C   0  0  1  0  0  3  0  0  0  0  0  0
  189.8130  175.7280  144.4060 C   0  0  1  0  0  3  0  0  0  0  0  0
  193.4630  170.6470  142.9060 C   0  0  0  0  0  1  0  0  0  0  0  0
  191.1830  174.4860  142.9480 C   0  0  2  0  0  3  0  0  0  0  0  0
  187.7260  175.6480  143.0160 C   0  0  0  0  0  2  0  0  0  0  0  0
  187.9610  177.8340  144.4070 C   0  0  0  0  0  2  0  0  0  0  0  0
  192.7300  171.4640  143.9560 C   0  0  2  0  0  3  0  0  0  0  0  0
  192.4240  175.4950  144.9120 C   0  0  0  0  0  0  0  0  0  0  0  0
  191.2740  173.0190  140.8600 S   0  0  2  0  0  0  0  0  0  0  0  0
  185.7180  176.9370  143.7690 C   0  0  0  0  0  1  0  0  0  0  0  0
  191.5530  172.1230  143.3750 N   0  0  0  0  0  2  0  0  0  0  0  0
  192.8260  176.8030  144.6180 C   0  0  0  0  0  3  0  0  0  0  0  0
  194.5330  175.1530  146.0810 C   0  0  0  0  0  3  0  0  0  0  0  0
  194.8950  176.4760  145.8230 C   0  0  0  0  0  3  0  0  0  0  0  0
  193.6940  172.4300  144.6460 C   0  0  0  0  0  2  0  0  0  0  0  0
  189.8060  174.3550  142.5160 N   0  0  1  0  0  0  0  0  0  0  0  0
  191.9360  173.2490  142.5230 C   0  0  2  0  0  3  0  0  0  0  0  0
  189.2610  175.6120  142.9950 C   0  0  2  0  0  3  0  0  0  0  0  0
  188.6440  173.6110  140.5140 C   0  0  0  0  0  1  0  0  0  0  0  0
  191.1270  174.9290  144.3900 C   0  0  1  0  0  3  0  0  0  0  0  0
  1  6  1  0  0  0  0
  1 21  1  0  0  0  0
  3 17  2  0  0  0  0
  4 22  1  0  0  0  0
  5 27  1  1  0  0  0
  5 24  1  0  0  0  0
  7  8  2  0  0  0  0
  8  2  2  0  0  0  0
  9 18  1  6  0  0  0
  9 14  1  0  0  0  0
 10  8  1  6  0  0  0
 11 15  1  0  0  0  0
 12 28  1  0  0  0  0
 13  9  1  0  0  0  0
 14  8  1  0  0  0  0
 15 23  1  0  0  0  0
 16  1  2  0  0  0  0
 17  5  1  0  0  0  0
 17 25  1  0  0  0  0
 19 15  1  0  0  0  0
 20 16  1  0  0  0  0
 20  4  2  0  0  0  0
 22 21  2  0  0  0  0
 23  6  1  0  0  0  0
 24 12  1  0  0  0  0
 24 26  1  0  0  0  0
 25 12  1  0  0  0  0
 25 19  1  0  0  0  0
 26 13  1  0  0  0  0
 26 10  1  0  0  0  0
 28 10  1  0  0  0  0
 28 16  1  0  0  0  0
M  END
>  <MODEL>
7

>  <REMARK>
 VINA RESULT:      -7.1      2.408      6.325
  Name = 
  0 active torsions:
  status: ('A' for Active; 'I' for Inactive)
                            x       y       z     vdW  Elec       q    Type
                         _______ _______ _______ _____ _____    ______ ____

>  <TORSDO>
F 0

$$$$
=
 OpenBabel11112417363D

 28 32  0  0  1  0  0  0  0  0999 V2000
  189.2780  174.9850  144.7870 C   0  0  0  0  0  0  0  0  0  0  0  0
  190.4090  171.1330  142.4990 O   0  0  0  0  0  0  0  0  0  0  0  0
  194.6430  177.1600  145.1830 O   0  0  0  0  0  0  0  0  0  0  0  0
  189.3030  175.4040  142.0190 C   0  0  0  0  0  3  0  0  0  0  0  0
  194.9310  174.5570  145.2180 C   0  0  2  0  0  3  0  0  0  0  0  0
  189.3160  174.9280  146.2820 C   0  0  0  0  0  2  0  0  0  0  0  0
  191.8870  172.7730  141.3930 O   0  0  0  0  0  0  0  0  0  0  0  0
  191.7680  171.7740  142.5080 S   0  0  0  0  0  0  0  0  0  0  0  0
  193.7570  170.2380  143.6320 C   0  0  1  0  0  3  0  0  0  0  0  0
  192.1270  172.4820  144.1000 C   0  0  1  0  0  3  0  0  0  0  0  0
  191.5790  177.2310  148.4060 C   0  0  0  0  0  1  0  0  0  0  0  0
  192.6710  174.6040  144.9640 C   0  0  2  0  0  3  0  0  0  0  0  0
  194.4060  171.4600  144.3280 C   0  0  0  0  0  2  0  0  0  0  0  0
  193.0600  170.5480  142.2970 C   0  0  0  0  0  2  0  0  0  0  0  0
  191.0560  175.9300  147.8240 C   0  0  2  0  0  3  0  0  0  0  0  0
  190.3300  174.4550  144.0080 C   0  0  0  0  0  0  0  0  0  0  0  0
  194.4270  176.0170  146.1660 S   0  0  2  0  0  0  0  0  0  0  0  0
  194.7960  169.1560  143.4330 C   0  0  0  0  0  1  0  0  0  0  0  0
  192.1560  175.1210  147.2820 N   0  0  0  0  0  2  0  0  0  0  0  0
  190.3470  174.7070  142.6310 C   0  0  0  0  0  3  0  0  0  0  0  0
  188.2350  175.6860  144.1680 C   0  0  0  0  0  3  0  0  0  0  0  0
  188.2410  175.8840  142.7860 C   0  0  0  0  0  3  0  0  0  0  0  0
  189.9450  176.2110  146.8100 C   0  0  0  0  0  2  0  0  0  0  0  0
  193.7640  173.6940  145.2440 N   0  0  1  0  0  0  0  0  0  0  0  0
  192.6600  175.6770  146.0260 C   0  0  2  0  0  3  0  0  0  0  0  0
  193.6200  172.7640  144.1400 C   0  0  2  0  0  3  0  0  0  0  0  0
  196.0900  173.8820  145.9250 C   0  0  0  0  0  1  0  0  0  0  0  0
  191.4650  173.7370  144.6940 C   0  0  1  0  0  3  0  0  0  0  0  0
  1  6  1  0  0  0  0
  2  8  2  0  0  0  0
  3 17  2  0  0  0  0
  4 20  2  0  0  0  0
  4 22  1  0  0  0  0
  5 24  1  0  0  0  0
  5 27  1  1  0  0  0
  5 17  1  0  0  0  0
  6 23  1  0  0  0  0
  7  8  2  0  0  0  0
  9 18  1  6  0  0  0
  9 13  1  0  0  0  0
 10  8  1  6  0  0  0
 10 26  1  0  0  0  0
 10 28  1  0  0  0  0
 12 24  1  0  0  0  0
 12 25  1  0  0  0  0
 14  8  1  0  0  0  0
 14  9  1  0  0  0  0
 15 11  1  0  0  0  0
 16 28  1  0  0  0  0
 16  1  2  0  0  0  0
 19 15  1  0  0  0  0
 20 16  1  0  0  0  0
 21  1  1  0  0  0  0
 22 21  2  0  0  0  0
 23 15  1  0  0  0  0
 25 17  1  0  0  0  0
 25 19  1  0  0  0  0
 26 13  1  0  0  0  0
 26 24  1  0  0  0  0
 28 12  1  0  0  0  0
M  END
>  <MODEL>
8

>  <REMARK>
 VINA RESULT:      -6.9      3.548      6.518
  Name = 
  0 active torsions:
  status: ('A' for Active; 'I' for Inactive)
                            x       y       z     vdW  Elec       q    Type
                         _______ _______ _______ _____ _____    ______ ____

>  <TORSDO>
F 0

$$$$
=
 OpenBabel11112417363D

 28 32  0  0  1  0  0  0  0  0999 V2000
  194.7770  172.8980  145.4230 C   0  0  0  0  0  0  0  0  0  0  0  0
  192.3960  176.4660  147.1400 O   0  0  0  0  0  0  0  0  0  0  0  0
  191.9260  172.5200  140.3840 O   0  0  0  0  0  0  0  0  0  0  0  0
  195.8780  175.3460  144.6270 C   0  0  0  0  0  3  0  0  0  0  0  0
  190.1730  173.3910  142.1240 C   0  0  2  0  0  3  0  0  0  0  0  0
  194.2440  171.5260  145.6940 C   0  0  0  0  0  2  0  0  0  0  0  0
  192.6040  177.1500  144.7780 O   0  0  0  0  0  0  0  0  0  0  0  0
  191.7550  176.4250  145.7820 S   0  0  0  0  0  0  0  0  0  0  0  0
  189.0160  176.1510  145.8090 C   0  0  1  0  0  3  0  0  0  0  0  0
  191.4000  174.7510  145.2960 C   0  0  1  0  0  3  0  0  0  0  0  0
  193.2370  169.0790  142.8790 C   0  0  0  0  0  1  0  0  0  0  0  0
  191.9670  173.3110  143.5210 C   0  0  2  0  0  3  0  0  0  0  0  0
  189.0280  175.1820  144.6020 C   0  0  0  0  0  2  0  0  0  0  0  0
  190.1390  177.2020  145.8090 C   0  0  0  0  0  2  0  0  0  0  0  0
  193.0470  169.9850  144.0820 C   0  0  2  0  0  3  0  0  0  0  0  0
  193.9270  173.9410  144.9960 C   0  0  0  0  0  0  0  0  0  0  0  0
  191.1070  171.9530  141.5360 S   0  0  2  0  0  0  0  0  0  0  0  0
  187.6690  176.8360  145.8970 C   0  0  0  0  0  1  0  0  0  0  0  0
  191.9240  170.9070  143.8690 N   0  0  0  0  0  2  0  0  0  0  0  0
  194.4970  175.1450  144.5650 C   0  0  0  0  0  3  0  0  0  0  0  0
  196.1620  173.1040  145.4810 C   0  0  0  0  0  3  0  0  0  0  0  0
  196.7090  174.3290  145.0960 C   0  0  0  0  0  3  0  0  0  0  0  0
  194.3600  170.6910  144.4270 C   0  0  0  0  0  2  0  0  0  0  0  0
  190.5290  173.4980  143.5270 N   0  0  1  0  0  0  0  0  0  0  0  0
  192.2690  171.9610  142.9160 C   0  0  2  0  0  3  0  0  0  0  0  0
  190.4400  174.8190  144.1200 C   0  0  2  0  0  3  0  0  0  0  0  0
  188.6900  173.1100  141.9860 C   0  0  0  0  0  1  0  0  0  0  0  0
  192.4430  173.6910  144.9020 C   0  0  1  0  0  3  0  0  0  0  0  0
  1 21  1  0  0  0  0
  1  6  1  0  0  0  0
  3 17  2  0  0  0  0
  4 22  1  0  0  0  0
  5 27  1  1  0  0  0
  5 24  1  0  0  0  0
  7  8  2  0  0  0  0
  8 14  1  0  0  0  0
  8  2  2  0  0  0  0
  9 18  1  6  0  0  0
 10  8  1  6  0  0  0
 11 15  1  0  0  0  0
 12 24  1  0  0  0  0
 12 28  1  0  0  0  0
 13  9  1  0  0  0  0
 14  9  1  0  0  0  0
 15 23  1  0  0  0  0
 16  1  2  0  0  0  0
 17  5  1  0  0  0  0
 17 25  1  0  0  0  0
 19 15  1  0  0  0  0
 20  4  2  0  0  0  0
 20 16  1  0  0  0  0
 22 21  2  0  0  0  0
 23  6  1  0  0  0  0
 24 26  1  0  0  0  0
 25 12  1  0  0  0  0
 25 19  1  0  0  0  0
 26 13  1  0  0  0  0
 26 10  1  0  0  0  0
 28 16  1  0  0  0  0
 28 10  1  0  0  0  0
M  END
>  <MODEL>
9

>  <REMARK>
 VINA RESULT:      -6.9      3.272      7.224
  Name = 
  0 active torsions:
  status: ('A' for Active; 'I' for Inactive)
                            x       y       z     vdW  Elec       q    Type
                         _______ _______ _______ _____ _____    ______ ____

>  <TORSDO>
F 0

$$$$
