=
 OpenBabel11112417463D

 34 41  0  0  1  0  0  0  0  0999 V2000
  189.6880  173.9060  143.5910 C   0  0  0  0  0  0  0  0  0  0  0  0
  191.6510  172.4190  143.8050 N   0  0  0  0  0  2  0  0  0  0  0  0
  185.8270  178.3480  145.5050 C   0  0  2  0  0  3  0  0  0  0  0  0
  188.0480  175.6030  143.1100 C   0  0  0  0  0  0  0  0  0  0  0  0
  188.0830  177.8400  144.3050 C   0  0  1  0  0  3  0  0  0  0  0  0
  186.7860  176.5100  146.0890 C   0  0  0  0  0  2  0  0  0  0  0  0
  185.3410  176.9780  145.9840 C   0  0  0  0  0  2  0  0  0  0  0  0
  185.1910  177.6630  143.3450 C   0  0  0  0  0  2  0  0  0  0  0  0
  191.4400  174.2310  145.3750 C   0  0  2  0  0  3  0  0  0  0  0  0
  194.1830  175.9740  145.6650 C   0  0  0  0  0  2  0  0  0  0  0  0
  189.5630  177.5420  144.5560 C   0  0  0  0  0  2  0  0  0  0  0  0
  186.4100  177.4000  142.4790 C   0  0  0  0  0  2  0  0  0  0  0  0
  191.2520  175.7480  145.1550 C   0  0  1  0  0  3  0  0  0  0  0  0
  192.8600  172.4390  144.6270 C   0  0  0  0  0  2  0  0  0  0  0  0
  187.5120  176.9260  143.3050 N   0  0  0  0  0  0  0  0  0  0  0  0
  185.4330  178.7580  144.1970 O   0  0  0  0  0  0  0  0  0  0  0  0
  193.9210  174.7210  144.8090 C   0  0  1  0  0  3  0  0  0  0  0  0
  189.1710  175.1830  143.8400 C   0  0  0  0  0  0  0  0  0  0  0  0
  187.2780  177.8760  145.6230 C   0  0  2  0  0  3  0  0  0  0  0  0
  189.7690  176.0670  144.9100 C   0  0  2  0  0  3  0  0  0  0  0  0
  188.0250  173.5360  141.9520 C   0  0  0  0  0  3  0  0  0  0  0  0
  193.1870  176.1820  146.8090 C   0  0  0  0  0  2  0  0  0  0  0  0
  187.5030  174.7690  142.1810 N   0  0  0  0  0  0  0  0  0  0  0  0
  191.7880  176.5790  146.3300 C   0  0  0  0  0  2  0  0  0  0  0  0
  192.8870  173.7440  145.4160 C   0  0  1  0  0  3  0  0  0  0  0  0
  189.1120  173.1140  142.6490 N   0  0  0  0  0  0  0  0  0  0  0  0
  190.8580  173.4680  144.2900 N   0  0  0  0  0  0  0  0  0  0  0  0
  193.5660  175.1000  143.5090 O   0  0  0  0  0  0  0  0  0  0  0  0
  194.3410  176.2260  143.2280 C   0  0  0  0  0  2  0  0  0  0  0  0
  196.6470  176.0130  140.4410 N   0  0  0  0  0  0  0  0  0  0  0  0
  194.6530  175.3800  140.9150 O   0  0  0  0  0  0  0  0  0  0  0  0
  195.1080  175.9970  141.9740 C   0  0  0  0  0  0  0  0  0  0  0  0
  195.5680  175.3840  139.9940 N   0  0  0  0  0  0  0  0  0  0  0  0
  196.3900  176.4210  141.7010 C   0  0  0  0  0  3  0  0  0  0  0  0
  1 18  1  0  0  0  0
  1 27  1  0  0  0  0
  2 27  1  0  0  0  0
  2 14  1  0  0  0  0
  3 19  1  0  0  0  0
  3  7  1  6  0  0  0
  4 15  1  0  0  0  0
  4 18  2  0  0  0  0
  5 11  1  1  0  0  0
  5 19  1  0  0  0  0
  7  6  1  0  0  0  0
  8 16  1  0  0  0  0
  9 27  1  6  0  0  0
  9 25  1  0  0  0  0
 10 22  1  0  0  0  0
 12 15  1  0  0  0  0
 12  8  1  0  0  0  0
 13  9  1  0  0  0  0
 13 24  1  1  0  0  0
 15  5  1  0  0  0  0
 16  3  1  0  0  0  0
 17 28  1  6  0  0  0
 17 25  1  0  0  0  0
 17 10  1  0  0  0  0
 18 20  1  0  0  0  0
 19  6  1  6  0  0  0
 20 11  1  6  0  0  0
 20 13  1  0  0  0  0
 21 23  2  0  0  0  0
 21 26  1  0  0  0  0
 23  4  1  0  0  0  0
 24 22  1  0  0  0  0
 25 14  1  6  0  0  0
 26  1  2  0  0  0  0
 29 28  1  0  0  0  0
 30 34  1  0  0  0  0
 31 32  1  0  0  0  0
 32 29  1  0  0  0  0
 33 30  2  0  0  0  0
 33 31  1  0  0  0  0
 34 32  2  0  0  0  0
M  END
>  <MODEL>
1

>  <REMARK>
 VINA RESULT:      -8.7      0.000      0.000
  Name = 
  3 active torsions:
  status: ('A' for Active; 'I' for Inactive)
    1  A    between atoms: C_17  and  O_28
    2  A    between atoms: O_28  and  C_29
    3  A    between atoms: C_29  and  C_32
                            x       y       z     vdW  Elec       q    Type
                         _______ _______ _______ _____ _____    ______ ____

>  <TORSDO>
F 3

$$$$
=
 OpenBabel11112417463D

 34 41  0  0  1  0  0  0  0  0999 V2000
  190.5030  174.0510  143.1010 C   0  0  0  0  0  0  0  0  0  0  0  0
  192.3530  172.5760  143.8170 N   0  0  0  0  0  2  0  0  0  0  0  0
  186.2370  178.4520  143.9530 C   0  0  2  0  0  3  0  0  0  0  0  0
  189.0320  175.7390  142.2130 C   0  0  0  0  0  0  0  0  0  0  0  0
  188.7320  177.9680  143.3860 C   0  0  1  0  0  3  0  0  0  0  0  0
  187.0240  176.6180  144.7600 C   0  0  0  0  0  2  0  0  0  0  0  0
  185.6540  177.0760  144.2810 C   0  0  0  0  0  2  0  0  0  0  0  0
  186.1970  177.7770  141.6980 C   0  0  0  0  0  2  0  0  0  0  0  0
  191.7210  174.3770  145.2840 C   0  0  2  0  0  3  0  0  0  0  0  0
  194.2770  176.1360  146.2930 C   0  0  0  0  0  2  0  0  0  0  0  0
  190.0980  177.6790  144.0160 C   0  0  0  0  0  2  0  0  0  0  0  0
  187.6020  177.5280  141.1820 C   0  0  0  0  0  2  0  0  0  0  0  0
  191.5850  175.8930  145.0300 C   0  0  1  0  0  3  0  0  0  0  0  0
  193.3040  172.5990  144.9270 C   0  0  0  0  0  2  0  0  0  0  0  0
  188.4530  177.0570  142.2670 N   0  0  0  0  0  0  0  0  0  0  0  0
  186.1970  178.8680  142.5890 O   0  0  0  0  0  0  0  0  0  0  0  0
  194.2600  174.8870  145.3920 C   0  0  1  0  0  3  0  0  0  0  0  0
  189.9270  175.3220  143.2110 C   0  0  0  0  0  0  0  0  0  0  0  0
  187.6090  177.9900  144.4460 C   0  0  2  0  0  3  0  0  0  0  0  0
  190.2160  176.2030  144.4050 C   0  0  2  0  0  3  0  0  0  0  0  0
  189.3320  173.6800  141.0810 C   0  0  0  0  0  3  0  0  0  0  0  0
  193.0140  176.3300  147.1350 C   0  0  0  0  0  2  0  0  0  0  0  0
  188.7570  174.9070  141.1710 N   0  0  0  0  0  0  0  0  0  0  0  0
  191.7860  176.7210  146.3070 C   0  0  0  0  0  2  0  0  0  0  0  0
  193.1110  173.8990  145.7020 C   0  0  1  0  0  3  0  0  0  0  0  0
  190.2010  173.2610  142.0370 N   0  0  0  0  0  0  0  0  0  0  0  0
  191.4520  173.6160  144.0810 N   0  0  0  0  0  0  0  0  0  0  0  0
  194.2560  175.2720  144.0460 O   0  0  0  0  0  0  0  0  0  0  0  0
  195.1730  176.3200  143.9590 C   0  0  0  0  0  2  0  0  0  0  0  0
  197.6870  175.5710  141.4610 N   0  0  0  0  0  0  0  0  0  0  0  0
  195.7860  176.5580  141.5650 O   0  0  0  0  0  0  0  0  0  0  0  0
  196.0420  176.1180  142.7690 C   0  0  0  0  0  0  0  0  0  0  0  0
  196.7650  176.2340  140.7770 N   0  0  0  0  0  0  0  0  0  0  0  0
  197.2630  175.4790  142.7380 C   0  0  0  0  0  3  0  0  0  0  0  0
  1 18  1  0  0  0  0
  1 27  1  0  0  0  0
  2 27  1  0  0  0  0
  2 14  1  0  0  0  0
  3  7  1  6  0  0  0
  3 19  1  0  0  0  0
  4 15  1  0  0  0  0
  4 18  2  0  0  0  0
  5 11  1  1  0  0  0
  5 19  1  0  0  0  0
  7  6  1  0  0  0  0
  8 16  1  0  0  0  0
  9 27  1  6  0  0  0
  9 25  1  0  0  0  0
 10 22  1  0  0  0  0
 12  8  1  0  0  0  0
 12 15  1  0  0  0  0
 13  9  1  0  0  0  0
 13 24  1  1  0  0  0
 15  5  1  0  0  0  0
 16  3  1  0  0  0  0
 17 28  1  6  0  0  0
 17 25  1  0  0  0  0
 17 10  1  0  0  0  0
 18 20  1  0  0  0  0
 19  6  1  6  0  0  0
 20 11  1  6  0  0  0
 20 13  1  0  0  0  0
 21 23  2  0  0  0  0
 21 26  1  0  0  0  0
 23  4  1  0  0  0  0
 24 22  1  0  0  0  0
 25 14  1  6  0  0  0
 26  1  2  0  0  0  0
 29 28  1  0  0  0  0
 30 34  1  0  0  0  0
 31 32  1  0  0  0  0
 32 29  1  0  0  0  0
 33 30  2  0  0  0  0
 33 31  1  0  0  0  0
 34 32  2  0  0  0  0
M  END
>  <MODEL>
2

>  <REMARK>
 VINA RESULT:      -8.4      1.110      1.224
  Name = 
  3 active torsions:
  status: ('A' for Active; 'I' for Inactive)
    1  A    between atoms: C_17  and  O_28
    2  A    between atoms: O_28  and  C_29
    3  A    between atoms: C_29  and  C_32
                            x       y       z     vdW  Elec       q    Type
                         _______ _______ _______ _____ _____    ______ ____

>  <TORSDO>
F 3

$$$$
=
 OpenBabel11112417463D

 34 41  0  0  1  0  0  0  0  0999 V2000
  189.8510  176.6410  144.8130 C   0  0  0  0  0  0  0  0  0  0  0  0
  191.9310  175.6560  143.9110 N   0  0  0  0  0  2  0  0  0  0  0  0
  184.1720  179.0550  144.3480 C   0  0  2  0  0  3  0  0  0  0  0  0
  187.7150  177.1680  145.7930 C   0  0  0  0  0  0  0  0  0  0  0  0
  185.5600  176.8560  144.4920 C   0  0  1  0  0  3  0  0  0  0  0  0
  186.1810  179.1850  143.5860 C   0  0  0  0  0  2  0  0  0  0  0  0
  185.2280  180.1590  144.2620 C   0  0  0  0  0  2  0  0  0  0  0  0
  184.7420  178.8800  146.6250 C   0  0  0  0  0  2  0  0  0  0  0  0
  190.0510  175.8630  142.4230 C   0  0  2  0  0  3  0  0  0  0  0  0
  189.4150  173.1020  140.8040 C   0  0  0  0  0  2  0  0  0  0  0  0
  186.3580  175.8540  143.6530 C   0  0  0  0  0  2  0  0  0  0  0  0
  185.4990  177.5930  146.8960 C   0  0  0  0  0  2  0  0  0  0  0  0
  188.5930  175.3730  142.5550 C   0  0  1  0  0  3  0  0  0  0  0  0
  192.2910  175.0130  142.6490 C   0  0  0  0  0  2  0  0  0  0  0  0
  186.2770  177.2170  145.7230 N   0  0  0  0  0  0  0  0  0  0  0  0
  183.7490  178.6580  145.6510 O   0  0  0  0  0  0  0  0  0  0  0  0
  190.5480  173.3950  141.8050 C   0  0  1  0  0  3  0  0  0  0  0  0
  188.4580  176.7150  144.6920 C   0  0  0  0  0  0  0  0  0  0  0  0
  185.1300  178.0830  143.6580 C   0  0  2  0  0  3  0  0  0  0  0  0
  187.7740  176.3730  143.3880 C   0  0  2  0  0  3  0  0  0  0  0  0
  189.7140  177.4260  147.0380 C   0  0  0  0  0  3  0  0  0  0  0  0
  188.7690  174.3480  140.1930 C   0  0  0  0  0  2  0  0  0  0  0  0
  188.3620  177.5120  146.9410 N   0  0  0  0  0  0  0  0  0  0  0  0
  187.9260  175.1470  141.1910 C   0  0  0  0  0  2  0  0  0  0  0  0
  191.0290  174.8650  141.8040 C   0  0  1  0  0  3  0  0  0  0  0  0
  190.4480  176.9890  145.9830 N   0  0  0  0  0  0  0  0  0  0  0  0
  190.6310  176.1420  143.7210 N   0  0  0  0  0  0  0  0  0  0  0  0
  190.1680  172.9810  143.0880 O   0  0  0  0  0  0  0  0  0  0  0  0
  190.4700  171.6200  143.1410 C   0  0  0  0  0  2  0  0  0  0  0  0
  193.7170  170.6230  144.4020 N   0  0  0  0  0  0  0  0  0  0  0  0
  192.3480  172.2580  144.6340 O   0  0  0  0  0  0  0  0  0  0  0  0
  191.8030  171.4360  143.7760 C   0  0  0  0  0  0  0  0  0  0  0  0
  193.4940  171.7800  145.0110 N   0  0  0  0  0  0  0  0  0  0  0  0
  192.6580  170.3680  143.6070 C   0  0  0  0  0  3  0  0  0  0  0  0
  1 26  1  0  0  0  0
  3  7  1  1  0  0  0
  3 16  1  0  0  0  0
  4 23  2  0  0  0  0
  5 11  1  6  0  0  0
  5 15  1  0  0  0  0
  6  7  1  0  0  0  0
  8 12  1  0  0  0  0
  9 13  1  0  0  0  0
  9 27  1  1  0  0  0
 10 17  1  0  0  0  0
 13 24  1  6  0  0  0
 13 20  1  0  0  0  0
 14  2  1  0  0  0  0
 15  4  1  0  0  0  0
 15 12  1  0  0  0  0
 16  8  1  0  0  0  0
 17 28  1  1  0  0  0
 18  1  2  0  0  0  0
 18  4  1  0  0  0  0
 19  6  1  1  0  0  0
 19  3  1  0  0  0  0
 19  5  1  0  0  0  0
 20 11  1  1  0  0  0
 20 18  1  0  0  0  0
 22 10  1  0  0  0  0
 22 24  1  0  0  0  0
 23 21  1  0  0  0  0
 25 17  1  0  0  0  0
 25  9  1  0  0  0  0
 25 14  1  1  0  0  0
 26 21  2  0  0  0  0
 27  2  1  0  0  0  0
 27  1  1  0  0  0  0
 28 29  1  0  0  0  0
 29 32  1  0  0  0  0
 30 33  2  0  0  0  0
 31 33  1  0  0  0  0
 32 31  1  0  0  0  0
 34 32  2  0  0  0  0
 34 30  1  0  0  0  0
M  END
>  <MODEL>
3

>  <REMARK>
 VINA RESULT:      -8.4      2.842      4.743
  Name = 
  3 active torsions:
  status: ('A' for Active; 'I' for Inactive)
    1  A    between atoms: C_17  and  O_28
    2  A    between atoms: O_28  and  C_29
    3  A    between atoms: C_29  and  C_32
                            x       y       z     vdW  Elec       q    Type
                         _______ _______ _______ _____ _____    ______ ____

>  <TORSDO>
F 3

$$$$
=
 OpenBabel11112417463D

 34 41  0  0  1  0  0  0  0  0999 V2000
  192.4040  175.9780  145.7480 C   0  0  0  0  0  0  0  0  0  0  0  0
  190.1320  176.0050  146.7230 N   0  0  0  0  0  2  0  0  0  0  0  0
  196.8240  173.8530  141.9750 C   0  0  2  0  0  3  0  0  0  0  0  0
  194.4670  176.3060  144.5490 C   0  0  0  0  0  0  0  0  0  0  0  0
  194.7640  175.4330  142.1860 C   0  0  1  0  0  3  0  0  0  0  0  0
  195.3580  173.2630  143.4380 C   0  0  0  0  0  2  0  0  0  0  0  0
  196.8680  173.1140  143.3150 C   0  0  0  0  0  2  0  0  0  0  0  0
  197.6490  175.7250  143.1380 C   0  0  0  0  0  2  0  0  0  0  0  0
  190.4940  174.6640  144.7570 C   0  0  2  0  0  3  0  0  0  0  0  0
  188.2510  175.1850  142.4450 C   0  0  0  0  0  2  0  0  0  0  0  0
  193.2350  175.4690  142.1130 C   0  0  0  0  0  2  0  0  0  0  0  0
  196.5780  176.7910  143.2790 C   0  0  0  0  0  2  0  0  0  0  0  0
  191.0810  175.0260  143.3750 C   0  0  1  0  0  3  0  0  0  0  0  0
  188.8370  175.4690  146.3050 C   0  0  0  0  0  2  0  0  0  0  0  0
  195.2640  176.1670  143.3570 N   0  0  0  0  0  0  0  0  0  0  0  0
  197.5330  175.0870  141.8880 O   0  0  0  0  0  0  0  0  0  0  0  0
  188.3490  175.8030  143.8520 C   0  0  1  0  0  3  0  0  0  0  0  0
  193.1630  175.7860  144.5880 C   0  0  0  0  0  0  0  0  0  0  0  0
  195.3050  173.9890  142.0980 C   0  0  2  0  0  3  0  0  0  0  0  0
  192.6170  174.9860  143.4280 C   0  0  2  0  0  3  0  0  0  0  0  0
  194.1910  177.1660  146.7390 C   0  0  0  0  0  3  0  0  0  0  0  0
  189.0470  173.8900  142.2630 C   0  0  0  0  0  2  0  0  0  0  0  0
  194.9490  176.9850  145.6260 N   0  0  0  0  0  0  0  0  0  0  0  0
  190.5630  174.1050  142.2610 C   0  0  0  0  0  2  0  0  0  0  0  0
  188.9880  174.8720  144.9090 C   0  0  1  0  0  3  0  0  0  0  0  0
  192.9280  176.6700  146.7940 N   0  0  0  0  0  0  0  0  0  0  0  0
  191.0570  175.4970  145.8000 N   0  0  0  0  0  0  0  0  0  0  0  0
  189.0120  177.0340  143.7860 O   0  0  0  0  0  0  0  0  0  0  0  0
  188.3280  177.7700  142.8160 C   0  0  0  0  0  2  0  0  0  0  0  0
  185.0960  179.1600  143.6810 N   0  0  0  0  0  0  0  0  0  0  0  0
  186.9320  178.6550  144.6680 O   0  0  0  0  0  0  0  0  0  0  0  0
  187.0870  178.3350  143.4100 C   0  0  0  0  0  0  0  0  0  0  0  0
  185.7440  179.1480  144.8380 N   0  0  0  0  0  0  0  0  0  0  0  0
  185.9230  178.6510  142.7440 C   0  0  0  0  0  3  0  0  0  0  0  0
  1 27  1  0  0  0  0
  1 26  1  0  0  0  0
  3 19  1  0  0  0  0
  3  7  1  1  0  0  0
  4 18  1  0  0  0  0
  4 23  2  0  0  0  0
  5 11  1  1  0  0  0
  5 15  1  0  0  0  0
  7  6  1  0  0  0  0
  8 12  1  0  0  0  0
  9 25  1  0  0  0  0
  9 27  1  1  0  0  0
 10 17  1  0  0  0  0
 12 15  1  0  0  0  0
 13 24  1  6  0  0  0
 13 20  1  0  0  0  0
 13  9  1  0  0  0  0
 14  2  1  0  0  0  0
 15  4  1  0  0  0  0
 16  3  1  0  0  0  0
 16  8  1  0  0  0  0
 17 28  1  6  0  0  0
 17 25  1  0  0  0  0
 18  1  2  0  0  0  0
 19  5  1  0  0  0  0
 19  6  1  1  0  0  0
 20 11  1  6  0  0  0
 20 18  1  0  0  0  0
 21 26  2  0  0  0  0
 22 10  1  0  0  0  0
 23 21  1  0  0  0  0
 24 22  1  0  0  0  0
 25 14  1  1  0  0  0
 27  2  1  0  0  0  0
 29 32  1  0  0  0  0
 29 28  1  0  0  0  0
 30 33  2  0  0  0  0
 31 33  1  0  0  0  0
 32 31  1  0  0  0  0
 34 32  2  0  0  0  0
 34 30  1  0  0  0  0
M  END
>  <MODEL>
4

>  <REMARK>
 VINA RESULT:      -7.5      2.435      8.023
  Name = 
  3 active torsions:
  status: ('A' for Active; 'I' for Inactive)
    1  A    between atoms: C_17  and  O_28
    2  A    between atoms: O_28  and  C_29
    3  A    between atoms: C_29  and  C_32
                            x       y       z     vdW  Elec       q    Type
                         _______ _______ _______ _____ _____    ______ ____

>  <TORSDO>
F 3

$$$$
=
 OpenBabel11112417463D

 34 41  0  0  1  0  0  0  0  0999 V2000
  187.6260  175.8530  141.7430 C   0  0  0  0  0  0  0  0  0  0  0  0
  188.7510  174.1930  140.2970 N   0  0  0  0  0  2  0  0  0  0  0  0
  185.4560  177.9870  147.1310 C   0  0  2  0  0  3  0  0  0  0  0  0
  186.9320  177.6890  143.1400 C   0  0  0  0  0  0  0  0  0  0  0  0
  187.5510  177.7750  145.5980 C   0  0  1  0  0  3  0  0  0  0  0  0
  185.4630  176.2830  145.8140 C   0  0  0  0  0  2  0  0  0  0  0  0
  184.3800  177.1710  146.4100 C   0  0  0  0  0  2  0  0  0  0  0  0
  185.1270  179.6260  145.4740 C   0  0  0  0  0  2  0  0  0  0  0  0
  188.8980  173.8880  142.6800 C   0  0  2  0  0  3  0  0  0  0  0  0
  191.9520  173.3520  143.6960 C   0  0  0  0  0  2  0  0  0  0  0  0
  188.6980  176.8360  145.2140 C   0  0  0  0  0  2  0  0  0  0  0  0
  186.3140  179.6870  144.5300 C   0  0  0  0  0  2  0  0  0  0  0  0
  189.3700  174.8420  143.7980 C   0  0  1  0  0  3  0  0  0  0  0  0
  189.6450  173.0640  140.5460 C   0  0  0  0  0  2  0  0  0  0  0  0
  186.9220  178.3680  144.4100 N   0  0  0  0  0  0  0  0  0  0  0  0
  185.5690  179.3660  146.7860 O   0  0  0  0  0  0  0  0  0  0  0  0
  191.4330  173.5490  142.2590 C   0  0  1  0  0  3  0  0  0  0  0  0
  187.6010  176.4620  143.0030 C   0  0  0  0  0  0  0  0  0  0  0  0
  186.5390  177.0840  146.5390 C   0  0  2  0  0  3  0  0  0  0  0  0
  188.2270  175.7880  144.2020 C   0  0  2  0  0  3  0  0  0  0  0  0
  186.3820  177.6470  140.8350 C   0  0  0  0  0  3  0  0  0  0  0  0
  190.8770  172.9560  144.7110 C   0  0  0  0  0  2  0  0  0  0  0  0
  186.3400  178.2530  142.0510 N   0  0  0  0  0  0  0  0  0  0  0  0
  189.8950  174.0870  145.0270 C   0  0  0  0  0  2  0  0  0  0  0  0
  189.9910  173.0390  142.0320 C   0  0  1  0  0  3  0  0  0  0  0  0
  187.0250  176.4600  140.6860 N   0  0  0  0  0  0  0  0  0  0  0  0
  188.3370  174.6230  141.5650 N   0  0  0  0  0  0  0  0  0  0  0  0
  191.5670  174.8920  141.8860 O   0  0  0  0  0  0  0  0  0  0  0  0
  192.9400  175.1420  141.8920 C   0  0  0  0  0  2  0  0  0  0  0  0
  194.3500  176.8000  144.7890 N   0  0  0  0  0  0  0  0  0  0  0  0
  192.4590  176.6780  143.7820 O   0  0  0  0  0  0  0  0  0  0  0  0
  193.2910  175.9340  143.1010 C   0  0  0  0  0  0  0  0  0  0  0  0
  193.0860  177.2010  144.7920 N   0  0  0  0  0  0  0  0  0  0  0  0
  194.5180  175.9870  143.7260 C   0  0  0  0  0  3  0  0  0  0  0  0
  1 18  1  0  0  0  0
  2 14  1  0  0  0  0
  2 27  1  0  0  0  0
  3  7  1  6  0  0  0
  4 15  1  0  0  0  0
  5 11  1  6  0  0  0
  5 19  1  0  0  0  0
  6  7  1  0  0  0  0
  8 16  1  0  0  0  0
  9 27  1  6  0  0  0
  9 13  1  0  0  0  0
 10 22  1  0  0  0  0
 12  8  1  0  0  0  0
 13 20  1  0  0  0  0
 13 24  1  1  0  0  0
 15 12  1  0  0  0  0
 15  5  1  0  0  0  0
 16  3  1  0  0  0  0
 17 28  1  1  0  0  0
 17 10  1  0  0  0  0
 18  4  2  0  0  0  0
 18 20  1  0  0  0  0
 19  6  1  6  0  0  0
 19  3  1  0  0  0  0
 20 11  1  1  0  0  0
 21 23  2  0  0  0  0
 22 24  1  0  0  0  0
 23  4  1  0  0  0  0
 25 14  1  6  0  0  0
 25 17  1  0  0  0  0
 25  9  1  0  0  0  0
 26 21  1  0  0  0  0
 26  1  2  0  0  0  0
 27  1  1  0  0  0  0
 28 29  1  0  0  0  0
 29 32  1  0  0  0  0
 30 33  2  0  0  0  0
 31 33  1  0  0  0  0
 32 34  2  0  0  0  0
 32 31  1  0  0  0  0
 34 30  1  0  0  0  0
M  END
>  <MODEL>
5

>  <REMARK>
 VINA RESULT:      -7.4      2.352      3.356
  Name = 
  3 active torsions:
  status: ('A' for Active; 'I' for Inactive)
    1  A    between atoms: C_17  and  O_28
    2  A    between atoms: O_28  and  C_29
    3  A    between atoms: C_29  and  C_32
                            x       y       z     vdW  Elec       q    Type
                         _______ _______ _______ _____ _____    ______ ____

>  <TORSDO>
F 3

$$$$
=
 OpenBabel11112417463D

 34 41  0  0  1  0  0  0  0  0999 V2000
  191.4780  172.9040  143.2140 C   0  0  0  0  0  0  0  0  0  0  0  0
  189.1160  172.9430  142.4850 N   0  0  0  0  0  2  0  0  0  0  0  0
  197.1550  175.2850  143.8400 C   0  0  2  0  0  3  0  0  0  0  0  0
  193.6070  172.9690  144.3380 C   0  0  0  0  0  0  0  0  0  0  0  0
  194.7560  175.1720  144.8480 C   0  0  1  0  0  3  0  0  0  0  0  0
  195.5800  174.9020  142.4240 C   0  0  0  0  0  2  0  0  0  0  0  0
  197.0460  174.5080  142.5260 C   0  0  0  0  0  2  0  0  0  0  0  0
  197.0810  173.1950  144.9210 C   0  0  0  0  0  2  0  0  0  0  0  0
  190.3500  175.0080  142.4000 C   0  0  2  0  0  3  0  0  0  0  0  0
  188.7510  177.4890  143.7900 C   0  0  0  0  0  2  0  0  0  0  0  0
  193.3560  175.7820  144.7490 C   0  0  0  0  0  2  0  0  0  0  0  0
  195.7570  173.0020  145.6360 C   0  0  0  0  0  2  0  0  0  0  0  0
  191.1580  175.7530  143.4850 C   0  0  1  0  0  3  0  0  0  0  0  0
  188.1840  174.0030  142.1040 C   0  0  0  0  0  2  0  0  0  0  0  0
  194.6990  173.7050  144.9220 N   0  0  0  0  0  0  0  0  0  0  0  0
  197.4860  174.5420  145.0120 O   0  0  0  0  0  0  0  0  0  0  0  0
  188.2930  176.0310  143.6000 C   0  0  1  0  0  3  0  0  0  0  0  0
  192.5410  173.6530  143.7330 C   0  0  0  0  0  0  0  0  0  0  0  0
  195.6840  175.6870  143.7260 C   0  0  2  0  0  3  0  0  0  0  0  0
  192.5710  175.1580  143.5920 C   0  0  2  0  0  3  0  0  0  0  0  0
  192.5290  170.9040  143.9070 C   0  0  0  0  0  3  0  0  0  0  0  0
  189.8970  177.9200  142.8720 C   0  0  0  0  0  2  0  0  0  0  0  0
  193.5740  171.6100  144.4120 N   0  0  0  0  0  0  0  0  0  0  0  0
  191.2350  177.2630  143.2210 C   0  0  0  0  0  2  0  0  0  0  0  0
  188.8620  175.3500  142.3340 C   0  0  1  0  0  3  0  0  0  0  0  0
  191.4880  171.5500  143.3190 N   0  0  0  0  0  0  0  0  0  0  0  0
  190.3570  173.5770  142.6300 N   0  0  0  0  0  0  0  0  0  0  0  0
  188.5760  175.2900  144.7530 O   0  0  0  0  0  0  0  0  0  0  0  0
  188.3600  176.1650  145.8180 C   0  0  0  0  0  2  0  0  0  0  0  0
  191.2130  176.6060  148.0070 N   0  0  0  0  0  0  0  0  0  0  0  0
  190.0100  174.9960  147.2570 O   0  0  0  0  0  0  0  0  0  0  0  0
  189.5130  176.0960  146.7550 C   0  0  0  0  0  0  0  0  0  0  0  0
  191.0260  175.2930  148.0080 N   0  0  0  0  0  0  0  0  0  0  0  0
  190.2680  177.1530  147.2150 C   0  0  0  0  0  3  0  0  0  0  0  0
  1 26  2  0  0  0  0
  1 18  1  0  0  0  0
  2 27  1  0  0  0  0
  3  7  1  6  0  0  0
  3 16  1  0  0  0  0
  4 23  1  0  0  0  0
  4 15  1  0  0  0  0
  5 11  1  6  0  0  0
  5 15  1  0  0  0  0
  6  7  1  0  0  0  0
  8 16  1  0  0  0  0
  8 12  1  0  0  0  0
  9 27  1  1  0  0  0
  9 13  1  0  0  0  0
 13 24  1  6  0  0  0
 13 20  1  0  0  0  0
 14  2  1  0  0  0  0
 15 12  1  0  0  0  0
 17 10  1  0  0  0  0
 17 28  1  1  0  0  0
 18  4  2  0  0  0  0
 19  6  1  6  0  0  0
 19  3  1  0  0  0  0
 19  5  1  0  0  0  0
 20 18  1  0  0  0  0
 20 11  1  1  0  0  0
 21 23  2  0  0  0  0
 22 24  1  0  0  0  0
 22 10  1  0  0  0  0
 25 14  1  1  0  0  0
 25  9  1  0  0  0  0
 25 17  1  0  0  0  0
 26 21  1  0  0  0  0
 27  1  1  0  0  0  0
 28 29  1  0  0  0  0
 29 32  1  0  0  0  0
 30 33  2  0  0  0  0
 31 33  1  0  0  0  0
 32 34  2  0  0  0  0
 32 31  1  0  0  0  0
 34 30  1  0  0  0  0
M  END
>  <MODEL>
6

>  <REMARK>
 VINA RESULT:      -7.4      2.641      7.326
  Name = 
  3 active torsions:
  status: ('A' for Active; 'I' for Inactive)
    1  A    between atoms: C_17  and  O_28
    2  A    between atoms: O_28  and  C_29
    3  A    between atoms: C_29  and  C_32
                            x       y       z     vdW  Elec       q    Type
                         _______ _______ _______ _____ _____    ______ ____

>  <TORSDO>
F 3

$$$$
=
 OpenBabel11112417463D

 34 41  0  0  1  0  0  0  0  0999 V2000
  189.4240  174.9250  141.8570 C   0  0  0  0  0  0  0  0  0  0  0  0
  188.3360  177.1450  141.8610 N   0  0  0  0  0  2  0  0  0  0  0  0
  193.5720  170.7500  143.7700 C   0  0  2  0  0  3  0  0  0  0  0  0
  190.1240  172.6340  142.1080 C   0  0  0  0  0  0  0  0  0  0  0  0
  191.2480  171.8290  144.2350 C   0  0  1  0  0  3  0  0  0  0  0  0
  193.3410  172.7720  143.0690 C   0  0  0  0  0  2  0  0  0  0  0  0
  194.1340  171.5610  142.6000 C   0  0  0  0  0  2  0  0  0  0  0  0
  192.1410  169.7390  142.1980 C   0  0  0  0  0  2  0  0  0  0  0  0
  189.8720  176.6450  143.6450 C   0  0  2  0  0  3  0  0  0  0  0  0
  188.6470  177.3280  146.5910 C   0  0  0  0  0  2  0  0  0  0  0  0
  190.5640  173.0260  144.9010 C   0  0  0  0  0  2  0  0  0  0  0  0
  190.7100  170.2080  142.3880 C   0  0  0  0  0  2  0  0  0  0  0  0
  189.9240  175.4660  144.6400 C   0  0  1  0  0  3  0  0  0  0  0  0
  188.2980  178.2600  142.8050 C   0  0  0  0  0  2  0  0  0  0  0  0
  190.6990  171.5730  142.8950 N   0  0  0  0  0  0  0  0  0  0  0  0
  192.7760  169.6110  143.4490 O   0  0  0  0  0  0  0  0  0  0  0  0
  188.0080  177.5410  145.2060 C   0  0  1  0  0  3  0  0  0  0  0  0
  190.0270  173.9300  142.6370 C   0  0  0  0  0  0  0  0  0  0  0  0
  192.7850  171.9730  144.2420 C   0  0  2  0  0  3  0  0  0  0  0  0
  190.6150  174.2570  143.9910 C   0  0  2  0  0  3  0  0  0  0  0  0
  189.0370  173.3570  140.1310 C   0  0  0  0  0  3  0  0  0  0  0  0
  190.1690  177.1630  146.5700 C   0  0  0  0  0  2  0  0  0  0  0  0
  189.6250  172.3780  140.8670 N   0  0  0  0  0  0  0  0  0  0  0  0
  190.6270  175.8390  145.9530 C   0  0  0  0  0  2  0  0  0  0  0  0
  189.0240  177.8390  144.0800 C   0  0  1  0  0  3  0  0  0  0  0  0
  188.9350  174.6170  140.6270 N   0  0  0  0  0  0  0  0  0  0  0  0
  189.2730  176.2460  142.3880 N   0  0  0  0  0  0  0  0  0  0  0  0
  187.1920  176.4490  144.8850 O   0  0  0  0  0  0  0  0  0  0  0  0
  185.9850  176.6830  145.5460 C   0  0  0  0  0  2  0  0  0  0  0  0
  184.1190  178.6660  143.1560 N   0  0  0  0  0  0  0  0  0  0  0  0
  184.7060  178.7840  145.2160 O   0  0  0  0  0  0  0  0  0  0  0  0
  185.1740  177.6520  144.7610 C   0  0  0  0  0  0  0  0  0  0  0  0
  184.0720  179.3960  144.2620 N   0  0  0  0  0  0  0  0  0  0  0  0
  184.8160  177.5460  143.4350 C   0  0  0  0  0  3  0  0  0  0  0  0
  1 27  1  0  0  0  0
  1 18  1  0  0  0  0
  2 27  1  0  0  0  0
  2 14  1  0  0  0  0
  3  7  1  6  0  0  0
  3 19  1  0  0  0  0
  4 18  2  0  0  0  0
  4 15  1  0  0  0  0
  5 19  1  0  0  0  0
  5 11  1  6  0  0  0
  7  6  1  0  0  0  0
  8 12  1  0  0  0  0
  8 16  1  0  0  0  0
  9 27  1  6  0  0  0
  9 25  1  0  0  0  0
  9 13  1  0  0  0  0
 12 15  1  0  0  0  0
 13 24  1  1  0  0  0
 15  5  1  0  0  0  0
 16  3  1  0  0  0  0
 17 28  1  6  0  0  0
 17 10  1  0  0  0  0
 18 20  1  0  0  0  0
 19  6  1  6  0  0  0
 20 13  1  0  0  0  0
 20 11  1  1  0  0  0
 21 26  1  0  0  0  0
 21 23  2  0  0  0  0
 22 10  1  0  0  0  0
 23  4  1  0  0  0  0
 24 22  1  0  0  0  0
 25 14  1  6  0  0  0
 25 17  1  0  0  0  0
 26  1  2  0  0  0  0
 28 29  1  0  0  0  0
 30 34  1  0  0  0  0
 30 33  2  0  0  0  0
 32 31  1  0  0  0  0
 32 29  1  0  0  0  0
 33 31  1  0  0  0  0
 34 32  2  0  0  0  0
M  END
>  <MODEL>
7

>  <REMARK>
 VINA RESULT:      -7.4      3.008      7.529
  Name = 
  3 active torsions:
  status: ('A' for Active; 'I' for Inactive)
    1  A    between atoms: C_17  and  O_28
    2  A    between atoms: O_28  and  C_29
    3  A    between atoms: C_29  and  C_32
                            x       y       z     vdW  Elec       q    Type
                         _______ _______ _______ _____ _____    ______ ____

>  <TORSDO>
F 3

$$$$
=
 OpenBabel11112417463D

 34 41  0  0  1  0  0  0  0  0999 V2000
  192.3940  172.1130  144.1450 C   0  0  0  0  0  0  0  0  0  0  0  0
  194.1470  170.3760  144.0010 N   0  0  0  0  0  2  0  0  0  0  0  0
  189.6920  177.1130  146.5930 C   0  0  2  0  0  3  0  0  0  0  0  0
  190.9140  174.0030  143.9410 C   0  0  0  0  0  0  0  0  0  0  0  0
  191.5150  176.2540  144.9420 C   0  0  1  0  0  3  0  0  0  0  0  0
  190.5220  175.1830  147.0630 C   0  0  0  0  0  2  0  0  0  0  0  0
  189.1650  175.8420  147.2630 C   0  0  0  0  0  2  0  0  0  0  0  0
  188.4790  176.4460  144.6890 C   0  0  0  0  0  2  0  0  0  0  0  0
  194.5460  172.2560  145.4500 C   0  0  2  0  0  3  0  0  0  0  0  0
  197.4780  173.6100  144.9810 C   0  0  0  0  0  2  0  0  0  0  0  0
  192.9630  175.7630  144.8640 C   0  0  0  0  0  2  0  0  0  0  0  0
  189.4140  175.9850  143.5860 C   0  0  0  0  0  2  0  0  0  0  0  0
  194.5050  173.7750  145.1780 C   0  0  1  0  0  3  0  0  0  0  0  0
  195.5100  170.2580  144.5180 C   0  0  0  0  0  2  0  0  0  0  0  0
  190.6120  175.3930  144.1650 N   0  0  0  0  0  0  0  0  0  0  0  0
  189.0540  177.5270  145.3870 O   0  0  0  0  0  0  0  0  0  0  0  0
  196.8630  172.3750  144.2950 C   0  0  1  0  0  3  0  0  0  0  0  0
  192.1160  173.4570  144.4190 C   0  0  0  0  0  0  0  0  0  0  0  0
  191.0570  176.4490  146.4050 C   0  0  2  0  0  3  0  0  0  0  0  0
  193.0590  174.2870  145.2610 C   0  0  2  0  0  3  0  0  0  0  0  0
  190.3560  171.9180  142.9630 C   0  0  0  0  0  3  0  0  0  0  0  0
  196.8160  173.9950  146.3070 C   0  0  0  0  0  2  0  0  0  0  0  0
  190.0630  173.2190  143.2230 N   0  0  0  0  0  0  0  0  0  0  0  0
  195.4060  174.5660  146.1380 C   0  0  0  0  0  2  0  0  0  0  0  0
  195.8880  171.5740  145.1890 C   0  0  1  0  0  3  0  0  0  0  0  0
  191.5150  171.3750  143.4170 N   0  0  0  0  0  0  0  0  0  0  0  0
  193.6320  171.5420  144.5830 N   0  0  0  0  0  0  0  0  0  0  0  0
  196.2600  172.7530  143.0890 O   0  0  0  0  0  0  0  0  0  0  0  0
  197.1280  173.6850  142.5180 C   0  0  0  0  0  2  0  0  0  0  0  0
  194.7470  176.1020  141.2470 N   0  0  0  0  0  0  0  0  0  0  0  0
  196.8330  176.0240  141.7420 O   0  0  0  0  0  0  0  0  0  0  0  0
  196.3440  174.8410  142.0090 C   0  0  0  0  0  0  0  0  0  0  0  0
  195.8840  176.7840  141.2880 N   0  0  0  0  0  0  0  0  0  0  0  0
  195.0020  174.8560  141.6980 C   0  0  0  0  0  3  0  0  0  0  0  0
  1 18  1  0  0  0  0
  1 27  1  0  0  0  0
  2 14  1  0  0  0  0
  2 27  1  0  0  0  0
  3  7  1  6  0  0  0
  4 15  1  0  0  0  0
  4 18  2  0  0  0  0
  5 11  1  1  0  0  0
  5 19  1  0  0  0  0
  6  7  1  0  0  0  0
  8 16  1  0  0  0  0
  9 27  1  6  0  0  0
 10 22  1  0  0  0  0
 12 15  1  0  0  0  0
 12  8  1  0  0  0  0
 13 20  1  0  0  0  0
 13  9  1  0  0  0  0
 13 24  1  1  0  0  0
 15  5  1  0  0  0  0
 16  3  1  0  0  0  0
 17 28  1  6  0  0  0
 17 10  1  0  0  0  0
 17 25  1  0  0  0  0
 18 20  1  0  0  0  0
 19  3  1  0  0  0  0
 19  6  1  6  0  0  0
 20 11  1  6  0  0  0
 21 23  2  0  0  0  0
 21 26  1  0  0  0  0
 23  4  1  0  0  0  0
 24 22  1  0  0  0  0
 25 14  1  6  0  0  0
 25  9  1  0  0  0  0
 26  1  2  0  0  0  0
 29 28  1  0  0  0  0
 30 33  2  0  0  0  0
 30 34  1  0  0  0  0
 31 32  1  0  0  0  0
 32 29  1  0  0  0  0
 33 31  1  0  0  0  0
 34 32  2  0  0  0  0
M  END
>  <MODEL>
8

>  <REMARK>
 VINA RESULT:      -7.2      2.255      3.520
  Name = 
  3 active torsions:
  status: ('A' for Active; 'I' for Inactive)
    1  A    between atoms: C_17  and  O_28
    2  A    between atoms: O_28  and  C_29
    3  A    between atoms: C_29  and  C_32
                            x       y       z     vdW  Elec       q    Type
                         _______ _______ _______ _____ _____    ______ ____

>  <TORSDO>
F 3

$$$$
=
 OpenBabel11112417463D

 34 41  0  0  1  0  0  0  0  0999 V2000
  190.8860  176.2510  144.6430 C   0  0  0  0  0  0  0  0  0  0  0  0
  193.2240  175.4610  144.4860 N   0  0  0  0  0  2  0  0  0  0  0  0
  185.3650  177.8120  142.3240 C   0  0  2  0  0  3  0  0  0  0  0  0
  188.5180  176.5890  144.9250 C   0  0  0  0  0  0  0  0  0  0  0  0
  186.8650  175.8490  143.1490 C   0  0  1  0  0  3  0  0  0  0  0  0
  187.4860  178.1270  142.1220 C   0  0  0  0  0  2  0  0  0  0  0  0
  186.2880  179.0330  142.3700 C   0  0  0  0  0  2  0  0  0  0  0  0
  185.2780  177.9650  144.6710 C   0  0  0  0  0  2  0  0  0  0  0  0
  191.8350  175.2500  142.5320 C   0  0  2  0  0  3  0  0  0  0  0  0
  191.9620  172.2690  141.2110 C   0  0  0  0  0  2  0  0  0  0  0  0
  187.9640  174.8780  142.7080 C   0  0  0  0  0  2  0  0  0  0  0  0
  186.0490  176.8290  145.3170 C   0  0  0  0  0  2  0  0  0  0  0  0
  190.4550  174.5860  142.3340 C   0  0  1  0  0  3  0  0  0  0  0  0
  193.9900  174.7390  143.4720 C   0  0  0  0  0  2  0  0  0  0  0  0
  187.1620  176.4360  144.4630 N   0  0  0  0  0  0  0  0  0  0  0  0
  184.6300  177.5070  143.5080 O   0  0  0  0  0  0  0  0  0  0  0  0
  192.7280  172.8190  142.4290 C   0  0  1  0  0  3  0  0  0  0  0  0
  189.5850  176.1220  144.1410 C   0  0  0  0  0  0  0  0  0  0  0  0
  186.5720  176.9080  142.0640 C   0  0  2  0  0  3  0  0  0  0  0  0
  189.3380  175.5510  142.7640 C   0  0  2  0  0  3  0  0  0  0  0  0
  190.0440  177.2480  146.6140 C   0  0  0  0  0  3  0  0  0  0  0  0
  191.3970  173.3420  140.2780 C   0  0  0  0  0  2  0  0  0  0  0  0
  188.7730  177.1390  146.1440 N   0  0  0  0  0  0  0  0  0  0  0  0
  190.2300  174.1240  140.8870 C   0  0  0  0  0  2  0  0  0  0  0  0
  193.0420  174.3310  142.3480 C   0  0  1  0  0  3  0  0  0  0  0  0
  191.0880  176.8010  145.8690 N   0  0  0  0  0  0  0  0  0  0  0  0
  191.9900  175.7440  143.8840 N   0  0  0  0  0  0  0  0  0  0  0  0
  192.0410  172.5000  143.6060 O   0  0  0  0  0  0  0  0  0  0  0  0
  192.3700  171.1710  143.8780 C   0  0  0  0  0  2  0  0  0  0  0  0
  195.4650  171.4500  145.7400 N   0  0  0  0  0  0  0  0  0  0  0  0
  194.7370  170.4340  143.9970 O   0  0  0  0  0  0  0  0  0  0  0  0
  193.7290  171.1130  144.4790 C   0  0  0  0  0  0  0  0  0  0  0  0
  195.7790  170.6290  144.7470 N   0  0  0  0  0  0  0  0  0  0  0  0
  194.1650  171.7830  145.6010 C   0  0  0  0  0  3  0  0  0  0  0  0
  1 26  1  0  0  0  0
  3  7  1  1  0  0  0
  3 16  1  0  0  0  0
  4 23  2  0  0  0  0
  5 11  1  6  0  0  0
  5 15  1  0  0  0  0
  6  7  1  0  0  0  0
  8 12  1  0  0  0  0
  9 27  1  1  0  0  0
 10 17  1  0  0  0  0
 13 24  1  6  0  0  0
 13  9  1  0  0  0  0
 13 20  1  0  0  0  0
 14  2  1  0  0  0  0
 15  4  1  0  0  0  0
 15 12  1  0  0  0  0
 16  8  1  0  0  0  0
 17 28  1  1  0  0  0
 18  1  2  0  0  0  0
 18  4  1  0  0  0  0
 19  6  1  1  0  0  0
 19  3  1  0  0  0  0
 19  5  1  0  0  0  0
 20 11  1  1  0  0  0
 20 18  1  0  0  0  0
 22 24  1  0  0  0  0
 22 10  1  0  0  0  0
 23 21  1  0  0  0  0
 25 17  1  0  0  0  0
 25  9  1  0  0  0  0
 25 14  1  1  0  0  0
 26 21  2  0  0  0  0
 27  2  1  0  0  0  0
 27  1  1  0  0  0  0
 28 29  1  0  0  0  0
 29 32  1  0  0  0  0
 31 32  1  0  0  0  0
 31 33  1  0  0  0  0
 32 34  2  0  0  0  0
 33 30  2  0  0  0  0
 34 30  1  0  0  0  0
M  END
>  <MODEL>
9

>  <REMARK>
 VINA RESULT:      -7.1      2.463      4.354
  Name = 
  3 active torsions:
  status: ('A' for Active; 'I' for Inactive)
    1  A    between atoms: C_17  and  O_28
    2  A    between atoms: O_28  and  C_29
    3  A    between atoms: C_29  and  C_32
                            x       y       z     vdW  Elec       q    Type
                         _______ _______ _______ _____ _____    ______ ____

>  <TORSDO>
F 3

$$$$
