=
 OpenBabel11112416233D

 30 35  0  0  1  0  0  0  0  0999 V2000
  187.0950  176.9640  144.4740 C   0  0  2  0  0  3  0  0  0  0  0  0
  185.2260  177.8280  145.9730 C   0  0  2  0  0  3  0  0  0  0  0  0
  189.9100  177.2780  147.6180 O   0  0  0  0  0  0  0  0  0  0  0  0
  188.6150  176.7580  144.2560 C   0  0  2  0  0  3  0  0  0  0  0  0
  186.4800  177.4780  143.1730 C   0  0  0  0  0  2  0  0  0  0  0  0
  188.5890  175.7330  140.8880 O   0  0  0  0  0  0  0  0  0  0  0  0
  191.2630  176.1960  143.1700 C   0  0  1  0  0  3  0  0  0  0  0  0
  188.0610  175.9410  141.9720 C   0  0  0  0  0  0  0  0  0  0  0  0
  191.6610  176.5910  144.5970 C   0  0  2  0  0  3  0  0  0  0  0  0
  190.9640  176.6130  147.0150 C   0  0  0  0  0  0  0  0  0  0  0  0
  186.6380  176.4440  142.0520 C   0  0  2  0  0  3  0  0  0  0  0  0
  188.7690  175.5960  143.2610 C   0  0  1  0  0  3  0  0  0  0  0  0
  184.8750  178.6070  147.2170 C   0  0  0  0  0  3  0  0  0  0  0  0
  192.9900  175.9200  144.8060 C   0  0  0  0  0  2  0  0  0  0  0  0
  192.4720  175.7790  142.4640 N   0  0  0  0  0  2  0  0  0  0  0  0
  184.8160  176.5160  146.1380 F   0  0  0  0  0  0  0  0  0  0  0  0
  188.9840  177.5410  146.5850 C   0  0  1  0  0  3  0  0  0  0  0  0
  185.7820  178.9230  148.1550 C   0  0  0  0  0  3  0  0  0  0  0  0
  186.7310  177.8810  145.6710 C   0  0  1  0  0  3  0  0  0  0  0  0
  189.2540  176.4300  145.5970 C   0  0  2  0  0  3  0  0  0  0  0  0
  192.0530  176.3830  147.6040 O   0  0  0  0  0  0  0  0  0  0  0  0
  190.7050  176.2350  145.6600 N   0  0  0  0  0  0  0  0  0  0  0  0
  193.5750  175.8490  143.4170 C   0  0  0  0  0  2  0  0  0  0  0  0
  190.4820  174.0090  143.8780 O   0  0  0  0  0  1  0  0  0  0  0  0
  187.2520  178.6260  148.0000 C   0  0  0  0  0  2  0  0  0  0  0  0
  187.5180  177.5420  146.9560 C   0  0  2  0  0  3  0  0  0  0  0  0
  190.2040  175.0970  143.0460 C   0  0  2  0  0  3  0  0  0  0  0  0
  186.2200  177.0310  140.7870 N   0  0  0  0  0  2  0  0  0  0  0  0
  184.1680  178.2910  140.5130 C   0  0  0  0  0  1  0  0  0  0  0  0
  185.5660  178.2910  141.0950 C   0  0  0  0  0  2  0  0  0  0  0  0
  1  5  1  6  0  0  0
  1 19  1  0  0  0  0
  2 16  1  1  0  0  0
  2 13  1  0  0  0  0
  4  1  1  0  0  0  0
  4 20  1  0  0  0  0
  6  8  2  0  0  0  0
  7  9  1  0  0  0  0
  8 11  1  0  0  0  0
  8 12  1  0  0  0  0
  9 14  1  0  0  0  0
  9 22  1  0  0  0  0
 10 21  2  0  0  0  0
 10  3  1  0  0  0  0
 11  5  1  0  0  0  0
 12  4  1  0  0  0  0
 13 18  2  0  0  0  0
 15  7  1  0  0  0  0
 15 23  1  0  0  0  0
 17 26  1  0  0  0  0
 17  3  1  0  0  0  0
 19  2  1  0  0  0  0
 19 26  1  0  0  0  0
 20 22  1  0  0  0  0
 20 17  1  0  0  0  0
 22 10  1  0  0  0  0
 23 14  1  0  0  0  0
 25 18  1  0  0  0  0
 26 25  1  0  0  0  0
 27  7  1  0  0  0  0
 27 12  1  0  0  0  0
 27 24  1  0  0  0  0
 28 30  1  0  0  0  0
 28 11  1  0  0  0  0
 29 30  1  0  0  0  0
M  END
>  <MODEL>
1

>  <REMARK>
 VINA RESULT:      -8.4      0.000      0.000
  Name = 
  2 active torsions:
  status: ('A' for Active; 'I' for Inactive)
    1  A    between atoms: C_11  and  N_28
    2  A    between atoms: N_28  and  C_30
                            x       y       z     vdW  Elec       q    Type
                         _______ _______ _______ _____ _____    ______ ____

>  <TORSDO>
F 2

$$$$
=
 OpenBabel11112416233D

 30 35  0  0  1  0  0  0  0  0999 V2000
  189.4430  175.9780  143.8450 C   0  0  2  0  0  3  0  0  0  0  0  0
  191.4120  175.2540  145.2890 C   0  0  2  0  0  3  0  0  0  0  0  0
  187.5840  177.8770  147.1380 O   0  0  0  0  0  0  0  0  0  0  0  0
  188.0030  176.5480  143.7760 C   0  0  2  0  0  3  0  0  0  0  0  0
  189.5550  174.8150  142.8600 C   0  0  0  0  0  2  0  0  0  0  0  0
  187.3410  176.0510  140.3540 O   0  0  0  0  0  0  0  0  0  0  0  0
  185.3500  177.4270  142.9440 C   0  0  1  0  0  3  0  0  0  0  0  0
  188.0840  176.1460  141.3210 C   0  0  0  0  0  0  0  0  0  0  0  0
  185.2760  177.7940  144.4320 C   0  0  2  0  0  3  0  0  0  0  0  0
  186.5780  178.5360  146.4530 C   0  0  0  0  0  0  0  0  0  0  0  0
  189.3300  175.2960  141.4220 C   0  0  2  0  0  3  0  0  0  0  0  0
  187.8430  177.1890  142.3870 C   0  0  1  0  0  3  0  0  0  0  0  0
  191.9070  174.9810  146.6880 C   0  0  0  0  0  3  0  0  0  0  0  0
  184.2320  178.8750  144.4910 C   0  0  0  0  0  2  0  0  0  0  0  0
  184.1160  177.8810  142.3070 N   0  0  0  0  0  2  0  0  0  0  0  0
  192.1270  176.3160  144.7620 F   0  0  0  0  0  0  0  0  0  0  0  0
  188.1160  176.9390  146.2260 C   0  0  1  0  0  3  0  0  0  0  0  0
  191.2410  175.3770  147.7840 C   0  0  0  0  0  3  0  0  0  0  0  0
  189.9080  175.5630  145.2650 C   0  0  1  0  0  3  0  0  0  0  0  0
  187.8380  177.5750  144.8850 C   0  0  2  0  0  3  0  0  0  0  0  0
  185.7660  179.3170  147.0150 O   0  0  0  0  0  0  0  0  0  0  0  0
  186.5370  178.2280  145.0560 N   0  0  0  0  0  0  0  0  0  0  0  0
  183.3240  178.5570  143.3280 C   0  0  0  0  0  2  0  0  0  0  0  0
  186.7510  179.3420  142.4310 O   0  0  0  0  0  1  0  0  0  0  0  0
  189.8850  176.0340  147.7200 C   0  0  0  0  0  2  0  0  0  0  0  0
  189.5900  176.6240  146.3420 C   0  0  2  0  0  3  0  0  0  0  0  0
  186.5490  177.9830  142.1720 C   0  0  2  0  0  3  0  0  0  0  0  0
  189.2520  174.1470  140.5310 N   0  0  0  0  0  2  0  0  0  0  0  0
  190.0140  171.8770  140.9000 C   0  0  0  0  0  1  0  0  0  0  0  0
  189.0760  172.9710  141.3650 C   0  0  0  0  0  2  0  0  0  0  0  0
  1  5  1  6  0  0  0
  1 19  1  0  0  0  0
  2 16  1  1  0  0  0
  2 13  1  0  0  0  0
  4  1  1  0  0  0  0
  4 20  1  0  0  0  0
  6  8  2  0  0  0  0
  7  9  1  0  0  0  0
  8 11  1  0  0  0  0
  8 12  1  0  0  0  0
  9 14  1  0  0  0  0
  9 22  1  0  0  0  0
 10 21  2  0  0  0  0
 10  3  1  0  0  0  0
 11  5  1  0  0  0  0
 12  4  1  0  0  0  0
 13 18  2  0  0  0  0
 15  7  1  0  0  0  0
 15 23  1  0  0  0  0
 17 26  1  0  0  0  0
 17  3  1  0  0  0  0
 19  2  1  0  0  0  0
 19 26  1  0  0  0  0
 20 22  1  0  0  0  0
 20 17  1  0  0  0  0
 22 10  1  0  0  0  0
 23 14  1  0  0  0  0
 25 18  1  0  0  0  0
 26 25  1  0  0  0  0
 27 12  1  0  0  0  0
 27 24  1  0  0  0  0
 27  7  1  0  0  0  0
 28 30  1  0  0  0  0
 28 11  1  0  0  0  0
 29 30  1  0  0  0  0
M  END
>  <MODEL>
2

>  <REMARK>
 VINA RESULT:      -7.9      2.658      5.588
  Name = 
  2 active torsions:
  status: ('A' for Active; 'I' for Inactive)
    1  A    between atoms: C_11  and  N_28
    2  A    between atoms: N_28  and  C_30
                            x       y       z     vdW  Elec       q    Type
                         _______ _______ _______ _____ _____    ______ ____

>  <TORSDO>
F 2

$$$$
=
 OpenBabel11112416233D

 30 35  0  0  1  0  0  0  0  0999 V2000
  188.9410  176.2280  144.4900 C   0  0  2  0  0  3  0  0  0  0  0  0
  189.4820  177.1060  146.8190 C   0  0  2  0  0  3  0  0  0  0  0  0
  191.8340  173.1610  144.8570 O   0  0  0  0  0  0  0  0  0  0  0  0
  189.3420  175.3130  143.3050 C   0  0  2  0  0  3  0  0  0  0  0  0
  188.4840  177.5750  143.9340 C   0  0  0  0  0  2  0  0  0  0  0  0
  187.0060  176.4050  140.9080 O   0  0  0  0  0  0  0  0  0  0  0  0
  189.5630  173.9540  140.7340 C   0  0  1  0  0  3  0  0  0  0  0  0
  187.4300  176.2930  142.0500 C   0  0  0  0  0  0  0  0  0  0  0  0
  190.6900  173.2390  141.4880 C   0  0  2  0  0  3  0  0  0  0  0  0
  191.5010  172.4300  143.7280 C   0  0  0  0  0  0  0  0  0  0  0  0
  187.2390  177.4070  143.0550 C   0  0  2  0  0  3  0  0  0  0  0  0
  188.0540  175.0020  142.5250 C   0  0  1  0  0  3  0  0  0  0  0  0
  190.4990  177.1660  147.9310 C   0  0  0  0  0  3  0  0  0  0  0  0
  190.8400  171.9280  140.7660 C   0  0  0  0  0  2  0  0  0  0  0  0
  189.4430  173.3400  139.4140 N   0  0  0  0  0  2  0  0  0  0  0  0
  188.3570  176.4420  147.2780 F   0  0  0  0  0  0  0  0  0  0  0  0
  191.1680  174.3980  144.7200 C   0  0  1  0  0  3  0  0  0  0  0  0
  191.5650  176.3510  147.9840 C   0  0  0  0  0  3  0  0  0  0  0  0
  190.0390  176.4060  145.5710 C   0  0  1  0  0  3  0  0  0  0  0  0
  189.9730  174.0470  143.8650 C   0  0  2  0  0  3  0  0  0  0  0  0
  192.0620  171.3440  143.4280 O   0  0  0  0  0  0  0  0  0  0  0  0
  190.4800  173.0370  142.9320 N   0  0  0  0  0  0  0  0  0  0  0  0
  190.4090  172.2480  139.3560 C   0  0  0  0  0  2  0  0  0  0  0  0
  187.8420  172.6840  141.8830 O   0  0  0  0  0  1  0  0  0  0  0  0
  191.9020  175.3770  146.8840 C   0  0  0  0  0  2  0  0  0  0  0  0
  190.7010  175.0740  145.9890 C   0  0  2  0  0  3  0  0  0  0  0  0
  188.1910  173.9540  141.4150 C   0  0  2  0  0  3  0  0  0  0  0  0
  186.9410  178.6660  142.3880 N   0  0  0  0  0  2  0  0  0  0  0  0
  185.5660  179.7910  144.0360 C   0  0  0  0  0  1  0  0  0  0  0  0
  185.5750  179.0180  142.7330 C   0  0  0  0  0  2  0  0  0  0  0  0
  1  5  1  6  0  0  0
  1 19  1  0  0  0  0
  2 16  1  1  0  0  0
  2 13  1  0  0  0  0
  4 20  1  0  0  0  0
  4  1  1  0  0  0  0
  6  8  2  0  0  0  0
  7 27  1  0  0  0  0
  7  9  1  0  0  0  0
  8 12  1  0  0  0  0
  8 11  1  0  0  0  0
  9 22  1  0  0  0  0
 10  3  1  0  0  0  0
 11  5  1  0  0  0  0
 12  4  1  0  0  0  0
 13 18  2  0  0  0  0
 14  9  1  0  0  0  0
 15  7  1  0  0  0  0
 17  3  1  0  0  0  0
 17 26  1  0  0  0  0
 19 26  1  0  0  0  0
 19  2  1  0  0  0  0
 20 17  1  0  0  0  0
 21 10  2  0  0  0  0
 22 10  1  0  0  0  0
 22 20  1  0  0  0  0
 23 15  1  0  0  0  0
 23 14  1  0  0  0  0
 25 18  1  0  0  0  0
 26 25  1  0  0  0  0
 27 24  1  0  0  0  0
 27 12  1  0  0  0  0
 28 30  1  0  0  0  0
 28 11  1  0  0  0  0
 30 29  1  0  0  0  0
M  END
>  <MODEL>
3

>  <REMARK>
 VINA RESULT:      -7.8      2.584      4.155
  Name = 
  2 active torsions:
  status: ('A' for Active; 'I' for Inactive)
    1  A    between atoms: C_11  and  N_28
    2  A    between atoms: N_28  and  C_30
                            x       y       z     vdW  Elec       q    Type
                         _______ _______ _______ _____ _____    ______ ____

>  <TORSDO>
F 2

$$$$
=
 OpenBabel11112416233D

 30 35  0  0  1  0  0  0  0  0999 V2000
  188.3140  175.6140  142.9870 C   0  0  2  0  0  3  0  0  0  0  0  0
  186.0210  176.7230  143.0270 C   0  0  2  0  0  3  0  0  0  0  0  0
  189.3920  177.4650  146.6370 O   0  0  0  0  0  0  0  0  0  0  0  0
  189.7500  175.5460  143.5660 C   0  0  2  0  0  3  0  0  0  0  0  0
  188.3940  175.5110  141.4650 C   0  0  0  0  0  2  0  0  0  0  0  0
  191.2060  173.3310  141.2480 O   0  0  0  0  0  0  0  0  0  0  0  0
  192.5630  174.9740  144.0830 C   0  0  1  0  0  3  0  0  0  0  0  0
  190.2550  173.8600  141.8050 C   0  0  0  0  0  0  0  0  0  0  0  0
  192.2860  175.9280  145.2510 C   0  0  2  0  0  3  0  0  0  0  0  0
  190.5640  176.7680  146.8810 C   0  0  0  0  0  0  0  0  0  0  0  0
  188.9850  174.1620  141.0420 C   0  0  2  0  0  3  0  0  0  0  0  0
  190.2730  174.1260  143.2920 C   0  0  1  0  0  3  0  0  0  0  0  0
  185.1870  177.8600  143.5650 C   0  0  0  0  0  3  0  0  0  0  0  0
  193.3310  175.5690  146.2720 C   0  0  0  0  0  2  0  0  0  0  0  0
  193.9330  174.4870  144.2130 N   0  0  0  0  0  2  0  0  0  0  0  0
  185.5040  175.5280  143.4980 F   0  0  0  0  0  0  0  0  0  0  0  0
  189.0590  177.1920  145.2930 C   0  0  1  0  0  3  0  0  0  0  0  0
  185.5820  178.6250  144.5950 C   0  0  0  0  0  3  0  0  0  0  0  0
  187.4980  176.8580  143.4270 C   0  0  1  0  0  3  0  0  0  0  0  0
  189.6840  175.8370  145.0560 C   0  0  2  0  0  3  0  0  0  0  0  0
  191.2470  176.9250  147.9270 O   0  0  0  0  0  0  0  0  0  0  0  0
  190.9310  175.8760  145.8250 N   0  0  0  0  0  0  0  0  0  0  0  0
  194.4800  175.0570  145.4390 C   0  0  0  0  0  2  0  0  0  0  0  0
  191.4160  173.1330  145.1740 O   0  0  0  0  0  1  0  0  0  0  0  0
  186.9390  178.4900  145.2370 C   0  0  0  0  0  2  0  0  0  0  0  0
  187.5890  177.1380  144.9440 C   0  0  2  0  0  3  0  0  0  0  0  0
  191.6140  173.7790  143.9500 C   0  0  2  0  0  3  0  0  0  0  0  0
  189.2280  174.1660  139.6070 N   0  0  0  0  0  2  0  0  0  0  0  0
  189.1480  171.9080  138.7310 C   0  0  0  0  0  1  0  0  0  0  0  0
  188.3530  173.1640  139.0230 C   0  0  0  0  0  2  0  0  0  0  0  0
  1  5  1  6  0  0  0
  1 19  1  0  0  0  0
  1  4  1  0  0  0  0
  2 19  1  0  0  0  0
  2 16  1  1  0  0  0
  2 13  1  0  0  0  0
  3 10  1  0  0  0  0
  4 20  1  0  0  0  0
  6  8  2  0  0  0  0
  7 15  1  0  0  0  0
  7  9  1  0  0  0  0
  8 12  1  0  0  0  0
  9 22  1  0  0  0  0
  9 14  1  0  0  0  0
 10 21  2  0  0  0  0
 11  5  1  0  0  0  0
 11  8  1  0  0  0  0
 12  4  1  0  0  0  0
 12 27  1  0  0  0  0
 13 18  2  0  0  0  0
 15 23  1  0  0  0  0
 17  3  1  0  0  0  0
 18 25  1  0  0  0  0
 19 26  1  0  0  0  0
 20 17  1  0  0  0  0
 20 22  1  0  0  0  0
 22 10  1  0  0  0  0
 23 14  1  0  0  0  0
 26 25  1  0  0  0  0
 26 17  1  0  0  0  0
 27  7  1  0  0  0  0
 27 24  1  0  0  0  0
 28 11  1  0  0  0  0
 29 30  1  0  0  0  0
 30 28  1  0  0  0  0
M  END
>  <MODEL>
4

>  <REMARK>
 VINA RESULT:      -7.4      2.039      3.059
  Name = 
  2 active torsions:
  status: ('A' for Active; 'I' for Inactive)
    1  A    between atoms: C_11  and  N_28
    2  A    between atoms: N_28  and  C_30
                            x       y       z     vdW  Elec       q    Type
                         _______ _______ _______ _____ _____    ______ ____

>  <TORSDO>
F 2

$$$$
=
 OpenBabel11112416233D

 30 35  0  0  1  0  0  0  0  0999 V2000
  190.9530  175.3660  143.8780 C   0  0  2  0  0  3  0  0  0  0  0  0
  193.4630  174.9480  143.9840 C   0  0  2  0  0  3  0  0  0  0  0  0
  191.0230  177.3820  147.5990 O   0  0  0  0  0  0  0  0  0  0  0  0
  189.6620  175.8010  144.6160 C   0  0  2  0  0  3  0  0  0  0  0  0
  190.6400  174.1340  143.0300 C   0  0  0  0  0  2  0  0  0  0  0  0
  187.2770  174.9450  142.1710 O   0  0  0  0  0  0  0  0  0  0  0  0
  186.9100  176.3690  145.3980 C   0  0  1  0  0  3  0  0  0  0  0  0
  188.4140  175.1900  142.5510 C   0  0  0  0  0  0  0  0  0  0  0  0
  187.6310  176.8580  146.6600 C   0  0  2  0  0  3  0  0  0  0  0  0
  189.7340  177.8880  147.5810 C   0  0  0  0  0  0  0  0  0  0  0  0
  189.5980  174.4640  141.9560 C   0  0  2  0  0  3  0  0  0  0  0  0
  188.6800  176.2990  143.5420 C   0  0  1  0  0  3  0  0  0  0  0  0
  194.6810  174.8440  144.8690 C   0  0  0  0  0  3  0  0  0  0  0  0
  186.6730  177.8460  147.2690 C   0  0  0  0  0  2  0  0  0  0  0  0
  185.4860  176.6550  145.5530 N   0  0  0  0  0  2  0  0  0  0  0  0
  193.6290  176.0170  143.1200 F   0  0  0  0  0  0  0  0  0  0  0  0
  191.0680  176.4170  146.5690 C   0  0  1  0  0  3  0  0  0  0  0  0
  194.6930  175.2770  146.1400 C   0  0  0  0  0  3  0  0  0  0  0  0
  192.1750  175.1210  144.8020 C   0  0  1  0  0  3  0  0  0  0  0  0
  190.0170  176.9050  145.6000 C   0  0  2  0  0  3  0  0  0  0  0  0
  189.2830  178.6420  148.4820 O   0  0  0  0  0  0  0  0  0  0  0  0
  188.9620  177.4540  146.4570 N   0  0  0  0  0  0  0  0  0  0  0  0
  185.3190  177.3480  146.8260 C   0  0  0  0  0  2  0  0  0  0  0  0
  187.5440  178.3450  144.1380 O   0  0  0  0  0  1  0  0  0  0  0  0
  193.4630  175.8060  146.8330 C   0  0  0  0  0  2  0  0  0  0  0  0
  192.3830  176.2430  145.8440 C   0  0  2  0  0  3  0  0  0  0  0  0
  187.4000  176.9560  144.0720 C   0  0  2  0  0  3  0  0  0  0  0  0
  189.1790  173.2390  141.2920 N   0  0  0  0  0  2  0  0  0  0  0  0
  188.2060  172.6650  139.1490 C   0  0  0  0  0  1  0  0  0  0  0  0
  189.2690  173.4750  139.8620 C   0  0  0  0  0  2  0  0  0  0  0  0
  1  5  1  1  0  0  0
  1  4  1  0  0  0  0
  1 19  1  0  0  0  0
  2 16  1  6  0  0  0
  2 19  1  0  0  0  0
  2 13  1  0  0  0  0
  4 20  1  0  0  0  0
  6  8  2  0  0  0  0
  7 15  1  0  0  0  0
  7  9  1  0  0  0  0
  8 12  1  0  0  0  0
  9 14  1  0  0  0  0
 10  3  1  0  0  0  0
 10 21  2  0  0  0  0
 11  8  1  0  0  0  0
 11  5  1  0  0  0  0
 12 27  1  0  0  0  0
 12  4  1  0  0  0  0
 13 18  2  0  0  0  0
 15 23  1  0  0  0  0
 17  3  1  0  0  0  0
 18 25  1  0  0  0  0
 19 26  1  0  0  0  0
 20 22  1  0  0  0  0
 20 17  1  0  0  0  0
 22  9  1  0  0  0  0
 22 10  1  0  0  0  0
 23 14  1  0  0  0  0
 26 17  1  0  0  0  0
 26 25  1  0  0  0  0
 27 24  1  0  0  0  0
 27  7  1  0  0  0  0
 28 11  1  0  0  0  0
 29 30  1  0  0  0  0
 30 28  1  0  0  0  0
M  END
>  <MODEL>
5

>  <REMARK>
 VINA RESULT:      -7.3      2.731      5.703
  Name = 
  2 active torsions:
  status: ('A' for Active; 'I' for Inactive)
    1  A    between atoms: C_11  and  N_28
    2  A    between atoms: N_28  and  C_30
                            x       y       z     vdW  Elec       q    Type
                         _______ _______ _______ _____ _____    ______ ____

>  <TORSDO>
F 2

$$$$
=
 OpenBabel11112416233D

 30 35  0  0  1  0  0  0  0  0999 V2000
  188.4720  175.2700  142.1220 C   0  0  2  0  0  3  0  0  0  0  0  0
  188.2760  173.7730  140.0700 C   0  0  2  0  0  3  0  0  0  0  0  0
  192.0520  173.3530  143.3140 O   0  0  0  0  0  0  0  0  0  0  0  0
  189.1510  175.5450  143.4880 C   0  0  2  0  0  3  0  0  0  0  0  0
  186.9690  175.5070  142.2670 C   0  0  0  0  0  2  0  0  0  0  0  0
  187.0970  178.1600  144.6440 O   0  0  0  0  0  0  0  0  0  0  0  0
  189.8990  176.5620  146.1170 C   0  0  1  0  0  3  0  0  0  0  0  0
  187.5500  177.4280  143.7750 C   0  0  0  0  0  0  0  0  0  0  0  0
  190.9770  175.4830  145.9540 C   0  0  2  0  0  3  0  0  0  0  0  0
  192.4230  174.2240  144.3240 C   0  0  0  0  0  0  0  0  0  0  0  0
  186.6810  176.9690  142.6260 C   0  0  2  0  0  3  0  0  0  0  0  0
  189.0120  177.0520  143.7590 C   0  0  1  0  0  3  0  0  0  0  0  0
  188.6770  172.4680  139.4280 C   0  0  0  0  0  3  0  0  0  0  0  0
  192.0900  175.9380  146.8570 C   0  0  0  0  0  2  0  0  0  0  0  0
  190.1570  177.2720  147.3670 N   0  0  0  0  0  2  0  0  0  0  0  0
  188.7920  174.8160  139.3200 F   0  0  0  0  0  0  0  0  0  0  0  0
  190.7090  173.6690  143.0120 C   0  0  1  0  0  3  0  0  0  0  0  0
  189.6760  171.7050  139.8970 C   0  0  0  0  0  3  0  0  0  0  0  0
  188.7670  173.8700  141.5220 C   0  0  1  0  0  3  0  0  0  0  0  0
  190.6100  175.1280  143.3930 C   0  0  2  0  0  3  0  0  0  0  0  0
  193.5000  174.1070  144.9650 O   0  0  0  0  0  0  0  0  0  0  0  0
  191.4590  175.2490  144.5820 N   0  0  0  0  0  0  0  0  0  0  0  0
  191.3760  176.7100  147.9390 C   0  0  0  0  0  2  0  0  0  0  0  0
  191.0320  178.0780  144.5960 O   0  0  0  0  0  1  0  0  0  0  0  0
  190.4180  172.0250  141.1700 C   0  0  0  0  0  2  0  0  0  0  0  0
  190.2640  173.4900  141.5780 C   0  0  2  0  0  3  0  0  0  0  0  0
  189.7840  177.5770  144.9760 C   0  0  2  0  0  3  0  0  0  0  0  0
  185.2700  177.1230  142.9440 N   0  0  0  0  0  2  0  0  0  0  0  0
  185.2270  178.1480  140.7490 C   0  0  0  0  0  1  0  0  0  0  0  0
  184.7840  178.2670  142.1930 C   0  0  0  0  0  2  0  0  0  0  0  0
  1  5  1  1  0  0  0
  1  4  1  0  0  0  0
  2 16  1  6  0  0  0
  2 19  1  0  0  0  0
  3 10  1  0  0  0  0
  4 12  1  0  0  0  0
  5 11  1  0  0  0  0
  7 15  1  0  0  0  0
  8  6  2  0  0  0  0
  9  7  1  0  0  0  0
  9 14  1  0  0  0  0
 10 22  1  0  0  0  0
 10 21  2  0  0  0  0
 11 28  1  0  0  0  0
 11  8  1  0  0  0  0
 12  8  1  0  0  0  0
 12 27  1  0  0  0  0
 13 18  2  0  0  0  0
 13  2  1  0  0  0  0
 14 23  1  0  0  0  0
 15 23  1  0  0  0  0
 17  3  1  0  0  0  0
 17 20  1  0  0  0  0
 18 25  1  0  0  0  0
 19 26  1  0  0  0  0
 19  1  1  0  0  0  0
 20  4  1  0  0  0  0
 20 22  1  0  0  0  0
 22  9  1  0  0  0  0
 24 27  1  0  0  0  0
 25 26  1  0  0  0  0
 26 17  1  0  0  0  0
 27  7  1  0  0  0  0
 29 30  1  0  0  0  0
 30 28  1  0  0  0  0
M  END
>  <MODEL>
6

>  <REMARK>
 VINA RESULT:      -7.3      2.786      5.278
  Name = 
  2 active torsions:
  status: ('A' for Active; 'I' for Inactive)
    1  A    between atoms: C_11  and  N_28
    2  A    between atoms: N_28  and  C_30
                            x       y       z     vdW  Elec       q    Type
                         _______ _______ _______ _____ _____    ______ ____

>  <TORSDO>
F 2

$$$$
=
 OpenBabel11112416233D

 30 35  0  0  1  0  0  0  0  0999 V2000
  187.2240  176.8590  143.7250 C   0  0  2  0  0  3  0  0  0  0  0  0
  185.7000  178.4260  142.4180 C   0  0  2  0  0  3  0  0  0  0  0  0
  188.5820  175.0280  140.1600 O   0  0  0  0  0  0  0  0  0  0  0  0
  188.1180  175.5930  143.7260 C   0  0  2  0  0  3  0  0  0  0  0  0
  186.3660  176.8520  144.9900 C   0  0  0  0  0  2  0  0  0  0  0  0
  188.7050  175.2940  147.1840 O   0  0  0  0  0  0  0  0  0  0  0  0
  189.7900  173.3160  144.4490 C   0  0  1  0  0  3  0  0  0  0  0  0
  188.3640  175.9070  146.1820 C   0  0  0  0  0  0  0  0  0  0  0  0
  189.7610  173.1270  142.9270 C   0  0  2  0  0  3  0  0  0  0  0  0
  189.6180  174.2810  140.6960 C   0  0  0  0  0  0  0  0  0  0  0  0
  187.2460  176.9230  146.2440 C   0  0  2  0  0  3  0  0  0  0  0  0
  189.1180  175.7540  144.8820 C   0  0  1  0  0  3  0  0  0  0  0  0
  184.9610  178.6660  141.1240 C   0  0  0  0  0  3  0  0  0  0  0  0
  191.0060  172.3350  142.6330 C   0  0  0  0  0  2  0  0  0  0  0  0
  190.6740  172.2990  145.0130 N   0  0  0  0  0  2  0  0  0  0  0  0
  186.6610  179.4110  142.5720 F   0  0  0  0  0  0  0  0  0  0  0  0
  187.8160  175.4650  141.2630 C   0  0  1  0  0  3  0  0  0  0  0  0
  185.2040  177.9610  140.0080 C   0  0  0  0  0  3  0  0  0  0  0  0
  186.3540  177.0370  142.4540 C   0  0  1  0  0  3  0  0  0  0  0  0
  188.8280  175.5050  142.3840 C   0  0  2  0  0  3  0  0  0  0  0  0
  190.3940  173.5850  139.9910 O   0  0  0  0  0  0  0  0  0  0  0  0
  189.7040  174.3590  142.1220 N   0  0  0  0  0  0  0  0  0  0  0  0
  191.2280  171.5400  143.8960 C   0  0  0  0  0  2  0  0  0  0  0  0
  191.3810  175.1430  144.3020 O   0  0  0  0  0  1  0  0  0  0  0  0
  186.1580  176.7940  139.9730 C   0  0  0  0  0  2  0  0  0  0  0  0
  187.1410  176.8120  141.1440 C   0  0  2  0  0  3  0  0  0  0  0  0
  190.2260  174.6950  144.9490 C   0  0  2  0  0  3  0  0  0  0  0  0
  186.4230  176.7220  147.4270 N   0  0  0  0  0  2  0  0  0  0  0  0
  186.6910  179.0580  148.0130 C   0  0  0  0  0  1  0  0  0  0  0  0
  185.7050  177.9620  147.6640 C   0  0  0  0  0  2  0  0  0  0  0  0
  1  4  1  0  0  0  0
  1  5  1  1  0  0  0
  2 19  1  0  0  0  0
  2 16  1  6  0  0  0
  3 10  1  0  0  0  0
  3 17  1  0  0  0  0
  4 12  1  0  0  0  0
  5 11  1  0  0  0  0
  7 27  1  0  0  0  0
  7 15  1  0  0  0  0
  8 11  1  0  0  0  0
  8  6  2  0  0  0  0
  9  7  1  0  0  0  0
 10 22  1  0  0  0  0
 11 28  1  0  0  0  0
 12 27  1  0  0  0  0
 12  8  1  0  0  0  0
 13  2  1  0  0  0  0
 14  9  1  0  0  0  0
 14 23  1  0  0  0  0
 17 20  1  0  0  0  0
 18 13  2  0  0  0  0
 19  1  1  0  0  0  0
 20  4  1  0  0  0  0
 21 10  2  0  0  0  0
 22 20  1  0  0  0  0
 22  9  1  0  0  0  0
 23 15  1  0  0  0  0
 24 27  1  0  0  0  0
 25 18  1  0  0  0  0
 25 26  1  0  0  0  0
 26 17  1  0  0  0  0
 26 19  1  0  0  0  0
 28 30  1  0  0  0  0
 30 29  1  0  0  0  0
M  END
>  <MODEL>
7

>  <REMARK>
 VINA RESULT:      -7.2      2.299      5.283
  Name = 
  2 active torsions:
  status: ('A' for Active; 'I' for Inactive)
    1  A    between atoms: C_11  and  N_28
    2  A    between atoms: N_28  and  C_30
                            x       y       z     vdW  Elec       q    Type
                         _______ _______ _______ _____ _____    ______ ____

>  <TORSDO>
F 2

$$$$
=
 OpenBabel11112416233D

 30 35  0  0  1  0  0  0  0  0999 V2000
  189.2650  175.9680  144.2490 C   0  0  2  0  0  3  0  0  0  0  0  0
  189.4160  177.1930  146.4760 C   0  0  2  0  0  3  0  0  0  0  0  0
  192.3410  173.2940  145.3870 O   0  0  0  0  0  0  0  0  0  0  0  0
  189.8960  174.9530  143.2620 C   0  0  2  0  0  3  0  0  0  0  0  0
  188.7680  177.1760  143.4560 C   0  0  0  0  0  2  0  0  0  0  0  0
  187.8080  175.4740  140.4750 O   0  0  0  0  0  0  0  0  0  0  0  0
  190.5700  173.3020  140.9540 C   0  0  1  0  0  3  0  0  0  0  0  0
  188.0860  175.5570  141.6630 C   0  0  0  0  0  0  0  0  0  0  0  0
  191.6470  172.8130  141.9300 C   0  0  2  0  0  3  0  0  0  0  0  0
  192.2250  172.3920  144.3430 C   0  0  0  0  0  0  0  0  0  0  0  0
  187.6700  176.7660  142.4700 C   0  0  2  0  0  3  0  0  0  0  0  0
  188.7530  174.4110  142.3880 C   0  0  1  0  0  3  0  0  0  0  0  0
  190.2700  177.5030  147.6810 C   0  0  0  0  0  3  0  0  0  0  0  0
  192.0040  171.4430  141.4240 C   0  0  0  0  0  2  0  0  0  0  0  0
  190.6790  172.5130  139.7300 N   0  0  0  0  0  2  0  0  0  0  0  0
  188.3040  176.4810  146.8890 F   0  0  0  0  0  0  0  0  0  0  0  0
  191.5930  174.4270  144.9980 C   0  0  1  0  0  3  0  0  0  0  0  0
  191.3860  176.8190  147.9750 C   0  0  0  0  0  3  0  0  0  0  0  0
  190.1920  176.3990  145.4150 C   0  0  1  0  0  3  0  0  0  0  0  0
  190.5560  173.8450  144.0660 C   0  0  2  0  0  3  0  0  0  0  0  0
  192.9130  171.3410  144.2680 O   0  0  0  0  0  0  0  0  0  0  0  0
  191.2680  172.7800  143.3530 N   0  0  0  0  0  0  0  0  0  0  0  0
  191.7350  171.5290  139.9420 C   0  0  0  0  0  2  0  0  0  0  0  0
  188.8310  172.0200  142.0610 O   0  0  0  0  0  1  0  0  0  0  0  0
  191.9490  175.7510  147.0720 C   0  0  0  0  0  2  0  0  0  0  0  0
  190.9060  175.2090  146.0940 C   0  0  2  0  0  3  0  0  0  0  0  0
  189.1270  173.2470  141.4610 C   0  0  2  0  0  3  0  0  0  0  0  0
  187.3520  177.8890  141.6000 N   0  0  0  0  0  2  0  0  0  0  0  0
  185.0740  177.9290  142.4230 C   0  0  0  0  0  1  0  0  0  0  0  0
  186.3700  178.7030  142.2950 C   0  0  0  0  0  2  0  0  0  0  0  0
  1  5  1  6  0  0  0
  1 19  1  0  0  0  0
  2 16  1  1  0  0  0
  2 13  1  0  0  0  0
  4 20  1  0  0  0  0
  4  1  1  0  0  0  0
  6  8  2  0  0  0  0
  7 27  1  0  0  0  0
  7  9  1  0  0  0  0
  8 12  1  0  0  0  0
  8 11  1  0  0  0  0
  9 22  1  0  0  0  0
 10  3  1  0  0  0  0
 11  5  1  0  0  0  0
 12  4  1  0  0  0  0
 13 18  2  0  0  0  0
 14  9  1  0  0  0  0
 15 23  1  0  0  0  0
 15  7  1  0  0  0  0
 17  3  1  0  0  0  0
 17 26  1  0  0  0  0
 19 26  1  0  0  0  0
 19  2  1  0  0  0  0
 20 17  1  0  0  0  0
 21 10  2  0  0  0  0
 22 20  1  0  0  0  0
 22 10  1  0  0  0  0
 23 14  1  0  0  0  0
 25 18  1  0  0  0  0
 26 25  1  0  0  0  0
 27 24  1  0  0  0  0
 27 12  1  0  0  0  0
 28 30  1  0  0  0  0
 28 11  1  0  0  0  0
 30 29  1  0  0  0  0
M  END
>  <MODEL>
8

>  <REMARK>
 VINA RESULT:      -7.1      2.627      3.957
  Name = 
  2 active torsions:
  status: ('A' for Active; 'I' for Inactive)
    1  A    between atoms: C_11  and  N_28
    2  A    between atoms: N_28  and  C_30
                            x       y       z     vdW  Elec       q    Type
                         _______ _______ _______ _____ _____    ______ ____

>  <TORSDO>
F 2

$$$$
=
 OpenBabel11112416233D

 30 35  0  0  1  0  0  0  0  0999 V2000
  188.7190  174.9390  142.5950 C   0  0  2  0  0  3  0  0  0  0  0  0
  186.6630  176.4370  142.7280 C   0  0  2  0  0  3  0  0  0  0  0  0
  190.1220  176.3510  146.3300 O   0  0  0  0  0  0  0  0  0  0  0  0
  190.1210  174.5810  143.1490 C   0  0  2  0  0  3  0  0  0  0  0  0
  188.7750  174.9120  141.0680 C   0  0  0  0  0  2  0  0  0  0  0  0
  191.1500  172.2800  140.6910 O   0  0  0  0  0  0  0  0  0  0  0  0
  192.7870  173.4850  143.5950 C   0  0  1  0  0  3  0  0  0  0  0  0
  190.3100  172.9380  141.2890 C   0  0  0  0  0  0  0  0  0  0  0  0
  192.6900  174.4040  144.8190 C   0  0  2  0  0  3  0  0  0  0  0  0
  191.1510  175.4430  146.5180 C   0  0  0  0  0  0  0  0  0  0  0  0
  189.1130  173.5060  140.5610 C   0  0  2  0  0  3  0  0  0  0  0  0
  190.3800  173.1090  142.7890 C   0  0  1  0  0  3  0  0  0  0  0  0
  186.0480  177.6710  143.3410 C   0  0  0  0  0  3  0  0  0  0  0  0
  193.6560  173.8050  145.8040 C   0  0  0  0  0  2  0  0  0  0  0  0
  194.0480  172.7540  143.6800 N   0  0  0  0  0  2  0  0  0  0  0  0
  185.9410  175.3280  143.1370 F   0  0  0  0  0  0  0  0  0  0  0  0
  189.7420  176.2210  144.9760 C   0  0  1  0  0  3  0  0  0  0  0  0
  186.5770  178.2910  144.4070 C   0  0  0  0  0  3  0  0  0  0  0  0
  188.1410  176.2810  143.1150 C   0  0  1  0  0  3  0  0  0  0  0  0
  190.1130  174.7920  144.6550 C   0  0  2  0  0  3  0  0  0  0  0  0
  191.8540  175.4140  147.5610 O   0  0  0  0  0  0  0  0  0  0  0  0
  191.3490  174.5620  145.4080 N   0  0  0  0  0  0  0  0  0  0  0  0
  194.6930  173.1450  144.9290 C   0  0  0  0  0  2  0  0  0  0  0  0
  191.3310  171.8190  144.5960 O   0  0  0  0  0  1  0  0  0  0  0  0
  187.8900  177.8790  145.0220 C   0  0  0  0  0  2  0  0  0  0  0  0
  188.2850  176.4520  144.6440 C   0  0  2  0  0  3  0  0  0  0  0  0
  191.6390  172.4890  143.4080 C   0  0  2  0  0  3  0  0  0  0  0  0
  189.3480  173.5500  139.1260 N   0  0  0  0  0  2  0  0  0  0  0  0
  188.5030  174.5410  137.0830 C   0  0  0  0  0  1  0  0  0  0  0  0
  188.1910  174.1880  138.5220 C   0  0  0  0  0  2  0  0  0  0  0  0
  1  5  1  6  0  0  0
  1 19  1  0  0  0  0
  1  4  1  0  0  0  0
  2 19  1  0  0  0  0
  2 16  1  1  0  0  0
  2 13  1  0  0  0  0
  3 10  1  0  0  0  0
  4 20  1  0  0  0  0
  6  8  2  0  0  0  0
  7 15  1  0  0  0  0
  7  9  1  0  0  0  0
  8 12  1  0  0  0  0
  9 22  1  0  0  0  0
  9 14  1  0  0  0  0
 10 21  2  0  0  0  0
 11  5  1  0  0  0  0
 11  8  1  0  0  0  0
 12  4  1  0  0  0  0
 12 27  1  0  0  0  0
 13 18  2  0  0  0  0
 15 23  1  0  0  0  0
 17  3  1  0  0  0  0
 18 25  1  0  0  0  0
 19 26  1  0  0  0  0
 20 17  1  0  0  0  0
 20 22  1  0  0  0  0
 22 10  1  0  0  0  0
 23 14  1  0  0  0  0
 26 17  1  0  0  0  0
 26 25  1  0  0  0  0
 27  7  1  0  0  0  0
 27 24  1  0  0  0  0
 28 11  1  0  0  0  0
 29 30  1  0  0  0  0
 30 28  1  0  0  0  0
M  END
>  <MODEL>
9

>  <REMARK>
 VINA RESULT:      -6.9      2.490      3.456
  Name = 
  2 active torsions:
  status: ('A' for Active; 'I' for Inactive)
    1  A    between atoms: C_11  and  N_28
    2  A    between atoms: N_28  and  C_30
                            x       y       z     vdW  Elec       q    Type
                         _______ _______ _______ _____ _____    ______ ____

>  <TORSDO>
F 2

$$$$
