=
 OpenBabel11112417363D

 28 31  0  0  1  0  0  0  0  0999 V2000
  187.0820  177.9830  145.0660 C   0  0  0  0  0  0  0  0  0  0  0  0
  190.2400  177.9510  147.0070 O   0  0  0  0  0  0  0  0  0  0  0  0
  186.3290  176.5750  147.3690 C   0  0  0  0  0  3  0  0  0  0  0  0
  187.3710  178.6780  143.7710 C   0  0  0  0  0  2  0  0  0  0  0  0
  190.0060  175.5450  147.5050 O   0  0  0  0  0  0  0  0  0  0  0  0
  190.6440  176.5620  146.6010 S   0  0  0  0  0  0  0  0  0  0  0  0
  192.8750  175.2280  145.8100 C   0  0  0  0  0  0  0  0  0  0  0  0
  190.2520  176.2690  144.9380 N   0  0  1  0  0  0  0  0  0  0  0  0
  186.4380  177.3210  140.2910 C   0  0  0  0  0  1  0  0  0  0  0  0
  188.5430  175.0300  143.7070 C   0  0  2  0  0  3  0  0  0  0  0  0
  192.2280  174.9290  144.4780 C   0  0  0  0  0  2  0  0  0  0  0  0
  192.4190  176.3800  146.6760 C   0  0  0  0  0  2  0  0  0  0  0  0
  187.3600  177.7030  141.4340 C   0  0  2  0  0  3  0  0  0  0  0  0
  187.7680  176.8060  145.4270 C   0  0  0  0  0  0  0  0  0  0  0  0
  194.0550  174.6740  146.0710 C   0  0  0  0  0  2  0  0  0  0  0  0
  188.3830  176.5890  141.6840 C   0  0  0  0  0  2  0  0  0  0  0  0
  187.3620  176.0920  146.5630 C   0  0  0  0  0  3  0  0  0  0  0  0
  186.0430  178.4580  145.8770 C   0  0  0  0  0  3  0  0  0  0  0  0
  185.6760  177.7620  147.0300 C   0  0  0  0  0  3  0  0  0  0  0  0
  186.5260  178.0560  142.6660 C   0  0  0  0  0  2  0  0  0  0  0  0
  189.9170  174.4250  143.4560 C   0  0  1  0  0  3  0  0  0  0  0  0
  187.7810  175.3850  142.4180 C   0  0  1  0  0  3  0  0  0  0  0  0
  190.7140  174.9240  144.6470 C   0  0  2  0  0  3  0  0  0  0  0  0
  188.8450  176.2760  144.5220 C   0  0  1  0  0  3  0  0  0  0  0  0
  188.5310  174.6060  140.4870 C   0  0  0  0  0  1  0  0  0  0  0  0
  187.6980  174.2850  141.5590 O   0  0  0  0  0  0  0  0  0  0  0  0
  189.8180  172.9080  143.4740 C   0  0  0  0  0  2  0  0  0  0  0  0
  189.6630  172.4040  144.8950 C   0  0  0  0  0  1  0  0  0  0  0  0
  1 14  2  0  0  0  0
  1 18  1  0  0  0  0
  4  1  1  0  0  0  0
  6 12  1  0  0  0  0
  6  2  2  0  0  0  0
  6  5  2  0  0  0  0
  7 15  2  0  0  0  0
  7 12  1  0  0  0  0
  8  6  1  1  0  0  0
  9 13  1  0  0  0  0
 10 24  1  0  0  0  0
 11 23  1  0  0  0  0
 11  7  1  0  0  0  0
 13 16  1  0  0  0  0
 13 20  1  0  0  0  0
 14 17  1  0  0  0  0
 16 22  1  0  0  0  0
 17  3  2  0  0  0  0
 18 19  2  0  0  0  0
 19  3  1  0  0  0  0
 20  4  1  0  0  0  0
 21 27  1  0  0  0  0
 21 10  1  0  0  0  0
 21 23  1  0  0  0  0
 22 10  1  0  0  0  0
 23  8  1  0  0  0  0
 24  8  1  0  0  0  0
 24 14  1  0  0  0  0
 25 26  1  0  0  0  0
 26 22  1  0  0  0  0
 27 28  1  0  0  0  0
M  END
>  <MODEL>
1

>  <REMARK>
 VINA RESULT:      -7.7      0.000      0.000
  Name = 
  2 active torsions:
  status: ('A' for Active; 'I' for Inactive)
    1  A    between atoms: C_5  and  C_24
    2  A    between atoms: O_17  and  C_25
                            x       y       z     vdW  Elec       q    Type
                         _______ _______ _______ _____ _____    ______ ____

>  <TORSDO>
F 2

$$$$
=
 OpenBabel11112417363D

 28 31  0  0  1  0  0  0  0  0999 V2000
  191.5930  173.7890  142.9330 C   0  0  0  0  0  0  0  0  0  0  0  0
  188.9240  174.8140  140.5760 O   0  0  0  0  0  0  0  0  0  0  0  0
  189.6510  171.8160  143.3690 C   0  0  0  0  0  3  0  0  0  0  0  0
  192.6860  174.8080  142.8280 C   0  0  0  0  0  2  0  0  0  0  0  0
  187.1780  174.5240  142.2970 O   0  0  0  0  0  0  0  0  0  0  0  0
  188.0800  175.5090  141.6070 S   0  0  0  0  0  0  0  0  0  0  0  0
  186.6460  177.8010  141.8720 C   0  0  0  0  0  0  0  0  0  0  0  0
  189.0750  176.3630  142.7410 N   0  0  1  0  0  0  0  0  0  0  0  0
  194.3390  176.5790  145.8200 C   0  0  0  0  0  1  0  0  0  0  0  0
  189.8160  176.0420  145.0470 C   0  0  2  0  0  3  0  0  0  0  0  0
  187.5570  178.2460  142.9920 C   0  0  0  0  0  2  0  0  0  0  0  0
  187.0840  176.7810  140.8460 C   0  0  0  0  0  2  0  0  0  0  0  0
  193.4670  176.4550  144.5850 C   0  0  2  0  0  3  0  0  0  0  0  0
  190.2930  174.1570  143.3350 C   0  0  0  0  0  0  0  0  0  0  0  0
  185.5770  178.5450  141.6020 C   0  0  0  0  0  2  0  0  0  0  0  0
  192.1160  177.1410  144.8210 C   0  0  0  0  0  2  0  0  0  0  0  0
  189.3390  173.1620  143.5810 C   0  0  0  0  0  3  0  0  0  0  0  0
  191.9000  172.4380  142.7300 C   0  0  0  0  0  3  0  0  0  0  0  0
  190.9290  171.4560  142.9360 C   0  0  0  0  0  3  0  0  0  0  0  0
  193.3460  174.9840  144.1910 C   0  0  0  0  0  2  0  0  0  0  0  0
  188.9310  177.2760  144.9450 C   0  0  1  0  0  3  0  0  0  0  0  0
  191.1790  176.3140  145.7090 C   0  0  1  0  0  3  0  0  0  0  0  0
  188.1640  177.0190  143.6610 C   0  0  2  0  0  3  0  0  0  0  0  0
  189.9900  175.6050  143.6030 C   0  0  1  0  0  3  0  0  0  0  0  0
  191.1540  175.8930  147.8820 C   0  0  0  0  0  1  0  0  0  0  0  0
  191.0220  176.9280  146.9560 O   0  0  0  0  0  0  0  0  0  0  0  0
  187.9860  177.3280  146.1340 C   0  0  0  0  0  2  0  0  0  0  0  0
  186.7510  176.4910  145.8660 C   0  0  0  0  0  1  0  0  0  0  0  0
  1 14  1  0  0  0  0
  2  6  2  0  0  0  0
  3 17  1  0  0  0  0
  4  1  1  0  0  0  0
  4 20  1  0  0  0  0
  6  5  2  0  0  0  0
  7 11  1  0  0  0  0
  8  6  1  6  0  0  0
  8 24  1  0  0  0  0
  8 23  1  0  0  0  0
 10 22  1  0  0  0  0
 11 23  1  0  0  0  0
 12  6  1  0  0  0  0
 12  7  1  0  0  0  0
 13 16  1  0  0  0  0
 13  9  1  0  0  0  0
 14 17  2  0  0  0  0
 14 24  1  0  0  0  0
 15  7  2  0  0  0  0
 16 22  1  0  0  0  0
 18  1  2  0  0  0  0
 18 19  1  0  0  0  0
 19  3  2  0  0  0  0
 20 13  1  0  0  0  0
 21 10  1  0  0  0  0
 21 27  1  0  0  0  0
 22 26  1  0  0  0  0
 23 21  1  0  0  0  0
 24 10  1  0  0  0  0
 26 25  1  0  0  0  0
 28 27  1  0  0  0  0
M  END
>  <MODEL>
2

>  <REMARK>
 VINA RESULT:      -7.6      1.851      6.486
  Name = 
  2 active torsions:
  status: ('A' for Active; 'I' for Inactive)
    1  A    between atoms: C_5  and  C_24
    2  A    between atoms: O_17  and  C_25
                            x       y       z     vdW  Elec       q    Type
                         _______ _______ _______ _____ _____    ______ ____

>  <TORSDO>
F 2

$$$$
=
 OpenBabel11112417363D

 28 31  0  0  1  0  0  0  0  0999 V2000
  191.8960  174.0640  144.8020 C   0  0  0  0  0  0  0  0  0  0  0  0
  189.9060  176.1840  147.1010 O   0  0  0  0  0  0  0  0  0  0  0  0
  193.2160  176.5270  144.6020 C   0  0  0  0  0  3  0  0  0  0  0  0
  191.2510  172.7120  144.7850 C   0  0  0  0  0  2  0  0  0  0  0  0
  189.8030  178.0190  145.4520 O   0  0  0  0  0  0  0  0  0  0  0  0
  189.0810  176.8300  146.0230 S   0  0  0  0  0  0  0  0  0  0  0  0
  186.4940  177.5210  145.5630 C   0  0  0  0  0  0  0  0  0  0  0  0
  188.6720  175.6810  144.7910 N   0  0  1  0  0  0  0  0  0  0  0  0
  190.3360  170.7530  141.5990 C   0  0  0  0  0  1  0  0  0  0  0  0
  189.4050  175.1850  142.5130 C   0  0  2  0  0  3  0  0  0  0  0  0
  186.4480  176.5740  144.3860 C   0  0  0  0  0  2  0  0  0  0  0  0
  187.5050  177.3600  146.6750 C   0  0  0  0  0  2  0  0  0  0  0  0
  190.0800  171.5600  142.8580 C   0  0  2  0  0  3  0  0  0  0  0  0
  191.1870  175.2120  144.3930 C   0  0  0  0  0  0  0  0  0  0  0  0
  185.4410  178.3030  145.7790 C   0  0  0  0  0  2  0  0  0  0  0  0
  189.0390  172.6530  142.5830 C   0  0  0  0  0  2  0  0  0  0  0  0
  191.8640  176.4320  144.2660 C   0  0  0  0  0  3  0  0  0  0  0  0
  193.2530  174.1670  145.1320 C   0  0  0  0  0  3  0  0  0  0  0  0
  193.9080  175.3970  145.0430 C   0  0  0  0  0  3  0  0  0  0  0  0
  191.4040  172.0980  143.3980 C   0  0  0  0  0  2  0  0  0  0  0  0
  187.9560  175.6530  142.5110 C   0  0  1  0  0  3  0  0  0  0  0  0
  189.6180  173.8380  141.8000 C   0  0  1  0  0  3  0  0  0  0  0  0
  187.8550  176.3980  143.8290 C   0  0  2  0  0  3  0  0  0  0  0  0
  189.7450  175.0800  143.9890 C   0  0  1  0  0  3  0  0  0  0  0  0
  190.2070  173.7110  139.6700 C   0  0  0  0  0  1  0  0  0  0  0  0
  189.0970  173.8640  140.5020 O   0  0  0  0  0  0  0  0  0  0  0  0
  187.7250  176.5960  141.3420 C   0  0  0  0  0  2  0  0  0  0  0  0
  188.3270  177.9570  141.6310 C   0  0  0  0  0  1  0  0  0  0  0  0
  1 18  1  0  0  0  0
  3 19  1  0  0  0  0
  4  1  1  0  0  0  0
  5  6  2  0  0  0  0
  6 12  1  0  0  0  0
  6  2  2  0  0  0  0
  7 15  2  0  0  0  0
  7 12  1  0  0  0  0
  8  6  1  1  0  0  0
  9 13  1  0  0  0  0
 10 24  1  0  0  0  0
 11  7  1  0  0  0  0
 13 20  1  0  0  0  0
 14  1  2  0  0  0  0
 16 13  1  0  0  0  0
 17 14  1  0  0  0  0
 17  3  2  0  0  0  0
 19 18  2  0  0  0  0
 20  4  1  0  0  0  0
 21 10  1  0  0  0  0
 21 23  1  0  0  0  0
 22 10  1  0  0  0  0
 22 16  1  0  0  0  0
 23 11  1  0  0  0  0
 23  8  1  0  0  0  0
 24 14  1  0  0  0  0
 24  8  1  0  0  0  0
 25 26  1  0  0  0  0
 26 22  1  0  0  0  0
 27 28  1  0  0  0  0
 27 21  1  0  0  0  0
M  END
>  <MODEL>
3

>  <REMARK>
 VINA RESULT:      -7.6      1.455      5.457
  Name = 
  2 active torsions:
  status: ('A' for Active; 'I' for Inactive)
    1  A    between atoms: C_5  and  C_24
    2  A    between atoms: O_17  and  C_25
                            x       y       z     vdW  Elec       q    Type
                         _______ _______ _______ _____ _____    ______ ____

>  <TORSDO>
F 2

$$$$
=
 OpenBabel11112417363D

 28 31  0  0  1  0  0  0  0  0999 V2000
  188.5810  176.7700  145.7650 C   0  0  0  0  0  0  0  0  0  0  0  0
  192.1060  177.1520  146.8440 O   0  0  0  0  0  0  0  0  0  0  0  0
  188.9410  174.4990  147.3670 C   0  0  0  0  0  3  0  0  0  0  0  0
  188.2760  177.9160  144.8500 C   0  0  0  0  0  2  0  0  0  0  0  0
  192.6060  174.7900  146.3270 O   0  0  0  0  0  0  0  0  0  0  0  0
  192.6720  176.2050  145.8240 S   0  0  0  0  0  0  0  0  0  0  0  0
  194.7850  176.0540  144.1220 C   0  0  0  0  0  0  0  0  0  0  0  0
  191.8550  176.3780  144.3050 N   0  0  1  0  0  0  0  0  0  0  0  0
  186.6350  177.5860  141.3830 C   0  0  0  0  0  1  0  0  0  0  0  0
  190.1810  175.1290  143.0360 C   0  0  2  0  0  3  0  0  0  0  0  0
  193.8380  176.0240  142.9450 C   0  0  0  0  0  2  0  0  0  0  0  0
  194.3710  176.6190  145.4620 C   0  0  0  0  0  2  0  0  0  0  0  0
  187.7550  177.8460  142.3730 C   0  0  2  0  0  3  0  0  0  0  0  0
  189.5990  175.8450  145.4560 C   0  0  0  0  0  0  0  0  0  0  0  0
  196.0810  175.8790  143.8880 C   0  0  0  0  0  2  0  0  0  0  0  0
  189.0340  177.1290  141.9260 C   0  0  0  0  0  2  0  0  0  0  0  0
  189.7500  174.6970  146.2450 C   0  0  0  0  0  3  0  0  0  0  0  0
  187.7700  176.5610  146.8880 C   0  0  0  0  0  3  0  0  0  0  0  0
  187.9580  175.4360  147.6930 C   0  0  0  0  0  3  0  0  0  0  0  0
  187.2940  177.4580  143.7770 C   0  0  0  0  0  2  0  0  0  0  0  0
  191.5070  175.1460  142.2870 C   0  0  1  0  0  3  0  0  0  0  0  0
  188.9910  175.6200  142.1920 C   0  0  1  0  0  3  0  0  0  0  0  0
  192.5000  175.4520  143.3930 C   0  0  2  0  0  3  0  0  0  0  0  0
  190.4270  176.0490  144.2190 C   0  0  1  0  0  3  0  0  0  0  0  0
  188.1680  173.7690  141.3000 C   0  0  0  0  0  1  0  0  0  0  0  0
  188.9000  174.9160  140.9880 O   0  0  0  0  0  0  0  0  0  0  0  0
  191.7740  173.7750  141.6890 C   0  0  0  0  0  2  0  0  0  0  0  0
  191.5000  172.6890  142.7100 C   0  0  0  0  0  1  0  0  0  0  0  0
  1 18  1  0  0  0  0
  3 19  1  0  0  0  0
  4  1  1  0  0  0  0
  6  5  2  0  0  0  0
  6  2  2  0  0  0  0
  7 12  1  0  0  0  0
  8  6  1  1  0  0  0
  9 13  1  0  0  0  0
 10 24  1  0  0  0  0
 11 23  1  0  0  0  0
 11  7  1  0  0  0  0
 12  6  1  0  0  0  0
 13 20  1  0  0  0  0
 14  1  2  0  0  0  0
 14 17  1  0  0  0  0
 15  7  2  0  0  0  0
 16 22  1  0  0  0  0
 16 13  1  0  0  0  0
 17  3  2  0  0  0  0
 18 19  2  0  0  0  0
 20  4  1  0  0  0  0
 21 10  1  0  0  0  0
 21 23  1  0  0  0  0
 22 10  1  0  0  0  0
 23  8  1  0  0  0  0
 24  8  1  0  0  0  0
 24 14  1  0  0  0  0
 26 25  1  0  0  0  0
 26 22  1  0  0  0  0
 27 21  1  0  0  0  0
 27 28  1  0  0  0  0
M  END
>  <MODEL>
4

>  <REMARK>
 VINA RESULT:      -7.4      1.803      2.237
  Name = 
  2 active torsions:
  status: ('A' for Active; 'I' for Inactive)
    1  A    between atoms: C_5  and  C_24
    2  A    between atoms: O_17  and  C_25
                            x       y       z     vdW  Elec       q    Type
                         _______ _______ _______ _____ _____    ______ ____

>  <TORSDO>
F 2

$$$$
=
 OpenBabel11112417363D

 28 31  0  0  1  0  0  0  0  0999 V2000
  186.3330  176.7020  143.1960 C   0  0  0  0  0  0  0  0  0  0  0  0
  187.4000  173.4610  141.7490 O   0  0  0  0  0  0  0  0  0  0  0  0
  187.3800  177.4930  140.7200 C   0  0  0  0  0  3  0  0  0  0  0  0
  185.7900  176.4150  144.5620 C   0  0  0  0  0  2  0  0  0  0  0  0
  189.5820  174.3910  141.0660 O   0  0  0  0  0  0  0  0  0  0  0  0
  188.8490  173.6080  142.1190 S   0  0  0  0  0  0  0  0  0  0  0  0
  190.8630  172.1000  143.1440 C   0  0  0  0  0  0  0  0  0  0  0  0
  189.0130  174.3390  143.6830 N   0  0  1  0  0  0  0  0  0  0  0  0
  186.7970  178.2930  147.7680 C   0  0  0  0  0  1  0  0  0  0  0  0
  189.6200  176.5360  144.5610 C   0  0  2  0  0  3  0  0  0  0  0  0
  190.9430  173.0170  144.3430 C   0  0  0  0  0  2  0  0  0  0  0  0
  189.6150  172.0050  142.2970 C   0  0  0  0  0  2  0  0  0  0  0  0
  186.7320  177.1250  146.8020 C   0  0  2  0  0  3  0  0  0  0  0  0
  187.6680  176.3940  142.8650 C   0  0  0  0  0  0  0  0  0  0  0  0
  191.7770  171.1430  143.0260 C   0  0  0  0  0  2  0  0  0  0  0  0
  188.1220  176.4990  146.6360 C   0  0  0  0  0  2  0  0  0  0  0  0
  188.1910  176.8220  141.6380 C   0  0  0  0  0  3  0  0  0  0  0  0
  185.5280  177.3810  142.2730 C   0  0  0  0  0  3  0  0  0  0  0  0
  186.0460  177.7650  141.0340 C   0  0  0  0  0  3  0  0  0  0  0  0
  186.1050  177.5850  145.4870 C   0  0  0  0  0  2  0  0  0  0  0  0
  190.6550  175.4990  144.9750 C   0  0  1  0  0  3  0  0  0  0  0  0
  189.0460  177.3370  145.7440 C   0  0  1  0  0  3  0  0  0  0  0  0
  190.4370  174.3990  143.9510 C   0  0  2  0  0  3  0  0  0  0  0  0
  188.5390  175.7130  143.8840 C   0  0  1  0  0  3  0  0  0  0  0  0
  190.1510  177.1190  147.6490 C   0  0  0  0  0  1  0  0  0  0  0  0
  190.0640  177.9160  146.5060 O   0  0  0  0  0  0  0  0  0  0  0  0
  192.0500  176.0870  144.8430 C   0  0  0  0  0  2  0  0  0  0  0  0
  192.2040  176.7930  143.5110 C   0  0  0  0  0  1  0  0  0  0  0  0
  1  4  1  0  0  0  0
  2  6  2  0  0  0  0
  3 19  2  0  0  0  0
  3 17  1  0  0  0  0
  4 20  1  0  0  0  0
  5  6  2  0  0  0  0
  6 12  1  0  0  0  0
  7 11  1  0  0  0  0
  8  6  1  6  0  0  0
  8 24  1  0  0  0  0
  8 23  1  0  0  0  0
 10 21  1  0  0  0  0
 10 22  1  0  0  0  0
 12  7  1  0  0  0  0
 13  9  1  0  0  0  0
 14  1  1  0  0  0  0
 14 24  1  0  0  0  0
 15  7  2  0  0  0  0
 16 13  1  0  0  0  0
 17 14  2  0  0  0  0
 18  1  2  0  0  0  0
 19 18  1  0  0  0  0
 20 13  1  0  0  0  0
 22 26  1  0  0  0  0
 22 16  1  0  0  0  0
 23 11  1  0  0  0  0
 23 21  1  0  0  0  0
 24 10  1  0  0  0  0
 26 25  1  0  0  0  0
 27 21  1  0  0  0  0
 28 27  1  0  0  0  0
M  END
>  <MODEL>
5

>  <REMARK>
 VINA RESULT:      -7.3      1.802      4.905
  Name = 
  2 active torsions:
  status: ('A' for Active; 'I' for Inactive)
    1  A    between atoms: C_5  and  C_24
    2  A    between atoms: O_17  and  C_25
                            x       y       z     vdW  Elec       q    Type
                         _______ _______ _______ _____ _____    ______ ____

>  <TORSDO>
F 2

$$$$
=
 OpenBabel11112417363D

 28 31  0  0  1  0  0  0  0  0999 V2000
  190.8220  176.9080  145.8790 C   0  0  0  0  0  0  0  0  0  0  0  0
  194.4680  177.3940  145.4230 O   0  0  0  0  0  0  0  0  0  0  0  0
  191.8800  174.8710  147.4860 C   0  0  0  0  0  3  0  0  0  0  0  0
  190.1330  177.9230  145.0200 C   0  0  0  0  0  2  0  0  0  0  0  0
  194.8280  174.9790  145.0570 O   0  0  0  0  0  0  0  0  0  0  0  0
  194.6290  176.3120  144.3920 S   0  0  0  0  0  0  0  0  0  0  0  0
  195.9100  175.9100  142.0300 C   0  0  0  0  0  0  0  0  0  0  0  0
  193.2750  176.2880  143.3100 N   0  0  1  0  0  0  0  0  0  0  0  0
  187.2810  177.1460  142.5540 C   0  0  0  0  0  1  0  0  0  0  0  0
  191.2940  174.8960  142.9750 C   0  0  2  0  0  3  0  0  0  0  0  0
  194.5800  175.7310  141.3360 C   0  0  0  0  0  2  0  0  0  0  0  0
  196.0310  176.6550  143.3390 C   0  0  0  0  0  2  0  0  0  0  0  0
  188.6860  177.5260  142.9800 C   0  0  2  0  0  3  0  0  0  0  0  0
  191.6770  175.9390  145.3160 C   0  0  0  0  0  0  0  0  0  0  0  0
  197.0170  175.6900  141.3280 C   0  0  0  0  0  2  0  0  0  0  0  0
  189.7180  176.7410  142.1610 C   0  0  0  0  0  2  0  0  0  0  0  0
  192.1750  174.9060  146.1210 C   0  0  0  0  0  3  0  0  0  0  0  0
  190.5260  176.8620  147.2470 C   0  0  0  0  0  3  0  0  0  0  0  0
  191.0630  175.8530  148.0500 C   0  0  0  0  0  3  0  0  0  0  0  0
  188.8310  177.3350  144.4900 C   0  0  0  0  0  2  0  0  0  0  0  0
  192.2180  174.7980  141.7690 C   0  0  1  0  0  3  0  0  0  0  0  0
  189.8480  175.2820  142.6140 C   0  0  1  0  0  3  0  0  0  0  0  0
  193.5510  175.2390  142.3450 C   0  0  2  0  0  3  0  0  0  0  0  0
  191.9440  175.9650  143.8360 C   0  0  1  0  0  3  0  0  0  0  0  0
  188.5190  173.5310  142.3560 C   0  0  0  0  0  1  0  0  0  0  0  0
  189.3230  174.4220  141.6440 O   0  0  0  0  0  0  0  0  0  0  0  0
  192.2880  173.3560  141.2950 C   0  0  0  0  0  2  0  0  0  0  0  0
  192.3700  172.4120  142.4790 C   0  0  0  0  0  1  0  0  0  0  0  0
  1 18  1  0  0  0  0
  3 19  1  0  0  0  0
  4  1  1  0  0  0  0
  6  5  2  0  0  0  0
  6  2  2  0  0  0  0
  7 12  1  0  0  0  0
  8 24  1  0  0  0  0
  8  6  1  1  0  0  0
  9 13  1  0  0  0  0
 10 24  1  0  0  0  0
 11  7  1  0  0  0  0
 11 23  1  0  0  0  0
 12  6  1  0  0  0  0
 13 20  1  0  0  0  0
 14  1  2  0  0  0  0
 14 17  1  0  0  0  0
 15  7  2  0  0  0  0
 16 22  1  0  0  0  0
 16 13  1  0  0  0  0
 17  3  2  0  0  0  0
 18 19  2  0  0  0  0
 20  4  1  0  0  0  0
 21 23  1  0  0  0  0
 21 10  1  0  0  0  0
 22 10  1  0  0  0  0
 23  8  1  0  0  0  0
 24 14  1  0  0  0  0
 26 25  1  0  0  0  0
 26 22  1  0  0  0  0
 27 21  1  0  0  0  0
 27 28  1  0  0  0  0
M  END
>  <MODEL>
6

>  <REMARK>
 VINA RESULT:      -7.1      2.930      3.941
  Name = 
  2 active torsions:
  status: ('A' for Active; 'I' for Inactive)
    1  A    between atoms: C_5  and  C_24
    2  A    between atoms: O_17  and  C_25
                            x       y       z     vdW  Elec       q    Type
                         _______ _______ _______ _____ _____    ______ ____

>  <TORSDO>
F 2

$$$$
=
 OpenBabel11112417363D

 28 31  0  0  1  0  0  0  0  0999 V2000
  190.6280  176.7620  145.5420 C   0  0  0  0  0  0  0  0  0  0  0  0
  194.2290  177.6270  145.3870 O   0  0  0  0  0  0  0  0  0  0  0  0
  191.5660  175.7630  147.9860 C   0  0  0  0  0  3  0  0  0  0  0  0
  190.0140  177.2080  144.2510 C   0  0  0  0  0  2  0  0  0  0  0  0
  194.8880  175.3710  146.1400 O   0  0  0  0  0  0  0  0  0  0  0  0
  194.6850  176.2650  144.9480 S   0  0  0  0  0  0  0  0  0  0  0  0
  196.4170  175.1610  143.1690 C   0  0  0  0  0  0  0  0  0  0  0  0
  193.5660  175.5750  143.8190 N   0  0  1  0  0  0  0  0  0  0  0  0
  187.7610  175.0280  142.0160 C   0  0  0  0  0  1  0  0  0  0  0  0
  191.8300  173.8560  143.8650 C   0  0  2  0  0  3  0  0  0  0  0  0
  195.2640  174.4940  142.4560 C   0  0  0  0  0  2  0  0  0  0  0  0
  196.2170  176.3810  144.0370 C   0  0  0  0  0  2  0  0  0  0  0  0
  189.0180  175.7800  142.4130 C   0  0  2  0  0  3  0  0  0  0  0  0
  191.6650  175.8070  145.5610 C   0  0  0  0  0  0  0  0  0  0  0  0
  197.6520  174.8650  142.7750 C   0  0  0  0  0  2  0  0  0  0  0  0
  190.2570  174.9160  142.1460 C   0  0  0  0  0  2  0  0  0  0  0  0
  192.1050  175.2900  146.7870 C   0  0  0  0  0  3  0  0  0  0  0  0
  190.0890  177.2260  146.7480 C   0  0  0  0  0  3  0  0  0  0  0  0
  190.5650  176.7370  147.9670 C   0  0  0  0  0  3  0  0  0  0  0  0
  188.8980  176.2460  143.8630 C   0  0  0  0  0  2  0  0  0  0  0  0
  192.9660  173.4330  142.9440 C   0  0  1  0  0  3  0  0  0  0  0  0
  190.4450  173.8110  143.1930 C   0  0  1  0  0  3  0  0  0  0  0  0
  194.1190  174.2880  143.4390 C   0  0  2  0  0  3  0  0  0  0  0  0
  192.1980  175.2750  144.2600 C   0  0  1  0  0  3  0  0  0  0  0  0
  189.3240  171.9310  143.5180 C   0  0  0  0  0  1  0  0  0  0  0  0
  190.1970  172.5570  142.6270 O   0  0  0  0  0  0  0  0  0  0  0  0
  193.2670  171.9570  143.1470 C   0  0  0  0  0  2  0  0  0  0  0  0
  193.4330  171.6480  144.6220 C   0  0  0  0  0  1  0  0  0  0  0  0
  1 14  2  0  0  0  0
  1 18  1  0  0  0  0
  4  1  1  0  0  0  0
  6  2  2  0  0  0  0
  6  5  2  0  0  0  0
  7 12  1  0  0  0  0
  8 24  1  0  0  0  0
  8  6  1  1  0  0  0
  9 13  1  0  0  0  0
 10 24  1  0  0  0  0
 11  7  1  0  0  0  0
 11 23  1  0  0  0  0
 12  6  1  0  0  0  0
 13 20  1  0  0  0  0
 14 17  1  0  0  0  0
 15  7  2  0  0  0  0
 16 13  1  0  0  0  0
 16 22  1  0  0  0  0
 17  3  2  0  0  0  0
 18 19  2  0  0  0  0
 19  3  1  0  0  0  0
 20  4  1  0  0  0  0
 21 27  1  0  0  0  0
 21 23  1  0  0  0  0
 21 10  1  0  0  0  0
 22 10  1  0  0  0  0
 23  8  1  0  0  0  0
 24 14  1  0  0  0  0
 26 22  1  0  0  0  0
 26 25  1  0  0  0  0
 27 28  1  0  0  0  0
M  END
>  <MODEL>
7

>  <REMARK>
 VINA RESULT:      -7.1      2.780      3.958
  Name = 
  2 active torsions:
  status: ('A' for Active; 'I' for Inactive)
    1  A    between atoms: C_5  and  C_24
    2  A    between atoms: O_17  and  C_25
                            x       y       z     vdW  Elec       q    Type
                         _______ _______ _______ _____ _____    ______ ____

>  <TORSDO>
F 2

$$$$
=
 OpenBabel11112417363D

 28 31  0  0  1  0  0  0  0  0999 V2000
  187.8000  176.9590  144.8120 C   0  0  0  0  0  0  0  0  0  0  0  0
  187.0670  174.2530  142.3880 O   0  0  0  0  0  0  0  0  0  0  0  0
  187.2140  178.4110  142.4870 C   0  0  0  0  0  3  0  0  0  0  0  0
  188.1790  176.3010  146.1020 C   0  0  0  0  0  2  0  0  0  0  0  0
  188.4830  175.3040  140.6600 O   0  0  0  0  0  0  0  0  0  0  0  0
  188.4250  174.2650  141.7440 S   0  0  0  0  0  0  0  0  0  0  0  0
  190.2890  172.4940  140.8660 C   0  0  0  0  0  0  0  0  0  0  0  0
  189.6650  174.5130  142.9300 N   0  0  1  0  0  0  0  0  0  0  0  0
  191.3060  177.1630  148.1760 C   0  0  0  0  0  1  0  0  0  0  0  0
  191.1080  176.3550  143.6320 C   0  0  2  0  0  3  0  0  0  0  0  0
  191.2760  173.0260  141.8790 C   0  0  0  0  0  2  0  0  0  0  0  0
  188.7980  172.6650  141.0410 C   0  0  0  0  0  2  0  0  0  0  0  0
  190.4250  176.3230  147.2710 C   0  0  2  0  0  3  0  0  0  0  0  0
  188.5460  176.7370  143.6360 C   0  0  0  0  0  0  0  0  0  0  0  0
  190.7190  171.5960  139.9860 C   0  0  0  0  0  2  0  0  0  0  0  0
  191.2510  175.7480  146.1140 C   0  0  0  0  0  2  0  0  0  0  0  0
  188.2660  177.4910  142.4890 C   0  0  0  0  0  3  0  0  0  0  0  0
  186.7510  177.8880  144.8040 C   0  0  0  0  0  3  0  0  0  0  0  0
  186.4520  178.6020  143.6420 C   0  0  0  0  0  3  0  0  0  0  0  0
  189.2240  177.1510  146.8150 C   0  0  0  0  0  2  0  0  0  0  0  0
  191.9420  175.2260  143.0440 C   0  0  1  0  0  3  0  0  0  0  0  0
  191.5650  176.7920  145.0350 C   0  0  1  0  0  3  0  0  0  0  0  0
  190.9240  174.4710  142.2100 C   0  0  2  0  0  3  0  0  0  0  0  0
  189.7030  175.7790  143.6710 C   0  0  1  0  0  3  0  0  0  0  0  0
  193.5140  176.1330  145.8520 C   0  0  0  0  0  1  0  0  0  0  0  0
  192.9260  177.1110  145.0480 O   0  0  0  0  0  0  0  0  0  0  0  0
  193.0360  175.8050  142.1610 C   0  0  0  0  0  2  0  0  0  0  0  0
  194.3460  175.0790  142.3950 C   0  0  0  0  0  1  0  0  0  0  0  0
  1  4  1  0  0  0  0
  3 17  2  0  0  0  0
  3 19  1  0  0  0  0
  4 20  1  0  0  0  0
  5  6  2  0  0  0  0
  6  2  2  0  0  0  0
  7 12  1  0  0  0  0
  7 11  1  0  0  0  0
  8  6  1  6  0  0  0
  8 24  1  0  0  0  0
 10 24  1  0  0  0  0
 10 22  1  0  0  0  0
 11 23  1  0  0  0  0
 12  6  1  0  0  0  0
 13  9  1  0  0  0  0
 14 24  1  0  0  0  0
 14  1  2  0  0  0  0
 15  7  2  0  0  0  0
 16 13  1  0  0  0  0
 17 14  1  0  0  0  0
 18  1  1  0  0  0  0
 19 18  2  0  0  0  0
 20 13  1  0  0  0  0
 21 10  1  0  0  0  0
 22 26  1  0  0  0  0
 22 16  1  0  0  0  0
 23  8  1  0  0  0  0
 23 21  1  0  0  0  0
 26 25  1  0  0  0  0
 27 28  1  0  0  0  0
 27 21  1  0  0  0  0
M  END
>  <MODEL>
8

>  <REMARK>
 VINA RESULT:      -7.1      2.215      5.243
  Name = 
  2 active torsions:
  status: ('A' for Active; 'I' for Inactive)
    1  A    between atoms: C_5  and  C_24
    2  A    between atoms: O_17  and  C_25
                            x       y       z     vdW  Elec       q    Type
                         _______ _______ _______ _____ _____    ______ ____

>  <TORSDO>
F 2

$$$$
=
 OpenBabel11112417363D

 28 31  0  0  1  0  0  0  0  0999 V2000
  189.0580  176.5670  144.8250 C   0  0  0  0  0  0  0  0  0  0  0  0
  188.5800  173.3850  142.9850 O   0  0  0  0  0  0  0  0  0  0  0  0
  189.3160  177.3970  142.1610 C   0  0  0  0  0  3  0  0  0  0  0  0
  188.9880  176.2430  146.2860 C   0  0  0  0  0  2  0  0  0  0  0  0
  190.5340  173.8290  141.5440 O   0  0  0  0  0  0  0  0  0  0  0  0
  190.0440  173.1190  142.7750 S   0  0  0  0  0  0  0  0  0  0  0  0
  191.7850  171.0370  142.9030 C   0  0  0  0  0  0  0  0  0  0  0  0
  190.9580  173.5710  144.1760 N   0  0  1  0  0  0  0  0  0  0  0  0
  191.5660  177.3700  148.9130 C   0  0  0  0  0  1  0  0  0  0  0  0
  192.4300  175.4130  144.8190 C   0  0  2  0  0  3  0  0  0  0  0  0
  192.5450  171.7370  144.0060 C   0  0  0  0  0  2  0  0  0  0  0  0
  190.3420  171.3670  142.5980 C   0  0  0  0  0  2  0  0  0  0  0  0
  190.8340  176.3930  148.0130 C   0  0  2  0  0  3  0  0  0  0  0  0
  190.0400  175.9850  143.9980 C   0  0  0  0  0  0  0  0  0  0  0  0
  192.2880  169.9080  142.4160 C   0  0  0  0  0  2  0  0  0  0  0  0
  191.8350  175.4710  147.3070 C   0  0  0  0  0  2  0  0  0  0  0  0
  190.1820  176.4300  142.6770 C   0  0  0  0  0  3  0  0  0  0  0  0
  188.1980  177.5410  144.3020 C   0  0  0  0  0  3  0  0  0  0  0  0
  188.3200  177.9460  142.9710 C   0  0  0  0  0  3  0  0  0  0  0  0
  189.9300  177.1650  147.0520 C   0  0  0  0  0  2  0  0  0  0  0  0
  193.2090  174.1060  144.7720 C   0  0  1  0  0  3  0  0  0  0  0  0
  192.5690  176.1660  146.1540 C   0  0  1  0  0  3  0  0  0  0  0  0
  192.3400  173.2410  143.8790 C   0  0  2  0  0  3  0  0  0  0  0  0
  190.9930  174.9800  144.5840 C   0  0  1  0  0  3  0  0  0  0  0  0
  194.2710  177.5410  145.8180 C   0  0  0  0  0  1  0  0  0  0  0  0
  193.9130  176.3670  146.4840 O   0  0  0  0  0  0  0  0  0  0  0  0
  194.5680  174.3430  144.1330 C   0  0  0  0  0  2  0  0  0  0  0  0
  194.4230  175.1750  142.8740 C   0  0  0  0  0  1  0  0  0  0  0  0
  1  4  1  0  0  0  0
  3 17  2  0  0  0  0
  3 19  1  0  0  0  0
  4 20  1  0  0  0  0
  5  6  2  0  0  0  0
  6  2  2  0  0  0  0
  7 11  1  0  0  0  0
  8  6  1  6  0  0  0
  8 24  1  0  0  0  0
 10 22  1  0  0  0  0
 12  6  1  0  0  0  0
 12  7  1  0  0  0  0
 13  9  1  0  0  0  0
 14 24  1  0  0  0  0
 14  1  2  0  0  0  0
 15  7  2  0  0  0  0
 16 13  1  0  0  0  0
 17 14  1  0  0  0  0
 18  1  1  0  0  0  0
 19 18  2  0  0  0  0
 20 13  1  0  0  0  0
 21 10  1  0  0  0  0
 22 26  1  0  0  0  0
 22 16  1  0  0  0  0
 23 11  1  0  0  0  0
 23  8  1  0  0  0  0
 23 21  1  0  0  0  0
 24 10  1  0  0  0  0
 25 26  1  0  0  0  0
 27 21  1  0  0  0  0
 28 27  1  0  0  0  0
M  END
>  <MODEL>
9

>  <REMARK>
 VINA RESULT:      -7.0      2.457      5.563
  Name = 
  2 active torsions:
  status: ('A' for Active; 'I' for Inactive)
    1  A    between atoms: C_5  and  C_24
    2  A    between atoms: O_17  and  C_25
                            x       y       z     vdW  Elec       q    Type
                         _______ _______ _______ _____ _____    ______ ____

>  <TORSDO>
F 2

$$$$
