=
 OpenBabel11112416213D

 30 35  0  0  1  0  0  0  0  0999 V2000
  186.2780  177.3310  143.7440 C   0  0  0  0  0  0  0  0  0  0  0  0
  184.5970  178.5050  145.2170 C   0  0  0  0  0  0  0  0  0  0  0  0
  188.5630  176.1910  147.0490 N   0  0  0  0  0  2  0  0  0  0  0  0
  187.4800  176.5700  143.6310 C   0  0  0  0  0  0  0  0  0  0  0  0
  185.6150  177.6560  142.6060 N   0  0  0  0  0  0  0  0  0  0  0  0
  187.6350  176.2120  140.1140 O   0  0  0  0  0  0  0  0  0  0  0  0
  190.4210  176.0970  142.7700 C   0  0  1  0  0  3  0  0  0  0  0  0
  187.2300  176.5490  141.2620 C   0  0  0  0  0  0  0  0  0  0  0  0
  190.5820  176.0560  144.2870 C   0  0  2  0  0  3  0  0  0  0  0  0
  189.6490  175.4790  146.5040 N   0  0  0  0  0  0  0  0  0  0  0  0
  186.0530  177.2870  141.3770 C   0  0  0  0  0  0  0  0  0  0  0  0
  187.9380  176.1980  142.3820 N   0  0  0  0  0  0  0  0  0  0  0  0
  184.1980  178.8670  146.5070 C   0  0  0  0  0  3  0  0  0  0  0  0
  191.8450  175.2530  144.5110 C   0  0  0  0  0  2  0  0  0  0  0  0
  191.6850  175.4730  142.2100 C   0  0  0  0  0  2  0  0  0  0  0  0
  183.5340  179.0490  143.9220 Cl  0  0  0  0  0  0  0  0  0  0  0  0
  187.7020  176.6410  146.0290 C   0  0  0  0  0  0  0  0  0  0  0  0
  184.9460  178.5010  147.6220 C   0  0  0  0  0  3  0  0  0  0  0  0
  185.7900  177.7450  145.0260 C   0  0  0  0  0  0  0  0  0  0  0  0
  188.1570  176.2460  144.8190 C   0  0  0  0  0  0  0  0  0  0  0  0
  189.5410  174.1110  146.9830 C   0  0  0  0  0  1  0  0  0  0  0  0
  189.4020  175.4480  145.0440 C   0  0  1  0  0  3  0  0  0  0  0  0
  192.6430  175.3480  143.2990 N   0  0  0  0  0  2  0  0  0  0  0  0
  188.9910  173.9430  142.5130 C   0  0  0  0  0  1  0  0  0  0  0  0
  186.1110  177.7600  147.4610 C   0  0  0  0  0  3  0  0  0  0  0  0
  186.5360  177.3830  146.1860 C   0  0  0  0  0  0  0  0  0  0  0  0
  189.1710  175.4210  142.1780 C   0  0  2  0  0  3  0  0  0  0  0  0
  185.3360  177.6410  140.2310 O   0  0  0  0  0  0  0  0  0  0  0  0
  182.9530  177.8690  140.3050 C   0  0  0  0  0  1  0  0  0  0  0  0
  184.2820  178.5910  140.2630 C   0  0  0  0  0  2  0  0  0  0  0  0
  1 19  1  0  0  0  0
  2 13  1  0  0  0  0
  4  1  2  0  0  0  0
  4 20  1  0  0  0  0
  5  1  1  0  0  0  0
  6  8  2  0  0  0  0
  7 15  1  6  0  0  0
  7  9  1  0  0  0  0
  8 11  1  0  0  0  0
  8 12  1  0  0  0  0
  9 14  1  6  0  0  0
  9 22  1  0  0  0  0
 10 21  1  0  0  0  0
 10  3  1  0  0  0  0
 11  5  2  0  0  0  0
 12  4  1  0  0  0  0
 13 18  2  0  0  0  0
 15 23  1  0  0  0  0
 16  2  1  0  0  0  0
 17 26  1  0  0  0  0
 17  3  1  0  0  0  0
 19  2  2  0  0  0  0
 19 26  1  0  0  0  0
 20 17  2  0  0  0  0
 22 20  1  1  0  0  0
 22 10  1  0  0  0  0
 23 14  1  0  0  0  0
 25 18  1  0  0  0  0
 26 25  2  0  0  0  0
 27 12  1  0  0  0  0
 27 24  1  1  0  0  0
 27  7  1  0  0  0  0
 28 30  1  0  0  0  0
 28 11  1  0  0  0  0
 30 29  1  0  0  0  0
M  END
>  <MODEL>
1

>  <REMARK>
 VINA RESULT:      -8.6      0.000      0.000
  Name = 
  2 active torsions:
  status: ('A' for Active; 'I' for Inactive)
    1  A    between atoms: C_11  and  O_28
    2  A    between atoms: O_28  and  C_30
                            x       y       z     vdW  Elec       q    Type
                         _______ _______ _______ _____ _____    ______ ____

>  <TORSDO>
F 2

$$$$
=
 OpenBabel11112416213D

 30 35  0  0  1  0  0  0  0  0999 V2000
  188.5170  177.1870  146.2100 C   0  0  0  0  0  0  0  0  0  0  0  0
  186.5580  178.4180  147.2210 C   0  0  0  0  0  0  0  0  0  0  0  0
  186.3370  176.2970  142.7600 N   0  0  0  0  0  2  0  0  0  0  0  0
  189.0610  176.4470  145.1180 C   0  0  0  0  0  0  0  0  0  0  0  0
  189.3080  177.4150  147.2880 N   0  0  0  0  0  0  0  0  0  0  0  0
  192.3070  175.8170  146.3770 O   0  0  0  0  0  0  0  0  0  0  0  0
  190.2230  173.9140  143.7570 C   0  0  1  0  0  3  0  0  0  0  0  0
  191.1180  176.2370  146.3000 C   0  0  0  0  0  0  0  0  0  0  0  0
  188.9320  174.0720  142.9590 C   0  0  2  0  0  3  0  0  0  0  0  0
  187.2260  175.5570  141.9570 N   0  0  0  0  0  0  0  0  0  0  0  0
  190.5850  176.9660  147.3620 C   0  0  0  0  0  0  0  0  0  0  0  0
  190.3580  175.9780  145.1890 N   0  0  0  0  0  0  0  0  0  0  0  0
  185.2330  178.8470  147.0950 C   0  0  0  0  0  3  0  0  0  0  0  0
  189.2070  173.3600  141.6520 C   0  0  0  0  0  2  0  0  0  0  0  0
  191.0920  172.9770  142.9420 C   0  0  0  0  0  2  0  0  0  0  0  0
  187.3540  178.8700  148.7250 Cl  0  0  0  0  0  0  0  0  0  0  0  0
  186.9520  176.6660  143.9730 C   0  0  0  0  0  0  0  0  0  0  0  0
  184.4870  178.5590  145.9560 C   0  0  0  0  0  3  0  0  0  0  0  0
  187.1680  177.6710  146.1690 C   0  0  0  0  0  0  0  0  0  0  0  0
  188.2260  176.2160  144.0110 C   0  0  0  0  0  0  0  0  0  0  0  0
  187.4700  176.3450  140.7600 C   0  0  0  0  0  1  0  0  0  0  0  0
  188.4960  175.5170  142.7160 C   0  0  1  0  0  3  0  0  0  0  0  0
  190.2650  172.3930  141.8980 N   0  0  0  0  0  2  0  0  0  0  0  0
  191.4100  176.0740  142.9320 C   0  0  0  0  0  1  0  0  0  0  0  0
  185.0610  177.8330  144.9180 C   0  0  0  0  0  3  0  0  0  0  0  0
  186.3820  177.3900  145.0130 C   0  0  0  0  0  0  0  0  0  0  0  0
  190.9910  175.2010  144.1110 C   0  0  2  0  0  3  0  0  0  0  0  0
  191.3660  177.2260  148.4920 O   0  0  0  0  0  0  0  0  0  0  0  0
  191.5980  177.9980  150.7470 C   0  0  0  0  0  1  0  0  0  0  0  0
  191.1030  178.3220  149.3540 C   0  0  0  0  0  2  0  0  0  0  0  0
  1  5  1  0  0  0  0
  2 16  1  0  0  0  0
  3 17  1  0  0  0  0
  4 12  1  0  0  0  0
  4  1  2  0  0  0  0
  5 11  2  0  0  0  0
  7 15  1  6  0  0  0
  7 27  1  0  0  0  0
  8  6  2  0  0  0  0
  8 11  1  0  0  0  0
  9 14  1  6  0  0  0
  9  7  1  0  0  0  0
 10 22  1  0  0  0  0
 10  3  1  0  0  0  0
 11 28  1  0  0  0  0
 12  8  1  0  0  0  0
 13  2  1  0  0  0  0
 14 23  1  0  0  0  0
 17 20  2  0  0  0  0
 17 26  1  0  0  0  0
 18 13  2  0  0  0  0
 19  1  1  0  0  0  0
 19  2  2  0  0  0  0
 20  4  1  0  0  0  0
 21 10  1  0  0  0  0
 22  9  1  0  0  0  0
 22 20  1  1  0  0  0
 23 15  1  0  0  0  0
 25 26  2  0  0  0  0
 25 18  1  0  0  0  0
 26 19  1  0  0  0  0
 27 24  1  6  0  0  0
 27 12  1  0  0  0  0
 28 30  1  0  0  0  0
 30 29  1  0  0  0  0
M  END
>  <MODEL>
2

>  <REMARK>
 VINA RESULT:      -8.4      3.162      5.438
  Name = 
  2 active torsions:
  status: ('A' for Active; 'I' for Inactive)
    1  A    between atoms: C_11  and  O_28
    2  A    between atoms: O_28  and  C_30
                            x       y       z     vdW  Elec       q    Type
                         _______ _______ _______ _____ _____    ______ ____

>  <TORSDO>
F 2

$$$$
=
 OpenBabel11112416213D

 30 35  0  0  1  0  0  0  0  0999 V2000
  187.3990  176.5790  142.5640 C   0  0  0  0  0  0  0  0  0  0  0  0
  185.6620  178.3780  142.9120 C   0  0  0  0  0  0  0  0  0  0  0  0
  188.4820  176.6730  146.5970 N   0  0  0  0  0  2  0  0  0  0  0  0
  188.4130  175.7400  143.1140 C   0  0  0  0  0  0  0  0  0  0  0  0
  187.1290  176.4750  141.2390 N   0  0  0  0  0  0  0  0  0  0  0  0
  189.3950  173.9940  140.1980 O   0  0  0  0  0  0  0  0  0  0  0  0
  191.3240  174.7230  143.4510 C   0  0  1  0  0  3  0  0  0  0  0  0
  188.7840  174.7940  140.9600 C   0  0  0  0  0  0  0  0  0  0  0  0
  191.0770  175.2790  144.8500 C   0  0  2  0  0  3  0  0  0  0  0  0
  189.5080  175.7160  146.7130 N   0  0  0  0  0  0  0  0  0  0  0  0
  187.7860  175.6100  140.4280 C   0  0  0  0  0  0  0  0  0  0  0  0
  189.0950  174.8640  142.2930 N   0  0  0  0  0  0  0  0  0  0  0  0
  185.0230  179.2580  143.7910 C   0  0  0  0  0  3  0  0  0  0  0  0
  192.0540  174.5320  145.7310 C   0  0  0  0  0  2  0  0  0  0  0  0
  192.5390  173.8250  143.5790 C   0  0  0  0  0  2  0  0  0  0  0  0
  185.0980  178.4440  141.2440 Cl  0  0  0  0  0  0  0  0  0  0  0  0
  188.0200  176.7470  145.2680 C   0  0  0  0  0  0  0  0  0  0  0  0
  185.3710  179.3080  145.1380 C   0  0  0  0  0  3  0  0  0  0  0  0
  186.6880  177.5100  143.3900 C   0  0  0  0  0  0  0  0  0  0  0  0
  188.6840  175.8650  144.4880 C   0  0  0  0  0  0  0  0  0  0  0  0
  189.0120  174.6680  147.5890 C   0  0  0  0  0  1  0  0  0  0  0  0
  189.6450  175.1240  145.3620 C   0  0  1  0  0  3  0  0  0  0  0  0
  193.1400  174.0680  144.8820 N   0  0  0  0  0  2  0  0  0  0  0  0
  189.6100  172.7710  143.5440 C   0  0  0  0  0  1  0  0  0  0  0  0
  186.3680  178.4720  145.6280 C   0  0  0  0  0  3  0  0  0  0  0  0
  187.0240  177.5820  144.7750 C   0  0  0  0  0  0  0  0  0  0  0  0
  190.1600  173.9710  142.7780 C   0  0  2  0  0  3  0  0  0  0  0  0
  187.4740  175.5340  139.0670 O   0  0  0  0  0  0  0  0  0  0  0  0
  186.3850  176.0750  137.0040 C   0  0  0  0  0  1  0  0  0  0  0  0
  186.6880  176.5210  138.4170 C   0  0  0  0  0  2  0  0  0  0  0  0
  1  4  2  0  0  0  0
  1 19  1  0  0  0  0
  2 19  2  0  0  0  0
  2 13  1  0  0  0  0
  3 10  1  0  0  0  0
  4 20  1  0  0  0  0
  5  1  1  0  0  0  0
  6  8  2  0  0  0  0
  7 15  1  1  0  0  0
  7  9  1  0  0  0  0
  8 12  1  0  0  0  0
  9 22  1  0  0  0  0
  9 14  1  1  0  0  0
 10 21  1  0  0  0  0
 11  8  1  0  0  0  0
 11  5  2  0  0  0  0
 12 27  1  0  0  0  0
 12  4  1  0  0  0  0
 13 18  2  0  0  0  0
 15 23  1  0  0  0  0
 16  2  1  0  0  0  0
 17  3  1  0  0  0  0
 18 25  1  0  0  0  0
 19 26  1  0  0  0  0
 20 17  2  0  0  0  0
 22 20  1  6  0  0  0
 22 10  1  0  0  0  0
 23 14  1  0  0  0  0
 26 17  1  0  0  0  0
 26 25  2  0  0  0  0
 27  7  1  0  0  0  0
 27 24  1  1  0  0  0
 28 11  1  0  0  0  0
 29 30  1  0  0  0  0
 30 28  1  0  0  0  0
M  END
>  <MODEL>
3

>  <REMARK>
 VINA RESULT:      -7.9      1.777      2.240
  Name = 
  2 active torsions:
  status: ('A' for Active; 'I' for Inactive)
    1  A    between atoms: C_11  and  O_28
    2  A    between atoms: O_28  and  C_30
                            x       y       z     vdW  Elec       q    Type
                         _______ _______ _______ _____ _____    ______ ____

>  <TORSDO>
F 2

$$$$
=
 OpenBabel11112416213D

 30 35  0  0  1  0  0  0  0  0999 V2000
  187.9760  175.7530  141.6320 C   0  0  0  0  0  0  0  0  0  0  0  0
  189.5810  173.8760  141.1070 C   0  0  0  0  0  0  0  0  0  0  0  0
  188.8840  175.5550  145.7050 N   0  0  0  0  0  2  0  0  0  0  0  0
  187.3770  176.6100  142.6040 C   0  0  0  0  0  0  0  0  0  0  0  0
  187.6050  175.8950  140.3360 N   0  0  0  0  0  0  0  0  0  0  0  0
  185.2450  178.4980  140.5040 O   0  0  0  0  0  0  0  0  0  0  0  0
  185.0120  177.7270  144.2690 C   0  0  1  0  0  3  0  0  0  0  0  0
  186.0990  177.6470  140.8830 C   0  0  0  0  0  0  0  0  0  0  0  0
  185.8510  177.1110  145.3850 C   0  0  2  0  0  3  0  0  0  0  0  0
  188.0790  176.5460  146.2980 N   0  0  0  0  0  0  0  0  0  0  0  0
  186.6920  176.8130  139.9360 C   0  0  0  0  0  0  0  0  0  0  0  0
  186.4380  177.5420  142.2060 N   0  0  0  0  0  0  0  0  0  0  0  0
  190.5090  172.9410  141.5760 C   0  0  0  0  0  3  0  0  0  0  0  0
  185.4330  177.8630  146.6310 C   0  0  0  0  0  2  0  0  0  0  0  0
  184.0420  178.6650  144.9610 C   0  0  0  0  0  2  0  0  0  0  0  0
  189.3030  173.8490  139.3680 Cl  0  0  0  0  0  0  0  0  0  0  0  0
  188.6730  175.5110  144.3130 C   0  0  0  0  0  0  0  0  0  0  0  0
  190.8240  172.8550  142.9300 C   0  0  0  0  0  3  0  0  0  0  0  0
  188.9400  174.7660  142.0200 C   0  0  0  0  0  0  0  0  0  0  0  0
  187.7690  176.4460  143.9440 C   0  0  0  0  0  0  0  0  0  0  0  0
  188.9780  177.5410  146.8580 C   0  0  0  0  0  1  0  0  0  0  0  0
  187.3620  177.1910  145.1750 C   0  0  1  0  0  3  0  0  0  0  0  0
  184.1030  178.3990  146.3900 N   0  0  0  0  0  2  0  0  0  0  0  0
  186.6700  179.6060  143.5830 C   0  0  0  0  0  1  0  0  0  0  0  0
  190.2120  173.7110  143.8390 C   0  0  0  0  0  3  0  0  0  0  0  0
  189.2820  174.6570  143.4010 C   0  0  0  0  0  0  0  0  0  0  0  0
  185.7680  178.4570  143.1440 C   0  0  2  0  0  3  0  0  0  0  0  0
  186.3410  176.9260  138.5880 O   0  0  0  0  0  0  0  0  0  0  0  0
  185.9070  176.0410  136.4050 C   0  0  0  0  0  1  0  0  0  0  0  0
  186.8330  176.0320  137.6020 C   0  0  0  0  0  2  0  0  0  0  0  0
  1 19  2  0  0  0  0
  1  4  1  0  0  0  0
  2 13  2  0  0  0  0
  2 19  1  0  0  0  0
  3 10  1  0  0  0  0
  4 20  2  0  0  0  0
  5  1  1  0  0  0  0
  6  8  2  0  0  0  0
  7 15  1  1  0  0  0
  7  9  1  0  0  0  0
  8 12  1  0  0  0  0
  9 14  1  1  0  0  0
 10 21  1  0  0  0  0
 11  5  2  0  0  0  0
 11  8  1  0  0  0  0
 12  4  1  0  0  0  0
 12 27  1  0  0  0  0
 13 18  1  0  0  0  0
 15 23  1  0  0  0  0
 16  2  1  0  0  0  0
 17  3  1  0  0  0  0
 18 25  2  0  0  0  0
 19 26  1  0  0  0  0
 20 17  1  0  0  0  0
 22 20  1  6  0  0  0
 22  9  1  0  0  0  0
 22 10  1  0  0  0  0
 23 14  1  0  0  0  0
 26 25  1  0  0  0  0
 26 17  2  0  0  0  0
 27 24  1  1  0  0  0
 27  7  1  0  0  0  0
 28 11  1  0  0  0  0
 29 30  1  0  0  0  0
 30 28  1  0  0  0  0
M  END
>  <MODEL>
4

>  <REMARK>
 VINA RESULT:      -7.9      2.489      5.462
  Name = 
  2 active torsions:
  status: ('A' for Active; 'I' for Inactive)
    1  A    between atoms: C_11  and  O_28
    2  A    between atoms: O_28  and  C_30
                            x       y       z     vdW  Elec       q    Type
                         _______ _______ _______ _____ _____    ______ ____

>  <TORSDO>
F 2

$$$$
=
 OpenBabel11112416213D

 30 35  0  0  1  0  0  0  0  0999 V2000
  188.2400  175.9970  142.1140 C   0  0  0  0  0  0  0  0  0  0  0  0
  186.5500  177.0660  140.5720 C   0  0  0  0  0  0  0  0  0  0  0  0
  186.7540  178.1010  145.4020 N   0  0  0  0  0  2  0  0  0  0  0  0
  188.7770  175.8610  143.4290 C   0  0  0  0  0  0  0  0  0  0  0  0
  188.8010  175.2730  141.1140 N   0  0  0  0  0  0  0  0  0  0  0  0
  191.3560  173.5260  142.7860 O   0  0  0  0  0  0  0  0  0  0  0  0
  190.9820  176.1350  145.5920 C   0  0  1  0  0  3  0  0  0  0  0  0
  190.3790  174.3050  142.6010 C   0  0  0  0  0  0  0  0  0  0  0  0
  189.9390  177.0950  146.1570 C   0  0  2  0  0  3  0  0  0  0  0  0
  187.5600  177.6910  146.4810 N   0  0  0  0  0  0  0  0  0  0  0  0
  189.8470  174.4350  141.3190 C   0  0  0  0  0  0  0  0  0  0  0  0
  189.8480  175.0170  143.6450 N   0  0  0  0  0  0  0  0  0  0  0  0
  185.4800  177.9520  140.4150 C   0  0  0  0  0  3  0  0  0  0  0  0
  190.2480  177.1590  147.6380 C   0  0  0  0  0  2  0  0  0  0  0  0
  191.9310  175.8450  146.7380 C   0  0  0  0  0  2  0  0  0  0  0  0
  187.0660  176.2450  139.1020 Cl  0  0  0  0  0  0  0  0  0  0  0  0
  187.1540  177.4600  144.2130 C   0  0  0  0  0  0  0  0  0  0  0  0
  184.9710  178.6650  141.4970 C   0  0  0  0  0  3  0  0  0  0  0  0
  187.1400  176.8800  141.8580 C   0  0  0  0  0  0  0  0  0  0  0  0
  188.1870  176.6220  144.4530 C   0  0  0  0  0  0  0  0  0  0  0  0
  186.6930  176.9940  147.4160 C   0  0  0  0  0  1  0  0  0  0  0  0
  188.4870  176.6840  145.9170 C   0  0  1  0  0  3  0  0  0  0  0  0
  191.6450  176.7910  147.8070 N   0  0  0  0  0  2  0  0  0  0  0  0
  189.6270  173.9370  145.8800 C   0  0  0  0  0  1  0  0  0  0  0  0
  185.5300  178.5010  142.7600 C   0  0  0  0  0  3  0  0  0  0  0  0
  186.5990  177.6230  142.9480 C   0  0  0  0  0  0  0  0  0  0  0  0
  190.4660  174.8260  144.9680 C   0  0  2  0  0  3  0  0  0  0  0  0
  190.3930  173.7060  140.2590 O   0  0  0  0  0  0  0  0  0  0  0  0
  188.8940  172.2910  139.0390 C   0  0  0  0  0  1  0  0  0  0  0  0
  189.7200  173.5590  139.0180 C   0  0  0  0  0  2  0  0  0  0  0  0
  1  4  1  0  0  0  0
  2 19  1  0  0  0  0
  3 10  1  0  0  0  0
  4 12  1  0  0  0  0
  4 20  2  0  0  0  0
  5 11  2  0  0  0  0
  5  1  1  0  0  0  0
  7  9  1  0  0  0  0
  7 15  1  1  0  0  0
  8  6  2  0  0  0  0
  8 12  1  0  0  0  0
  9 14  1  1  0  0  0
 10 21  1  0  0  0  0
 11  8  1  0  0  0  0
 12 27  1  0  0  0  0
 13  2  2  0  0  0  0
 13 18  1  0  0  0  0
 14 23  1  0  0  0  0
 15 23  1  0  0  0  0
 16  2  1  0  0  0  0
 17 20  1  0  0  0  0
 17  3  1  0  0  0  0
 18 25  2  0  0  0  0
 19  1  2  0  0  0  0
 19 26  1  0  0  0  0
 22 20  1  6  0  0  0
 22  9  1  0  0  0  0
 22 10  1  0  0  0  0
 25 26  1  0  0  0  0
 26 17  2  0  0  0  0
 27  7  1  0  0  0  0
 27 24  1  1  0  0  0
 28 11  1  0  0  0  0
 30 29  1  0  0  0  0
 30 28  1  0  0  0  0
M  END
>  <MODEL>
5

>  <REMARK>
 VINA RESULT:      -7.6      2.497      4.474
  Name = 
  2 active torsions:
  status: ('A' for Active; 'I' for Inactive)
    1  A    between atoms: C_11  and  O_28
    2  A    between atoms: O_28  and  C_30
                            x       y       z     vdW  Elec       q    Type
                         _______ _______ _______ _____ _____    ______ ____

>  <TORSDO>
F 2

$$$$
=
 OpenBabel11112416213D

 30 35  0  0  1  0  0  0  0  0999 V2000
  188.5860  176.1230  143.7370 C   0  0  0  0  0  0  0  0  0  0  0  0
  186.3570  177.1690  144.2930 C   0  0  0  0  0  0  0  0  0  0  0  0
  190.1460  177.1670  147.4690 N   0  0  0  0  0  2  0  0  0  0  0  0
  189.9200  175.8090  144.1360 C   0  0  0  0  0  0  0  0  0  0  0  0
  188.1810  175.7440  142.4990 N   0  0  0  0  0  0  0  0  0  0  0  0
  191.0530  174.1760  141.2090 O   0  0  0  0  0  0  0  0  0  0  0  0
  193.0100  176.0120  143.9700 C   0  0  1  0  0  3  0  0  0  0  0  0
  190.3000  174.7850  142.0190 C   0  0  0  0  0  0  0  0  0  0  0  0
  192.7800  176.6220  145.3500 C   0  0  2  0  0  3  0  0  0  0  0  0
  191.4700  176.6900  147.4480 N   0  0  0  0  0  0  0  0  0  0  0  0
  188.9940  175.0870  141.6360 C   0  0  0  0  0  0  0  0  0  0  0  0
  190.7570  175.1480  143.2590 N   0  0  0  0  0  0  0  0  0  0  0  0
  185.5660  177.8570  145.2180 C   0  0  0  0  0  3  0  0  0  0  0  0
  194.0950  176.4230  146.0740 C   0  0  0  0  0  2  0  0  0  0  0  0
  194.4850  175.6630  143.9210 C   0  0  0  0  0  2  0  0  0  0  0  0
  185.5660  176.7900  142.7650 Cl  0  0  0  0  0  0  0  0  0  0  0  0
  189.4950  176.8790  146.2530 C   0  0  0  0  0  0  0  0  0  0  0  0
  186.0670  178.2170  146.4660 C   0  0  0  0  0  3  0  0  0  0  0  0
  187.7020  176.8230  144.6210 C   0  0  0  0  0  0  0  0  0  0  0  0
  190.3260  176.2130  145.4200 C   0  0  0  0  0  0  0  0  0  0  0  0
  191.5660  175.6620  148.4710 C   0  0  0  0  0  1  0  0  0  0  0  0
  191.6210  176.0130  146.1390 C   0  0  1  0  0  3  0  0  0  0  0  0
  195.1320  176.2890  145.0640 N   0  0  0  0  0  2  0  0  0  0  0  0
  192.2380  173.5940  144.5240 C   0  0  0  0  0  1  0  0  0  0  0  0
  187.3740  177.8920  146.8090 C   0  0  0  0  0  3  0  0  0  0  0  0
  188.1890  177.2040  145.9060 C   0  0  0  0  0  0  0  0  0  0  0  0
  192.1480  174.7950  143.5880 C   0  0  2  0  0  3  0  0  0  0  0  0
  188.5330  174.7140  140.3700 O   0  0  0  0  0  0  0  0  0  0  0  0
  188.5270  173.0930  138.6070 C   0  0  0  0  0  1  0  0  0  0  0  0
  188.1920  173.3730  140.0560 C   0  0  0  0  0  2  0  0  0  0  0  0
  1  4  2  0  0  0  0
  1 19  1  0  0  0  0
  2 19  2  0  0  0  0
  2 13  1  0  0  0  0
  4 20  1  0  0  0  0
  5  1  1  0  0  0  0
  6  8  2  0  0  0  0
  7 15  1  1  0  0  0
  7  9  1  0  0  0  0
  8 12  1  0  0  0  0
  9 14  1  1  0  0  0
  9 22  1  0  0  0  0
 10  3  1  0  0  0  0
 10 21  1  0  0  0  0
 11  8  1  0  0  0  0
 11  5  2  0  0  0  0
 12 27  1  0  0  0  0
 12  4  1  0  0  0  0
 13 18  2  0  0  0  0
 15 23  1  0  0  0  0
 16  2  1  0  0  0  0
 17  3  1  0  0  0  0
 18 25  1  0  0  0  0
 19 26  1  0  0  0  0
 20 17  2  0  0  0  0
 22 20  1  6  0  0  0
 22 10  1  0  0  0  0
 23 14  1  0  0  0  0
 26 17  1  0  0  0  0
 26 25  2  0  0  0  0
 27  7  1  0  0  0  0
 27 24  1  1  0  0  0
 28 11  1  0  0  0  0
 29 30  1  0  0  0  0
 30 28  1  0  0  0  0
M  END
>  <MODEL>
6

>  <REMARK>
 VINA RESULT:      -7.6      2.230      3.325
  Name = 
  2 active torsions:
  status: ('A' for Active; 'I' for Inactive)
    1  A    between atoms: C_11  and  O_28
    2  A    between atoms: O_28  and  C_30
                            x       y       z     vdW  Elec       q    Type
                         _______ _______ _______ _____ _____    ______ ____

>  <TORSDO>
F 2

$$$$
=
 OpenBabel11112416213D

 30 35  0  0  1  0  0  0  0  0999 V2000
  187.9950  175.8010  141.8120 C   0  0  0  0  0  0  0  0  0  0  0  0
  186.3260  177.6910  141.6720 C   0  0  0  0  0  0  0  0  0  0  0  0
  188.7490  176.6010  145.8420 N   0  0  0  0  0  2  0  0  0  0  0  0
  188.9190  175.0440  142.5930 C   0  0  0  0  0  0  0  0  0  0  0  0
  187.8290  175.4630  140.5090 N   0  0  0  0  0  0  0  0  0  0  0  0
  190.0480  172.7580  140.1410 O   0  0  0  0  0  0  0  0  0  0  0  0
  191.7380  174.0090  143.3670 C   0  0  1  0  0  3  0  0  0  0  0  0
  189.4170  173.7050  140.6880 C   0  0  0  0  0  0  0  0  0  0  0  0
  191.4050  174.8230  144.6150 C   0  0  2  0  0  3  0  0  0  0  0  0
  189.7140  175.6480  146.2200 N   0  0  0  0  0  0  0  0  0  0  0  0
  188.5080  174.4420  139.9300 C   0  0  0  0  0  0  0  0  0  0  0  0
  189.6210  174.0090  142.0080 N   0  0  0  0  0  0  0  0  0  0  0  0
  185.6630  178.7380  142.3170 C   0  0  0  0  0  3  0  0  0  0  0  0
  192.2700  174.2180  145.7010 C   0  0  0  0  0  2  0  0  0  0  0  0
  192.8930  173.1110  143.7630 C   0  0  0  0  0  2  0  0  0  0  0  0
  185.9050  177.4670  139.9770 Cl  0  0  0  0  0  0  0  0  0  0  0  0
  188.4010  176.4440  144.4860 C   0  0  0  0  0  0  0  0  0  0  0  0
  185.9010  179.0250  143.6590 C   0  0  0  0  0  3  0  0  0  0  0  0
  187.2660  176.8920  142.3890 C   0  0  0  0  0  0  0  0  0  0  0  0
  189.0820  175.4110  143.9400 C   0  0  0  0  0  0  0  0  0  0  0  0
  189.0970  174.7970  147.2230 C   0  0  0  0  0  1  0  0  0  0  0  0
  189.9310  174.8130  145.0170 C   0  0  1  0  0  3  0  0  0  0  0  0
  193.3970  173.5700  145.0490 N   0  0  0  0  0  2  0  0  0  0  0  0
  189.9280  172.1670  143.6590 C   0  0  0  0  0  1  0  0  0  0  0  0
  186.8130  178.2600  144.3790 C   0  0  0  0  0  3  0  0  0  0  0  0
  187.4910  177.2070  143.7620 C   0  0  0  0  0  0  0  0  0  0  0  0
  190.5970  173.1860  142.7410 C   0  0  2  0  0  3  0  0  0  0  0  0
  188.3040  174.1270  138.5830 O   0  0  0  0  0  0  0  0  0  0  0  0
  188.3940  175.0360  136.3690 C   0  0  0  0  0  1  0  0  0  0  0  0
  187.6550  175.0180  137.6890 C   0  0  0  0  0  2  0  0  0  0  0  0
  1 19  2  0  0  0  0
  1  4  1  0  0  0  0
  2 13  2  0  0  0  0
  2 19  1  0  0  0  0
  3 10  1  0  0  0  0
  4 20  2  0  0  0  0
  5  1  1  0  0  0  0
  6  8  2  0  0  0  0
  7 15  1  1  0  0  0
  7  9  1  0  0  0  0
  8 12  1  0  0  0  0
  9 22  1  0  0  0  0
  9 14  1  1  0  0  0
 10 21  1  0  0  0  0
 11  5  2  0  0  0  0
 11  8  1  0  0  0  0
 12  4  1  0  0  0  0
 12 27  1  0  0  0  0
 13 18  1  0  0  0  0
 15 23  1  0  0  0  0
 16  2  1  0  0  0  0
 17  3  1  0  0  0  0
 18 25  2  0  0  0  0
 19 26  1  0  0  0  0
 20 17  1  0  0  0  0
 22 20  1  6  0  0  0
 22 10  1  0  0  0  0
 23 14  1  0  0  0  0
 26 25  1  0  0  0  0
 26 17  2  0  0  0  0
 27  7  1  0  0  0  0
 27 24  1  1  0  0  0
 28 11  1  0  0  0  0
 29 30  1  0  0  0  0
 30 28  1  0  0  0  0
M  END
>  <MODEL>
7

>  <REMARK>
 VINA RESULT:      -7.5      2.343      3.384
  Name = 
  2 active torsions:
  status: ('A' for Active; 'I' for Inactive)
    1  A    between atoms: C_11  and  O_28
    2  A    between atoms: O_28  and  C_30
                            x       y       z     vdW  Elec       q    Type
                         _______ _______ _______ _____ _____    ______ ____

>  <TORSDO>
F 2

$$$$
=
 OpenBabel11112416213D

 30 35  0  0  1  0  0  0  0  0999 V2000
  188.1880  175.6200  140.9860 C   0  0  0  0  0  0  0  0  0  0  0  0
  188.2150  174.3210  138.8220 C   0  0  0  0  0  0  0  0  0  0  0  0
  190.9630  173.0240  142.7220 N   0  0  0  0  0  2  0  0  0  0  0  0
  188.6690  175.7780  142.3210 C   0  0  0  0  0  0  0  0  0  0  0  0
  187.2810  176.5150  140.5210 N   0  0  0  0  0  0  0  0  0  0  0  0
  186.8440  178.6530  143.2800 O   0  0  0  0  0  0  0  0  0  0  0  0
  188.3840  175.8370  145.4080 C   0  0  1  0  0  3  0  0  0  0  0  0
  187.2810  177.6960  142.5820 C   0  0  0  0  0  0  0  0  0  0  0  0
  189.3160  174.6390  145.2530 C   0  0  2  0  0  3  0  0  0  0  0  0
  191.1510  173.5230  144.0250 N   0  0  0  0  0  0  0  0  0  0  0  0
  186.8190  177.5420  141.2750 C   0  0  0  0  0  0  0  0  0  0  0  0
  188.1960  176.8160  143.0980 N   0  0  0  0  0  0  0  0  0  0  0  0
  188.7170  173.2380  138.0930 C   0  0  0  0  0  3  0  0  0  0  0  0
  190.0290  174.5410  146.5850 C   0  0  0  0  0  2  0  0  0  0  0  0
  188.4850  176.2450  146.8650 C   0  0  0  0  0  2  0  0  0  0  0  0
  187.0580  175.3320  137.9610 Cl  0  0  0  0  0  0  0  0  0  0  0  0
  190.0360  173.8170  142.0160 C   0  0  0  0  0  0  0  0  0  0  0  0
  189.6400  172.3590  138.6530 C   0  0  0  0  0  3  0  0  0  0  0  0
  188.6490  174.5410  140.1630 C   0  0  0  0  0  0  0  0  0  0  0  0
  189.6040  174.8390  142.7890 C   0  0  0  0  0  0  0  0  0  0  0  0
  192.5370  173.9510  144.1180 C   0  0  0  0  0  1  0  0  0  0  0  0
  190.3150  174.7430  144.1010 C   0  0  1  0  0  3  0  0  0  0  0  0
  189.1880  175.1890  147.5780 N   0  0  0  0  0  2  0  0  0  0  0  0
  190.0250  177.6660  144.5630 C   0  0  0  0  0  1  0  0  0  0  0  0
  190.0770  172.5530  139.9580 C   0  0  0  0  0  3  0  0  0  0  0  0
  189.5950  173.6250  140.7120 C   0  0  0  0  0  0  0  0  0  0  0  0
  188.6340  177.0440  144.4850 C   0  0  2  0  0  3  0  0  0  0  0  0
  185.8860  178.4430  140.7540 O   0  0  0  0  0  0  0  0  0  0  0  0
  183.7120  178.2910  141.7500 C   0  0  0  0  0  1  0  0  0  0  0  0
  184.5390  178.0720  140.5010 C   0  0  0  0  0  2  0  0  0  0  0  0
  1  4  1  0  0  0  0
  2 19  1  0  0  0  0
  3 10  1  0  0  0  0
  4 20  2  0  0  0  0
  4 12  1  0  0  0  0
  5  1  1  0  0  0  0
  5 11  2  0  0  0  0
  7 15  1  1  0  0  0
  8 12  1  0  0  0  0
  8  6  2  0  0  0  0
  9  7  1  0  0  0  0
  9 14  1  1  0  0  0
 10 22  1  0  0  0  0
 10 21  1  0  0  0  0
 11  8  1  0  0  0  0
 12 27  1  0  0  0  0
 13 18  1  0  0  0  0
 13  2  2  0  0  0  0
 14 23  1  0  0  0  0
 15 23  1  0  0  0  0
 16  2  1  0  0  0  0
 17  3  1  0  0  0  0
 17 20  1  0  0  0  0
 18 25  2  0  0  0  0
 19 26  1  0  0  0  0
 19  1  2  0  0  0  0
 22 20  1  6  0  0  0
 22  9  1  0  0  0  0
 25 26  1  0  0  0  0
 26 17  2  0  0  0  0
 27 24  1  6  0  0  0
 27  7  1  0  0  0  0
 28 11  1  0  0  0  0
 30 28  1  0  0  0  0
 30 29  1  0  0  0  0
M  END
>  <MODEL>
8

>  <REMARK>
 VINA RESULT:      -7.3      2.527      5.357
  Name = 
  2 active torsions:
  status: ('A' for Active; 'I' for Inactive)
    1  A    between atoms: C_11  and  O_28
    2  A    between atoms: O_28  and  C_30
                            x       y       z     vdW  Elec       q    Type
                         _______ _______ _______ _____ _____    ______ ____

>  <TORSDO>
F 2

$$$$
=
 OpenBabel11112416213D

 30 35  0  0  1  0  0  0  0  0999 V2000
  189.1530  174.0330  141.5460 C   0  0  0  0  0  0  0  0  0  0  0  0
  190.6780  172.0560  141.9190 C   0  0  0  0  0  0  0  0  0  0  0  0
  189.3280  175.0880  145.5840 N   0  0  0  0  0  2  0  0  0  0  0  0
  188.4620  175.1600  142.0840 C   0  0  0  0  0  0  0  0  0  0  0  0
  189.0230  173.7730  140.2210 N   0  0  0  0  0  0  0  0  0  0  0  0
  186.8730  176.3450  139.1530 O   0  0  0  0  0  0  0  0  0  0  0  0
  185.9370  176.7820  142.8630 C   0  0  1  0  0  3  0  0  0  0  0  0
  187.5820  175.6370  139.9230 C   0  0  0  0  0  0  0  0  0  0  0  0
  186.5220  176.5260  144.2490 C   0  0  2  0  0  3  0  0  0  0  0  0
  188.5110  176.2290  145.6900 N   0  0  0  0  0  0  0  0  0  0  0  0
  188.2640  174.5400  139.4000 C   0  0  0  0  0  0  0  0  0  0  0  0
  187.6790  175.9400  141.2560 N   0  0  0  0  0  0  0  0  0  0  0  0
  191.4370  171.2940  142.8130 C   0  0  0  0  0  3  0  0  0  0  0  0
  185.9540  177.6340  145.1090 C   0  0  0  0  0  2  0  0  0  0  0  0
  184.9370  177.9070  143.0450 C   0  0  0  0  0  2  0  0  0  0  0  0
  190.7020  171.4970  140.2490 Cl  0  0  0  0  0  0  0  0  0  0  0  0
  189.3570  174.6200  144.2550 C   0  0  0  0  0  0  0  0  0  0  0  0
  191.5070  171.6260  144.1630 C   0  0  0  0  0  3  0  0  0  0  0  0
  189.9580  173.1960  142.3860 C   0  0  0  0  0  0  0  0  0  0  0  0
  188.6040  175.4110  143.4590 C   0  0  0  0  0  0  0  0  0  0  0  0
  189.3720  177.3320  146.0810 C   0  0  0  0  0  1  0  0  0  0  0  0
  188.0490  176.5090  144.3110 C   0  0  1  0  0  3  0  0  0  0  0  0
  184.7300  178.0950  144.4740 N   0  0  0  0  0  2  0  0  0  0  0  0
  187.8260  178.3240  141.9660 C   0  0  0  0  0  1  0  0  0  0  0  0
  190.8140  172.7330  144.6410 C   0  0  0  0  0  3  0  0  0  0  0  0
  190.0480  173.5130  143.7730 C   0  0  0  0  0  0  0  0  0  0  0  0
  186.9280  177.1130  141.7320 C   0  0  2  0  0  3  0  0  0  0  0  0
  188.1600  174.2370  138.0390 O   0  0  0  0  0  0  0  0  0  0  0  0
  189.3360  172.5300  136.8390 C   0  0  0  0  0  1  0  0  0  0  0  0
  189.3010  173.9910  137.2310 C   0  0  0  0  0  2  0  0  0  0  0  0
  1  4  2  0  0  0  0
  1 19  1  0  0  0  0
  2 19  2  0  0  0  0
  2 13  1  0  0  0  0
  3 10  1  0  0  0  0
  4 20  1  0  0  0  0
  5  1  1  0  0  0  0
  6  8  2  0  0  0  0
  7 15  1  1  0  0  0
  7  9  1  0  0  0  0
  8 12  1  0  0  0  0
  9 22  1  0  0  0  0
  9 14  1  1  0  0  0
 10 21  1  0  0  0  0
 11  8  1  0  0  0  0
 11  5  2  0  0  0  0
 12 27  1  0  0  0  0
 12  4  1  0  0  0  0
 13 18  2  0  0  0  0
 15 23  1  0  0  0  0
 16  2  1  0  0  0  0
 17  3  1  0  0  0  0
 18 25  1  0  0  0  0
 19 26  1  0  0  0  0
 20 17  2  0  0  0  0
 22 20  1  6  0  0  0
 22 10  1  0  0  0  0
 23 14  1  0  0  0  0
 26 17  1  0  0  0  0
 26 25  2  0  0  0  0
 27 24  1  1  0  0  0
 27  7  1  0  0  0  0
 28 11  1  0  0  0  0
 29 30  1  0  0  0  0
 30 28  1  0  0  0  0
M  END
>  <MODEL>
9

>  <REMARK>
 VINA RESULT:      -7.2      3.096      6.000
  Name = 
  2 active torsions:
  status: ('A' for Active; 'I' for Inactive)
    1  A    between atoms: C_11  and  O_28
    2  A    between atoms: O_28  and  C_30
                            x       y       z     vdW  Elec       q    Type
                         _______ _______ _______ _____ _____    ______ ____

>  <TORSDO>
F 2

$$$$
