=
 OpenBabel11112418033D

 34 40  0  0  1  0  0  0  0  0999 V2000
  187.9410  177.0010  146.3780 C   0  0  1  0  0  3  0  0  0  0  0  0
  189.0000  174.7710  147.0920 C   0  0  0  0  0  2  0  0  0  0  0  0
  184.5070  178.3810  141.2460 C   0  0  1  0  0  3  0  0  0  0  0  0
  186.4440  178.7150  145.1000 C   0  0  0  0  0  0  0  0  0  0  0  0
  186.6100  178.7630  142.5380 C   0  0  2  0  0  3  0  0  0  0  0  0
  186.4000  176.8990  141.0220 O   0  0  0  0  0  1  0  0  0  0  0  0
  184.2680  177.8630  139.9710 O   0  0  0  0  0  1  0  0  0  0  0  0
  183.4300  178.5760  143.8600 S   0  0  0  0  0  0  0  0  0  0  0  0
  189.6850  175.8060  145.0740 C   0  0  2  0  0  3  0  0  0  0  0  0
  191.5990  174.2740  142.9220 C   0  0  0  0  0  2  0  0  0  0  0  0
  187.9860  178.2810  142.7200 N   0  0  0  0  0  2  0  0  0  0  0  0
  184.6290  179.9470  143.7210 C   0  0  0  0  0  2  0  0  0  0  0  0
  189.3840  176.5560  143.7590 C   0  0  2  0  0  3  0  0  0  0  0  0
  190.1200  173.9340  146.4680 C   0  0  0  0  0  2  0  0  0  0  0  0
  186.0810  179.4500  143.8210 C   0  0  1  0  0  3  0  0  0  0  0  0
  183.2210  178.3040  142.0630 C   0  0  0  0  0  2  0  0  0  0  0  0
  191.6730  174.3940  144.4450 C   0  0  1  0  0  3  0  0  0  0  0  0
  187.7530  177.9430  145.1410 C   0  0  2  0  0  3  0  0  0  0  0  0
  185.6880  177.6860  141.9360 C   0  0  2  0  0  3  0  0  0  0  0  0
  188.0240  177.2720  143.7770 C   0  0  1  0  0  3  0  0  0  0  0  0
  186.0860  178.2120  147.5060 C   0  0  0  0  0  2  0  0  0  0  0  0
  191.0650  175.5300  142.2400 C   0  0  0  0  0  2  0  0  0  0  0  0
  185.7030  178.8650  146.2120 C   0  0  0  0  0  3  0  0  0  0  0  0
  189.5770  175.7200  142.5000 C   0  0  0  0  0  2  0  0  0  0  0  0
  190.2500  174.4030  145.0170 C   0  0  2  0  0  3  0  0  0  0  0  0
  186.6720  176.8400  147.2160 C   0  0  0  0  0  2  0  0  0  0  0  0
  188.4810  175.6370  145.9610 C   0  0  2  0  0  3  0  0  0  0  0  0
  192.4870  173.2190  144.9720 C   0  0  0  0  0  2  0  0  0  0  0  0
  193.6430  173.7180  145.8230 C   0  0  0  0  0  2  0  0  0  0  0  0
  197.1460  173.4980  146.0660 C   0  0  0  0  0  2  0  0  0  0  0  0
  195.2950  172.0700  145.5900 C   0  0  0  0  0  2  0  0  0  0  0  0
  194.9050  173.4090  145.1730 N   0  0  0  0  0  0  0  0  0  0  0  0
  196.7960  172.0690  145.7370 C   0  0  0  0  0  2  0  0  0  0  0  0
  195.9060  174.3060  145.7390 C   0  0  0  0  0  2  0  0  0  0  0  0
  1 26  1  6  0  0  0
  3  7  1  6  0  0  0
  3 19  1  0  0  0  0
  3 16  1  0  0  0  0
  4 18  1  0  0  0  0
  4 23  2  0  0  0  0
  5 11  1  1  0  0  0
  5 15  1  0  0  0  0
  6 19  1  0  0  0  0
  9 27  1  0  0  0  0
 10 17  1  0  0  0  0
 11 20  1  0  0  0  0
 12 15  1  0  0  0  0
 12  8  1  0  0  0  0
 13 20  1  0  0  0  0
 13  9  1  0  0  0  0
 14  2  1  0  0  0  0
 15  4  1  0  0  0  0
 16  8  1  0  0  0  0
 17 28  1  0  0  0  0
 17 25  1  0  0  0  0
 18  1  1  0  0  0  0
 19  5  1  0  0  0  0
 20 18  1  0  0  0  0
 22 24  1  0  0  0  0
 22 10  1  0  0  0  0
 23 21  1  0  0  0  0
 24 13  1  0  0  0  0
 25  9  1  0  0  0  0
 25 14  1  0  0  0  0
 26 21  1  0  0  0  0
 27  1  1  0  0  0  0
 27  2  1  0  0  0  0
 28 29  1  0  0  0  0
 31 33  1  0  0  0  0
 32 31  1  0  0  0  0
 32 34  1  0  0  0  0
 32 29  1  0  0  0  0
 33 30  1  0  0  0  0
 34 30  1  0  0  0  0
M  END
>  <MODEL>
1

>  <REMARK>
 VINA RESULT:      -8.8      0.000      0.000
  Name = 
  3 active torsions:
  status: ('A' for Active; 'I' for Inactive)
    1  A    between atoms: C_17  and  C_28
    2  A    between atoms: C_28  and  C_29
    3  A    between atoms: C_29  and  N_32
                            x       y       z     vdW  Elec       q    Type
                         _______ _______ _______ _____ _____    ______ ____

>  <TORSDO>
F 3

$$$$
=
 OpenBabel11112418033D

 34 40  0  0  1  0  0  0  0  0999 V2000
  192.2830  176.2020  145.2530 C   0  0  1  0  0  3  0  0  0  0  0  0
  190.8370  177.9340  144.0230 C   0  0  0  0  0  2  0  0  0  0  0  0
  195.5230  171.2790  142.9500 C   0  0  1  0  0  3  0  0  0  0  0  0
  194.0040  174.2840  145.6670 C   0  0  0  0  0  0  0  0  0  0  0  0
  193.6530  172.0760  144.4020 C   0  0  2  0  0  3  0  0  0  0  0  0
  193.3490  171.7820  142.0280 O   0  0  0  0  0  1  0  0  0  0  0  0
  195.5480  170.4810  141.8040 O   0  0  0  0  0  1  0  0  0  0  0  0
  196.8160  173.4440  144.2420 S   0  0  0  0  0  0  0  0  0  0  0  0
  190.2310  175.6440  143.9690 C   0  0  2  0  0  3  0  0  0  0  0  0
  187.8770  174.5360  142.0010 C   0  0  0  0  0  2  0  0  0  0  0  0
  192.2260  172.4210  144.4020 N   0  0  0  0  0  2  0  0  0  0  0  0
  195.9250  172.5480  145.5610 C   0  0  0  0  0  2  0  0  0  0  0  0
  190.5800  174.1470  143.8320 C   0  0  2  0  0  3  0  0  0  0  0  0
  189.5210  177.7940  143.2520 C   0  0  0  0  0  2  0  0  0  0  0  0
  194.4130  172.8270  145.5230 C   0  0  1  0  0  3  0  0  0  0  0  0
  196.8230  172.0730  143.0320 C   0  0  0  0  0  2  0  0  0  0  0  0
  187.9480  175.7620  142.9140 C   0  0  1  0  0  3  0  0  0  0  0  0
  192.5690  174.6640  145.3400 C   0  0  2  0  0  3  0  0  0  0  0  0
  194.2790  172.1760  142.9980 C   0  0  2  0  0  3  0  0  0  0  0  0
  192.0580  173.8480  144.1330 C   0  0  1  0  0  3  0  0  0  0  0  0
  194.4330  176.6070  146.4330 C   0  0  0  0  0  2  0  0  0  0  0  0
  188.6080  173.3200  142.5610 C   0  0  0  0  0  2  0  0  0  0  0  0
  194.8440  175.1830  146.2100 C   0  0  0  0  0  3  0  0  0  0  0  0
  190.1190  173.5100  142.5280 C   0  0  0  0  0  2  0  0  0  0  0  0
  189.3810  176.3090  142.9080 C   0  0  2  0  0  3  0  0  0  0  0  0
  193.5510  177.0570  145.2800 C   0  0  0  0  0  2  0  0  0  0  0  0
  191.4370  176.5420  144.0290 C   0  0  2  0  0  3  0  0  0  0  0  0
  186.9480  176.7910  142.4000 C   0  0  0  0  0  2  0  0  0  0  0  0
  185.6840  176.7620  143.2430 C   0  0  0  0  0  2  0  0  0  0  0  0
  184.1220  178.6870  145.7400 C   0  0  0  0  0  2  0  0  0  0  0  0
  185.6490  176.8610  145.5870 C   0  0  0  0  0  2  0  0  0  0  0  0
  185.8290  177.6560  144.3800 N   0  0  0  0  0  0  0  0  0  0  0  0
  184.9170  177.7240  146.5840 C   0  0  0  0  0  2  0  0  0  0  0  0
  184.7000  178.5770  144.3430 C   0  0  0  0  0  2  0  0  0  0  0  0
  1 26  1  6  0  0  0
  1 18  1  0  0  0  0
  2 27  1  0  0  0  0
  3  7  1  6  0  0  0
  3 19  1  0  0  0  0
  3 16  1  0  0  0  0
  4 23  2  0  0  0  0
  5 11  1  6  0  0  0
  5 15  1  0  0  0  0
  6 19  1  0  0  0  0
  8 12  1  0  0  0  0
  9 27  1  0  0  0  0
 10 22  1  0  0  0  0
 10 17  1  0  0  0  0
 13  9  1  0  0  0  0
 13 20  1  0  0  0  0
 14  2  1  0  0  0  0
 15 12  1  0  0  0  0
 15  4  1  0  0  0  0
 16  8  1  0  0  0  0
 18  4  1  0  0  0  0
 19  5  1  0  0  0  0
 20 11  1  0  0  0  0
 20 18  1  0  0  0  0
 23 21  1  0  0  0  0
 24 22  1  0  0  0  0
 24 13  1  0  0  0  0
 25 17  1  0  0  0  0
 25 14  1  0  0  0  0
 25  9  1  0  0  0  0
 26 21  1  0  0  0  0
 27  1  1  0  0  0  0
 28 17  1  0  0  0  0
 28 29  1  0  0  0  0
 29 32  1  0  0  0  0
 30 33  1  0  0  0  0
 31 33  1  0  0  0  0
 32 31  1  0  0  0  0
 34 32  1  0  0  0  0
 34 30  1  0  0  0  0
M  END
>  <MODEL>
2

>  <REMARK>
 VINA RESULT:      -8.7      3.933      9.072
  Name = 
  3 active torsions:
  status: ('A' for Active; 'I' for Inactive)
    1  A    between atoms: C_17  and  C_28
    2  A    between atoms: C_28  and  C_29
    3  A    between atoms: C_29  and  N_32
                            x       y       z     vdW  Elec       q    Type
                         _______ _______ _______ _____ _____    ______ ____

>  <TORSDO>
F 3

$$$$
=
 OpenBabel11112418033D

 34 40  0  0  1  0  0  0  0  0999 V2000
  187.9430  177.0060  146.4130 C   0  0  1  0  0  3  0  0  0  0  0  0
  188.9790  174.7740  147.1510 C   0  0  0  0  0  2  0  0  0  0  0  0
  184.5120  178.3640  141.2740 C   0  0  1  0  0  3  0  0  0  0  0  0
  186.4610  178.7220  145.1190 C   0  0  0  0  0  0  0  0  0  0  0  0
  186.6220  178.7380  142.5560 C   0  0  2  0  0  3  0  0  0  0  0  0
  186.3870  176.8600  141.0630 O   0  0  0  0  0  1  0  0  0  0  0  0
  184.2640  177.8340  140.0050 O   0  0  0  0  0  1  0  0  0  0  0  0
  183.4430  178.6010  143.8870 S   0  0  0  0  0  0  0  0  0  0  0  0
  189.6700  175.7770  145.1190 C   0  0  2  0  0  3  0  0  0  0  0  0
  191.5620  174.2000  142.9810 C   0  0  0  0  0  2  0  0  0  0  0  0
  187.9930  178.2440  142.7410 N   0  0  0  0  0  2  0  0  0  0  0  0
  184.6560  179.9570  143.7300 C   0  0  0  0  0  2  0  0  0  0  0  0
  189.3740  176.5150  143.7960 C   0  0  2  0  0  3  0  0  0  0  0  0
  190.0880  173.9170  146.5340 C   0  0  0  0  0  2  0  0  0  0  0  0
  186.1040  179.4460  143.8320 C   0  0  1  0  0  3  0  0  0  0  0  0
  183.2270  178.3110  142.0940 C   0  0  0  0  0  2  0  0  0  0  0  0
  191.6420  174.3370  144.5020 C   0  0  1  0  0  3  0  0  0  0  0  0
  187.7620  177.9360  145.1660 C   0  0  2  0  0  3  0  0  0  0  0  0
  185.6870  177.6640  141.9690 C   0  0  2  0  0  3  0  0  0  0  0  0
  188.0220  177.2460  143.8090 C   0  0  1  0  0  3  0  0  0  0  0  0
  186.1030  178.2510  147.5310 C   0  0  0  0  0  2  0  0  0  0  0  0
  191.0410  175.4540  142.2850 C   0  0  0  0  0  2  0  0  0  0  0  0
  185.7240  178.8930  146.2310 C   0  0  0  0  0  3  0  0  0  0  0  0
  189.5560  175.6630  142.5470 C   0  0  0  0  0  2  0  0  0  0  0  0
  190.2200  174.3680  145.0770 C   0  0  2  0  0  3  0  0  0  0  0  0
  186.6740  176.8690  147.2560 C   0  0  0  0  0  2  0  0  0  0  0  0
  188.4670  175.6320  146.0110 C   0  0  2  0  0  3  0  0  0  0  0  0
  192.4440  173.1590  145.0410 C   0  0  0  0  0  2  0  0  0  0  0  0
  192.2340  171.9350  144.1650 C   0  0  0  0  0  2  0  0  0  0  0  0
  194.7580  170.2680  145.9640 C   0  0  0  0  0  2  0  0  0  0  0  0
  193.0690  169.7510  144.3600 C   0  0  0  0  0  2  0  0  0  0  0  0
  193.4490  171.1380  144.1310 N   0  0  0  0  0  0  0  0  0  0  0  0
  194.1600  169.1220  145.1890 C   0  0  0  0  0  2  0  0  0  0  0  0
  194.2440  171.5260  145.2900 C   0  0  0  0  0  2  0  0  0  0  0  0
  1 26  1  6  0  0  0
  3  7  1  6  0  0  0
  3 19  1  0  0  0  0
  3 16  1  0  0  0  0
  4 18  1  0  0  0  0
  4 23  2  0  0  0  0
  5 11  1  1  0  0  0
  5 15  1  0  0  0  0
  6 19  1  0  0  0  0
  9 27  1  0  0  0  0
 10 17  1  0  0  0  0
 11 20  1  0  0  0  0
 12 15  1  0  0  0  0
 12  8  1  0  0  0  0
 13 20  1  0  0  0  0
 13  9  1  0  0  0  0
 14  2  1  0  0  0  0
 15  4  1  0  0  0  0
 16  8  1  0  0  0  0
 17 28  1  0  0  0  0
 17 25  1  0  0  0  0
 18  1  1  0  0  0  0
 19  5  1  0  0  0  0
 20 18  1  0  0  0  0
 22 24  1  0  0  0  0
 22 10  1  0  0  0  0
 23 21  1  0  0  0  0
 24 13  1  0  0  0  0
 25  9  1  0  0  0  0
 25 14  1  0  0  0  0
 26 21  1  0  0  0  0
 27  1  1  0  0  0  0
 27  2  1  0  0  0  0
 29 28  1  0  0  0  0
 31 33  1  0  0  0  0
 32 29  1  0  0  0  0
 32 31  1  0  0  0  0
 32 34  1  0  0  0  0
 33 30  1  0  0  0  0
 34 30  1  0  0  0  0
M  END
>  <MODEL>
3

>  <REMARK>
 VINA RESULT:      -8.5      1.124      1.445
  Name = 
  3 active torsions:
  status: ('A' for Active; 'I' for Inactive)
    1  A    between atoms: C_17  and  C_28
    2  A    between atoms: C_28  and  C_29
    3  A    between atoms: C_29  and  N_32
                            x       y       z     vdW  Elec       q    Type
                         _______ _______ _______ _____ _____    ______ ____

>  <TORSDO>
F 3

$$$$
=
 OpenBabel11112418033D

 34 40  0  0  1  0  0  0  0  0999 V2000
  193.6180  176.6940  143.0280 C   0  0  1  0  0  3  0  0  0  0  0  0
  191.0900  177.0080  142.6890 C   0  0  0  0  0  2  0  0  0  0  0  0
  196.8320  171.5990  144.9630 C   0  0  1  0  0  3  0  0  0  0  0  0
  195.9240  175.5280  143.3970 C   0  0  0  0  0  0  0  0  0  0  0  0
  196.1550  173.9600  145.4180 C   0  0  2  0  0  3  0  0  0  0  0  0
  194.7190  172.1160  146.0100 O   0  0  0  0  0  1  0  0  0  0  0  0
  196.5950  170.4050  145.6490 O   0  0  0  0  0  1  0  0  0  0  0  0
  197.2010  172.7040  142.3800 S   0  0  0  0  0  0  0  0  0  0  0  0
  191.9350  176.5080  144.8450 C   0  0  2  0  0  3  0  0  0  0  0  0
  189.9620  175.7440  147.3270 C   0  0  0  0  0  2  0  0  0  0  0  0
  195.1200  174.7890  146.0500 N   0  0  0  0  0  2  0  0  0  0  0  0
  197.9410  173.9070  143.5380 C   0  0  0  0  0  2  0  0  0  0  0  0
  192.8700  175.7280  145.7930 C   0  0  2  0  0  3  0  0  0  0  0  0
  189.9250  177.0030  143.6820 C   0  0  0  0  0  2  0  0  0  0  0  0
  196.8680  174.7260  144.2770 C   0  0  1  0  0  3  0  0  0  0  0  0
  197.2250  171.2780  143.5250 C   0  0  0  0  0  2  0  0  0  0  0  0
  189.8850  176.8450  146.2680 C   0  0  1  0  0  3  0  0  0  0  0  0
  194.6710  176.1110  144.0310 C   0  0  2  0  0  3  0  0  0  0  0  0
  195.6360  172.5570  145.0490 C   0  0  2  0  0  3  0  0  0  0  0  0
  194.0890  175.1300  145.0720 C   0  0  1  0  0  3  0  0  0  0  0  0
  195.3810  176.6970  141.2740 C   0  0  0  0  0  2  0  0  0  0  0  0
  191.3870  175.4230  147.7670 C   0  0  0  0  0  2  0  0  0  0  0  0
  196.2620  175.8410  142.1330 C   0  0  0  0  0  3  0  0  0  0  0  0
  192.1630  174.7040  146.6720 C   0  0  0  0  0  2  0  0  0  0  0  0
  190.4380  176.3050  144.9440 C   0  0  2  0  0  3  0  0  0  0  0  0
  193.9270  176.3650  141.5660 C   0  0  0  0  0  2  0  0  0  0  0  0
  192.2030  176.2510  143.3870 C   0  0  2  0  0  3  0  0  0  0  0  0
  188.4290  177.2760  146.1400 C   0  0  0  0  0  2  0  0  0  0  0  0
  187.5110  176.1950  146.6860 C   0  0  0  0  0  2  0  0  0  0  0  0
  185.4710  179.0490  146.9600 C   0  0  0  0  0  2  0  0  0  0  0  0
  185.3060  176.8050  146.1690 C   0  0  0  0  0  2  0  0  0  0  0  0
  186.3050  176.7990  147.2280 N   0  0  0  0  0  0  0  0  0  0  0  0
  184.5160  178.0820  146.3080 C   0  0  0  0  0  2  0  0  0  0  0  0
  186.6120  178.2010  147.4870 C   0  0  0  0  0  2  0  0  0  0  0  0
  1 26  1  6  0  0  0
  1 27  1  0  0  0  0
  1 18  1  0  0  0  0
  2 27  1  0  0  0  0
  2 14  1  0  0  0  0
  3 19  1  0  0  0  0
  3  7  1  1  0  0  0
  4 18  1  0  0  0  0
  4 15  1  0  0  0  0
  5 11  1  6  0  0  0
  8 16  1  0  0  0  0
  8 12  1  0  0  0  0
  9 25  1  0  0  0  0
  9 13  1  0  0  0  0
 10 22  1  0  0  0  0
 12 15  1  0  0  0  0
 13 24  1  0  0  0  0
 14 25  1  0  0  0  0
 15  5  1  0  0  0  0
 16  3  1  0  0  0  0
 17 10  1  0  0  0  0
 18 20  1  0  0  0  0
 19  5  1  0  0  0  0
 19  6  1  0  0  0  0
 20 13  1  0  0  0  0
 20 11  1  0  0  0  0
 21 26  1  0  0  0  0
 21 23  1  0  0  0  0
 23  4  2  0  0  0  0
 24 22  1  0  0  0  0
 25 17  1  0  0  0  0
 27  9  1  0  0  0  0
 28 17  1  0  0  0  0
 28 29  1  0  0  0  0
 29 32  1  0  0  0  0
 30 34  1  0  0  0  0
 31 33  1  0  0  0  0
 31 32  1  0  0  0  0
 32 34  1  0  0  0  0
 33 30  1  0  0  0  0
M  END
>  <MODEL>
4

>  <REMARK>
 VINA RESULT:      -8.5      4.544      9.784
  Name = 
  3 active torsions:
  status: ('A' for Active; 'I' for Inactive)
    1  A    between atoms: C_17  and  C_28
    2  A    between atoms: C_28  and  C_29
    3  A    between atoms: C_29  and  N_32
                            x       y       z     vdW  Elec       q    Type
                         _______ _______ _______ _____ _____    ______ ____

>  <TORSDO>
F 3

$$$$
=
 OpenBabel11112418033D

 34 40  0  0  1  0  0  0  0  0999 V2000
  192.1860  175.8680  145.3740 C   0  0  1  0  0  3  0  0  0  0  0  0
  190.1360  177.4150  145.4530 C   0  0  0  0  0  2  0  0  0  0  0  0
  196.1360  174.6400  140.5860 C   0  0  1  0  0  3  0  0  0  0  0  0
  194.3980  174.7560  144.5460 C   0  0  0  0  0  0  0  0  0  0  0  0
  194.4190  173.7680  142.1750 C   0  0  2  0  0  3  0  0  0  0  0  0
  193.7780  174.8660  140.1270 O   0  0  0  0  0  1  0  0  0  0  0  0
  196.1630  174.7420  139.1930 O   0  0  0  0  0  1  0  0  0  0  0  0
  197.0250  175.8820  142.9740 S   0  0  0  0  0  0  0  0  0  0  0  0
  190.1570  175.5650  143.9740 C   0  0  2  0  0  3  0  0  0  0  0  0
  187.8620  175.1670  141.6900 C   0  0  0  0  0  2  0  0  0  0  0  0
  192.9750  173.5660  142.3570 N   0  0  0  0  0  2  0  0  0  0  0  0
  196.6570  174.1520  143.4290 C   0  0  0  0  0  2  0  0  0  0  0  0
  190.8580  174.6530  142.9450 C   0  0  2  0  0  3  0  0  0  0  0  0
  188.7870  177.3500  144.7320 C   0  0  0  0  0  2  0  0  0  0  0  0
  195.1430  173.8980  143.5380 C   0  0  1  0  0  3  0  0  0  0  0  0
  197.1740  175.5920  141.1740 C   0  0  0  0  0  2  0  0  0  0  0  0
  187.7710  175.5510  143.1680 C   0  0  1  0  0  3  0  0  0  0  0  0
  192.8780  174.7730  144.4930 C   0  0  2  0  0  3  0  0  0  0  0  0
  194.7300  174.8770  141.1520 C   0  0  2  0  0  3  0  0  0  0  0  0
  192.3910  174.7260  143.0290 C   0  0  1  0  0  3  0  0  0  0  0  0
  194.3300  176.1510  146.6000 C   0  0  0  0  0  2  0  0  0  0  0  0
  188.9770  174.1700  141.3900 C   0  0  0  0  0  2  0  0  0  0  0  0
  195.0550  175.3640  145.5500 C   0  0  0  0  0  3  0  0  0  0  0  0
  190.3520  174.8120  141.5170 C   0  0  0  0  0  2  0  0  0  0  0  0
  188.9830  176.4150  143.5370 C   0  0  2  0  0  3  0  0  0  0  0  0
  193.1670  176.8870  145.9560 C   0  0  0  0  0  2  0  0  0  0  0  0
  191.0730  176.5760  144.6070 C   0  0  2  0  0  3  0  0  0  0  0  0
  186.4590  176.2960  143.3820 C   0  0  0  0  0  2  0  0  0  0  0  0
  186.0910  177.0820  142.1350 C   0  0  0  0  0  2  0  0  0  0  0  0
  184.5770  178.9760  144.6850 C   0  0  0  0  0  2  0  0  0  0  0  0
  186.2080  179.2710  142.9700 C   0  0  0  0  0  2  0  0  0  0  0  0
  185.2930  178.2410  142.5000 N   0  0  0  0  0  0  0  0  0  0  0  0
  185.5220  179.9950  144.1010 C   0  0  0  0  0  2  0  0  0  0  0  0
  184.4980  177.8600  143.6610 C   0  0  0  0  0  2  0  0  0  0  0  0
  1 26  1  6  0  0  0
  3  7  1  6  0  0  0
  3 19  1  0  0  0  0
  3 16  1  0  0  0  0
  4 23  2  0  0  0  0
  5 11  1  1  0  0  0
  5 15  1  0  0  0  0
  6 19  1  0  0  0  0
  8 12  1  0  0  0  0
  9 27  1  0  0  0  0
 10 17  1  0  0  0  0
 11 20  1  0  0  0  0
 12 15  1  0  0  0  0
 13 20  1  0  0  0  0
 13  9  1  0  0  0  0
 14  2  1  0  0  0  0
 15  4  1  0  0  0  0
 16  8  1  0  0  0  0
 17 28  1  0  0  0  0
 17 25  1  0  0  0  0
 18  4  1  0  0  0  0
 18  1  1  0  0  0  0
 19  5  1  0  0  0  0
 20 18  1  0  0  0  0
 22 24  1  0  0  0  0
 22 10  1  0  0  0  0
 23 21  1  0  0  0  0
 24 13  1  0  0  0  0
 25  9  1  0  0  0  0
 25 14  1  0  0  0  0
 26 21  1  0  0  0  0
 27  1  1  0  0  0  0
 27  2  1  0  0  0  0
 29 32  1  0  0  0  0
 29 28  1  0  0  0  0
 31 33  1  0  0  0  0
 32 31  1  0  0  0  0
 32 34  1  0  0  0  0
 33 30  1  0  0  0  0
 34 30  1  0  0  0  0
M  END
>  <MODEL>
5

>  <REMARK>
 VINA RESULT:      -8.4      3.912      8.864
  Name = 
  3 active torsions:
  status: ('A' for Active; 'I' for Inactive)
    1  A    between atoms: C_17  and  C_28
    2  A    between atoms: C_28  and  C_29
    3  A    between atoms: C_29  and  N_32
                            x       y       z     vdW  Elec       q    Type
                         _______ _______ _______ _____ _____    ______ ____

>  <TORSDO>
F 3

$$$$
=
 OpenBabel11112418033D

 34 40  0  0  1  0  0  0  0  0999 V2000
  194.0260  174.4540  145.6580 C   0  0  1  0  0  3  0  0  0  0  0  0
  192.4390  176.0450  146.9030 C   0  0  0  0  0  2  0  0  0  0  0  0
  196.1280  174.6940  139.6950 C   0  0  1  0  0  3  0  0  0  0  0  0
  195.6420  173.5230  143.8310 C   0  0  0  0  0  0  0  0  0  0  0  0
  194.7910  173.4640  141.4080 C   0  0  2  0  0  3  0  0  0  0  0  0
  193.8310  175.2820  140.1490 O   0  0  0  0  0  1  0  0  0  0  0  0
  195.7790  175.2910  138.4810 O   0  0  0  0  0  1  0  0  0  0  0  0
  197.8870  174.9010  141.9070 S   0  0  0  0  0  0  0  0  0  0  0  0
  191.6670  174.8630  145.0010 C   0  0  2  0  0  3  0  0  0  0  0  0
  188.7880  175.5270  143.6180 C   0  0  0  0  0  2  0  0  0  0  0  0
  193.4480  173.3410  141.9900 N   0  0  0  0  0  2  0  0  0  0  0  0
  197.3220  173.1640  141.8910 C   0  0  0  0  0  2  0  0  0  0  0  0
  191.8490  174.3270  143.5650 C   0  0  2  0  0  3  0  0  0  0  0  0
  190.9570  176.3670  146.6950 C   0  0  0  0  0  2  0  0  0  0  0  0
  195.8820  173.0250  142.4150 C   0  0  1  0  0  3  0  0  0  0  0  0
  197.4590  175.2710  140.1670 C   0  0  0  0  0  2  0  0  0  0  0  0
  189.1980  175.3560  145.0820 C   0  0  1  0  0  3  0  0  0  0  0  0
  194.2060  173.6950  144.2990 C   0  0  2  0  0  3  0  0  0  0  0  0
  195.0170  174.8350  140.7430 C   0  0  2  0  0  3  0  0  0  0  0  0
  193.3240  174.2260  143.1480 C   0  0  1  0  0  3  0  0  0  0  0  0
  196.4420  174.0790  146.1150 C   0  0  0  0  0  2  0  0  0  0  0  0
  189.5470  174.6110  142.6640 C   0  0  0  0  0  2  0  0  0  0  0  0
  196.6650  173.6640  144.6920 C   0  0  0  0  0  3  0  0  0  0  0  0
  191.0020  175.0370  142.5170 C   0  0  0  0  0  2  0  0  0  0  0  0
  190.6140  175.9150  145.2730 C   0  0  2  0  0  3  0  0  0  0  0  0
  195.3160  175.1000  146.1660 C   0  0  0  0  0  2  0  0  0  0  0  0
  192.9090  175.4880  145.5730 C   0  0  2  0  0  3  0  0  0  0  0  0
  188.1790  176.0880  145.9460 C   0  0  0  0  0  2  0  0  0  0  0  0
  187.2770  176.9510  145.0790 C   0  0  0  0  0  2  0  0  0  0  0  0
  184.8640  178.2890  147.2630 C   0  0  0  0  0  2  0  0  0  0  0  0
  185.1650  177.9610  144.9200 C   0  0  0  0  0  2  0  0  0  0  0  0
  185.9150  176.9060  145.5870 N   0  0  0  0  0  0  0  0  0  0  0  0
  184.2020  178.5300  145.9300 C   0  0  0  0  0  2  0  0  0  0  0  0
  185.9730  177.2920  146.9920 C   0  0  0  0  0  2  0  0  0  0  0  0
  1 26  1  6  0  0  0
  3  7  1  6  0  0  0
  3 16  1  0  0  0  0
  3 19  1  0  0  0  0
  4 18  1  0  0  0  0
  4 23  2  0  0  0  0
  5 11  1  1  0  0  0
  5 15  1  0  0  0  0
  6 19  1  0  0  0  0
  9 25  1  0  0  0  0
  9 27  1  0  0  0  0
 10 17  1  0  0  0  0
 11 20  1  0  0  0  0
 12  8  1  0  0  0  0
 12 15  1  0  0  0  0
 13  9  1  0  0  0  0
 14  2  1  0  0  0  0
 15  4  1  0  0  0  0
 16  8  1  0  0  0  0
 17 25  1  0  0  0  0
 17 28  1  0  0  0  0
 18  1  1  0  0  0  0
 19  5  1  0  0  0  0
 20 13  1  0  0  0  0
 20 18  1  0  0  0  0
 21 26  1  0  0  0  0
 22 10  1  0  0  0  0
 23 21  1  0  0  0  0
 24 22  1  0  0  0  0
 24 13  1  0  0  0  0
 25 14  1  0  0  0  0
 27  1  1  0  0  0  0
 27  2  1  0  0  0  0
 29 32  1  0  0  0  0
 29 28  1  0  0  0  0
 31 32  1  0  0  0  0
 31 33  1  0  0  0  0
 32 34  1  0  0  0  0
 33 30  1  0  0  0  0
 34 30  1  0  0  0  0
M  END
>  <MODEL>
6

>  <REMARK>
 VINA RESULT:      -8.3      4.117      9.199
  Name = 
  3 active torsions:
  status: ('A' for Active; 'I' for Inactive)
    1  A    between atoms: C_17  and  C_28
    2  A    between atoms: C_28  and  C_29
    3  A    between atoms: C_29  and  N_32
                            x       y       z     vdW  Elec       q    Type
                         _______ _______ _______ _____ _____    ______ ____

>  <TORSDO>
F 3

$$$$
=
 OpenBabel11112418033D

 34 40  0  0  1  0  0  0  0  0999 V2000
  192.4150  176.2140  144.9970 C   0  0  1  0  0  3  0  0  0  0  0  0
  191.1030  177.9340  143.6110 C   0  0  0  0  0  2  0  0  0  0  0  0
  195.4730  171.0010  143.1230 C   0  0  1  0  0  3  0  0  0  0  0  0
  194.0200  174.2430  145.5920 C   0  0  0  0  0  0  0  0  0  0  0  0
  193.5990  171.9800  144.4530 C   0  0  2  0  0  3  0  0  0  0  0  0
  193.3610  171.5520  142.0930 O   0  0  0  0  0  1  0  0  0  0  0  0
  195.4960  170.1320  142.0300 O   0  0  0  0  0  1  0  0  0  0  0  0
  196.8310  173.1780  144.3270 S   0  0  0  0  0  0  0  0  0  0  0  0
  190.3820  175.6780  143.6750 C   0  0  2  0  0  3  0  0  0  0  0  0
  188.0420  174.5650  141.6940 C   0  0  0  0  0  2  0  0  0  0  0  0
  192.1920  172.3940  144.3800 N   0  0  0  0  0  2  0  0  0  0  0  0
  195.8520  172.4120  145.6650 C   0  0  0  0  0  2  0  0  0  0  0  0
  190.6580  174.1600  143.6440 C   0  0  2  0  0  3  0  0  0  0  0  0
  189.8080  177.8100  142.8020 C   0  0  0  0  0  2  0  0  0  0  0  0
  194.3580  172.7620  145.5540 C   0  0  1  0  0  3  0  0  0  0  0  0
  196.8090  171.7330  143.2050 C   0  0  0  0  0  2  0  0  0  0  0  0
  188.1450  175.8410  142.5310 C   0  0  1  0  0  3  0  0  0  0  0  0
  192.6180  174.6720  145.1900 C   0  0  2  0  0  3  0  0  0  0  0  0
  194.2760  171.9600  143.0700 C   0  0  2  0  0  3  0  0  0  0  0  0
  192.1070  173.8080  144.0170 C   0  0  1  0  0  3  0  0  0  0  0  0
  194.5420  176.5860  146.2290 C   0  0  0  0  0  2  0  0  0  0  0  0
  188.6900  173.3520  142.3540 C   0  0  0  0  0  2  0  0  0  0  0  0
  194.8870  175.1320  146.1100 C   0  0  0  0  0  3  0  0  0  0  0  0
  190.2080  173.4650  142.3650 C   0  0  0  0  0  2  0  0  0  0  0  0
  189.6030  176.3150  142.5450 C   0  0  2  0  0  3  0  0  0  0  0  0
  193.7240  177.0050  145.0200 C   0  0  0  0  0  2  0  0  0  0  0  0
  191.6300  176.5170  143.7250 C   0  0  2  0  0  3  0  0  0  0  0  0
  187.2170  176.8830  141.9190 C   0  0  0  0  0  2  0  0  0  0  0  0
  186.2790  177.4400  142.9770 C   0  0  0  0  0  2  0  0  0  0  0  0
  183.9600  178.2120  140.4460 C   0  0  0  0  0  2  0  0  0  0  0  0
  184.0380  178.1170  142.8280 C   0  0  0  0  0  2  0  0  0  0  0  0
  185.3890  178.4220  142.3800 N   0  0  0  0  0  0  0  0  0  0  0  0
  183.1100  178.4070  141.6750 C   0  0  0  0  0  2  0  0  0  0  0  0
  185.3920  178.1790  140.9430 C   0  0  0  0  0  2  0  0  0  0  0  0
  1 26  1  6  0  0  0
  1 18  1  0  0  0  0
  2 27  1  0  0  0  0
  3  7  1  6  0  0  0
  3 16  1  0  0  0  0
  4 23  2  0  0  0  0
  5 11  1  6  0  0  0
  5 15  1  0  0  0  0
  6 19  1  0  0  0  0
  8 12  1  0  0  0  0
  9 27  1  0  0  0  0
 10 22  1  0  0  0  0
 10 17  1  0  0  0  0
 13  9  1  0  0  0  0
 13 20  1  0  0  0  0
 14  2  1  0  0  0  0
 15  4  1  0  0  0  0
 15 12  1  0  0  0  0
 16  8  1  0  0  0  0
 17 25  1  0  0  0  0
 18  4  1  0  0  0  0
 19  3  1  0  0  0  0
 19  5  1  0  0  0  0
 20 11  1  0  0  0  0
 20 18  1  0  0  0  0
 22 24  1  0  0  0  0
 23 21  1  0  0  0  0
 24 13  1  0  0  0  0
 25 14  1  0  0  0  0
 25  9  1  0  0  0  0
 26 21  1  0  0  0  0
 27  1  1  0  0  0  0
 28 17  1  0  0  0  0
 28 29  1  0  0  0  0
 30 34  1  0  0  0  0
 30 33  1  0  0  0  0
 32 31  1  0  0  0  0
 32 29  1  0  0  0  0
 33 31  1  0  0  0  0
 34 32  1  0  0  0  0
M  END
>  <MODEL>
7

>  <REMARK>
 VINA RESULT:      -8.1      4.125      9.426
  Name = 
  3 active torsions:
  status: ('A' for Active; 'I' for Inactive)
    1  A    between atoms: C_17  and  C_28
    2  A    between atoms: C_28  and  C_29
    3  A    between atoms: C_29  and  N_32
                            x       y       z     vdW  Elec       q    Type
                         _______ _______ _______ _____ _____    ______ ____

>  <TORSDO>
F 3

$$$$
=
 OpenBabel11112418033D

 34 40  0  0  1  0  0  0  0  0999 V2000
  194.6260  174.2800  145.6490 C   0  0  1  0  0  3  0  0  0  0  0  0
  193.8210  176.6440  145.0430 C   0  0  0  0  0  2  0  0  0  0  0  0
  194.8440  169.0510  142.0940 C   0  0  1  0  0  3  0  0  0  0  0  0
  195.4080  171.8040  145.3830 C   0  0  0  0  0  0  0  0  0  0  0  0
  193.8740  170.2040  144.0860 C   0  0  2  0  0  3  0  0  0  0  0  0
  192.9470  170.5290  141.8840 O   0  0  0  0  0  1  0  0  0  0  0  0
  194.2670  168.5510  140.9240 O   0  0  0  0  0  1  0  0  0  0  0  0
  197.1910  170.2420  143.1420 S   0  0  0  0  0  0  0  0  0  0  0  0
  192.3020  174.8280  144.9670 C   0  0  2  0  0  3  0  0  0  0  0  0
  189.3240  175.1340  143.6720 C   0  0  0  0  0  2  0  0  0  0  0  0
  192.7710  171.0680  144.5270 N   0  0  0  0  0  2  0  0  0  0  0  0
  196.3270  169.5190  144.5790 C   0  0  0  0  0  2  0  0  0  0  0  0
  191.9380  173.3720  144.6060 C   0  0  2  0  0  3  0  0  0  0  0  0
  192.4350  177.1810  144.6740 C   0  0  0  0  0  2  0  0  0  0  0  0
  195.1130  170.3630  145.0020 C   0  0  1  0  0  3  0  0  0  0  0  0
  196.3400  169.2450  141.8670 C   0  0  0  0  0  2  0  0  0  0  0  0
  190.1140  176.0290  144.6280 C   0  0  1  0  0  3  0  0  0  0  0  0
  194.2400  172.7680  145.5170 C   0  0  2  0  0  3  0  0  0  0  0  0
  194.1480  170.3310  142.5750 C   0  0  2  0  0  3  0  0  0  0  0  0
  193.1720  172.4710  144.4420 C   0  0  1  0  0  3  0  0  0  0  0  0
  196.9480  173.5770  146.1920 C   0  0  0  0  0  2  0  0  0  0  0  0
  189.5710  173.6450  143.8900 C   0  0  0  0  0  2  0  0  0  0  0  0
  196.6500  172.1800  145.7370 C   0  0  0  0  0  3  0  0  0  0  0  0
  190.9670  173.2370  143.4400 C   0  0  0  0  0  2  0  0  0  0  0  0
  191.6010  175.9670  144.2570 C   0  0  2  0  0  3  0  0  0  0  0  0
  196.1080  174.5530  145.3850 C   0  0  0  0  0  2  0  0  0  0  0  0
  193.7540  175.1570  144.7560 C   0  0  2  0  0  3  0  0  0  0  0  0
  189.5610  177.4440  144.5150 C   0  0  0  0  0  2  0  0  0  0  0  0
  188.0950  177.4060  144.1190 C   0  0  0  0  0  2  0  0  0  0  0  0
  184.8820  178.1940  145.3200 C   0  0  0  0  0  2  0  0  0  0  0  0
  186.6800  176.7240  145.8630 C   0  0  0  0  0  2  0  0  0  0  0  0
  187.2740  177.8870  145.2190 N   0  0  0  0  0  0  0  0  0  0  0  0
  185.2880  177.1140  146.2900 C   0  0  0  0  0  2  0  0  0  0  0  0
  186.1620  178.6220  144.6290 C   0  0  0  0  0  2  0  0  0  0  0  0
  1 26  1  6  0  0  0
  3  7  1  6  0  0  0
  3 19  1  0  0  0  0
  4 18  1  0  0  0  0
  4 23  2  0  0  0  0
  5 11  1  1  0  0  0
  5 15  1  0  0  0  0
  6 19  1  0  0  0  0
  8 12  1  0  0  0  0
 10 22  1  0  0  0  0
 10 17  1  0  0  0  0
 12 15  1  0  0  0  0
 13  9  1  0  0  0  0
 14  2  1  0  0  0  0
 15  4  1  0  0  0  0
 16  3  1  0  0  0  0
 16  8  1  0  0  0  0
 18  1  1  0  0  0  0
 19  5  1  0  0  0  0
 20 11  1  0  0  0  0
 20 13  1  0  0  0  0
 20 18  1  0  0  0  0
 23 21  1  0  0  0  0
 24 22  1  0  0  0  0
 24 13  1  0  0  0  0
 25 17  1  0  0  0  0
 25 14  1  0  0  0  0
 25  9  1  0  0  0  0
 26 21  1  0  0  0  0
 27  9  1  0  0  0  0
 27  2  1  0  0  0  0
 27  1  1  0  0  0  0
 28 17  1  0  0  0  0
 29 28  1  0  0  0  0
 29 32  1  0  0  0  0
 30 33  1  0  0  0  0
 31 33  1  0  0  0  0
 32 31  1  0  0  0  0
 34 32  1  0  0  0  0
 34 30  1  0  0  0  0
M  END
>  <MODEL>
8

>  <REMARK>
 VINA RESULT:      -7.9      4.247      9.793
  Name = 
  3 active torsions:
  status: ('A' for Active; 'I' for Inactive)
    1  A    between atoms: C_17  and  C_28
    2  A    between atoms: C_28  and  C_29
    3  A    between atoms: C_29  and  N_32
                            x       y       z     vdW  Elec       q    Type
                         _______ _______ _______ _____ _____    ______ ____

>  <TORSDO>
F 3

$$$$
=
 OpenBabel11112418033D

 34 40  0  0  1  0  0  0  0  0999 V2000
  192.1900  174.5000  141.1110 C   0  0  1  0  0  3  0  0  0  0  0  0
  189.7040  173.9050  141.3710 C   0  0  0  0  0  2  0  0  0  0  0  0
  196.9350  173.9270  145.2570 C   0  0  1  0  0  3  0  0  0  0  0  0
  194.7550  174.6130  141.5850 C   0  0  0  0  0  0  0  0  0  0  0  0
  195.5040  175.4520  143.8940 C   0  0  2  0  0  3  0  0  0  0  0  0
  194.7740  174.6530  146.0480 O   0  0  0  0  0  1  0  0  0  0  0  0
  197.1160  173.7900  146.6360 O   0  0  0  0  0  1  0  0  0  0  0  0
  196.9070  172.4920  142.8140 S   0  0  0  0  0  0  0  0  0  0  0  0
  190.6710  175.5560  142.7680 C   0  0  2  0  0  3  0  0  0  0  0  0
  189.0750  176.7840  145.3340 C   0  0  0  0  0  2  0  0  0  0  0  0
  194.2510  176.2190  143.9080 N   0  0  0  0  0  2  0  0  0  0  0  0
  197.2000  174.2350  142.3550 C   0  0  0  0  0  2  0  0  0  0  0  0
  191.8160  176.0850  143.6580 C   0  0  2  0  0  3  0  0  0  0  0  0
  188.6100  174.4870  142.2700 C   0  0  0  0  0  2  0  0  0  0  0  0
  195.9160  175.0760  142.4490 C   0  0  1  0  0  3  0  0  0  0  0  0
  197.4120  172.6540  144.5640 C   0  0  0  0  0  2  0  0  0  0  0  0
  188.6300  176.5050  143.8970 C   0  0  1  0  0  3  0  0  0  0  0  0
  193.3800  175.2050  141.8490 C   0  0  2  0  0  3  0  0  0  0  0  0
  195.4870  174.2870  144.9010 C   0  0  2  0  0  3  0  0  0  0  0  0
  193.1630  175.4070  143.3640 C   0  0  1  0  0  3  0  0  0  0  0  0
  193.8460  173.4120  139.6100 C   0  0  0  0  0  2  0  0  0  0  0  0
  190.5250  177.2430  145.4420 C   0  0  0  0  0  2  0  0  0  0  0  0
  194.9650  173.8170  140.5210 C   0  0  0  0  0  3  0  0  0  0  0  0
  191.4960  176.1080  145.1470 C   0  0  0  0  0  2  0  0  0  0  0  0
  189.3310  175.2370  143.3940 C   0  0  2  0  0  3  0  0  0  0  0  0
  192.5900  173.1880  140.4340 C   0  0  0  0  0  2  0  0  0  0  0  0
  191.0080  174.2780  142.0490 C   0  0  2  0  0  3  0  0  0  0  0  0
  187.1140  176.3530  143.8940 C   0  0  0  0  0  2  0  0  0  0  0  0
  186.4540  177.6670  143.5100 C   0  0  0  0  0  2  0  0  0  0  0  0
  185.3860  177.5470  146.8610 C   0  0  0  0  0  2  0  0  0  0  0  0
  185.9190  179.1880  145.2140 C   0  0  0  0  0  2  0  0  0  0  0  0
  185.4420  178.0170  144.4930 N   0  0  0  0  0  0  0  0  0  0  0  0
  185.4840  179.0360  146.6500 C   0  0  0  0  0  2  0  0  0  0  0  0
  185.4110  176.9370  145.4730 C   0  0  0  0  0  2  0  0  0  0  0  0
  1 26  1  1  0  0  0
  1 18  1  0  0  0  0
  1 27  1  0  0  0  0
  2 27  1  0  0  0  0
  2 14  1  0  0  0  0
  3  7  1  1  0  0  0
  4 18  1  0  0  0  0
  4 15  1  0  0  0  0
  5 11  1  6  0  0  0
  5 19  1  0  0  0  0
  8 16  1  0  0  0  0
  9 25  1  0  0  0  0
  9 13  1  0  0  0  0
 10 22  1  0  0  0  0
 12 15  1  0  0  0  0
 12  8  1  0  0  0  0
 13 24  1  0  0  0  0
 14 25  1  0  0  0  0
 15  5  1  0  0  0  0
 16  3  1  0  0  0  0
 17 10  1  0  0  0  0
 18 20  1  0  0  0  0
 19  3  1  0  0  0  0
 19  6  1  0  0  0  0
 20 13  1  0  0  0  0
 20 11  1  0  0  0  0
 21 26  1  0  0  0  0
 21 23  1  0  0  0  0
 23  4  2  0  0  0  0
 24 22  1  0  0  0  0
 25 17  1  0  0  0  0
 27  9  1  0  0  0  0
 28 17  1  0  0  0  0
 29 28  1  0  0  0  0
 29 32  1  0  0  0  0
 31 33  1  0  0  0  0
 32 31  1  0  0  0  0
 32 34  1  0  0  0  0
 33 30  1  0  0  0  0
 34 30  1  0  0  0  0
M  END
>  <MODEL>
9

>  <REMARK>
 VINA RESULT:      -7.9      4.295      9.575
  Name = 
  3 active torsions:
  status: ('A' for Active; 'I' for Inactive)
    1  A    between atoms: C_17  and  C_28
    2  A    between atoms: C_28  and  C_29
    3  A    between atoms: C_29  and  N_32
                            x       y       z     vdW  Elec       q    Type
                         _______ _______ _______ _____ _____    ______ ____

>  <TORSDO>
F 3

$$$$
