=
 OpenBabel11112417403D

 28 32  0  0  1  0  0  0  0  0999 V2000
  186.6960  178.2700  144.3590 C   0  0  0  0  0  0  0  0  0  0  0  0
  189.6510  177.5110  147.3130 O   0  0  0  0  0  0  0  0  0  0  0  0
  187.3550  173.7110  141.6440 O   0  0  0  0  0  0  0  0  0  0  0  0
  185.6580  176.8430  146.5390 C   0  0  0  0  0  3  0  0  0  0  0  0
  189.4630  174.3760  142.4480 N   0  0  0  0  0  0  0  0  0  0  0  0
  187.1730  179.0180  143.1500 C   0  0  0  0  0  2  0  0  0  0  0  0
  189.9350  175.1090  147.7570 O   0  0  0  0  0  0  0  0  0  0  0  0
  190.2410  176.2280  146.8010 S   0  0  0  0  0  0  0  0  0  0  0  0
  192.5470  176.4480  145.3600 C   0  0  0  0  0  0  0  0  0  0  0  0
  189.5830  175.8160  145.1960 C   0  0  2  0  0  3  0  0  0  0  0  0
  185.2640  177.3960  140.4720 O   0  0  0  0  0  0  0  0  0  0  0  0
  189.0140  176.5600  143.0000 C   0  0  1  0  0  3  0  0  0  0  0  0
  191.9280  176.0380  144.2930 N   0  0  0  0  0  0  0  0  0  0  0  0
  191.9440  176.3990  146.6480 N   0  0  0  0  0  2  0  0  0  0  0  0
  186.2670  177.6310  141.1940 C   0  0  0  0  0  0  0  0  0  0  0  0
  187.4720  177.2490  144.9590 C   0  0  0  0  0  0  0  0  0  0  0  0
  188.1150  174.5990  142.1130 C   0  0  0  0  0  0  0  0  0  0  0  0
  193.9030  177.0400  145.2240 C   0  0  0  0  0  1  0  0  0  0  0  0
  187.4520  176.7210  141.0870 C   0  0  0  0  0  2  0  0  0  0  0  0
  186.9280  176.5410  146.0450 C   0  0  0  0  0  3  0  0  0  0  0  0
  185.4260  178.5710  144.8700 C   0  0  0  0  0  3  0  0  0  0  0  0
  184.9100  177.8630  145.9550 C   0  0  0  0  0  3  0  0  0  0  0  0
  186.2600  178.7900  142.0360 N   0  0  0  0  0  2  0  0  0  0  0  0
  190.0980  175.5530  142.8710 N   0  0  1  0  0  0  0  0  0  0  0  0
  187.7190  175.9840  142.3880 C   0  0  2  0  0  3  0  0  0  0  0  0
  190.6410  175.3330  144.2120 C   0  0  2  0  0  3  0  0  0  0  0  0
  190.2010  173.1850  142.0550 C   0  0  0  0  0  1  0  0  0  0  0  0
  188.8870  176.9500  144.4780 C   0  0  1  0  0  3  0  0  0  0  0  0
  1 21  2  0  0  0  0
  1 16  1  0  0  0  0
  3 17  2  0  0  0  0
  5 24  1  0  0  0  0
  6  1  1  0  0  0  0
  8  2  2  0  0  0  0
  8  7  2  0  0  0  0
  9 14  1  0  0  0  0
 10  8  1  1  0  0  0
 11 15  2  0  0  0  0
 12 28  1  0  0  0  0
 13  9  2  0  0  0  0
 14  8  1  0  0  0  0
 15 23  1  0  0  0  0
 16 20  2  0  0  0  0
 17 25  1  0  0  0  0
 17  5  1  0  0  0  0
 18  9  1  0  0  0  0
 19 15  1  0  0  0  0
 19 25  1  0  0  0  0
 20  4  1  0  0  0  0
 21 22  1  0  0  0  0
 22  4  2  0  0  0  0
 23  6  1  0  0  0  0
 24 12  1  0  0  0  0
 24 26  1  0  0  0  0
 25 12  1  0  0  0  0
 26 13  1  0  0  0  0
 26 10  1  0  0  0  0
 27  5  1  0  0  0  0
 28 16  1  0  0  0  0
 28 10  1  0  0  0  0
M  END
>  <MODEL>
1

>  <REMARK>
 VINA RESULT:      -8.8      0.000      0.000
  Name = 
  0 active torsions:
  status: ('A' for Active; 'I' for Inactive)
                            x       y       z     vdW  Elec       q    Type
                         _______ _______ _______ _____ _____    ______ ____

>  <TORSDO>
F 0

$$$$
=
 OpenBabel11112417403D

 28 32  0  0  1  0  0  0  0  0999 V2000
  189.0970  176.6440  145.2960 C   0  0  0  0  0  0  0  0  0  0  0  0
  193.0840  175.5980  146.3140 O   0  0  0  0  0  0  0  0  0  0  0  0
  188.5180  173.0930  141.3400 O   0  0  0  0  0  0  0  0  0  0  0  0
  189.1890  174.5640  147.1750 C   0  0  0  0  0  3  0  0  0  0  0  0
  190.7500  173.8350  141.3160 N   0  0  0  0  0  0  0  0  0  0  0  0
  188.9580  177.7420  144.2830 C   0  0  0  0  0  2  0  0  0  0  0  0
  193.5780  173.2330  145.8540 O   0  0  0  0  0  0  0  0  0  0  0  0
  193.3970  174.5930  145.2410 S   0  0  0  0  0  0  0  0  0  0  0  0
  194.7900  175.5200  143.0850 C   0  0  0  0  0  0  0  0  0  0  0  0
  192.0870  174.5160  144.0350 C   0  0  2  0  0  3  0  0  0  0  0  0
  186.0650  176.6010  142.3410 O   0  0  0  0  0  0  0  0  0  0  0  0
  190.5680  175.7090  142.6300 C   0  0  1  0  0  3  0  0  0  0  0  0
  193.7590  175.3120  142.3220 N   0  0  0  0  0  0  0  0  0  0  0  0
  194.8400  175.0500  144.4280 N   0  0  0  0  0  2  0  0  0  0  0  0
  187.2830  176.7880  142.5940 C   0  0  0  0  0  0  0  0  0  0  0  0
  190.0770  175.6310  145.1690 C   0  0  0  0  0  0  0  0  0  0  0  0
  189.3950  173.9320  141.6780 C   0  0  0  0  0  0  0  0  0  0  0  0
  195.9250  176.3230  142.5620 C   0  0  0  0  0  1  0  0  0  0  0  0
  188.3030  176.1240  141.7220 C   0  0  0  0  0  2  0  0  0  0  0  0
  190.0990  174.5930  146.1170 C   0  0  0  0  0  3  0  0  0  0  0  0
  188.1940  176.6100  146.3680 C   0  0  0  0  0  3  0  0  0  0  0  0
  188.2400  175.5770  147.3030 C   0  0  0  0  0  3  0  0  0  0  0  0
  187.6420  177.6760  143.6590 N   0  0  0  0  0  2  0  0  0  0  0  0
  191.4900  174.9430  141.7530 N   0  0  1  0  0  0  0  0  0  0  0  0
  189.1460  175.1250  142.4950 C   0  0  2  0  0  3  0  0  0  0  0  0
  192.5880  174.4680  142.5960 C   0  0  2  0  0  3  0  0  0  0  0  0
  191.2480  172.9100  140.3090 C   0  0  0  0  0  1  0  0  0  0  0  0
  191.1220  175.6810  144.0610 C   0  0  1  0  0  3  0  0  0  0  0  0
  1 21  1  0  0  0  0
  3 17  2  0  0  0  0
  4 22  1  0  0  0  0
  5 17  1  0  0  0  0
  5 24  1  0  0  0  0
  6  1  1  0  0  0  0
  8  7  2  0  0  0  0
  8  2  2  0  0  0  0
  9 14  1  0  0  0  0
 10 28  1  0  0  0  0
 10  8  1  1  0  0  0
 11 15  2  0  0  0  0
 12 28  1  0  0  0  0
 13 26  1  0  0  0  0
 13  9  2  0  0  0  0
 14  8  1  0  0  0  0
 15 23  1  0  0  0  0
 16  1  2  0  0  0  0
 16 20  1  0  0  0  0
 17 25  1  0  0  0  0
 18  9  1  0  0  0  0
 19 25  1  0  0  0  0
 19 15  1  0  0  0  0
 20  4  2  0  0  0  0
 21 22  2  0  0  0  0
 23  6  1  0  0  0  0
 24 26  1  0  0  0  0
 24 12  1  0  0  0  0
 25 12  1  0  0  0  0
 26 10  1  0  0  0  0
 27  5  1  0  0  0  0
 28 16  1  0  0  0  0
M  END
>  <MODEL>
2

>  <REMARK>
 VINA RESULT:      -7.9      2.364      2.966
  Name = 
  0 active torsions:
  status: ('A' for Active; 'I' for Inactive)
                            x       y       z     vdW  Elec       q    Type
                         _______ _______ _______ _____ _____    ______ ____

>  <TORSDO>
F 0

$$$$
=
 OpenBabel11112417403D

 28 32  0  0  1  0  0  0  0  0999 V2000
  188.7930  175.5170  145.6540 C   0  0  0  0  0  0  0  0  0  0  0  0
  187.9360  173.3990  142.0750 O   0  0  0  0  0  0  0  0  0  0  0  0
  193.8620  176.7270  144.4550 O   0  0  0  0  0  0  0  0  0  0  0  0
  187.8860  177.2200  143.6190 C   0  0  0  0  0  3  0  0  0  0  0  0
  193.4020  174.6000  143.5600 N   0  0  0  0  0  0  0  0  0  0  0  0
  189.2990  174.6800  146.7910 C   0  0  0  0  0  2  0  0  0  0  0  0
  189.2470  174.2210  140.1640 O   0  0  0  0  0  0  0  0  0  0  0  0
  189.2870  173.3930  141.4170 S   0  0  0  0  0  0  0  0  0  0  0  0
  190.7760  171.1290  141.7330 C   0  0  0  0  0  0  0  0  0  0  0  0
  190.5320  174.0530  142.5090 C   0  0  2  0  0  3  0  0  0  0  0  0
  191.7720  176.9170  148.3170 O   0  0  0  0  0  0  0  0  0  0  0  0
  191.4770  174.0890  144.7020 C   0  0  1  0  0  3  0  0  0  0  0  0
  191.6440  171.7900  142.4380 N   0  0  0  0  0  0  0  0  0  0  0  0
  189.7290  171.7800  141.0230 N   0  0  0  0  0  2  0  0  0  0  0  0
  191.3630  175.9630  147.6050 C   0  0  0  0  0  0  0  0  0  0  0  0
  189.2260  175.3070  144.3230 C   0  0  0  0  0  0  0  0  0  0  0  0
  193.1480  175.6900  144.4120 C   0  0  0  0  0  0  0  0  0  0  0  0
  190.8420  169.6450  141.7140 C   0  0  0  0  0  1  0  0  0  0  0  0
  192.3370  175.2900  146.6880 C   0  0  0  0  0  2  0  0  0  0  0  0
  188.7650  176.1780  143.3200 C   0  0  0  0  0  3  0  0  0  0  0  0
  187.9030  176.5600  145.9410 C   0  0  0  0  0  3  0  0  0  0  0  0
  187.4500  177.4070  144.9290 C   0  0  0  0  0  3  0  0  0  0  0  0
  190.0080  175.5220  147.7480 N   0  0  0  0  0  2  0  0  0  0  0  0
  192.5030  173.5460  143.7750 N   0  0  1  0  0  0  0  0  0  0  0  0
  191.9510  175.4600  145.2290 C   0  0  2  0  0  3  0  0  0  0  0  0
  191.8250  173.2470  142.5130 C   0  0  2  0  0  3  0  0  0  0  0  0
  194.6470  174.4300  142.8250 C   0  0  0  0  0  1  0  0  0  0  0  0
  190.1310  174.1340  143.9650 C   0  0  1  0  0  3  0  0  0  0  0  0
  1 21  1  0  0  0  0
  1  6  1  0  0  0  0
  4 22  1  0  0  0  0
  5 24  1  0  0  0  0
  5 17  1  0  0  0  0
  6 23  1  0  0  0  0
  7  8  2  0  0  0  0
  8  2  2  0  0  0  0
  9 13  2  0  0  0  0
 10  8  1  6  0  0  0
 10 26  1  0  0  0  0
 10 28  1  0  0  0  0
 12 25  1  0  0  0  0
 13 26  1  0  0  0  0
 14  8  1  0  0  0  0
 14  9  1  0  0  0  0
 15 23  1  0  0  0  0
 15 11  2  0  0  0  0
 16  1  2  0  0  0  0
 17  3  2  0  0  0  0
 17 25  1  0  0  0  0
 18  9  1  0  0  0  0
 19 15  1  0  0  0  0
 20  4  2  0  0  0  0
 20 16  1  0  0  0  0
 22 21  2  0  0  0  0
 24 12  1  0  0  0  0
 25 19  1  0  0  0  0
 26 24  1  0  0  0  0
 27  5  1  0  0  0  0
 28 16  1  0  0  0  0
 28 12  1  0  0  0  0
M  END
>  <MODEL>
3

>  <REMARK>
 VINA RESULT:      -7.6      2.814      5.812
  Name = 
  0 active torsions:
  status: ('A' for Active; 'I' for Inactive)
                            x       y       z     vdW  Elec       q    Type
                         _______ _______ _______ _____ _____    ______ ____

>  <TORSDO>
F 0

$$$$
=
 OpenBabel11112417403D

 28 32  0  0  1  0  0  0  0  0999 V2000
  189.9610  177.4970  144.7670 C   0  0  0  0  0  0  0  0  0  0  0  0
  194.1480  177.5160  145.4730 O   0  0  0  0  0  0  0  0  0  0  0  0
  189.6250  172.4010  143.1850 O   0  0  0  0  0  0  0  0  0  0  0  0
  190.5900  176.6660  147.3710 C   0  0  0  0  0  3  0  0  0  0  0  0
  191.6830  173.2510  142.4280 N   0  0  0  0  0  0  0  0  0  0  0  0
  189.5380  177.9160  143.3900 C   0  0  0  0  0  2  0  0  0  0  0  0
  194.9950  175.3050  146.1380 O   0  0  0  0  0  0  0  0  0  0  0  0
  194.5240  176.1450  144.9840 S   0  0  0  0  0  0  0  0  0  0  0  0
  195.5230  175.9970  142.4490 C   0  0  0  0  0  0  0  0  0  0  0  0
  193.1370  175.3390  144.2070 C   0  0  2  0  0  3  0  0  0  0  0  0
  186.7120  175.6650  142.7630 O   0  0  0  0  0  0  0  0  0  0  0  0
  191.3080  175.5020  142.6810 C   0  0  1  0  0  3  0  0  0  0  0  0
  194.4750  175.3300  142.0680 N   0  0  0  0  0  0  0  0  0  0  0  0
  195.7820  176.2750  143.8200 N   0  0  0  0  0  2  0  0  0  0  0  0
  187.8980  176.0770  142.6840 C   0  0  0  0  0  0  0  0  0  0  0  0
  191.0840  176.6620  144.9820 C   0  0  0  0  0  0  0  0  0  0  0  0
  190.3720  173.3790  142.9200 C   0  0  0  0  0  0  0  0  0  0  0  0
  196.4470  176.5380  141.4200 C   0  0  0  0  0  1  0  0  0  0  0  0
  188.9290  175.1720  142.0830 C   0  0  0  0  0  2  0  0  0  0  0  0
  191.3760  176.2520  146.2950 C   0  0  0  0  0  3  0  0  0  0  0  0
  189.1850  177.9160  145.8570 C   0  0  0  0  0  3  0  0  0  0  0  0
  189.4980  177.5040  147.1520 C   0  0  0  0  0  3  0  0  0  0  0  0
  188.2000  177.4120  143.1090 N   0  0  0  0  0  2  0  0  0  0  0  0
  192.2590  174.4970  142.1420 N   0  0  1  0  0  0  0  0  0  0  0  0
  190.0010  174.7890  143.0880 C   0  0  2  0  0  3  0  0  0  0  0  0
  193.4980  174.6250  142.9100 C   0  0  2  0  0  3  0  0  0  0  0  0
  192.2330  172.0010  141.9260 C   0  0  0  0  0  1  0  0  0  0  0  0
  191.9940  176.2540  143.8290 C   0  0  1  0  0  3  0  0  0  0  0  0
  1 16  2  0  0  0  0
  1 21  1  0  0  0  0
  5 17  1  0  0  0  0
  6  1  1  0  0  0  0
  8  2  2  0  0  0  0
  8  7  2  0  0  0  0
  9 14  1  0  0  0  0
 10  8  1  6  0  0  0
 12 25  1  0  0  0  0
 12 28  1  0  0  0  0
 13  9  2  0  0  0  0
 13 26  1  0  0  0  0
 14  8  1  0  0  0  0
 15 11  2  0  0  0  0
 15 23  1  0  0  0  0
 16 20  1  0  0  0  0
 17 25  1  0  0  0  0
 17  3  2  0  0  0  0
 18  9  1  0  0  0  0
 19 15  1  0  0  0  0
 19 25  1  0  0  0  0
 20  4  2  0  0  0  0
 21 22  2  0  0  0  0
 22  4  1  0  0  0  0
 23  6  1  0  0  0  0
 24  5  1  0  0  0  0
 24 12  1  0  0  0  0
 24 26  1  0  0  0  0
 26 10  1  0  0  0  0
 27  5  1  0  0  0  0
 28 10  1  0  0  0  0
 28 16  1  0  0  0  0
M  END
>  <MODEL>
4

>  <REMARK>
 VINA RESULT:      -7.5      2.930      3.658
  Name = 
  0 active torsions:
  status: ('A' for Active; 'I' for Inactive)
                            x       y       z     vdW  Elec       q    Type
                         _______ _______ _______ _____ _____    ______ ____

>  <TORSDO>
F 0

$$$$
=
 OpenBabel11112417403D

 28 32  0  0  1  0  0  0  0  0999 V2000
  194.8410  175.8620  144.2540 C   0  0  0  0  0  0  0  0  0  0  0  0
  191.5020  178.4210  143.6800 O   0  0  0  0  0  0  0  0  0  0  0  0
  192.2230  171.2580  143.5250 O   0  0  0  0  0  0  0  0  0  0  0  0
  194.4760  176.5190  141.5530 C   0  0  0  0  0  3  0  0  0  0  0  0
  190.7580  172.7520  144.5990 N   0  0  0  0  0  0  0  0  0  0  0  0
  195.1000  175.4500  145.6730 C   0  0  0  0  0  2  0  0  0  0  0  0
  189.8340  177.4550  142.1530 O   0  0  0  0  0  0  0  0  0  0  0  0
  190.3930  177.4160  143.5480 S   0  0  0  0  0  0  0  0  0  0  0  0
  188.9220  176.9340  145.7950 C   0  0  0  0  0  0  0  0  0  0  0  0
  190.9790  175.7680  143.8920 C   0  0  2  0  0  3  0  0  0  0  0  0
  196.2010  171.9780  145.2500 O   0  0  0  0  0  0  0  0  0  0  0  0
  192.2540  174.3380  145.3180 C   0  0  1  0  0  3  0  0  0  0  0  0
  189.3820  175.7200  145.8430 N   0  0  0  0  0  0  0  0  0  0  0  0
  189.1470  177.7810  144.6740 N   0  0  0  0  0  2  0  0  0  0  0  0
  195.3960  172.9090  145.5120 C   0  0  0  0  0  0  0  0  0  0  0  0
  193.5320  175.9240  143.7220 C   0  0  0  0  0  0  0  0  0  0  0  0
  192.0280  172.3100  144.1890 C   0  0  0  0  0  0  0  0  0  0  0  0
  188.1910  177.4760  146.9690 C   0  0  0  0  0  1  0  0  0  0  0  0
  193.9480  172.5720  145.6870 C   0  0  0  0  0  2  0  0  0  0  0  0
  193.3720  176.2470  142.3630 C   0  0  0  0  0  3  0  0  0  0  0  0
  195.9420  176.1480  143.4340 C   0  0  0  0  0  3  0  0  0  0  0  0
  195.7600  176.4760  142.0910 C   0  0  0  0  0  3  0  0  0  0  0  0
  195.9060  174.2350  145.6960 N   0  0  0  0  0  2  0  0  0  0  0  0
  190.8360  173.9050  145.3930 N   0  0  1  0  0  0  0  0  0  0  0  0
  193.0810  173.2320  144.6290 C   0  0  2  0  0  3  0  0  0  0  0  0
  190.0320  174.9570  144.7680 C   0  0  2  0  0  3  0  0  0  0  0  0
  189.5610  171.9280  144.5320 C   0  0  0  0  0  1  0  0  0  0  0  0
  192.3110  175.6970  144.6050 C   0  0  1  0  0  3  0  0  0  0  0  0
  1  6  1  0  0  0  0
  3 17  2  0  0  0  0
  4 22  2  0  0  0  0
  4 20  1  0  0  0  0
  5 24  1  0  0  0  0
  6 23  1  0  0  0  0
  7  8  2  0  0  0  0
  8  2  2  0  0  0  0
  8 14  1  0  0  0  0
  9 13  2  0  0  0  0
  9 18  1  0  0  0  0
 10  8  1  1  0  0  0
 10 28  1  0  0  0  0
 10 26  1  0  0  0  0
 11 15  2  0  0  0  0
 12 24  1  0  0  0  0
 14  9  1  0  0  0  0
 15 19  1  0  0  0  0
 15 23  1  0  0  0  0
 16  1  1  0  0  0  0
 16 28  1  0  0  0  0
 17  5  1  0  0  0  0
 17 25  1  0  0  0  0
 20 16  2  0  0  0  0
 21  1  2  0  0  0  0
 22 21  1  0  0  0  0
 25 12  1  0  0  0  0
 25 19  1  0  0  0  0
 26 24  1  0  0  0  0
 26 13  1  0  0  0  0
 27  5  1  0  0  0  0
 28 12  1  0  0  0  0
M  END
>  <MODEL>
5

>  <REMARK>
 VINA RESULT:      -7.2      3.402      7.102
  Name = 
  0 active torsions:
  status: ('A' for Active; 'I' for Inactive)
                            x       y       z     vdW  Elec       q    Type
                         _______ _______ _______ _____ _____    ______ ____

>  <TORSDO>
F 0

$$$$
=
 OpenBabel11112417403D

 28 32  0  0  1  0  0  0  0  0999 V2000
  186.7930  176.8310  143.5830 C   0  0  0  0  0  0  0  0  0  0  0  0
  189.9270  174.8140  141.5480 O   0  0  0  0  0  0  0  0  0  0  0  0
  189.6950  178.3880  147.7950 O   0  0  0  0  0  0  0  0  0  0  0  0
  188.2460  178.5590  141.9190 C   0  0  0  0  0  3  0  0  0  0  0  0
  190.4840  176.2770  147.1230 N   0  0  0  0  0  0  0  0  0  0  0  0
  185.9730  175.9800  144.5060 C   0  0  0  0  0  2  0  0  0  0  0  0
  192.1330  175.7910  142.0240 O   0  0  0  0  0  0  0  0  0  0  0  0
  191.0340  174.9160  142.5590 S   0  0  0  0  0  0  0  0  0  0  0  0
  191.4240  172.7340  144.1490 C   0  0  0  0  0  0  0  0  0  0  0  0
  190.4390  175.6040  144.0920 C   0  0  2  0  0  3  0  0  0  0  0  0
  185.3310  178.2950  147.2770 O   0  0  0  0  0  0  0  0  0  0  0  0
  188.7480  175.6050  145.7790 C   0  0  1  0  0  3  0  0  0  0  0  0
  191.0490  173.4150  145.1890 N   0  0  0  0  0  0  0  0  0  0  0  0
  191.6590  173.3490  142.8880 N   0  0  0  0  0  2  0  0  0  0  0  0
  185.8990  177.3490  146.6720 C   0  0  0  0  0  0  0  0  0  0  0  0
  188.2000  176.7020  143.5000 C   0  0  0  0  0  0  0  0  0  0  0  0
  189.5350  177.3130  147.1580 C   0  0  0  0  0  0  0  0  0  0  0  0
  191.5550  171.2580  144.2630 C   0  0  0  0  0  1  0  0  0  0  0  0
  187.1490  176.7730  147.2630 C   0  0  0  0  0  2  0  0  0  0  0  0
  188.9090  177.5840  142.6660 C   0  0  0  0  0  3  0  0  0  0  0  0
  186.1370  177.8070  142.8200 C   0  0  0  0  0  3  0  0  0  0  0  0
  186.8590  178.6660  141.9920 C   0  0  0  0  0  3  0  0  0  0  0  0
  185.2950  176.8220  145.4840 N   0  0  0  0  0  2  0  0  0  0  0  0
  190.0170  175.1630  146.4100 N   0  0  1  0  0  0  0  0  0  0  0  0
  188.3510  176.9800  146.3590 C   0  0  2  0  0  3  0  0  0  0  0  0
  190.9580  174.8760  145.3260 C   0  0  2  0  0  3  0  0  0  0  0  0
  191.6340  176.2110  148.0130 C   0  0  0  0  0  1  0  0  0  0  0  0
  188.9350  175.6010  144.2550 C   0  0  1  0  0  3  0  0  0  0  0  0
  1  6  1  0  0  0  0
  2  8  2  0  0  0  0
  4 22  2  0  0  0  0
  4 20  1  0  0  0  0
  5 17  1  0  0  0  0
  5 27  1  0  0  0  0
  6 23  1  0  0  0  0
  7  8  2  0  0  0  0
  8 14  1  0  0  0  0
  9 18  1  0  0  0  0
  9 13  2  0  0  0  0
 10  8  1  6  0  0  0
 10 28  1  0  0  0  0
 10 26  1  0  0  0  0
 12 25  1  0  0  0  0
 12 24  1  0  0  0  0
 13 26  1  0  0  0  0
 14  9  1  0  0  0  0
 15 19  1  0  0  0  0
 15 11  2  0  0  0  0
 16  1  1  0  0  0  0
 16 28  1  0  0  0  0
 17  3  2  0  0  0  0
 20 16  2  0  0  0  0
 21  1  2  0  0  0  0
 22 21  1  0  0  0  0
 23 15  1  0  0  0  0
 24  5  1  0  0  0  0
 25 17  1  0  0  0  0
 25 19  1  0  0  0  0
 26 24  1  0  0  0  0
 28 12  1  0  0  0  0
M  END
>  <MODEL>
6

>  <REMARK>
 VINA RESULT:      -7.0      2.457      4.736
  Name = 
  0 active torsions:
  status: ('A' for Active; 'I' for Inactive)
                            x       y       z     vdW  Elec       q    Type
                         _______ _______ _______ _____ _____    ______ ____

>  <TORSDO>
F 0

$$$$
=
 OpenBabel11112417403D

 28 32  0  0  1  0  0  0  0  0999 V2000
  191.8930  175.0610  144.6320 C   0  0  0  0  0  0  0  0  0  0  0  0
  189.8610  174.1000  141.0300 O   0  0  0  0  0  0  0  0  0  0  0  0
  187.5280  175.6830  147.6560 O   0  0  0  0  0  0  0  0  0  0  0  0
  191.3770  172.3130  144.4200 C   0  0  0  0  0  3  0  0  0  0  0  0
  187.0150  176.4490  145.4930 N   0  0  0  0  0  0  0  0  0  0  0  0
  192.1960  176.5170  144.8310 C   0  0  0  0  0  2  0  0  0  0  0  0
  187.7100  172.9800  141.4390 O   0  0  0  0  0  0  0  0  0  0  0  0
  188.4310  174.2980  141.4490 S   0  0  0  0  0  0  0  0  0  0  0  0
  187.2980  176.6910  140.7870 C   0  0  0  0  0  0  0  0  0  0  0  0
  188.3350  175.0000  143.0840 C   0  0  2  0  0  3  0  0  0  0  0  0
  191.6800  176.8960  148.4420 O   0  0  0  0  0  0  0  0  0  0  0  0
  189.1310  176.6460  144.6210 C   0  0  1  0  0  3  0  0  0  0  0  0
  187.2170  177.0080  142.0440 N   0  0  0  0  0  0  0  0  0  0  0  0
  187.6580  175.3810  140.3610 N   0  0  0  0  0  2  0  0  0  0  0  0
  191.3870  176.9730  147.2200 C   0  0  0  0  0  0  0  0  0  0  0  0
  190.6560  174.6210  144.1050 C   0  0  0  0  0  0  0  0  0  0  0  0
  187.9010  176.0760  146.5190 C   0  0  0  0  0  0  0  0  0  0  0  0
  187.0670  177.7410  139.7610 C   0  0  0  0  0  1  0  0  0  0  0  0
  189.9820  177.3250  146.8440 C   0  0  0  0  0  2  0  0  0  0  0  0
  190.4150  173.2390  144.0150 C   0  0  0  0  0  3  0  0  0  0  0  0
  192.8560  174.1220  145.0250 C   0  0  0  0  0  3  0  0  0  0  0  0
  192.6010  172.7550  144.9190 C   0  0  0  0  0  3  0  0  0  0  0  0
  192.4220  176.7860  146.2460 N   0  0  0  0  0  2  0  0  0  0  0  0
  187.6950  176.9240  144.3620 N   0  0  1  0  0  0  0  0  0  0  0  0
  189.2980  176.1990  146.0890 C   0  0  2  0  0  3  0  0  0  0  0  0
  187.3030  176.1150  143.2080 C   0  0  2  0  0  3  0  0  0  0  0  0
  185.5920  176.6730  145.7020 C   0  0  0  0  0  1  0  0  0  0  0  0
  189.6190  175.6160  143.5940 C   0  0  1  0  0  3  0  0  0  0  0  0
  1  6  1  0  0  0  0
  1 21  1  0  0  0  0
  2  8  2  0  0  0  0
  4 22  1  0  0  0  0
  5 27  1  0  0  0  0
  5 17  1  0  0  0  0
  6 23  1  0  0  0  0
  7  8  2  0  0  0  0
  9 13  2  0  0  0  0
 10  8  1  6  0  0  0
 10 26  1  0  0  0  0
 10 28  1  0  0  0  0
 12 25  1  0  0  0  0
 13 26  1  0  0  0  0
 14  9  1  0  0  0  0
 14  8  1  0  0  0  0
 15 11  2  0  0  0  0
 16  1  2  0  0  0  0
 17  3  2  0  0  0  0
 18  9  1  0  0  0  0
 19 15  1  0  0  0  0
 20 16  1  0  0  0  0
 20  4  2  0  0  0  0
 22 21  2  0  0  0  0
 23 15  1  0  0  0  0
 24 12  1  0  0  0  0
 24  5  1  0  0  0  0
 25 17  1  0  0  0  0
 25 19  1  0  0  0  0
 26 24  1  0  0  0  0
 28 16  1  0  0  0  0
 28 12  1  0  0  0  0
M  END
>  <MODEL>
7

>  <REMARK>
 VINA RESULT:      -6.9      2.285      6.357
  Name = 
  0 active torsions:
  status: ('A' for Active; 'I' for Inactive)
                            x       y       z     vdW  Elec       q    Type
                         _______ _______ _______ _____ _____    ______ ____

>  <TORSDO>
F 0

$$$$
=
 OpenBabel11112417403D

 28 32  0  0  1  0  0  0  0  0999 V2000
  193.2660  174.5080  142.9840 C   0  0  0  0  0  0  0  0  0  0  0  0
  189.9410  173.9080  140.4130 O   0  0  0  0  0  0  0  0  0  0  0  0
  190.4690  174.9410  147.5200 O   0  0  0  0  0  0  0  0  0  0  0  0
  192.5660  171.7990  142.7890 C   0  0  0  0  0  3  0  0  0  0  0  0
  189.1920  175.9060  145.7970 N   0  0  0  0  0  0  0  0  0  0  0  0
  193.6980  175.9340  143.1550 C   0  0  0  0  0  2  0  0  0  0  0  0
  188.0650  172.7970  141.5520 O   0  0  0  0  0  0  0  0  0  0  0  0
  188.8010  174.0960  141.3740 S   0  0  0  0  0  0  0  0  0  0  0  0
  187.6250  176.5580  141.3910 C   0  0  0  0  0  0  0  0  0  0  0  0
  189.3880  174.6520  142.9630 C   0  0  2  0  0  3  0  0  0  0  0  0
  194.6540  176.0010  146.6950 O   0  0  0  0  0  0  0  0  0  0  0  0
  190.8060  176.1390  144.1800 C   0  0  1  0  0  3  0  0  0  0  0  0
  188.0590  176.7640  142.5990 N   0  0  0  0  0  0  0  0  0  0  0  0
  187.7220  175.2850  140.7630 N   0  0  0  0  0  2  0  0  0  0  0  0
  193.9120  176.1920  145.6960 C   0  0  0  0  0  0  0  0  0  0  0  0
  191.9000  174.1400  142.9560 C   0  0  0  0  0  0  0  0  0  0  0  0
  190.3870  175.4260  146.3600 C   0  0  0  0  0  0  0  0  0  0  0  0
  187.0670  177.6990  140.6210 C   0  0  0  0  0  1  0  0  0  0  0  0
  192.4920  176.6020  145.9310 C   0  0  0  0  0  2  0  0  0  0  0  0
  191.5720  172.7760  142.8660 C   0  0  0  0  0  3  0  0  0  0  0  0
  194.2560  173.5190  142.8960 C   0  0  0  0  0  3  0  0  0  0  0  0
  193.9080  172.1720  142.7970 C   0  0  0  0  0  3  0  0  0  0  0  0
  194.4720  176.0720  144.3830 N   0  0  0  0  0  2  0  0  0  0  0  0
  189.4000  176.4660  144.5280 N   0  0  1  0  0  0  0  0  0  0  0  0
  191.5100  175.5600  145.4260 C   0  0  2  0  0  3  0  0  0  0  0  0
  188.5460  175.7700  143.5650 C   0  0  2  0  0  3  0  0  0  0  0  0
  187.9780  176.1360  146.5650 C   0  0  0  0  0  1  0  0  0  0  0  0
  190.8000  175.1950  142.9700 C   0  0  1  0  0  3  0  0  0  0  0  0
  1  6  1  0  0  0  0
  2  8  2  0  0  0  0
  4 22  2  0  0  0  0
  4 20  1  0  0  0  0
  5 17  1  0  0  0  0
  5 27  1  0  0  0  0
  6 23  1  0  0  0  0
  8  7  2  0  0  0  0
  9 13  2  0  0  0  0
 10  8  1  6  0  0  0
 10 28  1  0  0  0  0
 10 26  1  0  0  0  0
 12 24  1  0  0  0  0
 12 25  1  0  0  0  0
 13 26  1  0  0  0  0
 14  8  1  0  0  0  0
 14  9  1  0  0  0  0
 15 19  1  0  0  0  0
 15 11  2  0  0  0  0
 16 28  1  0  0  0  0
 16  1  1  0  0  0  0
 17  3  2  0  0  0  0
 18  9  1  0  0  0  0
 20 16  2  0  0  0  0
 21  1  2  0  0  0  0
 22 21  1  0  0  0  0
 23 15  1  0  0  0  0
 24  5  1  0  0  0  0
 25 19  1  0  0  0  0
 25 17  1  0  0  0  0
 26 24  1  0  0  0  0
 28 12  1  0  0  0  0
M  END
>  <MODEL>
8

>  <REMARK>
 VINA RESULT:      -6.8      2.549      6.923
  Name = 
  0 active torsions:
  status: ('A' for Active; 'I' for Inactive)
                            x       y       z     vdW  Elec       q    Type
                         _______ _______ _______ _____ _____    ______ ____

>  <TORSDO>
F 0

$$$$
=
 OpenBabel11112417403D

 28 32  0  0  1  0  0  0  0  0999 V2000
  195.5910  174.3180  144.3210 C   0  0  0  0  0  0  0  0  0  0  0  0
  193.8620  170.8190  142.6480 O   0  0  0  0  0  0  0  0  0  0  0  0
  191.6470  175.3630  147.7760 O   0  0  0  0  0  0  0  0  0  0  0  0
  196.2740  172.0150  145.7690 C   0  0  0  0  0  3  0  0  0  0  0  0
  190.6760  174.4560  145.8350 N   0  0  0  0  0  0  0  0  0  0  0  0
  195.2630  175.5990  143.6130 C   0  0  0  0  0  2  0  0  0  0  0  0
  192.4320  169.6230  144.2520 O   0  0  0  0  0  0  0  0  0  0  0  0
  192.5240  170.8080  143.3320 S   0  0  0  0  0  0  0  0  0  0  0  0
  190.4320  171.8370  141.9150 C   0  0  0  0  0  0  0  0  0  0  0  0
  192.2780  172.2980  144.2800 C   0  0  2  0  0  3  0  0  0  0  0  0
  194.9410  177.9380  146.4190 O   0  0  0  0  0  0  0  0  0  0  0  0
  192.4270  174.6800  144.3650 C   0  0  1  0  0  3  0  0  0  0  0  0
  190.3300  172.8160  142.7630 N   0  0  0  0  0  0  0  0  0  0  0  0
  191.2760  170.7160  142.1550 N   0  0  0  0  0  2  0  0  0  0  0  0
  194.5420  177.1630  145.5120 C   0  0  0  0  0  0  0  0  0  0  0  0
  194.6170  173.3140  144.5360 C   0  0  0  0  0  0  0  0  0  0  0  0
  191.7200  175.0650  146.5540 C   0  0  0  0  0  0  0  0  0  0  0  0
  189.6910  171.9160  140.6290 C   0  0  0  0  0  1  0  0  0  0  0  0
  193.0930  176.7850  145.4820 C   0  0  0  0  0  2  0  0  0  0  0  0
  194.9790  172.1710  145.2710 C   0  0  0  0  0  3  0  0  0  0  0  0
  196.8910  174.1450  144.8160 C   0  0  0  0  0  3  0  0  0  0  0  0
  197.2310  173.0000  145.5350 C   0  0  0  0  0  3  0  0  0  0  0  0
  195.4720  176.7280  144.5120 N   0  0  0  0  0  2  0  0  0  0  0  0
  190.9930  174.3110  144.4760 N   0  0  1  0  0  0  0  0  0  0  0  0
  192.8910  175.2970  145.7020 C   0  0  2  0  0  3  0  0  0  0  0  0
  190.8850  172.8950  144.1210 C   0  0  2  0  0  3  0  0  0  0  0  0
  189.3160  174.3370  146.3390 C   0  0  0  0  0  1  0  0  0  0  0  0
  193.2180  173.4340  143.9430 C   0  0  1  0  0  3  0  0  0  0  0  0
  1 16  2  0  0  0  0
  1 21  1  0  0  0  0
  2  8  2  0  0  0  0
  5 27  1  0  0  0  0
  5 17  1  0  0  0  0
  6  1  1  0  0  0  0
  6 23  1  0  0  0  0
  8  7  2  0  0  0  0
  9 14  1  0  0  0  0
  9 13  2  0  0  0  0
 10  8  1  6  0  0  0
 12 24  1  0  0  0  0
 12 25  1  0  0  0  0
 13 26  1  0  0  0  0
 14  8  1  0  0  0  0
 15 11  2  0  0  0  0
 16 20  1  0  0  0  0
 17  3  2  0  0  0  0
 18  9  1  0  0  0  0
 19 15  1  0  0  0  0
 19 25  1  0  0  0  0
 20  4  2  0  0  0  0
 21 22  2  0  0  0  0
 22  4  1  0  0  0  0
 23 15  1  0  0  0  0
 24  5  1  0  0  0  0
 25 17  1  0  0  0  0
 26 10  1  0  0  0  0
 26 24  1  0  0  0  0
 28 10  1  0  0  0  0
 28 12  1  0  0  0  0
 28 16  1  0  0  0  0
M  END
>  <MODEL>
9

>  <REMARK>
 VINA RESULT:      -6.7      4.588      7.890
  Name = 
  0 active torsions:
  status: ('A' for Active; 'I' for Inactive)
                            x       y       z     vdW  Elec       q    Type
                         _______ _______ _______ _____ _____    ______ ____

>  <TORSDO>
F 0

$$$$
