=
 OpenBabel11112417383D

 28 32  0  0  1  0  0  0  0  0999 V2000
  191.9530  174.6430  142.2870 C   0  0  0  0  0  0  0  0  0  0  0  0
  188.5090  178.2510  141.7750 O   0  0  0  0  0  0  0  0  0  0  0  0
  191.6130  175.8730  147.7770 O   0  0  0  0  0  0  0  0  0  0  0  0
  190.5990  172.2310  142.7400 C   0  0  0  0  0  3  0  0  0  0  0  0
  189.3640  175.8730  146.8340 C   0  0  1  0  0  3  0  0  0  0  0  0
  192.7400  175.9070  142.1200 C   0  0  0  0  0  2  0  0  0  0  0  0
  187.7060  176.2630  140.5750 O   0  0  0  0  0  0  0  0  0  0  0  0
  187.7410  176.9650  141.9020 S   0  0  0  0  0  0  0  0  0  0  0  0
  186.4520  178.1450  144.0270 C   0  0  0  0  0  0  0  0  0  0  0  0
  188.4600  175.8950  143.1330 C   0  0  2  0  0  3  0  0  0  0  0  0
  194.0370  174.8080  145.1080 O   0  0  0  0  0  0  0  0  0  0  0  0
  190.1860  176.3790  144.6700 C   0  0  1  0  0  3  0  0  0  0  0  0
  187.4250  177.4750  144.9590 C   0  0  0  0  0  2  0  0  0  0  0  0
  185.8020  177.3310  142.5670 S   0  0  0  0  0  0  0  0  0  0  0  0
  193.5810  175.7550  144.4890 C   0  0  0  0  0  0  0  0  0  0  0  0
  190.6650  174.6640  142.8620 C   0  0  0  0  0  0  0  0  0  0  0  0
  190.8660  175.9070  146.7630 C   0  0  0  0  0  0  0  0  0  0  0  0
  186.1540  179.3100  144.2310 O   0  0  0  0  0  0  0  0  0  0  0  0
  192.6550  176.7080  145.1700 C   0  0  0  0  0  2  0  0  0  0  0  0
  190.0050  173.4440  143.0970 C   0  0  0  0  0  3  0  0  0  0  0  0
  192.5380  173.4220  141.9260 C   0  0  0  0  0  3  0  0  0  0  0  0
  191.8620  172.2210  142.1480 C   0  0  0  0  0  3  0  0  0  0  0  0
  193.9530  175.9460  143.0490 C   0  0  0  0  0  2  0  0  0  0  0  0
  189.0840  175.6630  145.3640 C   0  0  2  0  0  3  0  0  0  0  0  0
  191.3740  176.0670  145.4330 N   0  0  0  0  0  0  0  0  0  0  0  0
  187.8620  176.0470  144.5680 C   0  0  2  0  0  3  0  0  0  0  0  0
  188.8920  174.6600  147.6150 C   0  0  0  0  0  1  0  0  0  0  0  0
  190.0060  175.9820  143.2200 C   0  0  1  0  0  3  0  0  0  0  0  0
  1 16  1  0  0  0  0
  2  8  2  0  0  0  0
  4 20  1  0  0  0  0
  5 27  1  1  0  0  0
  6  1  1  0  0  0  0
  6 23  1  0  0  0  0
  7  8  2  0  0  0  0
  8 14  1  0  0  0  0
  9 18  2  0  0  0  0
  9 13  1  0  0  0  0
 10  8  1  6  0  0  0
 10 28  1  0  0  0  0
 10 26  1  0  0  0  0
 12 24  1  0  0  0  0
 12 25  1  1  0  0  0
 14  9  1  0  0  0  0
 15 11  2  0  0  0  0
 15 19  1  0  0  0  0
 16 20  2  0  0  0  0
 16 28  1  0  0  0  0
 17  5  1  0  0  0  0
 17  3  2  0  0  0  0
 19 25  1  0  0  0  0
 21 22  1  0  0  0  0
 21  1  2  0  0  0  0
 22  4  2  0  0  0  0
 23 15  1  0  0  0  0
 24  5  1  0  0  0  0
 25 17  1  0  0  0  0
 26 13  1  0  0  0  0
 26 24  1  0  0  0  0
 28 12  1  0  0  0  0
M  END
>  <MODEL>
1

>  <REMARK>
 VINA RESULT:      -8.0      0.000      0.000
  Name = 
  0 active torsions:
  status: ('A' for Active; 'I' for Inactive)
                            x       y       z     vdW  Elec       q    Type
                         _______ _______ _______ _____ _____    ______ ____

>  <TORSDO>
F 0

$$$$
=
 OpenBabel11112417383D

 28 32  0  0  1  0  0  0  0  0999 V2000
  189.4190  176.7060  145.4780 C   0  0  0  0  0  0  0  0  0  0  0  0
  194.3370  176.9340  144.5330 O   0  0  0  0  0  0  0  0  0  0  0  0
  189.3450  172.9940  141.2370 O   0  0  0  0  0  0  0  0  0  0  0  0
  188.9990  174.6260  147.3100 C   0  0  0  0  0  3  0  0  0  0  0  0
  191.3040  172.5600  142.6240 C   0  0  1  0  0  3  0  0  0  0  0  0
  189.5640  177.7820  144.4470 C   0  0  0  0  0  2  0  0  0  0  0  0
  194.0470  176.5460  146.9430 O   0  0  0  0  0  0  0  0  0  0  0  0
  194.1720  175.8860  145.6000 S   0  0  0  0  0  0  0  0  0  0  0  0
  195.4680  174.1750  143.8790 C   0  0  0  0  0  0  0  0  0  0  0  0
  192.7440  174.8650  145.2940 C   0  0  2  0  0  3  0  0  0  0  0  0
  187.3240  175.7330  142.8340 O   0  0  0  0  0  0  0  0  0  0  0  0
  191.3660  174.8050  143.3780 C   0  0  1  0  0  3  0  0  0  0  0  0
  194.1290  173.6790  143.4020 C   0  0  0  0  0  2  0  0  0  0  0  0
  195.7900  174.5750  145.5970 S   0  0  0  0  0  0  0  0  0  0  0  0
  188.3550  176.3790  142.7410 C   0  0  0  0  0  0  0  0  0  0  0  0
  190.3380  175.6370  145.5440 C   0  0  0  0  0  0  0  0  0  0  0  0
  190.1510  173.3850  142.1240 C   0  0  0  0  0  0  0  0  0  0  0  0
  196.3410  174.3860  143.0540 O   0  0  0  0  0  0  0  0  0  0  0  0
  189.5100  175.8240  141.9740 C   0  0  0  0  0  2  0  0  0  0  0  0
  190.1050  174.5940  146.4580 C   0  0  0  0  0  3  0  0  0  0  0  0
  188.3160  176.7330  146.3430 C   0  0  0  0  0  3  0  0  0  0  0  0
  188.1090  175.6990  147.2580 C   0  0  0  0  0  3  0  0  0  0  0  0
  188.4490  177.7210  143.4030 C   0  0  0  0  0  2  0  0  0  0  0  0
  191.6860  173.4190  143.8070 C   0  0  2  0  0  3  0  0  0  0  0  0
  190.0980  174.7000  142.6900 N   0  0  0  0  0  0  0  0  0  0  0  0
  193.0290  173.5630  144.4780 C   0  0  2  0  0  3  0  0  0  0  0  0
  190.8210  171.2090  143.1180 C   0  0  0  0  0  1  0  0  0  0  0  0
  191.5560  175.6180  144.6410 C   0  0  1  0  0  3  0  0  0  0  0  0
  1 16  2  0  0  0  0
  1 21  1  0  0  0  0
  2  8  2  0  0  0  0
  3 17  2  0  0  0  0
  5 27  1  1  0  0  0
  5 24  1  0  0  0  0
  6  1  1  0  0  0  0
  8  7  2  0  0  0  0
  9 14  1  0  0  0  0
 10  8  1  6  0  0  0
 12 25  1  1  0  0  0
 12 24  1  0  0  0  0
 12 28  1  0  0  0  0
 13  9  1  0  0  0  0
 13 26  1  0  0  0  0
 14  8  1  0  0  0  0
 15 11  2  0  0  0  0
 15 23  1  0  0  0  0
 16 20  1  0  0  0  0
 17  5  1  0  0  0  0
 17 25  1  0  0  0  0
 18  9  2  0  0  0  0
 19 25  1  0  0  0  0
 19 15  1  0  0  0  0
 20  4  2  0  0  0  0
 21 22  2  0  0  0  0
 22  4  1  0  0  0  0
 23  6  1  0  0  0  0
 24 26  1  0  0  0  0
 26 10  1  0  0  0  0
 28 10  1  0  0  0  0
 28 16  1  0  0  0  0
M  END
>  <MODEL>
2

>  <REMARK>
 VINA RESULT:      -7.6      2.904      6.429
  Name = 
  0 active torsions:
  status: ('A' for Active; 'I' for Inactive)
                            x       y       z     vdW  Elec       q    Type
                         _______ _______ _______ _____ _____    ______ ____

>  <TORSDO>
F 0

$$$$
=
 OpenBabel11112417383D

 28 32  0  0  1  0  0  0  0  0999 V2000
  191.2790  175.3400  144.8110 C   0  0  0  0  0  0  0  0  0  0  0  0
  187.0680  176.1850  147.3980 O   0  0  0  0  0  0  0  0  0  0  0  0
  187.8180  174.9820  140.3770 O   0  0  0  0  0  0  0  0  0  0  0  0
  192.2190  177.8120  143.8820 C   0  0  0  0  0  3  0  0  0  0  0  0
  187.1000  176.8420  141.7810 C   0  0  1  0  0  3  0  0  0  0  0  0
  190.7950  173.9810  145.2160 C   0  0  0  0  0  2  0  0  0  0  0  0
  188.6780  177.9510  147.9750 O   0  0  0  0  0  0  0  0  0  0  0  0
  187.5960  177.5410  147.0180 S   0  0  0  0  0  0  0  0  0  0  0  0
  185.1490  177.9710  145.8360 C   0  0  0  0  0  0  0  0  0  0  0  0
  188.2280  177.5500  145.3510 C   0  0  2  0  0  3  0  0  0  0  0  0
  190.9810  173.5400  141.8110 O   0  0  0  0  0  0  0  0  0  0  0  0
  188.0640  175.8600  143.7110 C   0  0  1  0  0  3  0  0  0  0  0  0
  185.7370  177.5440  144.5180 C   0  0  0  0  0  2  0  0  0  0  0  0
  186.0650  178.9520  147.0250 S   0  0  0  0  0  0  0  0  0  0  0  0
  190.3080  173.3870  142.8170 C   0  0  0  0  0  0  0  0  0  0  0  0
  190.3720  176.4030  144.6170 C   0  0  0  0  0  0  0  0  0  0  0  0
  187.8560  175.5750  141.4880 C   0  0  0  0  0  0  0  0  0  0  0  0
  184.0370  177.5710  146.1380 O   0  0  0  0  0  0  0  0  0  0  0  0
  188.8360  173.6300  142.7680 C   0  0  0  0  0  2  0  0  0  0  0  0
  190.8570  177.6320  144.1360 C   0  0  0  0  0  3  0  0  0  0  0  0
  192.6440  175.5320  144.5610 C   0  0  0  0  0  3  0  0  0  0  0  0
  193.1130  176.7640  144.1020 C   0  0  0  0  0  3  0  0  0  0  0  0
  190.9710  172.9590  144.0920 C   0  0  0  0  0  2  0  0  0  0  0  0
  187.7530  177.1790  143.1030 C   0  0  2  0  0  3  0  0  0  0  0  0
  188.5640  175.0530  142.6190 N   0  0  0  0  0  0  0  0  0  0  0  0
  187.1960  177.9730  144.2580 C   0  0  2  0  0  3  0  0  0  0  0  0
  187.4390  177.9160  140.7650 C   0  0  0  0  0  1  0  0  0  0  0  0
  188.8980  176.2180  144.9230 C   0  0  1  0  0  3  0  0  0  0  0  0
  1  6  1  0  0  0  0
  3 17  2  0  0  0  0
  4 22  2  0  0  0  0
  4 20  1  0  0  0  0
  5 27  1  6  0  0  0
  5 24  1  0  0  0  0
  8 14  1  0  0  0  0
  8  2  2  0  0  0  0
  8  7  2  0  0  0  0
  9 18  2  0  0  0  0
  9 14  1  0  0  0  0
 10  8  1  1  0  0  0
 11 15  2  0  0  0  0
 12 25  1  6  0  0  0
 12 28  1  0  0  0  0
 13  9  1  0  0  0  0
 15 23  1  0  0  0  0
 16  1  1  0  0  0  0
 16 28  1  0  0  0  0
 17  5  1  0  0  0  0
 17 25  1  0  0  0  0
 19 15  1  0  0  0  0
 20 16  2  0  0  0  0
 21  1  2  0  0  0  0
 22 21  1  0  0  0  0
 23  6  1  0  0  0  0
 24 12  1  0  0  0  0
 24 26  1  0  0  0  0
 25 19  1  0  0  0  0
 26 13  1  0  0  0  0
 26 10  1  0  0  0  0
 28 10  1  0  0  0  0
M  END
>  <MODEL>
3

>  <REMARK>
 VINA RESULT:      -7.3      2.519      4.717
  Name = 
  0 active torsions:
  status: ('A' for Active; 'I' for Inactive)
                            x       y       z     vdW  Elec       q    Type
                         _______ _______ _______ _____ _____    ______ ____

>  <TORSDO>
F 0

$$$$
=
 OpenBabel11112417383D

 28 32  0  0  1  0  0  0  0  0999 V2000
  189.0370  175.6060  145.5050 C   0  0  0  0  0  0  0  0  0  0  0  0
  189.6550  171.3790  142.8810 O   0  0  0  0  0  0  0  0  0  0  0  0
  194.6150  176.1400  144.8940 O   0  0  0  0  0  0  0  0  0  0  0  0
  188.6330  177.6920  143.6780 C   0  0  0  0  0  3  0  0  0  0  0  0
  193.6670  175.3640  142.7850 C   0  0  1  0  0  3  0  0  0  0  0  0
  189.3160  174.5510  146.5320 C   0  0  0  0  0  2  0  0  0  0  0  0
  187.8460  172.6660  141.8270 O   0  0  0  0  0  0  0  0  0  0  0  0
  189.3310  172.4450  141.8720 S   0  0  0  0  0  0  0  0  0  0  0  0
  191.6920  171.7560  140.6390 C   0  0  0  0  0  0  0  0  0  0  0  0
  190.1580  173.9770  142.2540 C   0  0  2  0  0  3  0  0  0  0  0  0
  191.8070  176.7910  147.3090 O   0  0  0  0  0  0  0  0  0  0  0  0
  191.8130  174.3840  143.8880 C   0  0  1  0  0  3  0  0  0  0  0  0
  192.3750  172.8780  141.3740 C   0  0  0  0  0  2  0  0  0  0  0  0
  190.0290  171.9070  139.9850 S   0  0  0  0  0  0  0  0  0  0  0  0
  191.5240  175.6220  147.1020 C   0  0  0  0  0  0  0  0  0  0  0  0
  189.5530  175.4970  144.1970 C   0  0  0  0  0  0  0  0  0  0  0  0
  193.6490  175.6280  144.2650 C   0  0  0  0  0  0  0  0  0  0  0  0
  192.2610  170.6810  140.5530 O   0  0  0  0  0  0  0  0  0  0  0  0
  192.4570  174.7620  146.3160 C   0  0  0  0  0  2  0  0  0  0  0  0
  189.3550  176.5590  143.2960 C   0  0  0  0  0  3  0  0  0  0  0  0
  188.3080  176.7440  145.8760 C   0  0  0  0  0  3  0  0  0  0  0  0
  188.1040  177.7810  144.9650 C   0  0  0  0  0  3  0  0  0  0  0  0
  190.2380  175.0680  147.6380 C   0  0  0  0  0  2  0  0  0  0  0  0
  192.2020  175.0330  142.6090 C   0  0  2  0  0  3  0  0  0  0  0  0
  192.4600  175.1670  144.9170 N   0  0  0  0  0  0  0  0  0  0  0  0
  191.5470  174.1660  141.5640 C   0  0  2  0  0  3  0  0  0  0  0  0
  193.9900  176.6330  142.0180 C   0  0  0  0  0  1  0  0  0  0  0  0
  190.3090  174.2520  143.7730 C   0  0  1  0  0  3  0  0  0  0  0  0
  1 21  1  0  0  0  0
  1  6  1  0  0  0  0
  4 22  1  0  0  0  0
  5 27  1  6  0  0  0
  5 17  1  0  0  0  0
  6 23  1  0  0  0  0
  7  8  2  0  0  0  0
  8  2  2  0  0  0  0
  9 13  1  0  0  0  0
 10  8  1  1  0  0  0
 10 28  1  0  0  0  0
 12 25  1  1  0  0  0
 13 26  1  0  0  0  0
 14  9  1  0  0  0  0
 14  8  1  0  0  0  0
 15 11  2  0  0  0  0
 15 23  1  0  0  0  0
 16  1  2  0  0  0  0
 17  3  2  0  0  0  0
 17 25  1  0  0  0  0
 18  9  2  0  0  0  0
 19 15  1  0  0  0  0
 20  4  2  0  0  0  0
 20 16  1  0  0  0  0
 22 21  2  0  0  0  0
 24  5  1  0  0  0  0
 24 12  1  0  0  0  0
 25 19  1  0  0  0  0
 26 10  1  0  0  0  0
 26 24  1  0  0  0  0
 28 12  1  0  0  0  0
 28 16  1  0  0  0  0
M  END
>  <MODEL>
4

>  <REMARK>
 VINA RESULT:      -7.3      2.576      5.545
  Name = 
  0 active torsions:
  status: ('A' for Active; 'I' for Inactive)
                            x       y       z     vdW  Elec       q    Type
                         _______ _______ _______ _____ _____    ______ ____

>  <TORSDO>
F 0

$$$$
=
 OpenBabel11112417383D

 28 32  0  0  1  0  0  0  0  0999 V2000
  187.0310  176.6890  143.4490 C   0  0  0  0  0  0  0  0  0  0  0  0
  188.6430  171.9670  142.9550 O   0  0  0  0  0  0  0  0  0  0  0  0
  190.7990  176.9460  147.6330 O   0  0  0  0  0  0  0  0  0  0  0  0
  188.6720  178.3190  141.8660 C   0  0  0  0  0  3  0  0  0  0  0  0
  191.7900  175.7370  145.7600 C   0  0  1  0  0  3  0  0  0  0  0  0
  186.1620  175.8860  144.3680 C   0  0  0  0  0  2  0  0  0  0  0  0
  188.7090  173.0240  140.7380 O   0  0  0  0  0  0  0  0  0  0  0  0
  189.4750  172.7860  142.0070 S   0  0  0  0  0  0  0  0  0  0  0  0
  191.6660  171.7850  143.3350 C   0  0  0  0  0  0  0  0  0  0  0  0
  189.9430  174.3460  142.7320 C   0  0  2  0  0  3  0  0  0  0  0  0
  187.4020  178.1860  146.6020 O   0  0  0  0  0  0  0  0  0  0  0  0
  189.6600  175.0720  144.9610 C   0  0  1  0  0  3  0  0  0  0  0  0
  191.6900  173.0270  144.1840 C   0  0  0  0  0  2  0  0  0  0  0  0
  191.2720  171.8220  141.5860 S   0  0  0  0  0  0  0  0  0  0  0  0
  187.1750  177.0080  146.3830 C   0  0  0  0  0  0  0  0  0  0  0  0
  188.3470  176.2760  143.1540 C   0  0  0  0  0  0  0  0  0  0  0  0
  190.6500  176.3280  146.5440 C   0  0  0  0  0  0  0  0  0  0  0  0
  191.8470  170.7050  143.8730 O   0  0  0  0  0  0  0  0  0  0  0  0
  188.1630  175.9720  146.8050 C   0  0  0  0  0  2  0  0  0  0  0  0
  189.1630  177.1130  142.3710 C   0  0  0  0  0  3  0  0  0  0  0  0
  186.5450  177.8970  142.9310 C   0  0  0  0  0  3  0  0  0  0  0  0
  187.3600  178.7070  142.1400 C   0  0  0  0  0  3  0  0  0  0  0  0
  185.9060  176.6170  145.6860 C   0  0  0  0  0  2  0  0  0  0  0  0
  191.0310  175.4080  144.4950 C   0  0  2  0  0  3  0  0  0  0  0  0
  189.3620  176.0520  145.9820 N   0  0  0  0  0  0  0  0  0  0  0  0
  191.3210  174.3430  143.4670 C   0  0  2  0  0  3  0  0  0  0  0  0
  192.8360  176.7940  145.4580 C   0  0  0  0  0  1  0  0  0  0  0  0
  188.8710  174.9520  143.6750 C   0  0  1  0  0  3  0  0  0  0  0  0
  1  6  1  0  0  0  0
  4 22  2  0  0  0  0
  4 20  1  0  0  0  0
  5 27  1  6  0  0  0
  5 17  1  0  0  0  0
  6 23  1  0  0  0  0
  7  8  2  0  0  0  0
  8  2  2  0  0  0  0
  9 18  2  0  0  0  0
  9 13  1  0  0  0  0
 10  8  1  1  0  0  0
 10 26  1  0  0  0  0
 10 28  1  0  0  0  0
 12 25  1  1  0  0  0
 14  8  1  0  0  0  0
 14  9  1  0  0  0  0
 15 11  2  0  0  0  0
 15 19  1  0  0  0  0
 16  1  1  0  0  0  0
 16 28  1  0  0  0  0
 17  3  2  0  0  0  0
 20 16  2  0  0  0  0
 21  1  2  0  0  0  0
 22 21  1  0  0  0  0
 23 15  1  0  0  0  0
 24 12  1  0  0  0  0
 24  5  1  0  0  0  0
 25 17  1  0  0  0  0
 25 19  1  0  0  0  0
 26 13  1  0  0  0  0
 26 24  1  0  0  0  0
 28 12  1  0  0  0  0
M  END
>  <MODEL>
5

>  <REMARK>
 VINA RESULT:      -7.2      2.507      5.596
  Name = 
  0 active torsions:
  status: ('A' for Active; 'I' for Inactive)
                            x       y       z     vdW  Elec       q    Type
                         _______ _______ _______ _____ _____    ______ ____

>  <TORSDO>
F 0

$$$$
=
 OpenBabel11112417383D

 28 32  0  0  1  0  0  0  0  0999 V2000
  194.9840  174.0450  144.1440 C   0  0  0  0  0  0  0  0  0  0  0  0
  191.9080  174.1550  140.1860 O   0  0  0  0  0  0  0  0  0  0  0  0
  190.8680  176.9110  146.7160 O   0  0  0  0  0  0  0  0  0  0  0  0
  194.3490  171.7700  145.6540 C   0  0  0  0  0  3  0  0  0  0  0  0
  189.8660  175.1430  145.3670 C   0  0  1  0  0  3  0  0  0  0  0  0
  195.3270  175.3130  143.4230 C   0  0  0  0  0  2  0  0  0  0  0  0
  192.6260  171.8290  140.5210 O   0  0  0  0  0  0  0  0  0  0  0  0
  191.6100  172.8670  140.9020 S   0  0  0  0  0  0  0  0  0  0  0  0
  189.0050  173.7400  141.0300 C   0  0  0  0  0  0  0  0  0  0  0  0
  191.6080  173.0900  142.6710 C   0  0  2  0  0  3  0  0  0  0  0  0
  194.6100  176.5890  146.5340 O   0  0  0  0  0  0  0  0  0  0  0  0
  191.7240  175.1050  143.8960 C   0  0  1  0  0  3  0  0  0  0  0  0
  189.2730  174.2670  142.4140 C   0  0  0  0  0  2  0  0  0  0  0  0
  189.6950  172.1950  140.4370 S   0  0  0  0  0  0  0  0  0  0  0  0
  194.4370  176.6950  145.3310 C   0  0  0  0  0  0  0  0  0  0  0  0
  193.6840  173.5030  144.0740 C   0  0  0  0  0  0  0  0  0  0  0  0
  190.9800  176.0600  145.7930 C   0  0  0  0  0  0  0  0  0  0  0  0
  188.3560  174.4270  140.2580 O   0  0  0  0  0  0  0  0  0  0  0  0
  193.0850  177.0480  144.8060 C   0  0  0  0  0  2  0  0  0  0  0  0
  193.3770  172.3700  144.8500 C   0  0  0  0  0  3  0  0  0  0  0  0
  195.9550  173.4320  144.9470 C   0  0  0  0  0  3  0  0  0  0  0  0
  195.6400  172.2970  145.6960 C   0  0  0  0  0  3  0  0  0  0  0  0
  195.5860  176.4640  144.3950 C   0  0  0  0  0  2  0  0  0  0  0  0
  190.6720  174.2280  144.4730 C   0  0  2  0  0  3  0  0  0  0  0  0
  192.1630  175.9360  144.9950 N   0  0  0  0  0  0  0  0  0  0  0  0
  190.2110  173.4120  143.2920 C   0  0  2  0  0  3  0  0  0  0  0  0
  189.3400  174.3540  146.5500 C   0  0  0  0  0  1  0  0  0  0  0  0
  192.6370  174.1340  143.1770 C   0  0  1  0  0  3  0  0  0  0  0  0
  1 21  1  0  0  0  0
  2  8  2  0  0  0  0
  4 22  1  0  0  0  0
  5 17  1  0  0  0  0
  5 27  1  1  0  0  0
  6  1  1  0  0  0  0
  6 23  1  0  0  0  0
  7  8  2  0  0  0  0
  9 13  1  0  0  0  0
 10  8  1  6  0  0  0
 10 28  1  0  0  0  0
 10 26  1  0  0  0  0
 12 24  1  0  0  0  0
 12 25  1  1  0  0  0
 13 26  1  0  0  0  0
 14  8  1  0  0  0  0
 14  9  1  0  0  0  0
 15 11  2  0  0  0  0
 16  1  2  0  0  0  0
 16 20  1  0  0  0  0
 17  3  2  0  0  0  0
 18  9  2  0  0  0  0
 19 25  1  0  0  0  0
 19 15  1  0  0  0  0
 20  4  2  0  0  0  0
 21 22  2  0  0  0  0
 23 15  1  0  0  0  0
 24  5  1  0  0  0  0
 25 17  1  0  0  0  0
 26 24  1  0  0  0  0
 28 12  1  0  0  0  0
 28 16  1  0  0  0  0
M  END
>  <MODEL>
6

>  <REMARK>
 VINA RESULT:      -7.0      2.823      3.996
  Name = 
  0 active torsions:
  status: ('A' for Active; 'I' for Inactive)
                            x       y       z     vdW  Elec       q    Type
                         _______ _______ _______ _____ _____    ______ ____

>  <TORSDO>
F 0

$$$$
=
 OpenBabel11112417383D

 28 32  0  0  1  0  0  0  0  0999 V2000
  189.7040  174.6690  144.7960 C   0  0  0  0  0  0  0  0  0  0  0  0
  192.7000  170.6520  144.6380 O   0  0  0  0  0  0  0  0  0  0  0  0
  194.1140  177.1660  147.2630 O   0  0  0  0  0  0  0  0  0  0  0  0
  190.1560  176.1610  142.4670 C   0  0  0  0  0  3  0  0  0  0  0  0
  194.9230  175.7940  145.4160 C   0  0  1  0  0  3  0  0  0  0  0  0
  189.4650  173.9570  146.0930 C   0  0  0  0  0  2  0  0  0  0  0  0
  191.7790  170.9970  142.3860 O   0  0  0  0  0  0  0  0  0  0  0  0
  192.8930  171.3600  143.3250 S   0  0  0  0  0  0  0  0  0  0  0  0
  195.5690  171.4380  143.9550 C   0  0  0  0  0  0  0  0  0  0  0  0
  192.9490  173.1280  143.5410 C   0  0  2  0  0  3  0  0  0  0  0  0
  190.3550  177.0550  147.2870 O   0  0  0  0  0  0  0  0  0  0  0  0
  193.0420  174.3590  145.5530 C   0  0  1  0  0  3  0  0  0  0  0  0
  195.3760  172.8280  144.4990 C   0  0  0  0  0  2  0  0  0  0  0  0
  194.7290  170.8560  142.4820 S   0  0  0  0  0  0  0  0  0  0  0  0
  190.5150  175.8500  147.3810 C   0  0  0  0  0  0  0  0  0  0  0  0
  190.9470  174.5730  144.1370 C   0  0  0  0  0  0  0  0  0  0  0  0
  193.9070  176.2430  146.4290 C   0  0  0  0  0  0  0  0  0  0  0  0
  196.2630  170.6550  144.5820 O   0  0  0  0  0  0  0  0  0  0  0  0
  191.8830  175.2990  147.6100 C   0  0  0  0  0  2  0  0  0  0  0  0
  191.1640  175.3400  142.9780 C   0  0  0  0  0  3  0  0  0  0  0  0
  188.6960  175.4900  144.2720 C   0  0  0  0  0  3  0  0  0  0  0  0
  188.9200  176.2300  143.1100 C   0  0  0  0  0  3  0  0  0  0  0  0
  189.3320  174.9360  147.2600 C   0  0  0  0  0  2  0  0  0  0  0  0
  194.0200  174.9140  144.5820 C   0  0  2  0  0  3  0  0  0  0  0  0
  192.7020  175.4680  146.4170 N   0  0  0  0  0  0  0  0  0  0  0  0
  194.3810  173.7230  143.7310 C   0  0  2  0  0  3  0  0  0  0  0  0
  195.3980  176.9660  144.5770 C   0  0  0  0  0  1  0  0  0  0  0  0
  192.0300  173.6570  144.6730 C   0  0  1  0  0  3  0  0  0  0  0  0
  1  6  1  0  0  0  0
  4 20  2  0  0  0  0
  4 22  1  0  0  0  0
  5 27  1  6  0  0  0
  5 17  1  0  0  0  0
  6 23  1  0  0  0  0
  7  8  2  0  0  0  0
  8  2  2  0  0  0  0
  9 13  1  0  0  0  0
  9 18  2  0  0  0  0
 10  8  1  1  0  0  0
 10 26  1  0  0  0  0
 10 28  1  0  0  0  0
 11 15  2  0  0  0  0
 12 25  1  6  0  0  0
 14  8  1  0  0  0  0
 14  9  1  0  0  0  0
 15 19  1  0  0  0  0
 16 28  1  0  0  0  0
 16  1  2  0  0  0  0
 17  3  2  0  0  0  0
 20 16  1  0  0  0  0
 21  1  1  0  0  0  0
 22 21  2  0  0  0  0
 23 15  1  0  0  0  0
 24  5  1  0  0  0  0
 24 12  1  0  0  0  0
 25 17  1  0  0  0  0
 25 19  1  0  0  0  0
 26 13  1  0  0  0  0
 26 24  1  0  0  0  0
 28 12  1  0  0  0  0
M  END
>  <MODEL>
7

>  <REMARK>
 VINA RESULT:      -6.8      3.452      6.393
  Name = 
  0 active torsions:
  status: ('A' for Active; 'I' for Inactive)
                            x       y       z     vdW  Elec       q    Type
                         _______ _______ _______ _____ _____    ______ ____

>  <TORSDO>
F 0

$$$$
=
 OpenBabel11112417383D

 28 32  0  0  1  0  0  0  0  0999 V2000
  190.8430  177.1630  144.9160 C   0  0  0  0  0  0  0  0  0  0  0  0
  195.0850  176.7370  142.2770 O   0  0  0  0  0  0  0  0  0  0  0  0
  189.3510  172.4430  142.2220 O   0  0  0  0  0  0  0  0  0  0  0  0
  191.1680  175.7100  147.2910 C   0  0  0  0  0  3  0  0  0  0  0  0
  191.6890  172.2560  142.8920 C   0  0  1  0  0  3  0  0  0  0  0  0
  190.5790  177.8990  143.6380 C   0  0  0  0  0  2  0  0  0  0  0  0
  195.6910  177.0530  144.6380 O   0  0  0  0  0  0  0  0  0  0  0  0
  195.3430  176.0410  143.5850 S   0  0  0  0  0  0  0  0  0  0  0  0
  195.9800  173.8250  142.0840 C   0  0  0  0  0  0  0  0  0  0  0  0
  193.9290  175.0890  144.1070 C   0  0  2  0  0  3  0  0  0  0  0  0
  187.9650  175.6660  143.5750 O   0  0  0  0  0  0  0  0  0  0  0  0
  191.9560  174.6110  142.9010 C   0  0  1  0  0  3  0  0  0  0  0  0
  194.5730  173.3230  142.2720 C   0  0  0  0  0  2  0  0  0  0  0  0
  196.8870  174.6570  143.3880 S   0  0  0  0  0  0  0  0  0  0  0  0
  188.8750  176.1780  142.9440 C   0  0  0  0  0  0  0  0  0  0  0  0
  191.7530  176.0860  144.9560 C   0  0  0  0  0  0  0  0  0  0  0  0
  190.4110  172.9990  142.6170 C   0  0  0  0  0  0  0  0  0  0  0  0
  196.4920  173.7310  140.9810 O   0  0  0  0  0  0  0  0  0  0  0  0
  189.6920  175.3450  142.0130 C   0  0  0  0  0  2  0  0  0  0  0  0
  191.8930  175.3580  146.1510 C   0  0  0  0  0  3  0  0  0  0  0  0
  190.1250  177.5150  146.0670 C   0  0  0  0  0  3  0  0  0  0  0  0
  190.2890  176.7930  147.2510 C   0  0  0  0  0  3  0  0  0  0  0  0
  189.1640  177.6390  143.1180 C   0  0  0  0  0  2  0  0  0  0  0  0
  192.4470  173.3770  143.5670 C   0  0  2  0  0  3  0  0  0  0  0  0
  190.5290  174.4200  142.7650 N   0  0  0  0  0  0  0  0  0  0  0  0
  193.9370  173.5950  143.6510 C   0  0  2  0  0  3  0  0  0  0  0  0
  191.4540  171.1370  143.8890 C   0  0  0  0  0  1  0  0  0  0  0  0
  192.5660  175.7240  143.7280 C   0  0  1  0  0  3  0  0  0  0  0  0
  1 16  2  0  0  0  0
  1 21  1  0  0  0  0
  2  8  2  0  0  0  0
  3 17  2  0  0  0  0
  5 24  1  0  0  0  0
  5 27  1  1  0  0  0
  6  1  1  0  0  0  0
  8  7  2  0  0  0  0
  9 13  1  0  0  0  0
  9 14  1  0  0  0  0
 10  8  1  6  0  0  0
 12 25  1  1  0  0  0
 12 24  1  0  0  0  0
 12 28  1  0  0  0  0
 13 26  1  0  0  0  0
 14  8  1  0  0  0  0
 15 23  1  0  0  0  0
 15 11  2  0  0  0  0
 16 20  1  0  0  0  0
 17 25  1  0  0  0  0
 17  5  1  0  0  0  0
 18  9  2  0  0  0  0
 19 25  1  0  0  0  0
 19 15  1  0  0  0  0
 20  4  2  0  0  0  0
 21 22  2  0  0  0  0
 22  4  1  0  0  0  0
 23  6  1  0  0  0  0
 24 26  1  0  0  0  0
 26 10  1  0  0  0  0
 28 10  1  0  0  0  0
 28 16  1  0  0  0  0
M  END
>  <MODEL>
8

>  <REMARK>
 VINA RESULT:      -6.6      3.198      6.550
  Name = 
  0 active torsions:
  status: ('A' for Active; 'I' for Inactive)
                            x       y       z     vdW  Elec       q    Type
                         _______ _______ _______ _____ _____    ______ ____

>  <TORSDO>
F 0

$$$$
=
 OpenBabel11112417383D

 28 32  0  0  1  0  0  0  0  0999 V2000
  191.3960  176.0430  145.3290 C   0  0  0  0  0  0  0  0  0  0  0  0
  191.5120  171.1570  144.2130 O   0  0  0  0  0  0  0  0  0  0  0  0
  196.3970  176.1830  142.7320 O   0  0  0  0  0  0  0  0  0  0  0  0
  190.2290  177.3850  143.1620 C   0  0  0  0  0  3  0  0  0  0  0  0
  194.8890  174.7560  141.4520 C   0  0  1  0  0  3  0  0  0  0  0  0
  192.0900  175.3980  146.4890 C   0  0  0  0  0  2  0  0  0  0  0  0
  189.3480  172.0520  143.4660 O   0  0  0  0  0  0  0  0  0  0  0  0
  190.7800  171.8200  143.0790 S   0  0  0  0  0  0  0  0  0  0  0  0
  192.6630  170.6860  141.4260 C   0  0  0  0  0  0  0  0  0  0  0  0
  191.5420  173.3670  142.6280 C   0  0  2  0  0  3  0  0  0  0  0  0
  194.4800  177.7000  145.5900 O   0  0  0  0  0  0  0  0  0  0  0  0
  193.5940  174.2650  143.3740 C   0  0  1  0  0  3  0  0  0  0  0  0
  193.4430  171.9720  141.4700 C   0  0  0  0  0  2  0  0  0  0  0  0
  190.8720  170.6470  141.3600 S   0  0  0  0  0  0  0  0  0  0  0  0
  194.2540  176.5400  145.8920 C   0  0  0  0  0  0  0  0  0  0  0  0
  191.4660  175.4770  144.0390 C   0  0  0  0  0  0  0  0  0  0  0  0
  195.3310  175.5130  142.6740 C   0  0  0  0  0  0  0  0  0  0  0  0
  193.2700  169.6310  141.5150 O   0  0  0  0  0  0  0  0  0  0  0  0
  194.9550  175.4360  145.1710 C   0  0  0  0  0  2  0  0  0  0  0  0
  190.8880  176.1700  142.9590 C   0  0  0  0  0  3  0  0  0  0  0  0
  190.7260  177.2590  145.5230 C   0  0  0  0  0  3  0  0  0  0  0  0
  190.1420  177.9250  144.4450 C   0  0  0  0  0  3  0  0  0  0  0  0
  193.2690  176.2380  146.9810 C   0  0  0  0  0  2  0  0  0  0  0  0
  193.4840  174.4240  141.9010 C   0  0  2  0  0  3  0  0  0  0  0  0
  194.4660  175.3360  143.8030 N   0  0  0  0  0  0  0  0  0  0  0  0
  192.6070  173.2690  141.4890 C   0  0  2  0  0  3  0  0  0  0  0  0
  194.8280  175.6750  140.2460 C   0  0  0  0  0  1  0  0  0  0  0  0
  192.1530  174.1430  143.8230 C   0  0  1  0  0  3  0  0  0  0  0  0
  1 21  1  0  0  0  0
  1  6  1  0  0  0  0
  4 22  1  0  0  0  0
  5 27  1  6  0  0  0
  5 24  1  0  0  0  0
  5 17  1  0  0  0  0
  6 23  1  0  0  0  0
  8  7  2  0  0  0  0
  8  2  2  0  0  0  0
  9 13  1  0  0  0  0
  9 18  2  0  0  0  0
 10  8  1  1  0  0  0
 10 28  1  0  0  0  0
 11 15  2  0  0  0  0
 12 25  1  1  0  0  0
 12 28  1  0  0  0  0
 13 26  1  0  0  0  0
 14  9  1  0  0  0  0
 14  8  1  0  0  0  0
 15 23  1  0  0  0  0
 16  1  2  0  0  0  0
 17  3  2  0  0  0  0
 17 25  1  0  0  0  0
 19 15  1  0  0  0  0
 20  4  2  0  0  0  0
 20 16  1  0  0  0  0
 22 21  2  0  0  0  0
 24 12  1  0  0  0  0
 25 19  1  0  0  0  0
 26 24  1  0  0  0  0
 26 10  1  0  0  0  0
 28 16  1  0  0  0  0
M  END
>  <MODEL>
9

>  <REMARK>
 VINA RESULT:      -6.6      3.526      6.193
  Name = 
  0 active torsions:
  status: ('A' for Active; 'I' for Inactive)
                            x       y       z     vdW  Elec       q    Type
                         _______ _______ _______ _____ _____    ______ ____

>  <TORSDO>
F 0

$$$$
