=
 OpenBabel11112416593D

 31 35  0  0  1  0  0  0  0  0999 V2000
  185.9030  178.4720  147.0010 C   0  0  0  0  0  0  0  0  0  0  0  0
  186.7940  177.2150  143.5520 C   0  0  0  0  0  0  0  0  0  0  0  0
  185.8920  177.5720  142.5340 C   0  0  0  0  0  0  0  0  0  0  0  0
  191.2760  175.8910  146.0710 O   0  0  0  0  0  0  0  0  0  0  0  0
  191.5470  176.2250  144.8850 C   0  0  0  0  0  0  0  0  0  0  0  0
  183.6720  178.2120  141.7820 C   0  0  0  0  0  0  0  0  0  0  0  0
  186.3810  177.1850  145.0020 C   0  0  2  0  0  3  0  0  0  0  0  0
  186.1190  177.3030  147.7330 O   0  0  0  0  0  0  0  0  0  0  0  0
  184.5470  177.8600  142.8130 C   0  0  0  0  0  3  0  0  0  0  0  0
  189.0860  176.5560  144.2660 C   0  0  0  0  0  0  0  0  0  0  0  0
  185.2450  179.4190  147.5020 O   0  0  0  0  0  0  0  0  0  0  0  0
  187.6840  177.3630  140.9130 C   0  0  0  0  0  3  0  0  0  0  0  0
  181.9970  178.5700  142.1420 Cl  0  0  0  0  0  0  0  0  0  0  0  0
  188.6560  176.2660  145.4600 N   0  0  0  0  0  0  0  0  0  0  0  0
  188.1300  176.9360  143.2100 C   0  0  0  0  0  0  0  0  0  0  0  0
  190.4890  176.5550  143.9710 N   0  0  0  0  0  2  0  0  0  0  0  0
  186.4310  178.5780  145.6140 C   0  0  0  0  0  2  0  0  0  0  0  0
  184.1310  178.2790  140.4630 C   0  0  0  0  0  3  0  0  0  0  0  0
  187.2370  176.1850  145.8120 C   0  0  1  0  0  3  0  0  0  0  0  0
  187.0880  176.3280  147.3380 C   0  0  0  0  0  2  0  0  0  0  0  0
  188.5370  177.0210  141.9140 N   0  0  0  0  0  0  0  0  0  0  0  0
  186.3480  177.6420  141.1980 C   0  0  0  0  0  0  0  0  0  0  0  0
  185.4680  177.9950  140.1710 C   0  0  0  0  0  3  0  0  0  0  0  0
  195.5910  176.3570  143.4500 C   0  0  0  0  0  0  0  0  0  0  0  0
  193.2300  176.0040  143.0740 C   0  0  0  0  0  3  0  0  0  0  0  0
  193.8150  176.8800  146.6310 O   0  0  0  0  0  1  0  0  0  0  0  0
  196.9850  176.3990  142.9350 C   0  0  0  0  0  1  0  0  0  0  0  0
  194.5390  176.0420  142.5900 C   0  0  0  0  0  3  0  0  0  0  0  0
  194.0260  176.5980  145.2860 C   0  0  0  0  0  0  0  0  0  0  0  0
  192.9520  176.2790  144.4230 C   0  0  0  0  0  0  0  0  0  0  0  0
  195.3350  176.6340  144.7930 C   0  0  0  0  0  3  0  0  0  0  0  0
  1 11  2  0  0  0  0
  1  8  1  0  0  0  0
  2  7  1  0  0  0  0
  3  9  1  0  0  0  0
  3  2  2  0  0  0  0
  5  4  2  0  0  0  0
  6 13  1  0  0  0  0
  6  9  2  0  0  0  0
  7 17  1  1  0  0  0
  7 19  1  0  0  0  0
 10 14  2  0  0  0  0
 12 22  2  0  0  0  0
 12 21  1  0  0  0  0
 14 19  1  0  0  0  0
 15  2  1  0  0  0  0
 15 10  1  0  0  0  0
 16 10  1  0  0  0  0
 16  5  1  0  0  0  0
 17  1  1  0  0  0  0
 18  6  1  0  0  0  0
 19 20  1  1  0  0  0
 20  8  1  0  0  0  0
 21 15  2  0  0  0  0
 22  3  1  0  0  0  0
 23 18  2  0  0  0  0
 23 22  1  0  0  0  0
 24 31  1  0  0  0  0
 25 30  2  0  0  0  0
 27 24  1  0  0  0  0
 28 25  1  0  0  0  0
 28 24  2  0  0  0  0
 29 26  1  0  0  0  0
 30  5  1  0  0  0  0
 30 29  1  0  0  0  0
 31 29  2  0  0  0  0
M  END
>  <MODEL>
1

>  <REMARK>
 VINA RESULT:      -9.4      0.000      0.000
  Name = 
  1 active torsions:
  status: ('A' for Active; 'I' for Inactive)
    1  A    between atoms: C_5  and  C_30
                            x       y       z     vdW  Elec       q    Type
                         _______ _______ _______ _____ _____    ______ ____

>  <TORSDO>
F 1

$$$$
=
 OpenBabel11112416593D

 31 35  0  0  1  0  0  0  0  0999 V2000
  185.8690  178.5060  146.9890 C   0  0  0  0  0  0  0  0  0  0  0  0
  186.7360  177.2380  143.5390 C   0  0  0  0  0  0  0  0  0  0  0  0
  185.8290  177.5950  142.5240 C   0  0  0  0  0  0  0  0  0  0  0  0
  191.2280  175.9070  146.0350 O   0  0  0  0  0  0  0  0  0  0  0  0
  191.4930  176.2370  144.8470 C   0  0  0  0  0  0  0  0  0  0  0  0
  183.6070  178.2410  141.7830 C   0  0  0  0  0  0  0  0  0  0  0  0
  186.3310  177.2130  144.9900 C   0  0  2  0  0  3  0  0  0  0  0  0
  186.0850  177.3380  147.7230 O   0  0  0  0  0  0  0  0  0  0  0  0
  184.4870  177.8880  142.8100 C   0  0  0  0  0  3  0  0  0  0  0  0
  189.0300  176.5740  144.2400 C   0  0  0  0  0  0  0  0  0  0  0  0
  185.2160  179.4570  147.4920 O   0  0  0  0  0  0  0  0  0  0  0  0
  187.6120  177.3770  140.8940 C   0  0  0  0  0  3  0  0  0  0  0  0
  181.9360  178.6050  142.1530 Cl  0  0  0  0  0  0  0  0  0  0  0  0
  188.6070  176.2880  145.4380 N   0  0  0  0  0  0  0  0  0  0  0  0
  188.0690  176.9550  143.1890 C   0  0  0  0  0  0  0  0  0  0  0  0
  190.4320  176.5680  143.9370 N   0  0  0  0  0  2  0  0  0  0  0  0
  186.3890  178.6070  145.5990 C   0  0  0  0  0  2  0  0  0  0  0  0
  184.0590  178.3040  140.4620 C   0  0  0  0  0  3  0  0  0  0  0  0
  187.1890  176.2120  145.7980 C   0  0  1  0  0  3  0  0  0  0  0  0
  187.0490  176.3590  147.3250 C   0  0  0  0  0  2  0  0  0  0  0  0
  188.4690  177.0350  141.8910 N   0  0  0  0  0  0  0  0  0  0  0  0
  186.2780  177.6610  141.1860 C   0  0  0  0  0  0  0  0  0  0  0  0
  185.3930  178.0140  140.1630 C   0  0  0  0  0  3  0  0  0  0  0  0
  195.5900  176.4170  143.5710 C   0  0  0  0  0  0  0  0  0  0  0  0
  193.8800  176.7990  145.2360 C   0  0  0  0  0  3  0  0  0  0  0  0
  192.3580  175.3140  142.1970 O   0  0  0  0  0  1  0  0  0  0  0  0
  197.0120  176.4870  143.1480 C   0  0  0  0  0  1  0  0  0  0  0  0
  195.2170  176.8650  144.8390 C   0  0  0  0  0  3  0  0  0  0  0  0
  193.2850  175.8330  143.0930 C   0  0  0  0  0  0  0  0  0  0  0  0
  192.8970  176.2850  144.3760 C   0  0  0  0  0  0  0  0  0  0  0  0
  194.6270  175.9030  142.7020 C   0  0  0  0  0  3  0  0  0  0  0  0
  1 11  2  0  0  0  0
  1  8  1  0  0  0  0
  2  7  1  0  0  0  0
  3  9  1  0  0  0  0
  3  2  2  0  0  0  0
  5  4  2  0  0  0  0
  6 13  1  0  0  0  0
  6  9  2  0  0  0  0
  7 17  1  1  0  0  0
  7 19  1  0  0  0  0
 10 14  2  0  0  0  0
 12 22  2  0  0  0  0
 12 21  1  0  0  0  0
 14 19  1  0  0  0  0
 15  2  1  0  0  0  0
 15 10  1  0  0  0  0
 16 10  1  0  0  0  0
 16  5  1  0  0  0  0
 17  1  1  0  0  0  0
 18  6  1  0  0  0  0
 19 20  1  1  0  0  0
 20  8  1  0  0  0  0
 21 15  2  0  0  0  0
 22  3  1  0  0  0  0
 23 18  2  0  0  0  0
 23 22  1  0  0  0  0
 24 28  1  0  0  0  0
 26 29  1  0  0  0  0
 27 24  1  0  0  0  0
 28 25  2  0  0  0  0
 29 30  2  0  0  0  0
 30  5  1  0  0  0  0
 30 25  1  0  0  0  0
 31 29  1  0  0  0  0
 31 24  2  0  0  0  0
M  END
>  <MODEL>
2

>  <REMARK>
 VINA RESULT:      -9.4      0.738      1.240
  Name = 
  1 active torsions:
  status: ('A' for Active; 'I' for Inactive)
    1  A    between atoms: C_5  and  C_30
                            x       y       z     vdW  Elec       q    Type
                         _______ _______ _______ _____ _____    ______ ____

>  <TORSDO>
F 1

$$$$
=
 OpenBabel11112416593D

 31 35  0  0  1  0  0  0  0  0999 V2000
  189.9920  177.2850  147.2350 C   0  0  0  0  0  0  0  0  0  0  0  0
  188.1700  176.4060  144.0460 C   0  0  0  0  0  0  0  0  0  0  0  0
  186.9240  177.0360  143.8740 C   0  0  0  0  0  0  0  0  0  0  0  0
  192.8170  174.0680  142.9850 O   0  0  0  0  0  0  0  0  0  0  0  0
  192.3240  174.5200  141.9160 C   0  0  0  0  0  0  0  0  0  0  0  0
  184.9380  178.1090  144.7730 C   0  0  0  0  0  0  0  0  0  0  0  0
  188.7910  176.2350  145.4090 C   0  0  2  0  0  3  0  0  0  0  0  0
  190.3780  176.0060  147.6380 O   0  0  0  0  0  0  0  0  0  0  0  0
  186.1720  177.4860  144.9710 C   0  0  0  0  0  3  0  0  0  0  0  0
  190.1810  175.3090  143.0710 C   0  0  0  0  0  0  0  0  0  0  0  0
  190.0260  178.2420  148.0510 O   0  0  0  0  0  0  0  0  0  0  0  0
  187.1600  176.7860  141.4730 C   0  0  0  0  0  3  0  0  0  0  0  0
  184.0100  178.6660  146.1480 Cl  0  0  0  0  0  0  0  0  0  0  0  0
  190.5720  174.9230  144.2510 N   0  0  0  0  0  0  0  0  0  0  0  0
  188.8760  175.9760  142.9070 C   0  0  0  0  0  0  0  0  0  0  0  0
  191.0250  175.1340  141.9250 N   0  0  0  0  0  2  0  0  0  0  0  0
  189.5110  177.5040  145.8440 C   0  0  0  0  0  2  0  0  0  0  0  0
  184.4430  178.2910  143.4780 C   0  0  0  0  0  3  0  0  0  0  0  0
  189.7340  175.0110  145.4500 C   0  0  1  0  0  3  0  0  0  0  0  0
  190.6350  174.9590  146.6980 C   0  0  0  0  0  2  0  0  0  0  0  0
  188.3610  176.1800  141.6640 N   0  0  0  0  0  0  0  0  0  0  0  0
  186.4170  177.2240  142.5690 C   0  0  0  0  0  0  0  0  0  0  0  0
  185.1810  177.8490  142.3760 C   0  0  0  0  0  3  0  0  0  0  0  0
  194.4350  174.1640  138.1930 C   0  0  0  0  0  0  0  0  0  0  0  0
  192.6590  173.4840  139.6850 C   0  0  0  0  0  3  0  0  0  0  0  0
  194.6490  176.1890  141.2600 O   0  0  0  0  0  1  0  0  0  0  0  0
  195.1530  174.0270  136.8990 C   0  0  0  0  0  1  0  0  0  0  0  0
  193.3330  173.3540  138.4690 C   0  0  0  0  0  3  0  0  0  0  0  0
  194.1910  175.2410  140.3530 C   0  0  0  0  0  0  0  0  0  0  0  0
  193.0740  174.4230  140.6430 C   0  0  0  0  0  0  0  0  0  0  0  0
  194.8620  175.1040  139.1320 C   0  0  0  0  0  3  0  0  0  0  0  0
  1  8  1  0  0  0  0
  1 11  2  0  0  0  0
  2  7  1  0  0  0  0
  3  2  1  0  0  0  0
  3  9  1  0  0  0  0
  5 16  1  0  0  0  0
  5  4  2  0  0  0  0
  6  9  2  0  0  0  0
  6 13  1  0  0  0  0
  7 19  1  0  0  0  0
  7 17  1  6  0  0  0
 10 14  2  0  0  0  0
 12 21  2  0  0  0  0
 12 22  1  0  0  0  0
 14 19  1  0  0  0  0
 15 10  1  0  0  0  0
 15  2  2  0  0  0  0
 16 10  1  0  0  0  0
 17  1  1  0  0  0  0
 18  6  1  0  0  0  0
 19 20  1  1  0  0  0
 20  8  1  0  0  0  0
 21 15  1  0  0  0  0
 22  3  2  0  0  0  0
 23 22  1  0  0  0  0
 23 18  2  0  0  0  0
 24 28  2  0  0  0  0
 24 31  1  0  0  0  0
 25 30  2  0  0  0  0
 27 24  1  0  0  0  0
 28 25  1  0  0  0  0
 29 30  1  0  0  0  0
 29 26  1  0  0  0  0
 30  5  1  0  0  0  0
 31 29  2  0  0  0  0
M  END
>  <MODEL>
3

>  <REMARK>
 VINA RESULT:      -8.4      2.903      3.780
  Name = 
  1 active torsions:
  status: ('A' for Active; 'I' for Inactive)
    1  A    between atoms: C_5  and  C_30
                            x       y       z     vdW  Elec       q    Type
                         _______ _______ _______ _____ _____    ______ ____

>  <TORSDO>
F 1

$$$$
=
 OpenBabel11112416593D

 31 35  0  0  1  0  0  0  0  0999 V2000
  190.9540  176.0660  146.0980 C   0  0  0  0  0  0  0  0  0  0  0  0
  187.9370  176.2590  143.8340 C   0  0  0  0  0  0  0  0  0  0  0  0
  187.0050  177.2610  144.1620 C   0  0  0  0  0  0  0  0  0  0  0  0
  190.8140  172.7800  141.0400 O   0  0  0  0  0  0  0  0  0  0  0  0
  190.1580  173.5110  140.2480 C   0  0  0  0  0  0  0  0  0  0  0  0
  185.9590  178.7530  145.7690 C   0  0  0  0  0  0  0  0  0  0  0  0
  188.9030  175.7110  144.8530 C   0  0  2  0  0  3  0  0  0  0  0  0
  190.9990  174.6850  146.3020 O   0  0  0  0  0  0  0  0  0  0  0  0
  186.8920  177.7570  145.4700 C   0  0  0  0  0  3  0  0  0  0  0  0
  188.9700  174.7480  142.1470 C   0  0  0  0  0  0  0  0  0  0  0  0
  191.5980  176.8380  146.8530 O   0  0  0  0  0  0  0  0  0  0  0  0
  186.2740  177.2980  141.8500 C   0  0  0  0  0  3  0  0  0  0  0  0
  185.8270  179.3640  147.4030 Cl  0  0  0  0  0  0  0  0  0  0  0  0
  189.5980  174.0950  143.0820 N   0  0  0  0  0  0  0  0  0  0  0  0
  188.0020  175.8010  142.5050 C   0  0  0  0  0  0  0  0  0  0  0  0
  189.2390  174.4870  140.7630 N   0  0  0  0  0  2  0  0  0  0  0  0
  190.1160  176.6190  144.9990 C   0  0  0  0  0  2  0  0  0  0  0  0
  185.1300  179.2620  144.7650 C   0  0  0  0  0  3  0  0  0  0  0  0
  189.3240  174.2630  144.5110 C   0  0  1  0  0  3  0  0  0  0  0  0
  190.5330  173.7570  145.3180 C   0  0  0  0  0  2  0  0  0  0  0  0
  187.1810  176.3300  141.5570 N   0  0  0  0  0  0  0  0  0  0  0  0
  186.1640  177.7810  143.1530 C   0  0  0  0  0  0  0  0  0  0  0  0
  185.2310  178.7770  143.4580 C   0  0  0  0  0  3  0  0  0  0  0  0
  190.5510  173.0700  135.9940 C   0  0  0  0  0  0  0  0  0  0  0  0
  189.2570  172.8700  138.0260 C   0  0  0  0  0  3  0  0  0  0  0  0
  192.6180  174.2260  138.8120 O   0  0  0  0  0  1  0  0  0  0  0  0
  190.6680  172.9110  134.5220 C   0  0  0  0  0  1  0  0  0  0  0  0
  189.3660  172.7200  136.6420 C   0  0  0  0  0  3  0  0  0  0  0  0
  191.5240  173.7250  138.1170 C   0  0  0  0  0  0  0  0  0  0  0  0
  190.3270  173.3710  138.7830 C   0  0  0  0  0  0  0  0  0  0  0  0
  191.6260  173.5710  136.7310 C   0  0  0  0  0  3  0  0  0  0  0  0
  1  8  1  0  0  0  0
  1 11  2  0  0  0  0
  2  3  1  0  0  0  0
  2  7  1  0  0  0  0
  3  9  1  0  0  0  0
  5 16  1  0  0  0  0
  5  4  2  0  0  0  0
  6 13  1  0  0  0  0
  7 17  1  6  0  0  0
  9  6  2  0  0  0  0
 10 15  1  0  0  0  0
 10 14  2  0  0  0  0
 12 22  1  0  0  0  0
 14 19  1  0  0  0  0
 15  2  2  0  0  0  0
 16 10  1  0  0  0  0
 17  1  1  0  0  0  0
 18  6  1  0  0  0  0
 19  7  1  0  0  0  0
 19 20  1  1  0  0  0
 20  8  1  0  0  0  0
 21 12  2  0  0  0  0
 21 15  1  0  0  0  0
 22 23  1  0  0  0  0
 22  3  2  0  0  0  0
 23 18  2  0  0  0  0
 24 28  2  0  0  0  0
 24 31  1  0  0  0  0
 25 30  2  0  0  0  0
 27 24  1  0  0  0  0
 28 25  1  0  0  0  0
 29 30  1  0  0  0  0
 29 26  1  0  0  0  0
 30  5  1  0  0  0  0
 31 29  2  0  0  0  0
M  END
>  <MODEL>
4

>  <REMARK>
 VINA RESULT:      -8.3      4.071      5.702
  Name = 
  1 active torsions:
  status: ('A' for Active; 'I' for Inactive)
    1  A    between atoms: C_5  and  C_30
                            x       y       z     vdW  Elec       q    Type
                         _______ _______ _______ _____ _____    ______ ____

>  <TORSDO>
F 1

$$$$
=
 OpenBabel11112416593D

 31 35  0  0  1  0  0  0  0  0999 V2000
  188.9160  173.0820  140.2980 C   0  0  0  0  0  0  0  0  0  0  0  0
  189.9220  174.5950  143.6100 C   0  0  0  0  0  0  0  0  0  0  0  0
  188.9280  175.3610  144.2450 C   0  0  0  0  0  0  0  0  0  0  0  0
  194.1460  171.4720  142.8390 O   0  0  0  0  0  0  0  0  0  0  0  0
  193.8880  171.5280  144.0720 C   0  0  0  0  0  0  0  0  0  0  0  0
  186.9210  176.7290  144.1720 C   0  0  0  0  0  0  0  0  0  0  0  0
  189.8980  174.3410  142.1240 C   0  0  2  0  0  3  0  0  0  0  0  0
  190.0490  173.4030  139.5470 O   0  0  0  0  0  0  0  0  0  0  0  0
  187.8970  175.9740  143.5160 C   0  0  0  0  0  3  0  0  0  0  0  0
  191.9830  173.2050  143.7430 C   0  0  0  0  0  0  0  0  0  0  0  0
  187.8550  172.7310  139.7230 O   0  0  0  0  0  0  0  0  0  0  0  0
  189.9830  174.9070  146.3810 C   0  0  0  0  0  3  0  0  0  0  0  0
  185.6400  177.4880  143.2520 Cl  0  0  0  0  0  0  0  0  0  0  0  0
  192.1070  173.2230  142.4470 N   0  0  0  0  0  0  0  0  0  0  0  0
  190.9310  174.0060  144.3940 C   0  0  0  0  0  0  0  0  0  0  0  0
  192.8310  172.3760  144.5490 N   0  0  0  0  0  2  0  0  0  0  0  0
  188.9650  173.1880  141.7820 C   0  0  0  0  0  2  0  0  0  0  0  0
  186.9660  176.8790  145.5610 C   0  0  0  0  0  3  0  0  0  0  0  0
  191.3210  174.0950  141.5700 C   0  0  1  0  0  3  0  0  0  0  0  0
  191.3440  173.5230  140.1410 C   0  0  0  0  0  2  0  0  0  0  0  0
  190.9320  174.1710  145.7450 N   0  0  0  0  0  0  0  0  0  0  0  0
  188.9650  175.5170  145.6480 C   0  0  0  0  0  0  0  0  0  0  0  0
  187.9870  176.2740  146.3000 C   0  0  0  0  0  3  0  0  0  0  0  0
  196.2250  169.2790  146.8870 C   0  0  0  0  0  0  0  0  0  0  0  0
  195.8580  171.2660  145.5610 C   0  0  0  0  0  3  0  0  0  0  0  0
  193.1030  168.8500  144.9840 O   0  0  0  0  0  1  0  0  0  0  0  0
  197.0460  168.5150  147.8620 C   0  0  0  0  0  1  0  0  0  0  0  0
  196.6300  170.5490  146.4770 C   0  0  0  0  0  3  0  0  0  0  0  0
  194.2680  169.4380  145.4630 C   0  0  0  0  0  0  0  0  0  0  0  0
  194.6710  170.7260  145.0410 C   0  0  0  0  0  0  0  0  0  0  0  0
  195.0480  168.7260  146.3810 C   0  0  0  0  0  3  0  0  0  0  0  0
  1 17  1  0  0  0  0
  2  3  2  0  0  0  0
  2 15  1  0  0  0  0
  3 22  1  0  0  0  0
  4  5  2  0  0  0  0
  5 16  1  0  0  0  0
  5 30  1  0  0  0  0
  6 18  1  0  0  0  0
  7 17  1  1  0  0  0
  7  2  1  0  0  0  0
  8 20  1  0  0  0  0
  8  1  1  0  0  0  0
  9  6  2  0  0  0  0
  9  3  1  0  0  0  0
 10 15  1  0  0  0  0
 10 16  1  0  0  0  0
 11  1  2  0  0  0  0
 13  6  1  0  0  0  0
 14 10  2  0  0  0  0
 15 21  2  0  0  0  0
 18 23  2  0  0  0  0
 19 20  1  6  0  0  0
 19  7  1  0  0  0  0
 19 14  1  0  0  0  0
 21 12  1  0  0  0  0
 22 23  1  0  0  0  0
 22 12  2  0  0  0  0
 24 27  1  0  0  0  0
 25 28  2  0  0  0  0
 26 29  1  0  0  0  0
 28 24  1  0  0  0  0
 29 31  1  0  0  0  0
 30 29  2  0  0  0  0
 30 25  1  0  0  0  0
 31 24  2  0  0  0  0
M  END
>  <MODEL>
5

>  <REMARK>
 VINA RESULT:      -8.3      4.938      6.637
  Name = 
  1 active torsions:
  status: ('A' for Active; 'I' for Inactive)
    1  A    between atoms: C_5  and  C_30
                            x       y       z     vdW  Elec       q    Type
                         _______ _______ _______ _____ _____    ______ ____

>  <TORSDO>
F 1

$$$$
=
 OpenBabel11112416593D

 31 35  0  0  1  0  0  0  0  0999 V2000
  195.0350  173.9640  145.0650 C   0  0  0  0  0  0  0  0  0  0  0  0
  192.0440  173.0210  142.9600 C   0  0  0  0  0  0  0  0  0  0  0  0
  192.0540  171.7070  142.4600 C   0  0  0  0  0  0  0  0  0  0  0  0
  190.3210  177.7140  144.7470 O   0  0  0  0  0  0  0  0  0  0  0  0
  189.3420  176.9270  144.6330 C   0  0  0  0  0  0  0  0  0  0  0  0
  193.2360  169.6990  141.7690 C   0  0  0  0  0  0  0  0  0  0  0  0
  193.3130  173.7210  143.3750 C   0  0  2  0  0  3  0  0  0  0  0  0
  195.3230  175.2100  144.5080 O   0  0  0  0  0  0  0  0  0  0  0  0
  193.2540  171.0040  142.2680 C   0  0  0  0  0  3  0  0  0  0  0  0
  190.7820  175.0540  143.6490 C   0  0  0  0  0  0  0  0  0  0  0  0
  195.8890  173.3780  145.7790 O   0  0  0  0  0  0  0  0  0  0  0  0
  189.6330  171.7650  142.3370 C   0  0  0  0  0  3  0  0  0  0  0  0
  194.7380  168.8330  141.5350 Cl  0  0  0  0  0  0  0  0  0  0  0  0
  191.8860  175.7370  143.7390 N   0  0  0  0  0  0  0  0  0  0  0  0
  190.8090  173.6740  143.1300 C   0  0  0  0  0  0  0  0  0  0  0  0
  189.5370  175.6100  144.0910 N   0  0  0  0  0  2  0  0  0  0  0  0
  193.7240  173.3190  144.7840 C   0  0  0  0  0  2  0  0  0  0  0  0
  192.0200  169.0830  141.4580 C   0  0  0  0  0  3  0  0  0  0  0  0
  193.1790  175.2560  143.2460 C   0  0  1  0  0  3  0  0  0  0  0  0
  194.3070  176.0420  143.9410 C   0  0  0  0  0  2  0  0  0  0  0  0
  189.6480  173.0350  142.8210 N   0  0  0  0  0  0  0  0  0  0  0  0
  190.8300  171.0770  142.1430 C   0  0  0  0  0  0  0  0  0  0  0  0
  190.8170  169.7710  141.6440 C   0  0  0  0  0  3  0  0  0  0  0  0
  185.4030  178.2090  145.7630 C   0  0  0  0  0  0  0  0  0  0  0  0
  187.2930  178.2770  144.2580 C   0  0  0  0  0  3  0  0  0  0  0  0
  187.9940  175.9290  147.0430 O   0  0  0  0  0  1  0  0  0  0  0  0
  184.0390  178.6640  146.1380 C   0  0  0  0  0  1  0  0  0  0  0  0
  186.0110  178.7050  144.6100 C   0  0  0  0  0  3  0  0  0  0  0  0
  187.3600  176.8500  146.2180 C   0  0  0  0  0  0  0  0  0  0  0  0
  187.9860  177.3480  145.0510 C   0  0  0  0  0  0  0  0  0  0  0  0
  186.0760  177.2850  146.5640 C   0  0  0  0  0  3  0  0  0  0  0  0
  1 11  2  0  0  0  0
  2 15  1  0  0  0  0
  2  7  1  0  0  0  0
  3  2  2  0  0  0  0
  5  4  2  0  0  0  0
  5 30  1  0  0  0  0
  6  9  2  0  0  0  0
  7 17  1  1  0  0  0
  8  1  1  0  0  0  0
  9  3  1  0  0  0  0
 10 14  2  0  0  0  0
 10 16  1  0  0  0  0
 12 21  1  0  0  0  0
 13  6  1  0  0  0  0
 15 10  1  0  0  0  0
 16  5  1  0  0  0  0
 17  1  1  0  0  0  0
 18 23  2  0  0  0  0
 18  6  1  0  0  0  0
 19  7  1  0  0  0  0
 19 14  1  0  0  0  0
 19 20  1  1  0  0  0
 20  8  1  0  0  0  0
 21 15  2  0  0  0  0
 22 12  2  0  0  0  0
 22  3  1  0  0  0  0
 23 22  1  0  0  0  0
 24 27  1  0  0  0  0
 24 31  1  0  0  0  0
 25 28  1  0  0  0  0
 25 30  2  0  0  0  0
 28 24  2  0  0  0  0
 29 31  2  0  0  0  0
 29 26  1  0  0  0  0
 30 29  1  0  0  0  0
M  END
>  <MODEL>
6

>  <REMARK>
 VINA RESULT:      -8.3      4.476      8.624
  Name = 
  1 active torsions:
  status: ('A' for Active; 'I' for Inactive)
    1  A    between atoms: C_5  and  C_30
                            x       y       z     vdW  Elec       q    Type
                         _______ _______ _______ _____ _____    ______ ____

>  <TORSDO>
F 1

$$$$
=
 OpenBabel11112416593D

 31 35  0  0  1  0  0  0  0  0999 V2000
  190.5430  175.5860  146.9760 C   0  0  0  0  0  0  0  0  0  0  0  0
  189.8160  174.3320  143.4880 C   0  0  0  0  0  0  0  0  0  0  0  0
  190.3150  173.0490  143.1970 C   0  0  0  0  0  0  0  0  0  0  0  0
  186.7830  178.6880  143.4220 O   0  0  0  0  0  0  0  0  0  0  0  0
  186.2270  177.7830  142.7420 C   0  0  0  0  0  0  0  0  0  0  0  0
  191.8940  171.2410  143.5720 C   0  0  0  0  0  0  0  0  0  0  0  0
  190.4020  175.1780  144.5890 C   0  0  2  0  0  3  0  0  0  0  0  0
  190.9700  176.8790  146.6690 O   0  0  0  0  0  0  0  0  0  0  0  0
  191.4200  172.5190  143.8810 C   0  0  0  0  0  3  0  0  0  0  0  0
  188.1750  176.1540  143.0570 C   0  0  0  0  0  0  0  0  0  0  0  0
  190.7810  175.0930  148.1080 O   0  0  0  0  0  0  0  0  0  0  0  0
  188.5870  172.7910  141.5140 C   0  0  0  0  0  3  0  0  0  0  0  0
  193.2720  170.5910  144.4320 Cl  0  0  0  0  0  0  0  0  0  0  0  0
  188.8530  176.9740  143.8070 N   0  0  0  0  0  0  0  0  0  0  0  0
  188.7060  174.8090  142.7680 C   0  0  0  0  0  0  0  0  0  0  0  0
  186.8900  176.5240  142.5410 N   0  0  0  0  0  2  0  0  0  0  0  0
  189.8310  174.7830  145.9440 C   0  0  0  0  0  2  0  0  0  0  0  0
  191.2700  170.4810  142.5790 C   0  0  0  0  0  3  0  0  0  0  0  0
  190.1980  176.6850  144.3120 C   0  0  1  0  0  3  0  0  0  0  0  0
  190.4840  177.5880  145.5270 C   0  0  0  0  0  2  0  0  0  0  0  0
  188.1230  174.0330  141.8130 N   0  0  0  0  0  0  0  0  0  0  0  0
  189.6890  172.2740  142.1950 C   0  0  0  0  0  0  0  0  0  0  0  0
  190.1680  170.9970  141.8900 C   0  0  0  0  0  3  0  0  0  0  0  0
  182.3170  178.4500  141.0980 C   0  0  0  0  0  0  0  0  0  0  0  0
  183.8180  178.3290  142.9890 C   0  0  0  0  0  3  0  0  0  0  0  0
  185.6770  177.5920  139.8640 O   0  0  0  0  0  1  0  0  0  0  0  0
  180.9570  178.6840  140.5480 C   0  0  0  0  0  1  0  0  0  0  0  0
  182.5400  178.5500  142.4720 C   0  0  0  0  0  3  0  0  0  0  0  0
  184.6550  177.9080  140.7520 C   0  0  0  0  0  0  0  0  0  0  0  0
  184.8910  178.0060  142.1430 C   0  0  0  0  0  0  0  0  0  0  0  0
  183.3710  178.1300  140.2420 C   0  0  0  0  0  3  0  0  0  0  0  0
  1 11  2  0  0  0  0
  2  7  1  0  0  0  0
  3  2  1  0  0  0  0
  3  9  1  0  0  0  0
  5  4  2  0  0  0  0
  6  9  2  0  0  0  0
  6 13  1  0  0  0  0
  7 17  1  1  0  0  0
  8  1  1  0  0  0  0
 10 14  2  0  0  0  0
 12 21  2  0  0  0  0
 12 22  1  0  0  0  0
 14 19  1  0  0  0  0
 15 10  1  0  0  0  0
 15  2  2  0  0  0  0
 16  5  1  0  0  0  0
 16 10  1  0  0  0  0
 17  1  1  0  0  0  0
 18  6  1  0  0  0  0
 19  7  1  0  0  0  0
 19 20  1  1  0  0  0
 20  8  1  0  0  0  0
 21 15  1  0  0  0  0
 22  3  2  0  0  0  0
 23 22  1  0  0  0  0
 23 18  2  0  0  0  0
 24 28  1  0  0  0  0
 26 29  1  0  0  0  0
 27 24  1  0  0  0  0
 28 25  2  0  0  0  0
 29 30  2  0  0  0  0
 30  5  1  0  0  0  0
 30 25  1  0  0  0  0
 31 29  1  0  0  0  0
 31 24  2  0  0  0  0
M  END
>  <MODEL>
7

>  <REMARK>
 VINA RESULT:      -8.2      4.071      8.323
  Name = 
  1 active torsions:
  status: ('A' for Active; 'I' for Inactive)
    1  A    between atoms: C_5  and  C_30
                            x       y       z     vdW  Elec       q    Type
                         _______ _______ _______ _____ _____    ______ ____

>  <TORSDO>
F 1

$$$$
=
 OpenBabel11112416593D

 31 35  0  0  1  0  0  0  0  0999 V2000
  194.4450  173.4190  143.3670 C   0  0  0  0  0  0  0  0  0  0  0  0
  191.3570  173.7120  141.2120 C   0  0  0  0  0  0  0  0  0  0  0  0
  191.2160  172.7150  140.2290 C   0  0  0  0  0  0  0  0  0  0  0  0
  190.1830  177.4410  144.8040 O   0  0  0  0  0  0  0  0  0  0  0  0
  189.1220  176.8700  144.4330 C   0  0  0  0  0  0  0  0  0  0  0  0
  192.1600  171.0440  138.7390 C   0  0  0  0  0  0  0  0  0  0  0  0
  192.6990  174.0530  141.8080 C   0  0  2  0  0  3  0  0  0  0  0  0
  194.8690  174.7490  143.3400 O   0  0  0  0  0  0  0  0  0  0  0  0
  192.3280  172.0300  139.7140 C   0  0  0  0  0  3  0  0  0  0  0  0
  190.3360  175.4140  142.7150 C   0  0  0  0  0  0  0  0  0  0  0  0
  195.2290  172.5130  143.7460 O   0  0  0  0  0  0  0  0  0  0  0  0
  188.8160  173.0650  140.2600 C   0  0  0  0  0  3  0  0  0  0  0  0
  193.5540  170.1970  138.1050 Cl  0  0  0  0  0  0  0  0  0  0  0  0
  191.5110  175.8870  143.0150 N   0  0  0  0  0  0  0  0  0  0  0  0
  190.2040  174.3630  141.6890 C   0  0  0  0  0  0  0  0  0  0  0  0
  189.1640  175.8700  143.4040 N   0  0  0  0  0  2  0  0  0  0  0  0
  193.0670  173.0790  142.9180 C   0  0  0  0  0  2  0  0  0  0  0  0
  190.8810  170.7330  138.2690 C   0  0  0  0  0  3  0  0  0  0  0  0
  192.7390  175.5150  142.3080 C   0  0  1  0  0  3  0  0  0  0  0  0
  193.9510  175.8370  143.2020 C   0  0  0  0  0  2  0  0  0  0  0  0
  188.9770  174.0240  141.2090 N   0  0  0  0  0  0  0  0  0  0  0  0
  189.9270  172.3940  139.7490 C   0  0  0  0  0  0  0  0  0  0  0  0
  189.7640  171.4060  138.7730 C   0  0  0  0  0  3  0  0  0  0  0  0
  185.3400  177.9620  146.1500 C   0  0  0  0  0  0  0  0  0  0  0  0
  187.0240  178.1980  144.4320 C   0  0  0  0  0  3  0  0  0  0  0  0
  188.1020  175.6480  146.9010 O   0  0  0  0  0  1  0  0  0  0  0  0
  184.0290  178.3530  146.7290 C   0  0  0  0  0  1  0  0  0  0  0  0
  185.7910  178.5650  144.9760 C   0  0  0  0  0  3  0  0  0  0  0  0
  187.3560  176.6180  146.2410 C   0  0  0  0  0  0  0  0  0  0  0  0
  187.8230  177.2240  145.0520 C   0  0  0  0  0  0  0  0  0  0  0  0
  186.1210  176.9920  146.7800 C   0  0  0  0  0  3  0  0  0  0  0  0
  1 11  2  0  0  0  0
  2 15  1  0  0  0  0
  2  7  1  0  0  0  0
  3  2  2  0  0  0  0
  5  4  2  0  0  0  0
  5 30  1  0  0  0  0
  6  9  2  0  0  0  0
  7 19  1  0  0  0  0
  7 17  1  1  0  0  0
  8  1  1  0  0  0  0
  9  3  1  0  0  0  0
 10 14  2  0  0  0  0
 10 16  1  0  0  0  0
 12 21  1  0  0  0  0
 13  6  1  0  0  0  0
 15 10  1  0  0  0  0
 16  5  1  0  0  0  0
 17  1  1  0  0  0  0
 18  6  1  0  0  0  0
 18 23  2  0  0  0  0
 19 14  1  0  0  0  0
 19 20  1  1  0  0  0
 20  8  1  0  0  0  0
 21 15  2  0  0  0  0
 22  3  1  0  0  0  0
 22 12  2  0  0  0  0
 23 22  1  0  0  0  0
 24 27  1  0  0  0  0
 24 31  1  0  0  0  0
 25 28  1  0  0  0  0
 25 30  2  0  0  0  0
 28 24  2  0  0  0  0
 29 31  2  0  0  0  0
 29 26  1  0  0  0  0
 30 29  1  0  0  0  0
M  END
>  <MODEL>
8

>  <REMARK>
 VINA RESULT:      -8.2      4.421      8.228
  Name = 
  1 active torsions:
  status: ('A' for Active; 'I' for Inactive)
    1  A    between atoms: C_5  and  C_30
                            x       y       z     vdW  Elec       q    Type
                         _______ _______ _______ _____ _____    ______ ____

>  <TORSDO>
F 1

$$$$
=
 OpenBabel11112416593D

 31 35  0  0  1  0  0  0  0  0999 V2000
  184.2620  177.9450  141.9630 C   0  0  0  0  0  0  0  0  0  0  0  0
  187.5620  176.7260  143.3370 C   0  0  0  0  0  0  0  0  0  0  0  0
  187.7250  176.8770  144.7260 C   0  0  0  0  0  0  0  0  0  0  0  0
  188.0120  174.8520  138.3910 O   0  0  0  0  0  0  0  0  0  0  0  0
  188.5680  174.0520  139.1920 C   0  0  0  0  0  0  0  0  0  0  0  0
  187.2040  177.9860  146.8250 C   0  0  0  0  0  0  0  0  0  0  0  0
  186.5830  177.5660  142.5590 C   0  0  2  0  0  3  0  0  0  0  0  0
  184.7250  178.6560  140.8550 O   0  0  0  0  0  0  0  0  0  0  0  0
  187.0240  177.8580  145.4450 C   0  0  0  0  0  3  0  0  0  0  0  0
  188.1380  175.5580  141.2160 C   0  0  0  0  0  0  0  0  0  0  0  0
  183.0900  178.1230  142.3840 O   0  0  0  0  0  0  0  0  0  0  0  0
  189.3100  175.0410  144.7120 C   0  0  0  0  0  3  0  0  0  0  0  0
  186.3230  179.2130  147.7090 Cl  0  0  0  0  0  0  0  0  0  0  0  0
  187.5070  176.4590  140.5210 N   0  0  0  0  0  0  0  0  0  0  0  0
  188.2940  175.7250  142.6730 C   0  0  0  0  0  0  0  0  0  0  0  0
  188.6490  174.3730  140.5900 N   0  0  0  0  0  2  0  0  0  0  0  0
  185.1740  176.9980  142.6610 C   0  0  0  0  0  2  0  0  0  0  0  0
  188.0850  177.1370  147.5000 C   0  0  0  0  0  3  0  0  0  0  0  0
  187.0190  177.7210  141.0830 C   0  0  1  0  0  3  0  0  0  0  0  0
  185.9230  178.2910  140.1640 C   0  0  0  0  0  2  0  0  0  0  0  0
  189.1360  174.9140  143.3700 N   0  0  0  0  0  0  0  0  0  0  0  0
  188.6140  176.0220  145.4170 C   0  0  0  0  0  0  0  0  0  0  0  0
  188.7900  176.1550  146.7970 C   0  0  0  0  0  3  0  0  0  0  0  0
  190.2160  170.3860  137.6800 C   0  0  0  0  0  0  0  0  0  0  0  0
  189.1590  172.5300  137.3220 C   0  0  0  0  0  3  0  0  0  0  0  0
  189.6910  171.9870  140.9520 O   0  0  0  0  0  1  0  0  0  0  0  0
  190.7830  169.1240  137.1380 C   0  0  0  0  0  1  0  0  0  0  0  0
  189.6910  171.3440  136.8120 C   0  0  0  0  0  3  0  0  0  0  0  0
  189.6790  171.8000  139.5750 C   0  0  0  0  0  0  0  0  0  0  0  0
  189.1430  172.7780  138.7030 C   0  0  0  0  0  0  0  0  0  0  0  0
  190.2090  170.6140  139.0560 C   0  0  0  0  0  3  0  0  0  0  0  0
  1 11  2  0  0  0  0
  1 17  1  0  0  0  0
  2  3  1  0  0  0  0
  3 22  2  0  0  0  0
  3  9  1  0  0  0  0
  4  5  2  0  0  0  0
  5 16  1  0  0  0  0
  6 18  1  0  0  0  0
  6 13  1  0  0  0  0
  7 17  1  6  0  0  0
  7  2  1  0  0  0  0
  8  1  1  0  0  0  0
  9  6  2  0  0  0  0
 10 15  1  0  0  0  0
 12 22  1  0  0  0  0
 14 19  1  0  0  0  0
 14 10  2  0  0  0  0
 15  2  2  0  0  0  0
 15 21  1  0  0  0  0
 16 10  1  0  0  0  0
 19 20  1  6  0  0  0
 19  7  1  0  0  0  0
 20  8  1  0  0  0  0
 21 12  2  0  0  0  0
 22 23  1  0  0  0  0
 23 18  2  0  0  0  0
 24 31  1  0  0  0  0
 25 30  2  0  0  0  0
 27 24  1  0  0  0  0
 28 25  1  0  0  0  0
 28 24  2  0  0  0  0
 29 26  1  0  0  0  0
 30  5  1  0  0  0  0
 30 29  1  0  0  0  0
 31 29  2  0  0  0  0
M  END
>  <MODEL>
9

>  <REMARK>
 VINA RESULT:      -8.0      4.632      6.584
  Name = 
  1 active torsions:
  status: ('A' for Active; 'I' for Inactive)
    1  A    between atoms: C_5  and  C_30
                            x       y       z     vdW  Elec       q    Type
                         _______ _______ _______ _____ _____    ______ ____

>  <TORSDO>
F 1

$$$$
