=
 OpenBabel11112416193D

 30 35  0  0  1  0  0  0  0  0999 V2000
  187.5640  176.5300  145.6030 C   0  0  0  0  0  0  0  0  0  0  0  0
  185.9450  177.7970  147.0760 C   0  0  0  0  0  0  0  0  0  0  0  0
  185.9080  177.7240  141.9540 C   0  0  0  0  0  3  0  0  0  0  0  0
  188.1030  176.1360  144.3270 C   0  0  0  0  0  0  0  0  0  0  0  0
  188.2200  176.1070  146.7590 C   0  0  0  0  0  3  0  0  0  0  0  0
  190.8470  174.1530  145.4140 O   0  0  0  0  0  0  0  0  0  0  0  0
  188.6550  174.0830  142.1650 C   0  0  1  0  0  3  0  0  0  0  0  0
  189.8280  174.9010  145.4520 C   0  0  0  0  0  0  0  0  0  0  0  0
  187.9930  175.0910  141.3480 N   0  0  0  0  0  0  0  0  0  0  0  0
  186.7700  177.2150  141.0830 C   0  0  0  0  0  0  0  0  0  0  0  0
  189.3510  175.3100  146.6960 C   0  0  0  0  0  0  0  0  0  0  0  0
  189.2050  175.2900  144.2920 N   0  0  0  0  0  0  0  0  0  0  0  0
  184.5280  178.3080  147.0290 C   0  0  0  0  0  3  0  0  0  0  0  0
  188.1230  174.7110  139.9870 C   0  0  0  0  0  3  0  0  0  0  0  0
  189.2380  173.0760  141.1770 C   0  0  0  0  0  2  0  0  0  0  0  0
  186.8430  178.9120  147.5850 C   0  0  0  0  0  1  0  0  0  0  0  0
  186.3180  177.3860  143.2670 N   0  0  0  0  0  0  0  0  0  0  0  0
  183.8970  178.5800  145.8820 C   0  0  0  0  0  3  0  0  0  0  0  0
  186.4460  177.3030  145.7270 C   0  0  0  0  0  0  0  0  0  0  0  0
  187.4990  176.6110  143.1980 C   0  0  0  0  0  0  0  0  0  0  0  0
  186.6720  177.4680  139.6190 C   0  0  0  0  0  1  0  0  0  0  0  0
  187.9100  176.4910  141.7580 C   0  0  1  0  0  3  0  0  0  0  0  0
  188.7900  173.5830  139.8490 C   0  0  0  0  0  3  0  0  0  0  0  0
  190.7270  175.6250  142.3490 C   0  0  0  0  0  1  0  0  0  0  0  0
  184.5340  178.3240  144.5810 C   0  0  0  0  0  3  0  0  0  0  0  0
  185.7240  177.7240  144.5100 C   0  0  2  0  0  3  0  0  0  0  0  0
  189.7440  174.6960  143.0550 C   0  0  2  0  0  3  0  0  0  0  0  0
  190.0070  174.9050  147.8630 O   0  0  0  0  0  0  0  0  0  0  0  0
  191.3100  176.7400  148.1620 C   0  0  0  0  0  1  0  0  0  0  0  0
  191.3020  175.2900  148.1330 N   0  0  0  0  0  2  0  0  0  0  0  0
  1 19  2  0  0  0  0
  1  5  1  0  0  0  0
  2 16  1  0  0  0  0
  3 17  1  0  0  0  0
  4  1  1  0  0  0  0
  6  8  2  0  0  0  0
  7 15  1  6  0  0  0
  7 27  1  0  0  0  0
  8 11  1  0  0  0  0
  9 22  1  0  0  0  0
  9  7  1  0  0  0  0
 10  3  2  0  0  0  0
 11  5  2  0  0  0  0
 11 28  1  0  0  0  0
 12  4  1  0  0  0  0
 12  8  1  0  0  0  0
 13  2  2  0  0  0  0
 14  9  1  0  0  0  0
 17 26  1  0  0  0  0
 18 13  1  0  0  0  0
 19  2  1  0  0  0  0
 20 17  1  0  0  0  0
 20  4  2  0  0  0  0
 21 10  1  0  0  0  0
 22 10  1  6  0  0  0
 22 20  1  0  0  0  0
 23 14  2  0  0  0  0
 23 15  1  0  0  0  0
 25 18  2  0  0  0  0
 26 25  1  6  0  0  0
 26 19  1  0  0  0  0
 27 24  1  6  0  0  0
 27 12  1  0  0  0  0
 28 30  1  0  0  0  0
 30 29  1  0  0  0  0
M  END
>  <MODEL>
1

>  <REMARK>
 VINA RESULT:      -9.2      0.000      0.000
  Name = 
  2 active torsions:
  status: ('A' for Active; 'I' for Inactive)
    1  A    between atoms: C_11  and  O_28
    2  A    between atoms: O_28  and  N_30
                            x       y       z     vdW  Elec       q    Type
                         _______ _______ _______ _____ _____    ______ ____

>  <TORSDO>
F 2

$$$$
=
 OpenBabel11112416193D

 30 35  0  0  1  0  0  0  0  0999 V2000
  187.2580  177.3370  144.5300 C   0  0  0  0  0  0  0  0  0  0  0  0
  185.6660  178.5660  146.0640 C   0  0  2  0  0  3  0  0  0  0  0  0
  190.1440  176.4920  147.4330 C   0  0  0  0  0  3  0  0  0  0  0  0
  188.4550  176.5860  144.2540 C   0  0  0  0  0  0  0  0  0  0  0  0
  186.3410  177.5260  143.4960 C   0  0  0  0  0  3  0  0  0  0  0  0
  187.9710  175.9180  140.7960 O   0  0  0  0  0  0  0  0  0  0  0  0
  191.1950  176.2720  142.9960 C   0  0  1  0  0  3  0  0  0  0  0  0
  187.7620  176.3450  141.9680 C   0  0  0  0  0  0  0  0  0  0  0  0
  191.5450  175.9410  144.3700 N   0  0  0  0  0  0  0  0  0  0  0  0
  190.9900  175.7190  146.7620 C   0  0  0  0  0  0  0  0  0  0  0  0
  186.5750  177.0270  142.2240 C   0  0  0  0  0  0  0  0  0  0  0  0
  188.6930  176.1450  142.9580 N   0  0  0  0  0  0  0  0  0  0  0  0
  185.7110  179.3780  147.3330 C   0  0  0  0  0  3  0  0  0  0  0  0
  192.8800  175.4600  144.3830 C   0  0  0  0  0  3  0  0  0  0  0  0
  192.4230  175.9090  142.1640 C   0  0  0  0  0  2  0  0  0  0  0  0
  184.5480  177.5440  146.1840 C   0  0  0  0  0  1  0  0  0  0  0  0
  189.0940  176.8930  146.5710 N   0  0  0  0  0  0  0  0  0  0  0  0
  186.6850  179.2470  148.2370 C   0  0  0  0  0  3  0  0  0  0  0  0
  186.9800  177.8630  145.7580 C   0  0  0  0  0  0  0  0  0  0  0  0
  189.3140  176.3420  145.2870 C   0  0  0  0  0  0  0  0  0  0  0  0
  192.1560  175.0580  147.4090 C   0  0  0  0  0  1  0  0  0  0  0  0
  190.5480  175.4860  145.3370 C   0  0  1  0  0  3  0  0  0  0  0  0
  193.4130  175.4470  143.1780 C   0  0  0  0  0  3  0  0  0  0  0  0
  189.9570  174.0070  142.7880 C   0  0  0  0  0  1  0  0  0  0  0  0
  187.8240  178.3430  148.0100 C   0  0  0  0  0  3  0  0  0  0  0  0
  187.9610  177.7000  146.8490 C   0  0  0  0  0  0  0  0  0  0  0  0
  189.9510  175.5090  142.5250 C   0  0  2  0  0  3  0  0  0  0  0  0
  185.6410  177.2120  141.2000 O   0  0  0  0  0  0  0  0  0  0  0  0
  183.7900  178.3870  140.6090 C   0  0  0  0  0  1  0  0  0  0  0  0
  185.2230  178.4700  140.8220 N   0  0  0  0  0  2  0  0  0  0  0  0
  1 19  2  0  0  0  0
  2 16  1  1  0  0  0
  2 13  1  0  0  0  0
  4  1  1  0  0  0  0
  4 20  2  0  0  0  0
  5  1  1  0  0  0  0
  6  8  2  0  0  0  0
  7 15  1  6  0  0  0
  7  9  1  0  0  0  0
  8 11  1  0  0  0  0
  8 12  1  0  0  0  0
  9 14  1  0  0  0  0
  9 22  1  0  0  0  0
 10 21  1  0  0  0  0
 10  3  2  0  0  0  0
 11  5  2  0  0  0  0
 12  4  1  0  0  0  0
 13 18  2  0  0  0  0
 15 23  1  0  0  0  0
 17 26  1  0  0  0  0
 17  3  1  0  0  0  0
 19  2  1  0  0  0  0
 19 26  1  0  0  0  0
 20 17  1  0  0  0  0
 22 20  1  6  0  0  0
 22 10  1  0  0  0  0
 23 14  2  0  0  0  0
 25 18  1  0  0  0  0
 26 25  2  0  0  0  0
 27 24  1  1  0  0  0
 27 12  1  0  0  0  0
 27  7  1  0  0  0  0
 28 11  1  0  0  0  0
 29 30  1  0  0  0  0
 30 28  1  0  0  0  0
M  END
>  <MODEL>
2

>  <REMARK>
 VINA RESULT:      -8.4      2.366      5.265
  Name = 
  2 active torsions:
  status: ('A' for Active; 'I' for Inactive)
    1  A    between atoms: C_11  and  O_28
    2  A    between atoms: O_28  and  N_30
                            x       y       z     vdW  Elec       q    Type
                         _______ _______ _______ _____ _____    ______ ____

>  <TORSDO>
F 2

$$$$
=
 OpenBabel11112416193D

 30 35  0  0  1  0  0  0  0  0999 V2000
  190.2530  174.9080  143.5730 C   0  0  0  0  0  0  0  0  0  0  0  0
  192.4250  173.6190  143.4420 C   0  0  2  0  0  3  0  0  0  0  0  0
  191.0000  176.7100  147.2700 C   0  0  0  0  0  3  0  0  0  0  0  0
  189.3430  175.8330  144.1960 C   0  0  0  0  0  0  0  0  0  0  0  0
  189.9230  174.3970  142.3180 C   0  0  0  0  0  3  0  0  0  0  0  0
  186.7680  175.8950  141.7450 O   0  0  0  0  0  0  0  0  0  0  0  0
  186.7500  176.5010  145.6180 C   0  0  1  0  0  3  0  0  0  0  0  0
  187.8530  175.6060  142.3260 C   0  0  0  0  0  0  0  0  0  0  0  0
  187.6810  177.0860  146.5720 N   0  0  0  0  0  0  0  0  0  0  0  0
  189.9650  177.5300  147.3900 C   0  0  0  0  0  0  0  0  0  0  0  0
  188.7410  174.7470  141.6840 C   0  0  0  0  0  0  0  0  0  0  0  0
  188.1380  176.1240  143.5660 N   0  0  0  0  0  0  0  0  0  0  0  0
  193.4480  173.0200  144.3730 C   0  0  0  0  0  3  0  0  0  0  0  0
  186.9310  177.8180  147.5290 C   0  0  0  0  0  3  0  0  0  0  0  0
  185.3670  176.9780  146.0530 C   0  0  0  0  0  2  0  0  0  0  0  0
  193.1540  174.4070  142.3670 C   0  0  0  0  0  1  0  0  0  0  0  0
  190.8890  175.9910  146.0550 N   0  0  0  0  0  0  0  0  0  0  0  0
  193.6390  173.4670  145.6180 C   0  0  0  0  0  3  0  0  0  0  0  0
  191.4240  174.5170  144.1530 C   0  0  0  0  0  0  0  0  0  0  0  0
  189.7040  176.3860  145.3910 C   0  0  0  0  0  0  0  0  0  0  0  0
  189.8310  178.4940  148.5170 C   0  0  0  0  0  1  0  0  0  0  0  0
  189.0410  177.4670  146.1960 C   0  0  1  0  0  3  0  0  0  0  0  0
  185.6370  177.7650  147.2900 C   0  0  0  0  0  3  0  0  0  0  0  0
  187.2710  178.4250  143.9640 C   0  0  0  0  0  1  0  0  0  0  0  0
  192.8010  174.5370  146.1830 C   0  0  0  0  0  3  0  0  0  0  0  0
  191.7650  175.0240  145.4980 C   0  0  0  0  0  0  0  0  0  0  0  0
  187.0650  176.9280  144.1780 C   0  0  2  0  0  3  0  0  0  0  0  0
  188.4290  174.2380  140.4200 O   0  0  0  0  0  0  0  0  0  0  0  0
  188.5340  172.6400  138.8100 C   0  0  0  0  0  1  0  0  0  0  0  0
  188.2450  172.8880  140.2100 N   0  0  0  0  0  2  0  0  0  0  0  0
  1 19  2  0  0  0  0
  1  4  1  0  0  0  0
  2 16  1  6  0  0  0
  2 19  1  0  0  0  0
  2 13  1  0  0  0  0
  3 10  2  0  0  0  0
  4 20  2  0  0  0  0
  5  1  1  0  0  0  0
  6  8  2  0  0  0  0
  7 15  1  1  0  0  0
  7  9  1  0  0  0  0
  8 12  1  0  0  0  0
  9 14  1  0  0  0  0
 10 21  1  0  0  0  0
 11  5  2  0  0  0  0
 11  8  1  0  0  0  0
 12 27  1  0  0  0  0
 12  4  1  0  0  0  0
 13 18  2  0  0  0  0
 15 23  1  0  0  0  0
 17  3  1  0  0  0  0
 18 25  1  0  0  0  0
 19 26  1  0  0  0  0
 20 17  1  0  0  0  0
 22 20  1  6  0  0  0
 22  9  1  0  0  0  0
 22 10  1  0  0  0  0
 23 14  2  0  0  0  0
 26 17  1  0  0  0  0
 26 25  2  0  0  0  0
 27 24  1  1  0  0  0
 27  7  1  0  0  0  0
 28 11  1  0  0  0  0
 29 30  1  0  0  0  0
 30 28  1  0  0  0  0
M  END
>  <MODEL>
3

>  <REMARK>
 VINA RESULT:      -7.9      2.479      7.016
  Name = 
  2 active torsions:
  status: ('A' for Active; 'I' for Inactive)
    1  A    between atoms: C_11  and  O_28
    2  A    between atoms: O_28  and  N_30
                            x       y       z     vdW  Elec       q    Type
                         _______ _______ _______ _____ _____    ______ ____

>  <TORSDO>
F 2

$$$$
=
 OpenBabel11112416193D

 30 35  0  0  1  0  0  0  0  0999 V2000
  190.2370  175.6180  144.5800 C   0  0  0  0  0  0  0  0  0  0  0  0
  191.8070  176.3990  146.4030 C   0  0  0  0  0  0  0  0  0  0  0  0
  192.6730  172.5340  143.1560 C   0  0  0  0  0  3  0  0  0  0  0  0
  189.8490  174.7400  143.5070 C   0  0  0  0  0  0  0  0  0  0  0  0
  189.3290  176.5880  145.0040 C   0  0  0  0  0  3  0  0  0  0  0  0
  186.6290  176.0600  142.7770 O   0  0  0  0  0  0  0  0  0  0  0  0
  189.2710  174.1660  140.5870 C   0  0  1  0  0  3  0  0  0  0  0  0
  187.7540  175.9010  143.3320 C   0  0  0  0  0  0  0  0  0  0  0  0
  190.2420  173.1090  140.8300 N   0  0  0  0  0  0  0  0  0  0  0  0
  191.8840  171.9520  142.2610 C   0  0  0  0  0  0  0  0  0  0  0  0
  188.0900  176.7290  144.4010 C   0  0  0  0  0  0  0  0  0  0  0  0
  188.6240  174.9390  142.8810 N   0  0  0  0  0  0  0  0  0  0  0  0
  193.2850  176.4160  146.6990 C   0  0  0  0  0  3  0  0  0  0  0  0
  190.2670  172.2600  139.6940 C   0  0  0  0  0  3  0  0  0  0  0  0
  188.6730  173.8610  139.2160 C   0  0  0  0  0  2  0  0  0  0  0  0
  191.0730  175.9020  147.6370 C   0  0  0  0  0  1  0  0  0  0  0  0
  191.9940  173.6360  143.7300 N   0  0  0  0  0  0  0  0  0  0  0  0
  194.1370  175.5360  146.1640 C   0  0  0  0  0  3  0  0  0  0  0  0
  191.4480  175.5350  145.2030 C   0  0  0  0  0  0  0  0  0  0  0  0
  190.7120  173.7460  143.1440 C   0  0  0  0  0  0  0  0  0  0  0  0
  192.2700  170.7070  141.5430 C   0  0  0  0  0  1  0  0  0  0  0  0
  190.5290  172.6130  142.1750 C   0  0  1  0  0  3  0  0  0  0  0  0
  189.4240  172.6560  138.7620 C   0  0  0  0  0  3  0  0  0  0  0  0
  187.5390  172.8720  142.0130 C   0  0  0  0  0  1  0  0  0  0  0  0
  193.6860  174.5320  145.1880 C   0  0  0  0  0  3  0  0  0  0  0  0
  192.4300  174.5360  144.7370 C   0  0  2  0  0  3  0  0  0  0  0  0
  188.1910  174.2100  141.6750 C   0  0  2  0  0  3  0  0  0  0  0  0
  187.1840  177.6980  144.8450 O   0  0  0  0  0  0  0  0  0  0  0  0
  185.5660  176.7910  146.1550 C   0  0  0  0  0  1  0  0  0  0  0  0
  186.7000  177.6960  146.1350 N   0  0  0  0  0  2  0  0  0  0  0  0
  1  5  1  0  0  0  0
  1 19  2  0  0  0  0
  2 13  2  0  0  0  0
  2 16  1  0  0  0  0
  3 17  1  0  0  0  0
  4  1  1  0  0  0  0
  6  8  2  0  0  0  0
  7 15  1  6  0  0  0
  7  9  1  0  0  0  0
  7 27  1  0  0  0  0
  8 11  1  0  0  0  0
  9 22  1  0  0  0  0
 10  3  2  0  0  0  0
 11 28  1  0  0  0  0
 11  5  2  0  0  0  0
 12  8  1  0  0  0  0
 12  4  1  0  0  0  0
 14  9  1  0  0  0  0
 17 26  1  0  0  0  0
 18 13  1  0  0  0  0
 19  2  1  0  0  0  0
 20  4  2  0  0  0  0
 20 17  1  0  0  0  0
 21 10  1  0  0  0  0
 22 10  1  6  0  0  0
 22 20  1  0  0  0  0
 23 15  1  0  0  0  0
 23 14  2  0  0  0  0
 25 18  2  0  0  0  0
 26 25  1  6  0  0  0
 26 19  1  0  0  0  0
 27 24  1  1  0  0  0
 27 12  1  0  0  0  0
 28 30  1  0  0  0  0
 30 29  1  0  0  0  0
M  END
>  <MODEL>
4

>  <REMARK>
 VINA RESULT:      -7.6      2.539      5.632
  Name = 
  2 active torsions:
  status: ('A' for Active; 'I' for Inactive)
    1  A    between atoms: C_11  and  O_28
    2  A    between atoms: O_28  and  N_30
                            x       y       z     vdW  Elec       q    Type
                         _______ _______ _______ _____ _____    ______ ____

>  <TORSDO>
F 2

$$$$
=
 OpenBabel11112416193D

 30 35  0  0  1  0  0  0  0  0999 V2000
  188.9540  176.1710  143.8560 C   0  0  0  0  0  0  0  0  0  0  0  0
  189.1070  177.3090  146.1100 C   0  0  0  0  0  0  0  0  0  0  0  0
  191.4100  172.9250  144.8040 C   0  0  0  0  0  3  0  0  0  0  0  0
  189.2350  175.1020  142.9350 C   0  0  0  0  0  0  0  0  0  0  0  0
  188.0870  177.1860  143.4500 C   0  0  0  0  0  3  0  0  0  0  0  0
  187.3390  176.1980  140.1350 O   0  0  0  0  0  0  0  0  0  0  0  0
  190.5560  173.9820  140.4460 C   0  0  1  0  0  3  0  0  0  0  0  0
  187.8440  176.1680  141.2930 C   0  0  0  0  0  0  0  0  0  0  0  0
  191.0460  173.0080  141.4120 N   0  0  0  0  0  0  0  0  0  0  0  0
  191.3010  172.1710  143.7170 C   0  0  0  0  0  0  0  0  0  0  0  0
  187.5200  177.1880  142.1860 C   0  0  0  0  0  0  0  0  0  0  0  0
  188.7000  175.1560  141.6530 N   0  0  0  0  0  0  0  0  0  0  0  0
  190.0660  177.4100  147.2690 C   0  0  0  0  0  3  0  0  0  0  0  0
  191.6890  171.9640  140.6990 C   0  0  0  0  0  3  0  0  0  0  0  0
  190.9210  173.4160  139.0760 C   0  0  0  0  0  2  0  0  0  0  0  0
  187.7170  177.0360  146.6570 C   0  0  0  0  0  1  0  0  0  0  0  0
  190.6400  174.1010  144.6370 N   0  0  0  0  0  0  0  0  0  0  0  0
  190.9690  176.4630  147.5420 C   0  0  0  0  0  3  0  0  0  0  0  0
  189.4920  176.2300  145.1090 C   0  0  0  0  0  0  0  0  0  0  0  0
  190.0270  174.0750  143.3630 C   0  0  0  0  0  0  0  0  0  0  0  0
  191.9200  170.8220  143.6120 C   0  0  0  0  0  1  0  0  0  0  0  0
  190.3750  172.7770  142.6900 C   0  0  1  0  0  3  0  0  0  0  0  0
  191.6610  172.1620  139.3970 C   0  0  0  0  0  3  0  0  0  0  0  0
  188.1910  172.9430  140.6310 C   0  0  0  0  0  1  0  0  0  0  0  0
  191.1280  175.2860  146.6730 C   0  0  0  0  0  3  0  0  0  0  0  0
  190.4390  175.1810  145.5350 C   0  0  2  0  0  3  0  0  0  0  0  0
  189.0450  174.2070  140.5790 C   0  0  2  0  0  3  0  0  0  0  0  0
  186.6420  178.2030  141.7960 O   0  0  0  0  0  0  0  0  0  0  0  0
  184.4700  177.9160  142.3910 C   0  0  0  0  0  1  0  0  0  0  0  0
  185.6730  178.6860  142.6480 N   0  0  0  0  0  2  0  0  0  0  0  0
  1 19  2  0  0  0  0
  2 16  1  0  0  0  0
  2 13  2  0  0  0  0
  4 20  2  0  0  0  0
  4  1  1  0  0  0  0
  5  1  1  0  0  0  0
  6  8  2  0  0  0  0
  7 15  1  6  0  0  0
  7 27  1  0  0  0  0
  7  9  1  0  0  0  0
  8 12  1  0  0  0  0
  8 11  1  0  0  0  0
  9 22  1  0  0  0  0
 10  3  2  0  0  0  0
 11  5  2  0  0  0  0
 12  4  1  0  0  0  0
 13 18  1  0  0  0  0
 14  9  1  0  0  0  0
 15 23  1  0  0  0  0
 17  3  1  0  0  0  0
 17 26  1  0  0  0  0
 19 26  1  0  0  0  0
 19  2  1  0  0  0  0
 20 17  1  0  0  0  0
 21 10  1  0  0  0  0
 22 20  1  1  0  0  0
 22 10  1  0  0  0  0
 23 14  2  0  0  0  0
 25 18  2  0  0  0  0
 26 25  1  6  0  0  0
 27 24  1  1  0  0  0
 27 12  1  0  0  0  0
 28 11  1  0  0  0  0
 28 30  1  0  0  0  0
 29 30  1  0  0  0  0
M  END
>  <MODEL>
5

>  <REMARK>
 VINA RESULT:      -7.6      2.574      5.443
  Name = 
  2 active torsions:
  status: ('A' for Active; 'I' for Inactive)
    1  A    between atoms: C_11  and  O_28
    2  A    between atoms: O_28  and  N_30
                            x       y       z     vdW  Elec       q    Type
                         _______ _______ _______ _____ _____    ______ ____

>  <TORSDO>
F 2

$$$$
=
 OpenBabel11112416193D

 30 35  0  0  1  0  0  0  0  0999 V2000
  189.1670  174.8100  141.6340 C   0  0  0  0  0  0  0  0  0  0  0  0
  188.5160  173.2960  139.7150 C   0  0  2  0  0  3  0  0  0  0  0  0
  193.2850  174.1390  141.3840 C   0  0  0  0  0  3  0  0  0  0  0  0
  190.1230  175.4580  142.4930 C   0  0  0  0  0  0  0  0  0  0  0  0
  187.8190  175.1380  141.7770 C   0  0  0  0  0  3  0  0  0  0  0  0
  187.9250  177.4350  144.4670 O   0  0  0  0  0  0  0  0  0  0  0  0
  191.4550  175.8890  145.1830 C   0  0  1  0  0  3  0  0  0  0  0  0
  188.3320  176.6260  143.5850 C   0  0  0  0  0  0  0  0  0  0  0  0
  192.6460  175.6310  144.3860 N   0  0  0  0  0  0  0  0  0  0  0  0
  193.7580  174.9990  142.2780 C   0  0  0  0  0  0  0  0  0  0  0  0
  187.3940  176.0480  142.7320 C   0  0  0  0  0  0  0  0  0  0  0  0
  189.6670  176.3230  143.4810 N   0  0  0  0  0  0  0  0  0  0  0  0
  189.0330  172.0660  139.0130 C   0  0  0  0  0  3  0  0  0  0  0  0
  193.7830  175.9060  145.1900 C   0  0  0  0  0  3  0  0  0  0  0  0
  191.9670  176.3870  146.5320 C   0  0  0  0  0  2  0  0  0  0  0  0
  188.1320  174.3250  138.6650 C   0  0  0  0  0  1  0  0  0  0  0  0
  191.8720  174.2240  141.3570 N   0  0  0  0  0  0  0  0  0  0  0  0
  190.3250  171.7260  139.0130 C   0  0  0  0  0  3  0  0  0  0  0  0
  189.5230  173.8970  140.6840 C   0  0  0  0  0  0  0  0  0  0  0  0
  191.4480  175.1870  142.3010 C   0  0  0  0  0  0  0  0  0  0  0  0
  195.2150  175.2200  142.4840 C   0  0  0  0  0  1  0  0  0  0  0  0
  192.6620  175.8040  142.9340 C   0  0  1  0  0  3  0  0  0  0  0  0
  193.4490  176.3080  146.3990 C   0  0  0  0  0  3  0  0  0  0  0  0
  191.2120  178.1970  144.0340 C   0  0  0  0  0  1  0  0  0  0  0  0
  191.3210  172.5030  139.7680 C   0  0  0  0  0  3  0  0  0  0  0  0
  190.9430  173.5160  140.5510 C   0  0  0  0  0  0  0  0  0  0  0  0
  190.5340  176.9180  144.5150 C   0  0  2  0  0  3  0  0  0  0  0  0
  186.0410  176.3780  142.8550 O   0  0  0  0  0  0  0  0  0  0  0  0
  184.4580  178.0000  142.9820 C   0  0  0  0  0  1  0  0  0  0  0  0
  185.4830  177.4140  142.1390 N   0  0  0  0  0  2  0  0  0  0  0  0
  1  5  1  0  0  0  0
  1  4  1  0  0  0  0
  2 16  1  6  0  0  0
  2 19  1  0  0  0  0
  3 10  2  0  0  0  0
  4 12  1  0  0  0  0
  5 11  2  0  0  0  0
  7 15  1  1  0  0  0
  8  6  2  0  0  0  0
  9  7  1  0  0  0  0
  9 14  1  0  0  0  0
 10 21  1  0  0  0  0
 11 28  1  0  0  0  0
 11  8  1  0  0  0  0
 12  8  1  0  0  0  0
 12 27  1  0  0  0  0
 13  2  1  0  0  0  0
 14 23  2  0  0  0  0
 17  3  1  0  0  0  0
 17 20  1  0  0  0  0
 18 13  2  0  0  0  0
 18 25  1  0  0  0  0
 19  1  2  0  0  0  0
 20  4  2  0  0  0  0
 20 22  1  0  0  0  0
 22 10  1  6  0  0  0
 22  9  1  0  0  0  0
 23 15  1  0  0  0  0
 25 26  2  0  0  0  0
 26 19  1  0  0  0  0
 26 17  1  0  0  0  0
 27 24  1  6  0  0  0
 27  7  1  0  0  0  0
 30 28  1  0  0  0  0
 30 29  1  0  0  0  0
M  END
>  <MODEL>
6

>  <REMARK>
 VINA RESULT:      -7.6      2.652      7.062
  Name = 
  2 active torsions:
  status: ('A' for Active; 'I' for Inactive)
    1  A    between atoms: C_11  and  O_28
    2  A    between atoms: O_28  and  N_30
                            x       y       z     vdW  Elec       q    Type
                         _______ _______ _______ _____ _____    ______ ____

>  <TORSDO>
F 2

$$$$
=
 OpenBabel11112416193D

 30 35  0  0  1  0  0  0  0  0999 V2000
  188.6560  174.5360  141.4590 C   0  0  0  0  0  0  0  0  0  0  0  0
  189.8250  172.5710  140.3780 C   0  0  2  0  0  3  0  0  0  0  0  0
  190.0280  173.8160  145.3420 C   0  0  0  0  0  3  0  0  0  0  0  0
  188.3370  175.3850  142.5770 C   0  0  0  0  0  0  0  0  0  0  0  0
  188.1780  174.8920  140.1980 C   0  0  0  0  0  3  0  0  0  0  0  0
  186.3270  177.8170  140.9380 O   0  0  0  0  0  0  0  0  0  0  0  0
  186.4100  176.5080  144.6310 C   0  0  1  0  0  3  0  0  0  0  0  0
  187.0610  176.8030  141.1180 C   0  0  0  0  0  0  0  0  0  0  0  0
  187.4540  176.0480  145.5370 N   0  0  0  0  0  0  0  0  0  0  0  0
  189.5770  174.8800  145.9940 C   0  0  0  0  0  0  0  0  0  0  0  0
  187.3970  176.0220  140.0150 C   0  0  0  0  0  0  0  0  0  0  0  0
  187.5050  176.4810  142.3770 N   0  0  0  0  0  0  0  0  0  0  0  0
  190.3230  171.1990  140.7530 C   0  0  0  0  0  3  0  0  0  0  0  0
  187.1500  176.5220  146.8390 C   0  0  0  0  0  3  0  0  0  0  0  0
  185.4640  177.3430  145.4900 C   0  0  0  0  0  2  0  0  0  0  0  0
  190.9200  173.2870  139.6050 C   0  0  0  0  0  1  0  0  0  0  0  0
  189.6240  173.8930  143.9870 N   0  0  0  0  0  0  0  0  0  0  0  0
  190.6500  170.8680  142.0060 C   0  0  0  0  0  3  0  0  0  0  0  0
  189.4090  173.4040  141.5800 C   0  0  0  0  0  0  0  0  0  0  0  0
  188.8670  175.0720  143.7960 C   0  0  0  0  0  0  0  0  0  0  0  0
  189.9080  175.1450  147.4210 C   0  0  0  0  0  1  0  0  0  0  0  0
  188.8290  175.8320  145.0910 C   0  0  1  0  0  3  0  0  0  0  0  0
  186.0380  177.2290  146.8610 C   0  0  0  0  0  3  0  0  0  0  0  0
  187.9610  178.4320  143.8570 C   0  0  0  0  0  1  0  0  0  0  0  0
  190.4710  171.8160  143.1170 C   0  0  0  0  0  3  0  0  0  0  0  0
  189.8880  172.9990  142.9170 C   0  0  0  0  0  0  0  0  0  0  0  0
  186.9850  177.3260  143.4680 C   0  0  2  0  0  3  0  0  0  0  0  0
  186.9360  176.3750  138.7430 O   0  0  0  0  0  0  0  0  0  0  0  0
  186.2490  176.0400  136.6050 C   0  0  0  0  0  1  0  0  0  0  0  0
  187.1280  175.5550  137.6520 N   0  0  0  0  0  2  0  0  0  0  0  0
  1 19  2  0  0  0  0
  1  4  1  0  0  0  0
  2 16  1  1  0  0  0
  2 13  1  0  0  0  0
  2 19  1  0  0  0  0
  3 10  2  0  0  0  0
  4 20  2  0  0  0  0
  5  1  1  0  0  0  0
  6  8  2  0  0  0  0
  7 15  1  1  0  0  0
  7  9  1  0  0  0  0
  8 12  1  0  0  0  0
  9 14  1  0  0  0  0
 10 21  1  0  0  0  0
 11  5  2  0  0  0  0
 11  8  1  0  0  0  0
 12  4  1  0  0  0  0
 12 27  1  0  0  0  0
 13 18  2  0  0  0  0
 14 23  2  0  0  0  0
 15 23  1  0  0  0  0
 17  3  1  0  0  0  0
 18 25  1  0  0  0  0
 19 26  1  0  0  0  0
 20 17  1  0  0  0  0
 22 20  1  6  0  0  0
 22  9  1  0  0  0  0
 22 10  1  0  0  0  0
 26 25  2  0  0  0  0
 26 17  1  0  0  0  0
 27 24  1  1  0  0  0
 27  7  1  0  0  0  0
 28 11  1  0  0  0  0
 29 30  1  0  0  0  0
 30 28  1  0  0  0  0
M  END
>  <MODEL>
7

>  <REMARK>
 VINA RESULT:      -7.4      2.602      7.390
  Name = 
  2 active torsions:
  status: ('A' for Active; 'I' for Inactive)
    1  A    between atoms: C_11  and  O_28
    2  A    between atoms: O_28  and  N_30
                            x       y       z     vdW  Elec       q    Type
                         _______ _______ _______ _____ _____    ______ ____

>  <TORSDO>
F 2

$$$$
=
 OpenBabel11112416193D

 30 35  0  0  1  0  0  0  0  0999 V2000
  186.9870  176.9560  142.3570 C   0  0  0  0  0  0  0  0  0  0  0  0
  185.3110  178.7760  142.8840 C   0  0  2  0  0  3  0  0  0  0  0  0
  188.3720  176.4500  146.2680 C   0  0  0  0  0  3  0  0  0  0  0  0
  187.9810  175.9800  142.7200 C   0  0  0  0  0  0  0  0  0  0  0  0
  186.5670  177.0120  141.0280 C   0  0  0  0  0  3  0  0  0  0  0  0
  188.5910  174.5220  139.5360 O   0  0  0  0  0  0  0  0  0  0  0  0
  190.8220  174.9220  142.7330 C   0  0  1  0  0  3  0  0  0  0  0  0
  188.0970  175.2660  140.4300 C   0  0  0  0  0  0  0  0  0  0  0  0
  190.5760  174.9080  144.1680 N   0  0  0  0  0  0  0  0  0  0  0  0
  189.1820  175.4070  146.1400 C   0  0  0  0  0  0  0  0  0  0  0  0
  187.1010  176.1690  140.0670 C   0  0  0  0  0  0  0  0  0  0  0  0
  188.5430  175.1860  141.7270 N   0  0  0  0  0  0  0  0  0  0  0  0
  185.1070  179.8730  143.8970 C   0  0  0  0  0  3  0  0  0  0  0  0
  191.6610  174.2430  144.7970 C   0  0  0  0  0  3  0  0  0  0  0  0
  192.1350  174.1670  142.5380 C   0  0  0  0  0  2  0  0  0  0  0  0
  184.0080  178.0100  142.7320 C   0  0  0  0  0  1  0  0  0  0  0  0
  187.8230  176.7740  145.0040 N   0  0  0  0  0  0  0  0  0  0  0  0
  185.6390  179.8300  145.1220 C   0  0  0  0  0  3  0  0  0  0  0  0
  186.4340  177.8200  143.2570 C   0  0  0  0  0  0  0  0  0  0  0  0
  188.3370  175.8810  144.0350 C   0  0  0  0  0  0  0  0  0  0  0  0
  189.8480  174.7620  147.3040 C   0  0  0  0  0  1  0  0  0  0  0  0
  189.2240  174.8840  144.7240 C   0  0  1  0  0  3  0  0  0  0  0  0
  192.5620  173.8340  143.9270 C   0  0  0  0  0  3  0  0  0  0  0  0
  189.2210  172.9050  142.4620 C   0  0  0  0  0  1  0  0  0  0  0  0
  186.5260  178.7300  145.5330 C   0  0  0  0  0  3  0  0  0  0  0  0
  186.8990  177.7940  144.6580 C   0  0  0  0  0  0  0  0  0  0  0  0
  189.6750  174.2690  141.9510 C   0  0  2  0  0  3  0  0  0  0  0  0
  186.6600  176.2260  138.7410 O   0  0  0  0  0  0  0  0  0  0  0  0
  187.0500  176.4880  136.5190 C   0  0  0  0  0  1  0  0  0  0  0  0
  187.2270  177.0890  137.8280 N   0  0  0  0  0  2  0  0  0  0  0  0
  1  4  1  0  0  0  0
  1 19  2  0  0  0  0
  2 16  1  1  0  0  0
  2 19  1  0  0  0  0
  2 13  1  0  0  0  0
  4 20  2  0  0  0  0
  5  1  1  0  0  0  0
  6  8  2  0  0  0  0
  7 15  1  1  0  0  0
  7  9  1  0  0  0  0
  8 12  1  0  0  0  0
  9 22  1  0  0  0  0
  9 14  1  0  0  0  0
 10  3  2  0  0  0  0
 10 21  1  0  0  0  0
 11  8  1  0  0  0  0
 11  5  2  0  0  0  0
 12 27  1  0  0  0  0
 12  4  1  0  0  0  0
 13 18  2  0  0  0  0
 15 23  1  0  0  0  0
 17  3  1  0  0  0  0
 18 25  1  0  0  0  0
 19 26  1  0  0  0  0
 20 17  1  0  0  0  0
 22 20  1  6  0  0  0
 22 10  1  0  0  0  0
 23 14  2  0  0  0  0
 26 17  1  0  0  0  0
 26 25  2  0  0  0  0
 27 24  1  1  0  0  0
 27  7  1  0  0  0  0
 28 11  1  0  0  0  0
 29 30  1  0  0  0  0
 30 28  1  0  0  0  0
M  END
>  <MODEL>
8

>  <REMARK>
 VINA RESULT:      -7.3      2.502      5.479
  Name = 
  2 active torsions:
  status: ('A' for Active; 'I' for Inactive)
    1  A    between atoms: C_11  and  O_28
    2  A    between atoms: O_28  and  N_30
                            x       y       z     vdW  Elec       q    Type
                         _______ _______ _______ _____ _____    ______ ____

>  <TORSDO>
F 2

$$$$
=
 OpenBabel11112416193D

 30 35  0  0  1  0  0  0  0  0999 V2000
  189.1180  174.1720  141.5460 C   0  0  0  0  0  0  0  0  0  0  0  0
  190.6940  172.1980  141.6730 C   0  0  2  0  0  3  0  0  0  0  0  0
  189.4500  175.2950  145.5590 C   0  0  0  0  0  3  0  0  0  0  0  0
  188.4410  175.3140  142.1020 C   0  0  0  0  0  0  0  0  0  0  0  0
  188.9690  173.9120  140.1840 C   0  0  0  0  0  3  0  0  0  0  0  0
  186.7510  176.4900  139.2040 O   0  0  0  0  0  0  0  0  0  0  0  0
  185.9460  176.7650  143.0290 C   0  0  1  0  0  3  0  0  0  0  0  0
  187.4910  175.7840  139.9470 C   0  0  0  0  0  0  0  0  0  0  0  0
  186.7410  176.9000  144.2420 N   0  0  0  0  0  0  0  0  0  0  0  0
  188.7530  176.4230  145.5860 C   0  0  0  0  0  0  0  0  0  0  0  0
  188.1750  174.7120  139.3780 C   0  0  0  0  0  0  0  0  0  0  0  0
  187.6050  176.0680  141.2860 N   0  0  0  0  0  0  0  0  0  0  0  0
  191.1850  171.2010  142.6910 C   0  0  0  0  0  3  0  0  0  0  0  0
  186.0600  177.7780  145.1230 C   0  0  0  0  0  3  0  0  0  0  0  0
  184.7370  177.6760  143.2330 C   0  0  0  0  0  2  0  0  0  0  0  0
  191.8930  172.7480  140.9190 C   0  0  0  0  0  1  0  0  0  0  0  0
  189.4210  174.7600  144.2480 N   0  0  0  0  0  0  0  0  0  0  0  0
  191.1890  171.4520  144.0030 C   0  0  0  0  0  3  0  0  0  0  0  0
  189.9030  173.3410  142.2910 C   0  0  0  0  0  0  0  0  0  0  0  0
  188.6470  175.6060  143.4200 C   0  0  0  0  0  0  0  0  0  0  0  0
  188.6640  177.2810  146.8000 C   0  0  0  0  0  1  0  0  0  0  0  0
  188.1990  176.7890  144.2300 C   0  0  1  0  0  3  0  0  0  0  0  0
  184.9280  178.2160  144.6090 C   0  0  0  0  0  3  0  0  0  0  0  0
  187.4820  178.4890  141.8570 C   0  0  0  0  0  1  0  0  0  0  0  0
  190.6400  172.7070  144.5420 C   0  0  0  0  0  3  0  0  0  0  0  0
  190.0360  173.5860  143.7410 C   0  0  0  0  0  0  0  0  0  0  0  0
  186.7420  177.1570  141.7780 C   0  0  2  0  0  3  0  0  0  0  0  0
  188.0460  174.4480  138.0110 O   0  0  0  0  0  0  0  0  0  0  0  0
  189.4760  174.4230  136.2470 C   0  0  0  0  0  1  0  0  0  0  0  0
  188.9400  173.6390  137.3450 N   0  0  0  0  0  2  0  0  0  0  0  0
  1  4  1  0  0  0  0
  1 19  2  0  0  0  0
  2 16  1  1  0  0  0
  2 19  1  0  0  0  0
  2 13  1  0  0  0  0
  3 10  2  0  0  0  0
  4 20  2  0  0  0  0
  5  1  1  0  0  0  0
  6  8  2  0  0  0  0
  7 15  1  1  0  0  0
  7  9  1  0  0  0  0
  8 12  1  0  0  0  0
  9 14  1  0  0  0  0
 10 21  1  0  0  0  0
 11  8  1  0  0  0  0
 11  5  2  0  0  0  0
 12 27  1  0  0  0  0
 12  4  1  0  0  0  0
 13 18  2  0  0  0  0
 15 23  1  0  0  0  0
 17  3  1  0  0  0  0
 18 25  1  0  0  0  0
 19 26  1  0  0  0  0
 20 17  1  0  0  0  0
 22 20  1  6  0  0  0
 22  9  1  0  0  0  0
 22 10  1  0  0  0  0
 23 14  2  0  0  0  0
 26 17  1  0  0  0  0
 26 25  2  0  0  0  0
 27 24  1  1  0  0  0
 27  7  1  0  0  0  0
 28 11  1  0  0  0  0
 29 30  1  0  0  0  0
 30 28  1  0  0  0  0
M  END
>  <MODEL>
9

>  <REMARK>
 VINA RESULT:      -7.3      2.731      7.127
  Name = 
  2 active torsions:
  status: ('A' for Active; 'I' for Inactive)
    1  A    between atoms: C_11  and  O_28
    2  A    between atoms: O_28  and  N_30
                            x       y       z     vdW  Elec       q    Type
                         _______ _______ _______ _____ _____    ______ ____

>  <TORSDO>
F 2

$$$$
