=
 OpenBabel11112417063D

 31 35  0  0  1  0  0  0  0  0999 V2000
  190.6570  172.0230  142.2580 C   0  0  2  0  0  3  0  0  0  0  0  0
  191.6730  174.1360  145.3390 C   0  0  2  0  0  3  0  0  0  0  0  0
  192.7280  175.2060  145.5300 C   0  0  0  0  0  0  0  0  0  0  0  0
  194.8330  176.2440  144.8980 C   0  0  0  0  0  0  0  0  0  0  0  0
  191.4550  173.7750  143.8610 C   0  0  1  0  0  3  0  0  0  0  0  0
  189.7620  173.0480  141.5710 C   0  0  0  0  0  2  0  0  0  0  0  0
  193.8520  175.2710  144.6920 C   0  0  0  0  0  3  0  0  0  0  0  0
  189.5550  175.5590  145.2840 C   0  0  2  0  0  3  0  0  0  0  0  0
  190.0790  170.7590  142.1560 O   0  0  0  0  0  1  0  0  0  0  0  0
  191.5380  176.0340  147.4900 O   0  0  0  0  0  0  0  0  0  0  0  0
  196.0100  176.3120  143.9940 C   0  0  0  0  0  1  0  0  0  0  0  0
  189.2990  175.1120  143.8480 C   0  0  0  0  0  2  0  0  0  0  0  0
  190.3430  174.4830  146.0470 C   0  0  2  0  0  3  0  0  0  0  0  0
  190.8340  172.3830  143.7290 C   0  0  0  0  0  2  0  0  0  0  0  0
  194.7060  177.1530  145.9510 C   0  0  0  0  0  3  0  0  0  0  0  0
  190.6210  174.8440  143.1300 C   0  0  2  0  0  3  0  0  0  0  0  0
  190.3790  174.4430  141.6730 C   0  0  0  0  0  2  0  0  0  0  0  0
  190.6350  174.9280  147.4800 C   0  0  0  0  0  2  0  0  0  0  0  0
  192.6260  176.1020  146.6140 C   0  0  0  0  0  0  0  0  0  0  0  0
  193.6050  177.0810  146.8090 C   0  0  0  0  0  3  0  0  0  0  0  0
  188.8930  177.9130  146.7550 O   0  0  0  0  0  0  0  0  0  0  0  0
  188.0110  177.0140  146.6610 C   0  0  0  0  0  0  0  0  0  0  0  0
  188.2810  175.8080  145.9460 N   0  0  0  0  0  2  0  0  0  0  0  0
  184.8960  178.7470  145.5310 C   0  0  0  0  0  0  0  0  0  0  0  0
  185.5560  176.5390  146.4630 C   0  0  0  0  0  2  0  0  0  0  0  0
  186.8890  179.2390  148.5230 O   0  0  0  0  0  0  0  0  0  0  0  0
  184.1770  179.4430  144.7160 N   0  0  0  0  0  2  0  0  0  0  0  0
  185.2310  177.3280  145.1930 C   0  0  0  0  0  2  0  0  0  0  0  0
  186.3680  178.6550  147.5380 C   0  0  0  0  0  0  0  0  0  0  0  0
  186.6650  177.2040  147.2880 C   0  0  2  0  0  3  0  0  0  0  0  0
  185.5210  179.3870  146.6470 N   0  0  0  0  0  2  0  0  0  0  0  0
  1  9  1  1  0  0  0
  1 14  1  0  0  0  0
  2  3  1  6  0  0  0
  2 13  1  0  0  0  0
  3 19  1  0  0  0  0
  4 15  2  0  0  0  0
  5 14  1  1  0  0  0
  5  2  1  0  0  0  0
  6 17  1  0  0  0  0
  6  1  1  0  0  0  0
  7  4  1  0  0  0  0
  7  3  2  0  0  0  0
  8 23  1  1  0  0  0
  8 13  1  0  0  0  0
 11  4  1  0  0  0  0
 12  8  1  0  0  0  0
 13 18  1  1  0  0  0
 15 20  1  0  0  0  0
 16 17  1  6  0  0  0
 16 12  1  0  0  0  0
 16  5  1  0  0  0  0
 18 10  1  0  0  0  0
 19 20  2  0  0  0  0
 19 10  1  0  0  0  0
 22 21  2  0  0  0  0
 23 22  1  0  0  0  0
 24 31  1  0  0  0  0
 25 30  1  0  0  0  0
 27 24  2  0  0  0  0
 28 24  1  0  0  0  0
 28 25  1  0  0  0  0
 29 26  2  0  0  0  0
 30 22  1  6  0  0  0
 30 29  1  0  0  0  0
 31 29  1  0  0  0  0
M  END
>  <MODEL>
1

>  <REMARK>
 VINA RESULT:      -8.5      0.000      0.000
  Name = 
  2 active torsions:
  status: ('A' for Active; 'I' for Inactive)
    1  A    between atoms: C_5  and  C_30
    2  A    between atoms: C_10  and  N_16
                            x       y       z     vdW  Elec       q    Type
                         _______ _______ _______ _____ _____    ______ ____

>  <TORSDO>
F 2

$$$$
=
 OpenBabel11112417063D

 31 35  0  0  1  0  0  0  0  0999 V2000
  188.1670  174.0610  140.2560 C   0  0  2  0  0  3  0  0  0  0  0  0
  189.3110  176.3090  143.1920 C   0  0  2  0  0  3  0  0  0  0  0  0
  188.6700  176.6410  144.5240 C   0  0  0  0  0  0  0  0  0  0  0  0
  186.7000  176.8700  145.9280 C   0  0  0  0  0  0  0  0  0  0  0  0
  188.6100  175.1490  142.4680 C   0  0  1  0  0  3  0  0  0  0  0  0
  188.6090  172.7150  140.8210 C   0  0  0  0  0  2  0  0  0  0  0  0
  187.2830  176.5310  144.7050 C   0  0  0  0  0  3  0  0  0  0  0  0
  191.1520  174.7050  143.9380 C   0  0  2  0  0  3  0  0  0  0  0  0
  188.4510  174.1080  138.8930 O   0  0  0  0  0  1  0  0  0  0  0  0
  190.8420  177.3050  145.4090 O   0  0  0  0  0  0  0  0  0  0  0  0
  185.2320  176.7350  146.1130 C   0  0  0  0  0  1  0  0  0  0  0  0
  190.4950  173.5880  143.1320 C   0  0  0  0  0  2  0  0  0  0  0  0
  190.8350  176.0720  143.3120 C   0  0  2  0  0  3  0  0  0  0  0  0
  188.8990  175.1940  140.9670 C   0  0  0  0  0  2  0  0  0  0  0  0
  187.4960  177.3340  146.9780 C   0  0  0  0  0  3  0  0  0  0  0  0
  188.9810  173.7860  143.0820 C   0  0  2  0  0  3  0  0  0  0  0  0
  188.3070  172.6440  142.3180 C   0  0  0  0  0  2  0  0  0  0  0  0
  191.4590  177.2060  144.1260 C   0  0  0  0  0  2  0  0  0  0  0  0
  189.4620  177.1460  145.5750 C   0  0  0  0  0  0  0  0  0  0  0  0
  188.8750  177.4730  146.8010 C   0  0  0  0  0  3  0  0  0  0  0  0
  192.7150  174.3650  146.3000 O   0  0  0  0  0  0  0  0  0  0  0  0
  193.3150  174.3210  145.1910 C   0  0  0  0  0  0  0  0  0  0  0  0
  192.5930  174.4940  143.9710 N   0  0  0  0  0  2  0  0  0  0  0  0
  196.0680  175.8200  143.1520 C   0  0  0  0  0  0  0  0  0  0  0  0
  195.5870  175.3260  145.5410 C   0  0  0  0  0  2  0  0  0  0  0  0
  195.0290  172.3600  143.4900 O   0  0  0  0  0  0  0  0  0  0  0  0
  196.5620  176.6040  142.2540 N   0  0  0  0  0  2  0  0  0  0  0  0
  195.5790  176.3940  144.4450 C   0  0  0  0  0  2  0  0  0  0  0  0
  195.2200  173.5670  143.7900 C   0  0  0  0  0  0  0  0  0  0  0  0
  194.7910  174.0790  145.1360 C   0  0  2  0  0  3  0  0  0  0  0  0
  195.8180  174.4480  142.8350 N   0  0  0  0  0  2  0  0  0  0  0  0
  1  9  1  6  0  0  0
  1  6  1  0  0  0  0
  1 14  1  0  0  0  0
  2 13  1  0  0  0  0
  2  3  1  1  0  0  0
  3  7  2  0  0  0  0
  3 19  1  0  0  0  0
  4 11  1  0  0  0  0
  4 15  2  0  0  0  0
  5 14  1  6  0  0  0
  5 16  1  0  0  0  0
  5  2  1  0  0  0  0
  6 17  1  0  0  0  0
  7  4  1  0  0  0  0
  8 23  1  6  0  0  0
 10 19  1  0  0  0  0
 12  8  1  0  0  0  0
 13  8  1  0  0  0  0
 13 18  1  1  0  0  0
 16 17  1  6  0  0  0
 16 12  1  0  0  0  0
 18 10  1  0  0  0  0
 19 20  2  0  0  0  0
 20 15  1  0  0  0  0
 22 21  2  0  0  0  0
 23 22  1  0  0  0  0
 24 28  1  0  0  0  0
 26 29  2  0  0  0  0
 27 24  2  0  0  0  0
 28 25  1  0  0  0  0
 29 30  1  0  0  0  0
 30 22  1  6  0  0  0
 30 25  1  0  0  0  0
 31 24  1  0  0  0  0
 31 29  1  0  0  0  0
M  END
>  <MODEL>
2

>  <REMARK>
 VINA RESULT:      -8.0      3.276      7.121
  Name = 
  2 active torsions:
  status: ('A' for Active; 'I' for Inactive)
    1  A    between atoms: C_5  and  C_30
    2  A    between atoms: C_10  and  N_16
                            x       y       z     vdW  Elec       q    Type
                         _______ _______ _______ _____ _____    ______ ____

>  <TORSDO>
F 2

$$$$
=
 OpenBabel11112417063D

 31 35  0  0  1  0  0  0  0  0999 V2000
  191.3230  171.3800  141.6910 C   0  0  2  0  0  3  0  0  0  0  0  0
  191.7250  173.5860  144.8460 C   0  0  2  0  0  3  0  0  0  0  0  0
  192.7440  174.6440  145.2210 C   0  0  0  0  0  0  0  0  0  0  0  0
  194.9610  175.6180  145.0120 C   0  0  0  0  0  0  0  0  0  0  0  0
  191.8120  173.1750  143.3680 C   0  0  1  0  0  3  0  0  0  0  0  0
  190.6190  172.3960  140.7980 C   0  0  0  0  0  2  0  0  0  0  0  0
  194.0200  174.6560  144.6360 C   0  0  0  0  0  3  0  0  0  0  0  0
  189.7030  175.0470  144.3010 C   0  0  2  0  0  3  0  0  0  0  0  0
  190.7470  170.1240  141.5100 O   0  0  0  0  0  1  0  0  0  0  0  0
  191.1920  175.5650  146.8580 O   0  0  0  0  0  0  0  0  0  0  0  0
  196.3030  175.6300  144.3750 C   0  0  0  0  0  1  0  0  0  0  0  0
  189.7430  174.5510  142.8580 C   0  0  0  0  0  2  0  0  0  0  0  0
  190.2850  173.9840  145.2460 C   0  0  2  0  0  3  0  0  0  0  0  0
  191.1970  171.7920  143.1540 C   0  0  0  0  0  2  0  0  0  0  0  0
  194.6400  176.5670  145.9860 C   0  0  0  0  0  3  0  0  0  0  0  0
  191.1790  174.2320  142.4430 C   0  0  2  0  0  3  0  0  0  0  0  0
  191.2370  173.7820  140.9820 C   0  0  0  0  0  2  0  0  0  0  0  0
  190.2820  174.4770  146.6940 C   0  0  0  0  0  2  0  0  0  0  0  0
  192.4400  175.5810  146.2290 C   0  0  0  0  0  0  0  0  0  0  0  0
  193.3820  176.5480  146.5940 C   0  0  0  0  0  3  0  0  0  0  0  0
  188.7950  177.4990  145.4420 O   0  0  0  0  0  0  0  0  0  0  0  0
  187.9360  176.5980  145.2310 C   0  0  0  0  0  0  0  0  0  0  0  0
  188.3260  175.3430  144.6720 N   0  0  0  0  0  2  0  0  0  0  0  0
  185.6190  179.4650  144.6060 C   0  0  0  0  0  0  0  0  0  0  0  0
  185.6460  176.9990  144.2900 C   0  0  0  0  0  2  0  0  0  0  0  0
  186.5540  177.8530  147.7190 O   0  0  0  0  0  0  0  0  0  0  0  0
  185.3050  180.6400  144.1760 N   0  0  0  0  0  2  0  0  0  0  0  0
  185.8630  178.3600  143.6260 C   0  0  0  0  0  2  0  0  0  0  0  0
  186.3190  177.9960  146.4920 C   0  0  0  0  0  0  0  0  0  0  0  0
  186.4940  176.8330  145.5570 C   0  0  2  0  0  3  0  0  0  0  0  0
  185.9140  179.2740  145.9920 N   0  0  0  0  0  2  0  0  0  0  0  0
  1  9  1  1  0  0  0
  1 14  1  0  0  0  0
  2  3  1  6  0  0  0
  2 13  1  0  0  0  0
  3 19  1  0  0  0  0
  4 15  2  0  0  0  0
  5 14  1  1  0  0  0
  5  2  1  0  0  0  0
  6 17  1  0  0  0  0
  6  1  1  0  0  0  0
  7  4  1  0  0  0  0
  7  3  2  0  0  0  0
  8 23  1  1  0  0  0
  8 13  1  0  0  0  0
 11  4  1  0  0  0  0
 12  8  1  0  0  0  0
 13 18  1  1  0  0  0
 15 20  1  0  0  0  0
 16 17  1  6  0  0  0
 16 12  1  0  0  0  0
 16  5  1  0  0  0  0
 18 10  1  0  0  0  0
 19 20  2  0  0  0  0
 19 10  1  0  0  0  0
 22 21  2  0  0  0  0
 23 22  1  0  0  0  0
 24 31  1  0  0  0  0
 25 30  1  0  0  0  0
 27 24  2  0  0  0  0
 28 25  1  0  0  0  0
 28 24  1  0  0  0  0
 29 26  2  0  0  0  0
 30 22  1  6  0  0  0
 30 29  1  0  0  0  0
 31 29  1  0  0  0  0
M  END
>  <MODEL>
3

>  <REMARK>
 VINA RESULT:      -7.8      1.106      1.208
  Name = 
  2 active torsions:
  status: ('A' for Active; 'I' for Inactive)
    1  A    between atoms: C_5  and  C_30
    2  A    between atoms: C_10  and  N_16
                            x       y       z     vdW  Elec       q    Type
                         _______ _______ _______ _____ _____    ______ ____

>  <TORSDO>
F 2

$$$$
=
 OpenBabel11112417063D

 31 35  0  0  1  0  0  0  0  0999 V2000
  193.8600  176.7970  145.4910 C   0  0  2  0  0  3  0  0  0  0  0  0
  190.9210  175.9480  143.1180 C   0  0  2  0  0  3  0  0  0  0  0  0
  190.5510  174.6800  142.3760 C   0  0  0  0  0  0  0  0  0  0  0  0
  191.1720  172.5620  141.3590 C   0  0  0  0  0  0  0  0  0  0  0  0
  192.0280  175.7250  144.1610 C   0  0  1  0  0  3  0  0  0  0  0  0
  193.2920  176.1960  146.7720 C   0  0  0  0  0  2  0  0  0  0  0  0
  191.5210  173.7130  142.0700 C   0  0  0  0  0  3  0  0  0  0  0  0
  189.1830  175.9310  144.9880 C   0  0  2  0  0  3  0  0  0  0  0  0
  194.4910  178.0040  145.7830 O   0  0  0  0  0  1  0  0  0  0  0  0
  188.2530  175.4670  142.1690 O   0  0  0  0  0  0  0  0  0  0  0  0
  192.2050  171.5390  141.0540 C   0  0  0  0  0  1  0  0  0  0  0  0
  190.3020  175.8090  146.0180 C   0  0  0  0  0  2  0  0  0  0  0  0
  189.6900  176.6560  143.7320 C   0  0  2  0  0  3  0  0  0  0  0  0
  192.7410  177.0390  144.4830 C   0  0  0  0  0  2  0  0  0  0  0  0
  189.8540  172.3730  140.9360 C   0  0  0  0  0  3  0  0  0  0  0  0
  191.4860  175.0410  145.4310 C   0  0  2  0  0  3  0  0  0  0  0  0
  192.5940  174.8690  146.4710 C   0  0  0  0  0  2  0  0  0  0  0  0
  188.5890  176.7590  142.6750 C   0  0  0  0  0  2  0  0  0  0  0  0
  189.2310  174.5000  141.9150 C   0  0  0  0  0  0  0  0  0  0  0  0
  188.8850  173.3420  141.2120 C   0  0  0  0  0  3  0  0  0  0  0  0
  187.8400  175.2390  147.4080 O   0  0  0  0  0  0  0  0  0  0  0  0
  187.4450  176.2690  146.7930 C   0  0  0  0  0  0  0  0  0  0  0  0
  188.0680  176.6650  145.5710 N   0  0  0  0  0  2  0  0  0  0  0  0
  185.3660  179.0200  145.3460 C   0  0  0  0  0  0  0  0  0  0  0  0
  185.0220  176.8770  146.5590 C   0  0  0  0  0  2  0  0  0  0  0  0
  187.4260  178.9720  148.3330 O   0  0  0  0  0  0  0  0  0  0  0  0
  185.0060  179.8500  144.4270 N   0  0  0  0  0  2  0  0  0  0  0  0
  185.0500  177.5650  145.1930 C   0  0  0  0  0  2  0  0  0  0  0  0
  186.6880  178.5520  147.4050 C   0  0  0  0  0  0  0  0  0  0  0  0
  186.3240  177.0960  147.3410 C   0  0  2  0  0  3  0  0  0  0  0  0
  186.2250  179.4610  146.4020 N   0  0  0  0  0  2  0  0  0  0  0  0
  1  9  1  1  0  0  0
  1  6  1  0  0  0  0
  2  3  1  1  0  0  0
  2 13  1  0  0  0  0
  2  5  1  0  0  0  0
  4  7  2  0  0  0  0
  5 14  1  1  0  0  0
  5 16  1  0  0  0  0
  7  3  1  0  0  0  0
  8 23  1  1  0  0  0
  8 12  1  0  0  0  0
 10 18  1  0  0  0  0
 11  4  1  0  0  0  0
 13 18  1  6  0  0  0
 13  8  1  0  0  0  0
 14  1  1  0  0  0  0
 15 20  2  0  0  0  0
 15  4  1  0  0  0  0
 16 12  1  1  0  0  0
 16 17  1  0  0  0  0
 17  6  1  0  0  0  0
 19 10  1  0  0  0  0
 19  3  2  0  0  0  0
 20 19  1  0  0  0  0
 22 21  2  0  0  0  0
 23 22  1  0  0  0  0
 24 31  1  0  0  0  0
 25 30  1  0  0  0  0
 27 24  2  0  0  0  0
 28 24  1  0  0  0  0
 28 25  1  0  0  0  0
 29 26  2  0  0  0  0
 30 22  1  6  0  0  0
 30 29  1  0  0  0  0
 31 29  1  0  0  0  0
M  END
>  <MODEL>
4

>  <REMARK>
 VINA RESULT:      -7.7      1.667      4.551
  Name = 
  2 active torsions:
  status: ('A' for Active; 'I' for Inactive)
    1  A    between atoms: C_5  and  C_30
    2  A    between atoms: C_10  and  N_16
                            x       y       z     vdW  Elec       q    Type
                         _______ _______ _______ _____ _____    ______ ____

>  <TORSDO>
F 2

$$$$
=
 OpenBabel11112417063D

 31 35  0  0  1  0  0  0  0  0999 V2000
  185.4080  177.5860  142.9090 C   0  0  2  0  0  3  0  0  0  0  0  0
  188.1240  174.8810  142.3650 C   0  0  2  0  0  3  0  0  0  0  0  0
  188.8080  174.3690  141.1130 C   0  0  0  0  0  0  0  0  0  0  0  0
  188.8260  173.9890  138.7130 C   0  0  0  0  0  0  0  0  0  0  0  0
  187.3070  176.1590  142.1150 C   0  0  1  0  0  3  0  0  0  0  0  0
  186.3100  178.8150  142.8810 C   0  0  0  0  0  2  0  0  0  0  0  0
  188.1980  174.4930  139.8550 C   0  0  0  0  0  3  0  0  0  0  0  0
  189.9900  176.2960  143.3820 C   0  0  2  0  0  3  0  0  0  0  0  0
  184.4440  177.7390  143.9040 O   0  0  0  0  0  1  0  0  0  0  0  0
  190.6460  173.5110  142.4650 O   0  0  0  0  0  0  0  0  0  0  0  0
  188.1780  174.1390  137.3850 C   0  0  0  0  0  1  0  0  0  0  0  0
  189.1250  177.5420  143.2170 C   0  0  0  0  0  2  0  0  0  0  0  0
  189.1050  175.0510  143.5480 C   0  0  2  0  0  3  0  0  0  0  0  0
  186.2340  176.3350  143.1900 C   0  0  0  0  0  2  0  0  0  0  0  0
  190.0610  173.3460  138.8200 C   0  0  0  0  0  3  0  0  0  0  0  0
  188.2120  177.4010  142.0010 C   0  0  2  0  0  3  0  0  0  0  0  0
  187.3760  178.6660  141.7960 C   0  0  0  0  0  2  0  0  0  0  0  0
  189.9550  173.7870  143.6830 C   0  0  0  0  0  2  0  0  0  0  0  0
  190.0360  173.6860  141.2180 C   0  0  0  0  0  0  0  0  0  0  0  0
  190.6650  173.1930  140.0710 C   0  0  0  0  0  3  0  0  0  0  0  0
  192.8290  176.5630  143.3100 O   0  0  0  0  0  0  0  0  0  0  0  0
  192.2670  176.5930  144.4400 C   0  0  0  0  0  0  0  0  0  0  0  0
  190.8500  176.4550  144.5470 N   0  0  0  0  0  2  0  0  0  0  0  0
  195.3820  174.9730  145.7260 C   0  0  0  0  0  0  0  0  0  0  0  0
  194.4970  177.2680  145.3700 C   0  0  0  0  0  2  0  0  0  0  0  0
  192.0990  175.2550  147.2440 O   0  0  0  0  0  0  0  0  0  0  0  0
  196.3660  174.1390  145.6860 N   0  0  0  0  0  2  0  0  0  0  0  0
  195.3740  176.1510  144.8030 C   0  0  0  0  0  2  0  0  0  0  0  0
  193.0950  175.5410  146.5310 C   0  0  0  0  0  0  0  0  0  0  0  0
  193.0760  176.7830  145.6850 C   0  0  2  0  0  3  0  0  0  0  0  0
  194.2260  174.6650  146.5090 N   0  0  0  0  0  2  0  0  0  0  0  0
  1 14  1  0  0  0  0
  1  9  1  1  0  0  0
  2  3  1  6  0  0  0
  2 13  1  0  0  0  0
  3 19  1  0  0  0  0
  4 15  2  0  0  0  0
  4  7  1  0  0  0  0
  5  2  1  0  0  0  0
  5 14  1  1  0  0  0
  6  1  1  0  0  0  0
  7  3  2  0  0  0  0
  8 13  1  0  0  0  0
  8 23  1  1  0  0  0
 10 18  1  0  0  0  0
 11  4  1  0  0  0  0
 12  8  1  0  0  0  0
 13 18  1  6  0  0  0
 15 20  1  0  0  0  0
 16 17  1  1  0  0  0
 16  5  1  0  0  0  0
 16 12  1  0  0  0  0
 17  6  1  0  0  0  0
 19 10  1  0  0  0  0
 20 19  2  0  0  0  0
 21 22  2  0  0  0  0
 22 23  1  0  0  0  0
 24 31  1  0  0  0  0
 25 30  1  0  0  0  0
 27 24  2  0  0  0  0
 28 25  1  0  0  0  0
 28 24  1  0  0  0  0
 29 26  2  0  0  0  0
 30 22  1  6  0  0  0
 30 29  1  0  0  0  0
 31 29  1  0  0  0  0
M  END
>  <MODEL>
5

>  <REMARK>
 VINA RESULT:      -7.7      3.121      7.301
  Name = 
  2 active torsions:
  status: ('A' for Active; 'I' for Inactive)
    1  A    between atoms: C_5  and  C_30
    2  A    between atoms: C_10  and  N_16
                            x       y       z     vdW  Elec       q    Type
                         _______ _______ _______ _____ _____    ______ ____

>  <TORSDO>
F 2

$$$$
=
 OpenBabel11112417063D

 31 35  0  0  1  0  0  0  0  0999 V2000
  191.1290  171.1880  141.8820 C   0  0  2  0  0  3  0  0  0  0  0  0
  191.3390  173.6640  144.8500 C   0  0  2  0  0  3  0  0  0  0  0  0
  192.4820  174.4950  145.3990 C   0  0  0  0  0  0  0  0  0  0  0  0
  194.8610  174.8810  145.7110 C   0  0  0  0  0  0  0  0  0  0  0  0
  191.6620  173.0380  143.4850 C   0  0  1  0  0  3  0  0  0  0  0  0
  190.9500  172.2030  140.7580 C   0  0  0  0  0  2  0  0  0  0  0  0
  193.8170  174.1240  145.1740 C   0  0  0  0  0  3  0  0  0  0  0  0
  189.9620  175.4650  143.6770 C   0  0  2  0  0  3  0  0  0  0  0  0
  190.3030  170.0900  141.6530 O   0  0  0  0  0  1  0  0  0  0  0  0
  190.8850  175.9780  146.4890 O   0  0  0  0  0  0  0  0  0  0  0  0
  196.2700  174.4880  145.4530 C   0  0  0  0  0  1  0  0  0  0  0  0
  190.2110  174.7740  142.3400 C   0  0  0  0  0  2  0  0  0  0  0  0
  190.0030  174.4420  144.8220 C   0  0  2  0  0  3  0  0  0  0  0  0
  190.7730  171.8210  143.2230 C   0  0  0  0  0  2  0  0  0  0  0  0
  194.5800  176.0080  146.4880 C   0  0  0  0  0  3  0  0  0  0  0  0
  191.5670  174.0720  142.3460 C   0  0  2  0  0  3  0  0  0  0  0  0
  191.8490  173.4170  140.9920 C   0  0  0  0  0  2  0  0  0  0  0  0
  189.7870  175.1230  146.1750 C   0  0  0  0  0  2  0  0  0  0  0  0
  192.2060  175.6110  146.2140 C   0  0  0  0  0  0  0  0  0  0  0  0
  193.2550  176.3710  146.7400 C   0  0  0  0  0  3  0  0  0  0  0  0
  189.5510  178.2770  143.4270 O   0  0  0  0  0  0  0  0  0  0  0  0
  188.5280  177.5420  143.5090 C   0  0  0  0  0  0  0  0  0  0  0  0
  188.6650  176.1270  143.6450 N   0  0  0  0  0  2  0  0  0  0  0  0
  185.4570  177.0650  145.5880 C   0  0  0  0  0  0  0  0  0  0  0  0
  186.8370  178.9420  144.7220 C   0  0  0  0  0  2  0  0  0  0  0  0
  185.9450  176.6640  142.0150 O   0  0  0  0  0  0  0  0  0  0  0  0
  184.7610  176.5390  146.5390 N   0  0  0  0  0  2  0  0  0  0  0  0
  186.5470  178.0350  145.9190 C   0  0  0  0  0  2  0  0  0  0  0  0
  186.1080  177.0990  143.1840 C   0  0  0  0  0  0  0  0  0  0  0  0
  187.1570  178.1400  143.4540 C   0  0  2  0  0  3  0  0  0  0  0  0
  185.3120  176.5770  144.2510 N   0  0  0  0  0  2  0  0  0  0  0  0
  1  9  1  6  0  0  0
  1 14  1  0  0  0  0
  2  3  1  6  0  0  0
  3 19  1  0  0  0  0
  4 15  2  0  0  0  0
  5 14  1  6  0  0  0
  5  2  1  0  0  0  0
  6 17  1  0  0  0  0
  6  1  1  0  0  0  0
  7  3  2  0  0  0  0
  7  4  1  0  0  0  0
  8 23  1  6  0  0  0
  8 13  1  0  0  0  0
 11  4  1  0  0  0  0
 12 16  1  0  0  0  0
 12  8  1  0  0  0  0
 13  2  1  0  0  0  0
 13 18  1  1  0  0  0
 15 20  1  0  0  0  0
 16 17  1  6  0  0  0
 16  5  1  0  0  0  0
 18 10  1  0  0  0  0
 19 10  1  0  0  0  0
 19 20  2  0  0  0  0
 21 22  2  0  0  0  0
 22 23  1  0  0  0  0
 24 28  1  0  0  0  0
 24 27  2  0  0  0  0
 25 28  1  0  0  0  0
 26 29  2  0  0  0  0
 29 30  1  0  0  0  0
 29 31  1  0  0  0  0
 30 22  1  1  0  0  0
 30 25  1  0  0  0  0
 31 24  1  0  0  0  0
M  END
>  <MODEL>
6

>  <REMARK>
 VINA RESULT:      -7.5      1.997      2.500
  Name = 
  2 active torsions:
  status: ('A' for Active; 'I' for Inactive)
    1  A    between atoms: C_5  and  C_30
    2  A    between atoms: C_10  and  N_16
                            x       y       z     vdW  Elec       q    Type
                         _______ _______ _______ _____ _____    ______ ____

>  <TORSDO>
F 2

$$$$
=
 OpenBabel11112417063D

 31 35  0  0  1  0  0  0  0  0999 V2000
  188.3710  173.5020  139.4720 C   0  0  2  0  0  3  0  0  0  0  0  0
  188.6790  176.4660  141.9430 C   0  0  2  0  0  3  0  0  0  0  0  0
  187.6490  177.2070  142.7720 C   0  0  0  0  0  0  0  0  0  0  0  0
  185.3600  177.9290  143.1560 C   0  0  0  0  0  0  0  0  0  0  0  0
  188.1240  175.1760  141.3190 C   0  0  1  0  0  3  0  0  0  0  0  0
  188.3510  172.3660  140.4890 C   0  0  0  0  0  2  0  0  0  0  0  0
  186.2960  177.2170  142.4000 C   0  0  0  0  0  3  0  0  0  0  0  0
  189.8300  175.0740  143.7480 C   0  0  2  0  0  3  0  0  0  0  0  0
  189.1460  173.1310  138.3760 O   0  0  0  0  0  1  0  0  0  0  0  0
  189.4100  178.0050  144.2550 O   0  0  0  0  0  0  0  0  0  0  0  0
  183.9280  177.9200  142.7610 C   0  0  0  0  0  1  0  0  0  0  0  0
  189.3530  173.7990  143.0580 C   0  0  0  0  0  2  0  0  0  0  0  0
  189.9900  176.2070  142.7220 C   0  0  2  0  0  3  0  0  0  0  0  0
  188.9540  174.7620  140.1040 C   0  0  0  0  0  2  0  0  0  0  0  0
  185.7710  178.6470  144.2810 C   0  0  0  0  0  3  0  0  0  0  0  0
  188.0190  174.0400  142.3550 C   0  0  2  0  0  3  0  0  0  0  0  0
  187.5060  172.7550  141.7020 C   0  0  0  0  0  2  0  0  0  0  0  0
  190.4370  177.5030  143.4010 C   0  0  0  0  0  2  0  0  0  0  0  0
  188.0620  177.9640  143.8870 C   0  0  0  0  0  0  0  0  0  0  0  0
  187.1200  178.6660  144.6450 C   0  0  0  0  0  3  0  0  0  0  0  0
  190.3480  175.4600  146.5260 O   0  0  0  0  0  0  0  0  0  0  0  0
  191.2920  175.0250  145.8100 C   0  0  0  0  0  0  0  0  0  0  0  0
  191.1020  174.8190  144.4100 N   0  0  0  0  0  2  0  0  0  0  0  0
  194.8000  175.9170  144.8710 C   0  0  0  0  0  0  0  0  0  0  0  0
  193.3480  175.9760  146.8880 C   0  0  0  0  0  2  0  0  0  0  0  0
  193.2680  172.6640  145.3590 O   0  0  0  0  0  0  0  0  0  0  0  0
  195.7080  176.4630  144.1350 N   0  0  0  0  0  2  0  0  0  0  0  0
  193.9170  176.7800  145.7170 C   0  0  0  0  0  2  0  0  0  0  0  0
  193.4800  173.8970  145.4900 C   0  0  0  0  0  0  0  0  0  0  0  0
  192.6230  174.7090  146.4190 C   0  0  2  0  0  3  0  0  0  0  0  0
  194.5180  174.5220  144.7290 N   0  0  0  0  0  2  0  0  0  0  0  0
  1  9  1  6  0  0  0
  1 14  1  0  0  0  0
  1  6  1  0  0  0  0
  2 13  1  0  0  0  0
  2  3  1  1  0  0  0
  3 19  1  0  0  0  0
  4 15  2  0  0  0  0
  5 14  1  6  0  0  0
  5  2  1  0  0  0  0
  5 16  1  0  0  0  0
  6 17  1  0  0  0  0
  7  3  2  0  0  0  0
  7  4  1  0  0  0  0
  8 23  1  6  0  0  0
 11  4  1  0  0  0  0
 12  8  1  0  0  0  0
 13 18  1  1  0  0  0
 13  8  1  0  0  0  0
 15 20  1  0  0  0  0
 16 17  1  6  0  0  0
 16 12  1  0  0  0  0
 18 10  1  0  0  0  0
 19 10  1  0  0  0  0
 19 20  2  0  0  0  0
 22 21  2  0  0  0  0
 23 22  1  0  0  0  0
 24 28  1  0  0  0  0
 26 29  2  0  0  0  0
 27 24  2  0  0  0  0
 28 25  1  0  0  0  0
 29 30  1  0  0  0  0
 30 22  1  6  0  0  0
 30 25  1  0  0  0  0
 31 24  1  0  0  0  0
 31 29  1  0  0  0  0
M  END
>  <MODEL>
7

>  <REMARK>
 VINA RESULT:      -7.5      2.963      6.829
  Name = 
  2 active torsions:
  status: ('A' for Active; 'I' for Inactive)
    1  A    between atoms: C_5  and  C_30
    2  A    between atoms: C_10  and  N_16
                            x       y       z     vdW  Elec       q    Type
                         _______ _______ _______ _____ _____    ______ ____

>  <TORSDO>
F 2

$$$$
=
 OpenBabel11112417063D

 31 35  0  0  1  0  0  0  0  0999 V2000
  186.2240  177.1430  142.8460 C   0  0  2  0  0  3  0  0  0  0  0  0
  188.2870  174.0480  141.7720 C   0  0  2  0  0  3  0  0  0  0  0  0
  188.9450  173.6740  140.4590 C   0  0  0  0  0  0  0  0  0  0  0  0
  189.0910  173.8410  138.0390 C   0  0  0  0  0  0  0  0  0  0  0  0
  187.8100  175.5080  141.8030 C   0  0  1  0  0  3  0  0  0  0  0  0
  187.3820  178.0900  143.1400 C   0  0  0  0  0  2  0  0  0  0  0  0
  188.4960  174.2170  139.2460 C   0  0  0  0  0  3  0  0  0  0  0  0
  190.3280  174.7050  143.1580 C   0  0  2  0  0  3  0  0  0  0  0  0
  185.2360  177.3020  143.8150 O   0  0  0  0  0  1  0  0  0  0  0  0
  190.4090  172.1180  141.6320 O   0  0  0  0  0  0  0  0  0  0  0  0
  188.6170  174.4350  136.7620 C   0  0  0  0  0  1  0  0  0  0  0  0
  189.7900  176.1280  143.2620 C   0  0  0  0  0  2  0  0  0  0  0  0
  189.1700  173.7070  142.9950 C   0  0  2  0  0  3  0  0  0  0  0  0
  186.7140  175.6980  142.8520 C   0  0  0  0  0  2  0  0  0  0  0  0
  190.1320  172.9100  138.0330 C   0  0  0  0  0  3  0  0  0  0  0  0
  188.9820  176.4860  142.0160 C   0  0  2  0  0  3  0  0  0  0  0  0
  188.4790  177.9300  142.0880 C   0  0  0  0  0  2  0  0  0  0  0  0
  189.6930  172.2770  142.8560 C   0  0  0  0  0  2  0  0  0  0  0  0
  189.9710  172.7070  140.4420 C   0  0  0  0  0  0  0  0  0  0  0  0
  190.5700  172.3420  139.2330 C   0  0  0  0  0  3  0  0  0  0  0  0
  193.0580  173.8790  143.1990 O   0  0  0  0  0  0  0  0  0  0  0  0
  192.4630  173.9890  144.3070 C   0  0  0  0  0  0  0  0  0  0  0  0
  191.0930  174.3880  144.3560 N   0  0  0  0  0  2  0  0  0  0  0  0
  196.0640  174.1930  145.2940 C   0  0  0  0  0  0  0  0  0  0  0  0
  193.8610  174.9710  146.1440 C   0  0  0  0  0  2  0  0  0  0  0  0
  193.7590  171.3940  145.4320 O   0  0  0  0  0  0  0  0  0  0  0  0
  197.3200  174.4090  145.0910 N   0  0  0  0  0  2  0  0  0  0  0  0
  195.1150  175.3490  145.3540 C   0  0  0  0  0  2  0  0  0  0  0  0
  194.1690  172.5830  145.4380 C   0  0  0  0  0  0  0  0  0  0  0  0
  193.1870  173.7100  145.5880 C   0  0  2  0  0  3  0  0  0  0  0  0
  195.5640  172.8530  145.2710 N   0  0  0  0  0  2  0  0  0  0  0  0
  1 14  1  0  0  0  0
  1  6  1  0  0  0  0
  1  9  1  1  0  0  0
  2  3  1  6  0  0  0
  2  5  1  0  0  0  0
  2 13  1  0  0  0  0
  4  7  1  0  0  0  0
  5 16  1  0  0  0  0
  5 14  1  1  0  0  0
  7  3  2  0  0  0  0
  8 12  1  0  0  0  0
  8 23  1  1  0  0  0
 10 18  1  0  0  0  0
 11  4  1  0  0  0  0
 13 18  1  6  0  0  0
 13  8  1  0  0  0  0
 15  4  2  0  0  0  0
 15 20  1  0  0  0  0
 16 17  1  1  0  0  0
 16 12  1  0  0  0  0
 17  6  1  0  0  0  0
 19  3  1  0  0  0  0
 19 10  1  0  0  0  0
 20 19  2  0  0  0  0
 21 22  2  0  0  0  0
 22 23  1  0  0  0  0
 24 28  1  0  0  0  0
 26 29  2  0  0  0  0
 27 24  2  0  0  0  0
 28 25  1  0  0  0  0
 29 30  1  0  0  0  0
 30 22  1  6  0  0  0
 30 25  1  0  0  0  0
 31 24  1  0  0  0  0
 31 29  1  0  0  0  0
M  END
>  <MODEL>
8

>  <REMARK>
 VINA RESULT:      -7.5      3.484      7.876
  Name = 
  2 active torsions:
  status: ('A' for Active; 'I' for Inactive)
    1  A    between atoms: C_5  and  C_30
    2  A    between atoms: C_10  and  N_16
                            x       y       z     vdW  Elec       q    Type
                         _______ _______ _______ _____ _____    ______ ____

>  <TORSDO>
F 2

$$$$
=
 OpenBabel11112417063D

 31 35  0  0  1  0  0  0  0  0999 V2000
  188.1780  173.6120  140.4010 C   0  0  2  0  0  3  0  0  0  0  0  0
  189.6980  176.0800  142.9680 C   0  0  2  0  0  3  0  0  0  0  0  0
  189.2360  176.5280  144.3400 C   0  0  0  0  0  0  0  0  0  0  0  0
  187.4660  176.8930  145.9650 C   0  0  0  0  0  0  0  0  0  0  0  0
  188.9070  174.8730  142.4400 C   0  0  1  0  0  3  0  0  0  0  0  0
  188.6890  172.3130  141.0140 C   0  0  0  0  0  2  0  0  0  0  0  0
  187.8840  176.4490  144.7080 C   0  0  0  0  0  3  0  0  0  0  0  0
  191.6190  174.5210  143.5980 C   0  0  2  0  0  3  0  0  0  0  0  0
  188.2810  173.5450  139.0140 O   0  0  0  0  0  1  0  0  0  0  0  0
  191.5050  177.2370  144.8770 O   0  0  0  0  0  0  0  0  0  0  0  0
  186.0350  176.7910  146.3490 C   0  0  0  0  0  1  0  0  0  0  0  0
  190.8610  173.3490  142.9790 C   0  0  0  0  0  2  0  0  0  0  0  0
  191.2240  175.8360  142.9080 C   0  0  2  0  0  3  0  0  0  0  0  0
  188.9970  174.7920  140.9150 C   0  0  0  0  0  2  0  0  0  0  0  0
  188.3940  177.4330  146.8600 C   0  0  0  0  0  3  0  0  0  0  0  0
  189.3540  173.5600  143.1100 C   0  0  2  0  0  3  0  0  0  0  0  0
  188.5850  172.3680  142.5380 C   0  0  0  0  0  2  0  0  0  0  0  0
  191.9500  177.0260  143.5370 C   0  0  0  0  0  2  0  0  0  0  0  0
  190.1600  177.1070  145.2340 C   0  0  0  0  0  0  0  0  0  0  0  0
  189.7380  177.5410  146.4940 C   0  0  0  0  0  3  0  0  0  0  0  0
  193.3110  173.3990  145.6020 O   0  0  0  0  0  0  0  0  0  0  0  0
  193.8410  173.7210  144.5020 C   0  0  0  0  0  0  0  0  0  0  0  0
  193.0510  174.2960  143.4600 N   0  0  0  0  0  2  0  0  0  0  0  0
  196.1840  170.9770  145.4830 C   0  0  0  0  0  0  0  0  0  0  0  0
  195.5560  172.2350  143.4330 C   0  0  0  0  0  2  0  0  0  0  0  0
  196.3500  174.5400  146.1480 O   0  0  0  0  0  0  0  0  0  0  0  0
  196.5060  169.8650  146.0530 N   0  0  0  0  0  2  0  0  0  0  0  0
  195.3450  170.9550  144.2430 C   0  0  0  0  0  2  0  0  0  0  0  0
  196.0720  173.4640  145.5590 C   0  0  0  0  0  0  0  0  0  0  0  0
  195.3020  173.4960  144.2690 C   0  0  2  0  0  3  0  0  0  0  0  0
  196.4660  172.2160  146.1380 N   0  0  0  0  0  2  0  0  0  0  0  0
  1  9  1  6  0  0  0
  1 14  1  0  0  0  0
  1  6  1  0  0  0  0
  2  3  1  1  0  0  0
  3  7  2  0  0  0  0
  3 19  1  0  0  0  0
  4 11  1  0  0  0  0
  4 15  2  0  0  0  0
  5 14  1  6  0  0  0
  5  2  1  0  0  0  0
  5 16  1  0  0  0  0
  6 17  1  0  0  0  0
  7  4  1  0  0  0  0
  8 23  1  6  0  0  0
 10 19  1  0  0  0  0
 12 16  1  0  0  0  0
 12  8  1  0  0  0  0
 13  2  1  0  0  0  0
 13 18  1  1  0  0  0
 13  8  1  0  0  0  0
 16 17  1  6  0  0  0
 18 10  1  0  0  0  0
 19 20  2  0  0  0  0
 20 15  1  0  0  0  0
 22 21  2  0  0  0  0
 23 22  1  0  0  0  0
 24 27  2  0  0  0  0
 24 31  1  0  0  0  0
 25 28  1  0  0  0  0
 25 30  1  0  0  0  0
 28 24  1  0  0  0  0
 29 31  1  0  0  0  0
 29 26  2  0  0  0  0
 30 22  1  1  0  0  0
 30 29  1  0  0  0  0
M  END
>  <MODEL>
9

>  <REMARK>
 VINA RESULT:      -7.3      3.667      7.535
  Name = 
  2 active torsions:
  status: ('A' for Active; 'I' for Inactive)
    1  A    between atoms: C_5  and  C_30
    2  A    between atoms: C_10  and  N_16
                            x       y       z     vdW  Elec       q    Type
                         _______ _______ _______ _____ _____    ______ ____

>  <TORSDO>
F 2

$$$$
