=
 OpenBabel11112416293D

 32 37  0  0  1  0  0  0  0  0999 V2000
  186.1720  178.3480  141.6830 C   0  0  0  0  0  2  0  0  0  0  0  0
  190.2260  175.9910  143.9070 C   0  0  1  0  0  3  0  0  0  0  0  0
  190.3050  177.8560  148.5330 C   0  0  0  0  0  3  0  0  0  0  0  0
  191.5780  177.3190  148.7230 C   0  0  0  0  0  3  0  0  0  0  0  0
  192.5210  175.3970  142.8290 C   0  0  0  0  0  0  0  0  0  0  0  0
  193.9820  175.3800  143.0930 C   0  0  2  0  0  3  0  0  0  0  0  0
  188.0660  176.0340  142.6780 C   0  0  1  0  0  3  0  0  0  0  0  0
  188.1150  176.7990  144.9470 C   0  0  0  0  0  2  0  0  0  0  0  0
  195.6060  174.5280  144.2680 N   0  0  0  0  0  0  0  0  0  0  0  0
  186.0820  176.8650  143.7740 C   0  0  0  0  0  2  0  0  0  0  0  0
  189.6730  177.7310  147.2950 C   0  0  0  0  0  3  0  0  0  0  0  0
  189.6260  177.0210  144.8770 C   0  0  1  0  0  3  0  0  0  0  0  0
  190.2970  177.0530  146.2360 C   0  0  0  0  0  0  0  0  0  0  0  0
  192.2780  175.7700  145.3150 C   0  0  2  0  0  3  0  0  0  0  0  0
  195.8900  174.3780  142.8800 C   0  0  0  0  0  2  0  0  0  0  0  0
  187.1340  177.5360  140.8000 C   0  0  0  0  0  2  0  0  0  0  0  0
  187.5280  177.0290  143.6270 N   0  0  2  0  0  0  0  0  0  0  0  0
  194.9110  174.7930  142.1410 N   0  0  0  0  0  2  0  0  0  0  0  0
  187.4090  176.1090  141.2910 C   0  0  0  0  0  2  0  0  0  0  0  0
  185.2960  177.4840  142.6040 C   0  0  1  0  0  3  0  0  0  0  0  0
  192.2250  176.6670  147.6720 C   0  0  0  0  0  3  0  0  0  0  0  0
  191.6110  176.5560  146.4150 C   0  0  0  0  0  0  0  0  0  0  0  0
  193.8280  175.6950  145.3860 C   0  0  0  0  0  2  0  0  0  0  0  0
  189.5810  176.2000  142.5380 C   0  0  0  0  0  2  0  0  0  0  0  0
  192.0150  174.8730  141.8490 O   0  0  0  0  0  0  0  0  0  0  0  0
  196.3650  173.8370  145.2930 C   0  0  0  0  0  1  0  0  0  0  0  0
  191.7460  176.1490  143.9010 C   0  0  2  0  0  3  0  0  0  0  0  0
  194.2290  174.7360  144.3640 N   0  0  1  0  0  0  0  0  0  0  0  0
  184.1410  178.2990  143.1590 C   0  0  0  0  0  2  0  0  0  0  0  0
  184.5590  179.0460  144.3800 C   0  0  0  0  0  0  0  0  0  0  0  0
  185.4450  180.1090  144.2750 O   0  0  0  0  0  0  0  0  0  0  0  0
  184.0860  178.7320  145.5030 O   0  0  0  0  0  1  0  0  0  0  0  0
  1 20  1  0  0  0  0
  2 24  1  6  0  0  0
  2 12  1  0  0  0  0
  3  4  1  0  0  0  0
  5  6  1  0  0  0  0
  6 18  1  6  0  0  0
  6 28  1  0  0  0  0
  7 19  1  6  0  0  0
  7 17  1  0  0  0  0
  9 28  1  0  0  0  0
  9 26  1  0  0  0  0
 11  3  2  0  0  0  0
 12  8  1  1  0  0  0
 12 13  1  0  0  0  0
 13 22  2  0  0  0  0
 13 11  1  0  0  0  0
 14 23  1  6  0  0  0
 14 22  1  0  0  0  0
 15  9  1  0  0  0  0
 16 19  1  0  0  0  0
 16  1  1  0  0  0  0
 17 10  1  1  0  0  0
 17  8  1  0  0  0  0
 18 15  1  0  0  0  0
 20 29  1  1  0  0  0
 20 10  1  0  0  0  0
 21  4  2  0  0  0  0
 22 21  1  0  0  0  0
 24  7  1  0  0  0  0
 25  5  2  0  0  0  0
 27  5  1  6  0  0  0
 27  2  1  0  0  0  0
 27 14  1  0  0  0  0
 28 23  1  1  0  0  0
 29 30  1  0  0  0  0
 30 32  1  0  0  0  0
 31 30  2  0  0  0  0
M  END
>  <MODEL>
1

>  <REMARK>
 VINA RESULT:      -8.5      0.000      0.000
  Name = 
  2 active torsions:
  status: ('A' for Active; 'I' for Inactive)
    1  A    between atoms: C_20  and  C_29
    2  A    between atoms: C_29  and  C_30
                            x       y       z     vdW  Elec       q    Type
                         _______ _______ _______ _____ _____    ______ ____

>  <TORSDO>
F 2

$$$$
=
 OpenBabel11112416293D

 32 37  0  0  1  0  0  0  0  0999 V2000
  194.5720  175.1650  145.6540 C   0  0  0  0  0  2  0  0  0  0  0  0
  189.6610  175.5630  144.0220 C   0  0  1  0  0  3  0  0  0  0  0  0
  189.7640  173.6140  139.4310 C   0  0  0  0  0  3  0  0  0  0  0  0
  188.4910  174.1320  139.1880 C   0  0  0  0  0  3  0  0  0  0  0  0
  187.9860  177.5110  144.4460 C   0  0  0  0  0  0  0  0  0  0  0  0
  186.9370  178.3320  143.7900 C   0  0  2  0  0  3  0  0  0  0  0  0
  191.4350  174.8650  145.6170 C   0  0  1  0  0  3  0  0  0  0  0  0
  191.3730  173.8510  143.4470 C   0  0  0  0  0  2  0  0  0  0  0  0
  184.9630  178.3590  142.8690 N   0  0  0  0  0  0  0  0  0  0  0  0
  193.0650  173.2140  144.9460 C   0  0  0  0  0  2  0  0  0  0  0  0
  190.4060  173.8810  140.6410 C   0  0  0  0  0  3  0  0  0  0  0  0
  190.5420  175.0080  142.8920 C   0  0  1  0  0  3  0  0  0  0  0  0
  189.7790  174.6550  141.6310 C   0  0  0  0  0  0  0  0  0  0  0  0
  187.7890  176.0050  142.4280 C   0  0  2  0  0  3  0  0  0  0  0  0
  185.0160  179.3250  143.9140 C   0  0  0  0  0  2  0  0  0  0  0  0
  193.5810  176.0050  146.4790 C   0  0  0  0  0  2  0  0  0  0  0  0
  192.2560  174.3500  144.5020 N   0  0  2  0  0  0  0  0  0  0  0  0
  186.1440  179.2860  144.5490 N   0  0  0  0  0  2  0  0  0  0  0  0
  192.2710  175.2890  146.8330 C   0  0  0  0  0  2  0  0  0  0  0  0
  194.3160  173.6530  145.7290 C   0  0  1  0  0  3  0  0  0  0  0  0
  187.8650  174.9270  140.1490 C   0  0  0  0  0  3  0  0  0  0  0  0
  188.5110  175.2240  141.3600 C   0  0  0  0  0  0  0  0  0  0  0  0
  186.6880  176.9770  141.9230 C   0  0  0  0  0  2  0  0  0  0  0  0
  190.5790  176.0420  145.1450 C   0  0  0  0  0  2  0  0  0  0  0  0
  188.1990  177.5400  145.6480 O   0  0  0  0  0  0  0  0  0  0  0  0
  183.7160  177.9600  142.2440 C   0  0  0  0  0  1  0  0  0  0  0  0
  188.7630  176.6600  143.4520 C   0  0  2  0  0  3  0  0  0  0  0  0
  186.0020  177.4580  143.1160 N   0  0  1  0  0  0  0  0  0  0  0  0
  195.5190  172.8830  145.2120 C   0  0  0  0  0  2  0  0  0  0  0  0
  196.7890  173.5490  145.6190 C   0  0  0  0  0  0  0  0  0  0  0  0
  197.5440  174.2380  144.6790 O   0  0  0  0  0  0  0  0  0  0  0  0
  197.1620  173.5140  146.8200 O   0  0  0  0  0  1  0  0  0  0  0  0
  1 20  1  0  0  0  0
  1 16  1  0  0  0  0
  2 24  1  1  0  0  0
  3 11  1  0  0  0  0
  4  3  2  0  0  0  0
  4 21  1  0  0  0  0
  5 25  2  0  0  0  0
  6  5  1  1  0  0  0
  6 18  1  0  0  0  0
  7 24  1  6  0  0  0
  7 19  1  0  0  0  0
  9 28  1  0  0  0  0
  9 15  1  0  0  0  0
 10 20  1  0  0  0  0
 11 13  2  0  0  0  0
 12  8  1  1  0  0  0
 12  2  1  0  0  0  0
 13 12  1  0  0  0  0
 14 23  1  6  0  0  0
 14 27  1  0  0  0  0
 15 18  1  0  0  0  0
 16 19  1  0  0  0  0
 17  8  1  6  0  0  0
 17 10  1  0  0  0  0
 17  7  1  0  0  0  0
 20 29  1  6  0  0  0
 21 22  2  0  0  0  0
 22 13  1  0  0  0  0
 22 14  1  0  0  0  0
 26  9  1  0  0  0  0
 27  2  1  0  0  0  0
 27  5  1  1  0  0  0
 28 23  1  6  0  0  0
 28  6  1  0  0  0  0
 29 30  1  0  0  0  0
 30 32  1  0  0  0  0
 31 30  2  0  0  0  0
M  END
>  <MODEL>
2

>  <REMARK>
 VINA RESULT:      -8.4      2.566      8.824
  Name = 
  2 active torsions:
  status: ('A' for Active; 'I' for Inactive)
    1  A    between atoms: C_20  and  C_29
    2  A    between atoms: C_29  and  C_30
                            x       y       z     vdW  Elec       q    Type
                         _______ _______ _______ _____ _____    ______ ____

>  <TORSDO>
F 2

$$$$
=
 OpenBabel11112416293D

 32 37  0  0  1  0  0  0  0  0999 V2000
  183.7040  177.9160  142.7570 C   0  0  0  0  0  2  0  0  0  0  0  0
  188.7660  176.7690  142.8100 C   0  0  1  0  0  3  0  0  0  0  0  0
  189.1580  172.9330  139.6460 C   0  0  0  0  0  3  0  0  0  0  0  0
  190.4520  172.6900  140.1090 C   0  0  0  0  0  3  0  0  0  0  0  0
  190.3930  176.8000  144.8430 C   0  0  0  0  0  0  0  0  0  0  0  0
  191.5110  176.0550  145.4740 C   0  0  2  0  0  3  0  0  0  0  0  0
  186.8240  178.2990  142.5410 C   0  0  1  0  0  3  0  0  0  0  0  0
  187.1190  176.5230  140.9610 C   0  0  0  0  0  2  0  0  0  0  0  0
  193.5740  175.3790  145.2940 N   0  0  0  0  0  0  0  0  0  0  0  0
  185.2710  177.9520  140.7260 C   0  0  0  0  0  2  0  0  0  0  0  0
  188.3880  173.9430  140.2260 C   0  0  0  0  0  3  0  0  0  0  0  0
  188.0110  175.7550  141.9370 C   0  0  1  0  0  3  0  0  0  0  0  0
  188.9070  174.7340  141.2630 C   0  0  0  0  0  0  0  0  0  0  0  0
  190.8040  175.3240  142.8360 C   0  0  2  0  0  3  0  0  0  0  0  0
  193.4110  176.0970  146.5130 C   0  0  0  0  0  2  0  0  0  0  0  0
  184.6020  178.5700  143.8210 C   0  0  0  0  0  2  0  0  0  0  0  0
  186.1290  177.2940  141.7120 N   0  0  2  0  0  0  0  0  0  0  0  0
  192.2200  176.5930  146.6240 N   0  0  0  0  0  2  0  0  0  0  0  0
  185.8620  179.2490  143.2690 C   0  0  0  0  0  2  0  0  0  0  0  0
  183.9440  178.4420  141.3330 C   0  0  1  0  0  3  0  0  0  0  0  0
  190.9720  173.4480  141.1580 C   0  0  0  0  0  3  0  0  0  0  0  0
  190.1990  174.4500  141.7670 C   0  0  0  0  0  0  0  0  0  0  0  0
  191.9570  174.6850  143.6560 C   0  0  0  0  0  2  0  0  0  0  0  0
  187.7320  177.6070  143.5610 C   0  0  0  0  0  2  0  0  0  0  0  0
  190.0500  177.9160  145.2030 O   0  0  0  0  0  0  0  0  0  0  0  0
  194.8800  175.0290  144.7680 C   0  0  0  0  0  1  0  0  0  0  0  0
  189.7260  176.0110  143.7270 C   0  0  2  0  0  3  0  0  0  0  0  0
  192.5110  175.7590  144.4710 N   0  0  1  0  0  0  0  0  0  0  0  0
  182.8010  178.0390  140.4170 C   0  0  0  0  0  2  0  0  0  0  0  0
  181.5100  178.6040  140.9010 C   0  0  0  0  0  0  0  0  0  0  0  0
  181.1210  179.8790  140.5130 O   0  0  0  0  0  0  0  0  0  0  0  0
  180.7560  177.9160  141.6380 O   0  0  0  0  0  1  0  0  0  0  0  0
  1 16  1  0  0  0  0
  2 24  1  1  0  0  0
  2 27  1  0  0  0  0
  3  4  2  0  0  0  0
  3 11  1  0  0  0  0
  4 21  1  0  0  0  0
  5 25  2  0  0  0  0
  6  5  1  6  0  0  0
  6 18  1  0  0  0  0
  7 19  1  1  0  0  0
  7 24  1  0  0  0  0
  8 17  1  0  0  0  0
  9 15  1  0  0  0  0
 10 20  1  0  0  0  0
 11 13  2  0  0  0  0
 12  8  1  6  0  0  0
 12  2  1  0  0  0  0
 13 22  1  0  0  0  0
 13 12  1  0  0  0  0
 14 23  1  1  0  0  0
 14 27  1  0  0  0  0
 15 18  1  0  0  0  0
 17 10  1  6  0  0  0
 17  7  1  0  0  0  0
 19 16  1  0  0  0  0
 20 29  1  6  0  0  0
 20  1  1  0  0  0  0
 21 22  2  0  0  0  0
 22 14  1  0  0  0  0
 26  9  1  0  0  0  0
 27  5  1  1  0  0  0
 28 23  1  6  0  0  0
 28  9  1  0  0  0  0
 28  6  1  0  0  0  0
 29 30  1  0  0  0  0
 30 32  1  0  0  0  0
 31 30  2  0  0  0  0
M  END
>  <MODEL>
3

>  <REMARK>
 VINA RESULT:      -8.4      2.574      4.726
  Name = 
  2 active torsions:
  status: ('A' for Active; 'I' for Inactive)
    1  A    between atoms: C_20  and  C_29
    2  A    between atoms: C_29  and  C_30
                            x       y       z     vdW  Elec       q    Type
                         _______ _______ _______ _____ _____    ______ ____

>  <TORSDO>
F 2

$$$$
=
 OpenBabel11112416293D

 32 37  0  0  1  0  0  0  0  0999 V2000
  189.4700  172.0010  139.9570 C   0  0  0  0  0  2  0  0  0  0  0  0
  188.7350  175.7870  143.4310 C   0  0  1  0  0  3  0  0  0  0  0  0
  192.2880  174.9890  146.8400 C   0  0  0  0  0  3  0  0  0  0  0  0
  191.6560  175.8850  147.7020 C   0  0  0  0  0  3  0  0  0  0  0  0
  186.4760  176.7640  144.2800 C   0  0  0  0  0  0  0  0  0  0  0  0
  185.7770  177.2370  145.5010 C   0  0  2  0  0  3  0  0  0  0  0  0
  189.1090  174.9000  141.1390 C   0  0  1  0  0  3  0  0  0  0  0  0
  190.8480  174.6520  142.7670 C   0  0  0  0  0  2  0  0  0  0  0  0
  185.7040  178.7250  147.0910 N   0  0  0  0  0  0  0  0  0  0  0  0
  191.1870  173.7910  140.6090 C   0  0  0  0  0  2  0  0  0  0  0  0
  191.7110  174.6820  145.6070 C   0  0  0  0  0  3  0  0  0  0  0  0
  189.8530  174.8480  143.9110 C   0  0  1  0  0  3  0  0  0  0  0  0
  190.5030  175.2780  145.2120 C   0  0  0  0  0  0  0  0  0  0  0  0
  188.5710  176.8470  145.6870 C   0  0  2  0  0  3  0  0  0  0  0  0
  184.4420  178.6640  146.4340 C   0  0  0  0  0  2  0  0  0  0  0  0
  188.1910  172.8520  139.8680 C   0  0  0  0  0  2  0  0  0  0  0  0
  190.1730  174.0080  141.6420 N   0  0  2  0  0  0  0  0  0  0  0  0
  184.4630  177.8540  145.4240 N   0  0  0  0  0  2  0  0  0  0  0  0
  188.4280  174.3680  139.8690 C   0  0  0  0  0  2  0  0  0  0  0  0
  190.7470  172.7560  139.5580 C   0  0  1  0  0  3  0  0  0  0  0  0
  190.4400  176.4650  147.3370 C   0  0  0  0  0  3  0  0  0  0  0  0
  189.8360  176.1450  146.1110 C   0  0  0  0  0  0  0  0  0  0  0  0
  187.6670  177.3610  146.8400 C   0  0  0  0  0  2  0  0  0  0  0  0
  188.0580  175.1360  142.2260 C   0  0  0  0  0  2  0  0  0  0  0  0
  186.0270  176.9180  143.1540 O   0  0  0  0  0  0  0  0  0  0  0  0
  186.0480  179.7910  148.0130 C   0  0  0  0  0  1  0  0  0  0  0  0
  187.7860  176.0580  144.5970 C   0  0  2  0  0  3  0  0  0  0  0  0
  186.6310  178.1670  146.2070 N   0  0  1  0  0  0  0  0  0  0  0  0
  191.8870  171.7810  139.3150 C   0  0  0  0  0  2  0  0  0  0  0  0
  191.5710  170.8700  138.1790 C   0  0  0  0  0  0  0  0  0  0  0  0
  191.2810  171.3950  136.9270 O   0  0  0  0  0  0  0  0  0  0  0  0
  191.5960  169.6230  138.3450 O   0  0  0  0  0  1  0  0  0  0  0  0
  2 24  1  6  0  0  0
  2 12  1  0  0  0  0
  2 27  1  0  0  0  0
  3  4  1  0  0  0  0
  6  5  1  6  0  0  0
  6 28  1  0  0  0  0
  7 19  1  6  0  0  0
  7 17  1  0  0  0  0
  7 24  1  0  0  0  0
  9 26  1  0  0  0  0
 11  3  2  0  0  0  0
 12  8  1  6  0  0  0
 12 13  1  0  0  0  0
 13 11  1  0  0  0  0
 13 22  2  0  0  0  0
 14 22  1  0  0  0  0
 14 23  1  1  0  0  0
 15  9  1  0  0  0  0
 16 19  1  0  0  0  0
 16  1  1  0  0  0  0
 17 10  1  6  0  0  0
 17  8  1  0  0  0  0
 18  6  1  0  0  0  0
 18 15  1  0  0  0  0
 20 29  1  1  0  0  0
 20  1  1  0  0  0  0
 20 10  1  0  0  0  0
 21  4  2  0  0  0  0
 22 21  1  0  0  0  0
 25  5  2  0  0  0  0
 27  5  1  6  0  0  0
 27 14  1  0  0  0  0
 28 23  1  1  0  0  0
 28  9  1  0  0  0  0
 30 32  1  0  0  0  0
 30 29  1  0  0  0  0
 31 30  2  0  0  0  0
M  END
>  <MODEL>
4

>  <REMARK>
 VINA RESULT:      -8.2      3.264      7.471
  Name = 
  2 active torsions:
  status: ('A' for Active; 'I' for Inactive)
    1  A    between atoms: C_20  and  C_29
    2  A    between atoms: C_29  and  C_30
                            x       y       z     vdW  Elec       q    Type
                         _______ _______ _______ _____ _____    ______ ____

>  <TORSDO>
F 2

$$$$
=
 OpenBabel11112416293D

 32 37  0  0  1  0  0  0  0  0999 V2000
  186.2800  179.1090  143.3800 C   0  0  0  0  0  2  0  0  0  0  0  0
  189.0940  174.7980  142.7220 C   0  0  1  0  0  3  0  0  0  0  0  0
  192.4790  175.0090  146.3800 C   0  0  0  0  0  3  0  0  0  0  0  0
  193.1990  173.9830  145.7670 C   0  0  0  0  0  3  0  0  0  0  0  0
  189.8360  173.6970  140.4820 C   0  0  0  0  0  0  0  0  0  0  0  0
  190.9820  173.0270  139.8160 C   0  0  2  0  0  3  0  0  0  0  0  0
  186.9720  176.0540  143.0340 C   0  0  1  0  0  3  0  0  0  0  0  0
  188.5660  176.0230  144.8220 C   0  0  0  0  0  2  0  0  0  0  0  0
  192.3030  171.2960  139.7800 N   0  0  0  0  0  0  0  0  0  0  0  0
  186.5720  177.2320  145.1040 C   0  0  0  0  0  2  0  0  0  0  0  0
  191.3330  175.5190  145.7680 C   0  0  0  0  0  3  0  0  0  0  0  0
  189.6910  175.6410  143.8600 C   0  0  1  0  0  3  0  0  0  0  0  0
  190.8810  174.9990  144.5450 C   0  0  0  0  0  0  0  0  0  0  0  0
  191.1460  173.3760  142.6170 C   0  0  2  0  0  3  0  0  0  0  0  0
  191.7040  171.4670  138.4990 C   0  0  0  0  0  2  0  0  0  0  0  0
  186.0890  178.2870  142.0940 C   0  0  0  0  0  2  0  0  0  0  0  0
  187.5840  176.8480  144.1180 N   0  0  2  0  0  0  0  0  0  0  0  0
  190.8430  172.4350  138.4960 N   0  0  0  0  0  2  0  0  0  0  0  0
  185.8300  176.7910  142.3190 C   0  0  0  0  0  2  0  0  0  0  0  0
  185.7220  178.4290  144.6400 C   0  0  1  0  0  3  0  0  0  0  0  0
  192.7790  173.4740  144.5370 C   0  0  0  0  0  3  0  0  0  0  0  0
  191.6420  173.9950  143.8990 C   0  0  0  0  0  0  0  0  0  0  0  0
  192.2240  172.6780  141.7440 C   0  0  0  0  0  2  0  0  0  0  0  0
  188.0360  175.6420  142.0140 C   0  0  0  0  0  2  0  0  0  0  0  0
  188.7150  173.7330  140.0000 O   0  0  0  0  0  0  0  0  0  0  0  0
  193.0230  170.0900  140.1440 C   0  0  0  0  0  1  0  0  0  0  0  0
  190.2270  174.3370  141.8050 C   0  0  2  0  0  3  0  0  0  0  0  0
  191.4970  171.9910  140.6840 N   0  0  1  0  0  0  0  0  0  0  0  0
  185.6110  179.4280  145.7780 C   0  0  0  0  0  2  0  0  0  0  0  0
  185.2900  178.7370  147.0590 C   0  0  0  0  0  0  0  0  0  0  0  0
  186.2600  178.6170  148.0460 O   0  0  0  0  0  1  0  0  0  0  0  0
  184.1320  178.2870  147.2600 O   0  0  0  0  0  0  0  0  0  0  0  0
  1 20  1  0  0  0  0
  2 24  1  6  0  0  0
  2 12  1  0  0  0  0
  4  3  2  0  0  0  0
  6 18  1  6  0  0  0
  6  5  1  0  0  0  0
  6 28  1  0  0  0  0
  7 24  1  6  0  0  0
  7 17  1  0  0  0  0
  9 26  1  0  0  0  0
  9 28  1  0  0  0  0
 11  3  1  0  0  0  0
 12 13  1  0  0  0  0
 12  8  1  1  0  0  0
 13 11  2  0  0  0  0
 14 23  1  6  0  0  0
 14 22  1  0  0  0  0
 15  9  1  0  0  0  0
 16 19  1  0  0  0  0
 16  1  1  0  0  0  0
 17  8  1  1  0  0  0
 17 10  1  0  0  0  0
 18 15  1  0  0  0  0
 19  7  1  0  0  0  0
 20 10  1  0  0  0  0
 20 29  1  1  0  0  0
 21  4  1  0  0  0  0
 22 21  2  0  0  0  0
 22 13  1  0  0  0  0
 25  5  2  0  0  0  0
 27  5  1  6  0  0  0
 27 14  1  0  0  0  0
 27  2  1  0  0  0  0
 28 23  1  1  0  0  0
 29 30  1  0  0  0  0
 30 32  2  0  0  0  0
 30 31  1  0  0  0  0
M  END
>  <MODEL>
5

>  <REMARK>
 VINA RESULT:      -8.1      2.909      3.823
  Name = 
  2 active torsions:
  status: ('A' for Active; 'I' for Inactive)
    1  A    between atoms: C_20  and  C_29
    2  A    between atoms: C_29  and  C_30
                            x       y       z     vdW  Elec       q    Type
                         _______ _______ _______ _____ _____    ______ ____

>  <TORSDO>
F 2

$$$$
=
 OpenBabel11112416293D

 32 37  0  0  1  0  0  0  0  0999 V2000
  187.7110  176.2120  146.8000 C   0  0  0  0  0  2  0  0  0  0  0  0
  190.9080  175.5090  142.7720 C   0  0  1  0  0  3  0  0  0  0  0  0
  188.2720  172.6660  139.6340 C   0  0  0  0  0  3  0  0  0  0  0  0
  189.4290  172.4180  138.8940 C   0  0  0  0  0  3  0  0  0  0  0  0
  193.4870  175.1470  142.8190 C   0  0  0  0  0  0  0  0  0  0  0  0
  194.5810  174.3590  142.2000 C   0  0  2  0  0  3  0  0  0  0  0  0
  189.6540  176.8920  144.4140 C   0  0  1  0  0  3  0  0  0  0  0  0
  188.4220  175.6150  142.8040 C   0  0  0  0  0  2  0  0  0  0  0  0
  195.7040  173.9230  140.3850 N   0  0  0  0  0  0  0  0  0  0  0  0
  187.2400  176.9000  144.3740 C   0  0  0  0  0  2  0  0  0  0  0  0
  188.3410  173.4250  140.8030 C   0  0  0  0  0  3  0  0  0  0  0  0
  189.6210  174.6970  142.5630 C   0  0  1  0  0  3  0  0  0  0  0  0
  189.5630  173.9610  141.2390 C   0  0  0  0  0  0  0  0  0  0  0  0
  192.0580  174.2780  140.9270 C   0  0  2  0  0  3  0  0  0  0  0  0
  196.6030  174.2860  141.4280 C   0  0  0  0  0  2  0  0  0  0  0  0
  189.1820  176.6410  146.9370 C   0  0  0  0  0  2  0  0  0  0  0  0
  188.4400  176.0820  144.1900 N   0  0  2  0  0  0  0  0  0  0  0  0
  195.9750  174.6380  142.5040 N   0  0  0  0  0  2  0  0  0  0  0  0
  189.6970  177.5410  145.8050 C   0  0  0  0  0  2  0  0  0  0  0  0
  186.8890  177.1060  145.8590 C   0  0  1  0  0  3  0  0  0  0  0  0
  190.6570  172.9200  139.3290 C   0  0  0  0  0  3  0  0  0  0  0  0
  190.7440  173.6640  140.5160 C   0  0  0  0  0  0  0  0  0  0  0  0
  193.3310  173.5460  140.4230 C   0  0  0  0  0  2  0  0  0  0  0  0
  190.9060  176.0370  144.2060 C   0  0  0  0  0  2  0  0  0  0  0  0
  193.6880  176.1000  143.5560 O   0  0  0  0  0  0  0  0  0  0  0  0
  196.1220  173.8290  138.9990 C   0  0  0  0  0  1  0  0  0  0  0  0
  192.1090  174.6220  142.4460 C   0  0  2  0  0  3  0  0  0  0  0  0
  194.4520  174.4140  140.7600 N   0  0  1  0  0  0  0  0  0  0  0  0
  185.4030  176.8610  146.0560 C   0  0  0  0  0  2  0  0  0  0  0  0
  184.7190  178.0990  146.5250 C   0  0  0  0  0  0  0  0  0  0  0  0
  183.7060  178.6650  145.7630 O   0  0  0  0  0  0  0  0  0  0  0  0
  185.0390  178.6170  147.6260 O   0  0  0  0  0  1  0  0  0  0  0  0
  1 16  1  0  0  0  0
  2 24  1  1  0  0  0
  3 11  1  0  0  0  0
  4 21  1  0  0  0  0
  4  3  2  0  0  0  0
  5 25  2  0  0  0  0
  6 18  1  6  0  0  0
  6  5  1  0  0  0  0
  7 24  1  1  0  0  0
  7 19  1  0  0  0  0
  9 28  1  0  0  0  0
  9 15  1  0  0  0  0
 10 20  1  0  0  0  0
 11 13  2  0  0  0  0
 12  2  1  0  0  0  0
 12  8  1  6  0  0  0
 13 12  1  0  0  0  0
 14 23  1  1  0  0  0
 14 27  1  0  0  0  0
 15 18  1  0  0  0  0
 17  8  1  6  0  0  0
 17 10  1  0  0  0  0
 17  7  1  0  0  0  0
 19 16  1  0  0  0  0
 20 29  1  6  0  0  0
 20  1  1  0  0  0  0
 21 22  2  0  0  0  0
 22 14  1  0  0  0  0
 22 13  1  0  0  0  0
 26  9  1  0  0  0  0
 27  2  1  0  0  0  0
 27  5  1  6  0  0  0
 28 23  1  6  0  0  0
 28  6  1  0  0  0  0
 29 30  1  0  0  0  0
 30 32  1  0  0  0  0
 31 30  2  0  0  0  0
M  END
>  <MODEL>
6

>  <REMARK>
 VINA RESULT:      -8.0      2.325      4.943
  Name = 
  2 active torsions:
  status: ('A' for Active; 'I' for Inactive)
    1  A    between atoms: C_20  and  C_29
    2  A    between atoms: C_29  and  C_30
                            x       y       z     vdW  Elec       q    Type
                         _______ _______ _______ _____ _____    ______ ____

>  <TORSDO>
F 2

$$$$
=
 OpenBabel11112416293D

 32 37  0  0  1  0  0  0  0  0999 V2000
  193.3950  171.1600  144.6550 C   0  0  0  0  0  2  0  0  0  0  0  0
  190.5660  175.5110  144.5900 C   0  0  1  0  0  3  0  0  0  0  0  0
  191.4050  177.5520  149.0630 C   0  0  0  0  0  3  0  0  0  0  0  0
  190.3440  178.4340  148.8540 C   0  0  0  0  0  3  0  0  0  0  0  0
  188.2080  175.8710  143.5460 C   0  0  0  0  0  0  0  0  0  0  0  0
  186.8970  176.5280  143.7820 C   0  0  2  0  0  3  0  0  0  0  0  0
  192.2740  173.9430  143.6930 C   0  0  1  0  0  3  0  0  0  0  0  0
  192.7030  175.0450  145.7760 C   0  0  0  0  0  2  0  0  0  0  0  0
  185.8240  178.4090  144.0140 N   0  0  0  0  0  0  0  0  0  0  0  0
  194.3020  173.5420  144.9410 C   0  0  0  0  0  2  0  0  0  0  0  0
  191.6940  176.5710  148.1130 C   0  0  0  0  0  3  0  0  0  0  0  0
  191.2140  175.3320  145.9710 C   0  0  1  0  0  3  0  0  0  0  0  0
  190.9370  176.4690  146.9350 C   0  0  0  0  0  0  0  0  0  0  0  0
  189.0390  177.2830  145.4670 C   0  0  2  0  0  3  0  0  0  0  0  0
  185.2090  177.6300  142.9930 C   0  0  0  0  0  2  0  0  0  0  0  0
  192.3880  171.3730  143.5120 C   0  0  0  0  0  2  0  0  0  0  0  0
  192.8630  173.7920  145.0380 N   0  0  2  0  0  0  0  0  0  0  0  0
  185.8650  176.5380  142.7590 N   0  0  0  0  0  2  0  0  0  0  0  0
  192.5110  172.7230  142.7910 C   0  0  0  0  0  2  0  0  0  0  0  0
  194.6230  172.0800  144.5810 C   0  0  1  0  0  3  0  0  0  0  0  0
  189.5640  178.3280  147.7020 C   0  0  0  0  0  3  0  0  0  0  0  0
  189.8280  177.3300  146.7500 C   0  0  0  0  0  0  0  0  0  0  0  0
  187.6040  177.8710  145.5370 C   0  0  0  0  0  2  0  0  0  0  0  0
  190.7730  174.2190  143.8000 C   0  0  0  0  0  2  0  0  0  0  0  0
  188.5150  175.3660  142.4770 O   0  0  0  0  0  0  0  0  0  0  0  0
  185.5020  179.8090  144.2220 C   0  0  0  0  0  1  0  0  0  0  0  0
  189.0960  175.8860  144.7800 C   0  0  2  0  0  3  0  0  0  0  0  0
  187.1180  177.9060  144.1630 N   0  0  1  0  0  0  0  0  0  0  0  0
  195.7230  171.5740  145.4990 C   0  0  0  0  0  2  0  0  0  0  0  0
  196.8690  172.5260  145.5250 C   0  0  0  0  0  0  0  0  0  0  0  0
  197.6570  172.6960  144.3950 O   0  0  0  0  0  0  0  0  0  0  0  0
  197.1080  173.1980  146.5630 O   0  0  0  0  0  1  0  0  0  0  0  0
  2 24  1  6  0  0  0
  2 27  1  0  0  0  0
  2 12  1  0  0  0  0
  4  3  1  0  0  0  0
  5  6  1  0  0  0  0
  6 18  1  6  0  0  0
  6 28  1  0  0  0  0
  7 19  1  6  0  0  0
  7 24  1  0  0  0  0
  7 17  1  0  0  0  0
  9 28  1  0  0  0  0
  9 26  1  0  0  0  0
 11  3  2  0  0  0  0
 12  8  1  6  0  0  0
 12 13  1  0  0  0  0
 13 11  1  0  0  0  0
 14 23  1  1  0  0  0
 14 22  1  0  0  0  0
 15  9  1  0  0  0  0
 16  1  1  0  0  0  0
 17 10  1  6  0  0  0
 17  8  1  0  0  0  0
 18 15  1  0  0  0  0
 19 16  1  0  0  0  0
 20  1  1  0  0  0  0
 20 10  1  0  0  0  0
 20 29  1  1  0  0  0
 21  4  2  0  0  0  0
 22 13  2  0  0  0  0
 22 21  1  0  0  0  0
 25  5  2  0  0  0  0
 27  5  1  6  0  0  0
 27 14  1  0  0  0  0
 28 23  1  1  0  0  0
 29 30  1  0  0  0  0
 30 32  1  0  0  0  0
 31 30  2  0  0  0  0
M  END
>  <MODEL>
7

>  <REMARK>
 VINA RESULT:      -8.0      2.494      7.954
  Name = 
  2 active torsions:
  status: ('A' for Active; 'I' for Inactive)
    1  A    between atoms: C_20  and  C_29
    2  A    between atoms: C_29  and  C_30
                            x       y       z     vdW  Elec       q    Type
                         _______ _______ _______ _____ _____    ______ ____

>  <TORSDO>
F 2

$$$$
=
 OpenBabel11112416293D

 32 37  0  0  1  0  0  0  0  0999 V2000
  185.8540  176.7630  146.5530 C   0  0  0  0  0  2  0  0  0  0  0  0
  190.1590  175.2220  144.0960 C   0  0  1  0  0  3  0  0  0  0  0  0
  188.5670  174.0390  139.5200 C   0  0  0  0  0  3  0  0  0  0  0  0
  189.7880  173.4160  139.2610 C   0  0  0  0  0  3  0  0  0  0  0  0
  192.1400  173.8330  145.0580 C   0  0  0  0  0  0  0  0  0  0  0  0
  193.0810  172.7320  144.7320 C   0  0  2  0  0  3  0  0  0  0  0  0
  188.7940  176.8240  145.4200 C   0  0  1  0  0  3  0  0  0  0  0  0
  188.1340  176.3330  143.1700 C   0  0  0  0  0  2  0  0  0  0  0  0
  194.7210  172.0600  143.4660 N   0  0  0  0  0  0  0  0  0  0  0  0
  186.8310  177.8240  144.4310 C   0  0  0  0  0  2  0  0  0  0  0  0
  188.3140  174.5820  140.7800 C   0  0  0  0  0  3  0  0  0  0  0  0
  188.9400  175.0340  143.1800 C   0  0  1  0  0  3  0  0  0  0  0  0
  189.2830  174.5240  141.7940 C   0  0  0  0  0  0  0  0  0  0  0  0
  191.5820  173.8210  142.5950 C   0  0  2  0  0  3  0  0  0  0  0  0
  195.0840  171.9160  144.8360 C   0  0  0  0  0  2  0  0  0  0  0  0
  187.1350  176.5350  147.3730 C   0  0  0  0  0  2  0  0  0  0  0  0
  187.6430  176.6100  144.5190 N   0  0  2  0  0  0  0  0  0  0  0  0
  194.1720  172.3830  145.6270 N   0  0  0  0  0  2  0  0  0  0  0  0
  188.3790  177.2540  146.8350 C   0  0  0  0  0  2  0  0  0  0  0  0
  185.9070  178.0050  145.6500 C   0  0  1  0  0  3  0  0  0  0  0  0
  190.7510  173.3240  140.2660 C   0  0  0  0  0  3  0  0  0  0  0  0
  190.5000  173.8430  141.5460 C   0  0  0  0  0  0  0  0  0  0  0  0
  192.6330  172.6860  142.4560 C   0  0  0  0  0  2  0  0  0  0  0  0
  189.6480  175.5570  145.4970 C   0  0  0  0  0  2  0  0  0  0  0  0
  192.2610  174.5400  146.0470 O   0  0  0  0  0  0  0  0  0  0  0  0
  195.6890  171.9430  142.3910 C   0  0  0  0  0  1  0  0  0  0  0  0
  191.0160  173.9580  144.0400 C   0  0  2  0  0  3  0  0  0  0  0  0
  193.6720  172.9800  143.4350 N   0  0  1  0  0  0  0  0  0  0  0  0
  184.5150  178.3720  145.1660 C   0  0  0  0  0  2  0  0  0  0  0  0
  184.5840  179.1580  143.9020 C   0  0  0  0  0  0  0  0  0  0  0  0
  183.9950  178.6650  142.7440 O   0  0  0  0  0  0  0  0  0  0  0  0
  185.1500  180.2820  143.8880 O   0  0  0  0  0  1  0  0  0  0  0  0
  1 16  1  0  0  0  0
  2 24  1  1  0  0  0
  3 11  1  0  0  0  0
  4  3  2  0  0  0  0
  4 21  1  0  0  0  0
  5 25  2  0  0  0  0
  6  5  1  1  0  0  0
  6 18  1  0  0  0  0
  7 24  1  1  0  0  0
  7 19  1  0  0  0  0
  9 15  1  0  0  0  0
 10 17  1  0  0  0  0
 10 20  1  0  0  0  0
 11 13  2  0  0  0  0
 12  8  1  6  0  0  0
 12  2  1  0  0  0  0
 13 12  1  0  0  0  0
 14 23  1  1  0  0  0
 14 27  1  0  0  0  0
 15 18  1  0  0  0  0
 17  8  1  6  0  0  0
 17  7  1  0  0  0  0
 19 16  1  0  0  0  0
 20 29  1  6  0  0  0
 20  1  1  0  0  0  0
 21 22  2  0  0  0  0
 22 13  1  0  0  0  0
 22 14  1  0  0  0  0
 26  9  1  0  0  0  0
 27  2  1  0  0  0  0
 27  5  1  1  0  0  0
 28 23  1  6  0  0  0
 28  9  1  0  0  0  0
 28  6  1  0  0  0  0
 30 29  1  0  0  0  0
 31 30  2  0  0  0  0
 32 30  1  0  0  0  0
M  END
>  <MODEL>
8

>  <REMARK>
 VINA RESULT:      -7.9      2.306      4.598
  Name = 
  2 active torsions:
  status: ('A' for Active; 'I' for Inactive)
    1  A    between atoms: C_20  and  C_29
    2  A    between atoms: C_29  and  C_30
                            x       y       z     vdW  Elec       q    Type
                         _______ _______ _______ _____ _____    ______ ____

>  <TORSDO>
F 2

$$$$
=
 OpenBabel11112416293D

 32 37  0  0  1  0  0  0  0  0999 V2000
  187.5570  176.4160  146.8120 C   0  0  0  0  0  2  0  0  0  0  0  0
  191.5390  176.0020  143.5100 C   0  0  1  0  0  3  0  0  0  0  0  0
  189.7170  173.2400  139.7770 C   0  0  0  0  0  3  0  0  0  0  0  0
  191.0100  173.0630  139.2830 C   0  0  0  0  0  3  0  0  0  0  0  0
  194.0640  175.7130  144.0750 C   0  0  0  0  0  0  0  0  0  0  0  0
  195.2930  174.9870  143.6650 C   0  0  2  0  0  3  0  0  0  0  0  0
  189.9220  177.2660  144.9120 C   0  0  1  0  0  3  0  0  0  0  0  0
  189.0980  176.0350  143.0290 C   0  0  0  0  0  2  0  0  0  0  0  0
  196.7810  174.6730  142.1060 N   0  0  0  0  0  0  0  0  0  0  0  0
  187.5690  177.2070  144.3720 C   0  0  0  0  0  2  0  0  0  0  0  0
  189.5150  173.9430  140.9650 C   0  0  0  0  0  3  0  0  0  0  0  0
  190.3550  175.1640  143.0040 C   0  0  1  0  0  3  0  0  0  0  0  0
  190.5990  174.4930  141.6670 C   0  0  0  0  0  0  0  0  0  0  0  0
  193.0900  174.8960  141.8930 C   0  0  2  0  0  3  0  0  0  0  0  0
  197.4310  175.0100  143.3270 C   0  0  0  0  0  2  0  0  0  0  0  0
  188.9500  176.8790  147.2690 C   0  0  0  0  0  2  0  0  0  0  0  0
  188.8110  176.4340  144.4070 N   0  0  2  0  0  0  0  0  0  0  0  0
  196.5820  175.2910  144.2630 N   0  0  0  0  0  2  0  0  0  0  0  0
  189.6530  177.8470  146.3080 C   0  0  0  0  0  2  0  0  0  0  0  0
  186.9120  177.3300  145.7590 C   0  0  1  0  0  3  0  0  0  0  0  0
  192.1020  173.5770  139.9840 C   0  0  0  0  0  3  0  0  0  0  0  0
  191.9140  174.2650  141.1940 C   0  0  0  0  0  0  0  0  0  0  0  0
  194.4670  174.2260  141.6340 C   0  0  0  0  0  2  0  0  0  0  0  0
  191.2220  176.4590  144.9330 C   0  0  0  0  0  2  0  0  0  0  0  0
  194.0730  176.6340  144.8770 O   0  0  0  0  0  0  0  0  0  0  0  0
  197.4790  174.6590  140.8330 C   0  0  0  0  0  1  0  0  0  0  0  0
  192.8140  175.1660  143.4020 C   0  0  2  0  0  3  0  0  0  0  0  0
  195.4600  175.1090  142.2330 N   0  0  1  0  0  0  0  0  0  0  0  0
  185.4280  177.0330  145.6320 C   0  0  0  0  0  2  0  0  0  0  0  0
  184.6150  178.1320  146.2270 C   0  0  0  0  0  0  0  0  0  0  0  0
  184.8970  178.5900  147.5070 O   0  0  0  0  0  1  0  0  0  0  0  0
  183.6920  178.6660  145.5590 O   0  0  0  0  0  0  0  0  0  0  0  0
  1 16  1  0  0  0  0
  2 24  1  1  0  0  0
  3 11  1  0  0  0  0
  4  3  2  0  0  0  0
  4 21  1  0  0  0  0
  5 25  2  0  0  0  0
  6  5  1  1  0  0  0
  6 18  1  0  0  0  0
  7 24  1  1  0  0  0
  7 19  1  0  0  0  0
  9 28  1  0  0  0  0
  9 15  1  0  0  0  0
 10 17  1  0  0  0  0
 10 20  1  0  0  0  0
 11 13  2  0  0  0  0
 12  8  1  6  0  0  0
 12  2  1  0  0  0  0
 13 12  1  0  0  0  0
 14 23  1  1  0  0  0
 14 27  1  0  0  0  0
 15 18  1  0  0  0  0
 17  8  1  6  0  0  0
 17  7  1  0  0  0  0
 19 16  1  0  0  0  0
 20 29  1  6  0  0  0
 20  1  1  0  0  0  0
 21 22  2  0  0  0  0
 22 13  1  0  0  0  0
 22 14  1  0  0  0  0
 26  9  1  0  0  0  0
 27  2  1  0  0  0  0
 27  5  1  6  0  0  0
 28 23  1  6  0  0  0
 28  6  1  0  0  0  0
 29 30  1  0  0  0  0
 30 31  1  0  0  0  0
 32 30  2  0  0  0  0
M  END
>  <MODEL>
9

>  <REMARK>
 VINA RESULT:      -7.9      2.037      4.600
  Name = 
  2 active torsions:
  status: ('A' for Active; 'I' for Inactive)
    1  A    between atoms: C_20  and  C_29
    2  A    between atoms: C_29  and  C_30
                            x       y       z     vdW  Elec       q    Type
                         _______ _______ _______ _____ _____    ______ ____

>  <TORSDO>
F 2

$$$$
