=
 OpenBabel11112416563D

 31 35  0  0  1  0  0  0  0  0999 V2000
  184.6040  178.4200  146.4360 C   0  0  0  0  0  0  0  0  0  0  0  0
  186.9850  176.7390  143.9360 C   0  0  2  0  0  3  0  0  0  0  0  0
  186.5680  177.3440  142.6090 C   0  0  0  0  0  0  0  0  0  0  0  0
  190.6340  175.7060  147.7580 O   0  0  0  0  0  0  0  0  0  0  0  0
  191.1390  175.4790  146.6240 C   0  0  0  0  0  0  0  0  0  0  0  0
  184.8660  178.2240  141.0150 C   0  0  2  0  0  3  0  0  0  0  0  0
  186.4260  177.3780  145.2010 C   0  0  0  0  0  0  0  0  0  0  0  0
  185.3350  178.3130  147.6200 C   0  0  0  0  0  3  0  0  0  0  0  0
  185.2960  177.6590  142.3430 C   0  0  0  0  0  3  0  0  0  0  0  0
  189.0950  176.3220  145.3480 C   0  0  0  0  0  0  0  0  0  0  0  0
  183.3410  178.9930  146.4500 O   0  0  0  0  0  1  0  0  0  0  0  0
  188.7610  176.9760  141.6950 N   0  0  0  0  0  0  0  0  0  0  0  0
  183.5080  177.6780  140.6320 C   0  0  0  0  0  1  0  0  0  0  0  0
  188.4510  176.6550  146.4280 N   0  0  0  0  0  0  0  0  0  0  0  0
  188.4890  176.5770  144.0290 C   0  0  0  0  0  0  0  0  0  0  0  0
  190.4170  175.7690  145.4220 N   0  0  0  0  0  2  0  0  0  0  0  0
  185.1400  177.9410  145.2390 C   0  0  0  0  0  3  0  0  0  0  0  0
  185.8600  177.9710  139.9120 C   0  0  0  0  0  3  0  0  0  0  0  0
  187.1480  177.2550  146.4100 C   0  0  0  0  0  0  0  0  0  0  0  0
  186.6030  177.7280  147.6070 C   0  0  0  0  0  3  0  0  0  0  0  0
  189.2500  176.6540  142.9760 N   0  0  0  0  0  0  0  0  0  0  0  0
  187.5290  177.3280  141.4910 C   0  0  0  0  0  0  0  0  0  0  0  0
  187.0780  177.5950  140.1590 N   0  0  0  0  0  0  0  0  0  0  0  0
  194.9090  174.2220  144.9650 C   0  0  1  0  0  3  0  0  0  0  0  0
  192.5130  173.7540  145.4990 C   0  0  0  0  0  2  0  0  0  0  0  0
  193.5930  176.9500  147.1330 O   0  0  0  0  0  1  0  0  0  0  0  0
  196.1790  173.6580  144.8630 O   0  0  0  0  0  1  0  0  0  0  0  0
  193.9090  173.1480  145.3790 C   0  0  0  0  0  2  0  0  0  0  0  0
  193.5460  175.9640  146.1460 C   0  0  2  0  0  3  0  0  0  0  0  0
  192.5110  174.8940  146.5200 C   0  0  1  0  0  3  0  0  0  0  0  0
  194.9310  175.3400  146.0020 C   0  0  0  0  0  2  0  0  0  0  0  0
  1 11  1  0  0  0  0
  1  8  1  0  0  0  0
  2  3  1  6  0  0  0
  2 15  1  0  0  0  0
  2  7  1  0  0  0  0
  5  4  2  0  0  0  0
  6 13  1  6  0  0  0
  6  9  1  0  0  0  0
  7 17  1  0  0  0  0
  7 19  2  0  0  0  0
  9  3  2  0  0  0  0
 10 16  1  0  0  0  0
 10 14  2  0  0  0  0
 12 21  1  0  0  0  0
 15 10  1  0  0  0  0
 16  5  1  0  0  0  0
 17  1  2  0  0  0  0
 18 23  2  0  0  0  0
 18  6  1  0  0  0  0
 19 14  1  0  0  0  0
 19 20  1  0  0  0  0
 20  8  2  0  0  0  0
 21 15  2  0  0  0  0
 22 12  2  0  0  0  0
 22  3  1  0  0  0  0
 23 22  1  0  0  0  0
 24 27  1  1  0  0  0
 24 28  1  0  0  0  0
 24 31  1  0  0  0  0
 25 30  1  0  0  0  0
 28 25  1  0  0  0  0
 29 30  1  0  0  0  0
 29 26  1  1  0  0  0
 30  5  1  6  0  0  0
 31 29  1  0  0  0  0
M  END
>  <MODEL>
1

>  <REMARK>
 VINA RESULT:      -9.4      0.000      0.000
  Name = 
  1 active torsions:
  status: ('A' for Active; 'I' for Inactive)
    1  A    between atoms: C_5  and  C_30
                            x       y       z     vdW  Elec       q    Type
                         _______ _______ _______ _____ _____    ______ ____

>  <TORSDO>
F 1

$$$$
=
 OpenBabel11112416563D

 31 35  0  0  1  0  0  0  0  0999 V2000
  185.1660  177.8950  146.7540 C   0  0  0  0  0  0  0  0  0  0  0  0
  186.4830  176.4180  143.4640 C   0  0  2  0  0  3  0  0  0  0  0  0
  185.7770  177.2490  142.4100 C   0  0  0  0  0  0  0  0  0  0  0  0
  190.9280  174.5150  145.8330 O   0  0  0  0  0  0  0  0  0  0  0  0
  191.0480  174.4200  144.5810 C   0  0  0  0  0  0  0  0  0  0  0  0
  183.8090  178.5000  141.5310 C   0  0  2  0  0  3  0  0  0  0  0  0
  186.4020  176.9030  144.9060 C   0  0  0  0  0  0  0  0  0  0  0  0
  186.1910  177.5490  147.6370 C   0  0  0  0  0  3  0  0  0  0  0  0
  184.5330  177.7070  142.5860 C   0  0  0  0  0  3  0  0  0  0  0  0
  188.8430  175.6160  144.1020 C   0  0  0  0  0  0  0  0  0  0  0  0
  184.0440  178.5640  147.2230 O   0  0  0  0  0  1  0  0  0  0  0  0
  187.5440  176.8410  140.8320 N   0  0  0  0  0  0  0  0  0  0  0  0
  182.3410  178.1350  141.5200 C   0  0  0  0  0  1  0  0  0  0  0  0
  188.5900  175.8340  145.3590 N   0  0  0  0  0  0  0  0  0  0  0  0
  187.9160  176.1170  143.0730 C   0  0  0  0  0  0  0  0  0  0  0  0
  190.0490  174.9490  143.7020 N   0  0  0  0  0  2  0  0  0  0  0  0
  185.2650  177.5600  145.4030 C   0  0  0  0  0  3  0  0  0  0  0  0
  184.3980  178.3350  140.1550 C   0  0  0  0  0  3  0  0  0  0  0  0
  187.4240  176.5380  145.8120 C   0  0  0  0  0  0  0  0  0  0  0  0
  187.3160  176.8680  147.1660 C   0  0  0  0  0  3  0  0  0  0  0  0
  188.3400  176.2890  141.8540 N   0  0  0  0  0  0  0  0  0  0  0  0
  186.3610  177.3210  141.0590 C   0  0  0  0  0  0  0  0  0  0  0  0
  185.5780  177.8240  139.9700 N   0  0  0  0  0  0  0  0  0  0  0  0
  194.8270  172.3800  144.2810 C   0  0  1  0  0  3  0  0  0  0  0  0
  193.5140  174.5020  144.3850 C   0  0  0  0  0  2  0  0  0  0  0  0
  191.2010  171.5800  143.9890 O   0  0  0  0  0  1  0  0  0  0  0  0
  195.9530  171.7680  143.7320 O   0  0  0  0  0  1  0  0  0  0  0  0
  194.7460  173.8220  143.7950 C   0  0  0  0  0  2  0  0  0  0  0  0
  192.3270  172.2770  144.4320 C   0  0  2  0  0  3  0  0  0  0  0  0
  192.2450  173.7440  143.9930 C   0  0  1  0  0  3  0  0  0  0  0  0
  193.5770  171.6150  143.8580 C   0  0  0  0  0  2  0  0  0  0  0  0
  1 11  1  0  0  0  0
  1  8  1  0  0  0  0
  2  3  1  6  0  0  0
  2  7  1  0  0  0  0
  3  9  2  0  0  0  0
  5  4  2  0  0  0  0
  6 13  1  6  0  0  0
  6  9  1  0  0  0  0
  7 17  1  0  0  0  0
  7 19  2  0  0  0  0
 10 14  2  0  0  0  0
 12 22  2  0  0  0  0
 12 21  1  0  0  0  0
 14 19  1  0  0  0  0
 15  2  1  0  0  0  0
 15 10  1  0  0  0  0
 16 10  1  0  0  0  0
 16  5  1  0  0  0  0
 17  1  2  0  0  0  0
 18  6  1  0  0  0  0
 19 20  1  0  0  0  0
 20  8  2  0  0  0  0
 21 15  2  0  0  0  0
 22  3  1  0  0  0  0
 23 18  2  0  0  0  0
 23 22  1  0  0  0  0
 24 27  1  6  0  0  0
 28 24  1  0  0  0  0
 28 25  1  0  0  0  0
 29 26  1  6  0  0  0
 30 25  1  0  0  0  0
 30 29  1  0  0  0  0
 30  5  1  1  0  0  0
 31 24  1  0  0  0  0
 31 29  1  0  0  0  0
M  END
>  <MODEL>
2

>  <REMARK>
 VINA RESULT:      -9.0      1.657      2.185
  Name = 
  1 active torsions:
  status: ('A' for Active; 'I' for Inactive)
    1  A    between atoms: C_5  and  C_30
                            x       y       z     vdW  Elec       q    Type
                         _______ _______ _______ _____ _____    ______ ____

>  <TORSDO>
F 1

$$$$
=
 OpenBabel11112416563D

 31 35  0  0  1  0  0  0  0  0999 V2000
  185.2650  177.8400  146.7460 C   0  0  0  0  0  0  0  0  0  0  0  0
  186.6160  176.3620  143.4700 C   0  0  2  0  0  3  0  0  0  0  0  0
  185.9260  177.1970  142.4090 C   0  0  0  0  0  0  0  0  0  0  0  0
  191.0240  174.4390  145.8910 O   0  0  0  0  0  0  0  0  0  0  0  0
  191.1590  174.3450  144.6400 C   0  0  0  0  0  0  0  0  0  0  0  0
  183.9740  178.4570  141.5070 C   0  0  2  0  0  3  0  0  0  0  0  0
  186.5200  176.8450  144.9110 C   0  0  0  0  0  0  0  0  0  0  0  0
  186.2770  177.4890  147.6400 C   0  0  0  0  0  3  0  0  0  0  0  0
  184.6820  177.6600  142.5700 C   0  0  0  0  0  3  0  0  0  0  0  0
  188.9650  175.5500  144.1360 C   0  0  0  0  0  0  0  0  0  0  0  0
  184.1390  178.5130  147.2010 O   0  0  0  0  0  1  0  0  0  0  0  0
  187.7110  176.7840  140.8520 N   0  0  0  0  0  0  0  0  0  0  0  0
  182.5050  178.0970  141.4770 C   0  0  0  0  0  1  0  0  0  0  0  0
  188.6970  175.7680  145.3900 N   0  0  0  0  0  0  0  0  0  0  0  0
  188.0530  176.0560  143.0960 C   0  0  0  0  0  0  0  0  0  0  0  0
  190.1730  174.8790  143.7500 N   0  0  0  0  0  2  0  0  0  0  0  0
  185.3790  177.5060  145.3950 C   0  0  0  0  0  3  0  0  0  0  0  0
  184.5800  178.2910  140.1380 C   0  0  0  0  0  3  0  0  0  0  0  0
  187.5290  176.4750  145.8300 C   0  0  0  0  0  0  0  0  0  0  0  0
  187.4050  176.8050  147.1820 C   0  0  0  0  0  3  0  0  0  0  0  0
  188.4930  176.2280  141.8830 N   0  0  0  0  0  0  0  0  0  0  0  0
  186.5270  177.2690  141.0640 C   0  0  0  0  0  0  0  0  0  0  0  0
  185.7600  177.7750  139.9670 N   0  0  0  0  0  0  0  0  0  0  0  0
  194.1080  173.0130  141.8000 C   0  0  1  0  0  3  0  0  0  0  0  0
  191.9290  172.6820  142.9770 C   0  0  0  0  0  2  0  0  0  0  0  0
  193.8160  175.5170  144.5420 O   0  0  0  0  0  1  0  0  0  0  0  0
  195.2160  172.3630  141.2600 O   0  0  0  0  0  1  0  0  0  0  0  0
  193.1460  171.9820  142.3780 C   0  0  0  0  0  2  0  0  0  0  0  0
  193.3660  174.6850  143.5150 C   0  0  2  0  0  3  0  0  0  0  0  0
  192.3610  173.6650  144.0660 C   0  0  1  0  0  3  0  0  0  0  0  0
  194.5650  173.9710  142.8950 C   0  0  0  0  0  2  0  0  0  0  0  0
  1 11  1  0  0  0  0
  1  8  1  0  0  0  0
  2  3  1  6  0  0  0
  2  7  1  0  0  0  0
  3  9  2  0  0  0  0
  5  4  2  0  0  0  0
  6 13  1  6  0  0  0
  6  9  1  0  0  0  0
  7 17  1  0  0  0  0
  7 19  2  0  0  0  0
 10 14  2  0  0  0  0
 12 22  2  0  0  0  0
 12 21  1  0  0  0  0
 14 19  1  0  0  0  0
 15  2  1  0  0  0  0
 15 10  1  0  0  0  0
 16 10  1  0  0  0  0
 16  5  1  0  0  0  0
 17  1  2  0  0  0  0
 18  6  1  0  0  0  0
 19 20  1  0  0  0  0
 20  8  2  0  0  0  0
 21 15  2  0  0  0  0
 22  3  1  0  0  0  0
 23 18  2  0  0  0  0
 23 22  1  0  0  0  0
 24 27  1  1  0  0  0
 24 28  1  0  0  0  0
 24 31  1  0  0  0  0
 25 30  1  0  0  0  0
 28 25  1  0  0  0  0
 29 30  1  0  0  0  0
 29 26  1  1  0  0  0
 30  5  1  6  0  0  0
 31 29  1  0  0  0  0
M  END
>  <MODEL>
3

>  <REMARK>
 VINA RESULT:      -8.8      1.782      1.991
  Name = 
  1 active torsions:
  status: ('A' for Active; 'I' for Inactive)
    1  A    between atoms: C_5  and  C_30
                            x       y       z     vdW  Elec       q    Type
                         _______ _______ _______ _____ _____    ______ ____

>  <TORSDO>
F 1

$$$$
=
 OpenBabel11112416563D

 31 35  0  0  1  0  0  0  0  0999 V2000
  190.4940  176.8240  146.7130 C   0  0  0  0  0  0  0  0  0  0  0  0
  188.2330  176.1190  143.6910 C   0  0  2  0  0  3  0  0  0  0  0  0
  187.3110  177.3230  143.6660 C   0  0  0  0  0  0  0  0  0  0  0  0
  191.8850  172.8730  141.4280 O   0  0  0  0  0  0  0  0  0  0  0  0
  190.9660  173.1130  140.5970 C   0  0  0  0  0  0  0  0  0  0  0  0
  185.9590  179.0970  144.7750 C   0  0  2  0  0  3  0  0  0  0  0  0
  189.4460  176.1860  144.6090 C   0  0  0  0  0  0  0  0  0  0  0  0
  191.6230  176.0690  146.3890 C   0  0  0  0  0  3  0  0  0  0  0  0
  186.9040  177.9260  144.7870 C   0  0  0  0  0  3  0  0  0  0  0  0
  189.7690  174.7660  142.1310 C   0  0  0  0  0  0  0  0  0  0  0  0
  190.4470  177.5220  147.9110 O   0  0  0  0  0  1  0  0  0  0  0  0
  186.9590  177.0670  141.3020 N   0  0  0  0  0  0  0  0  0  0  0  0
  185.0120  179.0150  145.9530 C   0  0  0  0  0  1  0  0  0  0  0  0
  190.6570  174.6640  143.0760 N   0  0  0  0  0  0  0  0  0  0  0  0
  188.6340  175.6910  142.2930 C   0  0  0  0  0  0  0  0  0  0  0  0
  189.9150  174.0350  140.9060 N   0  0  0  0  0  2  0  0  0  0  0  0
  189.4090  176.8690  145.8360 C   0  0  0  0  0  3  0  0  0  0  0  0
  185.1840  179.2230  143.4900 C   0  0  0  0  0  3  0  0  0  0  0  0
  190.5860  175.4080  144.3010 C   0  0  0  0  0  0  0  0  0  0  0  0
  191.6660  175.3600  145.1870 C   0  0  0  0  0  3  0  0  0  0  0  0
  187.9980  176.1190  141.2410 N   0  0  0  0  0  0  0  0  0  0  0  0
  186.6310  177.6660  142.4040 C   0  0  0  0  0  0  0  0  0  0  0  0
  185.5320  178.5840  142.4140 N   0  0  0  0  0  0  0  0  0  0  0  0
  189.7210  171.8710  136.6670 C   0  0  1  0  0  3  0  0  0  0  0  0
  189.7190  171.5450  139.1440 C   0  0  0  0  0  2  0  0  0  0  0  0
  192.2100  174.1810  138.1980 O   0  0  0  0  0  1  0  0  0  0  0  0
  189.7060  171.2170  135.4370 O   0  0  0  0  0  1  0  0  0  0  0  0
  189.6980  170.8410  137.7900 C   0  0  0  0  0  2  0  0  0  0  0  0
  191.0270  173.4430  138.1190 C   0  0  2  0  0  3  0  0  0  0  0  0
  190.9620  172.4280  139.2680 C   0  0  1  0  0  3  0  0  0  0  0  0
  190.9780  172.7290  136.7710 C   0  0  0  0  0  2  0  0  0  0  0  0
  1 11  1  0  0  0  0
  2 15  1  6  0  0  0
  2  7  1  0  0  0  0
  3  2  1  0  0  0  0
  3  9  2  0  0  0  0
  5 16  1  0  0  0  0
  5  4  2  0  0  0  0
  6  9  1  0  0  0  0
  6 13  1  1  0  0  0
  7 17  1  0  0  0  0
  8  1  1  0  0  0  0
 10 15  1  0  0  0  0
 10 14  2  0  0  0  0
 12 22  2  0  0  0  0
 14 19  1  0  0  0  0
 16 10  1  0  0  0  0
 17  1  2  0  0  0  0
 18  6  1  0  0  0  0
 19  7  2  0  0  0  0
 19 20  1  0  0  0  0
 20  8  2  0  0  0  0
 21 12  1  0  0  0  0
 21 15  2  0  0  0  0
 22 23  1  0  0  0  0
 22  3  1  0  0  0  0
 23 18  2  0  0  0  0
 24 27  1  6  0  0  0
 24 31  1  0  0  0  0
 24 28  1  0  0  0  0
 25 30  1  0  0  0  0
 28 25  1  0  0  0  0
 29 26  1  6  0  0  0
 29 30  1  0  0  0  0
 30  5  1  1  0  0  0
 31 29  1  0  0  0  0
M  END
>  <MODEL>
4

>  <REMARK>
 VINA RESULT:      -8.4      4.453      6.167
  Name = 
  1 active torsions:
  status: ('A' for Active; 'I' for Inactive)
    1  A    between atoms: C_5  and  C_30
                            x       y       z     vdW  Elec       q    Type
                         _______ _______ _______ _____ _____    ______ ____

>  <TORSDO>
F 1

$$$$
=
 OpenBabel11112416563D

 31 35  0  0  1  0  0  0  0  0999 V2000
  195.3540  174.5620  145.6200 C   0  0  0  0  0  0  0  0  0  0  0  0
  192.2140  173.5670  143.6480 C   0  0  2  0  0  3  0  0  0  0  0  0
  192.4820  172.1190  143.2870 C   0  0  0  0  0  0  0  0  0  0  0  0
  189.2590  177.4250  145.9670 O   0  0  0  0  0  0  0  0  0  0  0  0
  188.5010  176.6460  145.3250 C   0  0  0  0  0  0  0  0  0  0  0  0
  193.9850  170.2460  142.6210 C   0  0  2  0  0  3  0  0  0  0  0  0
  193.1390  174.2160  144.6680 C   0  0  0  0  0  0  0  0  0  0  0  0
  194.8680  175.6200  146.3890 C   0  0  0  0  0  3  0  0  0  0  0  0
  193.7130  171.6730  143.0180 C   0  0  0  0  0  3  0  0  0  0  0  0
  190.3870  175.0410  144.7010 C   0  0  0  0  0  0  0  0  0  0  0  0
  196.6900  174.1980  145.7070 O   0  0  0  0  0  1  0  0  0  0  0  0
  190.1250  171.6640  143.1510 N   0  0  0  0  0  0  0  0  0  0  0  0
  195.0860  170.1940  141.5840 C   0  0  0  0  0  1  0  0  0  0  0  0
  191.2890  175.7110  145.3560 N   0  0  0  0  0  0  0  0  0  0  0  0
  190.7600  173.7930  144.0130 C   0  0  0  0  0  0  0  0  0  0  0  0
  189.0170  175.4690  144.6940 N   0  0  0  0  0  2  0  0  0  0  0  0
  194.4990  173.8760  144.7550 C   0  0  0  0  0  3  0  0  0  0  0  0
  192.7620  169.5250  142.1210 C   0  0  0  0  0  3  0  0  0  0  0  0
  192.6620  175.3030  145.4360 C   0  0  0  0  0  0  0  0  0  0  0  0
  193.5250  175.9920  146.2930 C   0  0  0  0  0  3  0  0  0  0  0  0
  189.8420  172.9150  143.7310 N   0  0  0  0  0  0  0  0  0  0  0  0
  191.3390  171.2490  142.9550 C   0  0  0  0  0  0  0  0  0  0  0  0
  191.5640  169.9890  142.3150 N   0  0  0  0  0  0  0  0  0  0  0  0
  184.7020  178.6050  145.8390 C   0  0  1  0  0  3  0  0  0  0  0  0
  186.4000  176.9380  146.6000 C   0  0  0  0  0  2  0  0  0  0  0  0
  187.3180  178.2510  143.2110 O   0  0  0  0  0  1  0  0  0  0  0  0
  183.3370  178.8750  145.7500 O   0  0  0  0  0  1  0  0  0  0  0  0
  184.9090  177.2480  146.5010 C   0  0  0  0  0  2  0  0  0  0  0  0
  186.8030  178.2910  144.5090 C   0  0  2  0  0  3  0  0  0  0  0  0
  187.0410  176.9470  145.2110 C   0  0  1  0  0  3  0  0  0  0  0  0
  185.3110  178.6010  144.4400 C   0  0  0  0  0  2  0  0  0  0  0  0
  1 11  1  0  0  0  0
  1  8  1  0  0  0  0
  2  3  1  1  0  0  0
  2 15  1  0  0  0  0
  2  7  1  0  0  0  0
  5  4  2  0  0  0  0
  6 13  1  6  0  0  0
  6  9  1  0  0  0  0
  7 17  1  0  0  0  0
  7 19  2  0  0  0  0
  9  3  2  0  0  0  0
 10 14  2  0  0  0  0
 12 21  1  0  0  0  0
 14 19  1  0  0  0  0
 15 10  1  0  0  0  0
 16 10  1  0  0  0  0
 16  5  1  0  0  0  0
 17  1  2  0  0  0  0
 18 23  2  0  0  0  0
 18  6  1  0  0  0  0
 19 20  1  0  0  0  0
 20  8  2  0  0  0  0
 21 15  2  0  0  0  0
 22 12  2  0  0  0  0
 22  3  1  0  0  0  0
 23 22  1  0  0  0  0
 24 27  1  6  0  0  0
 24 28  1  0  0  0  0
 28 25  1  0  0  0  0
 29 26  1  6  0  0  0
 29 30  1  0  0  0  0
 30  5  1  1  0  0  0
 30 25  1  0  0  0  0
 31 29  1  0  0  0  0
 31 24  1  0  0  0  0
M  END
>  <MODEL>
5

>  <REMARK>
 VINA RESULT:      -8.1      2.756      8.611
  Name = 
  1 active torsions:
  status: ('A' for Active; 'I' for Inactive)
    1  A    between atoms: C_5  and  C_30
                            x       y       z     vdW  Elec       q    Type
                         _______ _______ _______ _____ _____    ______ ____

>  <TORSDO>
F 1

$$$$
=
 OpenBabel11112416563D

 31 35  0  0  1  0  0  0  0  0999 V2000
  187.0820  176.4700  140.9740 C   0  0  0  0  0  0  0  0  0  0  0  0
  188.5280  176.3950  144.5300 C   0  0  2  0  0  3  0  0  0  0  0  0
  187.3320  176.7490  145.3930 C   0  0  0  0  0  0  0  0  0  0  0  0
  192.5400  173.1110  143.0740 O   0  0  0  0  0  0  0  0  0  0  0  0
  192.5050  173.1980  144.3320 C   0  0  0  0  0  0  0  0  0  0  0  0
  185.2200  177.9920  145.8440 C   0  0  2  0  0  3  0  0  0  0  0  0
  188.2620  176.0690  143.0670 C   0  0  0  0  0  0  0  0  0  0  0  0
  187.9710  175.6290  140.3020 C   0  0  0  0  0  3  0  0  0  0  0  0
  186.3910  177.6030  144.9800 C   0  0  0  0  0  3  0  0  0  0  0  0
  190.3890  174.6260  144.3530 C   0  0  0  0  0  0  0  0  0  0  0  0
  186.0500  177.0850  140.2810 O   0  0  0  0  0  1  0  0  0  0  0  0
  188.2750  175.5770  147.2690 N   0  0  0  0  0  0  0  0  0  0  0  0
  184.8770  179.4500  145.6320 C   0  0  0  0  0  1  0  0  0  0  0  0
  190.2550  174.5990  143.0590 N   0  0  0  0  0  0  0  0  0  0  0  0
  189.3870  175.3260  145.1760 C   0  0  0  0  0  0  0  0  0  0  0  0
  191.4680  173.9300  144.9930 N   0  0  0  0  0  2  0  0  0  0  0  0
  187.2370  176.6990  142.3430 C   0  0  0  0  0  3  0  0  0  0  0  0
  185.4430  177.7150  147.3070 C   0  0  0  0  0  3  0  0  0  0  0  0
  189.1700  175.2370  142.3710 C   0  0  0  0  0  0  0  0  0  0  0  0
  189.0150  175.0180  140.9990 C   0  0  0  0  0  3  0  0  0  0  0  0
  189.2610  175.0170  146.4350 N   0  0  0  0  0  0  0  0  0  0  0  0
  187.3470  176.3630  146.8150 C   0  0  0  0  0  0  0  0  0  0  0  0
  186.4020  176.9420  147.7210 N   0  0  0  0  0  0  0  0  0  0  0  0
  196.0470  170.9920  145.3940 C   0  0  1  0  0  3  0  0  0  0  0  0
  193.6140  171.0410  144.8290 C   0  0  0  0  0  2  0  0  0  0  0  0
  194.8880  174.5310  145.3250 O   0  0  0  0  0  1  0  0  0  0  0  0
  197.0210  170.3550  146.1610 O   0  0  0  0  0  1  0  0  0  0  0  0
  194.6910  170.3500  145.6610 C   0  0  0  0  0  2  0  0  0  0  0  0
  194.9320  173.1900  144.9380 C   0  0  2  0  0  3  0  0  0  0  0  0
  193.5620  172.5340  145.1570 C   0  0  1  0  0  3  0  0  0  0  0  0
  196.0040  172.4730  145.7540 C   0  0  0  0  0  2  0  0  0  0  0  0
  1 17  1  0  0  0  0
  2  7  1  6  0  0  0
  2 15  1  0  0  0  0
  2  3  1  0  0  0  0
  3 22  1  0  0  0  0
  4  5  2  0  0  0  0
  5 16  1  0  0  0  0
  6 13  1  1  0  0  0
  6 18  1  0  0  0  0
  8  1  2  0  0  0  0
  8 20  1  0  0  0  0
  9  3  2  0  0  0  0
  9  6  1  0  0  0  0
 10 16  1  0  0  0  0
 10 15  1  0  0  0  0
 11  1  1  0  0  0  0
 14 10  2  0  0  0  0
 15 21  2  0  0  0  0
 17  7  2  0  0  0  0
 18 23  2  0  0  0  0
 19 14  1  0  0  0  0
 19  7  1  0  0  0  0
 20 19  2  0  0  0  0
 21 12  1  0  0  0  0
 22 12  2  0  0  0  0
 22 23  1  0  0  0  0
 24 28  1  0  0  0  0
 24 31  1  0  0  0  0
 24 27  1  1  0  0  0
 25 30  1  0  0  0  0
 25 28  1  0  0  0  0
 29 30  1  0  0  0  0
 29 26  1  1  0  0  0
 29 31  1  0  0  0  0
 30  5  1  6  0  0  0
M  END
>  <MODEL>
6

>  <REMARK>
 VINA RESULT:      -8.1      2.602      4.701
  Name = 
  1 active torsions:
  status: ('A' for Active; 'I' for Inactive)
    1  A    between atoms: C_5  and  C_30
                            x       y       z     vdW  Elec       q    Type
                         _______ _______ _______ _____ _____    ______ ____

>  <TORSDO>
F 1

$$$$
=
 OpenBabel11112416563D

 31 35  0  0  1  0  0  0  0  0999 V2000
  195.5000  175.1890  144.9340 C   0  0  0  0  0  0  0  0  0  0  0  0
  192.5470  175.2420  142.4810 C   0  0  2  0  0  3  0  0  0  0  0  0
  192.9470  174.2110  141.4430 C   0  0  0  0  0  0  0  0  0  0  0  0
  189.1850  177.1780  146.2150 O   0  0  0  0  0  0  0  0  0  0  0  0
  188.5240  176.8200  145.2020 C   0  0  0  0  0  0  0  0  0  0  0  0
  194.6250  173.0330  140.0270 C   0  0  2  0  0  3  0  0  0  0  0  0
  193.3680  175.2980  143.7630 C   0  0  0  0  0  0  0  0  0  0  0  0
  194.8940  175.6640  146.0990 C   0  0  0  0  0  3  0  0  0  0  0  0
  194.2210  174.0260  141.0840 C   0  0  0  0  0  3  0  0  0  0  0  0
  190.5590  175.8640  143.9920 C   0  0  0  0  0  0  0  0  0  0  0  0
  196.8550  174.8910  144.9290 O   0  0  0  0  0  1  0  0  0  0  0  0
  190.6430  173.7940  140.8960 N   0  0  0  0  0  0  0  0  0  0  0  0
  195.7750  173.5810  139.2090 C   0  0  0  0  0  1  0  0  0  0  0  0
  191.3730  176.1290  144.9720 N   0  0  0  0  0  0  0  0  0  0  0  0
  191.0640  175.1800  142.7890 C   0  0  0  0  0  0  0  0  0  0  0  0
  189.1620  176.1720  144.0960 N   0  0  0  0  0  2  0  0  0  0  0  0
  194.7450  175.0220  143.7720 C   0  0  0  0  0  3  0  0  0  0  0  0
  193.4890  172.6300  139.1250 C   0  0  0  0  0  3  0  0  0  0  0  0
  192.7690  175.7990  144.9410 C   0  0  0  0  0  0  0  0  0  0  0  0
  193.5320  175.9720  146.1000 C   0  0  0  0  0  3  0  0  0  0  0  0
  190.2330  174.5420  142.0160 N   0  0  0  0  0  0  0  0  0  0  0  0
  191.8940  173.5970  140.6140 C   0  0  0  0  0  0  0  0  0  0  0  0
  192.2500  172.8700  139.4330 N   0  0  0  0  0  0  0  0  0  0  0  0
  184.6920  178.6880  145.8000 C   0  0  1  0  0  3  0  0  0  0  0  0
  186.4730  177.1080  146.5570 C   0  0  0  0  0  2  0  0  0  0  0  0
  187.1990  178.2910  143.0750 O   0  0  0  0  0  1  0  0  0  0  0  0
  183.3170  178.9130  145.7620 O   0  0  0  0  0  1  0  0  0  0  0  0
  184.9700  177.3690  146.5120 C   0  0  0  0  0  2  0  0  0  0  0  0
  186.7410  178.3750  144.3920 C   0  0  2  0  0  3  0  0  0  0  0  0
  187.0520  177.0730  145.1420 C   0  0  1  0  0  3  0  0  0  0  0  0
  185.2380  178.6380  144.3770 C   0  0  0  0  0  2  0  0  0  0  0  0
  1  8  1  0  0  0  0
  2  3  1  1  0  0  0
  2 15  1  0  0  0  0
  2  7  1  0  0  0  0
  5  4  2  0  0  0  0
  6 13  1  6  0  0  0
  6  9  1  0  0  0  0
  7 17  1  0  0  0  0
  7 19  2  0  0  0  0
  8 20  2  0  0  0  0
  9  3  2  0  0  0  0
 10 16  1  0  0  0  0
 10 14  2  0  0  0  0
 11  1  1  0  0  0  0
 12 21  1  0  0  0  0
 15 10  1  0  0  0  0
 16  5  1  0  0  0  0
 17  1  2  0  0  0  0
 18 23  2  0  0  0  0
 18  6  1  0  0  0  0
 19 14  1  0  0  0  0
 19 20  1  0  0  0  0
 21 15  2  0  0  0  0
 22 12  2  0  0  0  0
 22  3  1  0  0  0  0
 23 22  1  0  0  0  0
 24 27  1  6  0  0  0
 24 28  1  0  0  0  0
 28 25  1  0  0  0  0
 29 26  1  6  0  0  0
 29 30  1  0  0  0  0
 30  5  1  1  0  0  0
 30 25  1  0  0  0  0
 31 29  1  0  0  0  0
 31 24  1  0  0  0  0
M  END
>  <MODEL>
7

>  <REMARK>
 VINA RESULT:      -7.9      3.063      8.264
  Name = 
  1 active torsions:
  status: ('A' for Active; 'I' for Inactive)
    1  A    between atoms: C_5  and  C_30
                            x       y       z     vdW  Elec       q    Type
                         _______ _______ _______ _____ _____    ______ ____

>  <TORSDO>
F 1

$$$$
=
 OpenBabel11112416563D

 31 35  0  0  1  0  0  0  0  0999 V2000
  195.2860  173.8900  145.4160 C   0  0  0  0  0  0  0  0  0  0  0  0
  192.1280  173.4380  143.2800 C   0  0  2  0  0  3  0  0  0  0  0  0
  192.1160  171.9480  142.9990 C   0  0  0  0  0  0  0  0  0  0  0  0
  189.8910  177.9310  145.2300 O   0  0  0  0  0  0  0  0  0  0  0  0
  189.0290  177.2850  144.5720 C   0  0  0  0  0  0  0  0  0  0  0  0
  193.2430  169.7780  142.5160 C   0  0  2  0  0  3  0  0  0  0  0  0
  193.1050  173.9430  144.3330 C   0  0  0  0  0  0  0  0  0  0  0  0
  194.9810  175.0650  146.1050 C   0  0  0  0  0  3  0  0  0  0  0  0
  193.2440  171.2500  142.8330 C   0  0  0  0  0  3  0  0  0  0  0  0
  190.5810  175.3040  144.1450 C   0  0  0  0  0  0  0  0  0  0  0  0
  196.5130  173.2710  145.6080 O   0  0  0  0  0  1  0  0  0  0  0  0
  189.7280  171.9680  142.7230 N   0  0  0  0  0  0  0  0  0  0  0  0
  194.3670  169.4500  141.5580 C   0  0  0  0  0  1  0  0  0  0  0  0
  191.5620  175.8140  144.8300 N   0  0  0  0  0  0  0  0  0  0  0  0
  190.7320  173.9700  143.5360 C   0  0  0  0  0  0  0  0  0  0  0  0
  189.3300  175.9960  144.0270 N   0  0  0  0  0  2  0  0  0  0  0  0
  194.3600  173.3430  144.5250 C   0  0  0  0  0  3  0  0  0  0  0  0
  191.9290  169.2900  141.9640 C   0  0  0  0  0  3  0  0  0  0  0  0
  192.8160  175.1440  145.0200 C   0  0  0  0  0  0  0  0  0  0  0  0
  193.7500  175.6920  145.9040 C   0  0  0  0  0  3  0  0  0  0  0  0
  189.6720  173.2800  143.2300 N   0  0  0  0  0  0  0  0  0  0  0  0
  190.8410  171.3080  142.6280 C   0  0  0  0  0  0  0  0  0  0  0  0
  190.8410  169.9950  142.0580 N   0  0  0  0  0  0  0  0  0  0  0  0
  184.9850  177.7470  143.1670 C   0  0  1  0  0  3  0  0  0  0  0  0
  187.4400  178.0860  142.8510 C   0  0  0  0  0  2  0  0  0  0  0  0
  186.7510  176.8520  146.3230 O   0  0  0  0  0  1  0  0  0  0  0  0
  183.7250  178.2980  142.9400 O   0  0  0  0  0  1  0  0  0  0  0  0
  186.0540  178.6760  142.6050 C   0  0  0  0  0  2  0  0  0  0  0  0
  186.5760  176.9700  144.9420 C   0  0  2  0  0  3  0  0  0  0  0  0
  187.6700  177.8670  144.3470 C   0  0  1  0  0  3  0  0  0  0  0  0
  185.1940  177.5570  144.6660 C   0  0  0  0  0  2  0  0  0  0  0  0
  1 11  1  0  0  0  0
  1  8  1  0  0  0  0
  2  3  1  1  0  0  0
  2 15  1  0  0  0  0
  2  7  1  0  0  0  0
  5  4  2  0  0  0  0
  6 13  1  6  0  0  0
  6  9  1  0  0  0  0
  7 17  1  0  0  0  0
  7 19  2  0  0  0  0
  9  3  2  0  0  0  0
 10 14  2  0  0  0  0
 12 21  1  0  0  0  0
 14 19  1  0  0  0  0
 15 10  1  0  0  0  0
 16 10  1  0  0  0  0
 16  5  1  0  0  0  0
 17  1  2  0  0  0  0
 18 23  2  0  0  0  0
 18  6  1  0  0  0  0
 19 20  1  0  0  0  0
 20  8  2  0  0  0  0
 21 15  2  0  0  0  0
 22 12  2  0  0  0  0
 22  3  1  0  0  0  0
 23 22  1  0  0  0  0
 24 27  1  1  0  0  0
 24 31  1  0  0  0  0
 25 30  1  0  0  0  0
 28 25  1  0  0  0  0
 28 24  1  0  0  0  0
 29 26  1  1  0  0  0
 30  5  1  6  0  0  0
 30 29  1  0  0  0  0
 31 29  1  0  0  0  0
M  END
>  <MODEL>
8

>  <REMARK>
 VINA RESULT:      -7.8      2.952      8.539
  Name = 
  1 active torsions:
  status: ('A' for Active; 'I' for Inactive)
    1  A    between atoms: C_5  and  C_30
                            x       y       z     vdW  Elec       q    Type
                         _______ _______ _______ _____ _____    ______ ____

>  <TORSDO>
F 1

$$$$
=
 OpenBabel11112416563D

 31 35  0  0  1  0  0  0  0  0999 V2000
  192.2400  169.7600  142.5220 C   0  0  0  0  0  0  0  0  0  0  0  0
  192.5830  172.8890  144.7200 C   0  0  2  0  0  3  0  0  0  0  0  0
  194.0770  172.9740  144.9630 C   0  0  0  0  0  0  0  0  0  0  0  0
  187.9290  174.9280  142.9370 O   0  0  0  0  0  0  0  0  0  0  0  0
  188.5460  175.8080  143.5980 C   0  0  0  0  0  0  0  0  0  0  0  0
  196.3150  171.9530  145.3640 C   0  0  2  0  0  3  0  0  0  0  0  0
  192.1020  171.9100  143.6570 C   0  0  0  0  0  0  0  0  0  0  0  0
  191.0330  170.0170  141.8700 C   0  0  0  0  0  3  0  0  0  0  0  0
  194.8370  171.8800  145.0850 C   0  0  0  0  0  3  0  0  0  0  0  0
  190.6170  174.3540  143.9390 C   0  0  0  0  0  0  0  0  0  0  0  0
  192.9170  168.5720  142.2860 O   0  0  0  0  0  1  0  0  0  0  0  0
  193.9400  175.3510  145.2940 N   0  0  0  0  0  0  0  0  0  0  0  0
  196.7260  170.8260  146.2870 C   0  0  0  0  0  1  0  0  0  0  0  0
  190.1400  173.3630  143.2440 N   0  0  0  0  0  0  0  0  0  0  0  0
  191.9720  174.2600  144.5090 C   0  0  0  0  0  0  0  0  0  0  0  0
  189.8630  175.5640  144.1030 N   0  0  0  0  0  2  0  0  0  0  0  0
  192.7610  170.6930  143.4210 C   0  0  0  0  0  3  0  0  0  0  0  0
  196.7480  173.2780  145.9340 C   0  0  0  0  0  3  0  0  0  0  0  0
  190.8690  172.1500  143.0080 C   0  0  0  0  0  0  0  0  0  0  0  0
  190.3480  171.2080  142.1170 C   0  0  0  0  0  3  0  0  0  0  0  0
  192.6140  175.3480  144.8230 N   0  0  0  0  0  0  0  0  0  0  0  0
  194.6590  174.2720  145.3470 C   0  0  0  0  0  0  0  0  0  0  0  0
  195.9850  174.3280  145.8830 N   0  0  0  0  0  0  0  0  0  0  0  0
  185.5300  178.8560  143.9940 C   0  0  1  0  0  3  0  0  0  0  0  0
  187.2120  177.6400  142.6030 C   0  0  0  0  0  2  0  0  0  0  0  0
  187.5670  176.6520  146.2010 O   0  0  0  0  0  1  0  0  0  0  0  0
  184.9310  180.0930  144.2260 O   0  0  0  0  0  1  0  0  0  0  0  0
  186.5450  178.9880  142.8640 C   0  0  0  0  0  2  0  0  0  0  0  0
  186.9040  177.0340  145.0320 C   0  0  2  0  0  3  0  0  0  0  0  0
  187.9010  177.1300  143.8690 C   0  0  1  0  0  3  0  0  0  0  0  0
  186.2250  178.3810  145.2660 C   0  0  0  0  0  2  0  0  0  0  0  0
  1 17  1  0  0  0  0
  2  7  1  6  0  0  0
  2  3  1  0  0  0  0
  3  9  2  0  0  0  0
  3 22  1  0  0  0  0
  4  5  2  0  0  0  0
  5 16  1  0  0  0  0
  6 18  1  0  0  0  0
  6 13  1  1  0  0  0
  8 20  1  0  0  0  0
  8  1  2  0  0  0  0
  9  6  1  0  0  0  0
 10 16  1  0  0  0  0
 10 15  1  0  0  0  0
 11  1  1  0  0  0  0
 12 22  2  0  0  0  0
 14 10  2  0  0  0  0
 15  2  1  0  0  0  0
 15 21  2  0  0  0  0
 17  7  2  0  0  0  0
 19 14  1  0  0  0  0
 19  7  1  0  0  0  0
 20 19  2  0  0  0  0
 21 12  1  0  0  0  0
 22 23  1  0  0  0  0
 23 18  2  0  0  0  0
 24 27  1  1  0  0  0
 24 31  1  0  0  0  0
 25 28  1  0  0  0  0
 25 30  1  0  0  0  0
 28 24  1  0  0  0  0
 29 31  1  0  0  0  0
 29 26  1  1  0  0  0
 30  5  1  6  0  0  0
 30 29  1  0  0  0  0
M  END
>  <MODEL>
9

>  <REMARK>
 VINA RESULT:      -7.8      3.169      9.298
  Name = 
  1 active torsions:
  status: ('A' for Active; 'I' for Inactive)
    1  A    between atoms: C_5  and  C_30
                            x       y       z     vdW  Elec       q    Type
                         _______ _______ _______ _____ _____    ______ ____

>  <TORSDO>
F 1

$$$$
