=
 OpenBabel11112416383D

 32 37  0  0  1  0  0  0  0  0999 V2000
  194.0770  176.8210  145.4600 C   0  0  0  0  0  2  0  0  0  0  0  0
  189.4210  175.0490  145.1070 C   0  0  0  0  0  0  0  0  0  0  0  0
  188.5590  174.9020  140.3230 C   0  0  0  0  0  3  0  0  0  0  0  0
  187.4530  175.7390  140.4940 C   0  0  0  0  0  3  0  0  0  0  0  0
  187.9030  176.3990  146.6530 C   0  0  0  0  0  0  0  0  0  0  0  0
  186.7230  177.2530  146.6990 C   0  0  0  0  0  0  0  0  0  0  0  0
  191.7160  175.2540  145.7280 N   0  0  2  0  0  0  0  0  0  0  0  0
  191.1240  173.4170  143.6770 S   0  0  0  0  0  0  0  0  0  0  0  0
  184.9500  178.4430  145.9090 C   0  0  0  0  0  0  0  0  0  0  0  0
  193.3270  175.0590  143.8650 C   0  0  0  0  0  2  0  0  0  0  0  0
  189.3200  174.5190  141.4280 C   0  0  0  0  0  3  0  0  0  0  0  0
  189.7450  174.5760  143.8310 C   0  0  0  0  0  0  0  0  0  0  0  0
  188.9870  174.9680  142.7160 C   0  0  0  0  0  0  0  0  0  0  0  0
  187.5100  176.2670  144.1720 C   0  0  0  0  0  0  0  0  0  0  0  0
  184.9820  178.6040  147.1960 N   0  0  0  0  0  0  0  0  0  0  0  0
  193.5430  176.4700  146.8560 C   0  0  0  0  0  2  0  0  0  0  0  0
  192.3220  174.3280  144.7490 C   0  0  1  0  0  3  0  0  0  0  0  0
  186.1030  177.8550  147.7060 C   0  0  0  0  0  2  0  0  0  0  0  0
  192.5920  175.2680  146.8900 C   0  0  0  0  0  2  0  0  0  0  0  0
  194.5090  175.5900  144.6710 C   0  0  1  0  0  3  0  0  0  0  0  0
  187.1080  176.1910  141.7690 C   0  0  0  0  0  3  0  0  0  0  0  0
  187.8640  175.8130  142.8890 C   0  0  0  0  0  0  0  0  0  0  0  0
  186.3650  177.1410  144.3270 N   0  0  0  0  0  2  0  0  0  0  0  0
  190.4180  174.7690  146.1840 C   0  0  0  0  0  2  0  0  0  0  0  0
  188.5360  176.1170  147.7060 O   0  0  0  0  0  0  0  0  0  0  0  0
  183.9260  179.0590  145.0250 C   0  0  0  0  0  1  0  0  0  0  0  0
  188.2980  175.8860  145.3030 C   0  0  0  0  0  0  0  0  0  0  0  0
  186.0330  177.5820  145.5000 C   0  0  0  0  0  0  0  0  0  0  0  0
  195.5870  175.9560  143.7660 N   0  0  0  0  0  2  0  0  0  0  0  0
  196.6590  175.0640  143.4520 C   0  0  0  0  0  0  0  0  0  0  0  0
  196.7180  173.9190  143.9760 O   0  0  0  0  0  0  0  0  0  0  0  0
  197.9390  175.5810  142.3170 S   0  0  0  0  0  1  0  0  0  0  0  0
  1 16  1  0  0  0  0
  2 27  1  0  0  0  0
  2 24  1  0  0  0  0
  3  4  2  0  0  0  0
  3 11  1  0  0  0  0
  4 21  1  0  0  0  0
  5  6  1  0  0  0  0
  5 25  2  0  0  0  0
  6 18  1  0  0  0  0
  7 24  1  1  0  0  0
  7 19  1  0  0  0  0
  8 12  1  0  0  0  0
  8 17  1  0  0  0  0
  9 15  2  0  0  0  0
 10 20  1  0  0  0  0
 11 13  2  0  0  0  0
 12  2  2  0  0  0  0
 13 22  1  0  0  0  0
 13 12  1  0  0  0  0
 14 23  1  0  0  0  0
 14 27  2  0  0  0  0
 15 18  1  0  0  0  0
 16 19  1  0  0  0  0
 17 10  1  6  0  0  0
 17  7  1  0  0  0  0
 20 29  1  6  0  0  0
 20  1  1  0  0  0  0
 21 22  2  0  0  0  0
 22 14  1  0  0  0  0
 23 28  1  0  0  0  0
 26  9  1  0  0  0  0
 27  5  1  0  0  0  0
 28  9  1  0  0  0  0
 28  6  2  0  0  0  0
 30 29  1  0  0  0  0
 30 31  2  0  0  0  0
 32 30  1  0  0  0  0
M  END
>  <MODEL>
1

>  <REMARK>
 VINA RESULT:      -8.5      0.000      0.000
  Name = 
  1 active torsions:
  status: ('A' for Active; 'I' for Inactive)
    1  A    between atoms: C_20  and  N_29
                            x       y       z     vdW  Elec       q    Type
                         _______ _______ _______ _____ _____    ______ ____

>  <TORSDO>
F 1

$$$$
=
 OpenBabel11112416383D

 32 37  0  0  1  0  0  0  0  0999 V2000
  193.4990  176.5040  145.8050 C   0  0  0  0  0  2  0  0  0  0  0  0
  189.0830  174.7370  144.2840 C   0  0  0  0  0  0  0  0  0  0  0  0
  189.9540  173.0290  139.8150 C   0  0  0  0  0  3  0  0  0  0  0  0
  188.9760  173.8800  139.2960 C   0  0  0  0  0  3  0  0  0  0  0  0
  187.3020  176.5270  144.6600 C   0  0  0  0  0  0  0  0  0  0  0  0
  186.3010  177.3530  143.9980 C   0  0  0  0  0  0  0  0  0  0  0  0
  191.0170  175.1230  145.6270 N   0  0  2  0  0  0  0  0  0  0  0  0
  190.9580  172.7170  144.1650 S   0  0  0  0  0  0  0  0  0  0  0  0
  185.0890  178.2270  142.2800 C   0  0  0  0  0  0  0  0  0  0  0  0
  193.1420  174.3190  144.6600 C   0  0  0  0  0  2  0  0  0  0  0  0
  190.2210  173.0270  141.1850 C   0  0  0  0  0  3  0  0  0  0  0  0
  189.7730  173.8680  143.4320 C   0  0  0  0  0  0  0  0  0  0  0  0
  189.5150  173.8760  142.0520 C   0  0  0  0  0  0  0  0  0  0  0  0
  187.7970  175.5880  142.3790 C   0  0  0  0  0  0  0  0  0  0  0  0
  184.6840  178.8020  143.3700 N   0  0  0  0  0  0  0  0  0  0  0  0
  192.4660  176.6330  146.9330 C   0  0  0  0  0  2  0  0  0  0  0  0
  191.8060  173.9240  145.2790 C   0  0  1  0  0  3  0  0  0  0  0  0
  185.4470  178.2570  144.4650 C   0  0  0  0  0  2  0  0  0  0  0  0
  191.4200  175.5140  146.9710 C   0  0  0  0  0  2  0  0  0  0  0  0
  194.0220  175.0800  145.6480 C   0  0  1  0  0  3  0  0  0  0  0  0
  188.2630  174.7280  140.1460 C   0  0  0  0  0  3  0  0  0  0  0  0
  188.5210  174.7360  141.5250 C   0  0  0  0  0  0  0  0  0  0  0  0
  186.7930  176.4700  141.8200 N   0  0  0  0  0  2  0  0  0  0  0  0
  189.5900  174.8210  145.6870 C   0  0  0  0  0  2  0  0  0  0  0  0
  187.4810  176.6030  145.9050 O   0  0  0  0  0  0  0  0  0  0  0  0
  184.5300  178.5220  140.9340 C   0  0  0  0  0  1  0  0  0  0  0  0
  188.0800  175.5960  143.7810 C   0  0  0  0  0  0  0  0  0  0  0  0
  186.1270  177.2740  142.5890 C   0  0  0  0  0  0  0  0  0  0  0  0
  195.3870  175.1230  145.1500 N   0  0  0  0  0  2  0  0  0  0  0  0
  196.2820  174.0140  145.2710 C   0  0  0  0  0  0  0  0  0  0  0  0
  195.9170  172.9520  145.8440 O   0  0  0  0  0  0  0  0  0  0  0  0
  197.9400  174.1390  144.6170 S   0  0  0  0  0  1  0  0  0  0  0  0
  1 16  1  0  0  0  0
  2 24  1  0  0  0  0
  3 11  1  0  0  0  0
  4  3  2  0  0  0  0
  4 21  1  0  0  0  0
  5 25  2  0  0  0  0
  6 18  1  0  0  0  0
  6  5  1  0  0  0  0
  7 24  1  1  0  0  0
  7 19  1  0  0  0  0
  8 17  1  0  0  0  0
  9 28  1  0  0  0  0
  9 15  2  0  0  0  0
 10 20  1  0  0  0  0
 11 13  2  0  0  0  0
 12  8  1  0  0  0  0
 12  2  2  0  0  0  0
 13 12  1  0  0  0  0
 14 27  2  0  0  0  0
 15 18  1  0  0  0  0
 16 19  1  0  0  0  0
 17 10  1  6  0  0  0
 17  7  1  0  0  0  0
 20 29  1  6  0  0  0
 20  1  1  0  0  0  0
 21 22  2  0  0  0  0
 22 13  1  0  0  0  0
 22 14  1  0  0  0  0
 23 14  1  0  0  0  0
 23 28  1  0  0  0  0
 26  9  1  0  0  0  0
 27  2  1  0  0  0  0
 27  5  1  0  0  0  0
 28  6  2  0  0  0  0
 29 30  1  0  0  0  0
 30 31  2  0  0  0  0
 32 30  1  0  0  0  0
M  END
>  <MODEL>
2

>  <REMARK>
 VINA RESULT:      -8.3      1.689      2.180
  Name = 
  1 active torsions:
  status: ('A' for Active; 'I' for Inactive)
    1  A    between atoms: C_20  and  N_29
                            x       y       z     vdW  Elec       q    Type
                         _______ _______ _______ _____ _____    ______ ____

>  <TORSDO>
F 1

$$$$
=
 OpenBabel11112416383D

 32 37  0  0  1  0  0  0  0  0999 V2000
  193.8320  176.8390  145.8360 C   0  0  0  0  0  2  0  0  0  0  0  0
  189.3610  174.8160  144.9150 C   0  0  0  0  0  0  0  0  0  0  0  0
  189.4980  173.7190  140.1800 C   0  0  0  0  0  3  0  0  0  0  0  0
  188.3750  174.5200  139.9580 C   0  0  0  0  0  3  0  0  0  0  0  0
  187.5480  176.3620  145.8320 C   0  0  0  0  0  0  0  0  0  0  0  0
  186.3770  177.1520  145.4730 C   0  0  0  0  0  0  0  0  0  0  0  0
  191.4780  175.2420  145.9290 N   0  0  2  0  0  0  0  0  0  0  0  0
  191.3320  173.0230  144.2020 S   0  0  0  0  0  0  0  0  0  0  0  0
  184.7960  178.0860  144.1270 C   0  0  0  0  0  0  0  0  0  0  0  0
  193.4370  174.7730  144.5010 C   0  0  0  0  0  2  0  0  0  0  0  0
  190.0200  173.5900  141.4680 C   0  0  0  0  0  3  0  0  0  0  0  0
  189.9420  174.1230  143.8480 C   0  0  0  0  0  0  0  0  0  0  0  0
  189.4270  174.2600  142.5490 C   0  0  0  0  0  0  0  0  0  0  0  0
  187.6730  175.7410  143.3970 C   0  0  0  0  0  0  0  0  0  0  0  0
  184.5620  178.4910  145.3370 N   0  0  0  0  0  0  0  0  0  0  0  0
  193.0250  176.7360  147.1390 C   0  0  0  0  0  2  0  0  0  0  0  0
  192.2780  174.1770  145.2930 C   0  0  1  0  0  3  0  0  0  0  0  0
  185.5590  177.9060  146.1970 C   0  0  0  0  0  2  0  0  0  0  0  0
  192.0960  175.5190  147.2180 C   0  0  0  0  0  2  0  0  0  0  0  0
  194.4260  175.5030  145.4070 C   0  0  1  0  0  3  0  0  0  0  0  0
  187.7730  175.1900  141.0250 C   0  0  0  0  0  3  0  0  0  0  0  0
  188.2860  175.0680  142.3250 C   0  0  0  0  0  0  0  0  0  0  0  0
  186.5140  176.5740  143.1460 N   0  0  0  0  0  2  0  0  0  0  0  0
  190.1170  174.7930  146.2030 C   0  0  0  0  0  2  0  0  0  0  0  0
  187.9540  176.3160  147.0240 O   0  0  0  0  0  0  0  0  0  0  0  0
  183.9700  178.4730  142.9520 C   0  0  0  0  0  1  0  0  0  0  0  0
  188.2150  175.6200  144.7150 C   0  0  0  0  0  0  0  0  0  0  0  0
  185.9460  177.2140  144.1190 C   0  0  0  0  0  0  0  0  0  0  0  0
  195.6640  175.7390  144.6820 N   0  0  0  0  0  2  0  0  0  0  0  0
  196.4390  174.6770  144.1210 C   0  0  0  0  0  0  0  0  0  0  0  0
  196.0790  173.4760  144.2580 O   0  0  0  0  0  0  0  0  0  0  0  0
  197.9410  175.0500  143.2290 S   0  0  0  0  0  1  0  0  0  0  0  0
  1 16  1  0  0  0  0
  2 24  1  0  0  0  0
  3 11  1  0  0  0  0
  4  3  2  0  0  0  0
  4 21  1  0  0  0  0
  5 25  2  0  0  0  0
  6  5  1  0  0  0  0
  6 18  1  0  0  0  0
  7 24  1  1  0  0  0
  7 19  1  0  0  0  0
  8 17  1  0  0  0  0
  9 15  2  0  0  0  0
 10 20  1  0  0  0  0
 11 13  2  0  0  0  0
 12  8  1  0  0  0  0
 12  2  2  0  0  0  0
 13 12  1  0  0  0  0
 14 27  2  0  0  0  0
 15 18  1  0  0  0  0
 16 19  1  0  0  0  0
 17 10  1  6  0  0  0
 17  7  1  0  0  0  0
 20 29  1  6  0  0  0
 20  1  1  0  0  0  0
 21 22  2  0  0  0  0
 22 13  1  0  0  0  0
 22 14  1  0  0  0  0
 23 14  1  0  0  0  0
 23 28  1  0  0  0  0
 26  9  1  0  0  0  0
 27  2  1  0  0  0  0
 27  5  1  0  0  0  0
 28  9  1  0  0  0  0
 28  6  2  0  0  0  0
 30 31  2  0  0  0  0
 30 29  1  0  0  0  0
 32 30  1  0  0  0  0
M  END
>  <MODEL>
3

>  <REMARK>
 VINA RESULT:      -8.2      0.980      1.109
  Name = 
  1 active torsions:
  status: ('A' for Active; 'I' for Inactive)
    1  A    between atoms: C_20  and  N_29
                            x       y       z     vdW  Elec       q    Type
                         _______ _______ _______ _____ _____    ______ ____

>  <TORSDO>
F 1

$$$$
=
 OpenBabel11112416383D

 32 37  0  0  1  0  0  0  0  0999 V2000
  189.6880  171.7790  141.5390 C   0  0  0  0  0  2  0  0  0  0  0  0
  189.5340  176.4710  143.2430 C   0  0  0  0  0  0  0  0  0  0  0  0
  192.2740  176.3740  147.2590 C   0  0  0  0  0  3  0  0  0  0  0  0
  191.1910  176.8330  148.0130 C   0  0  0  0  0  3  0  0  0  0  0  0
  187.0990  177.2300  143.3570 C   0  0  0  0  0  0  0  0  0  0  0  0
  186.0550  177.7170  144.2490 C   0  0  0  0  0  0  0  0  0  0  0  0
  189.8090  174.6130  141.7710 N   0  0  2  0  0  0  0  0  0  0  0  0
  192.1620  175.7410  142.8300 S   0  0  0  0  0  0  0  0  0  0  0  0
  185.0780  178.3420  146.2080 C   0  0  0  0  0  0  0  0  0  0  0  0
  191.6530  173.0770  142.3550 C   0  0  0  0  0  2  0  0  0  0  0  0
  192.1330  176.1740  145.8850 C   0  0  0  0  0  3  0  0  0  0  0  0
  190.7650  176.2390  143.8640 C   0  0  0  0  0  0  0  0  0  0  0  0
  190.9080  176.4290  145.2480 C   0  0  0  0  0  0  0  0  0  0  0  0
  188.5790  177.1660  145.3900 C   0  0  0  0  0  0  0  0  0  0  0  0
  184.1850  178.4630  145.2750 N   0  0  0  0  0  0  0  0  0  0  0  0
  188.8930  172.6640  140.5680 C   0  0  0  0  0  2  0  0  0  0  0  0
  191.2770  174.4600  141.8350 C   0  0  1  0  0  3  0  0  0  0  0  0
  184.7930  178.0670  144.0300 C   0  0  0  0  0  3  0  0  0  0  0  0
  189.3910  174.1100  140.4700 C   0  0  0  0  0  2  0  0  0  0  0  0
  191.1950  171.9720  141.4080 C   0  0  1  0  0  3  0  0  0  0  0  0
  189.9680  177.0940  147.3920 C   0  0  0  0  0  3  0  0  0  0  0  0
  189.8120  176.8980  146.0120 C   0  0  0  0  0  0  0  0  0  0  0  0
  187.4650  177.6340  146.1910 N   0  0  0  0  0  0  0  0  0  0  0  0
  189.4190  176.0180  141.8240 C   0  0  0  0  0  2  0  0  0  0  0  0
  186.8740  177.0680  142.1280 O   0  0  0  0  0  0  0  0  0  0  0  0
  184.8270  178.6660  147.6380 C   0  0  0  0  0  1  0  0  0  0  0  0
  188.4290  176.9490  143.9850 C   0  0  0  0  0  0  0  0  0  0  0  0
  186.3170  177.8720  145.6380 C   0  0  0  0  0  0  0  0  0  0  0  0
  191.8680  170.7290  141.7510 N   0  0  0  0  0  2  0  0  0  0  0  0
  192.2010  169.7420  140.7730 C   0  0  0  0  0  0  0  0  0  0  0  0
  191.8950  169.9090  139.5610 O   0  0  0  0  0  0  0  0  0  0  0  0
  193.0440  168.2470  141.2720 S   0  0  0  0  0  1  0  0  0  0  0  0
  2 12  2  0  0  0  0
  2 27  1  0  0  0  0
  3  4  1  0  0  0  0
  5 27  1  0  0  0  0
  5  6  1  0  0  0  0
  6 28  1  0  0  0  0
  7 19  1  6  0  0  0
  7 24  1  0  0  0  0
  7 17  1  0  0  0  0
  8 12  1  0  0  0  0
  9 26  1  0  0  0  0
 11  3  2  0  0  0  0
 12 13  1  0  0  0  0
 13 11  1  0  0  0  0
 13 22  2  0  0  0  0
 14 22  1  0  0  0  0
 14 23  1  0  0  0  0
 15  9  2  0  0  0  0
 16  1  1  0  0  0  0
 17 10  1  1  0  0  0
 17  8  1  0  0  0  0
 18  6  2  0  0  0  0
 18 15  1  0  0  0  0
 19 16  1  0  0  0  0
 20  1  1  0  0  0  0
 20 29  1  1  0  0  0
 20 10  1  0  0  0  0
 21  4  2  0  0  0  0
 22 21  1  0  0  0  0
 24  2  1  0  0  0  0
 25  5  2  0  0  0  0
 27 14  2  0  0  0  0
 28 23  2  0  0  0  0
 28  9  1  0  0  0  0
 30 32  1  0  0  0  0
 30 29  1  0  0  0  0
 31 30  2  0  0  0  0
M  END
>  <MODEL>
4

>  <REMARK>
 VINA RESULT:      -8.1      3.119      5.197
  Name = 
  1 active torsions:
  status: ('A' for Active; 'I' for Inactive)
    1  A    between atoms: C_20  and  N_29
                            x       y       z     vdW  Elec       q    Type
                         _______ _______ _______ _____ _____    ______ ____

>  <TORSDO>
F 1

$$$$
=
 OpenBabel11112416383D

 32 37  0  0  1  0  0  0  0  0999 V2000
  190.5260  172.4920  142.3750 C   0  0  0  0  0  2  0  0  0  0  0  0
  188.5140  176.9520  143.3770 C   0  0  0  0  0  0  0  0  0  0  0  0
  186.8520  176.5180  147.9260 C   0  0  0  0  0  3  0  0  0  0  0  0
  185.5650  176.8440  147.4900 C   0  0  0  0  0  3  0  0  0  0  0  0
  186.9320  177.5920  141.4770 C   0  0  0  0  0  0  0  0  0  0  0  0
  185.5520  177.9310  141.1540 C   0  0  0  0  0  0  0  0  0  0  0  0
  190.0800  175.2850  142.6950 N   0  0  2  0  0  0  0  0  0  0  0  0
  190.4460  176.3830  145.2620 S   0  0  0  0  0  0  0  0  0  0  0  0
  183.3320  178.2910  141.5050 C   0  0  0  0  0  0  0  0  0  0  0  0
  190.8450  173.7710  144.4900 C   0  0  0  0  0  2  0  0  0  0  0  0
  187.9060  176.4680  147.0120 C   0  0  0  0  0  3  0  0  0  0  0  0
  188.7470  176.7030  144.7330 C   0  0  0  0  0  0  0  0  0  0  0  0
  187.6870  176.7420  145.6530 C   0  0  0  0  0  0  0  0  0  0  0  0
  186.1460  177.3610  143.8560 C   0  0  0  0  0  0  0  0  0  0  0  0
  183.5590  178.4780  140.2420 N   0  0  0  0  0  0  0  0  0  0  0  0
  190.7520  173.4470  141.1930 C   0  0  0  0  0  2  0  0  0  0  0  0
  190.8900  175.1870  143.9260 C   0  0  1  0  0  3  0  0  0  0  0  0
  184.9630  178.2510  140.0080 C   0  0  0  0  0  3  0  0  0  0  0  0
  190.9500  174.9140  141.5880 C   0  0  0  0  0  2  0  0  0  0  0  0
  191.4770  172.7610  143.5350 C   0  0  1  0  0  3  0  0  0  0  0  0
  185.3330  177.1210  146.1420 C   0  0  0  0  0  3  0  0  0  0  0  0
  186.3830  177.0760  145.2120 C   0  0  0  0  0  0  0  0  0  0  0  0
  184.8020  177.6890  143.4220 N   0  0  0  0  0  0  0  0  0  0  0  0
  189.6490  176.6580  142.4510 C   0  0  0  0  0  2  0  0  0  0  0  0
  187.8160  177.5600  140.5800 O   0  0  0  0  0  0  0  0  0  0  0  0
  181.9930  178.4400  142.1340 C   0  0  0  0  0  1  0  0  0  0  0  0
  187.2220  177.2970  142.9170 C   0  0  0  0  0  0  0  0  0  0  0  0
  184.5610  177.9390  142.1730 C   0  0  0  0  0  0  0  0  0  0  0  0
  191.7300  171.5170  144.2440 N   0  0  0  0  0  2  0  0  0  0  0  0
  192.8100  170.6450  143.9010 C   0  0  0  0  0  0  0  0  0  0  0  0
  193.5790  170.9210  142.9400 O   0  0  0  0  0  0  0  0  0  0  0  0
  193.0660  169.1410  144.8320 S   0  0  0  0  0  1  0  0  0  0  0  0
  1 20  1  0  0  0  0
  2 12  1  0  0  0  0
  4  3  1  0  0  0  0
  5 27  1  0  0  0  0
  6  5  1  0  0  0  0
  6 28  1  0  0  0  0
  7 19  1  6  0  0  0
  7 17  1  0  0  0  0
  9 26  1  0  0  0  0
  9 28  1  0  0  0  0
 11  3  2  0  0  0  0
 12  8  1  0  0  0  0
 12 13  2  0  0  0  0
 13 11  1  0  0  0  0
 14 22  2  0  0  0  0
 15  9  2  0  0  0  0
 16 19  1  0  0  0  0
 16  1  1  0  0  0  0
 17 10  1  1  0  0  0
 17  8  1  0  0  0  0
 18 15  1  0  0  0  0
 18  6  2  0  0  0  0
 20 29  1  1  0  0  0
 20 10  1  0  0  0  0
 21  4  2  0  0  0  0
 22 13  1  0  0  0  0
 22 21  1  0  0  0  0
 23 14  1  0  0  0  0
 24  7  1  0  0  0  0
 24  2  1  0  0  0  0
 25  5  2  0  0  0  0
 27  2  2  0  0  0  0
 27 14  1  0  0  0  0
 28 23  2  0  0  0  0
 30 29  1  0  0  0  0
 30 32  1  0  0  0  0
 31 30  2  0  0  0  0
M  END
>  <MODEL>
5

>  <REMARK>
 VINA RESULT:      -7.9      3.347      5.174
  Name = 
  1 active torsions:
  status: ('A' for Active; 'I' for Inactive)
    1  A    between atoms: C_20  and  N_29
                            x       y       z     vdW  Elec       q    Type
                         _______ _______ _______ _____ _____    ______ ____

>  <TORSDO>
F 1

$$$$
=
 OpenBabel11112416383D

 32 37  0  0  1  0  0  0  0  0999 V2000
  188.3940  173.1130  141.7860 C   0  0  0  0  0  2  0  0  0  0  0  0
  186.6110  177.7380  142.3920 C   0  0  0  0  0  0  0  0  0  0  0  0
  186.5000  178.3530  147.2140 C   0  0  0  0  0  3  0  0  0  0  0  0
  185.1290  178.6120  147.1530 C   0  0  0  0  0  3  0  0  0  0  0  0
  184.4810  177.9910  141.0070 C   0  0  0  0  0  0  0  0  0  0  0  0
  183.0570  178.2910  141.0760 C   0  0  0  0  0  0  0  0  0  0  0  0
  187.9510  175.9190  141.6220 N   0  0  2  0  0  0  0  0  0  0  0  0
  189.0650  177.5410  143.6370 S   0  0  0  0  0  0  0  0  0  0  0  0
  181.0490  178.7800  142.0320 C   0  0  0  0  0  0  0  0  0  0  0  0
  189.3130  174.8120  143.3600 C   0  0  0  0  0  2  0  0  0  0  0  0
  187.2110  178.0760  146.0450 C   0  0  0  0  0  3  0  0  0  0  0  0
  187.2740  177.7850  143.6230 C   0  0  0  0  0  0  0  0  0  0  0  0
  186.5600  178.0530  144.8020 C   0  0  0  0  0  0  0  0  0  0  0  0
  184.5020  178.3080  143.5030 C   0  0  0  0  0  0  0  0  0  0  0  0
  180.8550  178.6810  140.7530 N   0  0  0  0  0  0  0  0  0  0  0  0
  188.1910  173.7790  140.4180 C   0  0  0  0  0  2  0  0  0  0  0  0
  189.1140  176.0700  142.5200 C   0  0  1  0  0  3  0  0  0  0  0  0
  182.1210  178.3690  140.1380 C   0  0  0  0  0  3  0  0  0  0  0  0
  188.4400  175.2920  140.4030 C   0  0  0  0  0  2  0  0  0  0  0  0
  189.6520  173.6010  142.4960 C   0  0  1  0  0  3  0  0  0  0  0  0
  184.4690  178.5950  145.9230 C   0  0  0  0  0  3  0  0  0  0  0  0
  185.1700  178.3190  144.7400 C   0  0  0  0  0  0  0  0  0  0  0  0
  183.0770  178.5700  143.4610 N   0  0  0  0  0  0  0  0  0  0  0  0
  187.4050  177.2170  141.2390 C   0  0  0  0  0  2  0  0  0  0  0  0
  185.0350  177.7400  139.9030 O   0  0  0  0  0  0  0  0  0  0  0  0
  179.9740  179.1010  143.0080 C   0  0  0  0  0  1  0  0  0  0  0  0
  185.2260  178.0100  142.3060 C   0  0  0  0  0  0  0  0  0  0  0  0
  182.4410  178.5490  142.3320 C   0  0  0  0  0  0  0  0  0  0  0  0
  190.1720  172.5350  143.3370 N   0  0  0  0  0  2  0  0  0  0  0  0
  191.4900  172.0060  143.1770 C   0  0  0  0  0  0  0  0  0  0  0  0
  192.2510  172.4400  142.2700 O   0  0  0  0  0  0  0  0  0  0  0  0
  192.0620  170.7070  144.2630 S   0  0  0  0  0  1  0  0  0  0  0  0
  1 20  1  0  0  0  0
  2 12  1  0  0  0  0
  4  3  1  0  0  0  0
  5  6  1  0  0  0  0
  5 27  1  0  0  0  0
  6 28  1  0  0  0  0
  7 19  1  6  0  0  0
  7 17  1  0  0  0  0
  9 28  1  0  0  0  0
  9 26  1  0  0  0  0
 11  3  2  0  0  0  0
 12  8  1  0  0  0  0
 12 13  2  0  0  0  0
 13 11  1  0  0  0  0
 14 22  2  0  0  0  0
 15  9  2  0  0  0  0
 16  1  1  0  0  0  0
 17 10  1  1  0  0  0
 17  8  1  0  0  0  0
 18 15  1  0  0  0  0
 18  6  2  0  0  0  0
 19 16  1  0  0  0  0
 20 29  1  1  0  0  0
 20 10  1  0  0  0  0
 21  4  2  0  0  0  0
 22 13  1  0  0  0  0
 22 21  1  0  0  0  0
 23 14  1  0  0  0  0
 24  7  1  0  0  0  0
 24  2  1  0  0  0  0
 25  5  2  0  0  0  0
 27  2  2  0  0  0  0
 27 14  1  0  0  0  0
 28 23  2  0  0  0  0
 30 29  1  0  0  0  0
 30 32  1  0  0  0  0
 31 30  2  0  0  0  0
M  END
>  <MODEL>
6

>  <REMARK>
 VINA RESULT:      -7.9      3.727      6.148
  Name = 
  1 active torsions:
  status: ('A' for Active; 'I' for Inactive)
    1  A    between atoms: C_20  and  N_29
                            x       y       z     vdW  Elec       q    Type
                         _______ _______ _______ _____ _____    ______ ____

>  <TORSDO>
F 1

$$$$
=
 OpenBabel11112416383D

 32 37  0  0  1  0  0  0  0  0999 V2000
  187.8140  177.4480  142.3940 C   0  0  0  0  0  2  0  0  0  0  0  0
  191.7110  174.3300  142.5580 C   0  0  0  0  0  0  0  0  0  0  0  0
  194.1810  175.7120  146.5130 C   0  0  0  0  0  3  0  0  0  0  0  0
  195.3160  175.9340  145.7300 C   0  0  0  0  0  3  0  0  0  0  0  0
  192.8450  174.3020  140.2710 C   0  0  0  0  0  0  0  0  0  0  0  0
  194.0970  174.5580  139.5700 C   0  0  0  0  0  0  0  0  0  0  0  0
  189.4680  175.1320  142.4200 N   0  0  2  0  0  0  0  0  0  0  0  0
  190.3020  174.1460  144.9220 S   0  0  0  0  0  0  0  0  0  0  0  0
  196.2650  175.1940  139.2920 C   0  0  0  0  0  0  0  0  0  0  0  0
  188.6430  176.2910  144.4390 C   0  0  0  0  0  2  0  0  0  0  0  0
  193.0030  175.2540  145.9200 C   0  0  0  0  0  3  0  0  0  0  0  0
  191.7660  174.5420  143.9400 C   0  0  0  0  0  0  0  0  0  0  0  0
  192.9460  175.0130  144.5380 C   0  0  0  0  0  0  0  0  0  0  0  0
  194.0630  174.9920  142.3610 C   0  0  0  0  0  0  0  0  0  0  0  0
  195.8100  174.8490  138.1270 N   0  0  0  0  0  0  0  0  0  0  0  0
  187.7070  176.4160  141.2630 C   0  0  0  0  0  2  0  0  0  0  0  0
  189.0540  174.9560  143.8260 C   0  0  1  0  0  3  0  0  0  0  0  0
  194.4360  174.4450  138.2920 C   0  0  0  0  0  3  0  0  0  0  0  0
  188.2630  175.0300  141.6100 C   0  0  0  0  0  2  0  0  0  0  0  0
  187.4140  176.8770  143.7500 C   0  0  1  0  0  3  0  0  0  0  0  0
  195.2750  175.6960  144.3550 C   0  0  0  0  0  3  0  0  0  0  0  0
  194.0990  175.2350  143.7450 C   0  0  0  0  0  0  0  0  0  0  0  0
  195.2490  175.2370  141.5640 N   0  0  0  0  0  0  0  0  0  0  0  0
  190.3570  174.0580  141.9890 C   0  0  0  0  0  2  0  0  0  0  0  0
  191.8260  173.9000  139.6460 O   0  0  0  0  0  0  0  0  0  0  0  0
  197.6550  175.6640  139.5290 C   0  0  0  0  0  1  0  0  0  0  0  0
  192.8530  174.5360  141.7500 C   0  0  0  0  0  0  0  0  0  0  0  0
  195.2300  175.0330  140.2840 C   0  0  0  0  0  0  0  0  0  0  0  0
  186.8570  177.9390  144.5720 N   0  0  0  0  0  2  0  0  0  0  0  0
  185.9400  177.6820  145.6390 C   0  0  0  0  0  0  0  0  0  0  0  0
  185.5610  176.5060  145.8910 O   0  0  0  0  0  0  0  0  0  0  0  0
  185.3130  179.0400  146.6150 S   0  0  0  0  0  1  0  0  0  0  0  0
  1 20  1  0  0  0  0
  2 12  1  0  0  0  0
  4  3  1  0  0  0  0
  5 27  1  0  0  0  0
  6  5  1  0  0  0  0
  6 28  1  0  0  0  0
  7 19  1  6  0  0  0
  7 17  1  0  0  0  0
  9 26  1  0  0  0  0
  9 28  1  0  0  0  0
 11  3  2  0  0  0  0
 12 13  2  0  0  0  0
 12  8  1  0  0  0  0
 13 11  1  0  0  0  0
 14 22  2  0  0  0  0
 15 18  1  0  0  0  0
 15  9  2  0  0  0  0
 16 19  1  0  0  0  0
 16  1  1  0  0  0  0
 17 10  1  1  0  0  0
 17  8  1  0  0  0  0
 18  6  2  0  0  0  0
 20 10  1  0  0  0  0
 20 29  1  1  0  0  0
 21  4  2  0  0  0  0
 22 21  1  0  0  0  0
 22 13  1  0  0  0  0
 23 14  1  0  0  0  0
 24  7  1  0  0  0  0
 24  2  1  0  0  0  0
 25  5  2  0  0  0  0
 27 14  1  0  0  0  0
 27  2  2  0  0  0  0
 28 23  2  0  0  0  0
 29 30  1  0  0  0  0
 30 31  2  0  0  0  0
 30 32  1  0  0  0  0
M  END
>  <MODEL>
7

>  <REMARK>
 VINA RESULT:      -7.5      3.195      8.860
  Name = 
  1 active torsions:
  status: ('A' for Active; 'I' for Inactive)
    1  A    between atoms: C_20  and  N_29
                            x       y       z     vdW  Elec       q    Type
                         _______ _______ _______ _____ _____    ______ ____

>  <TORSDO>
F 1

$$$$
=
 OpenBabel11112416383D

 32 37  0  0  1  0  0  0  0  0999 V2000
  187.9110  177.1660  141.9630 C   0  0  0  0  0  2  0  0  0  0  0  0
  192.0210  174.3350  141.7850 C   0  0  0  0  0  0  0  0  0  0  0  0
  195.0180  176.3730  145.0270 C   0  0  0  0  0  3  0  0  0  0  0  0
  195.9780  176.5570  144.0300 C   0  0  0  0  0  3  0  0  0  0  0  0
  192.7390  174.0710  139.3490 C   0  0  0  0  0  0  0  0  0  0  0  0
  193.8250  174.3070  138.4060 C   0  0  0  0  0  0  0  0  0  0  0  0
  189.7300  174.9770  141.9630 N   0  0  2  0  0  0  0  0  0  0  0  0
  191.0630  174.3820  144.3710 S   0  0  0  0  0  0  0  0  0  0  0  0
  195.8520  175.0280  137.6620 C   0  0  0  0  0  0  0  0  0  0  0  0
  189.1750  176.3410  143.9460 C   0  0  0  0  0  2  0  0  0  0  0  0
  193.7970  175.7710  144.7190 C   0  0  0  0  0  3  0  0  0  0  0  0
  192.2980  174.7310  143.0970 C   0  0  0  0  0  0  0  0  0  0  0  0
  193.5210  175.3470  143.4090 C   0  0  0  0  0  0  0  0  0  0  0  0
  194.2400  175.1040  141.0830 C   0  0  0  0  0  0  0  0  0  0  0  0
  195.2320  174.5050  136.6490 N   0  0  0  0  0  0  0  0  0  0  0  0
  187.6950  175.9880  141.0020 C   0  0  0  0  0  2  0  0  0  0  0  0
  189.5820  174.9630  143.4330 C   0  0  1  0  0  3  0  0  0  0  0  0
  193.9450  174.0460  137.1090 C   0  0  0  0  0  3  0  0  0  0  0  0
  188.4150  174.6960  141.4060 C   0  0  0  0  0  2  0  0  0  0  0  0
  187.8010  176.7560  143.4270 C   0  0  1  0  0  3  0  0  0  0  0  0
  195.7180  176.1370  142.7240 C   0  0  0  0  0  3  0  0  0  0  0  0
  194.4960  175.5300  142.3990 C   0  0  0  0  0  0  0  0  0  0  0  0
  195.2460  175.3110  140.0600 N   0  0  0  0  0  0  0  0  0  0  0  0
  190.6160  173.9100  141.5090 C   0  0  0  0  0  2  0  0  0  0  0  0
  191.6640  173.5310  138.9730 O   0  0  0  0  0  0  0  0  0  0  0  0
  197.2190  175.6080  137.5830 C   0  0  0  0  0  1  0  0  0  0  0  0
  192.9850  174.4990  140.7630 C   0  0  0  0  0  0  0  0  0  0  0  0
  195.0220  174.9400  138.8390 C   0  0  0  0  0  0  0  0  0  0  0  0
  187.3100  177.8820  144.2050 N   0  0  0  0  0  2  0  0  0  0  0  0
  186.1970  177.7720  145.0960 C   0  0  0  0  0  0  0  0  0  0  0  0
  185.5810  176.6790  145.2220 O   0  0  0  0  0  0  0  0  0  0  0  0
  185.6640  179.1990  146.0290 S   0  0  0  0  0  1  0  0  0  0  0  0
  1 20  1  0  0  0  0
  2 12  1  0  0  0  0
  4  3  1  0  0  0  0
  5 27  1  0  0  0  0
  6 28  1  0  0  0  0
  6  5  1  0  0  0  0
  7 19  1  6  0  0  0
  7 17  1  0  0  0  0
  9 28  1  0  0  0  0
 11  3  2  0  0  0  0
 12 13  2  0  0  0  0
 12  8  1  0  0  0  0
 13 11  1  0  0  0  0
 14 22  2  0  0  0  0
 15 18  1  0  0  0  0
 15  9  2  0  0  0  0
 16 19  1  0  0  0  0
 16  1  1  0  0  0  0
 17 10  1  1  0  0  0
 17  8  1  0  0  0  0
 18  6  2  0  0  0  0
 20 10  1  0  0  0  0
 20 29  1  1  0  0  0
 21  4  2  0  0  0  0
 22 21  1  0  0  0  0
 22 13  1  0  0  0  0
 23 14  1  0  0  0  0
 24  2  1  0  0  0  0
 24  7  1  0  0  0  0
 25  5  2  0  0  0  0
 26  9  1  0  0  0  0
 27 14  1  0  0  0  0
 27  2  2  0  0  0  0
 28 23  2  0  0  0  0
 29 30  1  0  0  0  0
 30 31  2  0  0  0  0
 30 32  1  0  0  0  0
M  END
>  <MODEL>
8

>  <REMARK>
 VINA RESULT:      -6.9      3.747      9.080
  Name = 
  1 active torsions:
  status: ('A' for Active; 'I' for Inactive)
    1  A    between atoms: C_20  and  N_29
                            x       y       z     vdW  Elec       q    Type
                         _______ _______ _______ _____ _____    ______ ____

>  <TORSDO>
F 1

$$$$
=
 OpenBabel11112416383D

 32 37  0  0  1  0  0  0  0  0999 V2000
  189.7470  175.8270  147.4640 C   0  0  0  0  0  2  0  0  0  0  0  0
  192.8740  173.9800  144.0370 C   0  0  0  0  0  0  0  0  0  0  0  0
  190.0710  171.1180  141.2810 C   0  0  0  0  0  3  0  0  0  0  0  0
  190.8950  170.0280  141.5690 C   0  0  0  0  0  3  0  0  0  0  0  0
  194.9280  173.0290  145.2180 C   0  0  0  0  0  0  0  0  0  0  0  0
  195.7140  171.8200  145.4290 C   0  0  0  0  0  0  0  0  0  0  0  0
  191.7040  175.5340  145.4190 N   0  0  2  0  0  0  0  0  0  0  0  0
  190.7970  175.2770  142.7650 S   0  0  0  0  0  0  0  0  0  0  0  0
  196.2890  169.6230  145.2640 C   0  0  0  0  0  0  0  0  0  0  0  0
  189.2700  175.6620  145.0240 C   0  0  0  0  0  2  0  0  0  0  0  0
  190.3600  172.3730  141.8190 C   0  0  0  0  0  3  0  0  0  0  0  0
  191.7760  173.8160  143.1870 C   0  0  0  0  0  0  0  0  0  0  0  0
  191.4760  172.5530  142.6520 C   0  0  0  0  0  0  0  0  0  0  0  0
  193.4400  171.6110  143.7670 C   0  0  0  0  0  0  0  0  0  0  0  0
  197.1720  170.1990  146.0190 N   0  0  0  0  0  0  0  0  0  0  0  0
  191.1430  176.4410  147.6440 C   0  0  0  0  0  2  0  0  0  0  0  0
  190.6580  175.9700  144.4730 C   0  0  1  0  0  3  0  0  0  0  0  0
  196.8170  171.5910  146.1320 C   0  0  0  0  0  2  0  0  0  0  0  0
  191.9240  176.6400  146.3410 C   0  0  0  0  0  2  0  0  0  0  0  0
  188.9800  176.4460  146.3010 C   0  0  1  0  0  3  0  0  0  0  0  0
  192.0100  170.1920  142.3930 C   0  0  0  0  0  3  0  0  0  0  0  0
  192.3130  171.4480  142.9410 C   0  0  0  0  0  0  0  0  0  0  0  0
  194.2780  170.4660  144.0610 N   0  0  0  0  0  2  0  0  0  0  0  0
  192.9720  175.2970  144.7360 C   0  0  0  0  0  2  0  0  0  0  0  0
  195.2610  174.1180  145.7580 O   0  0  0  0  0  0  0  0  0  0  0  0
  196.3220  168.1800  144.9070 C   0  0  0  0  0  1  0  0  0  0  0  0
  193.7290  172.8930  144.3300 C   0  0  0  0  0  0  0  0  0  0  0  0
  195.3120  170.5930  144.8330 C   0  0  0  0  0  0  0  0  0  0  0  0
  187.5550  176.3980  146.5870 N   0  0  0  0  0  2  0  0  0  0  0  0
  186.6330  177.3490  146.0480 C   0  0  0  0  0  0  0  0  0  0  0  0
  187.0360  178.2900  145.3120 O   0  0  0  0  0  0  0  0  0  0  0  0
  184.8930  177.2120  146.4330 S   0  0  0  0  0  1  0  0  0  0  0  0
  1 16  1  0  0  0  0
  2 27  1  0  0  0  0
  2 24  1  0  0  0  0
  3  4  2  0  0  0  0
  3 11  1  0  0  0  0
  4 21  1  0  0  0  0
  5  6  1  0  0  0  0
  5 25  2  0  0  0  0
  6 18  1  0  0  0  0
  7 24  1  6  0  0  0
  7 19  1  0  0  0  0
  8 12  1  0  0  0  0
  8 17  1  0  0  0  0
  9 15  2  0  0  0  0
 10 20  1  0  0  0  0
 11 13  2  0  0  0  0
 12  2  2  0  0  0  0
 13 22  1  0  0  0  0
 13 12  1  0  0  0  0
 14 23  1  0  0  0  0
 14 27  2  0  0  0  0
 15 18  1  0  0  0  0
 17 10  1  1  0  0  0
 17  7  1  0  0  0  0
 19 16  1  0  0  0  0
 20 29  1  1  0  0  0
 20  1  1  0  0  0  0
 21 22  2  0  0  0  0
 22 14  1  0  0  0  0
 23 28  1  0  0  0  0
 26  9  1  0  0  0  0
 27  5  1  0  0  0  0
 28  9  1  0  0  0  0
 28  6  2  0  0  0  0
 30 32  1  0  0  0  0
 30 29  1  0  0  0  0
 31 30  2  0  0  0  0
M  END
>  <MODEL>
9

>  <REMARK>
 VINA RESULT:      -6.9      3.653      8.321
  Name = 
  1 active torsions:
  status: ('A' for Active; 'I' for Inactive)
    1  A    between atoms: C_20  and  N_29
                            x       y       z     vdW  Elec       q    Type
                         _______ _______ _______ _____ _____    ______ ____

>  <TORSDO>
F 1

$$$$
