=
 OpenBabel11112416123D

 30 35  0  0  1  0  0  0  0  0999 V2000
  187.3030  176.5290  143.7940 C   0  0  1  0  0  3  0  0  0  0  0  0
  185.3790  177.8080  144.8840 C   0  0  0  0  0  0  0  0  0  0  0  0
  188.9860  175.9380  147.6850 N   0  0  0  0  0  2  0  0  0  0  0  0
  188.5030  175.5890  144.0440 C   0  0  1  0  0  3  0  0  0  0  0  0
  186.4510  175.9620  142.7470 N   0  0  0  0  0  2  0  0  0  0  0  0
  188.2950  173.8540  141.6050 O   0  0  0  0  0  1  0  0  0  0  0  0
  191.5960  176.0350  143.7720 C   0  0  1  0  0  3  0  0  0  0  0  0
  188.5250  175.2310  141.5400 C   0  0  1  0  0  3  0  0  0  0  0  0
  191.7120  175.4500  145.1560 C   0  0  1  0  0  3  0  0  0  0  0  0
  190.2590  175.4330  147.3030 C   0  0  0  0  0  0  0  0  0  0  0  0
  187.1740  175.9680  141.4610 C   0  0  2  0  0  3  0  0  0  0  0  0
  189.3420  175.7010  142.7550 C   0  0  2  0  0  3  0  0  0  0  0  0
  184.7300  178.3120  146.0160 C   0  0  0  0  0  3  0  0  0  0  0  0
  192.6960  176.3750  145.8360 C   0  0  0  0  0  2  0  0  0  0  0  0
  193.0150  176.3730  143.3940 C   0  0  0  0  0  2  0  0  0  0  0  0
  184.8810  178.1330  143.6270 O   0  0  0  0  0  1  0  0  0  0  0  0
  188.2060  175.8480  146.4640 C   0  0  2  0  0  3  0  0  0  0  0  0
  185.2190  178.0330  147.2940 C   0  0  0  0  0  3  0  0  0  0  0  0
  186.5220  176.9950  145.0240 C   0  0  0  0  0  0  0  0  0  0  0  0
  189.1960  176.0270  145.3330 C   0  0  1  0  0  3  0  0  0  0  0  0
  191.1630  175.1660  148.1390 O   0  0  0  0  0  0  0  0  0  0  0  0
  190.3570  175.1790  145.8340 C   0  0  1  0  0  3  0  0  0  0  0  0
  193.6610  176.7820  144.7190 C   0  0  0  0  0  2  0  0  0  0  0  0
  190.9320  173.7000  142.9540 C   0  0  0  0  0  1  0  0  0  0  0  0
  186.3680  177.2590  147.4480 C   0  0  0  0  0  3  0  0  0  0  0  0
  187.0400  176.7690  146.3230 C   0  0  0  0  0  0  0  0  0  0  0  0
  190.7990  175.2090  142.7630 C   0  0  2  0  0  3  0  0  0  0  0  0
  187.3510  177.3840  140.9190 C   0  0  0  0  0  2  0  0  0  0  0  0
  185.2130  178.2980  140.3750 O   0  0  0  0  0  1  0  0  0  0  0  0
  186.3380  177.6800  139.8270 C   0  0  0  0  0  2  0  0  0  0  0  0
  1  5  1  6  0  0  0
  1  4  1  0  0  0  0
  1 19  1  0  0  0  0
  2 19  2  0  0  0  0
  2 13  1  0  0  0  0
  4 20  1  0  0  0  0
  7  9  1  0  0  0  0
  8  6  1  0  0  0  0
  8 12  1  0  0  0  0
  9 22  1  0  0  0  0
  9 14  1  0  0  0  0
 10  3  1  0  0  0  0
 10 21  2  0  0  0  0
 11  8  1  0  0  0  0
 11  5  1  0  0  0  0
 12 27  1  0  0  0  0
 12  4  1  0  0  0  0
 13 18  2  0  0  0  0
 15  7  1  0  0  0  0
 15 23  1  0  0  0  0
 16  2  1  0  0  0  0
 17  3  1  0  0  0  0
 18 25  1  0  0  0  0
 19 26  1  0  0  0  0
 20 22  1  0  0  0  0
 20 17  1  0  0  0  0
 22 10  1  0  0  0  0
 23 14  1  0  0  0  0
 26 17  1  0  0  0  0
 26 25  2  0  0  0  0
 27 24  1  0  0  0  0
 27  7  1  0  0  0  0
 28 11  1  0  0  0  0
 30 29  1  0  0  0  0
 30 28  1  0  0  0  0
M  END
>  <MODEL>
1

>  <REMARK>
 VINA RESULT:      -8.9      0.000      0.000
  Name = 
  2 active torsions:
  status: ('A' for Active; 'I' for Inactive)
    1  A    between atoms: C_11  and  C_28
    2  A    between atoms: C_28  and  C_30
                            x       y       z     vdW  Elec       q    Type
                         _______ _______ _______ _____ _____    ______ ____

>  <TORSDO>
F 2

$$$$
=
 OpenBabel11112416123D

 30 35  0  0  1  0  0  0  0  0999 V2000
  188.1120  175.6070  143.0980 C   0  0  1  0  0  3  0  0  0  0  0  0
  186.2620  177.3620  142.9270 C   0  0  0  0  0  0  0  0  0  0  0  0
  189.2130  177.2770  146.8820 N   0  0  0  0  0  2  0  0  0  0  0  0
  189.1320  174.9280  144.0380 C   0  0  1  0  0  3  0  0  0  0  0  0
  187.3230  174.5810  142.4130 N   0  0  0  0  0  2  0  0  0  0  0  0
  188.9860  172.1210  142.9890 O   0  0  0  0  0  1  0  0  0  0  0  0
  192.2670  175.0040  144.1190 C   0  0  1  0  0  3  0  0  0  0  0  0
  189.4080  173.2020  142.2110 C   0  0  1  0  0  3  0  0  0  0  0  0
  192.1320  175.3120  145.5880 C   0  0  1  0  0  3  0  0  0  0  0  0
  190.4410  176.5890  147.0810 C   0  0  0  0  0  0  0  0  0  0  0  0
  188.1910  173.8190  141.4950 C   0  0  2  0  0  3  0  0  0  0  0  0
  190.1280  174.2470  143.0790 C   0  0  2  0  0  3  0  0  0  0  0  0
  185.5560  178.4500  143.4490 C   0  0  0  0  0  3  0  0  0  0  0  0
  193.1450  176.4160  145.7980 C   0  0  0  0  0  2  0  0  0  0  0  0
  193.7540  175.0030  143.8760 C   0  0  0  0  0  2  0  0  0  0  0  0
  185.9700  176.9300  141.6380 O   0  0  0  0  0  1  0  0  0  0  0  0
  188.5820  176.5380  145.8030 C   0  0  2  0  0  3  0  0  0  0  0  0
  185.8440  178.9320  144.7280 C   0  0  0  0  0  3  0  0  0  0  0  0
  187.2580  176.7270  143.6970 C   0  0  0  0  0  0  0  0  0  0  0  0
  189.7170  175.9940  144.9630 C   0  0  1  0  0  3  0  0  0  0  0  0
  191.1910  176.8100  148.0680 O   0  0  0  0  0  0  0  0  0  0  0  0
  190.6820  175.5370  146.0470 C   0  0  1  0  0  3  0  0  0  0  0  0
  194.2840  176.0680  144.8380 C   0  0  0  0  0  2  0  0  0  0  0  0
  191.3940  172.6530  144.6380 C   0  0  0  0  0  1  0  0  0  0  0  0
  186.8480  178.3370  145.4890 C   0  0  0  0  0  3  0  0  0  0  0  0
  187.5790  177.2630  144.9690 C   0  0  0  0  0  0  0  0  0  0  0  0
  191.4920  173.7840  143.6180 C   0  0  2  0  0  3  0  0  0  0  0  0
  188.6250  174.6610  140.2980 C   0  0  0  0  0  2  0  0  0  0  0  0
  187.8610  172.6700  139.2220 O   0  0  0  0  0  1  0  0  0  0  0  0
  188.5810  173.8480  139.0150 C   0  0  0  0  0  2  0  0  0  0  0  0
  1  5  1  1  0  0  0
  1 19  1  0  0  0  0
  1  4  1  0  0  0  0
  2 13  2  0  0  0  0
  2 19  1  0  0  0  0
  3 10  1  0  0  0  0
  4 20  1  0  0  0  0
  7  9  1  0  0  0  0
  8  6  1  0  0  0  0
  8 12  1  0  0  0  0
  9 14  1  0  0  0  0
  9 22  1  0  0  0  0
 10 21  2  0  0  0  0
 11  8  1  0  0  0  0
 11  5  1  0  0  0  0
 12 27  1  0  0  0  0
 12  4  1  0  0  0  0
 13 18  1  0  0  0  0
 15  7  1  0  0  0  0
 15 23  1  0  0  0  0
 16  2  1  0  0  0  0
 17  3  1  0  0  0  0
 18 25  2  0  0  0  0
 19 26  2  0  0  0  0
 20 17  1  0  0  0  0
 20 22  1  0  0  0  0
 22 10  1  0  0  0  0
 23 14  1  0  0  0  0
 26 25  1  0  0  0  0
 26 17  1  0  0  0  0
 27  7  1  0  0  0  0
 27 24  1  0  0  0  0
 28 11  1  0  0  0  0
 30 29  1  0  0  0  0
 30 28  1  0  0  0  0
M  END
>  <MODEL>
2

>  <REMARK>
 VINA RESULT:      -8.1      1.610      2.256
  Name = 
  2 active torsions:
  status: ('A' for Active; 'I' for Inactive)
    1  A    between atoms: C_11  and  C_28
    2  A    between atoms: C_28  and  C_30
                            x       y       z     vdW  Elec       q    Type
                         _______ _______ _______ _____ _____    ______ ____

>  <TORSDO>
F 2

$$$$
=
 OpenBabel11112416123D

 30 35  0  0  1  0  0  0  0  0999 V2000
  186.8920  177.2000  144.1370 C   0  0  1  0  0  3  0  0  0  0  0  0
  184.6750  178.2480  143.4190 C   0  0  0  0  0  0  0  0  0  0  0  0
  187.4360  175.8320  140.1180 N   0  0  0  0  0  2  0  0  0  0  0  0
  188.2160  176.5750  143.6470 C   0  0  1  0  0  3  0  0  0  0  0  0
  187.1830  178.2620  145.1020 N   0  0  0  0  0  2  0  0  0  0  0  0
  190.0860  177.6770  145.7180 O   0  0  0  0  0  1  0  0  0  0  0  0
  189.3380  173.6500  143.8270 C   0  0  1  0  0  3  0  0  0  0  0  0
  189.0210  176.8290  146.0310 C   0  0  1  0  0  3  0  0  0  0  0  0
  189.6270  173.7670  142.3520 C   0  0  1  0  0  3  0  0  0  0  0  0
  188.5430  174.9650  140.3250 C   0  0  0  0  0  0  0  0  0  0  0  0
  187.7670  177.6750  146.3240 C   0  0  2  0  0  3  0  0  0  0  0  0
  188.7630  175.8370  144.8840 C   0  0  2  0  0  3  0  0  0  0  0  0
  183.7170  178.5340  142.4420 C   0  0  0  0  0  3  0  0  0  0  0  0
  189.1600  172.4350  141.8080 C   0  0  0  0  0  2  0  0  0  0  0  0
  189.7860  172.2570  144.1830 C   0  0  0  0  0  2  0  0  0  0  0  0
  184.4060  178.5860  144.7410 O   0  0  0  0  0  1  0  0  0  0  0  0
  187.3840  176.6130  141.3410 C   0  0  2  0  0  3  0  0  0  0  0  0
  183.9380  178.1820  141.1100 C   0  0  0  0  0  3  0  0  0  0  0  0
  185.8850  177.6170  143.0640 C   0  0  0  0  0  0  0  0  0  0  0  0
  187.9140  175.7040  142.4280 C   0  0  1  0  0  3  0  0  0  0  0  0
  189.0350  174.2590  139.4050 O   0  0  0  0  0  0  0  0  0  0  0  0
  189.0920  175.0590  141.7120 C   0  0  1  0  0  3  0  0  0  0  0  0
  189.4800  171.4400  142.9260 C   0  0  0  0  0  2  0  0  0  0  0  0
  191.1950  175.3700  144.2200 C   0  0  0  0  0  1  0  0  0  0  0  0
  185.1140  177.5270  140.7470 C   0  0  0  0  0  3  0  0  0  0  0  0
  186.0700  177.2130  141.7190 C   0  0  0  0  0  0  0  0  0  0  0  0
  189.8700  174.7850  144.7030 C   0  0  2  0  0  3  0  0  0  0  0  0
  186.7360  176.8750  147.1150 C   0  0  0  0  0  2  0  0  0  0  0  0
  186.6530  178.9020  148.3750 O   0  0  0  0  0  1  0  0  0  0  0  0
  185.9040  177.7850  148.0030 C   0  0  0  0  0  2  0  0  0  0  0  0
  1 19  1  6  0  0  0
  1  5  1  0  0  0  0
  2 16  1  0  0  0  0
  3 10  1  0  0  0  0
  3 17  1  0  0  0  0
  4  1  1  0  0  0  0
  4 12  1  0  0  0  0
  5 11  1  0  0  0  0
  6  8  1  0  0  0  0
  7 15  1  0  0  0  0
  7 27  1  0  0  0  0
  8 11  1  0  0  0  0
  9  7  1  0  0  0  0
 10 22  1  0  0  0  0
 11 28  1  0  0  0  0
 12  8  1  0  0  0  0
 13  2  2  0  0  0  0
 14  9  1  0  0  0  0
 14 23  1  0  0  0  0
 17 26  1  0  0  0  0
 17 20  1  0  0  0  0
 18 13  1  0  0  0  0
 19  2  1  0  0  0  0
 20  4  1  0  0  0  0
 21 10  2  0  0  0  0
 22  9  1  0  0  0  0
 22 20  1  0  0  0  0
 23 15  1  0  0  0  0
 24 27  1  0  0  0  0
 25 18  2  0  0  0  0
 25 26  1  0  0  0  0
 26 19  2  0  0  0  0
 27 12  1  0  0  0  0
 28 30  1  0  0  0  0
 30 29  1  0  0  0  0
M  END
>  <MODEL>
3

>  <REMARK>
 VINA RESULT:      -7.9      2.079      5.206
  Name = 
  2 active torsions:
  status: ('A' for Active; 'I' for Inactive)
    1  A    between atoms: C_11  and  C_28
    2  A    between atoms: C_28  and  C_30
                            x       y       z     vdW  Elec       q    Type
                         _______ _______ _______ _____ _____    ______ ____

>  <TORSDO>
F 2

$$$$
=
 OpenBabel11112416123D

 30 35  0  0  1  0  0  0  0  0999 V2000
  189.8330  174.8540  143.1800 C   0  0  1  0  0  3  0  0  0  0  0  0
  191.7690  173.2130  143.4790 C   0  0  0  0  0  0  0  0  0  0  0  0
  190.9660  176.7110  146.8660 N   0  0  0  0  0  2  0  0  0  0  0  0
  189.2110  176.1820  143.6640 C   0  0  1  0  0  3  0  0  0  0  0  0
  189.9650  174.8820  141.7220 N   0  0  0  0  0  2  0  0  0  0  0  0
  188.2040  177.2460  141.0460 O   0  0  0  0  0  1  0  0  0  0  0  0
  186.5590  176.7980  145.2220 C   0  0  1  0  0  3  0  0  0  0  0  0
  187.7480  176.0500  141.6050 C   0  0  1  0  0  3  0  0  0  0  0  0
  187.4040  177.6350  146.1490 C   0  0  1  0  0  3  0  0  0  0  0  0
  189.8310  177.5470  147.0530 C   0  0  0  0  0  0  0  0  0  0  0  0
  188.6260  174.8870  141.1030 C   0  0  2  0  0  3  0  0  0  0  0  0
  187.7620  176.1290  143.1410 C   0  0  2  0  0  3  0  0  0  0  0  0
  192.8690  172.7370  144.1980 C   0  0  0  0  0  3  0  0  0  0  0  0
  186.8850  177.2550  147.5180 C   0  0  0  0  0  2  0  0  0  0  0  0
  185.1670  176.9100  145.7890 C   0  0  0  0  0  2  0  0  0  0  0  0
  191.3440  172.5060  142.3590 O   0  0  0  0  0  1  0  0  0  0  0  0
  190.8550  176.2930  145.4800 C   0  0  2  0  0  3  0  0  0  0  0  0
  193.3060  173.4020  145.3450 C   0  0  0  0  0  3  0  0  0  0  0  0
  191.1020  174.3840  143.8930 C   0  0  0  0  0  0  0  0  0  0  0  0
  189.3710  176.2620  145.1810 C   0  0  1  0  0  3  0  0  0  0  0  0
  189.6760  178.2630  148.0770 O   0  0  0  0  0  0  0  0  0  0  0  0
  188.9140  177.5380  145.8730 C   0  0  1  0  0  3  0  0  0  0  0  0
  185.3910  177.0080  147.2980 C   0  0  0  0  0  2  0  0  0  0  0  0
  186.9870  178.5580  143.4120 C   0  0  0  0  0  1  0  0  0  0  0  0
  192.6370  174.5420  145.7890 C   0  0  0  0  0  3  0  0  0  0  0  0
  191.5200  175.0150  145.0910 C   0  0  0  0  0  0  0  0  0  0  0  0
  186.7160  177.0900  143.7300 C   0  0  2  0  0  3  0  0  0  0  0  0
  187.9170  173.5470  141.2770 C   0  0  0  0  0  2  0  0  0  0  0  0
  188.1910  173.3680  138.9120 O   0  0  0  0  0  1  0  0  0  0  0  0
  188.1850  172.6300  140.0960 C   0  0  0  0  0  2  0  0  0  0  0  0
  1  5  1  6  0  0  0
  1  4  1  0  0  0  0
  1 19  1  0  0  0  0
  2 19  2  0  0  0  0
  2 13  1  0  0  0  0
  3 10  1  0  0  0  0
  4 20  1  0  0  0  0
  6  8  1  0  0  0  0
  7 15  1  0  0  0  0
  7  9  1  0  0  0  0
  8 12  1  0  0  0  0
  9 14  1  0  0  0  0
 10 21  2  0  0  0  0
 11 28  1  0  0  0  0
 11  8  1  0  0  0  0
 11  5  1  0  0  0  0
 12  4  1  0  0  0  0
 12 27  1  0  0  0  0
 13 18  2  0  0  0  0
 15 23  1  0  0  0  0
 16  2  1  0  0  0  0
 17  3  1  0  0  0  0
 18 25  1  0  0  0  0
 19 26  1  0  0  0  0
 20 17  1  0  0  0  0
 20 22  1  0  0  0  0
 22  9  1  0  0  0  0
 22 10  1  0  0  0  0
 23 14  1  0  0  0  0
 24 27  1  0  0  0  0
 26 17  1  0  0  0  0
 26 25  2  0  0  0  0
 27  7  1  0  0  0  0
 29 30  1  0  0  0  0
 30 28  1  0  0  0  0
M  END
>  <MODEL>
4

>  <REMARK>
 VINA RESULT:      -7.8      2.002      5.440
  Name = 
  2 active torsions:
  status: ('A' for Active; 'I' for Inactive)
    1  A    between atoms: C_11  and  C_28
    2  A    between atoms: C_28  and  C_30
                            x       y       z     vdW  Elec       q    Type
                         _______ _______ _______ _____ _____    ______ ____

>  <TORSDO>
F 2

$$$$
=
 OpenBabel11112416123D

 30 35  0  0  1  0  0  0  0  0999 V2000
  187.7800  177.2990  145.1280 C   0  0  1  0  0  3  0  0  0  0  0  0
  185.6280  178.3210  146.0500 C   0  0  0  0  0  0  0  0  0  0  0  0
  186.1060  177.5650  141.1980 N   0  0  0  0  0  2  0  0  0  0  0  0
  188.6100  177.0290  143.8540 C   0  0  1  0  0  3  0  0  0  0  0  0
  188.6250  177.9550  146.1280 N   0  0  0  0  0  2  0  0  0  0  0  0
  191.3680  177.4650  144.9510 O   0  0  0  0  0  1  0  0  0  0  0  0
  189.3480  174.3640  142.3710 C   0  0  1  0  0  3  0  0  0  0  0  0
  190.5140  176.4640  145.4190 C   0  0  1  0  0  3  0  0  0  0  0  0
  188.8780  175.0410  141.1090 C   0  0  1  0  0  3  0  0  0  0  0  0
  187.0680  176.7910  140.4920 C   0  0  0  0  0  0  0  0  0  0  0  0
  189.6710  177.0190  146.5830 C   0  0  2  0  0  3  0  0  0  0  0  0
  189.6150  175.9430  144.2850 C   0  0  2  0  0  3  0  0  0  0  0  0
  184.3490  178.8540  145.8650 C   0  0  0  0  0  3  0  0  0  0  0  0
  188.0620  173.9650  140.4290 C   0  0  0  0  0  2  0  0  0  0  0  0
  189.7600  172.9870  141.9200 C   0  0  0  0  0  2  0  0  0  0  0  0
  186.0890  178.1230  147.3470 O   0  0  0  0  0  1  0  0  0  0  0  0
  186.7530  177.8320  142.4700 C   0  0  2  0  0  3  0  0  0  0  0  0
  183.8400  179.0390  144.5780 C   0  0  0  0  0  3  0  0  0  0  0  0
  186.4250  177.9840  144.9380 C   0  0  0  0  0  0  0  0  0  0  0  0
  187.6510  176.6420  142.7290 C   0  0  1  0  0  3  0  0  0  0  0  0
  186.9590  176.5240  139.2670 O   0  0  0  0  0  0  0  0  0  0  0  0
  188.2400  176.4210  141.3430 C   0  0  1  0  0  3  0  0  0  0  0  0
  188.7840  172.6640  140.7870 C   0  0  0  0  0  2  0  0  0  0  0  0
  191.3300  175.9870  142.3800 C   0  0  0  0  0  1  0  0  0  0  0  0
  184.6020  178.6800  143.4670 C   0  0  0  0  0  3  0  0  0  0  0  0
  185.8740  178.1220  143.6400 C   0  0  0  0  0  0  0  0  0  0  0  0
  190.3650  175.1420  143.2070 C   0  0  2  0  0  3  0  0  0  0  0  0
  189.0890  175.8890  147.4290 C   0  0  0  0  0  2  0  0  0  0  0  0
  191.1920  175.2900  148.3890 O   0  0  0  0  0  1  0  0  0  0  0  0
  190.1150  174.7920  147.6540 C   0  0  0  0  0  2  0  0  0  0  0  0
  1 19  1  6  0  0  0
  1  5  1  0  0  0  0
  2 16  1  0  0  0  0
  3 17  1  0  0  0  0
  4 12  1  0  0  0  0
  4  1  1  0  0  0  0
  5 11  1  0  0  0  0
  6  8  1  0  0  0  0
  7 27  1  0  0  0  0
  8 11  1  0  0  0  0
  9 22  1  0  0  0  0
  9  7  1  0  0  0  0
 10  3  1  0  0  0  0
 10 22  1  0  0  0  0
 11 28  1  0  0  0  0
 12  8  1  0  0  0  0
 13  2  1  0  0  0  0
 14 23  1  0  0  0  0
 14  9  1  0  0  0  0
 15  7  1  0  0  0  0
 17 20  1  0  0  0  0
 17 26  1  0  0  0  0
 18 13  2  0  0  0  0
 19  2  2  0  0  0  0
 20  4  1  0  0  0  0
 21 10  2  0  0  0  0
 22 20  1  0  0  0  0
 23 15  1  0  0  0  0
 24 27  1  0  0  0  0
 25 26  2  0  0  0  0
 25 18  1  0  0  0  0
 26 19  1  0  0  0  0
 27 12  1  0  0  0  0
 28 30  1  0  0  0  0
 30 29  1  0  0  0  0
M  END
>  <MODEL>
5

>  <REMARK>
 VINA RESULT:      -7.5      1.823      5.356
  Name = 
  2 active torsions:
  status: ('A' for Active; 'I' for Inactive)
    1  A    between atoms: C_11  and  C_28
    2  A    between atoms: C_28  and  C_30
                            x       y       z     vdW  Elec       q    Type
                         _______ _______ _______ _____ _____    ______ ____

>  <TORSDO>
F 2

$$$$
=
 OpenBabel11112416123D

 30 35  0  0  1  0  0  0  0  0999 V2000
  187.8530  176.0450  142.8690 C   0  0  1  0  0  3  0  0  0  0  0  0
  186.5700  177.0060  140.8800 C   0  0  0  0  0  0  0  0  0  0  0  0
  185.0430  177.9480  145.4770 N   0  0  0  0  0  2  0  0  0  0  0  0
  187.8170  175.7720  144.3890 C   0  0  1  0  0  3  0  0  0  0  0  0
  188.2020  174.8110  142.1620 N   0  0  0  0  0  2  0  0  0  0  0  0
  189.2180  173.1200  144.4540 O   0  0  0  0  0  1  0  0  0  0  0  0
  189.4640  176.9850  146.7670 C   0  0  1  0  0  3  0  0  0  0  0  0
  189.8290  174.2910  143.9980 C   0  0  1  0  0  3  0  0  0  0  0  0
  188.1410  177.2020  147.4550 C   0  0  1  0  0  3  0  0  0  0  0  0
  185.7190  177.7540  146.7130 C   0  0  0  0  0  0  0  0  0  0  0  0
  189.5910  174.4310  142.4830 C   0  0  2  0  0  3  0  0  0  0  0  0
  189.2910  175.5150  144.7590 C   0  0  2  0  0  3  0  0  0  0  0  0
  185.5130  177.7540  140.3520 C   0  0  0  0  0  3  0  0  0  0  0  0
  188.2780  178.5970  148.0250 C   0  0  0  0  0  2  0  0  0  0  0  0
  190.4790  177.5310  147.7380 C   0  0  0  0  0  2  0  0  0  0  0  0
  187.5410  176.5150  140.0150 O   0  0  0  0  0  1  0  0  0  0  0  0
  185.7300  177.0450  144.5710 C   0  0  2  0  0  3  0  0  0  0  0  0
  184.5360  178.2900  141.1930 C   0  0  0  0  0  3  0  0  0  0  0  0
  186.6470  176.7670  142.2680 C   0  0  0  0  0  0  0  0  0  0  0  0
  187.1540  176.9650  145.0760 C   0  0  1  0  0  3  0  0  0  0  0  0
  185.2900  178.2190  147.8020 O   0  0  0  0  0  0  0  0  0  0  0  0
  186.9210  176.8760  146.5770 C   0  0  1  0  0  3  0  0  0  0  0  0
  189.7560  178.7020  148.4060 C   0  0  0  0  0  2  0  0  0  0  0  0
  189.1020  174.4710  147.0920 C   0  0  0  0  0  1  0  0  0  0  0  0
  184.6150  178.0910  142.5700 C   0  0  0  0  0  3  0  0  0  0  0  0
  185.6810  177.3660  143.1140 C   0  0  0  0  0  0  0  0  0  0  0  0
  189.7160  175.5740  146.2360 C   0  0  2  0  0  3  0  0  0  0  0  0
  190.5990  175.3900  141.8540 C   0  0  0  0  0  2  0  0  0  0  0  0
  192.7010  176.3040  142.5230 O   0  0  0  0  0  1  0  0  0  0  0  0
  192.0060  175.1060  142.3520 C   0  0  0  0  0  2  0  0  0  0  0  0
  1  5  1  6  0  0  0
  1  4  1  0  0  0  0
  2 19  1  0  0  0  0
  3 10  1  0  0  0  0
  4 12  1  0  0  0  0
  4 20  1  0  0  0  0
  5 11  1  0  0  0  0
  7  9  1  0  0  0  0
  7 15  1  0  0  0  0
  8  6  1  0  0  0  0
  8 12  1  0  0  0  0
  9 14  1  0  0  0  0
 10 21  2  0  0  0  0
 11  8  1  0  0  0  0
 12 27  1  0  0  0  0
 13  2  2  0  0  0  0
 13 18  1  0  0  0  0
 14 23  1  0  0  0  0
 15 23  1  0  0  0  0
 16  2  1  0  0  0  0
 17 20  1  0  0  0  0
 17  3  1  0  0  0  0
 18 25  2  0  0  0  0
 19  1  1  0  0  0  0
 19 26  2  0  0  0  0
 20 22  1  0  0  0  0
 22 10  1  0  0  0  0
 22  9  1  0  0  0  0
 25 26  1  0  0  0  0
 26 17  1  0  0  0  0
 27  7  1  0  0  0  0
 27 24  1  0  0  0  0
 28 30  1  0  0  0  0
 28 11  1  0  0  0  0
 30 29  1  0  0  0  0
M  END
>  <MODEL>
6

>  <REMARK>
 VINA RESULT:      -7.3      2.179      4.499
  Name = 
  2 active torsions:
  status: ('A' for Active; 'I' for Inactive)
    1  A    between atoms: C_11  and  C_28
    2  A    between atoms: C_28  and  C_30
                            x       y       z     vdW  Elec       q    Type
                         _______ _______ _______ _____ _____    ______ ____

>  <TORSDO>
F 2

$$$$
=
 OpenBabel11112416123D

 30 35  0  0  1  0  0  0  0  0999 V2000
  188.9490  176.6130  144.4780 C   0  0  1  0  0  3  0  0  0  0  0  0
  186.6980  177.7450  144.9000 C   0  0  0  0  0  0  0  0  0  0  0  0
  187.5270  175.4420  140.6150 N   0  0  0  0  0  2  0  0  0  0  0  0
  189.8720  175.9860  143.4110 C   0  0  1  0  0  3  0  0  0  0  0  0
  189.6960  177.6170  145.2380 N   0  0  0  0  0  2  0  0  0  0  0  0
  192.5300  176.9390  144.4250 O   0  0  0  0  0  1  0  0  0  0  0  0
  190.8240  173.0320  142.9500 C   0  0  1  0  0  3  0  0  0  0  0  0
  191.6920  176.0990  145.1630 C   0  0  1  0  0  3  0  0  0  0  0  0
  190.4080  173.2170  141.5130 C   0  0  1  0  0  3  0  0  0  0  0  0
  188.5670  174.5410  140.2580 C   0  0  0  0  0  0  0  0  0  0  0  0
  190.7510  176.9560  146.0310 C   0  0  2  0  0  3  0  0  0  0  0  0
  190.8940  175.1730  144.2300 C   0  0  2  0  0  3  0  0  0  0  0  0
  185.4110  178.1020  144.4860 C   0  0  0  0  0  3  0  0  0  0  0  0
  189.6870  171.9250  141.1990 C   0  0  0  0  0  2  0  0  0  0  0  0
  191.3250  171.6120  143.0100 C   0  0  0  0  0  2  0  0  0  0  0  0
  187.0800  178.0200  146.2080 O   0  0  0  0  0  1  0  0  0  0  0  0
  188.0760  176.1600  141.7510 C   0  0  2  0  0  3  0  0  0  0  0  0
  184.9800  177.8130  143.1890 C   0  0  0  0  0  3  0  0  0  0  0  0
  187.5810  177.1060  144.0060 C   0  0  0  0  0  0  0  0  0  0  0  0
  189.0070  175.1850  142.4390 C   0  0  1  0  0  3  0  0  0  0  0  0
  188.5500  173.8730  139.1900 O   0  0  0  0  0  0  0  0  0  0  0  0
  189.6950  174.5520  141.2380 C   0  0  1  0  0  3  0  0  0  0  0  0
  190.4410  170.8680  142.0080 C   0  0  0  0  0  2  0  0  0  0  0  0
  192.7270  174.6880  142.5040 C   0  0  0  0  0  1  0  0  0  0  0  0
  185.8290  177.1530  142.3030 C   0  0  0  0  0  3  0  0  0  0  0  0
  187.1100  176.7680  142.7130 C   0  0  0  0  0  0  0  0  0  0  0  0
  191.7480  174.1080  143.5220 C   0  0  2  0  0  3  0  0  0  0  0  0
  190.1650  176.1390  147.1800 C   0  0  0  0  0  2  0  0  0  0  0  0
  191.5670  177.1660  148.8180 O   0  0  0  0  0  1  0  0  0  0  0  0
  191.1910  175.9340  148.2810 C   0  0  0  0  0  2  0  0  0  0  0  0
  1 19  1  6  0  0  0
  1  5  1  0  0  0  0
  2 16  1  0  0  0  0
  3 17  1  0  0  0  0
  4 12  1  0  0  0  0
  4  1  1  0  0  0  0
  5 11  1  0  0  0  0
  6  8  1  0  0  0  0
  7 15  1  0  0  0  0
  7 27  1  0  0  0  0
  8 11  1  0  0  0  0
  9  7  1  0  0  0  0
 10  3  1  0  0  0  0
 10 22  1  0  0  0  0
 11 28  1  0  0  0  0
 12  8  1  0  0  0  0
 13  2  1  0  0  0  0
 14  9  1  0  0  0  0
 14 23  1  0  0  0  0
 17 20  1  0  0  0  0
 17 26  1  0  0  0  0
 18 13  2  0  0  0  0
 19  2  2  0  0  0  0
 20  4  1  0  0  0  0
 21 10  2  0  0  0  0
 22  9  1  0  0  0  0
 22 20  1  0  0  0  0
 23 15  1  0  0  0  0
 24 27  1  0  0  0  0
 25 26  2  0  0  0  0
 25 18  1  0  0  0  0
 26 19  1  0  0  0  0
 27 12  1  0  0  0  0
 28 30  1  0  0  0  0
 30 29  1  0  0  0  0
M  END
>  <MODEL>
7

>  <REMARK>
 VINA RESULT:      -7.2      2.062      5.392
  Name = 
  2 active torsions:
  status: ('A' for Active; 'I' for Inactive)
    1  A    between atoms: C_11  and  C_28
    2  A    between atoms: C_28  and  C_30
                            x       y       z     vdW  Elec       q    Type
                         _______ _______ _______ _____ _____    ______ ____

>  <TORSDO>
F 2

$$$$
=
 OpenBabel11112416123D

 30 35  0  0  1  0  0  0  0  0999 V2000
  188.3030  175.0860  141.8210 C   0  0  1  0  0  3  0  0  0  0  0  0
  187.0210  176.5900  140.2030 C   0  0  0  0  0  0  0  0  0  0  0  0
  186.9330  177.5470  145.0430 N   0  0  0  0  0  2  0  0  0  0  0  0
  188.5070  174.7000  143.3030 C   0  0  1  0  0  3  0  0  0  0  0  0
  188.0540  173.8770  141.0340 N   0  0  0  0  0  2  0  0  0  0  0  0
  188.9120  171.7430  142.9980 O   0  0  0  0  0  1  0  0  0  0  0  0
  190.9390  175.0880  145.2460 C   0  0  1  0  0  3  0  0  0  0  0  0
  189.7680  172.6890  142.4290 C   0  0  1  0  0  3  0  0  0  0  0  0
  189.9480  175.6580  146.2280 C   0  0  1  0  0  3  0  0  0  0  0  0
  187.7540  177.0310  146.0830 C   0  0  0  0  0  0  0  0  0  0  0  0
  189.2690  173.0390  141.0140 C   0  0  2  0  0  3  0  0  0  0  0  0
  189.8510  173.9450  143.3120 C   0  0  2  0  0  3  0  0  0  0  0  0
  186.1900  177.6860  139.9480 C   0  0  0  0  0  3  0  0  0  0  0  0
  190.6670  176.8730  146.7700 C   0  0  0  0  0  2  0  0  0  0  0  0
  192.2630  175.1830  145.9590 C   0  0  0  0  0  2  0  0  0  0  0  0
  187.5590  175.8940  139.1270 O   0  0  0  0  0  1  0  0  0  0  0  0
  187.0620  176.5590  143.9880 C   0  0  2  0  0  3  0  0  0  0  0  0
  185.6570  178.4300  141.0030 C   0  0  0  0  0  3  0  0  0  0  0  0
  187.3110  176.2130  141.5300 C   0  0  0  0  0  0  0  0  0  0  0  0
  188.4500  175.9750  144.1430 C   0  0  1  0  0  3  0  0  0  0  0  0
  187.7530  177.5070  147.2490 O   0  0  0  0  0  0  0  0  0  0  0  0
  188.5300  175.8280  145.6560 C   0  0  1  0  0  3  0  0  0  0  0  0
  192.1390  176.4580  146.7950 C   0  0  0  0  0  2  0  0  0  0  0  0
  189.8310  172.8080  145.6100 C   0  0  0  0  0  1  0  0  0  0  0  0
  185.9610  178.0900  142.3200 C   0  0  0  0  0  3  0  0  0  0  0  0
  186.8100  177.0110  142.5880 C   0  0  0  0  0  0  0  0  0  0  0  0
  190.5800  173.7270  144.6490 C   0  0  2  0  0  3  0  0  0  0  0  0
  190.3790  173.6730  140.1800 C   0  0  0  0  0  2  0  0  0  0  0  0
  190.6180  171.5240  139.1660 O   0  0  0  0  0  1  0  0  0  0  0  0
  191.3360  172.6170  139.6530 C   0  0  0  0  0  2  0  0  0  0  0  0
  1  5  1  6  0  0  0
  1  4  1  0  0  0  0
  2 19  1  0  0  0  0
  3 10  1  0  0  0  0
  4 12  1  0  0  0  0
  4 20  1  0  0  0  0
  7 15  1  0  0  0  0
  7  9  1  0  0  0  0
  8  6  1  0  0  0  0
  8 12  1  0  0  0  0
  9 14  1  0  0  0  0
 10 21  2  0  0  0  0
 11  5  1  0  0  0  0
 11  8  1  0  0  0  0
 12 27  1  0  0  0  0
 13  2  2  0  0  0  0
 13 18  1  0  0  0  0
 14 23  1  0  0  0  0
 15 23  1  0  0  0  0
 16  2  1  0  0  0  0
 17 20  1  0  0  0  0
 17  3  1  0  0  0  0
 18 25  2  0  0  0  0
 19  1  1  0  0  0  0
 19 26  2  0  0  0  0
 20 22  1  0  0  0  0
 22 10  1  0  0  0  0
 22  9  1  0  0  0  0
 25 26  1  0  0  0  0
 26 17  1  0  0  0  0
 27  7  1  0  0  0  0
 27 24  1  0  0  0  0
 28 11  1  0  0  0  0
 29 30  1  0  0  0  0
 30 28  1  0  0  0  0
M  END
>  <MODEL>
8

>  <REMARK>
 VINA RESULT:      -7.1      2.185      4.052
  Name = 
  2 active torsions:
  status: ('A' for Active; 'I' for Inactive)
    1  A    between atoms: C_11  and  C_28
    2  A    between atoms: C_28  and  C_30
                            x       y       z     vdW  Elec       q    Type
                         _______ _______ _______ _____ _____    ______ ____

>  <TORSDO>
F 2

$$$$
=
 OpenBabel11112416123D

 30 35  0  0  1  0  0  0  0  0999 V2000
  189.5710  174.7750  142.0680 C   0  0  1  0  0  3  0  0  0  0  0  0
  189.4780  172.5380  140.8370 C   0  0  0  0  0  0  0  0  0  0  0  0
  193.4870  173.7390  143.4520 N   0  0  0  0  0  2  0  0  0  0  0  0
  190.4860  175.7830  142.7970 C   0  0  1  0  0  3  0  0  0  0  0  0
  188.7990  175.4740  141.0390 N   0  0  0  0  0  2  0  0  0  0  0  0
  189.2440  178.3500  141.8640 O   0  0  0  0  0  1  0  0  0  0  0  0
  190.6470  176.6600  145.8050 C   0  0  1  0  0  3  0  0  0  0  0  0
  188.5520  177.4030  142.6240 C   0  0  1  0  0  3  0  0  0  0  0  0
  192.1300  176.4120  145.7040 C   0  0  1  0  0  3  0  0  0  0  0  0
  193.6670  174.7750  144.4090 C   0  0  0  0  0  0  0  0  0  0  0  0
  187.8520  176.4070  141.6790 C   0  0  2  0  0  3  0  0  0  0  0  0
  189.5070  176.6760  143.5850 C   0  0  2  0  0  3  0  0  0  0  0  0
  190.0560  171.3200  140.4670 C   0  0  0  0  0  3  0  0  0  0  0  0
  192.4410  175.6790  146.9900 C   0  0  0  0  0  2  0  0  0  0  0  0
  190.4410  177.0940  147.2330 C   0  0  0  0  0  2  0  0  0  0  0  0
  188.1550  172.7860  140.4860 O   0  0  0  0  0  1  0  0  0  0  0  0
  192.3440  174.1880  142.6770 C   0  0  2  0  0  3  0  0  0  0  0  0
  191.3710  171.0230  140.8290 C   0  0  0  0  0  3  0  0  0  0  0  0
  190.2250  173.4880  141.5630 C   0  0  0  0  0  0  0  0  0  0  0  0
  191.4960  174.9990  143.6330 C   0  0  1  0  0  3  0  0  0  0  0  0
  194.6840  174.8480  145.1470 O   0  0  0  0  0  0  0  0  0  0  0  0
  192.5690  175.7880  144.3680 C   0  0  1  0  0  3  0  0  0  0  0  0
  191.4860  176.2960  148.0140 C   0  0  0  0  0  2  0  0  0  0  0  0
  190.9820  178.6650  144.2470 C   0  0  0  0  0  1  0  0  0  0  0  0
  192.1130  171.9360  141.5750 C   0  0  0  0  0  3  0  0  0  0  0  0
  191.5380  173.1480  141.9730 C   0  0  0  0  0  0  0  0  0  0  0  0
  190.0460  177.5580  144.7230 C   0  0  2  0  0  3  0  0  0  0  0  0
  186.7260  175.6670  142.3960 C   0  0  0  0  0  2  0  0  0  0  0  0
  185.9420  176.4150  144.5250 O   0  0  0  0  0  1  0  0  0  0  0  0
  185.8300  176.6350  143.1510 C   0  0  0  0  0  2  0  0  0  0  0  0
  1  5  1  6  0  0  0
  1  4  1  0  0  0  0
  2 19  1  0  0  0  0
  3 10  1  0  0  0  0
  4 12  1  0  0  0  0
  4 20  1  0  0  0  0
  5 11  1  0  0  0  0
  6  8  1  0  0  0  0
  7 15  1  0  0  0  0
  8 12  1  0  0  0  0
  9  7  1  0  0  0  0
  9 14  1  0  0  0  0
 10 21  2  0  0  0  0
 11 28  1  0  0  0  0
 11  8  1  0  0  0  0
 12 27  1  0  0  0  0
 13 18  1  0  0  0  0
 13  2  2  0  0  0  0
 14 23  1  0  0  0  0
 15 23  1  0  0  0  0
 16  2  1  0  0  0  0
 17  3  1  0  0  0  0
 17 20  1  0  0  0  0
 18 25  2  0  0  0  0
 19 26  2  0  0  0  0
 19  1  1  0  0  0  0
 20 22  1  0  0  0  0
 22 10  1  0  0  0  0
 22  9  1  0  0  0  0
 24 27  1  0  0  0  0
 25 26  1  0  0  0  0
 26 17  1  0  0  0  0
 27  7  1  0  0  0  0
 28 30  1  0  0  0  0
 30 29  1  0  0  0  0
M  END
>  <MODEL>
9

>  <REMARK>
 VINA RESULT:      -7.0      2.638      5.309
  Name = 
  2 active torsions:
  status: ('A' for Active; 'I' for Inactive)
    1  A    between atoms: C_11  and  C_28
    2  A    between atoms: C_28  and  C_30
                            x       y       z     vdW  Elec       q    Type
                         _______ _______ _______ _____ _____    ______ ____

>  <TORSDO>
F 2

$$$$
