=
 OpenBabel11112417553D

 34 40  0  0  1  0  0  0  0  0999 V2000
  193.8200  175.3970  145.3690 C   0  0  0  0  0  0  0  0  0  0  0  0
  192.3220  176.3530  147.1690 C   0  0  0  0  0  3  0  0  0  0  0  0
  192.5190  172.0200  140.1210 N   0  0  0  0  0  2  0  0  0  0  0  0
  194.9670  174.4740  143.4390 C   0  0  0  0  0  0  0  0  0  0  0  0
  193.8590  174.6080  141.1950 C   0  0  0  0  0  0  0  0  0  0  0  0
  192.7460  174.1740  138.9810 C   0  0  0  0  0  2  0  0  0  0  0  0
  192.6270  172.6640  138.8180 C   0  0  0  0  0  2  0  0  0  0  0  0
  194.9120  171.8090  140.6940 C   0  0  0  0  0  2  0  0  0  0  0  0
  191.5480  176.2070  145.0310 C   0  0  0  0  0  0  0  0  0  0  0  0
  188.5840  175.8080  144.5740 C   0  0  0  0  0  2  0  0  0  0  0  0
  192.8200  175.1600  141.7510 N   0  0  0  0  0  0  0  0  0  0  0  0
  194.7390  172.4470  142.0670 C   0  0  0  0  0  2  0  0  0  0  0  0
  191.5680  175.9200  143.7000 N   0  0  0  0  0  0  0  0  0  0  0  0
  191.0020  176.8180  147.1090 C   0  0  0  0  0  3  0  0  0  0  0  0
  194.9510  173.9630  142.0230 C   0  0  2  0  0  3  0  0  0  0  0  0
  193.6360  171.0900  140.2620 C   0  0  0  0  0  2  0  0  0  0  0  0
  189.1520  177.0380  145.2860 C   0  0  2  0  0  3  0  0  0  0  0  0
  193.8250  175.0700  143.9930 C   0  0  0  0  0  0  0  0  0  0  0  0
  193.9250  174.4900  139.7730 N   0  0  0  0  0  2  0  0  0  0  0  0
  192.7050  175.3600  143.1690 C   0  0  0  0  0  0  0  0  0  0  0  0
  196.0710  174.5650  145.5490 C   0  0  0  0  0  3  0  0  0  0  0  0
  189.1680  175.5430  143.1750 C   0  0  0  0  0  2  0  0  0  0  0  0
  196.0520  174.2370  144.2280 N   0  0  0  0  0  0  0  0  0  0  0  0
  190.4530  176.3060  142.8350 C   0  0  0  0  0  2  0  0  0  0  0  0
  190.5300  176.7210  145.7970 C   0  0  0  0  0  0  0  0  0  0  0  0
  194.9510  175.1460  146.1490 C   0  0  0  0  0  3  0  0  0  0  0  0
  192.6640  175.9640  145.8880 C   0  0  0  0  0  0  0  0  0  0  0  0
  188.2160  177.4630  146.4090 C   0  0  0  0  0  2  0  0  0  0  0  0
  187.3510  176.3550  146.7830 N   0  0  0  0  0  2  0  0  0  0  0  0
  185.2070  179.0860  147.1820 O   0  0  0  0  0  0  0  0  0  0  0  0
  185.0240  176.8660  146.3980 C   0  0  0  0  0  2  0  0  0  0  0  0
  186.1560  176.9270  147.3790 C   0  0  2  0  0  3  0  0  0  0  0  0
  184.7000  178.3160  146.1270 C   0  0  0  0  0  2  0  0  0  0  0  0
  186.3570  178.4100  147.6100 C   0  0  0  0  0  2  0  0  0  0  0  0
  1 27  2  0  0  0  0
  1 26  1  0  0  0  0
  3 16  1  0  0  0  0
  4 18  1  0  0  0  0
  4 23  2  0  0  0  0
  5 11  2  0  0  0  0
  5 15  1  0  0  0  0
  6 19  1  0  0  0  0
  7  6  1  0  0  0  0
  7  3  1  0  0  0  0
  8 12  1  0  0  0  0
  9 25  2  0  0  0  0
  9 27  1  0  0  0  0
 10 17  1  0  0  0  0
 11 20  1  0  0  0  0
 13  9  1  0  0  0  0
 14  2  2  0  0  0  0
 15 12  1  1  0  0  0
 15  4  1  0  0  0  0
 16  8  1  0  0  0  0
 17 25  1  0  0  0  0
 17 28  1  1  0  0  0
 18  1  1  0  0  0  0
 19  5  1  0  0  0  0
 20 13  1  0  0  0  0
 20 18  2  0  0  0  0
 21 26  2  0  0  0  0
 22 10  1  0  0  0  0
 23 21  1  0  0  0  0
 24 22  1  0  0  0  0
 24 13  1  0  0  0  0
 25 14  1  0  0  0  0
 27  2  1  0  0  0  0
 28 29  1  0  0  0  0
 30 34  1  0  0  0  0
 31 32  1  0  0  0  0
 32 29  1  6  0  0  0
 32 34  1  0  0  0  0
 33 31  1  0  0  0  0
 33 30  1  0  0  0  0
M  END
>  <MODEL>
1

>  <REMARK>
 VINA RESULT:      -7.9      0.000      0.000
  Name = 
  3 active torsions:
  status: ('A' for Active; 'I' for Inactive)
    1  A    between atoms: C_17  and  C_28
    2  A    between atoms: C_28  and  N_29
    3  A    between atoms: N_29  and  C_32
                            x       y       z     vdW  Elec       q    Type
                         _______ _______ _______ _____ _____    ______ ____

>  <TORSDO>
F 3

$$$$
=
 OpenBabel11112417553D

 34 40  0  0  1  0  0  0  0  0999 V2000
  192.1820  176.1870  145.0260 C   0  0  0  0  0  0  0  0  0  0  0  0
  190.2120  177.7690  144.9380 C   0  0  0  0  0  3  0  0  0  0  0  0
  192.6930  169.9710  143.7040 N   0  0  0  0  0  2  0  0  0  0  0  0
  193.8890  174.4660  144.8860 C   0  0  0  0  0  0  0  0  0  0  0  0
  193.7770  172.8000  143.0170 C   0  0  0  0  0  0  0  0  0  0  0  0
  193.5860  170.7560  141.5640 C   0  0  0  0  0  2  0  0  0  0  0  0
  193.3750  169.5590  142.4840 C   0  0  0  0  0  2  0  0  0  0  0  0
  194.6280  170.7150  145.0470 C   0  0  0  0  0  2  0  0  0  0  0  0
  190.3310  176.0490  143.4480 C   0  0  0  0  0  0  0  0  0  0  0  0
  187.7630  174.8370  142.4050 C   0  0  0  0  0  2  0  0  0  0  0  0
  192.6700  173.3480  142.6070 N   0  0  0  0  0  0  0  0  0  0  0  0
  193.9990  172.0610  145.3850 C   0  0  0  0  0  2  0  0  0  0  0  0
  190.8430  174.9460  142.8350 N   0  0  0  0  0  0  0  0  0  0  0  0
  189.0820  177.7790  144.1100 C   0  0  0  0  0  3  0  0  0  0  0  0
  194.3760  173.1400  144.3660 C   0  0  2  0  0  3  0  0  0  0  0  0
  193.5540  169.6480  144.8380 C   0  0  0  0  0  2  0  0  0  0  0  0
  188.1350  176.3050  142.1790 C   0  0  2  0  0  3  0  0  0  0  0  0
  192.6930  175.0220  144.4080 C   0  0  0  0  0  0  0  0  0  0  0  0
  194.3840  171.7630  142.2440 N   0  0  0  0  0  2  0  0  0  0  0  0
  192.0280  174.4290  143.3010 C   0  0  0  0  0  0  0  0  0  0  0  0
  194.0740  176.1970  146.5130 C   0  0  0  0  0  3  0  0  0  0  0  0
  188.8180  173.8210  141.9330 C   0  0  0  0  0  2  0  0  0  0  0  0
  194.5420  175.0640  145.9210 N   0  0  0  0  0  0  0  0  0  0  0  0
  190.2080  174.3950  141.6370 C   0  0  0  0  0  2  0  0  0  0  0  0
  189.1570  176.7180  143.2020 C   0  0  0  0  0  0  0  0  0  0  0  0
  192.8790  176.7790  146.0820 C   0  0  0  0  0  3  0  0  0  0  0  0
  190.9850  176.6960  144.5410 C   0  0  0  0  0  0  0  0  0  0  0  0
  186.8860  177.1710  142.2450 C   0  0  0  0  0  2  0  0  0  0  0  0
  185.9460  176.6170  143.2070 N   0  0  0  0  0  2  0  0  0  0  0  0
  184.8020  179.2080  145.2550 O   0  0  0  0  0  0  0  0  0  0  0  0
  185.4670  178.9730  143.0020 C   0  0  0  0  0  2  0  0  0  0  0  0
  184.9590  177.6470  143.4830 C   0  0  2  0  0  3  0  0  0  0  0  0
  185.6030  179.7900  144.2640 C   0  0  0  0  0  2  0  0  0  0  0  0
  184.8160  177.8340  144.9780 C   0  0  0  0  0  2  0  0  0  0  0  0
  1 26  1  0  0  0  0
  3 16  1  0  0  0  0
  4 23  2  0  0  0  0
  5 15  1  0  0  0  0
  6 19  1  0  0  0  0
  6  7  1  0  0  0  0
  7  3  1  0  0  0  0
  8 12  1  0  0  0  0
  9 27  1  0  0  0  0
 11  5  2  0  0  0  0
 11 20  1  0  0  0  0
 13 20  1  0  0  0  0
 13  9  1  0  0  0  0
 14  2  2  0  0  0  0
 15  4  1  0  0  0  0
 15 12  1  1  0  0  0
 16  8  1  0  0  0  0
 17 28  1  1  0  0  0
 17 10  1  0  0  0  0
 17 25  1  0  0  0  0
 18  4  1  0  0  0  0
 18  1  1  0  0  0  0
 19  5  1  0  0  0  0
 20 18  2  0  0  0  0
 22 10  1  0  0  0  0
 23 21  1  0  0  0  0
 24 22  1  0  0  0  0
 24 13  1  0  0  0  0
 25  9  2  0  0  0  0
 25 14  1  0  0  0  0
 26 21  2  0  0  0  0
 27  2  1  0  0  0  0
 27  1  2  0  0  0  0
 28 29  1  0  0  0  0
 31 32  1  0  0  0  0
 31 33  1  0  0  0  0
 32 29  1  1  0  0  0
 32 34  1  0  0  0  0
 33 30  1  0  0  0  0
 34 30  1  0  0  0  0
M  END
>  <MODEL>
2

>  <REMARK>
 VINA RESULT:      -7.9      2.255      3.140
  Name = 
  3 active torsions:
  status: ('A' for Active; 'I' for Inactive)
    1  A    between atoms: C_17  and  C_28
    2  A    between atoms: C_28  and  N_29
    3  A    between atoms: N_29  and  C_32
                            x       y       z     vdW  Elec       q    Type
                         _______ _______ _______ _____ _____    ______ ____

>  <TORSDO>
F 3

$$$$
=
 OpenBabel11112417553D

 34 40  0  0  1  0  0  0  0  0999 V2000
  191.6060  175.6650  145.0460 C   0  0  0  0  0  0  0  0  0  0  0  0
  189.9550  177.4140  145.8270 C   0  0  0  0  0  3  0  0  0  0  0  0
  190.8410  170.3330  141.6360 N   0  0  0  0  0  2  0  0  0  0  0  0
  192.9480  173.9030  144.0520 C   0  0  0  0  0  0  0  0  0  0  0  0
  192.3340  173.0530  141.7750 C   0  0  0  0  0  0  0  0  0  0  0  0
  191.6200  171.7130  139.7700 C   0  0  0  0  0  2  0  0  0  0  0  0
  191.3000  170.3040  140.2530 C   0  0  0  0  0  2  0  0  0  0  0  0
  193.0130  170.2850  142.8100 C   0  0  0  0  0  2  0  0  0  0  0  0
  189.5980  176.3470  143.8450 C   0  0  0  0  0  0  0  0  0  0  0  0
  186.7560  175.9360  142.8960 C   0  0  0  0  0  2  0  0  0  0  0  0
  191.3050  173.8510  141.7650 N   0  0  0  0  0  0  0  0  0  0  0  0
  192.6770  171.4880  143.6820 C   0  0  0  0  0  2  0  0  0  0  0  0
  189.8330  175.4820  142.8200 N   0  0  0  0  0  0  0  0  0  0  0  0
  188.7610  177.8680  145.2510 C   0  0  0  0  0  3  0  0  0  0  0  0
  193.1290  172.8030  143.0400 C   0  0  2  0  0  3  0  0  0  0  0  0
  191.7480  169.5140  142.4340 C   0  0  0  0  0  2  0  0  0  0  0  0
  187.3590  177.3250  143.1210 C   0  0  2  0  0  3  0  0  0  0  0  0
  191.8270  174.7450  143.9950 C   0  0  0  0  0  0  0  0  0  0  0  0
  192.6560  172.2950  140.6080 N   0  0  0  0  0  2  0  0  0  0  0  0
  190.9490  174.6830  142.8800 C   0  0  0  0  0  0  0  0  0  0  0  0
  193.6190  174.8930  146.1130 C   0  0  0  0  0  3  0  0  0  0  0  0
  187.5520  175.0300  141.9400 C   0  0  0  0  0  2  0  0  0  0  0  0
  193.8080  173.9980  145.1040 N   0  0  0  0  0  0  0  0  0  0  0  0
  188.9820  175.4870  141.6290 C   0  0  0  0  0  2  0  0  0  0  0  0
  188.5450  177.2060  144.0390 C   0  0  0  0  0  0  0  0  0  0  0  0
  192.5090  175.7410  146.1090 C   0  0  0  0  0  3  0  0  0  0  0  0
  190.4740  176.4650  144.9680 C   0  0  0  0  0  0  0  0  0  0  0  0
  186.3010  178.2640  143.6830 C   0  0  0  0  0  2  0  0  0  0  0  0
  185.2050  177.4950  144.2510 N   0  0  0  0  0  2  0  0  0  0  0  0
  184.7650  178.3920  147.6010 O   0  0  0  0  0  0  0  0  0  0  0  0
  185.4770  179.4630  145.6200 C   0  0  0  0  0  2  0  0  0  0  0  0
  184.5600  178.3390  145.2430 C   0  0  2  0  0  3  0  0  0  0  0  0
  185.7700  179.2200  147.0820 C   0  0  0  0  0  2  0  0  0  0  0  0
  184.3810  177.5680  146.5340 C   0  0  0  0  0  2  0  0  0  0  0  0
  1 26  1  0  0  0  0
  3 16  1  0  0  0  0
  4 23  2  0  0  0  0
  5 15  1  0  0  0  0
  6  7  1  0  0  0  0
  6 19  1  0  0  0  0
  7  3  1  0  0  0  0
  8 12  1  0  0  0  0
  9 25  2  0  0  0  0
  9 27  1  0  0  0  0
 10 17  1  0  0  0  0
 11  5  2  0  0  0  0
 11 20  1  0  0  0  0
 13 20  1  0  0  0  0
 13  9  1  0  0  0  0
 14  2  2  0  0  0  0
 15 12  1  1  0  0  0
 15  4  1  0  0  0  0
 16  8  1  0  0  0  0
 17 28  1  1  0  0  0
 17 25  1  0  0  0  0
 18  4  1  0  0  0  0
 18  1  1  0  0  0  0
 19  5  1  0  0  0  0
 20 18  2  0  0  0  0
 22 10  1  0  0  0  0
 23 21  1  0  0  0  0
 24 22  1  0  0  0  0
 24 13  1  0  0  0  0
 25 14  1  0  0  0  0
 26 21  2  0  0  0  0
 27  1  2  0  0  0  0
 27  2  1  0  0  0  0
 28 29  1  0  0  0  0
 31 33  1  0  0  0  0
 32 29  1  6  0  0  0
 32 31  1  0  0  0  0
 32 34  1  0  0  0  0
 33 30  1  0  0  0  0
 34 30  1  0  0  0  0
M  END
>  <MODEL>
3

>  <REMARK>
 VINA RESULT:      -7.9      1.919      2.577
  Name = 
  3 active torsions:
  status: ('A' for Active; 'I' for Inactive)
    1  A    between atoms: C_17  and  C_28
    2  A    between atoms: C_28  and  N_29
    3  A    between atoms: N_29  and  C_32
                            x       y       z     vdW  Elec       q    Type
                         _______ _______ _______ _____ _____    ______ ____

>  <TORSDO>
F 3

$$$$
=
 OpenBabel11112417553D

 34 40  0  0  1  0  0  0  0  0999 V2000
  192.0740  176.4530  145.7440 C   0  0  0  0  0  0  0  0  0  0  0  0
  189.7590  176.8520  146.6800 C   0  0  0  0  0  3  0  0  0  0  0  0
  194.1340  172.8200  140.9280 N   0  0  0  0  0  2  0  0  0  0  0  0
  194.1310  175.9660  144.5510 C   0  0  0  0  0  0  0  0  0  0  0  0
  194.0540  175.7120  142.0590 C   0  0  0  0  0  0  0  0  0  0  0  0
  194.1320  174.9220  139.6720 C   0  0  0  0  0  2  0  0  0  0  0  0
  194.5600  173.4590  139.6890 C   0  0  0  0  0  2  0  0  0  0  0  0
  196.0220  173.4320  142.3970 C   0  0  0  0  0  2  0  0  0  0  0  0
  190.0100  176.4480  144.4510 C   0  0  0  0  0  0  0  0  0  0  0  0
  187.7710  175.0700  142.9540 C   0  0  0  0  0  2  0  0  0  0  0  0
  192.7630  175.8820  142.0910 N   0  0  0  0  0  0  0  0  0  0  0  0
  195.1180  173.9770  143.4950 C   0  0  0  0  0  2  0  0  0  0  0  0
  190.6580  176.1810  143.2840 N   0  0  0  0  0  0  0  0  0  0  0  0
  188.5050  176.8440  146.0540 C   0  0  0  0  0  3  0  0  0  0  0  0
  194.8530  175.4760  143.3240 C   0  0  2  0  0  3  0  0  0  0  0  0
  195.3220  172.3220  141.6140 C   0  0  0  0  0  2  0  0  0  0  0  0
  187.5900  176.4210  143.6500 C   0  0  2  0  0  3  0  0  0  0  0  0
  192.7400  176.1430  144.5360 C   0  0  0  0  0  0  0  0  0  0  0  0
  194.7260  175.6190  140.8020 N   0  0  0  0  0  2  0  0  0  0  0  0
  192.0250  176.0350  143.3130 C   0  0  0  0  0  0  0  0  0  0  0  0
  194.1910  176.4300  146.8870 C   0  0  0  0  0  3  0  0  0  0  0  0
  188.9250  175.0130  141.9380 C   0  0  0  0  0  2  0  0  0  0  0  0
  194.8150  176.1120  145.7200 N   0  0  0  0  0  0  0  0  0  0  0  0
  189.9330  176.1650  142.0130 C   0  0  0  0  0  2  0  0  0  0  0  0
  188.6640  176.5900  144.6890 C   0  0  0  0  0  0  0  0  0  0  0  0
  192.8050  176.6010  146.9250 C   0  0  0  0  0  3  0  0  0  0  0  0
  190.6940  176.5980  145.6960 C   0  0  0  0  0  0  0  0  0  0  0  0
  186.1970  176.5090  144.2570 C   0  0  0  0  0  2  0  0  0  0  0  0
  185.5930  177.7920  143.9340 N   0  0  0  0  0  2  0  0  0  0  0  0
  185.1000  177.8500  147.3950 O   0  0  0  0  0  0  0  0  0  0  0  0
  185.3130  179.4470  145.6680 C   0  0  0  0  0  2  0  0  0  0  0  0
  184.7780  178.1790  145.0730 C   0  0  2  0  0  3  0  0  0  0  0  0
  185.7570  179.0390  147.0530 C   0  0  0  0  0  2  0  0  0  0  0  0
  184.9310  177.1630  146.1840 C   0  0  0  0  0  2  0  0  0  0  0  0
  1 26  1  0  0  0  0
  3 16  1  0  0  0  0
  4 23  2  0  0  0  0
  5 11  2  0  0  0  0
  5 15  1  0  0  0  0
  6  7  1  0  0  0  0
  6 19  1  0  0  0  0
  7  3  1  0  0  0  0
  8 12  1  0  0  0  0
  9 25  2  0  0  0  0
  9 27  1  0  0  0  0
 10 17  1  0  0  0  0
 11 20  1  0  0  0  0
 13 20  1  0  0  0  0
 13  9  1  0  0  0  0
 14  2  2  0  0  0  0
 15 12  1  1  0  0  0
 15  4  1  0  0  0  0
 16  8  1  0  0  0  0
 17 28  1  1  0  0  0
 17 25  1  0  0  0  0
 18  4  1  0  0  0  0
 18  1  1  0  0  0  0
 19  5  1  0  0  0  0
 20 18  2  0  0  0  0
 21 26  2  0  0  0  0
 22 24  1  0  0  0  0
 22 10  1  0  0  0  0
 23 21  1  0  0  0  0
 24 13  1  0  0  0  0
 25 14  1  0  0  0  0
 27  1  2  0  0  0  0
 27  2  1  0  0  0  0
 29 28  1  0  0  0  0
 31 33  1  0  0  0  0
 32 29  1  6  0  0  0
 32 31  1  0  0  0  0
 32 34  1  0  0  0  0
 33 30  1  0  0  0  0
 34 30  1  0  0  0  0
M  END
>  <MODEL>
4

>  <REMARK>
 VINA RESULT:      -7.8      1.494      2.187
  Name = 
  3 active torsions:
  status: ('A' for Active; 'I' for Inactive)
    1  A    between atoms: C_17  and  C_28
    2  A    between atoms: C_28  and  N_29
    3  A    between atoms: N_29  and  C_32
                            x       y       z     vdW  Elec       q    Type
                         _______ _______ _______ _____ _____    ______ ____

>  <TORSDO>
F 3

$$$$
=
 OpenBabel11112417553D

 34 40  0  0  1  0  0  0  0  0999 V2000
  190.6800  173.6590  141.4620 C   0  0  0  0  0  0  0  0  0  0  0  0
  188.3440  174.5260  141.8940 C   0  0  0  0  0  3  0  0  0  0  0  0
  196.3750  176.5140  141.6900 N   0  0  0  0  0  2  0  0  0  0  0  0
  193.0320  173.1010  141.2410 C   0  0  0  0  0  0  0  0  0  0  0  0
  194.6790  174.1620  142.8040 C   0  0  0  0  0  0  0  0  0  0  0  0
  196.5340  175.4640  143.8960 C   0  0  0  0  0  2  0  0  0  0  0  0
  197.2760  176.2130  142.7950 C   0  0  0  0  0  2  0  0  0  0  0  0
  196.5340  174.4030  140.4180 C   0  0  0  0  0  2  0  0  0  0  0  0
  190.0940  175.3970  143.0650 C   0  0  0  0  0  0  0  0  0  0  0  0
  189.9490  178.2750  143.9870 C   0  0  0  0  0  2  0  0  0  0  0  0
  193.7120  174.8470  143.3440 N   0  0  0  0  0  0  0  0  0  0  0  0
  195.0230  174.2250  140.3380 C   0  0  0  0  0  2  0  0  0  0  0  0
  191.3860  175.5660  143.4620 N   0  0  0  0  0  0  0  0  0  0  0  0
  187.8860  175.5320  142.7550 C   0  0  0  0  0  3  0  0  0  0  0  0
  194.4830  173.4000  141.5100 C   0  0  2  0  0  3  0  0  0  0  0  0
  196.9060  175.8840  140.4850 C   0  0  0  0  0  2  0  0  0  0  0  0
  188.9490  177.2100  144.4440 C   0  0  2  0  0  3  0  0  0  0  0  0
  192.0240  173.8600  141.8540 C   0  0  0  0  0  0  0  0  0  0  0  0
  195.9910  174.2240  143.3650 N   0  0  0  0  0  2  0  0  0  0  0  0
  192.3580  174.7960  142.8690 C   0  0  0  0  0  0  0  0  0  0  0  0
  191.4080  171.9560  139.9260 C   0  0  0  0  0  3  0  0  0  0  0  0
  191.4270  177.9270  144.2380 C   0  0  0  0  0  2  0  0  0  0  0  0
  192.6990  172.1770  140.2980 N   0  0  0  0  0  0  0  0  0  0  0  0
  191.7170  176.4590  144.5730 C   0  0  0  0  0  2  0  0  0  0  0  0
  188.9640  176.0670  143.4670 C   0  0  0  0  0  0  0  0  0  0  0  0
  190.3710  172.6990  140.4960 C   0  0  0  0  0  3  0  0  0  0  0  0
  189.7110  174.4440  142.0730 C   0  0  0  0  0  0  0  0  0  0  0  0
  187.5620  177.8240  144.5750 C   0  0  0  0  0  2  0  0  0  0  0  0
  186.9370  177.3810  145.8110 N   0  0  0  0  0  2  0  0  0  0  0  0
  183.6840  178.6550  145.9070 O   0  0  0  0  0  0  0  0  0  0  0  0
  185.1730  177.8860  144.2440 C   0  0  0  0  0  2  0  0  0  0  0  0
  185.5210  177.2100  145.5360 C   0  0  2  0  0  3  0  0  0  0  0  0
  184.2160  178.9800  144.6520 C   0  0  0  0  0  2  0  0  0  0  0  0
  184.7030  177.9570  146.5680 C   0  0  0  0  0  2  0  0  0  0  0  0
  1 18  1  0  0  0  0
  1 27  2  0  0  0  0
  2 27  1  0  0  0  0
  2 14  2  0  0  0  0
  3  7  1  0  0  0  0
  4 15  1  0  0  0  0
  4 18  1  0  0  0  0
  5 11  2  0  0  0  0
  5 19  1  0  0  0  0
  7  6  1  0  0  0  0
  8 16  1  0  0  0  0
  9 13  1  0  0  0  0
  9 25  2  0  0  0  0
 10 22  1  0  0  0  0
 10 17  1  0  0  0  0
 12  8  1  0  0  0  0
 13 24  1  0  0  0  0
 14 25  1  0  0  0  0
 15 12  1  6  0  0  0
 15  5  1  0  0  0  0
 16  3  1  0  0  0  0
 17 28  1  6  0  0  0
 18 20  2  0  0  0  0
 19  6  1  0  0  0  0
 20 11  1  0  0  0  0
 20 13  1  0  0  0  0
 21 23  1  0  0  0  0
 21 26  2  0  0  0  0
 22 24  1  0  0  0  0
 23  4  2  0  0  0  0
 25 17  1  0  0  0  0
 26  1  1  0  0  0  0
 27  9  1  0  0  0  0
 28 29  1  0  0  0  0
 30 34  1  0  0  0  0
 31 33  1  0  0  0  0
 31 32  1  0  0  0  0
 32 29  1  1  0  0  0
 32 34  1  0  0  0  0
 33 30  1  0  0  0  0
M  END
>  <MODEL>
5

>  <REMARK>
 VINA RESULT:      -7.7      1.807      4.098
  Name = 
  3 active torsions:
  status: ('A' for Active; 'I' for Inactive)
    1  A    between atoms: C_17  and  C_28
    2  A    between atoms: C_28  and  N_29
    3  A    between atoms: N_29  and  C_32
                            x       y       z     vdW  Elec       q    Type
                         _______ _______ _______ _____ _____    ______ ____

>  <TORSDO>
F 3

$$$$
=
 OpenBabel11112417553D

 34 40  0  0  1  0  0  0  0  0999 V2000
  194.1560  175.6630  144.0550 C   0  0  0  0  0  0  0  0  0  0  0  0
  192.4130  177.4800  144.2950 C   0  0  0  0  0  3  0  0  0  0  0  0
  194.5280  169.7920  146.5130 N   0  0  0  0  0  2  0  0  0  0  0  0
  195.5720  173.6960  143.9240 C   0  0  0  0  0  0  0  0  0  0  0  0
  194.4970  171.4320  143.8750 C   0  0  0  0  0  0  0  0  0  0  0  0
  193.6860  169.0930  144.3230 C   0  0  0  0  0  2  0  0  0  0  0  0
  194.2950  168.6440  145.6460 C   0  0  0  0  0  2  0  0  0  0  0  0
  196.7430  170.5100  145.6900 C   0  0  0  0  0  2  0  0  0  0  0  0
  191.7660  175.2960  144.3520 C   0  0  0  0  0  0  0  0  0  0  0  0
  189.3390  174.5330  145.9900 C   0  0  0  0  0  2  0  0  0  0  0  0
  193.3290  171.9940  143.9980 N   0  0  0  0  0  0  0  0  0  0  0  0
  196.3100  171.9580  145.4990 C   0  0  0  0  0  2  0  0  0  0  0  0
  191.8980  173.9410  144.3210 N   0  0  0  0  0  0  0  0  0  0  0  0
  191.0300  177.4000  144.5000 C   0  0  0  0  0  3  0  0  0  0  0  0
  195.7770  172.2130  144.0860 C   0  0  2  0  0  3  0  0  0  0  0  0
  195.9540  169.8490  146.8200 C   0  0  0  0  0  2  0  0  0  0  0  0
  189.2670  175.5050  144.8090 C   0  0  2  0  0  3  0  0  0  0  0  0
  194.2920  174.2550  144.0570 C   0  0  0  0  0  0  0  0  0  0  0  0
  194.5870  170.0230  143.6590 N   0  0  0  0  0  2  0  0  0  0  0  0
  193.1560  173.4100  144.1650 C   0  0  0  0  0  0  0  0  0  0  0  0
  196.5340  175.8690  143.7550 C   0  0  0  0  0  3  0  0  0  0  0  0
  189.9560  173.1610  145.6630 C   0  0  0  0  0  2  0  0  0  0  0  0
  196.6520  174.5130  143.7790 N   0  0  0  0  0  0  0  0  0  0  0  0
  190.7190  173.0740  144.3370 C   0  0  0  0  0  2  0  0  0  0  0  0
  190.6390  176.0580  144.5400 C   0  0  0  0  0  0  0  0  0  0  0  0
  195.2830  176.4730  143.9000 C   0  0  0  0  0  3  0  0  0  0  0  0
  192.8770  176.1820  144.2130 C   0  0  0  0  0  0  0  0  0  0  0  0
  188.2600  176.6070  145.1070 C   0  0  0  0  0  2  0  0  0  0  0  0
  187.7350  176.4500  146.4540 N   0  0  0  0  0  2  0  0  0  0  0  0
  185.1510  178.6680  147.2430 O   0  0  0  0  0  0  0  0  0  0  0  0
  186.0730  177.7440  145.2760 C   0  0  0  0  0  2  0  0  0  0  0  0
  186.3230  176.7900  146.4050 C   0  0  2  0  0  3  0  0  0  0  0  0
  185.6060  179.0050  145.9620 C   0  0  0  0  0  2  0  0  0  0  0  0
  185.9420  177.5800  147.6380 C   0  0  0  0  0  2  0  0  0  0  0  0
  1 18  1  0  0  0  0
  1 27  2  0  0  0  0
  2 14  2  0  0  0  0
  3 16  1  0  0  0  0
  4 18  1  0  0  0  0
  4 15  1  0  0  0  0
  5 11  2  0  0  0  0
  5 15  1  0  0  0  0
  6  7  1  0  0  0  0
  7  3  1  0  0  0  0
  8 16  1  0  0  0  0
  9 25  2  0  0  0  0
 11 20  1  0  0  0  0
 12  8  1  0  0  0  0
 13 24  1  0  0  0  0
 13  9  1  0  0  0  0
 14 25  1  0  0  0  0
 15 12  1  1  0  0  0
 17 28  1  1  0  0  0
 17 10  1  0  0  0  0
 18 20  2  0  0  0  0
 19  5  1  0  0  0  0
 19  6  1  0  0  0  0
 20 13  1  0  0  0  0
 21 23  1  0  0  0  0
 21 26  2  0  0  0  0
 22 10  1  0  0  0  0
 23  4  2  0  0  0  0
 24 22  1  0  0  0  0
 25 17  1  0  0  0  0
 26  1  1  0  0  0  0
 27  2  1  0  0  0  0
 27  9  1  0  0  0  0
 28 29  1  0  0  0  0
 30 34  1  0  0  0  0
 31 33  1  0  0  0  0
 31 32  1  0  0  0  0
 32 29  1  1  0  0  0
 32 34  1  0  0  0  0
 33 30  1  0  0  0  0
M  END
>  <MODEL>
6

>  <REMARK>
 VINA RESULT:      -7.6      2.559      3.564
  Name = 
  3 active torsions:
  status: ('A' for Active; 'I' for Inactive)
    1  A    between atoms: C_17  and  C_28
    2  A    between atoms: C_28  and  N_29
    3  A    between atoms: N_29  and  C_32
                            x       y       z     vdW  Elec       q    Type
                         _______ _______ _______ _____ _____    ______ ____

>  <TORSDO>
F 3

$$$$
=
 OpenBabel11112417553D

 34 40  0  0  1  0  0  0  0  0999 V2000
  191.4580  176.4010  146.3890 C   0  0  0  0  0  0  0  0  0  0  0  0
  193.9560  176.2240  146.7390 C   0  0  0  0  0  3  0  0  0  0  0  0
  187.9830  177.7320  141.2120 N   0  0  0  0  0  2  0  0  0  0  0  0
  189.1300  176.5160  145.7110 C   0  0  0  0  0  0  0  0  0  0  0  0
  188.4820  175.6400  143.4530 C   0  0  0  0  0  0  0  0  0  0  0  0
  187.6970  175.3040  141.0880 C   0  0  0  0  0  2  0  0  0  0  0  0
  187.2430  176.6590  140.5600 C   0  0  0  0  0  2  0  0  0  0  0  0
  186.6170  178.0210  143.2490 C   0  0  0  0  0  2  0  0  0  0  0  0
  193.0640  175.6310  144.7270 C   0  0  0  0  0  0  0  0  0  0  0  0
  194.7330  175.9790  142.2290 C   0  0  0  0  0  2  0  0  0  0  0  0
  189.7330  175.3730  143.2080 N   0  0  0  0  0  0  0  0  0  0  0  0
  187.8160  177.9260  144.1840 C   0  0  0  0  0  2  0  0  0  0  0  0
  192.1000  175.4210  143.7890 N   0  0  0  0  0  0  0  0  0  0  0  0
  194.9770  175.8310  145.8640 C   0  0  0  0  0  3  0  0  0  0  0  0
  188.0710  176.4870  144.6400 C   0  0  2  0  0  3  0  0  0  0  0  0
  187.0250  178.5970  141.8940 C   0  0  0  0  0  2  0  0  0  0  0  0
  195.1510  175.0600  143.3800 C   0  0  2  0  0  3  0  0  0  0  0  0
  190.4630  176.2130  145.4010 C   0  0  0  0  0  0  0  0  0  0  0  0
  187.4750  175.2370  142.5240 N   0  0  0  0  0  2  0  0  0  0  0  0
  190.7950  175.7000  144.1180 C   0  0  0  0  0  0  0  0  0  0  0  0
  189.7570  177.1350  147.9250 C   0  0  0  0  0  3  0  0  0  0  0  0
  193.3350  175.6980  141.6500 C   0  0  0  0  0  2  0  0  0  0  0  0
  188.8140  176.9680  146.9560 N   0  0  0  0  0  0  0  0  0  0  0  0
  192.4290  174.8030  142.5040 C   0  0  0  0  0  2  0  0  0  0  0  0
  194.4250  175.4740  144.6300 C   0  0  0  0  0  0  0  0  0  0  0  0
  191.1010  176.8610  147.6580 C   0  0  0  0  0  3  0  0  0  0  0  0
  192.7700  176.1120  146.0400 C   0  0  0  0  0  0  0  0  0  0  0  0
  196.6620  175.1100  143.5590 C   0  0  0  0  0  2  0  0  0  0  0  0
  197.2720  173.9300  142.9680 N   0  0  0  0  0  2  0  0  0  0  0  0
  197.1980  173.0810  146.3580 O   0  0  0  0  0  0  0  0  0  0  0  0
  196.8320  171.9700  144.3070 C   0  0  0  0  0  2  0  0  0  0  0  0
  197.7710  173.1130  144.0620 C   0  0  2  0  0  3  0  0  0  0  0  0
  196.3070  172.2230  145.7000 C   0  0  0  0  0  2  0  0  0  0  0  0
  197.7260  173.9020  145.3530 C   0  0  0  0  0  2  0  0  0  0  0  0
  1 26  1  0  0  0  0
  3 16  1  0  0  0  0
  4 23  2  0  0  0  0
  5 15  1  0  0  0  0
  6 19  1  0  0  0  0
  7  6  1  0  0  0  0
  7  3  1  0  0  0  0
  8 12  1  0  0  0  0
  9 27  1  0  0  0  0
 10 17  1  0  0  0  0
 11  5  2  0  0  0  0
 11 20  1  0  0  0  0
 13 20  1  0  0  0  0
 13  9  1  0  0  0  0
 14  2  2  0  0  0  0
 15 12  1  6  0  0  0
 15  4  1  0  0  0  0
 16  8  1  0  0  0  0
 17 28  1  1  0  0  0
 17 25  1  0  0  0  0
 18  4  1  0  0  0  0
 18  1  1  0  0  0  0
 19  5  1  0  0  0  0
 20 18  2  0  0  0  0
 22 10  1  0  0  0  0
 22 24  1  0  0  0  0
 23 21  1  0  0  0  0
 24 13  1  0  0  0  0
 25  9  2  0  0  0  0
 25 14  1  0  0  0  0
 26 21  2  0  0  0  0
 27  1  2  0  0  0  0
 27  2  1  0  0  0  0
 29 28  1  0  0  0  0
 31 33  1  0  0  0  0
 32 29  1  6  0  0  0
 32 31  1  0  0  0  0
 32 34  1  0  0  0  0
 33 30  1  0  0  0  0
 34 30  1  0  0  0  0
M  END
>  <MODEL>
7

>  <REMARK>
 VINA RESULT:      -7.6      3.345      7.659
  Name = 
  3 active torsions:
  status: ('A' for Active; 'I' for Inactive)
    1  A    between atoms: C_17  and  C_28
    2  A    between atoms: C_28  and  N_29
    3  A    between atoms: N_29  and  C_32
                            x       y       z     vdW  Elec       q    Type
                         _______ _______ _______ _____ _____    ______ ____

>  <TORSDO>
F 3

$$$$
=
 OpenBabel11112417553D

 34 40  0  0  1  0  0  0  0  0999 V2000
  189.5480  176.3800  146.1600 C   0  0  0  0  0  0  0  0  0  0  0  0
  187.3930  177.6630  146.4840 C   0  0  0  0  0  3  0  0  0  0  0  0
  191.4670  172.4040  141.5610 N   0  0  0  0  0  2  0  0  0  0  0  0
  191.5260  175.1330  145.5070 C   0  0  0  0  0  0  0  0  0  0  0  0
  192.1440  175.0270  143.0800 C   0  0  0  0  0  0  0  0  0  0  0  0
  192.6600  174.3650  140.7090 C   0  0  0  0  0  2  0  0  0  0  0  0
  192.4700  172.8570  140.6050 C   0  0  0  0  0  2  0  0  0  0  0  0
  192.8810  172.1270  143.5670 C   0  0  0  0  0  2  0  0  0  0  0  0
  188.1560  177.2740  144.3720 C   0  0  0  0  0  0  0  0  0  0  0  0
  186.1540  177.0000  142.1220 C   0  0  0  0  0  2  0  0  0  0  0  0
  191.0760  175.7130  142.7880 N   0  0  0  0  0  0  0  0  0  0  0  0
  191.9580  172.9560  144.4510 C   0  0  0  0  0  2  0  0  0  0  0  0
  188.9850  176.8080  143.3980 N   0  0  0  0  0  0  0  0  0  0  0  0
  186.4960  178.1960  145.5490 C   0  0  0  0  0  3  0  0  0  0  0  0
  192.3520  174.4350  144.4590 C   0  0  2  0  0  3  0  0  0  0  0  0
  192.0950  171.4350  142.4540 C   0  0  0  0  0  2  0  0  0  0  0  0
  186.2930  178.2780  142.9510 C   0  0  2  0  0  3  0  0  0  0  0  0
  190.3890  175.8680  145.1440 C   0  0  0  0  0  0  0  0  0  0  0  0
  193.0870  174.7130  142.0550 N   0  0  0  0  0  2  0  0  0  0  0  0
  190.1090  176.1110  143.7720 C   0  0  0  0  0  0  0  0  0  0  0  0
  191.0220  175.4440  147.8150 C   0  0  0  0  0  3  0  0  0  0  0  0
  187.4550  176.5100  141.4610 C   0  0  0  0  0  2  0  0  0  0  0  0
  191.8100  174.9400  146.8250 N   0  0  0  0  0  0  0  0  0  0  0  0
  188.7470  177.1400  141.9920 C   0  0  0  0  0  2  0  0  0  0  0  0
  186.9660  177.9500  144.2560 C   0  0  0  0  0  0  0  0  0  0  0  0
  189.8700  176.1690  147.5030 C   0  0  0  0  0  3  0  0  0  0  0  0
  188.4180  177.0820  145.7630 C   0  0  0  0  0  0  0  0  0  0  0  0
  184.9240  178.9090  143.1640 C   0  0  0  0  0  2  0  0  0  0  0  0
  183.8830  178.0090  142.6930 N   0  0  0  0  0  2  0  0  0  0  0  0
  181.4860  178.0190  140.1490 O   0  0  0  0  0  0  0  0  0  0  0  0
  181.6950  178.9510  142.3090 C   0  0  0  0  0  2  0  0  0  0  0  0
  183.0700  178.7540  141.7460 C   0  0  2  0  0  3  0  0  0  0  0  0
  180.8010  178.1880  141.3600 C   0  0  0  0  0  2  0  0  0  0  0  0
  182.8380  177.9230  140.5030 C   0  0  0  0  0  2  0  0  0  0  0  0
  1 26  1  0  0  0  0
  3 16  1  0  0  0  0
  4 23  2  0  0  0  0
  5 15  1  0  0  0  0
  6 19  1  0  0  0  0
  7  6  1  0  0  0  0
  7  3  1  0  0  0  0
  8 12  1  0  0  0  0
  9 27  1  0  0  0  0
 10 17  1  0  0  0  0
 11  5  2  0  0  0  0
 11 20  1  0  0  0  0
 13 20  1  0  0  0  0
 13  9  1  0  0  0  0
 14  2  2  0  0  0  0
 15 12  1  6  0  0  0
 15  4  1  0  0  0  0
 16  8  1  0  0  0  0
 17 28  1  1  0  0  0
 17 25  1  0  0  0  0
 18  4  1  0  0  0  0
 18  1  1  0  0  0  0
 19  5  1  0  0  0  0
 20 18  2  0  0  0  0
 22 24  1  0  0  0  0
 22 10  1  0  0  0  0
 23 21  1  0  0  0  0
 24 13  1  0  0  0  0
 25  9  2  0  0  0  0
 25 14  1  0  0  0  0
 26 21  2  0  0  0  0
 27  1  2  0  0  0  0
 27  2  1  0  0  0  0
 29 28  1  0  0  0  0
 30 34  1  0  0  0  0
 30 33  1  0  0  0  0
 32 31  1  0  0  0  0
 32 29  1  1  0  0  0
 33 31  1  0  0  0  0
 34 32  1  0  0  0  0
M  END
>  <MODEL>
8

>  <REMARK>
 VINA RESULT:      -7.6      3.138      4.408
  Name = 
  3 active torsions:
  status: ('A' for Active; 'I' for Inactive)
    1  A    between atoms: C_17  and  C_28
    2  A    between atoms: C_28  and  N_29
    3  A    between atoms: N_29  and  C_32
                            x       y       z     vdW  Elec       q    Type
                         _______ _______ _______ _____ _____    ______ ____

>  <TORSDO>
F 3

$$$$
=
 OpenBabel11112417553D

 34 40  0  0  1  0  0  0  0  0999 V2000
  187.2090  176.1510  139.7440 C   0  0  0  0  0  0  0  0  0  0  0  0
  186.5590  177.7790  141.5660 C   0  0  0  0  0  3  0  0  0  0  0  0
  192.3230  172.4130  139.0220 N   0  0  0  0  0  2  0  0  0  0  0  0
  188.0450  174.4410  138.2380 C   0  0  0  0  0  0  0  0  0  0  0  0
  189.2220  172.4490  139.2020 C   0  0  0  0  0  0  0  0  0  0  0  0
  190.8510  170.6580  139.8850 C   0  0  0  0  0  2  0  0  0  0  0  0
  192.1850  170.9760  139.2210 C   0  0  0  0  0  2  0  0  0  0  0  0
  191.1440  172.6640  136.8670 C   0  0  0  0  0  2  0  0  0  0  0  0
  187.7660  175.9230  142.1050 C   0  0  0  0  0  0  0  0  0  0  0  0
  189.6750  176.0490  144.4480 C   0  0  0  0  0  2  0  0  0  0  0  0
  189.0930  172.9600  140.3920 N   0  0  0  0  0  0  0  0  0  0  0  0
  190.2530  173.7910  137.3750 C   0  0  0  0  0  2  0  0  0  0  0  0
  188.4320  174.7520  141.9070 N   0  0  0  0  0  0  0  0  0  0  0  0
  186.8410  177.7780  142.9390 C   0  0  0  0  0  3  0  0  0  0  0  0
  188.9390  173.2620  137.9560 C   0  0  2  0  0  3  0  0  0  0  0  0
  192.4880  172.6610  137.5930 C   0  0  0  0  0  2  0  0  0  0  0  0
  188.1670  176.2670  144.5980 C   0  0  2  0  0  3  0  0  0  0  0  0
  187.9310  174.9520  139.5390 C   0  0  0  0  0  0  0  0  0  0  0  0
  189.7600  171.1340  139.0490 N   0  0  0  0  0  2  0  0  0  0  0  0
  188.5130  174.2530  140.6300 C   0  0  0  0  0  0  0  0  0  0  0  0
  186.7330  176.2380  137.3870 C   0  0  0  0  0  3  0  0  0  0  0  0
  190.0750  174.7240  143.7740 C   0  0  0  0  0  2  0  0  0  0  0  0
  187.4480  175.0950  137.2030 N   0  0  0  0  0  0  0  0  0  0  0  0
  188.9490  173.9850  143.0420 C   0  0  0  0  0  2  0  0  0  0  0  0
  187.5860  176.6400  143.2630 C   0  0  0  0  0  0  0  0  0  0  0  0
  186.6040  176.7940  138.6630 C   0  0  0  0  0  3  0  0  0  0  0  0
  187.1360  176.6390  141.0420 C   0  0  0  0  0  0  0  0  0  0  0  0
  187.9010  177.3350  145.6500 C   0  0  0  0  0  2  0  0  0  0  0  0
  187.1810  176.7580  146.7740 N   0  0  0  0  0  2  0  0  0  0  0  0
  185.1060  179.4140  145.8470 O   0  0  0  0  0  0  0  0  0  0  0  0
  184.8170  177.1670  146.5130 C   0  0  0  0  0  2  0  0  0  0  0  0
  186.1000  177.6710  147.1030 C   0  0  2  0  0  3  0  0  0  0  0  0
  184.4340  178.2310  145.5120 C   0  0  0  0  0  2  0  0  0  0  0  0
  186.3200  178.9990  146.4110 C   0  0  0  0  0  2  0  0  0  0  0  0
  1 27  2  0  0  0  0
  2 14  2  0  0  0  0
  3  7  1  0  0  0  0
  4 18  1  0  0  0  0
  5 11  2  0  0  0  0
  7  6  1  0  0  0  0
  8 12  1  0  0  0  0
  8 16  1  0  0  0  0
  9 25  2  0  0  0  0
 10 17  1  0  0  0  0
 11 20  1  0  0  0  0
 13  9  1  0  0  0  0
 13 24  1  0  0  0  0
 14 25  1  0  0  0  0
 15 12  1  1  0  0  0
 15  4  1  0  0  0  0
 15  5  1  0  0  0  0
 16  3  1  0  0  0  0
 17 28  1  1  0  0  0
 18  1  1  0  0  0  0
 18 20  2  0  0  0  0
 19  5  1  0  0  0  0
 19  6  1  0  0  0  0
 20 13  1  0  0  0  0
 21 26  2  0  0  0  0
 22 10  1  0  0  0  0
 23 21  1  0  0  0  0
 23  4  2  0  0  0  0
 24 22  1  0  0  0  0
 25 17  1  0  0  0  0
 26  1  1  0  0  0  0
 27  2  1  0  0  0  0
 27  9  1  0  0  0  0
 28 29  1  0  0  0  0
 30 34  1  0  0  0  0
 31 32  1  0  0  0  0
 32 29  1  6  0  0  0
 33 30  1  0  0  0  0
 33 31  1  0  0  0  0
 34 32  1  0  0  0  0
M  END
>  <MODEL>
9

>  <REMARK>
 VINA RESULT:      -7.5      3.198      5.705
  Name = 
  3 active torsions:
  status: ('A' for Active; 'I' for Inactive)
    1  A    between atoms: C_17  and  C_28
    2  A    between atoms: C_28  and  N_29
    3  A    between atoms: N_29  and  C_32
                            x       y       z     vdW  Elec       q    Type
                         _______ _______ _______ _____ _____    ______ ____

>  <TORSDO>
F 3

$$$$
