=
 OpenBabel11112417393D

 28 32  0  0  1  0  0  0  0  0999 V2000
  190.6250  176.0080  144.9540 C   0  0  0  0  0  0  0  0  0  0  0  0
  185.6110  176.2740  145.8190 F   0  0  0  0  0  0  0  0  0  0  0  0
  188.7860  174.9640  140.4180 O   0  0  0  0  0  0  0  0  0  0  0  0
  191.2140  178.2960  143.5420 C   0  0  0  0  0  3  0  0  0  0  0  0
  187.2190  176.5560  141.3300 C   0  0  1  0  0  3  0  0  0  0  0  0
  190.2680  174.4640  145.7950 S   0  0  0  0  0  0  0  0  0  0  0  0
  186.7770  177.6940  147.2950 C   0  0  0  0  0  1  0  0  0  0  0  0
  186.1770  177.5370  145.9110 C   0  0  1  0  0  0  0  0  0  0  0  0
  184.4710  178.4840  144.3570 C   0  0  1  0  0  3  0  0  0  0  0  0
  187.2910  177.7340  144.8540 C   0  0  2  0  0  3  0  0  0  0  0  0
  191.0120  174.5890  142.4000 O   0  0  0  0  0  1  0  0  0  0  0  0
  187.4500  175.6400  143.6220 C   0  0  1  0  0  3  0  0  0  0  0  0
  185.5240  178.8570  143.3260 C   0  0  0  0  0  2  0  0  0  0  0  0
  185.0750  178.5780  145.7490 C   0  0  0  0  0  2  0  0  0  0  0  0
  190.3870  173.5430  143.0820 C   0  0  2  0  0  3  0  0  0  0  0  0
  189.5920  176.8150  144.4450 C   0  0  0  0  0  0  0  0  0  0  0  0
  188.1950  175.4500  141.4190 C   0  0  0  0  0  0  0  0  0  0  0  0
  183.3020  179.4390  144.2490 C   0  0  0  0  0  1  0  0  0  0  0  0
  188.8590  173.6090  143.0170 C   0  0  0  0  0  2  0  0  0  0  0  0
  189.9200  177.9310  143.7360 N   0  0  0  0  0  0  0  0  0  0  0  0
  191.9180  176.3910  144.7780 N   0  0  0  0  0  0  0  0  0  0  0  0
  192.2340  177.5150  144.0850 C   0  0  0  0  0  3  0  0  0  0  0  0
  190.9580  173.3700  144.4930 C   0  0  0  0  0  2  0  0  0  0  0  0
  186.6350  176.6170  142.7590 C   0  0  1  0  0  3  0  0  0  0  0  0
  188.3710  174.9550  142.7330 N   0  0  0  0  0  0  0  0  0  0  0  0
  186.7720  177.9780  143.4320 C   0  0  2  0  0  3  0  0  0  0  0  0
  187.8850  177.7340  140.9780 O   0  0  0  0  0  1  0  0  0  0  0  0
  188.1430  176.4740  144.7150 C   0  0  1  0  0  3  0  0  0  0  0  0
  1  6  1  0  0  0  0
  2  8  1  0  0  0  0
  3 17  2  0  0  0  0
  4 20  2  0  0  0  0
  4 22  1  0  0  0  0
  5 27  1  1  0  0  0
  5 17  1  0  0  0  0
  5 24  1  0  0  0  0
  8  7  1  1  0  0  0
  9 18  1  1  0  0  0
  9 14  1  0  0  0  0
 10  8  1  0  0  0  0
 11 15  1  0  0  0  0
 12 28  1  0  0  0  0
 13 26  1  0  0  0  0
 13  9  1  0  0  0  0
 14  8  1  0  0  0  0
 15 23  1  0  0  0  0
 16 28  1  0  0  0  0
 16  1  2  0  0  0  0
 17 25  1  0  0  0  0
 19 15  1  0  0  0  0
 20 16  1  0  0  0  0
 21  1  1  0  0  0  0
 22 21  2  0  0  0  0
 23  6  1  0  0  0  0
 24 26  1  0  0  0  0
 24 12  1  0  0  0  0
 25 19  1  0  0  0  0
 25 12  1  0  0  0  0
 26 10  1  0  0  0  0
 28 10  1  0  0  0  0
M  END
>  <MODEL>
1

>  <REMARK>
 VINA RESULT:      -8.4      0.000      0.000
  Name = 
  0 active torsions:
  status: ('A' for Active; 'I' for Inactive)
                            x       y       z     vdW  Elec       q    Type
                         _______ _______ _______ _____ _____    ______ ____

>  <TORSDO>
F 0

$$$$
=
 OpenBabel11112417393D

 28 32  0  0  1  0  0  0  0  0999 V2000
  191.3550  173.9700  142.9780 C   0  0  0  0  0  0  0  0  0  0  0  0
  188.7890  178.3340  142.4110 F   0  0  0  0  0  0  0  0  0  0  0  0
  192.3590  176.2720  147.3070 O   0  0  0  0  0  0  0  0  0  0  0  0
  189.8670  172.5120  144.7760 C   0  0  0  0  0  3  0  0  0  0  0  0
  190.1040  176.9570  146.7910 C   0  0  1  0  0  3  0  0  0  0  0  0
  192.3980  174.9210  141.8720 S   0  0  0  0  0  0  0  0  0  0  0  0
  187.7550  176.6070  141.1850 C   0  0  0  0  0  1  0  0  0  0  0  0
  187.9020  177.2750  142.5380 C   0  0  1  0  0  0  0  0  0  0  0  0
  186.6330  178.4700  144.3220 C   0  0  1  0  0  3  0  0  0  0  0  0
  188.4140  176.2310  143.5610 C   0  0  2  0  0  3  0  0  0  0  0  0
  193.2660  174.3440  145.1900 O   0  0  0  0  0  1  0  0  0  0  0  0
  190.5670  177.0460  144.3580 C   0  0  1  0  0  3  0  0  0  0  0  0
  186.9580  177.4040  145.3560 C   0  0  0  0  0  2  0  0  0  0  0  0
  186.5410  177.8240  142.9480 C   0  0  0  0  0  2  0  0  0  0  0  0
  193.7860  175.3290  144.3470 C   0  0  2  0  0  3  0  0  0  0  0  0
  190.2970  174.5730  143.6790 C   0  0  0  0  0  0  0  0  0  0  0  0
  191.4820  176.5510  146.4460 C   0  0  0  0  0  0  0  0  0  0  0  0
  185.3080  179.1150  144.6650 C   0  0  0  0  0  1  0  0  0  0  0  0
  193.0820  176.6800  144.4940 C   0  0  0  0  0  2  0  0  0  0  0  0
  189.5920  173.8270  144.5750 N   0  0  0  0  0  0  0  0  0  0  0  0
  191.6100  172.6470  143.1660 N   0  0  0  0  0  0  0  0  0  0  0  0
  190.8900  171.9060  144.0470 C   0  0  0  0  0  3  0  0  0  0  0  0
  193.9120  174.8290  142.9060 C   0  0  0  0  0  2  0  0  0  0  0  0
  189.5210  177.3950  145.4290 C   0  0  1  0  0  3  0  0  0  0  0  0
  191.7400  176.5510  145.0550 N   0  0  0  0  0  0  0  0  0  0  0  0
  188.2510  176.6550  145.0260 C   0  0  2  0  0  3  0  0  0  0  0  0
  189.4210  175.8640  147.3340 O   0  0  0  0  0  1  0  0  0  0  0  0
  189.9190  176.0140  143.4150 C   0  0  1  0  0  3  0  0  0  0  0  0
  1 21  2  0  0  0  0
  1 16  1  0  0  0  0
  2  8  1  0  0  0  0
  5 27  1  6  0  0  0
  6 23  1  0  0  0  0
  6  1  1  0  0  0  0
  8  7  1  6  0  0  0
  8 14  1  0  0  0  0
  8 10  1  0  0  0  0
  9 18  1  1  0  0  0
  9 13  1  0  0  0  0
 10 26  1  0  0  0  0
 12 25  1  0  0  0  0
 12 24  1  0  0  0  0
 14  9  1  0  0  0  0
 15 19  1  0  0  0  0
 15 11  1  0  0  0  0
 16 20  2  0  0  0  0
 17  5  1  0  0  0  0
 17  3  2  0  0  0  0
 19 25  1  0  0  0  0
 20  4  1  0  0  0  0
 21 22  1  0  0  0  0
 22  4  2  0  0  0  0
 23 15  1  0  0  0  0
 24  5  1  0  0  0  0
 25 17  1  0  0  0  0
 26 13  1  0  0  0  0
 26 24  1  0  0  0  0
 28 10  1  0  0  0  0
 28 16  1  0  0  0  0
 28 12  1  0  0  0  0
M  END
>  <MODEL>
2

>  <REMARK>
 VINA RESULT:      -8.4      2.635      4.501
  Name = 
  0 active torsions:
  status: ('A' for Active; 'I' for Inactive)
                            x       y       z     vdW  Elec       q    Type
                         _______ _______ _______ _____ _____    ______ ____

>  <TORSDO>
F 0

$$$$
=
 OpenBabel11112417393D

 28 32  0  0  1  0  0  0  0  0999 V2000
  189.8490  176.6830  145.3630 C   0  0  0  0  0  0  0  0  0  0  0  0
  194.7630  175.8590  144.3000 F   0  0  0  0  0  0  0  0  0  0  0  0
  189.5440  172.7470  142.2870 O   0  0  0  0  0  0  0  0  0  0  0  0
  189.1550  174.6480  147.0810 C   0  0  0  0  0  3  0  0  0  0  0  0
  191.5920  172.3750  143.5080 C   0  0  1  0  0  3  0  0  0  0  0  0
  190.2370  177.9730  144.1780 S   0  0  0  0  0  0  0  0  0  0  0  0
  194.5350  176.8300  146.4340 C   0  0  0  0  0  1  0  0  0  0  0  0
  194.5050  175.5480  145.6260 C   0  0  1  0  0  0  0  0  0  0  0  0
  195.5970  173.3180  145.3800 C   0  0  1  0  0  3  0  0  0  0  0  0
  193.1170  174.8820  145.7900 C   0  0  2  0  0  3  0  0  0  0  0  0
  188.2510  175.2400  143.3510 O   0  0  0  0  0  1  0  0  0  0  0  0
  192.1280  174.7950  143.5660 C   0  0  1  0  0  3  0  0  0  0  0  0
  194.3040  172.5800  145.6890 C   0  0  0  0  0  2  0  0  0  0  0  0
  195.6150  174.6360  146.1380 C   0  0  0  0  0  2  0  0  0  0  0  0
  188.9040  176.1000  142.4650 C   0  0  2  0  0  3  0  0  0  0  0  0
  190.7200  175.5990  145.5700 C   0  0  0  0  0  0  0  0  0  0  0  0
  190.5550  173.2170  142.8740 C   0  0  0  0  0  0  0  0  0  0  0  0
  196.7740  172.4710  145.8130 C   0  0  0  0  0  1  0  0  0  0  0  0
  190.2690  175.5750  142.0130 C   0  0  0  0  0  2  0  0  0  0  0  0
  190.3370  174.6000  146.4140 N   0  0  0  0  0  0  0  0  0  0  0  0
  188.6780  176.7370  146.0520 N   0  0  0  0  0  0  0  0  0  0  0  0
  188.3120  175.7460  146.9050 C   0  0  0  0  0  3  0  0  0  0  0  0
  188.9140  177.5410  142.9820 C   0  0  0  0  0  2  0  0  0  0  0  0
  192.6920  173.3980  143.8700 C   0  0  1  0  0  3  0  0  0  0  0  0
  190.8290  174.6030  142.9470 N   0  0  0  0  0  0  0  0  0  0  0  0
  193.0680  173.4140  145.3470 C   0  0  2  0  0  3  0  0  0  0  0  0
  191.0540  171.7510  144.6380 O   0  0  0  0  0  1  0  0  0  0  0  0
  192.0760  175.5610  144.9010 C   0  0  1  0  0  3  0  0  0  0  0  0
  1 16  2  0  0  0  0
  1 21  1  0  0  0  0
  2  8  1  0  0  0  0
  3 17  2  0  0  0  0
  5 24  1  0  0  0  0
  5 27  1  1  0  0  0
  6  1  1  0  0  0  0
  8 10  1  0  0  0  0
  8 14  1  0  0  0  0
  8  7  1  1  0  0  0
  9 13  1  0  0  0  0
  9 18  1  1  0  0  0
  9 14  1  0  0  0  0
 12 24  1  0  0  0  0
 12 28  1  0  0  0  0
 15 23  1  0  0  0  0
 15 11  1  0  0  0  0
 16 20  1  0  0  0  0
 17 25  1  0  0  0  0
 17  5  1  0  0  0  0
 19 15  1  0  0  0  0
 19 25  1  0  0  0  0
 20  4  2  0  0  0  0
 21 22  2  0  0  0  0
 22  4  1  0  0  0  0
 23  6  1  0  0  0  0
 24 26  1  0  0  0  0
 25 12  1  0  0  0  0
 26 13  1  0  0  0  0
 26 10  1  0  0  0  0
 28 16  1  0  0  0  0
 28 10  1  0  0  0  0
M  END
>  <MODEL>
3

>  <REMARK>
 VINA RESULT:      -7.6      3.387      6.900
  Name = 
  0 active torsions:
  status: ('A' for Active; 'I' for Inactive)
                            x       y       z     vdW  Elec       q    Type
                         _______ _______ _______ _____ _____    ______ ____

>  <TORSDO>
F 0

$$$$
=
 OpenBabel11112417393D

 28 32  0  0  1  0  0  0  0  0999 V2000
  193.6220  174.3740  144.2610 C   0  0  0  0  0  0  0  0  0  0  0  0
  189.4350  174.7010  147.1440 F   0  0  0  0  0  0  0  0  0  0  0  0
  190.2050  172.2580  141.2780 O   0  0  0  0  0  0  0  0  0  0  0  0
  193.2800  176.2860  142.3120 C   0  0  0  0  0  3  0  0  0  0  0  0
  188.9770  173.9760  142.4450 C   0  0  1  0  0  3  0  0  0  0  0  0
  193.8430  173.0590  145.4600 S   0  0  0  0  0  0  0  0  0  0  0  0
  190.9230  176.4550  147.6540 C   0  0  0  0  0  1  0  0  0  0  0  0
  189.8260  175.9650  146.7300 C   0  0  1  0  0  0  0  0  0  0  0  0
  187.5240  176.4800  145.9170 C   0  0  1  0  0  3  0  0  0  0  0  0
  190.3650  175.9410  145.2780 C   0  0  2  0  0  3  0  0  0  0  0  0
  193.0820  172.4120  142.1290 O   0  0  0  0  0  1  0  0  0  0  0  0
  190.2540  173.6230  144.5400 C   0  0  1  0  0  3  0  0  0  0  0  0
  187.9970  176.6310  144.4800 C   0  0  0  0  0  2  0  0  0  0  0  0
  188.6370  176.9100  146.8590 C   0  0  0  0  0  2  0  0  0  0  0  0
  192.9340  171.5370  143.2070 C   0  0  2  0  0  3  0  0  0  0  0  0
  192.3800  175.0130  144.1020 C   0  0  0  0  0  0  0  0  0  0  0  0
  190.0300  172.9470  142.3180 C   0  0  0  0  0  0  0  0  0  0  0  0
  186.3080  177.3520  146.1400 C   0  0  0  0  0  1  0  0  0  0  0  0
  191.5220  171.5450  143.8000 C   0  0  0  0  0  2  0  0  0  0  0  0
  192.2410  175.9420  143.1160 N   0  0  0  0  0  0  0  0  0  0  0  0
  194.6650  174.7400  143.4690 N   0  0  0  0  0  0  0  0  0  0  0  0
  194.5220  175.6810  142.5000 C   0  0  0  0  0  3  0  0  0  0  0  0
  194.0570  171.7110  144.2330 C   0  0  0  0  0  2  0  0  0  0  0  0
  189.0390  174.3510  143.9430 C   0  0  1  0  0  3  0  0  0  0  0  0
  190.7980  172.7750  143.4950 N   0  0  0  0  0  0  0  0  0  0  0  0
  189.2740  175.8340  144.2050 C   0  0  2  0  0  3  0  0  0  0  0  0
  189.2830  175.0570  141.6130 O   0  0  0  0  0  1  0  0  0  0  0  0
  191.2300  174.7060  145.0360 C   0  0  1  0  0  3  0  0  0  0  0  0
  1  6  1  0  0  0  0
  3 17  2  0  0  0  0
  4 22  2  0  0  0  0
  4 20  1  0  0  0  0
  5 27  1  6  0  0  0
  5 24  1  0  0  0  0
  8 14  1  0  0  0  0
  8  2  1  0  0  0  0
  8  7  1  1  0  0  0
  9 18  1  6  0  0  0
  9 14  1  0  0  0  0
 10  8  1  0  0  0  0
 11 15  1  0  0  0  0
 12 28  1  0  0  0  0
 13  9  1  0  0  0  0
 15 19  1  0  0  0  0
 15 23  1  0  0  0  0
 16  1  1  0  0  0  0
 16 28  1  0  0  0  0
 17  5  1  0  0  0  0
 17 25  1  0  0  0  0
 20 16  2  0  0  0  0
 21  1  2  0  0  0  0
 22 21  1  0  0  0  0
 23  6  1  0  0  0  0
 24 26  1  0  0  0  0
 24 12  1  0  0  0  0
 25 19  1  0  0  0  0
 25 12  1  0  0  0  0
 26 13  1  0  0  0  0
 26 10  1  0  0  0  0
 28 10  1  0  0  0  0
M  END
>  <MODEL>
4

>  <REMARK>
 VINA RESULT:      -7.2      2.385      3.562
  Name = 
  0 active torsions:
  status: ('A' for Active; 'I' for Inactive)
                            x       y       z     vdW  Elec       q    Type
                         _______ _______ _______ _____ _____    ______ ____

>  <TORSDO>
F 0

$$$$
=
 OpenBabel11112417393D

 28 32  0  0  1  0  0  0  0  0999 V2000
  192.7120  173.6840  142.5200 C   0  0  0  0  0  0  0  0  0  0  0  0
  189.4400  177.5260  143.2190 F   0  0  0  0  0  0  0  0  0  0  0  0
  194.5670  175.8190  146.6500 O   0  0  0  0  0  0  0  0  0  0  0  0
  192.0650  171.8520  144.4690 C   0  0  0  0  0  3  0  0  0  0  0  0
  192.1810  176.1090  146.8650 C   0  0  1  0  0  3  0  0  0  0  0  0
  193.2220  174.8890  141.2930 S   0  0  0  0  0  0  0  0  0  0  0  0
  188.3780  175.7290  142.1260 C   0  0  0  0  0  1  0  0  0  0  0  0
  188.8080  176.3150  143.4560 C   0  0  1  0  0  0  0  0  0  0  0  0
  187.9460  177.1240  145.6530 C   0  0  1  0  0  3  0  0  0  0  0  0
  189.7550  175.3140  144.1630 C   0  0  2  0  0  3  0  0  0  0  0  0
  195.1050  174.2480  144.1470 O   0  0  0  0  0  1  0  0  0  0  0  0
  191.8900  176.4550  144.4270 C   0  0  1  0  0  3  0  0  0  0  0  0
  188.7240  176.0660  146.4200 C   0  0  0  0  0  2  0  0  0  0  0  0
  187.5580  176.5720  144.2900 C   0  0  0  0  0  2  0  0  0  0  0  0
  195.1930  175.3700  143.3200 C   0  0  2  0  0  3  0  0  0  0  0  0
  191.8250  174.0300  143.5550 C   0  0  0  0  0  0  0  0  0  0  0  0
  193.4440  175.9910  146.1060 C   0  0  0  0  0  0  0  0  0  0  0  0
  186.6960  177.4860  146.4250 C   0  0  0  0  0  1  0  0  0  0  0  0
  194.3590  176.5530  143.8180 C   0  0  0  0  0  2  0  0  0  0  0  0
  191.5410  173.1040  144.5130 N   0  0  0  0  0  0  0  0  0  0  0  0
  193.2150  172.4210  142.4680 N   0  0  0  0  0  0  0  0  0  0  0  0
  192.9120  171.4990  143.4180 C   0  0  0  0  0  3  0  0  0  0  0  0
  194.9670  175.0050  141.8500 C   0  0  0  0  0  2  0  0  0  0  0  0
  191.1640  176.5270  145.7800 C   0  0  1  0  0  3  0  0  0  0  0  0
  193.2790  176.1370  144.7070 N   0  0  0  0  0  0  0  0  0  0  0  0
  189.9640  175.5950  145.6570 C   0  0  2  0  0  3  0  0  0  0  0  0
  191.8680  174.8720  147.4370 O   0  0  0  0  0  1  0  0  0  0  0  0
  191.1650  175.3910  143.5820 C   0  0  1  0  0  3  0  0  0  0  0  0
  1 16  1  0  0  0  0
  2  8  1  0  0  0  0
  4 20  1  0  0  0  0
  5 27  1  6  0  0  0
  6 23  1  0  0  0  0
  6  1  1  0  0  0  0
  8  7  1  6  0  0  0
  8 10  1  0  0  0  0
  8 14  1  0  0  0  0
  9 13  1  0  0  0  0
  9 18  1  1  0  0  0
 10 26  1  0  0  0  0
 12 25  1  0  0  0  0
 12 24  1  0  0  0  0
 14  9  1  0  0  0  0
 15 19  1  0  0  0  0
 15 11  1  0  0  0  0
 16 28  1  0  0  0  0
 16 20  2  0  0  0  0
 17  3  2  0  0  0  0
 17  5  1  0  0  0  0
 19 25  1  0  0  0  0
 21  1  2  0  0  0  0
 21 22  1  0  0  0  0
 22  4  2  0  0  0  0
 23 15  1  0  0  0  0
 24  5  1  0  0  0  0
 25 17  1  0  0  0  0
 26 24  1  0  0  0  0
 26 13  1  0  0  0  0
 28 10  1  0  0  0  0
 28 12  1  0  0  0  0
M  END
>  <MODEL>
5

>  <REMARK>
 VINA RESULT:      -7.2      3.295      5.394
  Name = 
  0 active torsions:
  status: ('A' for Active; 'I' for Inactive)
                            x       y       z     vdW  Elec       q    Type
                         _______ _______ _______ _____ _____    ______ ____

>  <TORSDO>
F 0

$$$$
=
 OpenBabel11112417393D

 28 32  0  0  1  0  0  0  0  0999 V2000
  195.5200  172.5400  143.1440 C   0  0  0  0  0  0  0  0  0  0  0  0
  190.6880  174.1370  143.3850 F   0  0  0  0  0  0  0  0  0  0  0  0
  196.1330  177.3590  144.3490 O   0  0  0  0  0  0  0  0  0  0  0  0
  196.3380  172.3900  145.7670 C   0  0  0  0  0  3  0  0  0  0  0  0
  194.1040  176.7270  145.4910 C   0  0  1  0  0  3  0  0  0  0  0  0
  195.0540  172.7090  141.4200 S   0  0  0  0  0  0  0  0  0  0  0  0
  190.8240  171.8450  143.9150 C   0  0  0  0  0  1  0  0  0  0  0  0
  190.9530  173.2650  144.4310 C   0  0  1  0  0  0  0  0  0  0  0  0
  190.0240  174.8770  146.0920 C   0  0  1  0  0  3  0  0  0  0  0  0
  192.3830  173.4710  144.9870 C   0  0  2  0  0  3  0  0  0  0  0  0
  197.2370  174.9300  142.9710 O   0  0  0  0  0  1  0  0  0  0  0  0
  193.3980  175.2310  143.6450 C   0  0  1  0  0  3  0  0  0  0  0  0
  191.3620  175.0170  146.8000 C   0  0  0  0  0  2  0  0  0  0  0  0
  189.9050  173.4740  145.5170 C   0  0  0  0  0  2  0  0  0  0  0  0
  196.5340  175.1390  141.7820 C   0  0  2  0  0  3  0  0  0  0  0  0
  194.7250  173.0840  144.1690 C   0  0  0  0  0  0  0  0  0  0  0  0
  195.0850  176.6610  144.3880 C   0  0  0  0  0  0  0  0  0  0  0  0
  188.9040  175.1120  147.0830 C   0  0  0  0  0  1  0  0  0  0  0  0
  195.2140  175.8860  141.9860 C   0  0  0  0  0  2  0  0  0  0  0  0
  195.1690  173.0070  145.4550 N   0  0  0  0  0  0  0  0  0  0  0  0
  196.6770  171.9030  143.4660 N   0  0  0  0  0  0  0  0  0  0  0  0
  197.1030  171.8150  144.7520 C   0  0  0  0  0  3  0  0  0  0  0  0
  196.4170  173.8510  140.9630 C   0  0  0  0  0  2  0  0  0  0  0  0
  192.9310  175.8730  144.9610 C   0  0  1  0  0  3  0  0  0  0  0  0
  194.7140  175.7700  143.3530 N   0  0  0  0  0  0  0  0  0  0  0  0
  192.5400  174.7140  145.8720 C   0  0  2  0  0  3  0  0  0  0  0  0
  194.6720  176.1870  146.6490 O   0  0  0  0  0  1  0  0  0  0  0  0
  193.3820  173.7060  143.8560 C   0  0  1  0  0  3  0  0  0  0  0  0
  1 21  2  0  0  0  0
  1 16  1  0  0  0  0
  2  8  1  0  0  0  0
  3 17  2  0  0  0  0
  5 27  1  1  0  0  0
  6  1  1  0  0  0  0
  8  7  1  6  0  0  0
  8 10  1  0  0  0  0
  8 14  1  0  0  0  0
  9 13  1  0  0  0  0
  9 18  1  1  0  0  0
 10 26  1  0  0  0  0
 12 28  1  0  0  0  0
 12 24  1  0  0  0  0
 14  9  1  0  0  0  0
 15 19  1  0  0  0  0
 15 11  1  0  0  0  0
 16 20  2  0  0  0  0
 17  5  1  0  0  0  0
 19 25  1  0  0  0  0
 20  4  1  0  0  0  0
 21 22  1  0  0  0  0
 22  4  2  0  0  0  0
 23  6  1  0  0  0  0
 23 15  1  0  0  0  0
 24  5  1  0  0  0  0
 24 26  1  0  0  0  0
 25 12  1  0  0  0  0
 25 17  1  0  0  0  0
 26 13  1  0  0  0  0
 28 16  1  0  0  0  0
 28 10  1  0  0  0  0
M  END
>  <MODEL>
6

>  <REMARK>
 VINA RESULT:      -6.8      5.054      7.081
  Name = 
  0 active torsions:
  status: ('A' for Active; 'I' for Inactive)
                            x       y       z     vdW  Elec       q    Type
                         _______ _______ _______ _____ _____    ______ ____

>  <TORSDO>
F 0

$$$$
=
 OpenBabel11112417393D

 28 32  0  0  1  0  0  0  0  0999 V2000
  194.4310  175.6760  143.1900 C   0  0  0  0  0  0  0  0  0  0  0  0
  190.0420  177.0030  145.4100 F   0  0  0  0  0  0  0  0  0  0  0  0
  192.4300  171.1950  144.1720 O   0  0  0  0  0  0  0  0  0  0  0  0
  193.7090  174.7940  140.6850 C   0  0  0  0  0  3  0  0  0  0  0  0
  190.5250  172.5850  143.6610 C   0  0  1  0  0  3  0  0  0  0  0  0
  194.9340  176.1590  144.8420 S   0  0  0  0  0  0  0  0  0  0  0  0
  190.7300  178.6650  143.8880 C   0  0  0  0  0  1  0  0  0  0  0  0
  190.0150  177.3400  144.0650 C   0  0  1  0  0  0  0  0  0  0  0  0
  187.8170  176.2020  143.7600 C   0  0  1  0  0  3  0  0  0  0  0  0
  190.7230  176.2680  143.2010 C   0  0  2  0  0  3  0  0  0  0  0  0
  194.9200  172.8370  143.8130 O   0  0  0  0  0  1  0  0  0  0  0  0
  191.5410  174.5700  144.7430 C   0  0  1  0  0  3  0  0  0  0  0  0
  188.3990  175.2010  142.7740 C   0  0  0  0  0  2  0  0  0  0  0  0
  188.5630  177.5200  143.6360 C   0  0  0  0  0  2  0  0  0  0  0  0
  194.9420  173.3060  145.1280 C   0  0  2  0  0  3  0  0  0  0  0  0
  193.0780  175.4600  142.8750 C   0  0  0  0  0  0  0  0  0  0  0  0
  191.8810  172.3280  144.1910 C   0  0  0  0  0  0  0  0  0  0  0  0
  186.3520  176.4210  143.4460 C   0  0  0  0  0  1  0  0  0  0  0  0
  193.5520  173.3890  145.7630 C   0  0  0  0  0  2  0  0  0  0  0  0
  192.7580  175.0060  141.6300 N   0  0  0  0  0  0  0  0  0  0  0  0
  195.3770  175.4840  142.2310 N   0  0  0  0  0  0  0  0  0  0  0  0
  195.0470  175.0500  140.9880 C   0  0  0  0  0  3  0  0  0  0  0  0
  195.7780  174.5830  145.2570 C   0  0  0  0  0  2  0  0  0  0  0  0
  190.2430  174.0330  144.1190 C   0  0  1  0  0  3  0  0  0  0  0  0
  192.4890  173.4700  144.7660 N   0  0  0  0  0  0  0  0  0  0  0  0
  189.9000  174.9910  142.9850 C   0  0  2  0  0  3  0  0  0  0  0  0
  190.5420  172.4630  142.2680 O   0  0  0  0  0  1  0  0  0  0  0  0
  191.9930  175.7650  143.8840 C   0  0  1  0  0  3  0  0  0  0  0  0
  1  6  1  0  0  0  0
  3 17  2  0  0  0  0
  4 22  2  0  0  0  0
  4 20  1  0  0  0  0
  5 27  1  6  0  0  0
  5 24  1  0  0  0  0
  5 17  1  0  0  0  0
  6 23  1  0  0  0  0
  8  7  1  6  0  0  0
  8  2  1  0  0  0  0
  9 18  1  6  0  0  0
 10 28  1  0  0  0  0
 10  8  1  0  0  0  0
 11 15  1  0  0  0  0
 12 25  1  0  0  0  0
 13 26  1  0  0  0  0
 13  9  1  0  0  0  0
 14  9  1  0  0  0  0
 14  8  1  0  0  0  0
 15 23  1  0  0  0  0
 15 19  1  0  0  0  0
 16  1  1  0  0  0  0
 16 28  1  0  0  0  0
 17 25  1  0  0  0  0
 20 16  2  0  0  0  0
 21  1  2  0  0  0  0
 22 21  1  0  0  0  0
 24 12  1  0  0  0  0
 25 19  1  0  0  0  0
 26 10  1  0  0  0  0
 26 24  1  0  0  0  0
 28 12  1  0  0  0  0
M  END
>  <MODEL>
7

>  <REMARK>
 VINA RESULT:      -6.7      3.011      4.816
  Name = 
  0 active torsions:
  status: ('A' for Active; 'I' for Inactive)
                            x       y       z     vdW  Elec       q    Type
                         _______ _______ _______ _____ _____    ______ ____

>  <TORSDO>
F 0

$$$$
=
 OpenBabel11112417393D

 28 32  0  0  1  0  0  0  0  0999 V2000
  195.4360  175.5850  142.0280 C   0  0  0  0  0  0  0  0  0  0  0  0
  192.5930  176.9060  146.0440 F   0  0  0  0  0  0  0  0  0  0  0  0
  196.0800  171.6350  145.0330 O   0  0  0  0  0  0  0  0  0  0  0  0
  193.9770  173.6320  140.7510 C   0  0  0  0  0  3  0  0  0  0  0  0
  193.8060  172.3240  145.4560 C   0  0  1  0  0  3  0  0  0  0  0  0
  196.4570  176.7910  142.8780 S   0  0  0  0  0  0  0  0  0  0  0  0
  191.7410  177.8830  144.0760 C   0  0  0  0  0  1  0  0  0  0  0  0
  191.7790  176.6460  144.9510 C   0  0  1  0  0  0  0  0  0  0  0  0
  190.3500  175.1120  146.3020 C   0  0  1  0  0  3  0  0  0  0  0  0
  192.3190  175.4570  144.1180 C   0  0  2  0  0  3  0  0  0  0  0  0
  197.2150  173.3960  142.8820 O   0  0  0  0  0  1  0  0  0  0  0  0
  194.3700  174.7260  145.2080 C   0  0  1  0  0  3  0  0  0  0  0  0
  190.7040  173.9140  145.4340 C   0  0  0  0  0  2  0  0  0  0  0  0
  190.3650  176.3710  145.4500 C   0  0  0  0  0  2  0  0  0  0  0  0
  197.7010  174.3640  143.7640 C   0  0  2  0  0  3  0  0  0  0  0  0
  194.3070  175.0210  142.6480 C   0  0  0  0  0  0  0  0  0  0  0  0
  195.2240  172.5570  145.1100 C   0  0  0  0  0  0  0  0  0  0  0  0
  188.9680  174.9160  146.8880 C   0  0  0  0  0  1  0  0  0  0  0  0
  196.8960  174.4520  145.0630 C   0  0  0  0  0  2  0  0  0  0  0  0
  193.6190  174.0440  141.9940 N   0  0  0  0  0  0  0  0  0  0  0  0
  195.7760  175.1860  140.7730 N   0  0  0  0  0  0  0  0  0  0  0  0
  195.0720  174.2240  140.1220 C   0  0  0  0  0  3  0  0  0  0  0  0
  197.9260  175.7050  143.0620 C   0  0  0  0  0  2  0  0  0  0  0  0
  193.2550  173.7570  145.6350 C   0  0  1  0  0  3  0  0  0  0  0  0
  195.5430  173.9220  144.9170 N   0  0  0  0  0  0  0  0  0  0  0  0
  192.0600  174.0820  144.7460 C   0  0  2  0  0  3  0  0  0  0  0  0
  193.1800  171.6420  144.4080 O   0  0  0  0  0  1  0  0  0  0  0  0
  193.8400  175.5180  143.9990 C   0  0  1  0  0  3  0  0  0  0  0  0
  1 16  1  0  0  0  0
  1  6  1  0  0  0  0
  3 17  2  0  0  0  0
  4 20  1  0  0  0  0
  5 27  1  6  0  0  0
  5 24  1  0  0  0  0
  6 23  1  0  0  0  0
  8  7  1  6  0  0  0
  8 14  1  0  0  0  0
  8  2  1  0  0  0  0
  9 18  1  6  0  0  0
 10 26  1  0  0  0  0
 10  8  1  0  0  0  0
 11 15  1  0  0  0  0
 12 24  1  0  0  0  0
 13  9  1  0  0  0  0
 14  9  1  0  0  0  0
 15 19  1  0  0  0  0
 16 28  1  0  0  0  0
 17  5  1  0  0  0  0
 20 16  2  0  0  0  0
 21  1  2  0  0  0  0
 22  4  2  0  0  0  0
 22 21  1  0  0  0  0
 23 15  1  0  0  0  0
 25 19  1  0  0  0  0
 25 17  1  0  0  0  0
 25 12  1  0  0  0  0
 26 13  1  0  0  0  0
 26 24  1  0  0  0  0
 28 10  1  0  0  0  0
 28 12  1  0  0  0  0
M  END
>  <MODEL>
8

>  <REMARK>
 VINA RESULT:      -6.7      4.814      7.008
  Name = 
  0 active torsions:
  status: ('A' for Active; 'I' for Inactive)
                            x       y       z     vdW  Elec       q    Type
                         _______ _______ _______ _____ _____    ______ ____

>  <TORSDO>
F 0

$$$$
=
 OpenBabel11112417393D

 28 32  0  0  1  0  0  0  0  0999 V2000
  195.3290  175.0230  144.3710 C   0  0  0  0  0  0  0  0  0  0  0  0
  191.5710  174.9160  147.8080 F   0  0  0  0  0  0  0  0  0  0  0  0
  192.4290  171.3740  142.5470 O   0  0  0  0  0  0  0  0  0  0  0  0
  194.2150  176.2130  142.1530 C   0  0  0  0  0  3  0  0  0  0  0  0
  190.8640  172.9300  143.5220 C   0  0  1  0  0  3  0  0  0  0  0  0
  196.0670  174.1660  145.7630 S   0  0  0  0  0  0  0  0  0  0  0  0
  192.4960  177.0790  147.6690 C   0  0  0  0  0  1  0  0  0  0  0  0
  191.5100  176.0920  147.0750 C   0  0  1  0  0  0  0  0  0  0  0  0
  189.0900  175.7380  146.5880 C   0  0  1  0  0  3  0  0  0  0  0  0
  191.8740  175.8490  145.5900 C   0  0  2  0  0  3  0  0  0  0  0  0
  195.1940  172.5160  142.8280 O   0  0  0  0  0  1  0  0  0  0  0  0
  192.4010  173.4800  145.3880 C   0  0  1  0  0  3  0  0  0  0  0  0
  189.3390  175.6440  145.0910 C   0  0  0  0  0  2  0  0  0  0  0  0
  190.1100  176.6790  147.2090 C   0  0  0  0  0  2  0  0  0  0  0  0
  195.4350  171.9350  144.0760 C   0  0  2  0  0  3  0  0  0  0  0  0
  193.9410  175.2390  144.3010 C   0  0  0  0  0  0  0  0  0  0  0  0
  192.1620  172.2290  143.4330 C   0  0  0  0  0  0  0  0  0  0  0  0
  187.6950  176.2730  146.8330 C   0  0  0  0  0  1  0  0  0  0  0  0
  194.1590  171.7080  144.8910 C   0  0  0  0  0  2  0  0  0  0  0  0
  193.4220  175.8140  143.1810 N   0  0  0  0  0  0  0  0  0  0  0  0
  196.1200  175.4470  143.3490 N   0  0  0  0  0  0  0  0  0  0  0  0
  195.5950  176.0360  142.2440 C   0  0  0  0  0  3  0  0  0  0  0  0
  196.5520  172.6620  144.8290 C   0  0  0  0  0  2  0  0  0  0  0  0
  190.9660  173.6740  144.8730 C   0  0  1  0  0  3  0  0  0  0  0  0
  193.0650  172.5760  144.4660 N   0  0  0  0  0  0  0  0  0  0  0  0
  190.7620  175.1820  144.7710 C   0  0  2  0  0  3  0  0  0  0  0  0
  190.7360  173.8070  142.4410 O   0  0  0  0  0  1  0  0  0  0  0  0
  193.0450  174.8760  145.4650 C   0  0  1  0  0  3  0  0  0  0  0  0
  1  6  1  0  0  0  0
  3 17  2  0  0  0  0
  4 22  2  0  0  0  0
  4 20  1  0  0  0  0
  5 27  1  6  0  0  0
  5 24  1  0  0  0  0
  8 14  1  0  0  0  0
  8  7  1  1  0  0  0
  8  2  1  0  0  0  0
  9 18  1  6  0  0  0
  9 14  1  0  0  0  0
 10  8  1  0  0  0  0
 11 15  1  0  0  0  0
 12 28  1  0  0  0  0
 13  9  1  0  0  0  0
 15 23  1  0  0  0  0
 15 19  1  0  0  0  0
 16  1  1  0  0  0  0
 16 28  1  0  0  0  0
 17  5  1  0  0  0  0
 17 25  1  0  0  0  0
 20 16  2  0  0  0  0
 21  1  2  0  0  0  0
 22 21  1  0  0  0  0
 23  6  1  0  0  0  0
 24 12  1  0  0  0  0
 25 19  1  0  0  0  0
 25 12  1  0  0  0  0
 26 24  1  0  0  0  0
 26 13  1  0  0  0  0
 26 10  1  0  0  0  0
 28 10  1  0  0  0  0
M  END
>  <MODEL>
9

>  <REMARK>
 VINA RESULT:      -6.6      3.599      5.320
  Name = 
  0 active torsions:
  status: ('A' for Active; 'I' for Inactive)
                            x       y       z     vdW  Elec       q    Type
                         _______ _______ _______ _____ _____    ______ ____

>  <TORSDO>
F 0

$$$$
