=
 OpenBabel11112417183D

 37 43  0  0  1  0  0  0  0  0999 V2000
  191.0210  173.0550  142.8840 C   0  0  0  0  0  2  0  0  0  0  0  0
  194.6770  176.7710  144.9630 S   0  0  0  0  0  0  0  0  0  0  0  0
  190.7000  175.2910  145.6860 C   0  0  0  0  0  0  0  0  0  0  0  0
  191.7920  172.0770  141.9890 C   0  0  2  0  0  3  0  0  0  0  0  0
  188.0300  174.9900  143.1870 N   0  0  0  0  0  0  0  0  0  0  0  0
  192.8920  175.5780  146.6490 C   0  0  0  0  0  0  0  0  0  0  0  0
  190.0460  175.3190  144.4260 N   0  0  0  0  0  0  0  0  0  0  0  0
  190.0100  172.6200  140.2620 C   0  0  0  0  0  0  0  0  0  0  0  0
  192.0510  175.4160  145.5480 C   0  0  0  0  0  0  0  0  0  0  0  0
  188.6380  175.5240  144.2070 C   0  0  0  0  0  0  0  0  0  0  0  0
  192.3280  175.5010  147.9320 C   0  0  0  0  0  3  0  0  0  0  0  0
  191.3770  172.0660  140.5110 C   0  0  0  0  0  2  0  0  0  0  0  0
  192.4390  175.4900  144.1180 C   0  0  2  0  0  3  0  0  0  0  0  0
  195.8500  176.1710  144.2420 O   0  0  0  0  0  0  0  0  0  0  0  0
  188.6460  174.9750  147.1090 C   0  0  0  0  0  2  0  0  0  0  0  0
  190.9400  175.3030  148.0830 C   0  0  0  0  0  3  0  0  0  0  0  0
  193.2470  176.7570  143.8810 C   0  0  0  0  0  2  0  0  0  0  0  0
  189.8310  174.1080  140.1970 C   0  0  0  0  0  2  0  0  0  0  0  0
  188.6420  174.2610  142.1830 O   0  0  0  0  0  0  0  0  0  0  0  0
  190.1100  175.2070  146.9510 C   0  0  0  0  0  0  0  0  0  0  0  0
  191.0720  175.5350  143.3990 C   0  0  1  0  0  3  0  0  0  0  0  0
  194.3590  175.8220  146.4570 C   0  0  0  0  0  2  0  0  0  0  0  0
  187.8320  176.3300  145.1620 C   0  0  0  0  0  0  0  0  0  0  0  0
  194.9950  178.1900  145.3360 O   0  0  0  0  0  0  0  0  0  0  0  0
  189.7610  174.7340  141.5220 N   0  0  1  0  0  0  0  0  0  0  0  0
  189.0470  171.8770  140.1830 O   0  0  0  0  0  0  0  0  0  0  0  0
  190.9790  174.4810  142.3060 C   0  0  2  0  0  3  0  0  0  0  0  0
  187.8590  176.0780  146.4780 C   0  0  0  0  0  3  0  0  0  0  0  0
  187.3250  178.1460  143.4930 C   0  0  0  0  0  3  0  0  0  0  0  0
  186.9740  177.4340  144.6540 C   0  0  0  0  0  0  0  0  0  0  0  0
  185.7830  177.7730  145.3170 C   0  0  0  0  0  3  0  0  0  0  0  0
  183.7940  179.1240  145.5050 O   0  0  0  0  0  1  0  0  0  0  0  0
  185.3290  179.5020  143.6860 C   0  0  0  0  0  3  0  0  0  0  0  0
  184.9670  178.8010  144.8370 C   0  0  0  0  0  0  0  0  0  0  0  0
  186.5090  179.1740  143.0120 C   0  0  0  0  0  3  0  0  0  0  0  0
  192.4150  170.5780  143.8820 C   0  0  0  0  0  1  0  0  0  0  0  0
  191.6920  170.6700  142.5520 C   0  0  0  0  0  2  0  0  0  0  0  0
  2 24  2  0  0  0  0
  2 22  1  0  0  0  0
  3 20  1  0  0  0  0
  4 37  1  1  0  0  0
  4  1  1  0  0  0  0
  5 10  2  0  0  0  0
  6 11  2  0  0  0  0
  7  3  1  0  0  0  0
  8 12  1  0  0  0  0
  9  3  2  0  0  0  0
  9  6  1  0  0  0  0
 10  7  1  0  0  0  0
 10 23  1  0  0  0  0
 11 16  1  0  0  0  0
 12  4  1  0  0  0  0
 13 17  1  1  0  0  0
 13  9  1  0  0  0  0
 14  2  2  0  0  0  0
 17  2  1  0  0  0  0
 18  8  1  0  0  0  0
 19  5  1  0  0  0  0
 20 15  1  0  0  0  0
 20 16  2  0  0  0  0
 21 13  1  0  0  0  0
 21  7  1  1  0  0  0
 22  6  1  0  0  0  0
 23 28  2  0  0  0  0
 25 18  1  6  0  0  0
 25 19  1  0  0  0  0
 25 27  1  0  0  0  0
 26  8  2  0  0  0  0
 27  1  1  1  0  0  0
 27 21  1  0  0  0  0
 28 15  1  0  0  0  0
 29 30  1  0  0  0  0
 30 23  1  0  0  0  0
 30 31  2  0  0  0  0
 33 34  2  0  0  0  0
 34 31  1  0  0  0  0
 34 32  1  0  0  0  0
 35 29  2  0  0  0  0
 35 33  1  0  0  0  0
 37 36  1  0  0  0  0
M  END
>  <MODEL>
1

>  <REMARK>
 VINA RESULT:      -9.0      0.000      0.000
  Name = 
  2 active torsions:
  status: ('A' for Active; 'I' for Inactive)
    1  A    between atoms: C_4  and  C_37
    2  A    between atoms: C_23  and  C_30
                            x       y       z     vdW  Elec       q    Type
                         _______ _______ _______ _____ _____    ______ ____

>  <TORSDO>
F 2

$$$$
=
 OpenBabel11112417183D

 37 43  0  0  1  0  0  0  0  0999 V2000
  191.9570  171.8450  143.3450 C   0  0  0  0  0  2  0  0  0  0  0  0
  195.3930  176.1050  144.5900 S   0  0  0  0  0  0  0  0  0  0  0  0
  191.3280  174.8430  145.2350 C   0  0  0  0  0  0  0  0  0  0  0  0
  192.8160  170.6510  142.9100 C   0  0  2  0  0  3  0  0  0  0  0  0
  188.9910  173.7110  142.6420 N   0  0  0  0  0  0  0  0  0  0  0  0
  193.3860  175.4660  146.3270 C   0  0  0  0  0  0  0  0  0  0  0  0
  190.8400  174.4580  143.9580 N   0  0  0  0  0  0  0  0  0  0  0  0
  191.2780  170.5840  140.8890 C   0  0  0  0  0  0  0  0  0  0  0  0
  192.6880  174.9470  145.2360 C   0  0  0  0  0  0  0  0  0  0  0  0
  189.4750  174.5530  143.5100 C   0  0  0  0  0  0  0  0  0  0  0  0
  192.6620  175.7850  147.4860 C   0  0  0  0  0  3  0  0  0  0  0  0
  192.5920  170.1660  141.4700 C   0  0  0  0  0  2  0  0  0  0  0  0
  193.2550  174.5750  143.9160 C   0  0  2  0  0  3  0  0  0  0  0  0
  196.6360  175.3340  144.2490 O   0  0  0  0  0  0  0  0  0  0  0  0
  189.1050  174.9480  146.4130 C   0  0  0  0  0  2  0  0  0  0  0  0
  191.2630  175.6160  147.5150 C   0  0  0  0  0  3  0  0  0  0  0  0
  194.1110  175.7190  143.3960 C   0  0  0  0  0  2  0  0  0  0  0  0
  191.1380  171.9710  140.3360 C   0  0  0  0  0  2  0  0  0  0  0  0
  189.7110  172.7170  142.0060 O   0  0  0  0  0  0  0  0  0  0  0  0
  190.5810  175.1490  146.3770 C   0  0  0  0  0  0  0  0  0  0  0  0
  191.9910  174.3610  143.0540 C   0  0  1  0  0  3  0  0  0  0  0  0
  194.8700  175.6690  146.2550 C   0  0  0  0  0  2  0  0  0  0  0  0
  188.5710  175.6010  144.0520 C   0  0  0  0  0  0  0  0  0  0  0  0
  195.6890  177.5750  144.5330 O   0  0  0  0  0  0  0  0  0  0  0  0
  190.9140  172.9810  141.3760 N   0  0  1  0  0  0  0  0  0  0  0  0
  190.3190  169.8330  140.9270 O   0  0  0  0  0  0  0  0  0  0  0  0
  192.0170  173.0150  142.3470 C   0  0  2  0  0  3  0  0  0  0  0  0
  188.4260  175.7780  145.3730 C   0  0  0  0  0  3  0  0  0  0  0  0
  188.4440  177.1090  142.0390 C   0  0  0  0  0  3  0  0  0  0  0  0
  187.8050  176.4700  143.1170 C   0  0  0  0  0  0  0  0  0  0  0  0
  186.4230  176.6530  143.2860 C   0  0  0  0  0  3  0  0  0  0  0  0
  184.3310  177.6270  142.5840 O   0  0  0  0  0  1  0  0  0  0  0  0
  186.3440  178.0890  141.3390 C   0  0  0  0  0  3  0  0  0  0  0  0
  185.6970  177.4580  142.4030 C   0  0  0  0  0  0  0  0  0  0  0  0
  187.7180  177.9140  141.1570 C   0  0  0  0  0  3  0  0  0  0  0  0
  193.0040  168.1820  143.2090 C   0  0  0  0  0  1  0  0  0  0  0  0
  192.6190  169.4920  143.8710 C   0  0  0  0  0  2  0  0  0  0  0  0
  2 22  1  0  0  0  0
  3  9  2  0  0  0  0
  3 20  1  0  0  0  0
  4  1  1  0  0  0  0
  4 37  1  1  0  0  0
  5 10  2  0  0  0  0
  6 11  2  0  0  0  0
  7  3  1  0  0  0  0
  8 26  2  0  0  0  0
  8 12  1  0  0  0  0
  9  6  1  0  0  0  0
 10  7  1  0  0  0  0
 10 23  1  0  0  0  0
 11 16  1  0  0  0  0
 12  4  1  0  0  0  0
 13 17  1  6  0  0  0
 13  9  1  0  0  0  0
 14  2  2  0  0  0  0
 17  2  1  0  0  0  0
 18  8  1  0  0  0  0
 19  5  1  0  0  0  0
 20 15  1  0  0  0  0
 20 16  2  0  0  0  0
 21 13  1  0  0  0  0
 21  7  1  1  0  0  0
 22  6  1  0  0  0  0
 23 28  2  0  0  0  0
 24  2  2  0  0  0  0
 25 18  1  6  0  0  0
 25 19  1  0  0  0  0
 25 27  1  0  0  0  0
 27 21  1  0  0  0  0
 27  1  1  1  0  0  0
 28 15  1  0  0  0  0
 29 30  1  0  0  0  0
 30 31  2  0  0  0  0
 30 23  1  0  0  0  0
 33 34  2  0  0  0  0
 34 32  1  0  0  0  0
 34 31  1  0  0  0  0
 35 33  1  0  0  0  0
 35 29  2  0  0  0  0
 36 37  1  0  0  0  0
M  END
>  <MODEL>
2

>  <REMARK>
 VINA RESULT:      -8.4      1.535      1.848
  Name = 
  2 active torsions:
  status: ('A' for Active; 'I' for Inactive)
    1  A    between atoms: C_4  and  C_37
    2  A    between atoms: C_23  and  C_30
                            x       y       z     vdW  Elec       q    Type
                         _______ _______ _______ _____ _____    ______ ____

>  <TORSDO>
F 2

$$$$
=
 OpenBabel11112417183D

 37 43  0  0  1  0  0  0  0  0999 V2000
  191.9230  171.9570  141.3330 C   0  0  0  0  0  2  0  0  0  0  0  0
  195.8540  175.6500  142.8860 S   0  0  0  0  0  0  0  0  0  0  0  0
  191.9250  174.3260  144.0430 C   0  0  0  0  0  0  0  0  0  0  0  0
  192.5810  170.9150  140.4200 C   0  0  2  0  0  3  0  0  0  0  0  0
  189.0260  173.9930  141.8170 N   0  0  0  0  0  0  0  0  0  0  0  0
  194.2040  174.5900  144.7840 C   0  0  0  0  0  0  0  0  0  0  0  0
  191.1570  174.3170  142.8480 N   0  0  0  0  0  0  0  0  0  0  0  0
  190.6610  171.4340  138.8400 C   0  0  0  0  0  0  0  0  0  0  0  0
  193.2600  174.4040  143.7740 C   0  0  0  0  0  0  0  0  0  0  0  0
  189.7400  174.5540  142.7500 C   0  0  0  0  0  0  0  0  0  0  0  0
  193.7600  174.5880  146.1160 C   0  0  0  0  0  3  0  0  0  0  0  0
  192.0300  170.8500  138.9880 C   0  0  0  0  0  2  0  0  0  0  0  0
  193.5140  174.4010  142.3130 C   0  0  2  0  0  3  0  0  0  0  0  0
  196.9380  174.9820  142.0890 O   0  0  0  0  0  0  0  0  0  0  0  0
  190.0050  174.1380  145.6620 C   0  0  0  0  0  2  0  0  0  0  0  0
  192.3880  174.4410  146.4030 C   0  0  0  0  0  3  0  0  0  0  0  0
  194.3290  175.6300  141.9420 C   0  0  0  0  0  2  0  0  0  0  0  0
  190.5150  172.9220  138.7200 C   0  0  0  0  0  2  0  0  0  0  0  0
  189.5220  173.2010  140.7980 O   0  0  0  0  0  0  0  0  0  0  0  0
  191.4530  174.3180  145.3590 C   0  0  0  0  0  0  0  0  0  0  0  0
  192.0870  174.4550  141.7210 C   0  0  1  0  0  3  0  0  0  0  0  0
  195.6520  174.7800  144.4470 C   0  0  0  0  0  2  0  0  0  0  0  0
  189.0480  175.4270  143.7350 C   0  0  0  0  0  0  0  0  0  0  0  0
  196.2430  177.0740  143.1590 O   0  0  0  0  0  0  0  0  0  0  0  0
  190.5870  173.6090  140.0140 N   0  0  1  0  0  0  0  0  0  0  0  0
  189.6760  170.7180  138.8860 O   0  0  0  0  0  0  0  0  0  0  0  0
  191.8650  173.3550  140.6940 C   0  0  2  0  0  3  0  0  0  0  0  0
  189.1920  175.2350  145.0540 C   0  0  0  0  0  3  0  0  0  0  0  0
  188.6110  177.4110  142.2460 C   0  0  0  0  0  3  0  0  0  0  0  0
  188.1760  176.5330  143.2560 C   0  0  0  0  0  0  0  0  0  0  0  0
  186.8890  176.7080  143.7930 C   0  0  0  0  0  3  0  0  0  0  0  0
  184.7930  177.8970  143.8780 O   0  0  0  0  0  1  0  0  0  0  0  0
  186.5060  178.6030  142.3370 C   0  0  0  0  0  3  0  0  0  0  0  0
  186.0610  177.7380  143.3370 C   0  0  0  0  0  0  0  0  0  0  0  0
  187.7820  178.4400  141.7910 C   0  0  0  0  0  3  0  0  0  0  0  0
  191.2230  169.4050  141.8670 C   0  0  0  0  0  1  0  0  0  0  0  0
  192.4980  169.5390  141.0570 C   0  0  0  0  0  2  0  0  0  0  0  0
  2 24  2  0  0  0  0
  2 22  1  0  0  0  0
  3 20  1  0  0  0  0
  4 37  1  1  0  0  0
  4  1  1  0  0  0  0
  5 10  2  0  0  0  0
  6 11  2  0  0  0  0
  7  3  1  0  0  0  0
  8 26  2  0  0  0  0
  8 12  1  0  0  0  0
  9  3  2  0  0  0  0
  9  6  1  0  0  0  0
 10  7  1  0  0  0  0
 10 23  1  0  0  0  0
 11 16  1  0  0  0  0
 12  4  1  0  0  0  0
 13 17  1  1  0  0  0
 13  9  1  0  0  0  0
 14  2  2  0  0  0  0
 17  2  1  0  0  0  0
 18  8  1  0  0  0  0
 19  5  1  0  0  0  0
 20 15  1  0  0  0  0
 20 16  2  0  0  0  0
 21 13  1  0  0  0  0
 21  7  1  1  0  0  0
 22  6  1  0  0  0  0
 23 28  2  0  0  0  0
 25 18  1  6  0  0  0
 25 27  1  0  0  0  0
 25 19  1  0  0  0  0
 27  1  1  1  0  0  0
 27 21  1  0  0  0  0
 28 15  1  0  0  0  0
 29 30  1  0  0  0  0
 30 23  1  0  0  0  0
 30 31  2  0  0  0  0
 33 34  2  0  0  0  0
 34 31  1  0  0  0  0
 34 32  1  0  0  0  0
 35 29  2  0  0  0  0
 35 33  1  0  0  0  0
 37 36  1  0  0  0  0
M  END
>  <MODEL>
3

>  <REMARK>
 VINA RESULT:      -8.0      1.783      2.229
  Name = 
  2 active torsions:
  status: ('A' for Active; 'I' for Inactive)
    1  A    between atoms: C_4  and  C_37
    2  A    between atoms: C_23  and  C_30
                            x       y       z     vdW  Elec       q    Type
                         _______ _______ _______ _____ _____    ______ ____

>  <TORSDO>
F 2

$$$$
=
 OpenBabel11112417183D

 37 43  0  0  1  0  0  0  0  0999 V2000
  193.4430  175.7700  143.1460 C   0  0  0  0  0  2  0  0  0  0  0  0
  191.4460  170.6320  142.0890 S   0  0  0  0  0  0  0  0  0  0  0  0
  190.1490  174.7370  142.1270 C   0  0  0  0  0  0  0  0  0  0  0  0
  194.9750  175.7020  143.1120 C   0  0  2  0  0  3  0  0  0  0  0  0
  190.6230  177.1160  144.8800 N   0  0  0  0  0  0  0  0  0  0  0  0
  190.3900  172.7670  140.7560 C   0  0  0  0  0  0  0  0  0  0  0  0
  190.5890  175.2650  143.3690 N   0  0  0  0  0  0  0  0  0  0  0  0
  194.8400  176.8650  145.3670 C   0  0  0  0  0  0  0  0  0  0  0  0
  190.7720  173.5570  141.8410 C   0  0  0  0  0  0  0  0  0  0  0  0
  189.9390  176.3060  144.1250 C   0  0  0  0  0  0  0  0  0  0  0  0
  189.4090  173.2660  139.8850 C   0  0  0  0  0  3  0  0  0  0  0  0
  195.6810  176.0580  144.4290 C   0  0  0  0  0  2  0  0  0  0  0  0
  191.7620  173.2060  142.8880 C   0  0  2  0  0  3  0  0  0  0  0  0
  192.8110  170.0170  141.9690 O   0  0  0  0  0  0  0  0  0  0  0  0
  188.5550  176.5930  141.5320 C   0  0  0  0  0  2  0  0  0  0  0  0
  188.8090  174.5170  140.1380 C   0  0  0  0  0  3  0  0  0  0  0  0
  191.4490  171.8210  143.4320 C   0  0  0  0  0  2  0  0  0  0  0  0
  193.8250  176.1620  146.2190 C   0  0  0  0  0  2  0  0  0  0  0  0
  191.9840  177.0370  145.1120 O   0  0  0  0  0  0  0  0  0  0  0  0
  189.1720  175.2610  141.2750 C   0  0  0  0  0  0  0  0  0  0  0  0
  191.5370  174.3070  143.9490 C   0  0  1  0  0  3  0  0  0  0  0  0
  191.0200  171.4250  140.5320 C   0  0  0  0  0  2  0  0  0  0  0  0
  188.4680  176.5000  144.0360 C   0  0  0  0  0  0  0  0  0  0  0  0
  190.4410  169.5570  142.3880 O   0  0  0  0  0  0  0  0  0  0  0  0
  192.5870  175.8520  145.4950 N   0  0  1  0  0  0  0  0  0  0  0  0
  194.9310  178.0800  145.3880 O   0  0  0  0  0  0  0  0  0  0  0  0
  192.8400  174.9930  144.3300 C   0  0  2  0  0  3  0  0  0  0  0  0
  187.8530  176.6130  142.8500 C   0  0  0  0  0  3  0  0  0  0  0  0
  188.1390  176.0410  146.4900 C   0  0  0  0  0  3  0  0  0  0  0  0
  187.6580  176.5760  145.2820 C   0  0  0  0  0  0  0  0  0  0  0  0
  186.4010  177.2040  145.2770 C   0  0  0  0  0  3  0  0  0  0  0  0
  184.4020  177.9130  146.4240 O   0  0  0  0  0  1  0  0  0  0  0  0
  186.1300  176.7510  147.6390 C   0  0  0  0  0  3  0  0  0  0  0  0
  185.6420  177.2890  146.4470 C   0  0  0  0  0  0  0  0  0  0  0  0
  187.3800  176.1260  147.6610 C   0  0  0  0  0  3  0  0  0  0  0  0
  196.8210  176.0360  141.4690 C   0  0  0  0  0  1  0  0  0  0  0  0
  195.5090  176.5840  141.9970 C   0  0  0  0  0  2  0  0  0  0  0  0
  2 24  2  0  0  0  0
  2 17  1  0  0  0  0
  3  7  1  0  0  0  0
  4 37  1  6  0  0  0
  4  1  1  0  0  0  0
  4 12  1  0  0  0  0
  5 19  1  0  0  0  0
  6  9  2  0  0  0  0
  7 10  1  0  0  0  0
  8 26  2  0  0  0  0
  8 18  1  0  0  0  0
  9  3  1  0  0  0  0
  9 13  1  0  0  0  0
 10  5  2  0  0  0  0
 11 16  2  0  0  0  0
 11  6  1  0  0  0  0
 12  8  1  0  0  0  0
 13 17  1  1  0  0  0
 13 21  1  0  0  0  0
 14  2  2  0  0  0  0
 15 28  1  0  0  0  0
 16 20  1  0  0  0  0
 19 25  1  0  0  0  0
 20 15  1  0  0  0  0
 20  3  2  0  0  0  0
 21  7  1  6  0  0  0
 21 27  1  0  0  0  0
 22  6  1  0  0  0  0
 22  2  1  0  0  0  0
 23 10  1  0  0  0  0
 23 30  1  0  0  0  0
 25 18  1  6  0  0  0
 27  1  1  6  0  0  0
 27 25  1  0  0  0  0
 28 23  2  0  0  0  0
 29 35  1  0  0  0  0
 30 29  2  0  0  0  0
 31 30  1  0  0  0  0
 31 34  2  0  0  0  0
 32 34  1  0  0  0  0
 33 35  2  0  0  0  0
 34 33  1  0  0  0  0
 36 37  1  0  0  0  0
M  END
>  <MODEL>
4

>  <REMARK>
 VINA RESULT:      -7.9      2.293      5.693
  Name = 
  2 active torsions:
  status: ('A' for Active; 'I' for Inactive)
    1  A    between atoms: C_4  and  C_37
    2  A    between atoms: C_23  and  C_30
                            x       y       z     vdW  Elec       q    Type
                         _______ _______ _______ _____ _____    ______ ____

>  <TORSDO>
F 2

$$$$
=
 OpenBabel11112417183D

 37 43  0  0  1  0  0  0  0  0999 V2000
  195.4500  173.6680  142.6500 C   0  0  0  0  0  2  0  0  0  0  0  0
  194.8530  168.9160  145.5760 S   0  0  0  0  0  0  0  0  0  0  0  0
  192.5260  171.6390  143.1870 C   0  0  0  0  0  0  0  0  0  0  0  0
  196.9450  173.8780  142.3810 C   0  0  2  0  0  3  0  0  0  0  0  0
  192.4030  175.2840  143.5870 N   0  0  0  0  0  0  0  0  0  0  0  0
  193.2540  169.3500  143.4070 C   0  0  0  0  0  0  0  0  0  0  0  0
  192.8310  172.9350  143.6790 N   0  0  0  0  0  0  0  0  0  0  0  0
  196.5450  176.2060  143.3150 C   0  0  0  0  0  0  0  0  0  0  0  0
  193.4320  170.7170  143.6240 C   0  0  0  0  0  0  0  0  0  0  0  0
  191.9440  174.0700  143.6840 C   0  0  0  0  0  0  0  0  0  0  0  0
  192.1620  168.9390  142.6260 C   0  0  0  0  0  3  0  0  0  0  0  0
  197.5540  175.1500  142.9880 C   0  0  0  0  0  2  0  0  0  0  0  0
  194.4960  171.3540  144.4380 C   0  0  2  0  0  3  0  0  0  0  0  0
  196.3290  168.6460  145.6290 O   0  0  0  0  0  0  0  0  0  0  0  0
  190.4920  172.2720  141.8450 C   0  0  0  0  0  2  0  0  0  0  0  0
  191.2590  169.8940  142.1140 C   0  0  0  0  0  3  0  0  0  0  0  0
  194.5650  170.6730  145.7960 C   0  0  0  0  0  2  0  0  0  0  0  0
  195.7640  176.0920  144.5910 C   0  0  0  0  0  2  0  0  0  0  0  0
  193.7400  175.6330  143.5530 O   0  0  0  0  0  0  0  0  0  0  0  0
  191.4320  171.2590  142.4030 C   0  0  0  0  0  0  0  0  0  0  0  0
  194.0070  172.8150  144.5490 C   0  0  1  0  0  3  0  0  0  0  0  0
  194.2100  168.3550  143.9940 C   0  0  0  0  0  2  0  0  0  0  0  0
  190.4720  173.8790  143.7690 C   0  0  0  0  0  0  0  0  0  0  0  0
  194.1700  168.1660  146.6830 O   0  0  0  0  0  0  0  0  0  0  0  0
  194.6390  175.1550  144.4900 N   0  0  1  0  0  0  0  0  0  0  0  0
  196.3150  177.1050  142.5260 O   0  0  0  0  0  0  0  0  0  0  0  0
  195.0900  173.8010  144.1400 C   0  0  2  0  0  3  0  0  0  0  0  0
  189.8300  173.0470  142.9370 C   0  0  0  0  0  3  0  0  0  0  0  0
  189.6920  174.2230  146.1390 C   0  0  0  0  0  3  0  0  0  0  0  0
  189.6900  174.6260  144.7910 C   0  0  0  0  0  0  0  0  0  0  0  0
  188.9470  175.7630  144.4290 C   0  0  0  0  0  3  0  0  0  0  0  0
  187.4930  177.5960  145.0130 O   0  0  0  0  0  1  0  0  0  0  0  0
  188.2300  176.0620  146.7210 C   0  0  0  0  0  3  0  0  0  0  0  0
  188.2210  176.4750  145.3880 C   0  0  0  0  0  0  0  0  0  0  0  0
  188.9660  174.9360  147.0980 C   0  0  0  0  0  3  0  0  0  0  0  0
  196.0050  174.3650  140.1220 C   0  0  0  0  0  1  0  0  0  0  0  0
  197.2120  173.8540  140.8850 C   0  0  0  0  0  2  0  0  0  0  0  0
  2 14  2  0  0  0  0
  2 17  1  0  0  0  0
  2 24  2  0  0  0  0
  3  9  1  0  0  0  0
  3  7  1  0  0  0  0
  4 37  1  6  0  0  0
  4  1  1  0  0  0  0
  4 12  1  0  0  0  0
  5 10  2  0  0  0  0
  6  9  2  0  0  0  0
  6 22  1  0  0  0  0
  7 10  1  0  0  0  0
  8 18  1  0  0  0  0
  9 13  1  0  0  0  0
 10 23  1  0  0  0  0
 11  6  1  0  0  0  0
 12  8  1  0  0  0  0
 13 21  1  0  0  0  0
 13 17  1  1  0  0  0
 15 20  1  0  0  0  0
 15 28  1  0  0  0  0
 16 20  1  0  0  0  0
 16 11  2  0  0  0  0
 19  5  1  0  0  0  0
 19 25  1  0  0  0  0
 20  3  2  0  0  0  0
 21  7  1  6  0  0  0
 22  2  1  0  0  0  0
 23 30  1  0  0  0  0
 25 18  1  6  0  0  0
 26  8  2  0  0  0  0
 27  1  1  6  0  0  0
 27 25  1  0  0  0  0
 27 21  1  0  0  0  0
 28 23  2  0  0  0  0
 29 35  1  0  0  0  0
 30 29  2  0  0  0  0
 31 30  1  0  0  0  0
 31 34  2  0  0  0  0
 32 34  1  0  0  0  0
 33 35  2  0  0  0  0
 34 33  1  0  0  0  0
 36 37  1  0  0  0  0
M  END
>  <MODEL>
5

>  <REMARK>
 VINA RESULT:      -7.8      3.524      6.170
  Name = 
  2 active torsions:
  status: ('A' for Active; 'I' for Inactive)
    1  A    between atoms: C_4  and  C_37
    2  A    between atoms: C_23  and  C_30
                            x       y       z     vdW  Elec       q    Type
                         _______ _______ _______ _____ _____    ______ ____

>  <TORSDO>
F 2

$$$$
=
 OpenBabel11112417183D

 37 43  0  0  1  0  0  0  0  0999 V2000
  192.7990  171.3260  143.1160 C   0  0  0  0  0  2  0  0  0  0  0  0
  196.1240  175.7240  142.0670 S   0  0  0  0  0  0  0  0  0  0  0  0
  192.8060  174.6160  144.5750 C   0  0  0  0  0  0  0  0  0  0  0  0
  193.4810  170.0690  142.5590 C   0  0  2  0  0  3  0  0  0  0  0  0
  189.6850  173.0490  143.4460 N   0  0  0  0  0  0  0  0  0  0  0  0
  195.0810  175.4150  144.5700 C   0  0  0  0  0  0  0  0  0  0  0  0
  191.8570  174.0110  143.7090 N   0  0  0  0  0  0  0  0  0  0  0  0
  191.2470  169.6480  141.4250 C   0  0  0  0  0  0  0  0  0  0  0  0
  194.0290  174.7130  143.9810 C   0  0  0  0  0  0  0  0  0  0  0  0
  190.4260  174.0300  143.8750 C   0  0  0  0  0  0  0  0  0  0  0  0
  194.8880  175.9400  145.8580 C   0  0  0  0  0  3  0  0  0  0  0  0
  192.7100  169.3360  141.4520 C   0  0  0  0  0  2  0  0  0  0  0  0
  194.0170  174.1080  142.6260 C   0  0  2  0  0  3  0  0  0  0  0  0
  197.1620  174.8990  141.3610 O   0  0  0  0  0  0  0  0  0  0  0  0
  191.2790  174.9400  146.5520 C   0  0  0  0  0  2  0  0  0  0  0  0
  193.6460  175.7840  146.5060 C   0  0  0  0  0  3  0  0  0  0  0  0
  194.4910  175.1370  141.6120 C   0  0  0  0  0  2  0  0  0  0  0  0
  190.7880  170.9150  140.7650 C   0  0  0  0  0  2  0  0  0  0  0  0
  190.1420  171.9530  142.7360 O   0  0  0  0  0  0  0  0  0  0  0  0
  192.5850  175.1250  145.8590 C   0  0  0  0  0  0  0  0  0  0  0  0
  192.5270  173.7490  142.4300 C   0  0  1  0  0  3  0  0  0  0  0  0
  196.3790  175.5960  143.8420 C   0  0  0  0  0  2  0  0  0  0  0  0
  189.7590  175.1620  144.5690 C   0  0  0  0  0  0  0  0  0  0  0  0
  196.2620  177.1600  141.6490 O   0  0  0  0  0  0  0  0  0  0  0  0
  190.9480  172.0960  141.6210 N   0  0  1  0  0  0  0  0  0  0  0  0
  190.4490  168.9210  141.9900 O   0  0  0  0  0  0  0  0  0  0  0  0
  192.3510  172.2980  142.0110 C   0  0  2  0  0  3  0  0  0  0  0  0
  190.1680  175.5730  145.7790 C   0  0  0  0  0  3  0  0  0  0  0  0
  187.5750  176.4100  144.6910 C   0  0  0  0  0  3  0  0  0  0  0  0
  188.6120  175.8540  143.9200 C   0  0  0  0  0  0  0  0  0  0  0  0
  188.5550  175.9790  142.5220 C   0  0  0  0  0  3  0  0  0  0  0  0
  187.4450  176.7530  140.5260 O   0  0  0  0  0  1  0  0  0  0  0  0
  186.4620  177.1830  142.6850 C   0  0  0  0  0  3  0  0  0  0  0  0
  187.4860  176.6380  141.9090 C   0  0  0  0  0  0  0  0  0  0  0  0
  186.5060  177.0700  144.0770 C   0  0  0  0  0  3  0  0  0  0  0  0
  194.4580  169.8250  144.8410 C   0  0  0  0  0  1  0  0  0  0  0  0
  193.7880  169.1010  143.6890 C   0  0  0  0  0  2  0  0  0  0  0  0
  2 22  1  0  0  0  0
  3 20  1  0  0  0  0
  4  1  1  0  0  0  0
  4 37  1  1  0  0  0
  5 10  2  0  0  0  0
  6 11  2  0  0  0  0
  7 10  1  0  0  0  0
  7  3  1  0  0  0  0
  8 12  1  0  0  0  0
  8 26  2  0  0  0  0
  9  6  1  0  0  0  0
  9  3  2  0  0  0  0
 10 23  1  0  0  0  0
 11 16  1  0  0  0  0
 12  4  1  0  0  0  0
 13 17  1  6  0  0  0
 13  9  1  0  0  0  0
 14  2  2  0  0  0  0
 17  2  1  0  0  0  0
 18  8  1  0  0  0  0
 19  5  1  0  0  0  0
 20 16  2  0  0  0  0
 20 15  1  0  0  0  0
 21 13  1  0  0  0  0
 21  7  1  1  0  0  0
 22  6  1  0  0  0  0
 23 28  2  0  0  0  0
 24  2  2  0  0  0  0
 25 18  1  6  0  0  0
 25 27  1  0  0  0  0
 25 19  1  0  0  0  0
 27 21  1  0  0  0  0
 27  1  1  1  0  0  0
 28 15  1  0  0  0  0
 30 23  1  0  0  0  0
 30 29  2  0  0  0  0
 31 30  1  0  0  0  0
 32 34  1  0  0  0  0
 33 35  2  0  0  0  0
 34 31  2  0  0  0  0
 34 33  1  0  0  0  0
 35 29  1  0  0  0  0
 37 36  1  0  0  0  0
M  END
>  <MODEL>
6

>  <REMARK>
 VINA RESULT:      -7.7      2.254      3.130
  Name = 
  2 active torsions:
  status: ('A' for Active; 'I' for Inactive)
    1  A    between atoms: C_4  and  C_37
    2  A    between atoms: C_23  and  C_30
                            x       y       z     vdW  Elec       q    Type
                         _______ _______ _______ _____ _____    ______ ____

>  <TORSDO>
F 2

$$$$
=
 OpenBabel11112417183D

 37 43  0  0  1  0  0  0  0  0999 V2000
  194.3070  174.9990  143.7060 C   0  0  0  0  0  2  0  0  0  0  0  0
  189.5450  176.8210  146.0540 S   0  0  0  0  0  0  0  0  0  0  0  0
  190.9990  173.5830  143.6170 C   0  0  0  0  0  0  0  0  0  0  0  0
  195.4800  175.7050  144.3970 C   0  0  2  0  0  3  0  0  0  0  0  0
  192.9980  173.9230  140.5590 N   0  0  0  0  0  0  0  0  0  0  0  0
  189.9080  174.1390  145.6950 C   0  0  0  0  0  0  0  0  0  0  0  0
  191.7510  174.1940  142.5790 N   0  0  0  0  0  0  0  0  0  0  0  0
  196.2280  176.2640  142.0350 C   0  0  0  0  0  0  0  0  0  0  0  0
  190.7610  174.4570  144.6370 C   0  0  0  0  0  0  0  0  0  0  0  0
  191.9150  173.6860  141.2410 C   0  0  0  0  0  0  0  0  0  0  0  0
  189.3720  172.8430  145.7480 C   0  0  0  0  0  3  0  0  0  0  0  0
  196.3440  176.5920  143.4900 C   0  0  0  0  0  2  0  0  0  0  0  0
  191.4060  175.7680  144.3820 C   0  0  2  0  0  3  0  0  0  0  0  0
  190.2490  177.7570  146.9930 O   0  0  0  0  0  0  0  0  0  0  0  0
  190.8150  171.2960  142.5810 C   0  0  0  0  0  2  0  0  0  0  0  0
  189.6680  171.9130  144.7300 C   0  0  0  0  0  3  0  0  0  0  0  0
  190.3570  176.8670  144.4550 C   0  0  0  0  0  2  0  0  0  0  0  0
  195.0550  176.7930  141.2640 C   0  0  0  0  0  2  0  0  0  0  0  0
  194.0470  174.7230  140.9760 O   0  0  0  0  0  0  0  0  0  0  0  0
  190.4820  172.2840  143.6450 C   0  0  0  0  0  0  0  0  0  0  0  0
  191.9640  175.5970  142.9510 C   0  0  1  0  0  3  0  0  0  0  0  0
  189.5820  175.1600  146.7430 C   0  0  0  0  0  2  0  0  0  0  0  0
  190.8580  172.8500  140.6130 C   0  0  0  0  0  0  0  0  0  0  0  0
  188.1190  177.2590  145.8920 O   0  0  0  0  0  0  0  0  0  0  0  0
  193.8360  176.0010  141.4630 N   0  0  1  0  0  0  0  0  0  0  0  0
  197.0350  175.5230  141.5020 O   0  0  0  0  0  0  0  0  0  0  0  0
  193.4380  175.9620  142.8780 C   0  0  2  0  0  3  0  0  0  0  0  0
  190.3580  171.7760  141.2420 C   0  0  0  0  0  3  0  0  0  0  0  0
  191.0500  172.8280  138.1030 C   0  0  0  0  0  3  0  0  0  0  0  0
  190.3450  173.2010  139.2610 C   0  0  0  0  0  0  0  0  0  0  0  0
  189.1340  173.8980  139.1180 C   0  0  0  0  0  3  0  0  0  0  0  0
  187.4430  174.9080  137.7270 O   0  0  0  0  0  1  0  0  0  0  0  0
  189.3530  173.8450  136.7090 C   0  0  0  0  0  3  0  0  0  0  0  0
  188.6410  174.2190  137.8500 C   0  0  0  0  0  0  0  0  0  0  0  0
  190.5580  173.1490  136.8340 C   0  0  0  0  0  3  0  0  0  0  0  0
  195.5630  173.4440  145.4460 C   0  0  0  0  0  1  0  0  0  0  0  0
  196.3620  174.6840  145.0950 C   0  0  0  0  0  2  0  0  0  0  0  0
  1  4  1  0  0  0  0
  2 22  1  0  0  0  0
  2 14  2  0  0  0  0
  3 20  2  0  0  0  0
  3  9  1  0  0  0  0
  4 37  1  6  0  0  0
  5 19  1  0  0  0  0
  5 10  2  0  0  0  0
  6 11  1  0  0  0  0
  6 22  1  0  0  0  0
  7  3  1  0  0  0  0
  8 12  1  0  0  0  0
  9  6  2  0  0  0  0
 10  7  1  0  0  0  0
 12  4  1  0  0  0  0
 13 17  1  6  0  0  0
 13  9  1  0  0  0  0
 15 20  1  0  0  0  0
 16 11  2  0  0  0  0
 17  2  1  0  0  0  0
 18  8  1  0  0  0  0
 19 25  1  0  0  0  0
 20 16  1  0  0  0  0
 21  7  1  1  0  0  0
 21 13  1  0  0  0  0
 23 10  1  0  0  0  0
 23 28  2  0  0  0  0
 24  2  2  0  0  0  0
 25 18  1  1  0  0  0
 25 27  1  0  0  0  0
 26  8  2  0  0  0  0
 27 21  1  0  0  0  0
 27  1  1  1  0  0  0
 28 15  1  0  0  0  0
 29 30  1  0  0  0  0
 30 23  1  0  0  0  0
 31 30  2  0  0  0  0
 32 34  1  0  0  0  0
 33 35  1  0  0  0  0
 33 34  2  0  0  0  0
 34 31  1  0  0  0  0
 35 29  2  0  0  0  0
 37 36  1  0  0  0  0
M  END
>  <MODEL>
7

>  <REMARK>
 VINA RESULT:      -7.6      3.079      6.120
  Name = 
  2 active torsions:
  status: ('A' for Active; 'I' for Inactive)
    1  A    between atoms: C_4  and  C_37
    2  A    between atoms: C_23  and  C_30
                            x       y       z     vdW  Elec       q    Type
                         _______ _______ _______ _____ _____    ______ ____

>  <TORSDO>
F 2

$$$$
=
 OpenBabel11112417183D

 37 43  0  0  1  0  0  0  0  0999 V2000
  193.9940  174.4530  141.5030 C   0  0  0  0  0  2  0  0  0  0  0  0
  191.7310  169.3320  141.1060 S   0  0  0  0  0  0  0  0  0  0  0  0
  190.5370  173.4600  141.3560 C   0  0  0  0  0  0  0  0  0  0  0  0
  195.4690  174.3550  141.0950 C   0  0  2  0  0  3  0  0  0  0  0  0
  191.7070  175.8900  143.8440 N   0  0  0  0  0  0  0  0  0  0  0  0
  190.4060  171.4570  140.0200 C   0  0  0  0  0  0  0  0  0  0  0  0
  191.2770  174.0080  142.4370 N   0  0  0  0  0  0  0  0  0  0  0  0
  195.9100  175.5700  143.2810 C   0  0  0  0  0  0  0  0  0  0  0  0
  191.0540  172.2630  140.9560 C   0  0  0  0  0  0  0  0  0  0  0  0
  190.8480  175.0770  143.3020 C   0  0  0  0  0  0  0  0  0  0  0  0
  189.2470  171.9550  139.4050 C   0  0  0  0  0  3  0  0  0  0  0  0
  196.4820  174.7270  142.1860 C   0  0  0  0  0  2  0  0  0  0  0  0
  192.2680  171.9170  141.7350 C   0  0  2  0  0  3  0  0  0  0  0  0
  193.0160  168.6890  140.6690 O   0  0  0  0  0  0  0  0  0  0  0  0
  188.8690  175.3330  141.1240 C   0  0  0  0  0  2  0  0  0  0  0  0
  188.7440  173.2220  139.7650 C   0  0  0  0  0  3  0  0  0  0  0  0
  192.0810  170.5500  142.3760 C   0  0  0  0  0  2  0  0  0  0  0  0
  195.1280  174.9050  144.3760 C   0  0  0  0  0  2  0  0  0  0  0  0
  193.0820  175.7900  143.7350 O   0  0  0  0  0  0  0  0  0  0  0  0
  189.3860  173.9830  140.7580 C   0  0  0  0  0  0  0  0  0  0  0  0
  192.3260  173.0450  142.7900 C   0  0  1  0  0  3  0  0  0  0  0  0
  190.9440  170.0980  139.6820 C   0  0  0  0  0  2  0  0  0  0  0  0
  189.4030  175.2960  143.5740 C   0  0  0  0  0  0  0  0  0  0  0  0
  190.8180  168.2830  141.6720 O   0  0  0  0  0  0  0  0  0  0  0  0
  193.7460  174.6030  143.9870 N   0  0  1  0  0  0  0  0  0  0  0  0
  196.0190  176.7840  143.2480 O   0  0  0  0  0  0  0  0  0  0  0  0
  193.6920  173.7140  142.8190 C   0  0  2  0  0  3  0  0  0  0  0  0
  188.5150  175.3950  142.5740 C   0  0  0  0  0  3  0  0  0  0  0  0
  189.3950  174.5420  145.9770 C   0  0  0  0  0  3  0  0  0  0  0  0
  188.9260  175.4160  144.9790 C   0  0  0  0  0  0  0  0  0  0  0  0
  188.0110  176.4190  145.3370 C   0  0  0  0  0  3  0  0  0  0  0  0
  186.6660  177.5410  146.9950 O   0  0  0  0  0  1  0  0  0  0  0  0
  188.0410  175.6680  147.6380 C   0  0  0  0  0  3  0  0  0  0  0  0
  187.5710  176.5440  146.6580 C   0  0  0  0  0  0  0  0  0  0  0  0
  188.9540  174.6660  147.2970 C   0  0  0  0  0  3  0  0  0  0  0  0
  197.1970  175.5360  139.7380 C   0  0  0  0  0  1  0  0  0  0  0  0
  195.7220  175.2030  139.8590 C   0  0  0  0  0  2  0  0  0  0  0  0
  2 24  2  0  0  0  0
  2 17  1  0  0  0  0
  3  7  1  0  0  0  0
  4 37  1  6  0  0  0
  4  1  1  0  0  0  0
  4 12  1  0  0  0  0
  6  9  2  0  0  0  0
  7 10  1  0  0  0  0
  8 18  1  0  0  0  0
  9  3  1  0  0  0  0
  9 13  1  0  0  0  0
 10 23  1  0  0  0  0
 10  5  2  0  0  0  0
 11 16  2  0  0  0  0
 11  6  1  0  0  0  0
 12  8  1  0  0  0  0
 13 17  1  1  0  0  0
 13 21  1  0  0  0  0
 14  2  2  0  0  0  0
 15 28  1  0  0  0  0
 16 20  1  0  0  0  0
 19  5  1  0  0  0  0
 19 25  1  0  0  0  0
 20 15  1  0  0  0  0
 20  3  2  0  0  0  0
 21  7  1  6  0  0  0
 21 27  1  0  0  0  0
 22  6  1  0  0  0  0
 22  2  1  0  0  0  0
 23 30  1  0  0  0  0
 25 18  1  6  0  0  0
 26  8  2  0  0  0  0
 27  1  1  6  0  0  0
 27 25  1  0  0  0  0
 28 23  2  0  0  0  0
 29 35  1  0  0  0  0
 30 31  1  0  0  0  0
 30 29  2  0  0  0  0
 31 34  2  0  0  0  0
 34 32  1  0  0  0  0
 34 33  1  0  0  0  0
 35 33  2  0  0  0  0
 36 37  1  0  0  0  0
M  END
>  <MODEL>
8

>  <REMARK>
 VINA RESULT:      -7.5      2.941      6.207
  Name = 
  2 active torsions:
  status: ('A' for Active; 'I' for Inactive)
    1  A    between atoms: C_4  and  C_37
    2  A    between atoms: C_23  and  C_30
                            x       y       z     vdW  Elec       q    Type
                         _______ _______ _______ _____ _____    ______ ____

>  <TORSDO>
F 2

$$$$
=
 OpenBabel11112417183D

 37 43  0  0  1  0  0  0  0  0999 V2000
  191.8420  172.8400  141.5770 C   0  0  0  0  0  2  0  0  0  0  0  0
  189.8600  175.4350  146.1430 S   0  0  0  0  0  0  0  0  0  0  0  0
  193.5960  174.1440  144.4370 C   0  0  0  0  0  0  0  0  0  0  0  0
  190.7570  172.8860  140.4940 C   0  0  2  0  0  3  0  0  0  0  0  0
  194.3210  170.7900  143.1350 N   0  0  0  0  0  0  0  0  0  0  0  0
  192.3630  176.0520  145.2460 C   0  0  0  0  0  0  0  0  0  0  0  0
  193.3890  172.7970  144.0380 N   0  0  0  0  0  0  0  0  0  0  0  0
  191.1600  170.3840  140.3190 C   0  0  0  0  0  0  0  0  0  0  0  0
  192.4120  174.7750  144.6860 C   0  0  0  0  0  0  0  0  0  0  0  0
  194.3900  171.7620  143.9990 C   0  0  0  0  0  0  0  0  0  0  0  0
  193.5730  176.7330  145.4530 C   0  0  0  0  0  3  0  0  0  0  0  0
  190.2310  171.5200  140.0280 C   0  0  0  0  0  2  0  0  0  0  0  0
  191.2600  173.8810  144.4130 C   0  0  2  0  0  3  0  0  0  0  0  0
  188.5270  175.7310  145.5180 O   0  0  0  0  0  0  0  0  0  0  0  0
  196.1080  174.1480  144.2720 C   0  0  0  0  0  2  0  0  0  0  0  0
  194.7970  176.1110  145.1350 C   0  0  0  0  0  3  0  0  0  0  0  0
  190.3880  173.7910  145.6560 C   0  0  0  0  0  2  0  0  0  0  0  0
  191.1740  169.7940  141.6980 C   0  0  0  0  0  2  0  0  0  0  0  0
  193.2850  170.5880  142.2410 O   0  0  0  0  0  0  0  0  0  0  0  0
  194.8160  174.7980  144.6300 C   0  0  0  0  0  0  0  0  0  0  0  0
  191.9460  172.5350  144.0890 C   0  0  1  0  0  3  0  0  0  0  0  0
  191.0480  176.6740  145.6080 C   0  0  0  0  0  2  0  0  0  0  0  0
  195.5490  171.7940  144.9300 C   0  0  0  0  0  0  0  0  0  0  0  0
  189.7310  175.4850  147.6370 O   0  0  0  0  0  0  0  0  0  0  0  0
  191.9640  170.5840  142.6500 N   0  0  1  0  0  0  0  0  0  0  0  0
  191.9400  169.9900  139.4690 O   0  0  0  0  0  0  0  0  0  0  0  0
  191.4500  171.9560  142.7740 C   0  0  2  0  0  3  0  0  0  0  0  0
  196.3100  172.8900  145.0530 C   0  0  0  0  0  3  0  0  0  0  0  0
  197.1910  170.0840  145.7780 C   0  0  0  0  0  3  0  0  0  0  0  0
  195.8790  170.5890  145.7380 C   0  0  0  0  0  0  0  0  0  0  0  0
  194.8850  169.9430  146.4920 C   0  0  0  0  0  3  0  0  0  0  0  0
  194.1990  168.1920  148.0020 O   0  0  0  0  0  1  0  0  0  0  0  0
  196.4990  168.3260  147.2910 C   0  0  0  0  0  3  0  0  0  0  0  0
  195.1930  168.8180  147.2630 C   0  0  0  0  0  0  0  0  0  0  0  0
  197.4990  168.9590  146.5490 C   0  0  0  0  0  3  0  0  0  0  0  0
  190.4410  173.3280  138.0600 C   0  0  0  0  0  1  0  0  0  0  0  0
  191.2530  173.6730  139.2940 C   0  0  0  0  0  2  0  0  0  0  0  0
  2 24  2  0  0  0  0
  3 20  2  0  0  0  0
  3  9  1  0  0  0  0
  4 37  1  6  0  0  0
  4  1  1  0  0  0  0
  5 10  2  0  0  0  0
  6 11  1  0  0  0  0
  6 22  1  0  0  0  0
  7  3  1  0  0  0  0
  8 18  1  0  0  0  0
  9  6  2  0  0  0  0
 10  7  1  0  0  0  0
 10 23  1  0  0  0  0
 12  8  1  0  0  0  0
 12  4  1  0  0  0  0
 13  9  1  0  0  0  0
 13 17  1  1  0  0  0
 14  2  2  0  0  0  0
 15 20  1  0  0  0  0
 15 28  1  0  0  0  0
 16 11  2  0  0  0  0
 17  2  1  0  0  0  0
 19 25  1  0  0  0  0
 19  5  1  0  0  0  0
 20 16  1  0  0  0  0
 21  7  1  6  0  0  0
 21 13  1  0  0  0  0
 22  2  1  0  0  0  0
 23 28  2  0  0  0  0
 23 30  1  0  0  0  0
 25 18  1  6  0  0  0
 25 27  1  0  0  0  0
 26  8  2  0  0  0  0
 27  1  1  6  0  0  0
 27 21  1  0  0  0  0
 29 35  1  0  0  0  0
 30 29  2  0  0  0  0
 30 31  1  0  0  0  0
 31 34  2  0  0  0  0
 34 33  1  0  0  0  0
 34 32  1  0  0  0  0
 35 33  2  0  0  0  0
 36 37  1  0  0  0  0
M  END
>  <MODEL>
9

>  <REMARK>
 VINA RESULT:      -7.5      3.739      7.642
  Name = 
  2 active torsions:
  status: ('A' for Active; 'I' for Inactive)
    1  A    between atoms: C_4  and  C_37
    2  A    between atoms: C_23  and  C_30
                            x       y       z     vdW  Elec       q    Type
                         _______ _______ _______ _____ _____    ______ ____

>  <TORSDO>
F 2

$$$$
