=
 OpenBabel11112416133D

 30 35  0  0  1  0  0  0  0  0999 V2000
  187.7450  176.5120  145.6520 C   0  0  0  0  0  0  0  0  0  0  0  0
  185.9170  177.4870  147.1580 C   0  0  0  0  0  0  0  0  0  0  0  0
  185.3780  177.5830  141.8810 S   0  0  0  0  0  0  0  0  0  0  0  0
  188.2370  176.2550  144.3500 C   0  0  0  0  0  0  0  0  0  0  0  0
  188.5270  176.0060  146.8340 C   0  0  0  0  0  2  0  0  0  0  0  0
  191.7730  175.8880  145.1670 O   0  0  0  0  0  0  0  0  0  0  0  0
  188.5880  174.0190  142.5100 C   0  0  1  0  0  3  0  0  0  0  0  0
  190.5230  175.8920  145.3280 C   0  0  0  0  0  0  0  0  0  0  0  0
  188.6490  175.1460  141.5160 C   0  0  1  0  0  3  0  0  0  0  0  0
  186.7220  176.7600  140.9400 C   0  0  1  0  0  3  0  0  0  0  0  0
  189.9610  176.1490  146.6230 N   0  0  0  0  0  0  0  0  0  0  0  0
  189.6220  175.6640  144.1440 C   0  0  1  0  0  3  0  0  0  0  0  0
  184.8300  178.5150  147.2820 C   0  0  0  0  0  2  0  0  0  0  0  0
  188.3050  174.4540  140.2170 C   0  0  0  0  0  2  0  0  0  0  0  0
  188.7760  172.7880  141.7630 N   0  0  0  0  0  2  0  0  0  0  0  0
  186.3370  176.9300  148.2060 O   0  0  0  0  0  0  0  0  0  0  0  0
  186.2480  177.2640  143.4090 C   0  0  0  0  0  0  0  0  0  0  0  0
  184.0120  178.6450  146.0280 C   0  0  0  0  0  3  0  0  0  0  0  0
  186.5020  177.1800  145.8230 C   0  0  0  0  0  0  0  0  0  0  0  0
  187.4360  176.5940  143.2390 C   0  0  0  0  0  0  0  0  0  0  0  0
  187.4020  177.7790  140.0450 C   0  0  0  0  0  1  0  0  0  0  0  0
  187.6910  176.2020  141.8850 N   0  0  0  0  0  0  0  0  0  0  0  0
  188.2360  173.0170  140.4820 N   0  0  0  0  0  2  0  0  0  0  0  0
  191.0040  173.7870  143.2010 C   0  0  0  0  0  1  0  0  0  0  0  0
  184.4600  178.2460  144.8370 C   0  0  0  0  0  3  0  0  0  0  0  0
  185.7670  177.5780  144.6840 C   0  0  0  0  0  0  0  0  0  0  0  0
  189.6050  174.2010  143.6510 C   0  0  2  0  0  3  0  0  0  0  0  0
  190.8100  176.3470  147.7870 C   0  0  0  0  0  2  0  0  0  0  0  0
  191.5230  177.9420  149.5390 C   0  0  0  0  0  1  0  0  0  0  0  0
  190.6730  177.7690  148.2980 C   0  0  0  0  0  2  0  0  0  0  0  0
  1 19  1  0  0  0  0
  1  5  1  0  0  0  0
  2 13  1  0  0  0  0
  2 16  2  0  0  0  0
  3 17  1  0  0  0  0
  4  1  2  0  0  0  0
  6  8  2  0  0  0  0
  7 15  1  6  0  0  0
  7 27  1  0  0  0  0
  8 11  1  0  0  0  0
  9 14  1  6  0  0  0
  9 22  1  0  0  0  0
  9  7  1  0  0  0  0
 10 21  1  6  0  0  0
 10  3  1  0  0  0  0
 10 22  1  0  0  0  0
 11  5  1  0  0  0  0
 11 28  1  0  0  0  0
 12  4  1  1  0  0  0
 12  8  1  0  0  0  0
 14 23  1  0  0  0  0
 17 26  1  0  0  0  0
 18 13  1  0  0  0  0
 19  2  1  0  0  0  0
 20 17  2  0  0  0  0
 20  4  1  0  0  0  0
 22 20  1  0  0  0  0
 23 15  1  0  0  0  0
 25 18  2  0  0  0  0
 26 25  1  0  0  0  0
 26 19  2  0  0  0  0
 27 24  1  6  0  0  0
 27 12  1  0  0  0  0
 28 30  1  0  0  0  0
 30 29  1  0  0  0  0
M  END
>  <MODEL>
1

>  <REMARK>
 VINA RESULT:      -8.5      0.000      0.000
  Name = 
  2 active torsions:
  status: ('A' for Active; 'I' for Inactive)
    1  A    between atoms: N_11  and  C_28
    2  A    between atoms: C_28  and  C_30
                            x       y       z     vdW  Elec       q    Type
                         _______ _______ _______ _____ _____    ______ ____

>  <TORSDO>
F 2

$$$$
=
 OpenBabel11112416133D

 30 35  0  0  1  0  0  0  0  0999 V2000
  188.6070  175.7440  142.6780 C   0  0  0  0  0  0  0  0  0  0  0  0
  186.4180  177.0680  142.5640 C   0  0  0  0  0  0  0  0  0  0  0  0
  189.4970  177.3440  146.8750 S   0  0  0  0  0  0  0  0  0  0  0  0
  189.7550  175.3540  143.4090 C   0  0  0  0  0  0  0  0  0  0  0  0
  188.4620  175.2750  141.2550 C   0  0  0  0  0  2  0  0  0  0  0  0
  190.5560  172.3020  141.5810 O   0  0  0  0  0  0  0  0  0  0  0  0
  192.6220  175.8800  143.4850 C   0  0  1  0  0  3  0  0  0  0  0  0
  190.0820  173.4470  141.8070 C   0  0  0  0  0  0  0  0  0  0  0  0
  192.4520  175.3330  144.8760 C   0  0  1  0  0  3  0  0  0  0  0  0
  191.0790  176.4190  146.7690 C   0  0  1  0  0  3  0  0  0  0  0  0
  188.9170  173.9000  141.1000 N   0  0  0  0  0  0  0  0  0  0  0  0
  190.7200  174.3230  142.8510 C   0  0  1  0  0  3  0  0  0  0  0  0
  185.2770  177.6480  143.3490 C   0  0  0  0  0  2  0  0  0  0  0  0
  193.6640  175.8840  145.5930 C   0  0  0  0  0  2  0  0  0  0  0  0
  194.0340  176.1820  143.3220 N   0  0  0  0  0  2  0  0  0  0  0  0
  186.2870  176.9460  141.3180 O   0  0  0  0  0  0  0  0  0  0  0  0
  189.0280  176.7300  145.2640 C   0  0  0  0  0  0  0  0  0  0  0  0
  185.7270  178.3000  144.6260 C   0  0  0  0  0  3  0  0  0  0  0  0
  187.6500  176.6140  143.2670 C   0  0  0  0  0  0  0  0  0  0  0  0
  189.9690  175.9120  144.6880 C   0  0  0  0  0  0  0  0  0  0  0  0
  191.1090  175.3540  147.8490 C   0  0  0  0  0  1  0  0  0  0  0  0
  191.1760  175.7920  145.4500 N   0  0  0  0  0  0  0  0  0  0  0  0
  194.5110  176.5390  144.5980 N   0  0  0  0  0  2  0  0  0  0  0  0
  193.0740  173.7910  142.1430 C   0  0  0  0  0  1  0  0  0  0  0  0
  186.8940  178.0130  145.2040 C   0  0  0  0  0  3  0  0  0  0  0  0
  187.8590  177.0850  144.5830 C   0  0  0  0  0  0  0  0  0  0  0  0
  192.0780  174.9150  142.4160 C   0  0  2  0  0  3  0  0  0  0  0  0
  188.2970  173.0830  140.0680 C   0  0  0  0  0  2  0  0  0  0  0  0
  189.7060  173.6300  138.1090 C   0  0  0  0  0  1  0  0  0  0  0  0
  188.3390  173.8070  138.7350 C   0  0  0  0  0  2  0  0  0  0  0  0
  1 19  2  0  0  0  0
  1  4  1  0  0  0  0
  2 19  1  0  0  0  0
  2 13  1  0  0  0  0
  4 20  2  0  0  0  0
  5  1  1  0  0  0  0
  6  8  2  0  0  0  0
  7 15  1  6  0  0  0
  7  9  1  0  0  0  0
  9 22  1  0  0  0  0
  9 14  1  1  0  0  0
 10  3  1  0  0  0  0
 10 21  1  1  0  0  0
 11  5  1  0  0  0  0
 11  8  1  0  0  0  0
 12  8  1  6  0  0  0
 12  4  1  0  0  0  0
 13 18  1  0  0  0  0
 15 23  1  0  0  0  0
 16  2  2  0  0  0  0
 17  3  1  0  0  0  0
 18 25  2  0  0  0  0
 19 26  1  0  0  0  0
 20 17  1  0  0  0  0
 20 22  1  0  0  0  0
 22 10  1  0  0  0  0
 23 14  1  0  0  0  0
 26 25  1  0  0  0  0
 26 17  2  0  0  0  0
 27 24  1  1  0  0  0
 27 12  1  0  0  0  0
 27  7  1  0  0  0  0
 28 11  1  0  0  0  0
 29 30  1  0  0  0  0
 30 28  1  0  0  0  0
M  END
>  <MODEL>
2

>  <REMARK>
 VINA RESULT:      -7.9      2.759      5.874
  Name = 
  2 active torsions:
  status: ('A' for Active; 'I' for Inactive)
    1  A    between atoms: N_11  and  C_28
    2  A    between atoms: C_28  and  C_30
                            x       y       z     vdW  Elec       q    Type
                         _______ _______ _______ _____ _____    ______ ____

>  <TORSDO>
F 2

$$$$
=
 OpenBabel11112416133D

 30 35  0  0  1  0  0  0  0  0999 V2000
  188.0330  175.6800  142.0220 C   0  0  0  0  0  0  0  0  0  0  0  0
  186.1360  177.3100  141.4720 C   0  0  0  0  0  0  0  0  0  0  0  0
  187.9560  176.8920  146.4380 S   0  0  0  0  0  0  0  0  0  0  0  0
  188.8850  175.0870  142.9850 C   0  0  0  0  0  0  0  0  0  0  0  0
  188.2170  175.3180  140.5730 C   0  0  0  0  0  2  0  0  0  0  0  0
  189.7630  172.0610  141.1490 O   0  0  0  0  0  0  0  0  0  0  0  0
  191.6690  175.1890  143.8460 C   0  0  1  0  0  3  0  0  0  0  0  0
  189.3900  173.2470  141.3500 C   0  0  0  0  0  0  0  0  0  0  0  0
  191.0660  174.5930  145.0890 C   0  0  1  0  0  3  0  0  0  0  0  0
  189.3810  175.7560  146.6570 C   0  0  1  0  0  3  0  0  0  0  0  0
  188.5240  173.9030  140.4130 N   0  0  0  0  0  0  0  0  0  0  0  0
  189.8290  173.9610  142.6010 C   0  0  1  0  0  3  0  0  0  0  0  0
  184.9070  178.0020  141.9870 C   0  0  0  0  0  2  0  0  0  0  0  0
  192.1000  174.9220  146.1420 C   0  0  0  0  0  2  0  0  0  0  0  0
  193.0990  175.2940  144.0810 N   0  0  0  0  0  2  0  0  0  0  0  0
  186.3300  177.2790  140.2280 O   0  0  0  0  0  0  0  0  0  0  0  0
  187.8630  176.4450  144.7100 C   0  0  0  0  0  0  0  0  0  0  0  0
  185.0750  178.5090  143.3920 C   0  0  0  0  0  3  0  0  0  0  0  0
  187.0680  176.6430  142.4230 C   0  0  0  0  0  0  0  0  0  0  0  0
  188.8160  175.5340  144.3220 C   0  0  0  0  0  0  0  0  0  0  0  0
  188.9880  174.6380  147.6040 C   0  0  0  0  0  1  0  0  0  0  0  0
  189.7500  175.1980  145.3550 N   0  0  0  0  0  0  0  0  0  0  0  0
  193.2570  175.5040  145.4650 N   0  0  0  0  0  2  0  0  0  0  0  0
  192.2020  173.1370  142.4780 C   0  0  0  0  0  1  0  0  0  0  0  0
  186.0000  178.0230  144.2210 C   0  0  0  0  0  3  0  0  0  0  0  0
  186.9740  177.0030  143.7860 C   0  0  0  0  0  0  0  0  0  0  0  0
  191.3160  174.3760  142.5880 C   0  0  2  0  0  3  0  0  0  0  0  0
  188.1070  173.2450  139.1840 C   0  0  0  0  0  2  0  0  0  0  0  0
  189.8790  173.7230  137.5250 C   0  0  0  0  0  1  0  0  0  0  0  0
  188.4840  174.0930  137.9850 C   0  0  0  0  0  2  0  0  0  0  0  0
  1 19  2  0  0  0  0
  1  4  1  0  0  0  0
  2 13  1  0  0  0  0
  2 19  1  0  0  0  0
  3 10  1  0  0  0  0
  4 20  2  0  0  0  0
  5  1  1  0  0  0  0
  6  8  2  0  0  0  0
  7 15  1  1  0  0  0
  7  9  1  0  0  0  0
  9 22  1  0  0  0  0
  9 14  1  1  0  0  0
 10 21  1  1  0  0  0
 11  5  1  0  0  0  0
 11  8  1  0  0  0  0
 12  8  1  6  0  0  0
 12  4  1  0  0  0  0
 13 18  1  0  0  0  0
 15 23  1  0  0  0  0
 16  2  2  0  0  0  0
 17  3  1  0  0  0  0
 18 25  2  0  0  0  0
 19 26  1  0  0  0  0
 20 17  1  0  0  0  0
 20 22  1  0  0  0  0
 22 10  1  0  0  0  0
 23 14  1  0  0  0  0
 26 25  1  0  0  0  0
 26 17  2  0  0  0  0
 27 24  1  1  0  0  0
 27 12  1  0  0  0  0
 27  7  1  0  0  0  0
 28 11  1  0  0  0  0
 29 30  1  0  0  0  0
 30 28  1  0  0  0  0
M  END
>  <MODEL>
3

>  <REMARK>
 VINA RESULT:      -7.9      2.716      5.879
  Name = 
  2 active torsions:
  status: ('A' for Active; 'I' for Inactive)
    1  A    between atoms: N_11  and  C_28
    2  A    between atoms: C_28  and  C_30
                            x       y       z     vdW  Elec       q    Type
                         _______ _______ _______ _____ _____    ______ ____

>  <TORSDO>
F 2

$$$$
=
 OpenBabel11112416133D

 30 35  0  0  1  0  0  0  0  0999 V2000
  188.9160  176.5200  145.6830 C   0  0  0  0  0  0  0  0  0  0  0  0
  191.0730  176.2100  147.0280 C   0  0  0  0  0  0  0  0  0  0  0  0
  190.5100  173.8880  142.2910 S   0  0  0  0  0  0  0  0  0  0  0  0
  188.1490  176.2210  144.5310 C   0  0  0  0  0  0  0  0  0  0  0  0
  188.3670  177.5000  146.6840 C   0  0  0  0  0  2  0  0  0  0  0  0
  184.8440  177.0110  145.8580 O   0  0  0  0  0  0  0  0  0  0  0  0
  187.2860  177.4870  142.0490 C   0  0  1  0  0  3  0  0  0  0  0  0
  186.0970  177.0350  145.7340 C   0  0  0  0  0  0  0  0  0  0  0  0
  187.0900  176.0490  141.6540 C   0  0  1  0  0  3  0  0  0  0  0  0
  188.9510  174.2820  141.4050 C   0  0  1  0  0  3  0  0  0  0  0  0
  186.9320  177.3280  146.8640 N   0  0  0  0  0  0  0  0  0  0  0  0
  186.7180  176.7150  144.4000 C   0  0  1  0  0  3  0  0  0  0  0  0
  192.2240  175.2950  147.3330 C   0  0  0  0  0  2  0  0  0  0  0  0
  187.1120  176.1210  140.1440 C   0  0  0  0  0  2  0  0  0  0  0  0
  186.8710  178.2960  140.9160 N   0  0  0  0  0  2  0  0  0  0  0  0
  190.8460  177.1690  147.8120 O   0  0  0  0  0  0  0  0  0  0  0  0
  189.9570  174.8470  143.6940 C   0  0  0  0  0  0  0  0  0  0  0  0
  192.7700  174.6240  146.1040 C   0  0  0  0  0  3  0  0  0  0  0  0
  190.2060  175.9460  145.8460 C   0  0  0  0  0  0  0  0  0  0  0  0
  188.7220  175.4220  143.5200 C   0  0  0  0  0  0  0  0  0  0  0  0
  188.1640  173.0040  141.1850 C   0  0  0  0  0  1  0  0  0  0  0  0
  188.1670  175.2160  142.2150 N   0  0  0  0  0  0  0  0  0  0  0  0
  187.1460  177.5320  139.7650 N   0  0  0  0  0  2  0  0  0  0  0  0
  185.0570  178.0660  143.0800 C   0  0  0  0  0  1  0  0  0  0  0  0
  192.0600  174.5000  144.9820 C   0  0  0  0  0  3  0  0  0  0  0  0
  190.7120  175.0830  144.8480 C   0  0  0  0  0  0  0  0  0  0  0  0
  186.5420  177.8340  143.3510 C   0  0  2  0  0  3  0  0  0  0  0  0
  186.3560  177.6650  148.1570 C   0  0  0  0  0  2  0  0  0  0  0  0
  186.2060  180.1310  148.0120 C   0  0  0  0  0  1  0  0  0  0  0  0
  186.9370  178.9730  148.6610 C   0  0  0  0  0  2  0  0  0  0  0  0
  1 19  1  0  0  0  0
  1  5  1  0  0  0  0
  2 13  1  0  0  0  0
  2 16  2  0  0  0  0
  3 17  1  0  0  0  0
  4  1  2  0  0  0  0
  5 11  1  0  0  0  0
  7 15  1  6  0  0  0
  7 27  1  0  0  0  0
  8  6  2  0  0  0  0
  8 11  1  0  0  0  0
  9 14  1  6  0  0  0
  9  7  1  0  0  0  0
  9 22  1  0  0  0  0
 10 21  1  1  0  0  0
 10 22  1  0  0  0  0
 10  3  1  0  0  0  0
 11 28  1  0  0  0  0
 12  4  1  1  0  0  0
 12  8  1  0  0  0  0
 17 26  1  0  0  0  0
 18 13  1  0  0  0  0
 19  2  1  0  0  0  0
 20 17  2  0  0  0  0
 20  4  1  0  0  0  0
 22 20  1  0  0  0  0
 23 14  1  0  0  0  0
 23 15  1  0  0  0  0
 25 18  2  0  0  0  0
 26 25  1  0  0  0  0
 26 19  2  0  0  0  0
 27 24  1  6  0  0  0
 27 12  1  0  0  0  0
 28 30  1  0  0  0  0
 29 30  1  0  0  0  0
M  END
>  <MODEL>
4

>  <REMARK>
 VINA RESULT:      -7.5      2.107      4.989
  Name = 
  2 active torsions:
  status: ('A' for Active; 'I' for Inactive)
    1  A    between atoms: N_11  and  C_28
    2  A    between atoms: C_28  and  C_30
                            x       y       z     vdW  Elec       q    Type
                         _______ _______ _______ _____ _____    ______ ____

>  <TORSDO>
F 2

$$$$
=
 OpenBabel11112416133D

 30 35  0  0  1  0  0  0  0  0999 V2000
  190.3860  176.6050  145.0610 C   0  0  0  0  0  0  0  0  0  0  0  0
  189.4590  177.5050  147.2710 C   0  0  0  0  0  0  0  0  0  0  0  0
  186.2820  176.9500  143.0590 S   0  0  0  0  0  0  0  0  0  0  0  0
  190.1760  176.2690  143.7010 C   0  0  0  0  0  0  0  0  0  0  0  0
  191.7350  176.3350  145.6720 C   0  0  0  0  0  2  0  0  0  0  0  0
  193.6350  176.4380  142.5560 O   0  0  0  0  0  0  0  0  0  0  0  0
  189.8940  173.9050  142.0170 C   0  0  1  0  0  3  0  0  0  0  0  0
  192.6630  176.3040  143.3470 C   0  0  0  0  0  0  0  0  0  0  0  0
  189.2510  174.9140  141.1050 C   0  0  1  0  0  3  0  0  0  0  0  0
  187.0670  176.2020  141.5780 C   0  0  1  0  0  3  0  0  0  0  0  0
  192.8110  176.6310  144.7360 N   0  0  0  0  0  0  0  0  0  0  0  0
  191.3330  175.8360  142.8180 C   0  0  1  0  0  3  0  0  0  0  0  0
  188.4380  178.3970  147.9170 C   0  0  0  0  0  2  0  0  0  0  0  0
  188.4090  174.0450  140.2000 C   0  0  0  0  0  2  0  0  0  0  0  0
  189.8710  172.6320  141.3180 N   0  0  0  0  0  2  0  0  0  0  0  0
  190.4420  177.1240  147.9600 O   0  0  0  0  0  0  0  0  0  0  0  0
  187.8510  176.9120  143.9130 C   0  0  0  0  0  0  0  0  0  0  0  0
  187.0840  178.2850  147.2740 C   0  0  0  0  0  3  0  0  0  0  0  0
  189.3170  177.1270  145.8380 C   0  0  0  0  0  0  0  0  0  0  0  0
  188.8750  176.3810  143.1660 C   0  0  0  0  0  0  0  0  0  0  0  0
  187.0140  177.1920  140.4300 C   0  0  0  0  0  1  0  0  0  0  0  0
  188.4600  175.8770  141.8910 N   0  0  0  0  0  0  0  0  0  0  0  0
  188.7220  172.6490  140.5040 N   0  0  0  0  0  2  0  0  0  0  0  0
  192.3220  174.0530  141.3460 C   0  0  0  0  0  1  0  0  0  0  0  0
  186.9160  177.8150  146.0360 C   0  0  0  0  0  3  0  0  0  0  0  0
  188.0480  177.3030  145.2410 C   0  0  0  0  0  0  0  0  0  0  0  0
  191.3070  174.3370  142.4500 C   0  0  2  0  0  3  0  0  0  0  0  0
  194.0920  177.0600  145.2770 C   0  0  0  0  0  2  0  0  0  0  0  0
  195.2330  174.9190  145.7630 C   0  0  0  0  0  1  0  0  0  0  0  0
  194.5360  176.1150  146.3780 C   0  0  0  0  0  2  0  0  0  0  0  0
  1  5  1  0  0  0  0
  1 19  1  0  0  0  0
  2 13  1  0  0  0  0
  2 16  2  0  0  0  0
  3 17  1  0  0  0  0
  4  1  2  0  0  0  0
  6  8  2  0  0  0  0
  7 15  1  6  0  0  0
  7 27  1  0  0  0  0
  8 11  1  0  0  0  0
  9 14  1  6  0  0  0
  9 22  1  0  0  0  0
  9  7  1  0  0  0  0
 10 21  1  6  0  0  0
 10 22  1  0  0  0  0
 10  3  1  0  0  0  0
 11 28  1  0  0  0  0
 11  5  1  0  0  0  0
 12  8  1  1  0  0  0
 12  4  1  0  0  0  0
 14 23  1  0  0  0  0
 17 26  1  0  0  0  0
 18 13  1  0  0  0  0
 19  2  1  0  0  0  0
 20  4  1  0  0  0  0
 20 17  2  0  0  0  0
 22 20  1  0  0  0  0
 23 15  1  0  0  0  0
 25 18  2  0  0  0  0
 26 19  2  0  0  0  0
 26 25  1  0  0  0  0
 27 24  1  6  0  0  0
 27 12  1  0  0  0  0
 28 30  1  0  0  0  0
 29 30  1  0  0  0  0
M  END
>  <MODEL>
5

>  <REMARK>
 VINA RESULT:      -7.3      2.128      2.796
  Name = 
  2 active torsions:
  status: ('A' for Active; 'I' for Inactive)
    1  A    between atoms: N_11  and  C_28
    2  A    between atoms: C_28  and  C_30
                            x       y       z     vdW  Elec       q    Type
                         _______ _______ _______ _____ _____    ______ ____

>  <TORSDO>
F 2

$$$$
=
 OpenBabel11112416133D

 30 35  0  0  1  0  0  0  0  0999 V2000
  187.8440  175.7270  141.8060 C   0  0  0  0  0  0  0  0  0  0  0  0
  186.3930  177.0890  140.1940 C   0  0  0  0  0  0  0  0  0  0  0  0
  186.3870  178.1860  145.3850 S   0  0  0  0  0  0  0  0  0  0  0  0
  188.2650  175.4600  143.1310 C   0  0  0  0  0  0  0  0  0  0  0  0
  188.4740  174.9570  140.6770 C   0  0  0  0  0  2  0  0  0  0  0  0
  189.4440  172.0420  142.6490 O   0  0  0  0  0  0  0  0  0  0  0  0
  190.5940  175.8580  144.8420 C   0  0  1  0  0  3  0  0  0  0  0  0
  189.1300  173.2280  142.3650 C   0  0  0  0  0  0  0  0  0  0  0  0
  189.5570  175.6460  145.9110 C   0  0  1  0  0  3  0  0  0  0  0  0
  187.5490  177.1900  146.3970 C   0  0  1  0  0  3  0  0  0  0  0  0
  188.6910  173.5630  141.0400 N   0  0  0  0  0  0  0  0  0  0  0  0
  189.1820  174.2870  143.4350 C   0  0  1  0  0  3  0  0  0  0  0  0
  185.1280  177.8810  140.0310 C   0  0  0  0  0  2  0  0  0  0  0  0
  190.1990  176.2880  147.1190 C   0  0  0  0  0  2  0  0  0  0  0  0
  191.8630  176.0520  145.5200 N   0  0  0  0  0  2  0  0  0  0  0  0
  186.9920  176.6960  139.1580 O   0  0  0  0  0  0  0  0  0  0  0  0
  186.8450  177.2480  143.9340 C   0  0  0  0  0  0  0  0  0  0  0  0
  184.8560  178.7830  141.2030 C   0  0  0  0  0  3  0  0  0  0  0  0
  186.8880  176.7490  141.5570 C   0  0  0  0  0  0  0  0  0  0  0  0
  187.7880  176.2790  144.1760 C   0  0  0  0  0  0  0  0  0  0  0  0
  186.7640  176.3940  147.4230 C   0  0  0  0  0  1  0  0  0  0  0  0
  188.2860  176.2790  145.5190 N   0  0  0  0  0  0  0  0  0  0  0  0
  191.5630  176.6640  146.7520 N   0  0  0  0  0  2  0  0  0  0  0  0
  191.3750  173.5040  144.3830 C   0  0  0  0  0  1  0  0  0  0  0  0
  185.4010  178.5790  142.4030 C   0  0  0  0  0  3  0  0  0  0  0  0
  186.3710  177.4930  142.6410 C   0  0  0  0  0  0  0  0  0  0  0  0
  190.6160  174.7040  143.8230 C   0  0  2  0  0  3  0  0  0  0  0  0
  188.6580  172.5650  139.9830 C   0  0  0  0  0  2  0  0  0  0  0  0
  189.1610  172.6170  137.5610 C   0  0  0  0  0  1  0  0  0  0  0  0
  188.3090  173.2190  138.6590 C   0  0  0  0  0  2  0  0  0  0  0  0
  1  4  1  0  0  0  0
  2 19  1  0  0  0  0
  3 10  1  0  0  0  0
  4 12  1  0  0  0  0
  4 20  2  0  0  0  0
  5 11  1  0  0  0  0
  5  1  1  0  0  0  0
  7 15  1  1  0  0  0
  7  9  1  0  0  0  0
  8  6  2  0  0  0  0
  9 14  1  1  0  0  0
 10 21  1  1  0  0  0
 11  8  1  0  0  0  0
 12  8  1  6  0  0  0
 12 27  1  0  0  0  0
 13  2  1  0  0  0  0
 13 18  1  0  0  0  0
 15 23  1  0  0  0  0
 16  2  2  0  0  0  0
 17 20  1  0  0  0  0
 17  3  1  0  0  0  0
 18 25  2  0  0  0  0
 19  1  2  0  0  0  0
 19 26  1  0  0  0  0
 20 22  1  0  0  0  0
 22  9  1  0  0  0  0
 22 10  1  0  0  0  0
 23 14  1  0  0  0  0
 25 26  1  0  0  0  0
 26 17  2  0  0  0  0
 27 24  1  1  0  0  0
 27  7  1  0  0  0  0
 28 11  1  0  0  0  0
 29 30  1  0  0  0  0
 30 28  1  0  0  0  0
M  END
>  <MODEL>
6

>  <REMARK>
 VINA RESULT:      -7.3      2.452      5.952
  Name = 
  2 active torsions:
  status: ('A' for Active; 'I' for Inactive)
    1  A    between atoms: N_11  and  C_28
    2  A    between atoms: C_28  and  C_30
                            x       y       z     vdW  Elec       q    Type
                         _______ _______ _______ _____ _____    ______ ____

>  <TORSDO>
F 2

$$$$
=
 OpenBabel11112416133D

 30 35  0  0  1  0  0  0  0  0999 V2000
  189.1810  175.1290  142.2590 C   0  0  0  0  0  0  0  0  0  0  0  0
  189.3720  173.7140  140.1330 C   0  0  0  0  0  0  0  0  0  0  0  0
  193.6520  174.6480  143.1250 S   0  0  0  0  0  0  0  0  0  0  0  0
  189.8080  175.7410  143.3720 C   0  0  0  0  0  0  0  0  0  0  0  0
  187.6860  175.2300  142.1250 C   0  0  0  0  0  2  0  0  0  0  0  0
  187.2950  178.2890  144.0790 O   0  0  0  0  0  0  0  0  0  0  0  0
  190.0400  175.3890  146.2580 C   0  0  1  0  0  3  0  0  0  0  0  0
  187.7900  177.2130  143.6500 C   0  0  0  0  0  0  0  0  0  0  0  0
  191.2530  176.2500  146.0330 C   0  0  1  0  0  3  0  0  0  0  0  0
  193.3400  175.5950  144.6670 C   0  0  1  0  0  3  0  0  0  0  0  0
  187.2040  176.5450  142.5230 N   0  0  0  0  0  0  0  0  0  0  0  0
  189.0240  176.6500  144.3030 C   0  0  1  0  0  3  0  0  0  0  0  0
  190.2630  173.2890  139.0020 C   0  0  0  0  0  2  0  0  0  0  0  0
  192.0960  175.9500  147.2510 C   0  0  0  0  0  2  0  0  0  0  0  0
  189.9710  175.1240  147.6840 N   0  0  0  0  0  2  0  0  0  0  0  0
  188.1320  173.5220  140.0250 O   0  0  0  0  0  0  0  0  0  0  0  0
  191.9350  174.8270  142.6650 C   0  0  0  0  0  0  0  0  0  0  0  0
  191.6660  172.9910  139.4520 C   0  0  0  0  0  3  0  0  0  0  0  0
  189.9550  174.3850  141.3280 C   0  0  0  0  0  0  0  0  0  0  0  0
  191.1860  175.5240  143.5820 C   0  0  0  0  0  0  0  0  0  0  0  0
  194.1260  176.8910  144.6260 C   0  0  0  0  0  1  0  0  0  0  0  0
  191.9080  175.8840  144.7660 N   0  0  0  0  0  0  0  0  0  0  0  0
  191.3010  175.1130  148.1490 N   0  0  0  0  0  2  0  0  0  0  0  0
  188.2330  177.1060  146.6470 C   0  0  0  0  0  1  0  0  0  0  0  0
  192.1680  173.4670  140.5920 C   0  0  0  0  0  3  0  0  0  0  0  0
  191.3490  174.2600  141.5290 C   0  0  0  0  0  0  0  0  0  0  0  0
  188.7620  176.0360  145.6950 C   0  0  2  0  0  3  0  0  0  0  0  0
  185.9960  177.0540  141.8900 C   0  0  0  0  0  2  0  0  0  0  0  0
  186.4450  177.2710  139.4670 C   0  0  0  0  0  1  0  0  0  0  0  0
  186.3580  178.0220  140.7790 C   0  0  0  0  0  2  0  0  0  0  0  0
  1  4  1  0  0  0  0
  2 19  1  0  0  0  0
  3 10  1  0  0  0  0
  4 20  2  0  0  0  0
  5  1  1  0  0  0  0
  5 11  1  0  0  0  0
  7 15  1  1  0  0  0
  8  6  2  0  0  0  0
  8 12  1  0  0  0  0
  9  7  1  0  0  0  0
  9 14  1  1  0  0  0
 10 21  1  6  0  0  0
 10 22  1  0  0  0  0
 11  8  1  0  0  0  0
 12  4  1  6  0  0  0
 12 27  1  0  0  0  0
 13 18  1  0  0  0  0
 13  2  1  0  0  0  0
 14 23  1  0  0  0  0
 15 23  1  0  0  0  0
 16  2  2  0  0  0  0
 17  3  1  0  0  0  0
 17 20  1  0  0  0  0
 18 25  2  0  0  0  0
 19 26  1  0  0  0  0
 19  1  2  0  0  0  0
 20 22  1  0  0  0  0
 22  9  1  0  0  0  0
 25 26  1  0  0  0  0
 26 17  2  0  0  0  0
 27  7  1  0  0  0  0
 27 24  1  1  0  0  0
 28 11  1  0  0  0  0
 29 30  1  0  0  0  0
 30 28  1  0  0  0  0
M  END
>  <MODEL>
7

>  <REMARK>
 VINA RESULT:      -7.2      2.962      7.138
  Name = 
  2 active torsions:
  status: ('A' for Active; 'I' for Inactive)
    1  A    between atoms: N_11  and  C_28
    2  A    between atoms: C_28  and  C_30
                            x       y       z     vdW  Elec       q    Type
                         _______ _______ _______ _____ _____    ______ ____

>  <TORSDO>
F 2

$$$$
=
 OpenBabel11112416133D

 30 35  0  0  1  0  0  0  0  0999 V2000
  191.9190  175.6850  144.6290 C   0  0  0  0  0  0  0  0  0  0  0  0
  194.4100  175.0950  144.5530 C   0  0  0  0  0  0  0  0  0  0  0  0
  191.1820  173.6170  140.6100 S   0  0  0  0  0  0  0  0  0  0  0  0
  190.6330  175.6050  144.0430 C   0  0  0  0  0  0  0  0  0  0  0  0
  192.0930  176.4980  145.8840 C   0  0  0  0  0  2  0  0  0  0  0  0
  188.6330  176.2510  147.0250 O   0  0  0  0  0  0  0  0  0  0  0  0
  188.7440  177.2930  142.5980 C   0  0  1  0  0  3  0  0  0  0  0  0
  189.6280  176.2600  146.2510 C   0  0  0  0  0  0  0  0  0  0  0  0
  188.2080  175.9470  142.1910 C   0  0  1  0  0  3  0  0  0  0  0  0
  189.4470  174.1970  140.7590 C   0  0  1  0  0  3  0  0  0  0  0  0
  190.9580  176.3370  146.7830 N   0  0  0  0  0  0  0  0  0  0  0  0
  189.4130  176.1520  144.7640 C   0  0  1  0  0  3  0  0  0  0  0  0
  195.4380  174.1110  144.0730 C   0  0  0  0  0  2  0  0  0  0  0  0
  187.4410  176.2700  140.9290 C   0  0  0  0  0  2  0  0  0  0  0  0
  187.8890  178.2910  141.9780 N   0  0  0  0  0  2  0  0  0  0  0  0
  194.7390  175.9150  145.4500 O   0  0  0  0  0  0  0  0  0  0  0  0
  191.5630  174.3420  142.1990 C   0  0  0  0  0  0  0  0  0  0  0  0
  195.1760  173.6410  142.6690 C   0  0  0  0  0  3  0  0  0  0  0  0
  193.0280  175.0570  143.9990 C   0  0  0  0  0  0  0  0  0  0  0  0
  190.4940  174.9710  142.7900 C   0  0  0  0  0  0  0  0  0  0  0  0
  188.5240  172.9960  140.8350 C   0  0  0  0  0  1  0  0  0  0  0  0
  189.3170  175.0030  141.9740 N   0  0  0  0  0  0  0  0  0  0  0  0
  187.4290  177.7240  140.7740 N   0  0  0  0  0  2  0  0  0  0  0  0
  187.4710  177.7500  144.7280 C   0  0  0  0  0  1  0  0  0  0  0  0
  193.9730  173.7260  142.0990 C   0  0  0  0  0  3  0  0  0  0  0  0
  192.8320  174.3600  142.7860 C   0  0  0  0  0  0  0  0  0  0  0  0
  188.8390  177.4360  144.1270 C   0  0  2  0  0  3  0  0  0  0  0  0
  191.1910  176.4680  148.2130 C   0  0  0  0  0  2  0  0  0  0  0  0
  191.5660  178.0930  150.0410 C   0  0  0  0  0  1  0  0  0  0  0  0
  191.0270  177.9160  148.6370 C   0  0  0  0  0  2  0  0  0  0  0  0
  1  5  1  0  0  0  0
  2 16  2  0  0  0  0
  3 10  1  0  0  0  0
  3 17  1  0  0  0  0
  4  1  1  0  0  0  0
  5 11  1  0  0  0  0
  7 15  1  1  0  0  0
  7 27  1  0  0  0  0
  8 11  1  0  0  0  0
  8  6  2  0  0  0  0
  9 14  1  6  0  0  0
  9  7  1  0  0  0  0
 10 21  1  1  0  0  0
 10 22  1  0  0  0  0
 11 28  1  0  0  0  0
 12  4  1  6  0  0  0
 12  8  1  0  0  0  0
 13  2  1  0  0  0  0
 17 26  2  0  0  0  0
 17 20  1  0  0  0  0
 18 13  1  0  0  0  0
 19  2  1  0  0  0  0
 19  1  2  0  0  0  0
 20  4  2  0  0  0  0
 22  9  1  0  0  0  0
 22 20  1  0  0  0  0
 23 14  1  0  0  0  0
 23 15  1  0  0  0  0
 25 18  2  0  0  0  0
 25 26  1  0  0  0  0
 26 19  1  0  0  0  0
 27 24  1  1  0  0  0
 27 12  1  0  0  0  0
 28 30  1  0  0  0  0
 30 29  1  0  0  0  0
M  END
>  <MODEL>
8

>  <REMARK>
 VINA RESULT:      -7.1      2.451      5.813
  Name = 
  2 active torsions:
  status: ('A' for Active; 'I' for Inactive)
    1  A    between atoms: N_11  and  C_28
    2  A    between atoms: C_28  and  C_30
                            x       y       z     vdW  Elec       q    Type
                         _______ _______ _______ _____ _____    ______ ____

>  <TORSDO>
F 2

$$$$
=
 OpenBabel11112416133D

 30 35  0  0  1  0  0  0  0  0999 V2000
  188.0270  175.3040  142.5640 C   0  0  0  0  0  0  0  0  0  0  0  0
  189.1150  173.1530  141.6990 C   0  0  0  0  0  0  0  0  0  0  0  0
  190.1870  174.9240  146.5840 S   0  0  0  0  0  0  0  0  0  0  0  0
  187.8860  176.2660  143.5940 C   0  0  0  0  0  0  0  0  0  0  0  0
  187.1780  175.4370  141.3280 C   0  0  0  0  0  2  0  0  0  0  0  0
  186.6340  179.0390  141.5820 O   0  0  0  0  0  0  0  0  0  0  0  0
  185.9590  177.0730  145.6280 C   0  0  1  0  0  3  0  0  0  0  0  0
  186.8830  177.8520  141.9230 C   0  0  0  0  0  0  0  0  0  0  0  0
  187.1930  177.6960  146.2210 C   0  0  1  0  0  3  0  0  0  0  0  0
  189.2580  176.4220  147.0960 C   0  0  1  0  0  3  0  0  0  0  0  0
  187.0400  176.8310  140.9260 N   0  0  0  0  0  0  0  0  0  0  0  0
  187.0520  177.5170  143.3810 C   0  0  1  0  0  3  0  0  0  0  0  0
  190.3190  172.2590  141.7660 C   0  0  0  0  0  2  0  0  0  0  0  0
  186.8130  177.8500  147.6760 C   0  0  0  0  0  2  0  0  0  0  0  0
  184.8560  177.4000  146.5140 N   0  0  0  0  0  2  0  0  0  0  0  0
  188.3160  173.0120  140.7360 O   0  0  0  0  0  0  0  0  0  0  0  0
  189.4420  175.0140  144.9620 C   0  0  0  0  0  0  0  0  0  0  0  0
  190.8270  172.0750  143.1690 C   0  0  0  0  0  3  0  0  0  0  0  0
  188.9110  174.2040  142.7340 C   0  0  0  0  0  0  0  0  0  0  0  0
  188.5680  176.0630  144.8130 C   0  0  0  0  0  0  0  0  0  0  0  0
  190.2370  177.5430  147.3870 C   0  0  0  0  0  1  0  0  0  0  0  0
  188.3570  176.8170  146.0120 N   0  0  0  0  0  0  0  0  0  0  0  0
  185.4020  177.4900  147.8090 N   0  0  0  0  0  2  0  0  0  0  0  0
  185.1000  178.9140  144.1320 C   0  0  0  0  0  1  0  0  0  0  0  0
  190.5400  172.9320  144.1510 C   0  0  0  0  0  3  0  0  0  0  0  0
  189.6400  174.0810  143.9390 C   0  0  0  0  0  0  0  0  0  0  0  0
  185.7280  177.5230  144.1750 C   0  0  2  0  0  3  0  0  0  0  0  0
  186.8560  177.1220  139.5130 C   0  0  0  0  0  2  0  0  0  0  0  0
  186.6850  176.1320  137.2520 C   0  0  0  0  0  1  0  0  0  0  0  0
  187.0920  175.8720  138.6870 C   0  0  0  0  0  2  0  0  0  0  0  0
  1 19  2  0  0  0  0
  1  4  1  0  0  0  0
  2 13  1  0  0  0  0
  2 19  1  0  0  0  0
  3 10  1  0  0  0  0
  4 20  2  0  0  0  0
  5  1  1  0  0  0  0
  6  8  2  0  0  0  0
  7  9  1  0  0  0  0
  7 15  1  1  0  0  0
  9 14  1  1  0  0  0
 10 21  1  6  0  0  0
 11  5  1  0  0  0  0
 11  8  1  0  0  0  0
 12  8  1  6  0  0  0
 12  4  1  0  0  0  0
 12 27  1  0  0  0  0
 13 18  1  0  0  0  0
 14 23  1  0  0  0  0
 15 23  1  0  0  0  0
 16  2  2  0  0  0  0
 17  3  1  0  0  0  0
 18 25  2  0  0  0  0
 19 26  1  0  0  0  0
 20 17  1  0  0  0  0
 20 22  1  0  0  0  0
 22  9  1  0  0  0  0
 22 10  1  0  0  0  0
 26 25  1  0  0  0  0
 26 17  2  0  0  0  0
 27 24  1  1  0  0  0
 27  7  1  0  0  0  0
 28 11  1  0  0  0  0
 29 30  1  0  0  0  0
 30 28  1  0  0  0  0
M  END
>  <MODEL>
9

>  <REMARK>
 VINA RESULT:      -7.0      2.834      7.183
  Name = 
  2 active torsions:
  status: ('A' for Active; 'I' for Inactive)
    1  A    between atoms: N_11  and  C_28
    2  A    between atoms: C_28  and  C_30
                            x       y       z     vdW  Elec       q    Type
                         _______ _______ _______ _____ _____    ______ ____

>  <TORSDO>
F 2

$$$$
