=
 OpenBabel11112417513D

 34 41  0  0  1  0  0  0  0  0999 V2000
  189.4740  174.7010  142.8750 C   0  0  0  0  0  0  0  0  0  0  0  0
  191.6330  173.3600  142.9520 C   0  0  0  0  0  2  0  0  0  0  0  0
  185.2270  179.0600  145.7750 C   0  0  2  0  0  3  0  0  0  0  0  0
  187.6340  176.2780  142.8300 C   0  0  0  0  0  0  0  0  0  0  0  0
  187.3530  178.0080  144.7080 C   0  0  1  0  0  3  0  0  0  0  0  0
  185.6480  177.0190  146.1570 O   0  0  0  0  0  0  0  0  0  0  0  0
  184.4690  177.7820  146.0420 C   0  0  0  0  0  2  0  0  0  0  0  0
  184.6780  178.6540  143.2610 C   0  0  0  0  0  2  0  0  0  0  0  0
  190.6870  174.1840  145.0250 C   0  0  2  0  0  3  0  0  0  0  0  0
  192.9240  175.6250  146.9280 C   0  0  0  0  0  2  0  0  0  0  0  0
  188.7440  177.5260  145.1380 C   0  0  0  0  0  2  0  0  0  0  0  0
  185.9650  178.1550  142.6220 C   0  0  0  0  0  2  0  0  0  0  0  0
  190.3140  175.6090  145.4850 C   0  0  1  0  0  3  0  0  0  0  0  0
  192.5810  172.9710  144.0750 C   0  0  0  0  0  2  0  0  0  0  0  0
  186.6930  177.2060  143.5620 C   0  0  1  0  0  3  0  0  0  0  0  0
  184.9610  179.6600  144.3770 C   0  0  0  0  0  2  0  0  0  0  0  0
  193.1210  174.9290  145.5690 C   0  0  1  0  0  3  0  0  0  0  0  0
  188.6840  175.6600  143.5300 C   0  0  0  0  0  0  0  0  0  0  0  0
  186.4400  178.1610  145.9340 C   0  0  2  0  0  3  0  0  0  0  0  0
  188.9190  176.0170  144.9800 C   0  0  2  0  0  3  0  0  0  0  0  0
  188.1740  175.0370  140.8710 C   0  0  0  0  0  3  0  0  0  0  0  0
  191.6450  175.2220  147.6650 C   0  0  0  0  0  2  0  0  0  0  0  0
  187.4000  175.9400  141.5300 N   0  0  0  0  0  0  0  0  0  0  0  0
  190.3750  175.7710  147.0120 C   0  0  0  0  0  2  0  0  0  0  0  0
  192.1420  173.7620  145.3040 C   0  0  1  0  0  3  0  0  0  0  0  0
  189.2250  174.4020  141.5320 C   0  0  0  0  0  3  0  0  0  0  0  0
  190.5300  174.0500  143.5910 N   0  0  0  0  0  0  0  0  0  0  0  0
  193.0780  175.8760  144.5380 O   0  0  0  0  0  0  0  0  0  0  0  0
  194.3170  176.5210  144.5820 C   0  0  0  0  0  2  0  0  0  0  0  0
  195.5570  176.4830  141.3530 C   0  0  0  0  0  2  0  0  0  0  0  0
  196.4630  176.7540  143.3700 C   0  0  0  0  0  2  0  0  0  0  0  0
  195.2820  175.8480  143.6220 C   0  0  2  0  0  3  0  0  0  0  0  0
  196.7800  176.6950  142.0060 O   0  0  0  0  0  0  0  0  0  0  0  0
  194.6580  175.6850  142.2670 C   0  0  0  0  0  2  0  0  0  0  0  0
  1 18  1  0  0  0  0
  1 27  1  0  0  0  0
  2 27  1  0  0  0  0
  2 14  1  0  0  0  0
  3 16  1  6  0  0  0
  3 19  1  0  0  0  0
  3  7  1  0  0  0  0
  4 18  2  0  0  0  0
  4 15  1  0  0  0  0
  5 11  1  1  0  0  0
  5 19  1  0  0  0  0
  7  6  1  0  0  0  0
  8 16  1  0  0  0  0
  9 27  1  6  0  0  0
  9 25  1  0  0  0  0
  9 13  1  0  0  0  0
 10 22  1  0  0  0  0
 12  8  1  0  0  0  0
 13 24  1  1  0  0  0
 15 12  1  6  0  0  0
 15  5  1  0  0  0  0
 17 28  1  6  0  0  0
 17 10  1  0  0  0  0
 18 20  1  0  0  0  0
 19  6  1  6  0  0  0
 20 11  1  6  0  0  0
 20 13  1  0  0  0  0
 21 23  2  0  0  0  0
 21 26  1  0  0  0  0
 23  4  1  0  0  0  0
 24 22  1  0  0  0  0
 25 14  1  6  0  0  0
 25 17  1  0  0  0  0
 26  1  2  0  0  0  0
 28 29  1  0  0  0  0
 30 33  1  0  0  0  0
 30 34  1  0  0  0  0
 31 32  1  0  0  0  0
 32 29  1  1  0  0  0
 33 31  1  0  0  0  0
 34 32  1  0  0  0  0
M  END
>  <MODEL>
1

>  <REMARK>
 VINA RESULT:      -9.5      0.000      0.000
  Name = 
  3 active torsions:
  status: ('A' for Active; 'I' for Inactive)
    1  A    between atoms: C_17  and  O_28
    2  A    between atoms: O_28  and  C_29
    3  A    between atoms: C_29  and  C_32
                            x       y       z     vdW  Elec       q    Type
                         _______ _______ _______ _____ _____    ______ ____

>  <TORSDO>
F 3

$$$$
=
 OpenBabel11112417513D

 34 41  0  0  1  0  0  0  0  0999 V2000
  190.5880  174.1240  143.1870 C   0  0  0  0  0  0  0  0  0  0  0  0
  192.8030  173.0590  143.8430 C   0  0  0  0  0  2  0  0  0  0  0  0
  185.8740  178.8340  144.2030 C   0  0  2  0  0  3  0  0  0  0  0  0
  188.6760  175.4480  142.5050 C   0  0  0  0  0  0  0  0  0  0  0  0
  188.1380  177.6660  143.6830 C   0  0  1  0  0  3  0  0  0  0  0  0
  186.3700  177.0700  145.2650 O   0  0  0  0  0  0  0  0  0  0  0  0
  185.1660  177.6560  144.8290 C   0  0  0  0  0  2  0  0  0  0  0  0
  185.5690  177.5900  141.9350 C   0  0  0  0  0  2  0  0  0  0  0  0
  191.6360  174.4350  145.4610 C   0  0  2  0  0  3  0  0  0  0  0  0
  193.6170  176.5910  146.9200 C   0  0  0  0  0  2  0  0  0  0  0  0
  189.5110  177.4640  144.3370 C   0  0  0  0  0  2  0  0  0  0  0  0
  186.9320  177.0150  141.5820 C   0  0  0  0  0  2  0  0  0  0  0  0
  191.1480  175.8970  145.3990 C   0  0  1  0  0  3  0  0  0  0  0  0
  193.6690  173.1340  145.0890 C   0  0  0  0  0  2  0  0  0  0  0  0
  187.6260  176.4850  142.8270 C   0  0  1  0  0  3  0  0  0  0  0  0
  185.6980  178.9230  142.6720 C   0  0  0  0  0  2  0  0  0  0  0  0
  193.9690  175.5090  145.8830 C   0  0  1  0  0  3  0  0  0  0  0  0
  189.6930  175.1770  143.4360 C   0  0  0  0  0  0  0  0  0  0  0  0
  187.1150  178.1370  144.7280 C   0  0  2  0  0  3  0  0  0  0  0  0
  189.7820  176.0050  144.6980 C   0  0  2  0  0  3  0  0  0  0  0  0
  189.4520  173.6850  141.1060 C   0  0  0  0  0  3  0  0  0  0  0  0
  192.3030  176.3480  147.6650 C   0  0  0  0  0  2  0  0  0  0  0  0
  188.5760  174.6880  141.3780 N   0  0  0  0  0  0  0  0  0  0  0  0
  191.0660  176.5510  146.7860 C   0  0  0  0  0  2  0  0  0  0  0  0
  193.0820  174.2440  145.9570 C   0  0  1  0  0  3  0  0  0  0  0  0
  190.4750  173.3860  142.0050 C   0  0  0  0  0  3  0  0  0  0  0  0
  191.6120  173.8290  144.1440 N   0  0  0  0  0  0  0  0  0  0  0  0
  193.9650  176.0620  144.5970 O   0  0  0  0  0  0  0  0  0  0  0  0
  195.1800  176.7420  144.4860 C   0  0  0  0  0  2  0  0  0  0  0  0
  196.3970  174.0150  142.7410 C   0  0  0  0  0  2  0  0  0  0  0  0
  194.9430  175.6390  142.2830 C   0  0  0  0  0  2  0  0  0  0  0  0
  195.9160  176.2840  143.2400 C   0  0  2  0  0  3  0  0  0  0  0  0
  195.5530  174.5030  141.7330 O   0  0  0  0  0  0  0  0  0  0  0  0
  196.8820  175.1830  143.5670 C   0  0  0  0  0  2  0  0  0  0  0  0
  1 18  1  0  0  0  0
  1 27  1  0  0  0  0
  2 27  1  0  0  0  0
  2 14  1  0  0  0  0
  3 16  1  6  0  0  0
  3 19  1  0  0  0  0
  3  7  1  0  0  0  0
  4 15  1  0  0  0  0
  4 18  2  0  0  0  0
  5 11  1  1  0  0  0
  5 19  1  0  0  0  0
  7  6  1  0  0  0  0
  8 16  1  0  0  0  0
  9 27  1  6  0  0  0
  9 25  1  0  0  0  0
 10 22  1  0  0  0  0
 12  8  1  0  0  0  0
 13  9  1  0  0  0  0
 13 24  1  1  0  0  0
 15 12  1  6  0  0  0
 15  5  1  0  0  0  0
 17 28  1  6  0  0  0
 17 25  1  0  0  0  0
 17 10  1  0  0  0  0
 18 20  1  0  0  0  0
 19  6  1  6  0  0  0
 20 11  1  6  0  0  0
 20 13  1  0  0  0  0
 21 23  2  0  0  0  0
 21 26  1  0  0  0  0
 23  4  1  0  0  0  0
 24 22  1  0  0  0  0
 25 14  1  6  0  0  0
 26  1  2  0  0  0  0
 29 28  1  0  0  0  0
 30 34  1  0  0  0  0
 31 32  1  0  0  0  0
 32 34  1  0  0  0  0
 32 29  1  1  0  0  0
 33 31  1  0  0  0  0
 33 30  1  0  0  0  0
M  END
>  <MODEL>
2

>  <REMARK>
 VINA RESULT:      -8.7      1.215      1.563
  Name = 
  3 active torsions:
  status: ('A' for Active; 'I' for Inactive)
    1  A    between atoms: C_17  and  O_28
    2  A    between atoms: O_28  and  C_29
    3  A    between atoms: C_29  and  C_32
                            x       y       z     vdW  Elec       q    Type
                         _______ _______ _______ _____ _____    ______ ____

>  <TORSDO>
F 3

$$$$
=
 OpenBabel11112417513D

 34 41  0  0  1  0  0  0  0  0999 V2000
  192.3150  176.1260  145.8870 C   0  0  0  0  0  0  0  0  0  0  0  0
  194.7060  175.2950  146.1380 C   0  0  0  0  0  2  0  0  0  0  0  0
  186.7880  176.8830  142.1020 C   0  0  2  0  0  3  0  0  0  0  0  0
  189.9510  176.5630  145.5800 C   0  0  0  0  0  0  0  0  0  0  0  0
  188.7550  175.8220  143.4310 C   0  0  1  0  0  3  0  0  0  0  0  0
  188.6670  177.8610  142.0840 O   0  0  0  0  0  0  0  0  0  0  0  0
  187.3270  178.2910  142.0130 C   0  0  0  0  0  2  0  0  0  0  0  0
  186.3520  177.3960  144.6190 C   0  0  0  0  0  2  0  0  0  0  0  0
  193.8130  175.6510  143.9130 C   0  0  2  0  0  3  0  0  0  0  0  0
  194.4240  173.1390  141.9100 C   0  0  0  0  0  2  0  0  0  0  0  0
  190.0650  175.0730  143.1550 C   0  0  0  0  0  2  0  0  0  0  0  0
  187.4390  176.6680  145.3930 C   0  0  0  0  0  2  0  0  0  0  0  0
  192.5670  175.0780  143.2070 C   0  0  1  0  0  3  0  0  0  0  0  0
  195.7750  174.8790  145.1420 C   0  0  0  0  0  2  0  0  0  0  0  0
  188.7690  176.7600  144.6600 C   0  0  1  0  0  3  0  0  0  0  0  0
  185.9410  176.6210  143.3670 C   0  0  0  0  0  2  0  0  0  0  0  0
  194.8610  173.3310  143.3730 C   0  0  1  0  0  3  0  0  0  0  0  0
  191.1920  176.1820  145.0450 C   0  0  0  0  0  0  0  0  0  0  0  0
  188.2590  176.5160  142.1530 C   0  0  2  0  0  3  0  0  0  0  0  0
  191.2990  175.8720  143.5690 C   0  0  2  0  0  3  0  0  0  0  0  0
  190.9230  176.7910  147.7410 C   0  0  0  0  0  3  0  0  0  0  0  0
  194.0440  174.4330  141.1880 C   0  0  0  0  0  2  0  0  0  0  0  0
  189.8550  176.8690  146.9050 N   0  0  0  0  0  0  0  0  0  0  0  0
  192.7240  175.0310  141.6790 C   0  0  0  0  0  2  0  0  0  0  0  0
  195.0930  174.8050  143.7800 C   0  0  1  0  0  3  0  0  0  0  0  0
  192.1730  176.4170  147.2470 C   0  0  0  0  0  3  0  0  0  0  0  0
  193.5880  175.7620  145.3410 N   0  0  0  0  0  0  0  0  0  0  0  0
  193.9500  172.7020  144.2300 O   0  0  0  0  0  0  0  0  0  0  0  0
  194.0610  171.3390  143.9470 C   0  0  0  0  0  2  0  0  0  0  0  0
  190.7950  171.5330  142.8270 C   0  0  0  0  0  2  0  0  0  0  0  0
  192.4140  170.0130  142.6610 C   0  0  0  0  0  2  0  0  0  0  0  0
  192.6890  170.6900  143.9810 C   0  0  2  0  0  3  0  0  0  0  0  0
  191.0810  170.2630  142.3060 O   0  0  0  0  0  0  0  0  0  0  0  0
  191.6120  171.7310  144.0820 C   0  0  0  0  0  2  0  0  0  0  0  0
  1 26  1  0  0  0  0
  3  7  1  1  0  0  0
  3 19  1  0  0  0  0
  3 16  1  0  0  0  0
  4 23  2  0  0  0  0
  5 11  1  6  0  0  0
  5 15  1  0  0  0  0
  7  6  1  0  0  0  0
  8 12  1  0  0  0  0
  9 27  1  1  0  0  0
 10 17  1  0  0  0  0
 13 24  1  6  0  0  0
 13 20  1  0  0  0  0
 13  9  1  0  0  0  0
 14  2  1  0  0  0  0
 15 12  1  1  0  0  0
 15  4  1  0  0  0  0
 16  8  1  0  0  0  0
 17 25  1  0  0  0  0
 17 28  1  1  0  0  0
 18  4  1  0  0  0  0
 18  1  2  0  0  0  0
 19  6  1  1  0  0  0
 19  5  1  0  0  0  0
 20 11  1  1  0  0  0
 20 18  1  0  0  0  0
 22 24  1  0  0  0  0
 22 10  1  0  0  0  0
 23 21  1  0  0  0  0
 25  9  1  0  0  0  0
 25 14  1  1  0  0  0
 26 21  2  0  0  0  0
 27  1  1  0  0  0  0
 27  2  1  0  0  0  0
 29 28  1  0  0  0  0
 30 34  1  0  0  0  0
 31 32  1  0  0  0  0
 32 29  1  6  0  0  0
 32 34  1  0  0  0  0
 33 31  1  0  0  0  0
 33 30  1  0  0  0  0
M  END
>  <MODEL>
3

>  <REMARK>
 VINA RESULT:      -8.1      2.436      4.962
  Name = 
  3 active torsions:
  status: ('A' for Active; 'I' for Inactive)
    1  A    between atoms: C_17  and  O_28
    2  A    between atoms: O_28  and  C_29
    3  A    between atoms: C_29  and  C_32
                            x       y       z     vdW  Elec       q    Type
                         _______ _______ _______ _____ _____    ______ ____

>  <TORSDO>
F 3

$$$$
=
 OpenBabel11112417513D

 34 41  0  0  1  0  0  0  0  0999 V2000
  192.5020  176.1360  145.8950 C   0  0  0  0  0  0  0  0  0  0  0  0
  194.8990  175.3210  146.1350 C   0  0  0  0  0  2  0  0  0  0  0  0
  186.9610  176.8790  142.1280 C   0  0  2  0  0  3  0  0  0  0  0  0
  190.1340  176.5570  145.5960 C   0  0  0  0  0  0  0  0  0  0  0  0
  188.9390  175.8220  143.4440 C   0  0  1  0  0  3  0  0  0  0  0  0
  188.8330  177.8710  142.1120 O   0  0  0  0  0  0  0  0  0  0  0  0
  187.4890  178.2910  142.0470 C   0  0  0  0  0  2  0  0  0  0  0  0
  186.5270  177.3700  144.6490 C   0  0  0  0  0  2  0  0  0  0  0  0
  193.9990  175.6860  143.9140 C   0  0  2  0  0  3  0  0  0  0  0  0
  194.6240  173.1930  141.8920 C   0  0  0  0  0  2  0  0  0  0  0  0
  190.2540  175.0850  143.1600 C   0  0  0  0  0  2  0  0  0  0  0  0
  187.6210  176.6440  145.4150 C   0  0  0  0  0  2  0  0  0  0  0  0
  192.7560  175.1090  143.2060 C   0  0  1  0  0  3  0  0  0  0  0  0
  195.9700  174.9200  145.1340 C   0  0  0  0  0  2  0  0  0  0  0  0
  188.9490  176.7520  144.6800 C   0  0  1  0  0  3  0  0  0  0  0  0
  186.1190  176.6010  143.3920 C   0  0  0  0  0  2  0  0  0  0  0  0
  195.0640  173.3780  143.3560 C   0  0  1  0  0  3  0  0  0  0  0  0
  191.3770  176.1890  145.0550 C   0  0  0  0  0  0  0  0  0  0  0  0
  188.4350  176.5220  142.1730 C   0  0  2  0  0  3  0  0  0  0  0  0
  191.4830  175.8910  143.5770 C   0  0  2  0  0  3  0  0  0  0  0  0
  191.1100  176.7770  147.7570 C   0  0  0  0  0  3  0  0  0  0  0  0
  194.2330  174.4890  141.1800 C   0  0  0  0  0  2  0  0  0  0  0  0
  190.0380  176.8530  146.9240 N   0  0  0  0  0  0  0  0  0  0  0  0
  192.9100  175.0740  141.6780 C   0  0  0  0  0  2  0  0  0  0  0  0
  195.2850  174.8510  143.7720 C   0  0  1  0  0  3  0  0  0  0  0  0
  192.3610  176.4160  147.2570 C   0  0  0  0  0  3  0  0  0  0  0  0
  193.7760  175.7850  145.3430 N   0  0  0  0  0  0  0  0  0  0  0  0
  194.1590  172.7360  144.2100 O   0  0  0  0  0  0  0  0  0  0  0  0
  194.6250  171.4230  144.3170 C   0  0  0  0  0  2  0  0  0  0  0  0
  195.8660  169.0470  146.5020 C   0  0  0  0  0  2  0  0  0  0  0  0
  196.4730  171.1130  145.9340 C   0  0  0  0  0  2  0  0  0  0  0  0
  194.9740  171.1170  145.7630 C   0  0  2  0  0  3  0  0  0  0  0  0
  196.8190  170.0410  146.7680 O   0  0  0  0  0  0  0  0  0  0  0  0
  194.5660  169.7170  146.1220 C   0  0  0  0  0  2  0  0  0  0  0  0
  1 26  1  0  0  0  0
  3  7  1  1  0  0  0
  3 19  1  0  0  0  0
  3 16  1  0  0  0  0
  4 23  2  0  0  0  0
  5 11  1  6  0  0  0
  5 15  1  0  0  0  0
  7  6  1  0  0  0  0
  8 12  1  0  0  0  0
  9 27  1  1  0  0  0
 10 17  1  0  0  0  0
 13 24  1  6  0  0  0
 13 20  1  0  0  0  0
 13  9  1  0  0  0  0
 14  2  1  0  0  0  0
 15 12  1  1  0  0  0
 15  4  1  0  0  0  0
 16  8  1  0  0  0  0
 17 25  1  0  0  0  0
 17 28  1  1  0  0  0
 18  4  1  0  0  0  0
 18  1  2  0  0  0  0
 19  6  1  1  0  0  0
 19  5  1  0  0  0  0
 20 11  1  1  0  0  0
 20 18  1  0  0  0  0
 22 24  1  0  0  0  0
 22 10  1  0  0  0  0
 23 21  1  0  0  0  0
 25  9  1  0  0  0  0
 25 14  1  1  0  0  0
 26 21  2  0  0  0  0
 27  1  1  0  0  0  0
 27  2  1  0  0  0  0
 28 29  1  0  0  0  0
 30 33  1  0  0  0  0
 31 33  1  0  0  0  0
 32 29  1  6  0  0  0
 32 31  1  0  0  0  0
 32 34  1  0  0  0  0
 34 30  1  0  0  0  0
M  END
>  <MODEL>
4

>  <REMARK>
 VINA RESULT:      -7.9      2.842      5.081
  Name = 
  3 active torsions:
  status: ('A' for Active; 'I' for Inactive)
    1  A    between atoms: C_17  and  O_28
    2  A    between atoms: O_28  and  C_29
    3  A    between atoms: C_29  and  C_32
                            x       y       z     vdW  Elec       q    Type
                         _______ _______ _______ _____ _____    ______ ____

>  <TORSDO>
F 3

$$$$
=
 OpenBabel11112417513D

 34 41  0  0  1  0  0  0  0  0999 V2000
  190.9940  172.7730  142.8230 C   0  0  0  0  0  0  0  0  0  0  0  0
  188.6970  173.5490  142.0530 C   0  0  0  0  0  2  0  0  0  0  0  0
  197.0290  174.1960  145.4670 C   0  0  2  0  0  3  0  0  0  0  0  0
  193.0820  172.1620  143.8910 C   0  0  0  0  0  0  0  0  0  0  0  0
  194.4620  173.9190  145.1580 C   0  0  1  0  0  3  0  0  0  0  0  0
  196.1940  174.5630  143.5550 O   0  0  0  0  0  0  0  0  0  0  0  0
  197.4320  174.0750  144.0170 C   0  0  0  0  0  2  0  0  0  0  0  0
  196.5600  171.6360  145.3710 C   0  0  0  0  0  2  0  0  0  0  0  0
  190.4790  175.1780  142.2610 C   0  0  2  0  0  3  0  0  0  0  0  0
  189.5260  177.8680  143.8590 C   0  0  0  0  0  2  0  0  0  0  0  0
  193.2200  174.7980  144.9620 C   0  0  0  0  0  2  0  0  0  0  0  0
  195.0480  171.4850  145.3150 C   0  0  0  0  0  2  0  0  0  0  0  0
  191.3770  175.5660  143.4540 C   0  0  1  0  0  3  0  0  0  0  0  0
  188.1130  174.9120  141.7220 C   0  0  0  0  0  2  0  0  0  0  0  0
  194.4380  172.5570  144.4250 C   0  0  1  0  0  3  0  0  0  0  0  0
  196.9710  172.8450  146.2120 C   0  0  0  0  0  2  0  0  0  0  0  0
  188.6930  176.6330  143.4710 C   0  0  1  0  0  3  0  0  0  0  0  0
  192.1980  173.1550  143.4370 C   0  0  0  0  0  0  0  0  0  0  0  0
  195.7370  174.7290  144.8760 C   0  0  2  0  0  3  0  0  0  0  0  0
  192.5760  174.6110  143.5900 C   0  0  2  0  0  3  0  0  0  0  0  0
  191.5830  170.4600  143.1680 C   0  0  0  0  0  3  0  0  0  0  0  0
  190.8050  178.0500  143.0390 C   0  0  0  0  0  2  0  0  0  0  0  0
  192.7580  170.8470  143.7310 N   0  0  0  0  0  0  0  0  0  0  0  0
  191.8820  177.0140  143.3660 C   0  0  0  0  0  2  0  0  0  0  0  0
  189.1470  175.9440  142.1640 C   0  0  1  0  0  3  0  0  0  0  0  0
  190.6790  171.4160  142.7040 C   0  0  0  0  0  3  0  0  0  0  0  0
  190.1000  173.7810  142.3370 N   0  0  0  0  0  0  0  0  0  0  0  0
  188.6570  175.7280  144.5400 O   0  0  0  0  0  0  0  0  0  0  0  0
  187.9110  176.3660  145.5340 C   0  0  0  0  0  2  0  0  0  0  0  0
  190.6750  175.1500  147.2200 C   0  0  0  0  0  2  0  0  0  0  0  0
  189.5910  177.0950  147.1980 C   0  0  0  0  0  2  0  0  0  0  0  0
  188.5170  176.0800  146.8970 C   0  0  2  0  0  3  0  0  0  0  0  0
  190.6720  176.4300  147.7920 O   0  0  0  0  0  0  0  0  0  0  0  0
  189.2510  174.7710  146.8880 C   0  0  0  0  0  2  0  0  0  0  0  0
  1 18  1  0  0  0  0
  2 27  1  0  0  0  0
  3  7  1  6  0  0  0
  3 16  1  0  0  0  0
  4 15  1  0  0  0  0
  5 11  1  6  0  0  0
  6  7  1  0  0  0  0
  8 16  1  0  0  0  0
  9 27  1  1  0  0  0
  9 13  1  0  0  0  0
 12  8  1  0  0  0  0
 13 24  1  6  0  0  0
 13 20  1  0  0  0  0
 14  2  1  0  0  0  0
 15  5  1  0  0  0  0
 15 12  1  1  0  0  0
 17 10  1  0  0  0  0
 17 28  1  1  0  0  0
 18 20  1  0  0  0  0
 18  4  2  0  0  0  0
 19  6  1  6  0  0  0
 19  5  1  0  0  0  0
 19  3  1  0  0  0  0
 20 11  1  1  0  0  0
 21 23  2  0  0  0  0
 22 24  1  0  0  0  0
 22 10  1  0  0  0  0
 23  4  1  0  0  0  0
 25 14  1  1  0  0  0
 25  9  1  0  0  0  0
 25 17  1  0  0  0  0
 26  1  2  0  0  0  0
 26 21  1  0  0  0  0
 27  1  1  0  0  0  0
 28 29  1  0  0  0  0
 30 33  1  0  0  0  0
 31 33  1  0  0  0  0
 32 29  1  6  0  0  0
 32 31  1  0  0  0  0
 34 32  1  0  0  0  0
 34 30  1  0  0  0  0
M  END
>  <MODEL>
5

>  <REMARK>
 VINA RESULT:      -7.8      2.465      7.694
  Name = 
  3 active torsions:
  status: ('A' for Active; 'I' for Inactive)
    1  A    between atoms: C_17  and  O_28
    2  A    between atoms: O_28  and  C_29
    3  A    between atoms: C_29  and  C_32
                            x       y       z     vdW  Elec       q    Type
                         _______ _______ _______ _____ _____    ______ ____

>  <TORSDO>
F 3

$$$$
=
 OpenBabel11112417513D

 34 41  0  0  1  0  0  0  0  0999 V2000
  189.6470  174.6920  142.1540 C   0  0  0  0  0  0  0  0  0  0  0  0
  188.6970  176.9800  142.7310 C   0  0  0  0  0  2  0  0  0  0  0  0
  193.4880  169.4050  143.8060 C   0  0  2  0  0  3  0  0  0  0  0  0
  190.3790  172.3950  141.9100 C   0  0  0  0  0  0  0  0  0  0  0  0
  191.6160  171.2100  143.8240 C   0  0  1  0  0  3  0  0  0  0  0  0
  193.9700  171.3690  143.1790 O   0  0  0  0  0  0  0  0  0  0  0  0
  194.4270  170.0810  142.8370 C   0  0  0  0  0  2  0  0  0  0  0  0
  191.9740  168.9320  141.7390 C   0  0  0  0  0  2  0  0  0  0  0  0
  190.6810  176.2060  143.8870 C   0  0  2  0  0  3  0  0  0  0  0  0
  190.4850  176.6390  147.1230 C   0  0  0  0  0  2  0  0  0  0  0  0
  191.2140  172.4490  144.6330 C   0  0  0  0  0  2  0  0  0  0  0  0
  190.8170  169.9140  141.8290 C   0  0  0  0  0  2  0  0  0  0  0  0
  190.9500  174.9360  144.7200 C   0  0  1  0  0  3  0  0  0  0  0  0
  189.0740  178.0380  143.7530 C   0  0  0  0  0  2  0  0  0  0  0  0
  191.3060  171.2720  142.3100 C   0  0  1  0  0  3  0  0  0  0  0  0
  192.4450  168.4920  143.1260 C   0  0  0  0  0  2  0  0  0  0  0  0
  189.4730  177.0410  146.0350 C   0  0  1  0  0  3  0  0  0  0  0  0
  190.4180  173.6110  142.6110 C   0  0  0  0  0  0  0  0  0  0  0  0
  193.0750  170.8300  144.1220 C   0  0  2  0  0  3  0  0  0  0  0  0
  191.3130  173.7400  143.8230 C   0  0  2  0  0  3  0  0  0  0  0  0
  188.8170  173.3070  140.3620 C   0  0  0  0  0  3  0  0  0  0  0  0
  191.9080  176.4140  146.6100 C   0  0  0  0  0  2  0  0  0  0  0  0
  189.5930  172.2820  140.8010 N   0  0  0  0  0  0  0  0  0  0  0  0
  192.0520  175.1420  145.7710 C   0  0  0  0  0  2  0  0  0  0  0  0
  190.1110  177.4010  144.6740 C   0  0  1  0  0  3  0  0  0  0  0  0
  188.8290  174.5310  141.0310 C   0  0  0  0  0  3  0  0  0  0  0  0
  189.7030  175.9420  142.8510 N   0  0  0  0  0  0  0  0  0  0  0  0
  188.5010  176.0420  145.8960 O   0  0  0  0  0  0  0  0  0  0  0  0
  187.5470  176.3200  146.8780 C   0  0  0  0  0  2  0  0  0  0  0  0
  184.4410  177.7960  146.5130 C   0  0  0  0  0  2  0  0  0  0  0  0
  186.2240  178.2060  147.7830 C   0  0  0  0  0  2  0  0  0  0  0  0
  186.8050  177.5980  146.5300 C   0  0  2  0  0  3  0  0  0  0  0  0
  184.9350  178.6720  147.4900 O   0  0  0  0  0  0  0  0  0  0  0  0
  185.6020  177.2990  145.6830 C   0  0  0  0  0  2  0  0  0  0  0  0
  1 18  1  0  0  0  0
  1 27  1  0  0  0  0
  2 27  1  0  0  0  0
  2 14  1  0  0  0  0
  3  7  1  6  0  0  0
  3 19  1  0  0  0  0
  4 15  1  0  0  0  0
  4 18  2  0  0  0  0
  5 19  1  0  0  0  0
  5 11  1  6  0  0  0
  7  6  1  0  0  0  0
  8 12  1  0  0  0  0
  8 16  1  0  0  0  0
  9 27  1  6  0  0  0
  9 25  1  0  0  0  0
  9 13  1  0  0  0  0
 13 24  1  1  0  0  0
 15 12  1  1  0  0  0
 15  5  1  0  0  0  0
 16  3  1  0  0  0  0
 17 28  1  6  0  0  0
 17 10  1  0  0  0  0
 18 20  1  0  0  0  0
 19  6  1  6  0  0  0
 20 11  1  1  0  0  0
 20 13  1  0  0  0  0
 21 23  2  0  0  0  0
 21 26  1  0  0  0  0
 22 10  1  0  0  0  0
 23  4  1  0  0  0  0
 24 22  1  0  0  0  0
 25 14  1  6  0  0  0
 25 17  1  0  0  0  0
 26  1  2  0  0  0  0
 28 29  1  0  0  0  0
 30 33  1  0  0  0  0
 32 29  1  1  0  0  0
 32 31  1  0  0  0  0
 33 31  1  0  0  0  0
 34 30  1  0  0  0  0
 34 32  1  0  0  0  0
M  END
>  <MODEL>
6

>  <REMARK>
 VINA RESULT:      -7.8      2.645      7.708
  Name = 
  3 active torsions:
  status: ('A' for Active; 'I' for Inactive)
    1  A    between atoms: C_17  and  O_28
    2  A    between atoms: O_28  and  C_29
    3  A    between atoms: C_29  and  C_32
                            x       y       z     vdW  Elec       q    Type
                         _______ _______ _______ _____ _____    ______ ____

>  <TORSDO>
F 3

$$$$
=
 OpenBabel11112417513D

 34 41  0  0  1  0  0  0  0  0999 V2000
  191.1760  172.9330  143.9260 C   0  0  0  0  0  0  0  0  0  0  0  0
  193.4520  171.8730  144.3310 C   0  0  0  0  0  2  0  0  0  0  0  0
  187.1020  178.2900  144.3160 C   0  0  2  0  0  3  0  0  0  0  0  0
  189.1890  174.1840  143.3230 C   0  0  0  0  0  0  0  0  0  0  0  0
  189.0830  176.7230  143.6970 C   0  0  1  0  0  3  0  0  0  0  0  0
  187.8310  176.9490  145.7860 O   0  0  0  0  0  0  0  0  0  0  0  0
  186.5700  177.5050  145.4910 C   0  0  0  0  0  2  0  0  0  0  0  0
  186.1170  176.3930  142.8270 C   0  0  0  0  0  2  0  0  0  0  0  0
  192.8460  173.8650  145.5720 C   0  0  2  0  0  3  0  0  0  0  0  0
  195.2280  176.1060  145.5700 C   0  0  0  0  0  2  0  0  0  0  0  0
  190.5790  176.5760  144.0010 C   0  0  0  0  0  2  0  0  0  0  0  0
  187.3010  175.5550  142.3710 C   0  0  0  0  0  2  0  0  0  0  0  0
  192.4040  175.2670  145.1040 C   0  0  1  0  0  3  0  0  0  0  0  0
  194.6430  172.2560  145.1940 C   0  0  0  0  0  2  0  0  0  0  0  0
  188.3090  175.3980  143.4990 C   0  0  1  0  0  3  0  0  0  0  0  0
  186.4940  177.8690  142.9610 C   0  0  0  0  0  2  0  0  0  0  0  0
  195.2320  174.6960  144.9510 C   0  0  1  0  0  3  0  0  0  0  0  0
  190.4240  174.1170  143.9910 C   0  0  0  0  0  0  0  0  0  0  0  0
  188.4210  177.6570  144.7210 C   0  0  2  0  0  3  0  0  0  0  0  0
  190.8980  175.3090  144.7910 C   0  0  2  0  0  3  0  0  0  0  0  0
  189.4740  171.9600  142.5220 C   0  0  0  0  0  3  0  0  0  0  0  0
  194.1780  176.3130  146.6640 C   0  0  0  0  0  2  0  0  0  0  0  0
  188.7440  173.1020  142.6220 N   0  0  0  0  0  0  0  0  0  0  0  0
  192.7480  176.3640  146.1230 C   0  0  0  0  0  2  0  0  0  0  0  0
  194.3670  173.6650  145.7110 C   0  0  1  0  0  3  0  0  0  0  0  0
  190.7030  171.8550  143.1710 C   0  0  0  0  0  3  0  0  0  0  0  0
  192.4230  172.8510  144.6250 N   0  0  0  0  0  0  0  0  0  0  0  0
  194.8730  174.7680  143.5990 O   0  0  0  0  0  0  0  0  0  0  0  0
  195.6010  175.8430  143.0840 C   0  0  0  0  0  2  0  0  0  0  0  0
  194.7730  174.1280  140.1960 C   0  0  0  0  0  2  0  0  0  0  0  0
  195.0520  176.2770  140.7100 C   0  0  0  0  0  2  0  0  0  0  0  0
  195.9920  175.5580  141.6440 C   0  0  2  0  0  3  0  0  0  0  0  0
  194.7430  175.4180  139.6460 O   0  0  0  0  0  0  0  0  0  0  0  0
  195.7870  174.1070  141.3160 C   0  0  0  0  0  2  0  0  0  0  0  0
  1 18  1  0  0  0  0
  1 27  1  0  0  0  0
  2 27  1  0  0  0  0
  2 14  1  0  0  0  0
  3 16  1  6  0  0  0
  3 19  1  0  0  0  0
  3  7  1  0  0  0  0
  4 15  1  0  0  0  0
  4 18  2  0  0  0  0
  5 11  1  1  0  0  0
  5 19  1  0  0  0  0
  7  6  1  0  0  0  0
  8 16  1  0  0  0  0
  9 27  1  6  0  0  0
  9 25  1  0  0  0  0
 10 22  1  0  0  0  0
 12  8  1  0  0  0  0
 13  9  1  0  0  0  0
 13 24  1  1  0  0  0
 15 12  1  6  0  0  0
 15  5  1  0  0  0  0
 17 28  1  6  0  0  0
 17 10  1  0  0  0  0
 17 25  1  0  0  0  0
 18 20  1  0  0  0  0
 19  6  1  1  0  0  0
 20 11  1  6  0  0  0
 20 13  1  0  0  0  0
 21 23  2  0  0  0  0
 21 26  1  0  0  0  0
 23  4  1  0  0  0  0
 24 22  1  0  0  0  0
 25 14  1  6  0  0  0
 26  1  2  0  0  0  0
 29 28  1  0  0  0  0
 30 34  1  0  0  0  0
 31 32  1  0  0  0  0
 32 29  1  1  0  0  0
 33 30  1  0  0  0  0
 33 31  1  0  0  0  0
 34 32  1  0  0  0  0
M  END
>  <MODEL>
7

>  <REMARK>
 VINA RESULT:      -7.8      1.656      2.611
  Name = 
  3 active torsions:
  status: ('A' for Active; 'I' for Inactive)
    1  A    between atoms: C_17  and  O_28
    2  A    between atoms: O_28  and  C_29
    3  A    between atoms: C_29  and  C_32
                            x       y       z     vdW  Elec       q    Type
                         _______ _______ _______ _____ _____    ______ ____

>  <TORSDO>
F 3

$$$$
=
 OpenBabel11112417513D

 34 41  0  0  1  0  0  0  0  0999 V2000
  191.9660  176.1890  145.9920 C   0  0  0  0  0  0  0  0  0  0  0  0
  194.1980  175.0430  145.5760 C   0  0  0  0  0  2  0  0  0  0  0  0
  185.6400  177.4770  144.0520 C   0  0  2  0  0  3  0  0  0  0  0  0
  189.6950  176.9380  146.3900 C   0  0  0  0  0  0  0  0  0  0  0  0
  187.7950  176.2350  144.8100 C   0  0  1  0  0  3  0  0  0  0  0  0
  187.5120  178.1740  143.3460 O   0  0  0  0  0  0  0  0  0  0  0  0
  186.2790  178.7850  143.6490 C   0  0  0  0  0  2  0  0  0  0  0  0
  186.0990  178.2110  146.5090 C   0  0  0  0  0  2  0  0  0  0  0  0
  192.6840  175.3770  143.7140 C   0  0  2  0  0  3  0  0  0  0  0  0
  192.3250  172.6770  141.9020 C   0  0  0  0  0  2  0  0  0  0  0  0
  188.8510  175.2910  144.2240 C   0  0  0  0  0  2  0  0  0  0  0  0
  187.2870  177.3870  146.9810 C   0  0  0  0  0  2  0  0  0  0  0  0
  191.2200  174.9420  143.4950 C   0  0  1  0  0  3  0  0  0  0  0  0
  194.8350  174.4140  144.3490 C   0  0  0  0  0  2  0  0  0  0  0  0
  188.3110  177.2410  145.8660 C   0  0  1  0  0  3  0  0  0  0  0  0
  185.2210  177.4220  145.5370 C   0  0  0  0  0  2  0  0  0  0  0  0
  193.2300  172.9000  143.1280 C   0  0  1  0  0  3  0  0  0  0  0  0
  190.6460  176.3490  145.5390 C   0  0  0  0  0  0  0  0  0  0  0  0
  186.9970  176.9080  143.6830 C   0  0  2  0  0  3  0  0  0  0  0  0
  190.2360  175.9310  144.1460 C   0  0  2  0  0  3  0  0  0  0  0  0
  191.3310  177.1650  148.1040 C   0  0  0  0  0  3  0  0  0  0  0  0
  191.8840  173.9620  141.1990 C   0  0  0  0  0  2  0  0  0  0  0  0
  190.0670  177.3400  147.6380 N   0  0  0  0  0  0  0  0  0  0  0  0
  190.8700  174.7730  142.0090 C   0  0  0  0  0  2  0  0  0  0  0  0
  193.7470  174.3490  143.2810 C   0  0  1  0  0  3  0  0  0  0  0  0
  192.3040  176.5850  147.2900 C   0  0  0  0  0  3  0  0  0  0  0  0
  192.9450  175.6110  145.1200 N   0  0  0  0  0  0  0  0  0  0  0  0
  192.5770  172.4650  144.2880 O   0  0  0  0  0  0  0  0  0  0  0  0
  192.6390  171.0700  144.2410 C   0  0  0  0  0  2  0  0  0  0  0  0
  194.9420  169.6240  146.3780 C   0  0  0  0  0  2  0  0  0  0  0  0
  194.1370  169.1040  144.3680 C   0  0  0  0  0  2  0  0  0  0  0  0
  194.0770  170.6120  144.4020 C   0  0  2  0  0  3  0  0  0  0  0  0
  195.0410  168.6770  145.3500 O   0  0  0  0  0  0  0  0  0  0  0  0
  194.5970  170.9620  145.7660 C   0  0  0  0  0  2  0  0  0  0  0  0
  1 26  1  0  0  0  0
  3  7  1  1  0  0  0
  3 16  1  0  0  0  0
  4 23  2  0  0  0  0
  5 11  1  6  0  0  0
  5 15  1  0  0  0  0
  6  7  1  0  0  0  0
  8 12  1  0  0  0  0
  9 27  1  1  0  0  0
 10 17  1  0  0  0  0
 13 24  1  6  0  0  0
 13  9  1  0  0  0  0
 13 20  1  0  0  0  0
 14  2  1  0  0  0  0
 15  4  1  0  0  0  0
 15 12  1  1  0  0  0
 16  8  1  0  0  0  0
 17 25  1  0  0  0  0
 17 28  1  1  0  0  0
 18  1  2  0  0  0  0
 18  4  1  0  0  0  0
 19  6  1  1  0  0  0
 19  3  1  0  0  0  0
 19  5  1  0  0  0  0
 20 11  1  1  0  0  0
 20 18  1  0  0  0  0
 22 10  1  0  0  0  0
 22 24  1  0  0  0  0
 23 21  1  0  0  0  0
 25  9  1  0  0  0  0
 25 14  1  1  0  0  0
 26 21  2  0  0  0  0
 27  2  1  0  0  0  0
 27  1  1  0  0  0  0
 29 28  1  0  0  0  0
 31 32  1  0  0  0  0
 31 33  1  0  0  0  0
 32 29  1  1  0  0  0
 32 34  1  0  0  0  0
 33 30  1  0  0  0  0
 34 30  1  0  0  0  0
M  END
>  <MODEL>
8

>  <REMARK>
 VINA RESULT:      -7.8      2.585      4.827
  Name = 
  3 active torsions:
  status: ('A' for Active; 'I' for Inactive)
    1  A    between atoms: C_17  and  O_28
    2  A    between atoms: O_28  and  C_29
    3  A    between atoms: C_29  and  C_32
                            x       y       z     vdW  Elec       q    Type
                         _______ _______ _______ _____ _____    ______ ____

>  <TORSDO>
F 3

$$$$
=
 OpenBabel11112417513D

 34 41  0  0  1  0  0  0  0  0999 V2000
  192.2930  176.0830  145.8120 C   0  0  0  0  0  0  0  0  0  0  0  0
  189.9290  176.1920  146.7450 C   0  0  0  0  0  2  0  0  0  0  0  0
  196.4790  174.6250  140.7340 C   0  0  2  0  0  3  0  0  0  0  0  0
  194.4230  176.2150  144.6640 C   0  0  0  0  0  0  0  0  0  0  0  0
  194.5850  175.7030  142.1520 C   0  0  1  0  0  3  0  0  0  0  0  0
  195.4000  173.3980  142.0820 O   0  0  0  0  0  0  0  0  0  0  0  0
  196.7210  173.4080  141.5930 C   0  0  0  0  0  2  0  0  0  0  0  0
  197.6440  175.9800  142.6300 C   0  0  0  0  0  2  0  0  0  0  0  0
  190.3760  174.7590  144.8430 C   0  0  2  0  0  3  0  0  0  0  0  0
  188.1650  175.1250  142.4610 C   0  0  0  0  0  2  0  0  0  0  0  0
  193.0520  175.7100  142.2180 C   0  0  0  0  0  2  0  0  0  0  0  0
  196.5330  176.7030  143.3760 C   0  0  0  0  0  2  0  0  0  0  0  0
  190.9760  175.0590  143.4530 C   0  0  1  0  0  3  0  0  0  0  0  0
  188.6100  175.5660  146.3220 C   0  0  0  0  0  2  0  0  0  0  0  0
  195.3120  175.8070  143.5130 C   0  0  1  0  0  3  0  0  0  0  0  0
  197.3260  175.8510  141.1400 C   0  0  0  0  0  2  0  0  0  0  0  0
  188.2110  175.8010  143.8430 C   0  0  1  0  0  3  0  0  0  0  0  0
  193.0770  175.8110  144.6800 C   0  0  0  0  0  0  0  0  0  0  0  0
  195.0750  174.5220  141.3000 C   0  0  2  0  0  3  0  0  0  0  0  0
  192.5140  175.0630  143.4930 C   0  0  2  0  0  3  0  0  0  0  0  0
  194.1900  177.1660  146.8340 C   0  0  0  0  0  3  0  0  0  0  0  0
  188.9810  173.8350  142.3600 C   0  0  0  0  0  2  0  0  0  0  0  0
  194.9430  176.8660  145.7430 N   0  0  0  0  0  0  0  0  0  0  0  0
  190.4920  174.0760  142.3770 C   0  0  0  0  0  2  0  0  0  0  0  0
  188.8500  174.9350  144.9540 C   0  0  1  0  0  3  0  0  0  0  0  0
  192.8500  176.7800  146.8880 C   0  0  0  0  0  3  0  0  0  0  0  0
  190.9270  175.6510  145.8440 N   0  0  0  0  0  0  0  0  0  0  0  0
  188.8390  177.0490  143.7430 O   0  0  0  0  0  0  0  0  0  0  0  0
  187.8540  177.9160  143.2640 C   0  0  0  0  0  2  0  0  0  0  0  0
  185.0080  179.4090  144.5420 C   0  0  0  0  0  2  0  0  0  0  0  0
  185.3900  177.7870  143.0640 C   0  0  0  0  0  2  0  0  0  0  0  0
  186.5560  177.6890  144.0180 C   0  0  2  0  0  3  0  0  0  0  0  0
  184.3600  178.4950  143.6980 O   0  0  0  0  0  0  0  0  0  0  0  0
  186.3110  178.7980  145.0000 C   0  0  0  0  0  2  0  0  0  0  0  0
  1 27  1  0  0  0  0
  1 26  1  0  0  0  0
  3 16  1  1  0  0  0
  3 19  1  0  0  0  0
  3  7  1  0  0  0  0
  4 18  1  0  0  0  0
  4 23  2  0  0  0  0
  5 11  1  1  0  0  0
  5 15  1  0  0  0  0
  7  6  1  0  0  0  0
  8 12  1  0  0  0  0
  9 25  1  0  0  0  0
  9 27  1  1  0  0  0
 10 17  1  0  0  0  0
 13 24  1  6  0  0  0
 13 20  1  0  0  0  0
 13  9  1  0  0  0  0
 14  2  1  0  0  0  0
 15 12  1  6  0  0  0
 15  4  1  0  0  0  0
 16  8  1  0  0  0  0
 17 28  1  6  0  0  0
 17 25  1  0  0  0  0
 18  1  2  0  0  0  0
 19  6  1  1  0  0  0
 19  5  1  0  0  0  0
 20 11  1  6  0  0  0
 20 18  1  0  0  0  0
 21 26  2  0  0  0  0
 22 24  1  0  0  0  0
 22 10  1  0  0  0  0
 23 21  1  0  0  0  0
 25 14  1  1  0  0  0
 27  2  1  0  0  0  0
 29 28  1  0  0  0  0
 30 34  1  0  0  0  0
 31 33  1  0  0  0  0
 31 32  1  0  0  0  0
 32 29  1  6  0  0  0
 32 34  1  0  0  0  0
 33 30  1  0  0  0  0
M  END
>  <MODEL>
9

>  <REMARK>
 VINA RESULT:      -7.7      1.980      8.391
  Name = 
  3 active torsions:
  status: ('A' for Active; 'I' for Inactive)
    1  A    between atoms: C_17  and  O_28
    2  A    between atoms: O_28  and  C_29
    3  A    between atoms: C_29  and  C_32
                            x       y       z     vdW  Elec       q    Type
                         _______ _______ _______ _____ _____    ______ ____

>  <TORSDO>
F 3

$$$$
