=
 OpenBabel11112416113D

 30 35  0  0  1  0  0  0  0  0999 V2000
  187.2280  176.6300  144.1300 C   0  0  1  0  0  3  0  0  0  0  0  0
  185.3840  177.8240  145.2020 C   0  0  0  0  0  0  0  0  0  0  0  0
  189.6890  177.3430  147.4620 N   0  0  0  0  0  0  0  0  0  0  0  0
  188.5890  175.9550  144.2120 C   0  0  1  0  0  3  0  0  0  0  0  0
  186.4490  176.4030  142.9460 N   0  0  0  0  0  2  0  0  0  0  0  0
  188.0180  173.8640  142.0430 C   0  0  0  0  0  1  0  0  0  0  0  0
  191.6990  176.4510  143.2390 C   0  0  1  0  0  3  0  0  0  0  0  0
  188.3390  175.3250  141.7610 C   0  0  1  0  0  3  0  0  0  0  0  0
  191.8440  176.6890  144.7460 C   0  0  2  0  0  3  0  0  0  0  0  0
  190.8480  176.6430  147.0320 C   0  0  0  0  0  0  0  0  0  0  0  0
  187.0410  176.1250  141.6360 C   0  0  2  0  0  3  0  0  0  0  0  0
  189.2540  175.9490  142.8280 C   0  0  2  0  0  3  0  0  0  0  0  0
  184.8880  178.4970  146.3220 C   0  0  0  0  0  3  0  0  0  0  0  0
  193.1000  176.2030  145.1480 O   0  0  0  0  0  0  0  0  0  0  0  0
  193.0840  176.0890  142.7920 C   0  0  0  0  0  2  0  0  0  0  0  0
  184.5180  177.6470  144.1290 O   0  0  0  0  0  1  0  0  0  0  0  0
  188.8290  177.2400  146.3370 C   0  0  0  0  0  0  0  0  0  0  0  0
  185.6900  178.7120  147.4370 C   0  0  0  0  0  3  0  0  0  0  0  0
  186.7220  177.3350  145.1870 C   0  0  0  0  0  0  0  0  0  0  0  0
  189.4260  176.5960  145.2210 N   0  0  0  0  0  0  0  0  0  0  0  0
  191.8440  176.4630  147.7800 O   0  0  0  0  0  0  0  0  0  0  0  0
  190.7370  176.1090  145.6350 C   0  0  1  0  0  3  0  0  0  0  0  0
  193.9250  176.3300  144.0220 C   0  0  0  0  0  2  0  0  0  0  0  0
  190.8560  174.0240  143.4200 C   0  0  0  0  0  1  0  0  0  0  0  0
  187.0080  178.2700  147.4390 C   0  0  0  0  0  3  0  0  0  0  0  0
  187.5410  177.6040  146.3270 C   0  0  0  0  0  0  0  0  0  0  0  0
  190.6830  175.3990  142.7730 C   0  0  2  0  0  3  0  0  0  0  0  0
  187.3040  177.4300  140.8920 C   0  0  0  0  0  2  0  0  0  0  0  0
  184.9980  178.2510  140.4090 C   0  0  0  0  0  1  0  0  0  0  0  0
  186.2630  177.6670  139.8090 C   0  0  0  0  0  2  0  0  0  0  0  0
  1  5  1  1  0  0  0
  1  4  1  0  0  0  0
  1 19  1  0  0  0  0
  2 13  1  0  0  0  0
  4 20  1  1  0  0  0
  7 15  1  1  0  0  0
  7  9  1  0  0  0  0
  8  6  1  1  0  0  0
  8 12  1  0  0  0  0
  9 14  1  1  0  0  0
  9 22  1  0  0  0  0
 10  3  1  0  0  0  0
 10 21  2  0  0  0  0
 11 28  1  1  0  0  0
 11  8  1  0  0  0  0
 11  5  1  0  0  0  0
 12  4  1  0  0  0  0
 13 18  2  0  0  0  0
 15 23  1  0  0  0  0
 16  2  1  0  0  0  0
 17  3  2  0  0  0  0
 18 25  1  0  0  0  0
 19  2  2  0  0  0  0
 19 26  1  0  0  0  0
 20 22  1  0  0  0  0
 20 17  1  0  0  0  0
 22 10  1  0  0  0  0
 23 14  1  0  0  0  0
 26 17  1  0  0  0  0
 26 25  2  0  0  0  0
 27 12  1  0  0  0  0
 27  7  1  0  0  0  0
 27 24  1  0  0  0  0
 30 29  1  0  0  0  0
 30 28  1  0  0  0  0
M  END
>  <MODEL>
1

>  <REMARK>
 VINA RESULT:      -8.9      0.000      0.000
  Name = 
  2 active torsions:
  status: ('A' for Active; 'I' for Inactive)
    1  A    between atoms: C_11  and  C_28
    2  A    between atoms: C_28  and  C_30
                            x       y       z     vdW  Elec       q    Type
                         _______ _______ _______ _____ _____    ______ ____

>  <TORSDO>
F 2

$$$$
=
 OpenBabel11112416113D

 30 35  0  0  1  0  0  0  0  0999 V2000
  190.2380  175.4110  143.2670 C   0  0  1  0  0  3  0  0  0  0  0  0
  192.4030  174.2790  143.1970 C   0  0  0  0  0  0  0  0  0  0  0  0
  191.0780  176.8850  147.1130 N   0  0  0  0  0  0  0  0  0  0  0  0
  189.2990  176.4270  143.8990 C   0  0  1  0  0  3  0  0  0  0  0  0
  189.8770  174.8930  141.9780 N   0  0  0  0  0  2  0  0  0  0  0  0
  187.8650  177.1750  141.2940 C   0  0  0  0  0  1  0  0  0  0  0  0
  186.5440  176.5110  145.7080 C   0  0  1  0  0  3  0  0  0  0  0  0
  187.6130  175.8910  142.0730 C   0  0  1  0  0  3  0  0  0  0  0  0
  187.5690  176.9670  146.7520 C   0  0  2  0  0  3  0  0  0  0  0  0
  189.9000  177.6530  147.3150 C   0  0  0  0  0  0  0  0  0  0  0  0
  188.4920  174.7690  141.5200 C   0  0  2  0  0  3  0  0  0  0  0  0
  187.8410  176.0590  143.5830 C   0  0  2  0  0  3  0  0  0  0  0  0
  193.6310  174.0130  143.8090 C   0  0  0  0  0  3  0  0  0  0  0  0
  186.9550  177.9200  147.5830 O   0  0  0  0  0  0  0  0  0  0  0  0
  185.2390  177.0470  146.2190 C   0  0  0  0  0  2  0  0  0  0  0  0
  192.1880  173.7380  141.9350 O   0  0  0  0  0  1  0  0  0  0  0  0
  190.8290  176.2600  145.8610 C   0  0  0  0  0  0  0  0  0  0  0  0
  193.9240  174.5200  145.0700 C   0  0  0  0  0  3  0  0  0  0  0  0
  191.4310  175.0880  143.8520 C   0  0  0  0  0  0  0  0  0  0  0  0
  189.5400  176.5330  145.3340 N   0  0  0  0  0  0  0  0  0  0  0  0
  189.7490  178.4070  148.3100 O   0  0  0  0  0  0  0  0  0  0  0  0
  188.8970  177.5080  146.2090 C   0  0  1  0  0  3  0  0  0  0  0  0
  185.5920  177.5900  147.5820 C   0  0  0  0  0  2  0  0  0  0  0  0
  186.9640  178.4340  144.0470 C   0  0  0  0  0  1  0  0  0  0  0  0
  192.9820  175.2880  145.7440 C   0  0  0  0  0  3  0  0  0  0  0  0
  191.7370  175.5640  145.1650 C   0  0  0  0  0  0  0  0  0  0  0  0
  186.7710  176.9310  144.2480 C   0  0  2  0  0  3  0  0  0  0  0  0
  187.9240  173.4140  141.9280 C   0  0  0  0  0  2  0  0  0  0  0  0
  189.2160  171.9020  143.4360 C   0  0  0  0  0  1  0  0  0  0  0  0
  189.0160  172.3570  142.0020 C   0  0  0  0  0  2  0  0  0  0  0  0
  1  5  1  6  0  0  0
  1 19  1  0  0  0  0
  1  4  1  0  0  0  0
  2 13  2  0  0  0  0
  2 19  1  0  0  0  0
  3 10  1  0  0  0  0
  4 20  1  1  0  0  0
  7 15  1  1  0  0  0
  7  9  1  0  0  0  0
  8  6  1  6  0  0  0
  8 12  1  0  0  0  0
  9 14  1  6  0  0  0
 10 21  2  0  0  0  0
 11 28  1  1  0  0  0
 11  5  1  0  0  0  0
 11  8  1  0  0  0  0
 12  4  1  0  0  0  0
 12 27  1  0  0  0  0
 13 18  1  0  0  0  0
 15 23  1  0  0  0  0
 16  2  1  0  0  0  0
 17  3  2  0  0  0  0
 18 25  2  0  0  0  0
 19 26  2  0  0  0  0
 20 17  1  0  0  0  0
 20 22  1  0  0  0  0
 22  9  1  0  0  0  0
 22 10  1  0  0  0  0
 23 14  1  0  0  0  0
 24 27  1  0  0  0  0
 26 25  1  0  0  0  0
 26 17  1  0  0  0  0
 27  7  1  0  0  0  0
 28 30  1  0  0  0  0
 30 29  1  0  0  0  0
M  END
>  <MODEL>
2

>  <REMARK>
 VINA RESULT:      -8.3      1.874      5.621
  Name = 
  2 active torsions:
  status: ('A' for Active; 'I' for Inactive)
    1  A    between atoms: C_11  and  C_28
    2  A    between atoms: C_28  and  C_30
                            x       y       z     vdW  Elec       q    Type
                         _______ _______ _______ _____ _____    ______ ____

>  <TORSDO>
F 2

$$$$
=
 OpenBabel11112416113D

 30 35  0  0  1  0  0  0  0  0999 V2000
  188.1020  177.0550  143.6520 C   0  0  1  0  0  3  0  0  0  0  0  0
  186.2630  178.4470  142.8450 C   0  0  0  0  0  0  0  0  0  0  0  0
  188.1960  174.9780  139.9990 N   0  0  0  0  0  0  0  0  0  0  0  0
  189.2280  176.0680  143.3820 C   0  0  1  0  0  3  0  0  0  0  0  0
  188.0800  177.6950  144.9370 N   0  0  0  0  0  2  0  0  0  0  0  0
  191.0580  177.0790  145.6250 C   0  0  0  0  0  1  0  0  0  0  0  0
  189.9630  172.8970  143.9000 C   0  0  1  0  0  3  0  0  0  0  0  0
  189.8330  176.2030  145.8480 C   0  0  1  0  0  3  0  0  0  0  0  0
  189.7250  172.8770  142.3860 C   0  0  2  0  0  3  0  0  0  0  0  0
  189.2940  174.1170  140.2650 C   0  0  0  0  0  0  0  0  0  0  0  0
  188.6170  177.0790  146.1510 C   0  0  2  0  0  3  0  0  0  0  0  0
  189.5440  175.2740  144.6590 C   0  0  2  0  0  3  0  0  0  0  0  0
  185.4030  178.8030  141.8020 C   0  0  0  0  0  3  0  0  0  0  0  0
  190.6230  171.9600  141.8120 O   0  0  0  0  0  0  0  0  0  0  0  0
  190.8320  171.7000  144.1480 C   0  0  0  0  0  2  0  0  0  0  0  0
  186.1560  179.1640  144.0320 O   0  0  0  0  0  1  0  0  0  0  0  0
  188.0260  175.6550  141.2360 C   0  0  0  0  0  0  0  0  0  0  0  0
  185.4490  178.1370  140.5830 C   0  0  0  0  0  3  0  0  0  0  0  0
  187.2120  177.4000  142.6730 C   0  0  0  0  0  0  0  0  0  0  0  0
  188.8960  175.1970  142.2600 N   0  0  0  0  0  0  0  0  0  0  0  0
  189.7950  173.3710  139.3840 O   0  0  0  0  0  0  0  0  0  0  0  0
  189.8140  174.2300  141.6680 C   0  0  1  0  0  3  0  0  0  0  0  0
  190.8620  171.0030  142.8100 C   0  0  0  0  0  2  0  0  0  0  0  0
  191.8950  174.5990  143.8580 C   0  0  0  0  0  1  0  0  0  0  0  0
  186.3450  177.0910  140.3970 C   0  0  0  0  0  3  0  0  0  0  0  0
  187.2120  176.7010  141.4260 C   0  0  0  0  0  0  0  0  0  0  0  0
  190.5850  174.1590  144.5130 C   0  0  2  0  0  3  0  0  0  0  0  0
  187.5380  176.2510  146.8410 C   0  0  0  0  0  2  0  0  0  0  0  0
  185.1330  176.7500  146.4010 C   0  0  0  0  0  1  0  0  0  0  0  0
  186.3480  177.1130  147.2350 C   0  0  0  0  0  2  0  0  0  0  0  0
  1 19  1  6  0  0  0
  1  5  1  0  0  0  0
  2 16  1  0  0  0  0
  3 10  1  0  0  0  0
  3 17  2  0  0  0  0
  4 20  1  6  0  0  0
  4  1  1  0  0  0  0
  4 12  1  0  0  0  0
  5 11  1  0  0  0  0
  7 15  1  6  0  0  0
  7 27  1  0  0  0  0
  8  6  1  6  0  0  0
  8 11  1  0  0  0  0
  9 14  1  6  0  0  0
  9  7  1  0  0  0  0
 10 22  1  0  0  0  0
 11 28  1  6  0  0  0
 12  8  1  0  0  0  0
 13  2  2  0  0  0  0
 14 23  1  0  0  0  0
 17 26  1  0  0  0  0
 17 20  1  0  0  0  0
 18 13  1  0  0  0  0
 19  2  1  0  0  0  0
 21 10  2  0  0  0  0
 22 20  1  0  0  0  0
 22  9  1  0  0  0  0
 23 15  1  0  0  0  0
 24 27  1  0  0  0  0
 25 18  2  0  0  0  0
 25 26  1  0  0  0  0
 26 19  2  0  0  0  0
 27 12  1  0  0  0  0
 28 30  1  0  0  0  0
 29 30  1  0  0  0  0
M  END
>  <MODEL>
3

>  <REMARK>
 VINA RESULT:      -8.2      2.408      5.144
  Name = 
  2 active torsions:
  status: ('A' for Active; 'I' for Inactive)
    1  A    between atoms: C_11  and  C_28
    2  A    between atoms: C_28  and  C_30
                            x       y       z     vdW  Elec       q    Type
                         _______ _______ _______ _____ _____    ______ ____

>  <TORSDO>
F 2

$$$$
=
 OpenBabel11112416113D

 30 35  0  0  1  0  0  0  0  0999 V2000
  188.3000  175.7710  144.0490 C   0  0  1  0  0  3  0  0  0  0  0  0
  186.5300  176.8720  145.3230 C   0  0  0  0  0  0  0  0  0  0  0  0
  191.1450  176.9120  146.9250 N   0  0  0  0  0  0  0  0  0  0  0  0
  189.7160  175.2220  143.9590 C   0  0  1  0  0  3  0  0  0  0  0  0
  187.3820  175.3990  143.0100 N   0  0  0  0  0  2  0  0  0  0  0  0
  189.0340  172.9490  142.0160 C   0  0  0  0  0  1  0  0  0  0  0  0
  192.5890  175.9150  142.4990 C   0  0  1  0  0  3  0  0  0  0  0  0
  189.1700  174.4110  141.6110 C   0  0  1  0  0  3  0  0  0  0  0  0
  192.9310  176.2660  143.9520 C   0  0  2  0  0  3  0  0  0  0  0  0
  192.2890  176.2870  146.3620 C   0  0  0  0  0  0  0  0  0  0  0  0
  187.7990  175.0870  141.6430 C   0  0  2  0  0  3  0  0  0  0  0  0
  190.1690  175.1800  142.4910 C   0  0  2  0  0  3  0  0  0  0  0  0
  186.1410  177.5730  146.4680 C   0  0  0  0  0  3  0  0  0  0  0  0
  194.2720  175.9160  144.1840 O   0  0  0  0  0  0  0  0  0  0  0  0
  193.9220  175.6440  141.8670 C   0  0  0  0  0  2  0  0  0  0  0  0
  185.5360  176.5500  144.4050 O   0  0  0  0  0  1  0  0  0  0  0  0
  190.1430  176.6610  145.9510 C   0  0  0  0  0  0  0  0  0  0  0  0
  187.0740  177.9290  147.4360 C   0  0  0  0  0  3  0  0  0  0  0  0
  187.8900  176.4990  145.1320 C   0  0  0  0  0  0  0  0  0  0  0  0
  190.6280  175.9970  144.7930 N   0  0  0  0  0  0  0  0  0  0  0  0
  193.3970  176.2430  146.9580 O   0  0  0  0  0  0  0  0  0  0  0  0
  192.0260  175.6530  145.0280 C   0  0  1  0  0  3  0  0  0  0  0  0
  194.9080  176.0370  142.9390 C   0  0  0  0  0  2  0  0  0  0  0  0
  192.0150  173.4430  142.9350 C   0  0  0  0  0  1  0  0  0  0  0  0
  188.4140  177.6030  147.2610 C   0  0  0  0  0  3  0  0  0  0  0  0
  188.8390  176.9120  146.1180 C   0  0  0  0  0  0  0  0  0  0  0  0
  191.6200  174.7520  142.2500 C   0  0  2  0  0  3  0  0  0  0  0  0
  187.8250  176.3560  140.7990 C   0  0  0  0  0  2  0  0  0  0  0  0
  187.0890  178.4980  141.8460 C   0  0  0  0  0  1  0  0  0  0  0  0
  186.6350  177.2510  141.1100 C   0  0  0  0  0  2  0  0  0  0  0  0
  1  5  1  1  0  0  0
  1 19  1  0  0  0  0
  2 13  1  0  0  0  0
  4  1  1  0  0  0  0
  4 20  1  1  0  0  0
  7 15  1  6  0  0  0
  7  9  1  0  0  0  0
  8 11  1  0  0  0  0
  8  6  1  1  0  0  0
  8 12  1  0  0  0  0
  9 14  1  1  0  0  0
  9 22  1  0  0  0  0
 10  3  1  0  0  0  0
 10 21  2  0  0  0  0
 11 28  1  6  0  0  0
 11  5  1  0  0  0  0
 12  4  1  0  0  0  0
 13 18  2  0  0  0  0
 15 23  1  0  0  0  0
 16  2  1  0  0  0  0
 17 26  1  0  0  0  0
 17  3  2  0  0  0  0
 19  2  2  0  0  0  0
 19 26  1  0  0  0  0
 20 22  1  0  0  0  0
 20 17  1  0  0  0  0
 22 10  1  0  0  0  0
 23 14  1  0  0  0  0
 25 18  1  0  0  0  0
 26 25  2  0  0  0  0
 27 12  1  0  0  0  0
 27  7  1  0  0  0  0
 27 24  1  0  0  0  0
 28 30  1  0  0  0  0
 30 29  1  0  0  0  0
M  END
>  <MODEL>
4

>  <REMARK>
 VINA RESULT:      -7.6      1.234      1.492
  Name = 
  2 active torsions:
  status: ('A' for Active; 'I' for Inactive)
    1  A    between atoms: C_11  and  C_28
    2  A    between atoms: C_28  and  C_30
                            x       y       z     vdW  Elec       q    Type
                         _______ _______ _______ _____ _____    ______ ____

>  <TORSDO>
F 2

$$$$
=
 OpenBabel11112416113D

 30 35  0  0  1  0  0  0  0  0999 V2000
  187.6270  177.6360  145.5940 C   0  0  1  0  0  3  0  0  0  0  0  0
  185.8480  178.4110  147.0790 C   0  0  0  0  0  0  0  0  0  0  0  0
  185.0460  177.9000  142.2860 N   0  0  0  0  0  0  0  0  0  0  0  0
  188.1860  177.4410  144.1920 C   0  0  1  0  0  3  0  0  0  0  0  0
  188.5360  177.4780  146.6940 N   0  0  0  0  0  2  0  0  0  0  0  0
  191.1260  177.8030  144.9870 C   0  0  0  0  0  1  0  0  0  0  0  0
  188.8240  175.0100  142.0600 C   0  0  1  0  0  3  0  0  0  0  0  0
  190.3160  176.5400  145.2490 C   0  0  1  0  0  3  0  0  0  0  0  0
  187.6190  175.6640  141.3740 C   0  0  2  0  0  3  0  0  0  0  0  0
  185.9600  177.5230  141.2660 C   0  0  0  0  0  0  0  0  0  0  0  0
  189.7050  176.5970  146.6500 C   0  0  2  0  0  3  0  0  0  0  0  0
  189.2220  176.3070  144.1950 C   0  0  2  0  0  3  0  0  0  0  0  0
  184.5400  178.8790  147.2330 C   0  0  0  0  0  3  0  0  0  0  0  0
  187.8100  175.5870  139.9840 O   0  0  0  0  0  0  0  0  0  0  0  0
  189.5310  174.2930  140.9480 C   0  0  0  0  0  2  0  0  0  0  0  0
  186.6350  178.3290  148.2220 O   0  0  0  0  0  1  0  0  0  0  0  0
  185.8180  177.7370  143.4680 C   0  0  0  0  0  0  0  0  0  0  0  0
  183.6910  178.9930  146.1380 C   0  0  0  0  0  3  0  0  0  0  0  0
  186.3400  178.0520  145.7910 C   0  0  0  0  0  0  0  0  0  0  0  0
  187.1120  177.2030  143.2340 N   0  0  0  0  0  0  0  0  0  0  0  0
  185.6660  177.5800  140.0430 O   0  0  0  0  0  0  0  0  0  0  0  0
  187.3010  177.1050  141.7900 C   0  0  1  0  0  3  0  0  0  0  0  0
  188.5880  174.4380  139.7790 C   0  0  0  0  0  2  0  0  0  0  0  0
  190.3370  177.0920  142.0130 C   0  0  0  0  0  1  0  0  0  0  0  0
  184.1350  178.6230  144.8740 C   0  0  0  0  0  3  0  0  0  0  0  0
  185.4370  178.1380  144.6870 C   0  0  0  0  0  0  0  0  0  0  0  0
  189.7940  175.9180  142.8280 C   0  0  2  0  0  3  0  0  0  0  0  0
  189.3230  175.1950  147.1090 C   0  0  0  0  0  2  0  0  0  0  0  0
  189.6910  173.1490  145.7290 C   0  0  0  0  0  1  0  0  0  0  0  0
  190.3430  174.1650  146.6480 C   0  0  0  0  0  2  0  0  0  0  0  0
  1 19  1  6  0  0  0
  1  5  1  0  0  0  0
  2 13  1  0  0  0  0
  2 16  1  0  0  0  0
  3 17  2  0  0  0  0
  4 20  1  6  0  0  0
  4 12  1  0  0  0  0
  4  1  1  0  0  0  0
  7 15  1  6  0  0  0
  7 27  1  0  0  0  0
  8  6  1  6  0  0  0
  8 11  1  0  0  0  0
  9 14  1  6  0  0  0
  9 22  1  0  0  0  0
  9  7  1  0  0  0  0
 10 22  1  0  0  0  0
 10  3  1  0  0  0  0
 11  5  1  0  0  0  0
 11 28  1  6  0  0  0
 12  8  1  0  0  0  0
 17 26  1  0  0  0  0
 18 13  2  0  0  0  0
 19  2  2  0  0  0  0
 20 17  1  0  0  0  0
 21 10  2  0  0  0  0
 22 20  1  0  0  0  0
 23 14  1  0  0  0  0
 23 15  1  0  0  0  0
 24 27  1  0  0  0  0
 25 18  1  0  0  0  0
 26 25  2  0  0  0  0
 26 19  1  0  0  0  0
 27 12  1  0  0  0  0
 29 30  1  0  0  0  0
 30 28  1  0  0  0  0
M  END
>  <MODEL>
5

>  <REMARK>
 VINA RESULT:      -7.5      2.319      5.185
  Name = 
  2 active torsions:
  status: ('A' for Active; 'I' for Inactive)
    1  A    between atoms: C_11  and  C_28
    2  A    between atoms: C_28  and  C_30
                            x       y       z     vdW  Elec       q    Type
                         _______ _______ _______ _____ _____    ______ ____

>  <TORSDO>
F 2

$$$$
=
 OpenBabel11112416113D

 30 35  0  0  1  0  0  0  0  0999 V2000
  191.3570  175.7130  144.4330 C   0  0  1  0  0  3  0  0  0  0  0  0
  189.2520  176.6470  143.6170 C   0  0  0  0  0  0  0  0  0  0  0  0
  191.2760  172.7770  141.4260 N   0  0  0  0  0  0  0  0  0  0  0  0
  192.5670  174.8130  144.2350 C   0  0  1  0  0  3  0  0  0  0  0  0
  191.4090  176.6600  145.5110 N   0  0  0  0  0  2  0  0  0  0  0  0
  194.5080  176.5590  145.8430 C   0  0  0  0  0  1  0  0  0  0  0  0
  193.8040  171.9810  145.3820 C   0  0  1  0  0  3  0  0  0  0  0  0
  193.4580  175.6480  146.4650 C   0  0  1  0  0  3  0  0  0  0  0  0
  193.3800  171.5430  143.9750 C   0  0  2  0  0  3  0  0  0  0  0  0
  192.5100  172.1350  141.7140 C   0  0  0  0  0  0  0  0  0  0  0  0
  192.1790  176.4410  146.7360 C   0  0  2  0  0  3  0  0  0  0  0  0
  193.1530  174.4160  145.5980 C   0  0  2  0  0  3  0  0  0  0  0  0
  188.2240  176.6270  142.6690 C   0  0  0  0  0  3  0  0  0  0  0  0
  194.3170  170.6060  143.5060 O   0  0  0  0  0  0  0  0  0  0  0  0
  194.8580  170.9870  145.7710 C   0  0  0  0  0  2  0  0  0  0  0  0
  189.1980  177.6330  144.5950 O   0  0  0  0  0  1  0  0  0  0  0  0
  191.1720  173.7320  142.4730 C   0  0  0  0  0  0  0  0  0  0  0  0
  188.2070  175.6740  141.6570 C   0  0  0  0  0  3  0  0  0  0  0  0
  190.3100  175.6960  143.5540 C   0  0  0  0  0  0  0  0  0  0  0  0
  192.2220  173.6500  143.4250 N   0  0  0  0  0  0  0  0  0  0  0  0
  192.9940  171.2410  140.9730 O   0  0  0  0  0  0  0  0  0  0  0  0
  193.1830  172.6630  142.9460 C   0  0  1  0  0  3  0  0  0  0  0  0
  194.8150  169.9730  144.6540 C   0  0  0  0  0  2  0  0  0  0  0  0
  195.4540  173.8050  144.6210 C   0  0  0  0  0  1  0  0  0  0  0  0
  189.2110  174.7160  141.5890 C   0  0  0  0  0  3  0  0  0  0  0  0
  190.2490  174.7000  142.5300 C   0  0  0  0  0  0  0  0  0  0  0  0
  194.3140  173.4170  145.5630 C   0  0  2  0  0  3  0  0  0  0  0  0
  191.3250  175.7140  147.7690 C   0  0  0  0  0  2  0  0  0  0  0  0
  189.1820  174.5420  147.2600 C   0  0  0  0  0  1  0  0  0  0  0  0
  189.8420  175.8900  147.4820 C   0  0  0  0  0  2  0  0  0  0  0  0
  1 19  1  6  0  0  0
  1  5  1  0  0  0  0
  2 16  1  0  0  0  0
  3 10  1  0  0  0  0
  3 17  2  0  0  0  0
  4 20  1  1  0  0  0
  4  1  1  0  0  0  0
  4 12  1  0  0  0  0
  5 11  1  0  0  0  0
  7 27  1  0  0  0  0
  7 15  1  6  0  0  0
  8  6  1  6  0  0  0
  8 11  1  0  0  0  0
  9 14  1  6  0  0  0
  9  7  1  0  0  0  0
 10 22  1  0  0  0  0
 11 28  1  1  0  0  0
 12  8  1  0  0  0  0
 13  2  2  0  0  0  0
 14 23  1  0  0  0  0
 17 26  1  0  0  0  0
 17 20  1  0  0  0  0
 18 13  1  0  0  0  0
 19  2  1  0  0  0  0
 21 10  2  0  0  0  0
 22 20  1  0  0  0  0
 22  9  1  0  0  0  0
 23 15  1  0  0  0  0
 24 27  1  0  0  0  0
 25 18  2  0  0  0  0
 25 26  1  0  0  0  0
 26 19  2  0  0  0  0
 27 12  1  0  0  0  0
 29 30  1  0  0  0  0
 30 28  1  0  0  0  0
M  END
>  <MODEL>
6

>  <REMARK>
 VINA RESULT:      -7.4      3.284      6.268
  Name = 
  2 active torsions:
  status: ('A' for Active; 'I' for Inactive)
    1  A    between atoms: C_11  and  C_28
    2  A    between atoms: C_28  and  C_30
                            x       y       z     vdW  Elec       q    Type
                         _______ _______ _______ _____ _____    ______ ____

>  <TORSDO>
F 2

$$$$
=
 OpenBabel11112416113D

 30 35  0  0  1  0  0  0  0  0999 V2000
  192.2180  173.8030  145.0710 C   0  0  1  0  0  3  0  0  0  0  0  0
  193.6560  171.8290  144.9930 C   0  0  0  0  0  0  0  0  0  0  0  0
  189.5790  172.0500  142.3090 N   0  0  0  0  0  0  0  0  0  0  0  0
  190.8910  174.4830  144.7710 C   0  0  1  0  0  3  0  0  0  0  0  0
  193.1110  174.4710  145.9760 N   0  0  0  0  0  2  0  0  0  0  0  0
  190.9370  176.3290  147.2200 C   0  0  0  0  0  1  0  0  0  0  0  0
  189.6470  176.7890  142.7710 C   0  0  1  0  0  3  0  0  0  0  0  0
  191.7670  176.5510  145.9630 C   0  0  1  0  0  3  0  0  0  0  0  0
  189.0210  175.5310  142.1580 C   0  0  2  0  0  3  0  0  0  0  0  0
  188.5960  173.0760  142.2650 C   0  0  0  0  0  0  0  0  0  0  0  0
  193.1510  175.9250  146.1380 C   0  0  2  0  0  3  0  0  0  0  0  0
  191.0870  176.0050  144.6970 C   0  0  2  0  0  3  0  0  0  0  0  0
  193.8850  170.5370  144.5110 C   0  0  0  0  0  3  0  0  0  0  0  0
  187.7320  175.8600  141.7020 O   0  0  0  0  0  0  0  0  0  0  0  0
  188.7370  177.8990  142.3340 C   0  0  0  0  0  2  0  0  0  0  0  0
  194.5850  172.3510  145.8850 O   0  0  0  0  0  1  0  0  0  0  0  0
  190.5740  172.6120  143.1530 C   0  0  0  0  0  0  0  0  0  0  0  0
  193.0000  169.9420  143.6180 C   0  0  0  0  0  3  0  0  0  0  0  0
  192.5020  172.5570  144.5850 C   0  0  0  0  0  0  0  0  0  0  0  0
  190.2960  173.9460  143.5520 N   0  0  0  0  0  0  0  0  0  0  0  0
  187.5080  172.9410  141.6460 O   0  0  0  0  0  0  0  0  0  0  0  0
  188.9670  174.2920  143.0600 C   0  0  1  0  0  3  0  0  0  0  0  0
  187.7920  177.2210  141.3720 C   0  0  0  0  0  2  0  0  0  0  0  0
  188.5980  176.5150  145.1060 C   0  0  0  0  0  1  0  0  0  0  0  0
  191.8820  170.6410  143.1810 C   0  0  0  0  0  3  0  0  0  0  0  0
  191.6290  171.9430  143.6340 C   0  0  0  0  0  0  0  0  0  0  0  0
  189.8550  176.8200  144.2910 C   0  0  2  0  0  3  0  0  0  0  0  0
  194.1300  176.5370  145.1420 C   0  0  0  0  0  2  0  0  0  0  0  0
  195.5190  175.2390  143.5260 C   0  0  0  0  0  1  0  0  0  0  0  0
  195.3650  175.6650  144.9740 C   0  0  0  0  0  2  0  0  0  0  0  0
  1 19  1  1  0  0  0
  1  5  1  0  0  0  0
  2 16  1  0  0  0  0
  3 17  2  0  0  0  0
  4 20  1  6  0  0  0
  4  1  1  0  0  0  0
  5 11  1  0  0  0  0
  7 15  1  1  0  0  0
  7 27  1  0  0  0  0
  8 11  1  0  0  0  0
  8  6  1  1  0  0  0
  9 14  1  1  0  0  0
  9  7  1  0  0  0  0
  9 22  1  0  0  0  0
 10  3  1  0  0  0  0
 10 22  1  0  0  0  0
 11 28  1  6  0  0  0
 12  4  1  0  0  0  0
 12  8  1  0  0  0  0
 13  2  2  0  0  0  0
 17 20  1  0  0  0  0
 17 26  1  0  0  0  0
 18 13  1  0  0  0  0
 19  2  1  0  0  0  0
 21 10  2  0  0  0  0
 22 20  1  0  0  0  0
 23 14  1  0  0  0  0
 23 15  1  0  0  0  0
 25 18  2  0  0  0  0
 25 26  1  0  0  0  0
 26 19  2  0  0  0  0
 27 12  1  0  0  0  0
 27 24  1  0  0  0  0
 29 30  1  0  0  0  0
 30 28  1  0  0  0  0
M  END
>  <MODEL>
7

>  <REMARK>
 VINA RESULT:      -7.3      2.902      7.431
  Name = 
  2 active torsions:
  status: ('A' for Active; 'I' for Inactive)
    1  A    between atoms: C_11  and  C_28
    2  A    between atoms: C_28  and  C_30
                            x       y       z     vdW  Elec       q    Type
                         _______ _______ _______ _____ _____    ______ ____

>  <TORSDO>
F 2

$$$$
=
 OpenBabel11112416113D

 30 35  0  0  1  0  0  0  0  0999 V2000
  189.4050  174.9430  141.9310 C   0  0  1  0  0  3  0  0  0  0  0  0
  189.2510  172.9840  140.4780 C   0  0  0  0  0  0  0  0  0  0  0  0
  192.6110  173.2020  144.0190 N   0  0  0  0  0  0  0  0  0  0  0  0
  190.1650  175.7700  142.9570 C   0  0  1  0  0  3  0  0  0  0  0  0
  188.2810  175.5620  141.2880 N   0  0  0  0  0  2  0  0  0  0  0  0
  189.1020  178.4840  142.0050 C   0  0  0  0  0  1  0  0  0  0  0  0
  190.0070  176.5710  146.1510 C   0  0  1  0  0  3  0  0  0  0  0  0
  188.2990  177.4930  142.8380 C   0  0  1  0  0  3  0  0  0  0  0  0
  191.2180  175.6320  146.1660 C   0  0  2  0  0  3  0  0  0  0  0  0
  192.8910  174.2670  144.9170 C   0  0  0  0  0  0  0  0  0  0  0  0
  187.4650  176.6000  141.9200 C   0  0  2  0  0  3  0  0  0  0  0  0
  189.1850  176.6390  143.7590 C   0  0  2  0  0  3  0  0  0  0  0  0
  189.7570  171.7390  140.0960 C   0  0  0  0  0  3  0  0  0  0  0  0
  192.1360  176.1140  147.1150 O   0  0  0  0  0  0  0  0  0  0  0  0
  190.1860  177.4160  147.3770 C   0  0  0  0  0  2  0  0  0  0  0  0
  188.1740  173.4840  139.7560 O   0  0  0  0  0  1  0  0  0  0  0  0
  191.4580  173.6700  143.3340 C   0  0  0  0  0  0  0  0  0  0  0  0
  190.8350  171.1710  140.7660 C   0  0  0  0  0  3  0  0  0  0  0  0
  189.8400  173.7010  141.5580 C   0  0  0  0  0  0  0  0  0  0  0  0
  190.9720  174.9130  143.8190 N   0  0  0  0  0  0  0  0  0  0  0  0
  193.8900  174.2590  145.6820 O   0  0  0  0  0  0  0  0  0  0  0  0
  191.9150  175.4020  144.8190 C   0  0  1  0  0  3  0  0  0  0  0  0
  191.3600  176.7770  148.0770 C   0  0  0  0  0  2  0  0  0  0  0  0
  191.0060  178.2910  144.5170 C   0  0  0  0  0  1  0  0  0  0  0  0
  191.4100  171.8360  141.8420 C   0  0  0  0  0  3  0  0  0  0  0  0
  190.9190  173.0800  142.2600 C   0  0  0  0  0  0  0  0  0  0  0  0
  189.7930  177.4480  144.9090 C   0  0  2  0  0  3  0  0  0  0  0  0
  186.3250  175.9650  142.7080 C   0  0  0  0  0  2  0  0  0  0  0  0
  184.6400  177.8040  142.6250 C   0  0  0  0  0  1  0  0  0  0  0  0
  185.5680  177.0040  143.5210 C   0  0  0  0  0  2  0  0  0  0  0  0
  1  5  1  6  0  0  0
  1  4  1  0  0  0  0
  2 19  1  0  0  0  0
  3 10  1  0  0  0  0
  4 12  1  0  0  0  0
  4 20  1  1  0  0  0
  5 11  1  0  0  0  0
  7  9  1  0  0  0  0
  7 15  1  1  0  0  0
  8  6  1  6  0  0  0
  8 12  1  0  0  0  0
  9 14  1  1  0  0  0
 10 21  2  0  0  0  0
 11 28  1  1  0  0  0
 11  8  1  0  0  0  0
 12 27  1  0  0  0  0
 13  2  2  0  0  0  0
 13 18  1  0  0  0  0
 14 23  1  0  0  0  0
 15 23  1  0  0  0  0
 16  2  1  0  0  0  0
 17 20  1  0  0  0  0
 17  3  2  0  0  0  0
 18 25  2  0  0  0  0
 19  1  1  0  0  0  0
 19 26  2  0  0  0  0
 20 22  1  0  0  0  0
 22 10  1  0  0  0  0
 22  9  1  0  0  0  0
 24 27  1  0  0  0  0
 25 26  1  0  0  0  0
 26 17  1  0  0  0  0
 27  7  1  0  0  0  0
 28 30  1  0  0  0  0
 29 30  1  0  0  0  0
M  END
>  <MODEL>
8

>  <REMARK>
 VINA RESULT:      -7.3      2.512      5.195
  Name = 
  2 active torsions:
  status: ('A' for Active; 'I' for Inactive)
    1  A    between atoms: C_11  and  C_28
    2  A    between atoms: C_28  and  C_30
                            x       y       z     vdW  Elec       q    Type
                         _______ _______ _______ _____ _____    ______ ____

>  <TORSDO>
F 2

$$$$
=
 OpenBabel11112416113D

 30 35  0  0  1  0  0  0  0  0999 V2000
  188.5690  175.1260  142.0540 C   0  0  1  0  0  3  0  0  0  0  0  0
  187.3640  176.1960  140.2180 C   0  0  0  0  0  0  0  0  0  0  0  0
  187.1280  178.0140  144.7470 N   0  0  0  0  0  0  0  0  0  0  0  0
  188.8170  174.9480  143.5450 C   0  0  1  0  0  3  0  0  0  0  0  0
  189.1310  174.1440  141.1710 N   0  0  0  0  0  2  0  0  0  0  0  0
  189.5710  171.9800  143.3730 C   0  0  0  0  0  1  0  0  0  0  0  0
  191.1160  175.6370  145.8060 C   0  0  1  0  0  3  0  0  0  0  0  0
  190.4930  173.1240  142.9700 C   0  0  1  0  0  3  0  0  0  0  0  0
  190.0250  176.6340  146.2140 C   0  0  2  0  0  3  0  0  0  0  0  0
  187.7050  177.5060  145.9420 C   0  0  0  0  0  0  0  0  0  0  0  0
  190.3540  173.3980  141.4720 C   0  0  2  0  0  3  0  0  0  0  0  0
  190.2360  174.4060  143.7780 C   0  0  2  0  0  3  0  0  0  0  0  0
  186.4870  177.1960  139.7870 C   0  0  0  0  0  3  0  0  0  0  0  0
  190.0370  176.7480  147.6150 O   0  0  0  0  0  0  0  0  0  0  0  0
  191.9290  175.4550  147.0520 C   0  0  0  0  0  2  0  0  0  0  0  0
  187.8160  175.2910  139.2650 O   0  0  0  0  0  1  0  0  0  0  0  0
  187.6550  177.1450  143.7550 C   0  0  0  0  0  0  0  0  0  0  0  0
  185.9870  178.1370  140.6790 C   0  0  0  0  0  3  0  0  0  0  0  0
  187.7520  176.1170  141.5860 C   0  0  0  0  0  0  0  0  0  0  0  0
  188.5810  176.1960  144.2630 N   0  0  0  0  0  0  0  0  0  0  0  0
  187.4390  177.9840  147.0750 O   0  0  0  0  0  0  0  0  0  0  0  0
  188.6070  176.3300  145.7150 C   0  0  1  0  0  3  0  0  0  0  0  0
  191.3610  176.4860  147.9970 C   0  0  0  0  0  2  0  0  0  0  0  0
  189.6910  173.5160  146.1300 C   0  0  0  0  0  1  0  0  0  0  0  0
  186.3720  178.1020  142.0140 C   0  0  0  0  0  3  0  0  0  0  0  0
  187.2590  177.1200  142.4760 C   0  0  0  0  0  0  0  0  0  0  0  0
  190.6730  174.2790  145.2410 C   0  0  2  0  0  3  0  0  0  0  0  0
  191.5730  174.1630  140.9680 C   0  0  0  0  0  2  0  0  0  0  0  0
  191.7170  172.0850  139.5940 C   0  0  0  0  0  1  0  0  0  0  0  0
  192.1260  173.5430  139.6940 C   0  0  0  0  0  2  0  0  0  0  0  0
  1  5  1  1  0  0  0
  1  4  1  0  0  0  0
  2 19  1  0  0  0  0
  3 10  1  0  0  0  0
  4 12  1  0  0  0  0
  4 20  1  1  0  0  0
  5 11  1  0  0  0  0
  7  9  1  0  0  0  0
  7 15  1  1  0  0  0
  8  6  1  1  0  0  0
  8 12  1  0  0  0  0
  9 14  1  1  0  0  0
 10 21  2  0  0  0  0
 11 28  1  1  0  0  0
 11  8  1  0  0  0  0
 12 27  1  0  0  0  0
 13  2  2  0  0  0  0
 13 18  1  0  0  0  0
 14 23  1  0  0  0  0
 15 23  1  0  0  0  0
 16  2  1  0  0  0  0
 17 20  1  0  0  0  0
 17  3  2  0  0  0  0
 18 25  2  0  0  0  0
 19  1  1  0  0  0  0
 19 26  2  0  0  0  0
 20 22  1  0  0  0  0
 22 10  1  0  0  0  0
 22  9  1  0  0  0  0
 25 26  1  0  0  0  0
 26 17  1  0  0  0  0
 27  7  1  0  0  0  0
 27 24  1  0  0  0  0
 29 30  1  0  0  0  0
 30 28  1  0  0  0  0
M  END
>  <MODEL>
9

>  <REMARK>
 VINA RESULT:      -7.2      2.344      4.495
  Name = 
  2 active torsions:
  status: ('A' for Active; 'I' for Inactive)
    1  A    between atoms: C_11  and  C_28
    2  A    between atoms: C_28  and  C_30
                            x       y       z     vdW  Elec       q    Type
                         _______ _______ _______ _____ _____    ______ ____

>  <TORSDO>
F 2

$$$$
