=
 OpenBabel11112416343D

 32 38  0  0  1  0  0  0  0  0999 V2000
  191.8970  174.9020  143.9130 C   0  0  1  0  0  3  0  0  0  0  0  0
  187.2080  177.0490  143.5730 C   0  0  0  0  0  0  0  0  0  0  0  0
  186.0070  178.2040  148.1470 C   0  0  0  0  0  3  0  0  0  0  0  0
  184.7990  178.6150  147.6880 N   0  0  0  0  0  0  0  0  0  0  0  0
  185.5240  177.4520  141.7600 C   0  0  0  0  0  0  0  0  0  0  0  0
  184.2500  177.9100  141.4360 C   0  0  0  0  0  0  0  0  0  0  0  0
  189.4060  176.1000  143.1100 C   0  0  0  0  0  0  0  0  0  0  0  0
  188.8240  176.6810  145.3720 C   0  0  0  0  0  3  0  0  0  0  0  0
  182.2520  178.7530  141.7700 N   0  0  0  0  0  0  0  0  0  0  0  0
  191.0990  175.7230  144.9420 C   0  0  2  0  0  3  0  0  0  0  0  0
  186.9440  177.7000  147.2510 C   0  0  0  0  0  3  0  0  0  0  0  0
  187.5530  177.1170  144.9510 C   0  0  0  0  0  0  0  0  0  0  0  0
  186.6320  177.6220  145.8870 C   0  0  0  0  0  0  0  0  0  0  0  0
  185.0040  178.0040  144.1100 C   0  0  0  0  0  0  0  0  0  0  0  0
  182.3620  178.5180  140.4690 N   0  0  0  0  0  0  0  0  0  0  0  0
  191.1530  174.5400  142.7410 O   0  0  0  0  0  0  0  0  0  0  0  0
  189.7480  176.1780  144.4590 C   0  0  0  0  0  0  0  0  0  0  0  0
  183.5910  177.9940  140.2220 C   0  0  0  0  0  3  0  0  0  0  0  0
  190.4320  175.6030  142.1540 C   0  0  0  0  0  2  0  0  0  0  0  0
  192.2000  176.3850  144.1180 C   0  0  1  0  0  3  0  0  0  0  0  0
  184.4880  178.5470  146.3930 N   0  0  0  0  0  0  0  0  0  0  0  0
  185.3630  178.0620  145.4650 C   0  0  0  0  0  0  0  0  0  0  0  0
  183.7250  178.4550  143.7160 C   0  0  0  0  0  3  0  0  0  0  0  0
  188.1600  176.5400  142.6710 C   0  0  0  0  0  3  0  0  0  0  0  0
  186.3460  176.9760  140.7430 O   0  0  0  0  0  1  0  0  0  0  0  0
  181.0710  179.3150  142.4010 C   0  0  0  0  0  1  0  0  0  0  0  0
  185.9300  177.4930  143.1330 C   0  0  0  0  0  0  0  0  0  0  0  0
  183.3920  178.3890  142.3720 C   0  0  0  0  0  0  0  0  0  0  0  0
  193.3940  176.5230  144.9330 N   0  0  0  0  0  2  0  0  0  0  0  0
  194.7000  176.4050  144.3700 C   0  0  0  0  0  0  0  0  0  0  0  0
  194.8630  176.1550  143.0120 O   0  0  0  0  0  0  0  0  0  0  0  0
  195.7110  176.5290  145.1070 O   0  0  0  0  0  1  0  0  0  0  0  0
  1 16  1  6  0  0  0
  1 20  1  0  0  0  0
  1 10  1  0  0  0  0
  2 12  1  0  0  0  0
  4  3  1  0  0  0  0
  5 27  1  0  0  0  0
  6  5  2  0  0  0  0
  6 28  1  0  0  0  0
  7 17  1  0  0  0  0
  9 28  1  0  0  0  0
  9 26  1  0  0  0  0
 10 17  1  6  0  0  0
 11  3  2  0  0  0  0
 12  8  1  0  0  0  0
 12 13  2  0  0  0  0
 13 11  1  0  0  0  0
 14 22  2  0  0  0  0
 15  9  1  0  0  0  0
 17  8  2  0  0  0  0
 18 15  2  0  0  0  0
 18  6  1  0  0  0  0
 19 16  1  0  0  0  0
 19  7  1  0  0  0  0
 20 29  1  1  0  0  0
 20 10  1  0  0  0  0
 21  4  2  0  0  0  0
 22 13  1  0  0  0  0
 22 21  1  0  0  0  0
 23 14  1  0  0  0  0
 24  7  2  0  0  0  0
 24  2  1  0  0  0  0
 25  5  1  0  0  0  0
 27  2  2  0  0  0  0
 27 14  1  0  0  0  0
 28 23  2  0  0  0  0
 30 29  1  0  0  0  0
 30 32  1  0  0  0  0
 31 30  2  0  0  0  0
M  END
>  <MODEL>
1

>  <REMARK>
 VINA RESULT:      -9.1      0.000      0.000
  Name = 
  1 active torsions:
  status: ('A' for Active; 'I' for Inactive)
    1  A    between atoms: C_20  and  N_29
                            x       y       z     vdW  Elec       q    Type
                         _______ _______ _______ _____ _____    ______ ____

>  <TORSDO>
F 1

$$$$
=
 OpenBabel11112416343D

 32 38  0  0  1  0  0  0  0  0999 V2000
  185.0810  177.2880  146.6130 C   0  0  1  0  0  3  0  0  0  0  0  0
  189.7580  175.9850  144.8410 C   0  0  0  0  0  0  0  0  0  0  0  0
  188.9530  174.0280  140.4570 C   0  0  0  0  0  3  0  0  0  0  0  0
  190.2800  173.7600  140.3720 N   0  0  0  0  0  0  0  0  0  0  0  0
  192.1040  176.0080  145.7240 C   0  0  0  0  0  0  0  0  0  0  0  0
  193.4350  175.6710  145.4990 C   0  0  0  0  0  0  0  0  0  0  0  0
  187.8880  176.9040  146.1090 C   0  0  0  0  0  0  0  0  0  0  0  0
  187.4860  175.9500  143.9370 C   0  0  0  0  0  3  0  0  0  0  0  0
  195.1690  174.8610  144.4240 N   0  0  0  0  0  0  0  0  0  0  0  0
  185.5360  176.8960  145.1960 C   0  0  2  0  0  3  0  0  0  0  0  0
  188.4530  174.6580  141.5920 C   0  0  0  0  0  3  0  0  0  0  0  0
  188.8530  175.6440  143.7990 C   0  0  0  0  0  0  0  0  0  0  0  0
  189.3210  175.0070  142.6350 C   0  0  0  0  0  0  0  0  0  0  0  0
  191.5990  175.0350  143.5120 C   0  0  0  0  0  0  0  0  0  0  0  0
  195.6150  175.3370  145.5800 N   0  0  0  0  0  0  0  0  0  0  0  0
  186.0780  177.1020  147.6280 O   0  0  0  0  0  0  0  0  0  0  0  0
  187.0030  176.5790  145.0820 C   0  0  0  0  0  0  0  0  0  0  0  0
  194.5670  175.8500  146.2750 C   0  0  0  0  0  3  0  0  0  0  0  0
  187.3500  177.6180  147.2980 C   0  0  0  0  0  2  0  0  0  0  0  0
  185.3450  178.3650  145.5630 C   0  0  1  0  0  3  0  0  0  0  0  0
  191.1180  174.0870  141.3570 N   0  0  0  0  0  0  0  0  0  0  0  0
  190.6900  174.7040  142.4950 C   0  0  0  0  0  0  0  0  0  0  0  0
  192.9640  174.7210  143.3440 C   0  0  0  0  0  3  0  0  0  0  0  0
  189.2460  176.6230  145.9860 C   0  0  0  0  0  3  0  0  0  0  0  0
  191.7620  176.6370  146.9180 O   0  0  0  0  0  1  0  0  0  0  0  0
  196.0100  174.2350  143.4200 C   0  0  0  0  0  1  0  0  0  0  0  0
  191.1430  175.6870  144.7120 C   0  0  0  0  0  0  0  0  0  0  0  0
  193.8450  175.0560  144.3600 C   0  0  0  0  0  0  0  0  0  0  0  0
  184.0790  178.8340  145.0260 N   0  0  0  0  0  2  0  0  0  0  0  0
  183.8300  178.8670  143.6220 C   0  0  0  0  0  0  0  0  0  0  0  0
  184.8020  178.4410  142.7230 O   0  0  0  0  0  0  0  0  0  0  0  0
  182.7230  179.2810  143.1940 O   0  0  0  0  0  1  0  0  0  0  0  0
  1 16  1  1  0  0  0
  2 24  1  0  0  0  0
  3 11  1  0  0  0  0
  4  3  2  0  0  0  0
  4 21  1  0  0  0  0
  5 25  1  0  0  0  0
  6  5  1  0  0  0  0
  6 18  1  0  0  0  0
  7 19  1  0  0  0  0
  8 17  2  0  0  0  0
  9 15  1  0  0  0  0
 10 17  1  1  0  0  0
 10 20  1  0  0  0  0
 10  1  1  0  0  0  0
 11 13  2  0  0  0  0
 12  8  1  0  0  0  0
 12  2  2  0  0  0  0
 13 12  1  0  0  0  0
 14 27  1  0  0  0  0
 15 18  2  0  0  0  0
 17  7  1  0  0  0  0
 19 16  1  0  0  0  0
 20 29  1  6  0  0  0
 20  1  1  0  0  0  0
 21 22  2  0  0  0  0
 22 13  1  0  0  0  0
 22 14  1  0  0  0  0
 23 14  2  0  0  0  0
 23 28  1  0  0  0  0
 24  7  2  0  0  0  0
 26  9  1  0  0  0  0
 27  2  1  0  0  0  0
 27  5  2  0  0  0  0
 28  9  1  0  0  0  0
 28  6  2  0  0  0  0
 30 29  1  0  0  0  0
 31 30  2  0  0  0  0
 32 30  1  0  0  0  0
M  END
>  <MODEL>
2

>  <REMARK>
 VINA RESULT:      -8.8      2.628      8.927
  Name = 
  1 active torsions:
  status: ('A' for Active; 'I' for Inactive)
    1  A    between atoms: C_20  and  N_29
                            x       y       z     vdW  Elec       q    Type
                         _______ _______ _______ _____ _____    ______ ____

>  <TORSDO>
F 1

$$$$
=
 OpenBabel11112416343D

 32 38  0  0  1  0  0  0  0  0999 V2000
  195.4360  175.4410  144.8880 C   0  0  1  0  0  3  0  0  0  0  0  0
  190.3600  176.3830  145.1270 C   0  0  0  0  0  0  0  0  0  0  0  0
  188.5570  174.6870  140.9350 C   0  0  0  0  0  3  0  0  0  0  0  0
  187.3410  175.1580  141.3090 N   0  0  0  0  0  0  0  0  0  0  0  0
  188.8020  177.5410  146.7140 C   0  0  0  0  0  0  0  0  0  0  0  0
  187.5020  177.9680  146.9630 C   0  0  0  0  0  0  0  0  0  0  0  0
  192.7310  176.0920  145.6210 C   0  0  0  0  0  0  0  0  0  0  0  0
  191.8430  175.2390  143.5530 C   0  0  0  0  0  3  0  0  0  0  0  0
  185.3610  178.2750  146.5900 N   0  0  0  0  0  0  0  0  0  0  0  0
  194.2810  174.9030  144.0250 C   0  0  2  0  0  3  0  0  0  0  0  0
  189.6470  174.8600  141.7810 C   0  0  0  0  0  3  0  0  0  0  0  0
  190.5600  175.7120  143.8890 C   0  0  0  0  0  0  0  0  0  0  0  0
  189.4810  175.5170  143.0080 C   0  0  0  0  0  0  0  0  0  0  0  0
  187.9800  176.6500  144.5630 C   0  0  0  0  0  0  0  0  0  0  0  0
  185.6300  178.8090  147.7750 N   0  0  0  0  0  0  0  0  0  0  0  0
  195.0620  176.4920  145.7890 O   0  0  0  0  0  0  0  0  0  0  0  0
  192.9230  175.4230  144.4130 C   0  0  0  0  0  0  0  0  0  0  0  0
  186.9510  178.6380  148.0420 C   0  0  0  0  0  3  0  0  0  0  0  0
  193.8930  176.2300  146.5390 C   0  0  0  0  0  2  0  0  0  0  0  0
  194.8580  174.0520  145.1530 C   0  0  1  0  0  3  0  0  0  0  0  0
  187.1680  175.7850  142.4730 N   0  0  0  0  0  0  0  0  0  0  0  0
  188.1970  175.9860  143.3460 C   0  0  0  0  0  0  0  0  0  0  0  0
  186.6810  177.1070  144.8760 C   0  0  0  0  0  3  0  0  0  0  0  0
  191.4670  176.5540  145.9790 C   0  0  0  0  0  3  0  0  0  0  0  0
  189.7870  177.7920  147.6650 O   0  0  0  0  0  1  0  0  0  0  0  0
  184.0450  178.2720  145.9770 C   0  0  0  0  0  1  0  0  0  0  0  0
  189.0680  176.8600  145.4820 C   0  0  0  0  0  0  0  0  0  0  0  0
  186.4890  177.7600  146.0840 C   0  0  0  0  0  0  0  0  0  0  0  0
  195.7440  173.0470  144.5940 N   0  0  0  0  0  2  0  0  0  0  0  0
  196.8670  172.5520  145.3220 C   0  0  0  0  0  0  0  0  0  0  0  0
  197.1410  173.0230  146.6010 O   0  0  0  0  0  1  0  0  0  0  0  0
  197.6130  171.6830  144.8040 O   0  0  0  0  0  0  0  0  0  0  0  0
  1 20  1  0  0  0  0
  1 16  1  1  0  0  0
  2 27  1  0  0  0  0
  2 24  1  0  0  0  0
  3  4  2  0  0  0  0
  3 11  1  0  0  0  0
  4 21  1  0  0  0  0
  5  6  1  0  0  0  0
  5 25  1  0  0  0  0
  6 18  1  0  0  0  0
  7 24  2  0  0  0  0
  7 19  1  0  0  0  0
  8 12  1  0  0  0  0
  8 17  2  0  0  0  0
  9 15  1  0  0  0  0
 10 17  1  1  0  0  0
 10  1  1  0  0  0  0
 10 20  1  0  0  0  0
 11 13  2  0  0  0  0
 12  2  2  0  0  0  0
 13 22  1  0  0  0  0
 13 12  1  0  0  0  0
 14 23  2  0  0  0  0
 14 27  1  0  0  0  0
 15 18  2  0  0  0  0
 16 19  1  0  0  0  0
 17  7  1  0  0  0  0
 20 29  1  6  0  0  0
 21 22  2  0  0  0  0
 22 14  1  0  0  0  0
 23 28  1  0  0  0  0
 26  9  1  0  0  0  0
 27  5  2  0  0  0  0
 28  9  1  0  0  0  0
 28  6  2  0  0  0  0
 29 30  1  0  0  0  0
 30 31  1  0  0  0  0
 32 30  2  0  0  0  0
M  END
>  <MODEL>
3

>  <REMARK>
 VINA RESULT:      -8.8      3.108      5.352
  Name = 
  1 active torsions:
  status: ('A' for Active; 'I' for Inactive)
    1  A    between atoms: C_20  and  N_29
                            x       y       z     vdW  Elec       q    Type
                         _______ _______ _______ _____ _____    ______ ____

>  <TORSDO>
F 1

$$$$
=
 OpenBabel11112416343D

 32 38  0  0  1  0  0  0  0  0999 V2000
  185.4220  177.2410  144.4610 C   0  0  1  0  0  3  0  0  0  0  0  0
  190.2200  175.7860  143.2070 C   0  0  0  0  0  0  0  0  0  0  0  0
  189.6660  172.5540  139.6090 C   0  0  0  0  0  3  0  0  0  0  0  0
  191.0090  172.3630  139.6220 N   0  0  0  0  0  0  0  0  0  0  0  0
  192.5330  176.2320  144.0640 C   0  0  0  0  0  0  0  0  0  0  0  0
  193.8890  175.9340  143.9630 C   0  0  0  0  0  0  0  0  0  0  0  0
  188.2610  176.9140  144.1220 C   0  0  0  0  0  0  0  0  0  0  0  0
  187.9820  175.3270  142.3340 C   0  0  0  0  0  3  0  0  0  0  0  0
  195.7000  174.9580  143.1990 N   0  0  0  0  0  0  0  0  0  0  0  0
  185.9420  176.4740  143.2320 C   0  0  2  0  0  3  0  0  0  0  0  0
  189.0950  173.4600  140.4980 C   0  0  0  0  0  3  0  0  0  0  0  0
  189.3680  175.0870  142.3080 C   0  0  0  0  0  0  0  0  0  0  0  0
  189.9090  174.1640  141.3950 C   0  0  0  0  0  0  0  0  0  0  0  0
  192.1540  174.6080  142.2440 C   0  0  0  0  0  0  0  0  0  0  0  0
  196.0820  175.7880  144.1610 N   0  0  0  0  0  0  0  0  0  0  0  0
  186.3980  177.4360  145.4930 O   0  0  0  0  0  0  0  0  0  0  0  0
  187.4280  176.2370  143.2320 C   0  0  0  0  0  0  0  0  0  0  0  0
  194.9850  176.4140  144.6600 C   0  0  0  0  0  3  0  0  0  0  0  0
  187.6460  177.9150  145.0350 C   0  0  0  0  0  2  0  0  0  0  0  0
  185.6490  177.9680  143.1370 C   0  0  1  0  0  3  0  0  0  0  0  0
  191.7960  173.0260  140.4700 N   0  0  0  0  0  0  0  0  0  0  0  0
  191.2970  173.9260  141.3660 C   0  0  0  0  0  0  0  0  0  0  0  0
  193.5410  174.3510  142.1900 C   0  0  0  0  0  3  0  0  0  0  0  0
  189.6370  176.7020  144.1020 C   0  0  0  0  0  3  0  0  0  0  0  0
  192.1190  177.1660  145.0090 O   0  0  0  0  0  1  0  0  0  0  0  0
  196.6070  174.1180  142.4370 C   0  0  0  0  0  1  0  0  0  0  0  0
  191.6240  175.5580  143.1870 C   0  0  0  0  0  0  0  0  0  0  0  0
  194.3690  175.0350  143.0670 C   0  0  0  0  0  0  0  0  0  0  0  0
  184.3730  178.1680  142.4720 N   0  0  0  0  0  2  0  0  0  0  0  0
  184.2810  178.2900  141.0540 C   0  0  0  0  0  0  0  0  0  0  0  0
  185.4230  178.2160  140.2640 O   0  0  0  0  0  0  0  0  0  0  0  0
  183.1590  178.4640  140.5140 O   0  0  0  0  0  1  0  0  0  0  0  0
  1 16  1  1  0  0  0
  2 24  1  0  0  0  0
  3  4  2  0  0  0  0
  3 11  1  0  0  0  0
  4 21  1  0  0  0  0
  5 25  1  0  0  0  0
  6  5  1  0  0  0  0
  6 18  1  0  0  0  0
  7 19  1  0  0  0  0
  8 17  2  0  0  0  0
  9 15  1  0  0  0  0
 10 17  1  1  0  0  0
 10  1  1  0  0  0  0
 11 13  2  0  0  0  0
 12  8  1  0  0  0  0
 12  2  2  0  0  0  0
 13 12  1  0  0  0  0
 14 27  1  0  0  0  0
 15 18  2  0  0  0  0
 17  7  1  0  0  0  0
 19 16  1  0  0  0  0
 20 29  1  6  0  0  0
 20 10  1  0  0  0  0
 20  1  1  0  0  0  0
 21 22  2  0  0  0  0
 22 13  1  0  0  0  0
 22 14  1  0  0  0  0
 23 14  2  0  0  0  0
 23 28  1  0  0  0  0
 24  7  2  0  0  0  0
 26  9  1  0  0  0  0
 27  2  1  0  0  0  0
 27  5  2  0  0  0  0
 28  9  1  0  0  0  0
 28  6  2  0  0  0  0
 30 29  1  0  0  0  0
 31 30  2  0  0  0  0
 32 30  1  0  0  0  0
M  END
>  <MODEL>
4

>  <REMARK>
 VINA RESULT:      -8.5      2.683      9.151
  Name = 
  1 active torsions:
  status: ('A' for Active; 'I' for Inactive)
    1  A    between atoms: C_20  and  N_29
                            x       y       z     vdW  Elec       q    Type
                         _______ _______ _______ _____ _____    ______ ____

>  <TORSDO>
F 1

$$$$
=
 OpenBabel11112416343D

 32 38  0  0  1  0  0  0  0  0999 V2000
  190.3440  172.2060  139.6540 C   0  0  1  0  0  3  0  0  0  0  0  0
  188.6110  175.4400  143.2940 C   0  0  0  0  0  0  0  0  0  0  0  0
  191.9620  175.2900  146.8230 C   0  0  0  0  0  3  0  0  0  0  0  0
  191.1750  176.1160  147.5560 N   0  0  0  0  0  0  0  0  0  0  0  0
  186.5520  176.8210  143.6630 C   0  0  0  0  0  0  0  0  0  0  0  0
  185.8530  177.6610  144.5250 C   0  0  0  0  0  0  0  0  0  0  0  0
  188.9740  174.1800  141.2380 C   0  0  0  0  0  0  0  0  0  0  0  0
  190.6400  174.1120  142.9730 C   0  0  0  0  0  3  0  0  0  0  0  0
  185.4500  178.8170  146.3470 N   0  0  0  0  0  0  0  0  0  0  0  0
  191.0640  172.8140  140.8710 C   0  0  2  0  0  3  0  0  0  0  0  0
  191.5440  174.8920  145.5570 C   0  0  0  0  0  3  0  0  0  0  0  0
  189.8610  174.9640  143.7780 C   0  0  0  0  0  0  0  0  0  0  0  0
  190.3170  175.3460  145.0530 C   0  0  0  0  0  0  0  0  0  0  0  0
  188.3040  176.6820  145.3960 C   0  0  0  0  0  0  0  0  0  0  0  0
  184.4180  179.0020  145.5320 N   0  0  0  0  0  0  0  0  0  0  0  0
  188.9300  172.4450  139.6220 O   0  0  0  0  0  0  0  0  0  0  0  0
  190.2040  173.7230  141.7080 C   0  0  0  0  0  0  0  0  0  0  0  0
  184.6330  178.3000  144.3890 C   0  0  0  0  0  3  0  0  0  0  0  0
  188.5590  173.7860  139.8650 C   0  0  0  0  0  2  0  0  0  0  0  0
  191.2620  173.4140  139.4820 C   0  0  1  0  0  3  0  0  0  0  0  0
  190.0050  176.5560  147.0900 N   0  0  0  0  0  0  0  0  0  0  0  0
  189.5400  176.2010  145.8570 C   0  0  0  0  0  0  0  0  0  0  0  0
  187.5480  177.5400  146.2240 C   0  0  0  0  0  3  0  0  0  0  0  0
  188.1950  175.0350  142.0130 C   0  0  0  0  0  3  0  0  0  0  0  0
  185.9960  176.5160  142.4240 O   0  0  0  0  0  1  0  0  0  0  0  0
  185.5660  179.4160  147.6640 C   0  0  0  0  0  1  0  0  0  0  0  0
  187.8170  176.3070  144.0950 C   0  0  0  0  0  0  0  0  0  0  0  0
  186.3300  178.0040  145.7480 C   0  0  0  0  0  0  0  0  0  0  0  0
  192.5390  172.9770  138.9460 N   0  0  0  0  0  2  0  0  0  0  0  0
  193.7330  173.7310  139.1510 C   0  0  0  0  0  0  0  0  0  0  0  0
  193.7030  174.9140  139.8800 O   0  0  0  0  0  1  0  0  0  0  0  0
  194.8200  173.3220  138.6700 O   0  0  0  0  0  0  0  0  0  0  0  0
  1 16  1  1  0  0  0
  1 10  1  0  0  0  0
  2 12  1  0  0  0  0
  2 27  1  0  0  0  0
  3  4  1  0  0  0  0
  5 27  2  0  0  0  0
  5  6  1  0  0  0  0
  6 28  2  0  0  0  0
  7 17  2  0  0  0  0
  7 24  1  0  0  0  0
  8 12  2  0  0  0  0
  9 26  1  0  0  0  0
 10 17  1  1  0  0  0
 11  3  2  0  0  0  0
 12 13  1  0  0  0  0
 13 11  1  0  0  0  0
 13 22  2  0  0  0  0
 14 22  1  0  0  0  0
 14 23  2  0  0  0  0
 15  9  1  0  0  0  0
 16 19  1  0  0  0  0
 17  8  1  0  0  0  0
 18  6  1  0  0  0  0
 18 15  2  0  0  0  0
 19  7  1  0  0  0  0
 20 29  1  6  0  0  0
 20  1  1  0  0  0  0
 20 10  1  0  0  0  0
 21  4  2  0  0  0  0
 22 21  1  0  0  0  0
 24  2  2  0  0  0  0
 25  5  1  0  0  0  0
 27 14  1  0  0  0  0
 28 23  1  0  0  0  0
 28  9  1  0  0  0  0
 29 30  1  0  0  0  0
 30 31  1  0  0  0  0
 32 30  2  0  0  0  0
M  END
>  <MODEL>
5

>  <REMARK>
 VINA RESULT:      -8.4      2.784      4.778
  Name = 
  1 active torsions:
  status: ('A' for Active; 'I' for Inactive)
    1  A    between atoms: C_20  and  N_29
                            x       y       z     vdW  Elec       q    Type
                         _______ _______ _______ _____ _____    ______ ____

>  <TORSDO>
F 1

$$$$
=
 OpenBabel11112416343D

 32 38  0  0  1  0  0  0  0  0999 V2000
  186.3430  177.0970  146.5560 C   0  0  1  0  0  3  0  0  0  0  0  0
  190.6680  175.9770  143.9580 C   0  0  0  0  0  0  0  0  0  0  0  0
  189.1900  173.4610  140.0610 C   0  0  0  0  0  3  0  0  0  0  0  0
  190.4930  173.2920  139.7200 N   0  0  0  0  0  0  0  0  0  0  0  0
  193.1300  176.2920  144.3110 C   0  0  0  0  0  0  0  0  0  0  0  0
  194.4150  176.0400  143.8390 C   0  0  0  0  0  0  0  0  0  0  0  0
  189.0120  176.8840  145.5020 C   0  0  0  0  0  0  0  0  0  0  0  0
  188.2750  175.6520  143.5700 C   0  0  0  0  0  3  0  0  0  0  0  0
  195.9660  175.2510  142.5020 N   0  0  0  0  0  0  0  0  0  0  0  0
  186.5370  176.5790  145.1200 C   0  0  2  0  0  3  0  0  0  0  0  0
  188.8710  174.1770  141.2100 C   0  0  0  0  0  3  0  0  0  0  0  0
  189.6090  175.4430  143.1720 C   0  0  0  0  0  0  0  0  0  0  0  0
  189.8930  174.7140  142.0030 C   0  0  0  0  0  0  0  0  0  0  0  0
  192.2870  175.0290  142.3650 C   0  0  0  0  0  0  0  0  0  0  0  0
  196.5870  175.8950  143.4820 N   0  0  0  0  0  0  0  0  0  0  0  0
  187.5400  177.1120  147.3460 O   0  0  0  0  0  0  0  0  0  0  0  0
  187.9740  176.3710  144.7250 C   0  0  0  0  0  0  0  0  0  0  0  0
  195.6570  176.3990  144.3330 C   0  0  0  0  0  3  0  0  0  0  0  0
  188.6580  177.6870  146.7030 C   0  0  0  0  0  2  0  0  0  0  0  0
  186.2730  178.0610  145.3740 C   0  0  1  0  0  3  0  0  0  0  0  0
  191.4760  173.7990  140.4650 N   0  0  0  0  0  0  0  0  0  0  0  0
  191.2280  174.5090  141.6030 C   0  0  0  0  0  0  0  0  0  0  0  0
  193.6140  174.8080  141.9380 C   0  0  0  0  0  3  0  0  0  0  0  0
  190.3380  176.7010  145.1180 C   0  0  0  0  0  3  0  0  0  0  0  0
  192.9760  177.0270  145.4820 O   0  0  0  0  0  1  0  0  0  0  0  0
  196.6450  174.5830  141.4060 C   0  0  0  0  0  1  0  0  0  0  0  0
  192.0210  175.7790  143.5640 C   0  0  0  0  0  0  0  0  0  0  0  0
  194.6450  175.3310  142.7040 C   0  0  0  0  0  0  0  0  0  0  0  0
  184.8830  178.3600  145.0780 N   0  0  0  0  0  2  0  0  0  0  0  0
  184.4710  178.7880  143.7810 C   0  0  0  0  0  0  0  0  0  0  0  0
  185.4000  178.9260  142.7550 O   0  0  0  0  0  0  0  0  0  0  0  0
  183.2590  179.0400  143.5620 O   0  0  0  0  0  1  0  0  0  0  0  0
  1 16  1  1  0  0  0
  2 24  1  0  0  0  0
  3 11  1  0  0  0  0
  4  3  2  0  0  0  0
  4 21  1  0  0  0  0
  5 25  1  0  0  0  0
  6  5  1  0  0  0  0
  6 18  1  0  0  0  0
  7 19  1  0  0  0  0
  8 17  2  0  0  0  0
  9 28  1  0  0  0  0
  9 15  1  0  0  0  0
 10 17  1  1  0  0  0
 10 20  1  0  0  0  0
 10  1  1  0  0  0  0
 11 13  2  0  0  0  0
 12  8  1  0  0  0  0
 12  2  2  0  0  0  0
 13 12  1  0  0  0  0
 14 27  1  0  0  0  0
 15 18  2  0  0  0  0
 17  7  1  0  0  0  0
 19 16  1  0  0  0  0
 20 29  1  6  0  0  0
 20  1  1  0  0  0  0
 21 22  2  0  0  0  0
 22 13  1  0  0  0  0
 22 14  1  0  0  0  0
 23 14  2  0  0  0  0
 23 28  1  0  0  0  0
 24  7  2  0  0  0  0
 26  9  1  0  0  0  0
 27  2  1  0  0  0  0
 27  5  2  0  0  0  0
 28  6  2  0  0  0  0
 30 29  1  0  0  0  0
 31 30  2  0  0  0  0
 32 30  1  0  0  0  0
M  END
>  <MODEL>
6

>  <REMARK>
 VINA RESULT:      -8.4      2.783      9.008
  Name = 
  1 active torsions:
  status: ('A' for Active; 'I' for Inactive)
    1  A    between atoms: C_20  and  N_29
                            x       y       z     vdW  Elec       q    Type
                         _______ _______ _______ _____ _____    ______ ____

>  <TORSDO>
F 1

$$$$
=
 OpenBabel11112416343D

 32 38  0  0  1  0  0  0  0  0999 V2000
  185.9410  179.0420  143.2020 C   0  0  1  0  0  3  0  0  0  0  0  0
  189.0030  175.0050  142.1800 C   0  0  0  0  0  0  0  0  0  0  0  0
  192.1480  174.8270  145.8920 C   0  0  0  0  0  3  0  0  0  0  0  0
  192.7720  173.7980  145.2670 N   0  0  0  0  0  0  0  0  0  0  0  0
  189.2830  173.3700  140.3010 C   0  0  0  0  0  0  0  0  0  0  0  0
  190.0210  172.3110  139.7800 C   0  0  0  0  0  0  0  0  0  0  0  0
  187.2180  176.6670  142.1950 C   0  0  0  0  0  0  0  0  0  0  0  0
  188.7620  176.5760  144.0400 C   0  0  0  0  0  3  0  0  0  0  0  0
  191.6020  170.7920  139.6880 N   0  0  0  0  0  0  0  0  0  0  0  0
  186.9340  178.2900  144.1060 C   0  0  2  0  0  3  0  0  0  0  0  0
  191.0350  175.4140  145.2980 C   0  0  0  0  0  3  0  0  0  0  0  0
  189.4500  175.5080  143.4330 C   0  0  0  0  0  0  0  0  0  0  0  0
  190.5710  174.9390  144.0640 C   0  0  0  0  0  0  0  0  0  0  0  0
  190.8310  173.3570  142.2240 C   0  0  0  0  0  0  0  0  0  0  0  0
  190.8700  170.6590  138.5890 N   0  0  0  0  0  0  0  0  0  0  0  0
  185.9990  178.6650  141.8190 O   0  0  0  0  0  0  0  0  0  0  0  0
  187.6500  177.1520  143.4290 C   0  0  0  0  0  0  0  0  0  0  0  0
  189.8780  171.5860  138.6090 C   0  0  0  0  0  3  0  0  0  0  0  0
  186.0000  177.2720  141.5920 C   0  0  0  0  0  2  0  0  0  0  0  0
  185.4400  177.9920  144.1920 C   0  0  1  0  0  3  0  0  0  0  0  0
  192.3420  173.3350  144.0930 N   0  0  0  0  0  0  0  0  0  0  0  0
  191.2570  173.8680  143.4600 C   0  0  0  0  0  0  0  0  0  0  0  0
  191.5370  172.2820  141.6430 C   0  0  0  0  0  3  0  0  0  0  0  0
  187.8760  175.6020  141.5860 C   0  0  0  0  0  3  0  0  0  0  0  0
  188.1910  173.8470  139.5810 O   0  0  0  0  0  1  0  0  0  0  0  0
  192.7540  169.9670  140.0070 C   0  0  0  0  0  1  0  0  0  0  0  0
  189.6860  173.9220  141.5590 C   0  0  0  0  0  0  0  0  0  0  0  0
  191.0980  171.7920  140.4220 C   0  0  0  0  0  0  0  0  0  0  0  0
  184.8830  178.6560  145.3570 N   0  0  0  0  0  2  0  0  0  0  0  0
  184.9370  178.0620  146.6530 C   0  0  0  0  0  0  0  0  0  0  0  0
  185.5350  176.8190  146.8340 O   0  0  0  0  0  0  0  0  0  0  0  0
  184.4410  178.6660  147.6380 O   0  0  0  0  0  1  0  0  0  0  0  0
  1 16  1  6  0  0  0
  1 10  1  0  0  0  0
  1 20  1  0  0  0  0
  2 12  1  0  0  0  0
  4  3  2  0  0  0  0
  5 27  1  0  0  0  0
  6  5  2  0  0  0  0
  6 28  1  0  0  0  0
  7 17  2  0  0  0  0
  9 26  1  0  0  0  0
  9 28  1  0  0  0  0
 10 17  1  6  0  0  0
 10 20  1  0  0  0  0
 11  3  1  0  0  0  0
 12  8  2  0  0  0  0
 12 13  1  0  0  0  0
 13 11  2  0  0  0  0
 14 22  1  0  0  0  0
 15 18  2  0  0  0  0
 15  9  1  0  0  0  0
 17  8  1  0  0  0  0
 18  6  1  0  0  0  0
 19 16  1  0  0  0  0
 19  7  1  0  0  0  0
 20 29  1  1  0  0  0
 21  4  1  0  0  0  0
 22 13  1  0  0  0  0
 22 21  2  0  0  0  0
 23 14  1  0  0  0  0
 24  2  2  0  0  0  0
 24  7  1  0  0  0  0
 25  5  1  0  0  0  0
 27  2  1  0  0  0  0
 27 14  2  0  0  0  0
 28 23  2  0  0  0  0
 29 30  1  0  0  0  0
 30 31  2  0  0  0  0
 30 32  1  0  0  0  0
M  END
>  <MODEL>
7

>  <REMARK>
 VINA RESULT:      -8.3      3.671      7.937
  Name = 
  1 active torsions:
  status: ('A' for Active; 'I' for Inactive)
    1  A    between atoms: C_20  and  N_29
                            x       y       z     vdW  Elec       q    Type
                         _______ _______ _______ _____ _____    ______ ____

>  <TORSDO>
F 1

$$$$
=
 OpenBabel11112416343D

 32 38  0  0  1  0  0  0  0  0999 V2000
  195.2450  175.2170  145.4370 C   0  0  1  0  0  3  0  0  0  0  0  0
  190.3650  176.0620  143.9580 C   0  0  0  0  0  0  0  0  0  0  0  0
  189.8590  173.5980  139.7900 C   0  0  0  0  0  3  0  0  0  0  0  0
  188.6020  174.0980  139.6880 N   0  0  0  0  0  0  0  0  0  0  0  0
  188.4380  177.4470  144.7660 C   0  0  0  0  0  0  0  0  0  0  0  0
  187.1370  177.8790  144.5300 C   0  0  0  0  0  0  0  0  0  0  0  0
  192.4650  175.9220  145.1890 C   0  0  0  0  0  0  0  0  0  0  0  0
  192.2170  174.6910  143.1360 C   0  0  0  0  0  3  0  0  0  0  0  0
  185.2190  178.0620  143.4790 N   0  0  0  0  0  0  0  0  0  0  0  0
  194.3880  174.5050  144.3760 C   0  0  2  0  0  3  0  0  0  0  0  0
  190.6480  173.9470  140.8810 C   0  0  0  0  0  3  0  0  0  0  0  0
  190.9080  175.1840  142.9790 C   0  0  0  0  0  0  0  0  0  0  0  0
  190.1400  174.8090  141.8620 C   0  0  0  0  0  0  0  0  0  0  0  0
  188.2750  176.1650  142.6620 C   0  0  0  0  0  0  0  0  0  0  0  0
  185.1350  178.8070  144.5740 N   0  0  0  0  0  0  0  0  0  0  0  0
  194.6480  176.4030  145.9810 O   0  0  0  0  0  0  0  0  0  0  0  0
  192.9930  175.0530  144.2360 C   0  0  0  0  0  0  0  0  0  0  0  0
  186.3070  178.7180  145.2540 C   0  0  0  0  0  3  0  0  0  0  0  0
  193.3010  176.2510  146.3760 C   0  0  0  0  0  2  0  0  0  0  0  0
  194.5700  173.8850  145.7580 C   0  0  1  0  0  3  0  0  0  0  0  0
  188.1050  174.9190  140.6140 N   0  0  0  0  0  0  0  0  0  0  0  0
  188.8290  175.2990  141.7060 C   0  0  0  0  0  0  0  0  0  0  0  0
  186.9580  176.6390  142.4810 C   0  0  0  0  0  3  0  0  0  0  0  0
  191.1680  176.4100  145.0600 C   0  0  0  0  0  3  0  0  0  0  0  0
  189.0970  177.8880  145.9100 O   0  0  0  0  0  1  0  0  0  0  0  0
  184.1500  177.9160  142.5070 C   0  0  0  0  0  1  0  0  0  0  0  0
  189.0410  176.5630  143.8140 C   0  0  0  0  0  0  0  0  0  0  0  0
  186.4300  177.4920  143.4380 C   0  0  0  0  0  0  0  0  0  0  0  0
  195.5520  172.8170  145.6820 N   0  0  0  0  0  2  0  0  0  0  0  0
  195.1750  171.4780  145.3640 C   0  0  0  0  0  0  0  0  0  0  0  0
  193.8450  171.1600  145.1140 O   0  0  0  0  0  0  0  0  0  0  0  0
  196.0530  170.5800  145.3090 O   0  0  0  0  0  1  0  0  0  0  0  0
  1 20  1  0  0  0  0
  1 16  1  1  0  0  0
  2 24  1  0  0  0  0
  3 11  1  0  0  0  0
  4  3  2  0  0  0  0
  4 21  1  0  0  0  0
  5 25  1  0  0  0  0
  6  5  1  0  0  0  0
  6 18  1  0  0  0  0
  7 19  1  0  0  0  0
  8 17  2  0  0  0  0
  9 15  1  0  0  0  0
 10 17  1  1  0  0  0
 10  1  1  0  0  0  0
 10 20  1  0  0  0  0
 11 13  2  0  0  0  0
 12  8  1  0  0  0  0
 12  2  2  0  0  0  0
 13 12  1  0  0  0  0
 14 27  1  0  0  0  0
 15 18  2  0  0  0  0
 16 19  1  0  0  0  0
 17  7  1  0  0  0  0
 20 29  1  6  0  0  0
 21 22  2  0  0  0  0
 22 13  1  0  0  0  0
 22 14  1  0  0  0  0
 23 14  2  0  0  0  0
 23 28  1  0  0  0  0
 24  7  2  0  0  0  0
 26  9  1  0  0  0  0
 27  2  1  0  0  0  0
 27  5  2  0  0  0  0
 28  9  1  0  0  0  0
 28  6  2  0  0  0  0
 30 29  1  0  0  0  0
 31 30  2  0  0  0  0
 32 30  1  0  0  0  0
M  END
>  <MODEL>
8

>  <REMARK>
 VINA RESULT:      -8.2      3.049      5.313
  Name = 
  1 active torsions:
  status: ('A' for Active; 'I' for Inactive)
    1  A    between atoms: C_20  and  N_29
                            x       y       z     vdW  Elec       q    Type
                         _______ _______ _______ _____ _____    ______ ____

>  <TORSDO>
F 1

$$$$
=
 OpenBabel11112416343D

 32 38  0  0  1  0  0  0  0  0999 V2000
  186.0320  178.7510  142.7580 C   0  0  1  0  0  3  0  0  0  0  0  0
  189.9080  175.3330  142.7010 C   0  0  0  0  0  0  0  0  0  0  0  0
  192.3760  176.1460  146.8170 C   0  0  0  0  0  3  0  0  0  0  0  0
  193.2730  175.2080  146.4220 N   0  0  0  0  0  0  0  0  0  0  0  0
  190.7890  173.6150  141.1010 C   0  0  0  0  0  0  0  0  0  0  0  0
  191.7840  172.6820  140.8290 C   0  0  0  0  0  0  0  0  0  0  0  0
  187.8710  176.5960  142.2510 C   0  0  0  0  0  0  0  0  0  0  0  0
  189.0790  176.9940  144.2940 C   0  0  0  0  0  3  0  0  0  0  0  0
  193.6100  171.5090  141.1560 N   0  0  0  0  0  0  0  0  0  0  0  0
  186.9830  178.3040  143.8820 C   0  0  2  0  0  3  0  0  0  0  0  0
  191.2880  176.4380  146.0010 C   0  0  0  0  0  3  0  0  0  0  0  0
  190.0420  176.0330  143.9320 C   0  0  0  0  0  0  0  0  0  0  0  0
  191.1290  175.7640  144.7830 C   0  0  0  0  0  0  0  0  0  0  0  0
  191.9740  174.0980  143.2130 C   0  0  0  0  0  0  0  0  0  0  0  0
  193.1060  171.1270  139.9890 N   0  0  0  0  0  0  0  0  0  0  0  0
  186.3840  178.2630  141.4560 O   0  0  0  0  0  0  0  0  0  0  0  0
  187.9970  177.2740  143.4630 C   0  0  0  0  0  0  0  0  0  0  0  0
  191.9710  171.8330  139.7510 C   0  0  0  0  0  3  0  0  0  0  0  0
  186.6790  176.8830  141.4090 C   0  0  0  0  0  2  0  0  0  0  0  0
  185.5750  177.7220  143.7900 C   0  0  1  0  0  3  0  0  0  0  0  0
  193.1350  174.5580  145.2660 N   0  0  0  0  0  0  0  0  0  0  0  0
  192.0900  174.8000  144.4220 C   0  0  0  0  0  0  0  0  0  0  0  0
  192.9520  173.1360  142.8790 C   0  0  0  0  0  3  0  0  0  0  0  0
  188.8040  175.6320  141.8810 C   0  0  0  0  0  3  0  0  0  0  0  0
  189.7620  173.7920  140.1790 O   0  0  0  0  0  1  0  0  0  0  0  0
  194.8250  170.9660  141.7370 C   0  0  0  0  0  1  0  0  0  0  0  0
  190.8700  174.3540  142.3250 C   0  0  0  0  0  0  0  0  0  0  0  0
  192.8170  172.4530  141.6790 C   0  0  0  0  0  0  0  0  0  0  0  0
  184.7210  178.3690  144.7710 N   0  0  0  0  0  2  0  0  0  0  0  0
  184.6380  177.8990  146.1150 C   0  0  0  0  0  0  0  0  0  0  0  0
  185.3840  176.7990  146.5250 O   0  0  0  0  0  0  0  0  0  0  0  0
  183.8860  178.4830  146.9360 O   0  0  0  0  0  1  0  0  0  0  0  0
  1 16  1  6  0  0  0
  1 20  1  0  0  0  0
  1 10  1  0  0  0  0
  2 12  1  0  0  0  0
  4  3  1  0  0  0  0
  5 27  1  0  0  0  0
  6  5  2  0  0  0  0
  6 28  1  0  0  0  0
  7 17  1  0  0  0  0
  9 28  1  0  0  0  0
  9 26  1  0  0  0  0
 10 17  1  6  0  0  0
 11  3  2  0  0  0  0
 12  8  1  0  0  0  0
 12 13  2  0  0  0  0
 13 11  1  0  0  0  0
 14 22  2  0  0  0  0
 15  9  1  0  0  0  0
 17  8  2  0  0  0  0
 18 15  2  0  0  0  0
 18  6  1  0  0  0  0
 19 16  1  0  0  0  0
 19  7  1  0  0  0  0
 20 10  1  0  0  0  0
 20 29  1  1  0  0  0
 21  4  2  0  0  0  0
 22 13  1  0  0  0  0
 22 21  1  0  0  0  0
 23 14  1  0  0  0  0
 24  7  2  0  0  0  0
 24  2  1  0  0  0  0
 25  5  1  0  0  0  0
 27  2  2  0  0  0  0
 27 14  1  0  0  0  0
 28 23  2  0  0  0  0
 29 30  1  0  0  0  0
 30 31  2  0  0  0  0
 30 32  1  0  0  0  0
M  END
>  <MODEL>
9

>  <REMARK>
 VINA RESULT:      -8.1      3.080      8.247
  Name = 
  1 active torsions:
  status: ('A' for Active; 'I' for Inactive)
    1  A    between atoms: C_20  and  N_29
                            x       y       z     vdW  Elec       q    Type
                         _______ _______ _______ _____ _____    ______ ____

>  <TORSDO>
F 1

$$$$
