=
 OpenBabel11112417463D

 34 40  0  0  1  0  0  0  0  0999 V2000
  192.2560  176.5650  145.4660 C   0  0  0  0  0  0  0  0  0  0  0  0
  190.0720  176.5710  146.6910 C   0  0  0  0  0  2  0  0  0  0  0  0
  196.1180  175.2430  140.0370 C   0  0  2  0  0  3  0  0  0  0  0  0
  194.3860  175.9970  144.1210 C   0  0  1  0  0  3  0  0  0  0  0  0
  194.1530  175.3060  141.7360 C   0  0  0  0  0  0  0  0  0  0  0  0
  193.9710  174.2900  139.5920 O   0  0  0  0  0  0  0  0  0  0  0  0
  196.3110  175.1900  138.5980 N   0  0  0  0  0  1  0  0  0  0  0  0
  196.9550  174.2740  142.2490 C   0  0  0  0  0  2  0  0  0  0  0  0
  190.1890  175.2320  144.6550 C   0  0  2  0  0  3  0  0  0  0  0  0
  187.5950  175.6580  142.7750 C   0  0  0  0  0  2  0  0  0  0  0  0
  192.8190  175.3180  141.8850 C   0  0  0  0  0  3  0  0  0  0  0  0
  196.4670  175.6080  142.8020 C   0  0  0  0  0  2  0  0  0  0  0  0
  190.6590  175.7630  143.2800 C   0  0  1  0  0  3  0  0  0  0  0  0
  188.6990  175.9910  146.4400 C   0  0  0  0  0  2  0  0  0  0  0  0
  195.0030  175.6380  142.8700 N   0  0  0  0  0  0  0  0  0  0  0  0
  197.1180  174.3170  140.7280 C   0  0  0  0  0  2  0  0  0  0  0  0
  187.9480  176.4060  144.0550 C   0  0  2  0  0  3  0  0  0  0  0  0
  192.9140  176.0370  144.2140 C   0  0  0  0  0  0  0  0  0  0  0  0
  194.7010  174.9160  140.4120 C   0  0  0  0  0  0  0  0  0  0  0  0
  192.1640  175.6830  143.1620 C   0  0  0  0  0  0  0  0  0  0  0  0
  194.5360  176.5400  146.4590 C   0  0  0  0  0  3  0  0  0  0  0  0
  188.6990  175.7760  141.7360 C   0  0  0  0  0  2  0  0  0  0  0  0
  195.1080  176.2380  145.1770 N   0  0  0  0  0  0  0  0  0  0  0  0
  189.9480  175.0170  142.1560 C   0  0  0  0  0  2  0  0  0  0  0  0
  188.7070  175.4660  145.0100 C   0  0  1  0  0  3  0  0  0  0  0  0
  193.2160  176.6670  146.6220 C   0  0  0  0  0  3  0  0  0  0  0  0
  191.0180  175.7440  145.8480 C   0  0  1  0  0  3  0  0  0  0  0  0
  186.7620  176.8520  144.6460 O   0  0  0  0  0  0  0  0  0  0  0  0
  186.4690  178.0540  143.9960 C   0  0  0  0  0  2  0  0  0  0  0  0
  183.5760  178.9910  145.8540 O   0  0  0  0  0  0  0  0  0  0  0  0
  185.8280  178.4780  146.3560 C   0  0  0  0  0  2  0  0  0  0  0  0
  185.7580  178.9970  144.9500 C   0  0  2  0  0  3  0  0  0  0  0  0
  184.3820  178.2570  146.7360 C   0  0  0  0  0  2  0  0  0  0  0  0
  184.2810  179.0100  144.6420 C   0  0  0  0  0  2  0  0  0  0  0  0
  1 27  1  0  0  0  0
  1 26  2  0  0  0  0
  3  7  1  6  0  0  0
  3 19  1  0  0  0  0
  3 16  1  0  0  0  0
  4 18  1  1  0  0  0
  4 23  1  0  0  0  0
  5 11  2  0  0  0  0
  5 15  1  0  0  0  0
  6 19  2  0  0  0  0
  8 12  1  0  0  0  0
  9 25  1  0  0  0  0
  9 27  1  0  0  0  0
 10 17  1  0  0  0  0
 11 20  1  0  0  0  0
 12 15  1  0  0  0  0
 13  9  1  0  0  0  0
 14  2  1  0  0  0  0
 15  4  1  0  0  0  0
 16  8  1  0  0  0  0
 17 28  1  0  0  0  0
 17 25  1  0  0  0  0
 18  1  1  0  0  0  0
 19  5  1  0  0  0  0
 20 13  1  0  0  0  0
 20 18  2  0  0  0  0
 21 26  1  0  0  0  0
 22 24  1  0  0  0  0
 22 10  1  0  0  0  0
 23 21  2  0  0  0  0
 24 13  1  0  0  0  0
 25 14  1  0  0  0  0
 27  2  1  0  0  0  0
 29 28  1  0  0  0  0
 29 32  1  0  0  0  0
 30 33  1  0  0  0  0
 31 33  1  0  0  0  0
 32 31  1  0  0  0  0
 34 32  1  0  0  0  0
 34 30  1  0  0  0  0
M  END
>  <MODEL>
1

>  <REMARK>
 VINA RESULT:      -8.6      0.000      0.000
  Name = 
  3 active torsions:
  status: ('A' for Active; 'I' for Inactive)
    1  A    between atoms: C_17  and  O_28
    2  A    between atoms: O_28  and  C_29
    3  A    between atoms: C_29  and  C_32
                            x       y       z     vdW  Elec       q    Type
                         _______ _______ _______ _____ _____    ______ ____

>  <TORSDO>
F 3

$$$$
=
 OpenBabel11112417463D

 34 40  0  0  1  0  0  0  0  0999 V2000
  188.7940  173.5430  142.2300 C   0  0  0  0  0  0  0  0  0  0  0  0
  187.0750  175.3560  142.4050 C   0  0  0  0  0  2  0  0  0  0  0  0
  194.3110  170.2370  144.4120 C   0  0  2  0  0  3  0  0  0  0  0  0
  190.9400  172.1140  142.0970 C   0  0  1  0  0  3  0  0  0  0  0  0
  192.4410  172.0120  144.0860 C   0  0  0  0  0  0  0  0  0  0  0  0
  194.0850  172.1720  145.7980 O   0  0  0  0  0  0  0  0  0  0  0  0
  195.1310  169.7060  145.4880 N   0  0  0  0  0  1  0  0  0  0  0  0
  194.3860  171.0260  141.9820 C   0  0  0  0  0  2  0  0  0  0  0  0
  189.0540  175.5740  143.8150 C   0  0  2  0  0  3  0  0  0  0  0  0
  188.2950  176.4200  146.8410 C   0  0  0  0  0  2  0  0  0  0  0  0
  191.6700  172.9310  144.6880 C   0  0  0  0  0  3  0  0  0  0  0  0
  192.9220  170.6030  141.9970 C   0  0  0  0  0  2  0  0  0  0  0  0
  189.5710  174.4780  144.7780 C   0  0  1  0  0  3  0  0  0  0  0  0
  186.8940  176.5840  143.2670 C   0  0  0  0  0  2  0  0  0  0  0  0
  192.1090  171.5700  142.7400 N   0  0  0  0  0  0  0  0  0  0  0  0
  195.1610  170.4230  143.1570 C   0  0  0  0  0  2  0  0  0  0  0  0
  187.3400  176.0660  145.7090 C   0  0  2  0  0  3  0  0  0  0  0  0
  190.1040  173.0880  142.8250 C   0  0  0  0  0  0  0  0  0  0  0  0
  193.6300  171.5120  144.8220 C   0  0  0  0  0  0  0  0  0  0  0  0
  190.4650  173.5030  144.0460 C   0  0  0  0  0  0  0  0  0  0  0  0
  189.5240  172.3580  140.1690 C   0  0  0  0  0  3  0  0  0  0  0  0
  189.2770  175.2920  147.1180 C   0  0  0  0  0  2  0  0  0  0  0  0
  190.6430  171.7940  140.8700 N   0  0  0  0  0  0  0  0  0  0  0  0
  190.2660  175.1160  145.9770 C   0  0  0  0  0  2  0  0  0  0  0  0
  187.9500  176.5010  144.3630 C   0  0  1  0  0  3  0  0  0  0  0  0
  188.6710  173.1930  140.7700 C   0  0  0  0  0  3  0  0  0  0  0  0
  188.5540  175.0410  142.4600 C   0  0  1  0  0  3  0  0  0  0  0  0
  186.1270  176.7250  145.9320 O   0  0  0  0  0  0  0  0  0  0  0  0
  186.4630  177.8380  146.7070 C   0  0  0  0  0  2  0  0  0  0  0  0
  184.7760  179.8500  144.2990 O   0  0  0  0  0  0  0  0  0  0  0  0
  184.1450  178.5280  146.1540 C   0  0  0  0  0  2  0  0  0  0  0  0
  185.5530  179.0020  146.3620 C   0  0  2  0  0  3  0  0  0  0  0  0
  183.8490  178.8840  144.7150 C   0  0  0  0  0  2  0  0  0  0  0  0
  185.9450  179.5720  145.0200 C   0  0  0  0  0  2  0  0  0  0  0  0
  1 27  1  0  0  0  0
  1 18  1  0  0  0  0
  2 27  1  0  0  0  0
  2 14  1  0  0  0  0
  3 19  1  0  0  0  0
  3  7  1  1  0  0  0
  4 23  1  6  0  0  0
  4 15  1  0  0  0  0
  4 18  1  0  0  0  0
  5 11  2  0  0  0  0
  5 19  1  0  0  0  0
  8 12  1  0  0  0  0
  8 16  1  0  0  0  0
  9 25  1  0  0  0  0
  9 13  1  0  0  0  0
 10 22  1  0  0  0  0
 12 15  1  0  0  0  0
 13 24  1  0  0  0  0
 14 25  1  0  0  0  0
 15  5  1  0  0  0  0
 16  3  1  0  0  0  0
 17 28  1  0  0  0  0
 17 10  1  0  0  0  0
 18 20  2  0  0  0  0
 19  6  2  0  0  0  0
 20 11  1  0  0  0  0
 20 13  1  0  0  0  0
 21 26  1  0  0  0  0
 21 23  2  0  0  0  0
 24 22  1  0  0  0  0
 25 17  1  0  0  0  0
 26  1  2  0  0  0  0
 27  9  1  0  0  0  0
 28 29  1  0  0  0  0
 30 33  1  0  0  0  0
 30 34  1  0  0  0  0
 31 32  1  0  0  0  0
 32 29  1  0  0  0  0
 33 31  1  0  0  0  0
 34 32  1  0  0  0  0
M  END
>  <MODEL>
2

>  <REMARK>
 VINA RESULT:      -8.3      3.380      4.850
  Name = 
  3 active torsions:
  status: ('A' for Active; 'I' for Inactive)
    1  A    between atoms: C_17  and  O_28
    2  A    between atoms: O_28  and  C_29
    3  A    between atoms: C_29  and  C_32
                            x       y       z     vdW  Elec       q    Type
                         _______ _______ _______ _____ _____    ______ ____

>  <TORSDO>
F 3

$$$$
=
 OpenBabel11112417463D

 34 40  0  0  1  0  0  0  0  0999 V2000
  189.8670  174.1840  142.6550 C   0  0  0  0  0  0  0  0  0  0  0  0
  187.6820  175.4080  142.6450 C   0  0  0  0  0  2  0  0  0  0  0  0
  196.1310  173.0530  145.0220 C   0  0  2  0  0  3  0  0  0  0  0  0
  192.3430  173.4560  142.6270 C   0  0  1  0  0  3  0  0  0  0  0  0
  193.8120  174.1180  144.5300 C   0  0  0  0  0  0  0  0  0  0  0  0
  195.3380  175.0270  146.1140 O   0  0  0  0  0  0  0  0  0  0  0  0
  197.0770  172.9660  146.1230 N   0  0  0  0  0  1  0  0  0  0  0  0
  195.9560  173.4370  142.5010 C   0  0  0  0  0  2  0  0  0  0  0  0
  189.5070  176.4240  143.9050 C   0  0  2  0  0  3  0  0  0  0  0  0
  188.5400  177.4710  146.8050 C   0  0  0  0  0  2  0  0  0  0  0  0
  192.8020  174.8490  145.0280 C   0  0  0  0  0  3  0  0  0  0  0  0
  194.6890  172.6050  142.6530 C   0  0  0  0  0  2  0  0  0  0  0  0
  190.3340  175.6960  144.9920 C   0  0  1  0  0  3  0  0  0  0  0  0
  187.1420  176.6460  143.3230 C   0  0  0  0  0  2  0  0  0  0  0  0
  193.6240  173.3910  143.2840 N   0  0  0  0  0  0  0  0  0  0  0  0
  196.8810  173.2840  143.7120 C   0  0  0  0  0  2  0  0  0  0  0  0
  187.7320  176.6750  145.7880 C   0  0  2  0  0  3  0  0  0  0  0  0
  191.2550  174.2380  143.2440 C   0  0  0  0  0  0  0  0  0  0  0  0
  195.0990  174.1160  145.2710 C   0  0  0  0  0  0  0  0  0  0  0  0
  191.4780  174.9290  144.3690 C   0  0  0  0  0  0  0  0  0  0  0  0
  190.9120  172.9610  140.7590 C   0  0  0  0  0  3  0  0  0  0  0  0
  189.8170  176.7430  147.1970 C   0  0  0  0  0  2  0  0  0  0  0  0
  192.1520  172.8730  141.4790 N   0  0  0  0  0  0  0  0  0  0  0  0
  190.8090  176.6910  146.0460 C   0  0  0  0  0  2  0  0  0  0  0  0
  188.1770  177.0540  144.3640 C   0  0  1  0  0  3  0  0  0  0  0  0
  189.8500  173.5880  141.2710 C   0  0  0  0  0  3  0  0  0  0  0  0
  189.1870  175.5590  142.6710 C   0  0  1  0  0  3  0  0  0  0  0  0
  186.3770  176.9700  145.9730 O   0  0  0  0  0  0  0  0  0  0  0  0
  186.3670  178.1060  146.7860 C   0  0  0  0  0  2  0  0  0  0  0  0
  184.7680  179.8170  144.1010 O   0  0  0  0  0  0  0  0  0  0  0  0
  184.0850  178.3850  145.8540 C   0  0  0  0  0  2  0  0  0  0  0  0
  185.3360  179.0970  146.2780 C   0  0  2  0  0  3  0  0  0  0  0  0
  183.9680  178.7000  144.3800 C   0  0  0  0  0  2  0  0  0  0  0  0
  185.8350  179.7400  145.0070 C   0  0  0  0  0  2  0  0  0  0  0  0
  1 27  1  0  0  0  0
  1 18  1  0  0  0  0
  2 27  1  0  0  0  0
  2 14  1  0  0  0  0
  3 19  1  0  0  0  0
  3  7  1  1  0  0  0
  4 23  1  6  0  0  0
  4 18  1  0  0  0  0
  4 15  1  0  0  0  0
  5 11  2  0  0  0  0
  5 19  1  0  0  0  0
  8 12  1  0  0  0  0
  8 16  1  0  0  0  0
  9 25  1  0  0  0  0
  9 13  1  0  0  0  0
 10 22  1  0  0  0  0
 12 15  1  0  0  0  0
 13 24  1  0  0  0  0
 14 25  1  0  0  0  0
 15  5  1  0  0  0  0
 16  3  1  0  0  0  0
 17 28  1  0  0  0  0
 17 10  1  0  0  0  0
 18 20  2  0  0  0  0
 19  6  2  0  0  0  0
 20 13  1  0  0  0  0
 20 11  1  0  0  0  0
 21 26  1  0  0  0  0
 21 23  2  0  0  0  0
 24 22  1  0  0  0  0
 25 17  1  0  0  0  0
 26  1  2  0  0  0  0
 27  9  1  0  0  0  0
 28 29  1  0  0  0  0
 30 33  1  0  0  0  0
 30 34  1  0  0  0  0
 31 32  1  0  0  0  0
 32 29  1  0  0  0  0
 33 31  1  0  0  0  0
 34 32  1  0  0  0  0
M  END
>  <MODEL>
3

>  <REMARK>
 VINA RESULT:      -8.3      2.340      4.045
  Name = 
  3 active torsions:
  status: ('A' for Active; 'I' for Inactive)
    1  A    between atoms: C_17  and  O_28
    2  A    between atoms: O_28  and  C_29
    3  A    between atoms: C_29  and  C_32
                            x       y       z     vdW  Elec       q    Type
                         _______ _______ _______ _____ _____    ______ ____

>  <TORSDO>
F 3

$$$$
=
 OpenBabel11112417463D

 34 40  0  0  1  0  0  0  0  0999 V2000
  187.4260  176.3430  141.3190 C   0  0  0  0  0  0  0  0  0  0  0  0
  187.3480  178.0190  143.1790 C   0  0  0  0  0  2  0  0  0  0  0  0
  189.7670  170.6690  138.4140 C   0  0  2  0  0  3  0  0  0  0  0  0
  188.0780  174.7140  139.4250 C   0  0  1  0  0  3  0  0  0  0  0  0
  189.4670  172.7190  139.9810 C   0  0  0  0  0  0  0  0  0  0  0  0
  191.0850  171.0210  140.3770 O   0  0  0  0  0  0  0  0  0  0  0  0
  190.2180  169.2890  138.5010 N   0  0  0  0  0  1  0  0  0  0  0  0
  189.9200  172.7830  136.9860 C   0  0  0  0  0  2  0  0  0  0  0  0
  189.2010  176.4320  143.2030 C   0  0  2  0  0  3  0  0  0  0  0  0
  189.6970  175.1960  146.1480 C   0  0  0  0  0  2  0  0  0  0  0  0
  189.5890  173.1800  141.2360 C   0  0  0  0  0  3  0  0  0  0  0  0
  188.5600  173.0750  137.6080 C   0  0  0  0  0  2  0  0  0  0  0  0
  189.0410  174.8950  143.1250 C   0  0  1  0  0  3  0  0  0  0  0  0
  188.1520  178.2680  144.4340 C   0  0  0  0  0  2  0  0  0  0  0  0
  188.7050  173.4860  139.0080 N   0  0  0  0  0  0  0  0  0  0  0  0
  190.3070  171.3100  137.1360 C   0  0  0  0  0  2  0  0  0  0  0  0
  188.5640  176.1130  145.7050 C   0  0  2  0  0  3  0  0  0  0  0  0
  188.2080  175.1490  140.8300 C   0  0  0  0  0  0  0  0  0  0  0  0
  190.1540  171.4480  139.6380 C   0  0  0  0  0  0  0  0  0  0  0  0
  188.9530  174.4390  141.6860 C   0  0  0  0  0  0  0  0  0  0  0  0
  186.8530  176.7240  138.9300 C   0  0  0  0  0  3  0  0  0  0  0  0
  189.7460  173.9250  145.3130 C   0  0  0  0  0  2  0  0  0  0  0  0
  187.4410  175.4630  138.5720 N   0  0  0  0  0  0  0  0  0  0  0  0
  190.1740  174.2090  143.8830 C   0  0  0  0  0  2  0  0  0  0  0  0
  189.0700  177.0640  144.6030 C   0  0  1  0  0  3  0  0  0  0  0  0
  186.8600  177.1650  140.1910 C   0  0  0  0  0  3  0  0  0  0  0  0
  188.2540  177.2140  142.2740 C   0  0  1  0  0  3  0  0  0  0  0  0
  188.1250  176.8400  146.8160 O   0  0  0  0  0  0  0  0  0  0  0  0
  186.9910  176.1580  147.2630 C   0  0  0  0  0  2  0  0  0  0  0  0
  185.5660  179.4160  147.0380 O   0  0  0  0  0  0  0  0  0  0  0  0
  184.8760  177.2170  146.5130 C   0  0  0  0  0  2  0  0  0  0  0  0
  185.8950  177.1480  147.6120 C   0  0  2  0  0  3  0  0  0  0  0  0
  184.9440  178.6510  146.0410 C   0  0  0  0  0  2  0  0  0  0  0  0
  186.4700  178.5430  147.6600 C   0  0  0  0  0  2  0  0  0  0  0  0
  1 27  1  0  0  0  0
  2 14  1  0  0  0  0
  3  7  1  1  0  0  0
  3 19  1  0  0  0  0
  4 23  1  6  0  0  0
  4 18  1  0  0  0  0
  5 11  2  0  0  0  0
  8 16  1  0  0  0  0
  8 12  1  0  0  0  0
  9 25  1  0  0  0  0
 11 20  1  0  0  0  0
 12 15  1  0  0  0  0
 13  9  1  0  0  0  0
 13 24  1  0  0  0  0
 14 25  1  0  0  0  0
 15  4  1  0  0  0  0
 15  5  1  0  0  0  0
 16  3  1  0  0  0  0
 17 10  1  0  0  0  0
 17 28  1  0  0  0  0
 18  1  1  0  0  0  0
 18 20  2  0  0  0  0
 19  5  1  0  0  0  0
 19  6  2  0  0  0  0
 20 13  1  0  0  0  0
 21 26  1  0  0  0  0
 22 10  1  0  0  0  0
 23 21  2  0  0  0  0
 24 22  1  0  0  0  0
 25 17  1  0  0  0  0
 26  1  2  0  0  0  0
 27  2  1  0  0  0  0
 27  9  1  0  0  0  0
 28 29  1  0  0  0  0
 29 32  1  0  0  0  0
 30 34  1  0  0  0  0
 31 32  1  0  0  0  0
 32 34  1  0  0  0  0
 33 31  1  0  0  0  0
 33 30  1  0  0  0  0
M  END
>  <MODEL>
4

>  <REMARK>
 VINA RESULT:      -8.2      4.246      5.820
  Name = 
  3 active torsions:
  status: ('A' for Active; 'I' for Inactive)
    1  A    between atoms: C_17  and  O_28
    2  A    between atoms: O_28  and  C_29
    3  A    between atoms: C_29  and  C_32
                            x       y       z     vdW  Elec       q    Type
                         _______ _______ _______ _____ _____    ______ ____

>  <TORSDO>
F 3

$$$$
=
 OpenBabel11112417463D

 34 40  0  0  1  0  0  0  0  0999 V2000
  190.5160  175.1570  142.6590 C   0  0  2  0  0  3  0  0  0  0  0  0
  192.6930  173.9950  142.2340 C   0  0  0  0  0  2  0  0  0  0  0  0
  186.1890  178.5950  146.6070 C   0  0  2  0  0  3  0  0  0  0  0  0
  188.2490  176.0050  143.5590 C   0  0  0  0  0  0  0  0  0  0  0  0
  188.1910  177.1690  145.7630 C   0  0  0  0  0  0  0  0  0  0  0  0
  188.0160  177.9450  148.0060 O   0  0  0  0  0  0  0  0  0  0  0  0
  185.9200  179.5980  147.6250 N   0  0  0  0  0  1  0  0  0  0  0  0
  185.2510  176.4800  145.5220 C   0  0  0  0  0  2  0  0  0  0  0  0
  192.1550  174.5110  144.5570 C   0  0  2  0  0  3  0  0  0  0  0  0
  194.6810  175.7690  146.1330 C   0  0  0  0  0  2  0  0  0  0  0  0
  189.4930  176.8870  145.9230 C   0  0  0  0  0  3  0  0  0  0  0  0
  186.0740  176.9520  144.3310 C   0  0  0  0  0  2  0  0  0  0  0  0
  191.7620  175.9150  145.0760 C   0  0  1  0  0  3  0  0  0  0  0  0
  193.8700  173.5760  143.0840 C   0  0  0  0  0  2  0  0  0  0  0  0
  187.5030  176.7220  144.5620 N   0  0  0  0  0  0  0  0  0  0  0  0
  185.0290  177.6030  146.5390 C   0  0  0  0  0  2  0  0  0  0  0  0
  194.5830  175.4390  144.6490 C   0  0  2  0  0  3  0  0  0  0  0  0
  189.6900  175.7620  143.7680 C   0  0  0  0  0  0  0  0  0  0  0  0
  187.5010  177.9060  146.8530 C   0  0  0  0  0  0  0  0  0  0  0  0
  190.2790  176.1510  144.9060 C   0  0  0  0  0  0  0  0  0  0  0  0
  188.3500  174.7590  141.5050 C   0  0  0  0  0  3  0  0  0  0  0  0
  193.5890  176.7370  146.5640 C   0  0  0  0  0  2  0  0  0  0  0  0
  187.6590  175.5310  142.5000 N   0  0  0  0  0  0  0  0  0  0  0  0
  192.2150  176.0870  146.5220 C   0  0  0  0  0  2  0  0  0  0  0  0
  193.6650  174.2180  144.4510 C   0  0  1  0  0  3  0  0  0  0  0  0
  189.6670  174.5490  141.5740 C   0  0  0  0  0  3  0  0  0  0  0  0
  191.5350  174.1440  143.1960 C   0  0  1  0  0  3  0  0  0  0  0  0
  195.8690  175.1680  144.1720 O   0  0  0  0  0  0  0  0  0  0  0  0
  196.3670  176.4080  143.7640 C   0  0  0  0  0  2  0  0  0  0  0  0
  196.8360  174.6030  140.7280 O   0  0  0  0  0  0  0  0  0  0  0  0
  195.9610  176.7130  141.3340 C   0  0  0  0  0  2  0  0  0  0  0  0
  196.9610  176.2940  142.3720 C   0  0  2  0  0  3  0  0  0  0  0  0
  195.7570  175.4690  140.5010 C   0  0  0  0  0  2  0  0  0  0  0  0
  197.2280  174.8430  142.0520 C   0  0  0  0  0  2  0  0  0  0  0  0
  1 26  1  6  0  0  0
  1 27  1  0  0  0  0
  1 18  1  0  0  0  0
  2 14  1  0  0  0  0
  2 27  1  0  0  0  0
  3 19  1  0  0  0  0
  3  7  1  1  0  0  0
  4 18  1  0  0  0  0
  4 15  1  0  0  0  0
  5 11  2  0  0  0  0
  5 19  1  0  0  0  0
  8 16  1  0  0  0  0
  9 13  1  0  0  0  0
 10 22  1  0  0  0  0
 12 15  1  0  0  0  0
 12  8  1  0  0  0  0
 13 24  1  0  0  0  0
 14 25  1  0  0  0  0
 15  5  1  0  0  0  0
 16  3  1  0  0  0  0
 17 10  1  0  0  0  0
 18 20  2  0  0  0  0
 19  6  2  0  0  0  0
 20 13  1  0  0  0  0
 20 11  1  0  0  0  0
 21 26  2  0  0  0  0
 21 23  1  0  0  0  0
 23  4  2  0  0  0  0
 24 22  1  0  0  0  0
 25  9  1  0  0  0  0
 25 17  1  0  0  0  0
 27  9  1  0  0  0  0
 28 17  1  0  0  0  0
 29 28  1  0  0  0  0
 30 34  1  0  0  0  0
 31 32  1  0  0  0  0
 32 29  1  0  0  0  0
 33 30  1  0  0  0  0
 33 31  1  0  0  0  0
 34 32  1  0  0  0  0
M  END
>  <MODEL>
5

>  <REMARK>
 VINA RESULT:      -8.2      3.016      9.032
  Name = 
  3 active torsions:
  status: ('A' for Active; 'I' for Inactive)
    1  A    between atoms: C_17  and  O_28
    2  A    between atoms: O_28  and  C_29
    3  A    between atoms: C_29  and  C_32
                            x       y       z     vdW  Elec       q    Type
                         _______ _______ _______ _____ _____    ______ ____

>  <TORSDO>
F 3

$$$$
=
 OpenBabel11112417463D

 34 40  0  0  1  0  0  0  0  0999 V2000
  193.6830  175.5130  145.3700 C   0  0  0  0  0  0  0  0  0  0  0  0
  192.0000  175.5980  147.2230 C   0  0  0  0  0  2  0  0  0  0  0  0
  195.4220  174.9480  138.8290 C   0  0  2  0  0  3  0  0  0  0  0  0
  195.1410  174.9340  143.3200 C   0  0  1  0  0  3  0  0  0  0  0  0
  194.0880  174.9270  141.0600 C   0  0  0  0  0  0  0  0  0  0  0  0
  193.0690  174.5410  138.9450 O   0  0  0  0  0  0  0  0  0  0  0  0
  195.1850  175.2300  137.4230 N   0  0  0  0  0  1  0  0  0  0  0  0
  196.5730  173.3140  140.4220 C   0  0  0  0  0  2  0  0  0  0  0  0
  191.2070  174.8220  145.0500 C   0  0  2  0  0  3  0  0  0  0  0  0
  188.3830  176.1710  144.2410 C   0  0  0  0  0  2  0  0  0  0  0  0
  192.8960  175.1390  141.6380 C   0  0  0  0  0  3  0  0  0  0  0  0
  196.6070  174.5280  141.3420 C   0  0  0  0  0  2  0  0  0  0  0  0
  191.3920  175.5940  143.7220 C   0  0  1  0  0  3  0  0  0  0  0  0
  190.5120  175.3560  147.3340 C   0  0  0  0  0  2  0  0  0  0  0  0
  195.2750  174.8020  141.8920 N   0  0  0  0  0  0  0  0  0  0  0  0
  196.3100  173.7130  138.9680 C   0  0  0  0  0  2  0  0  0  0  0  0
  189.2540  176.4930  145.4490 C   0  0  2  0  0  3  0  0  0  0  0  0
  193.8120  175.2120  143.8970 C   0  0  0  0  0  0  0  0  0  0  0  0
  194.1300  174.7960  139.5800 C   0  0  0  0  0  0  0  0  0  0  0  0
  192.7350  175.2780  143.1030 C   0  0  0  0  0  0  0  0  0  0  0  0
  196.0670  174.8280  145.5370 C   0  0  0  0  0  3  0  0  0  0  0  0
  189.1480  176.3500  142.9380 C   0  0  0  0  0  2  0  0  0  0  0  0
  196.1660  174.7660  144.1050 N   0  0  0  0  0  0  0  0  0  0  0  0
  190.2330  175.2990  142.7750 C   0  0  0  0  0  2  0  0  0  0  0  0
  189.9900  175.2200  145.9090 C   0  0  1  0  0  3  0  0  0  0  0  0
  194.9200  175.1440  146.1450 C   0  0  0  0  0  3  0  0  0  0  0  0
  192.4360  174.8570  145.9780 C   0  0  1  0  0  3  0  0  0  0  0  0
  188.4300  176.9780  146.4690 O   0  0  0  0  0  0  0  0  0  0  0  0
  187.1770  176.4150  146.2140 C   0  0  0  0  0  2  0  0  0  0  0  0
  185.4180  179.1680  147.6370 O   0  0  0  0  0  0  0  0  0  0  0  0
  184.8330  177.1760  146.5060 C   0  0  0  0  0  2  0  0  0  0  0  0
  186.1530  176.9680  147.1880 C   0  0  2  0  0  3  0  0  0  0  0  0
  184.5930  178.6640  146.6220 C   0  0  0  0  0  2  0  0  0  0  0  0
  186.5610  178.3570  147.6180 C   0  0  0  0  0  2  0  0  0  0  0  0
  1 27  1  0  0  0  0
  1 26  2  0  0  0  0
  2 14  1  0  0  0  0
  3  7  1  6  0  0  0
  3 16  1  0  0  0  0
  3 19  1  0  0  0  0
  4 18  1  1  0  0  0
  4 23  1  0  0  0  0
  5 11  2  0  0  0  0
  5 15  1  0  0  0  0
  6 19  2  0  0  0  0
  8 12  1  0  0  0  0
  9 25  1  0  0  0  0
  9 27  1  0  0  0  0
 10 17  1  0  0  0  0
 11 20  1  0  0  0  0
 12 15  1  0  0  0  0
 13  9  1  0  0  0  0
 15  4  1  0  0  0  0
 16  8  1  0  0  0  0
 17 25  1  0  0  0  0
 17 28  1  0  0  0  0
 18  1  1  0  0  0  0
 19  5  1  0  0  0  0
 20 13  1  0  0  0  0
 20 18  2  0  0  0  0
 21 26  1  0  0  0  0
 22 10  1  0  0  0  0
 23 21  2  0  0  0  0
 24 22  1  0  0  0  0
 24 13  1  0  0  0  0
 25 14  1  0  0  0  0
 27  2  1  0  0  0  0
 29 28  1  0  0  0  0
 29 32  1  0  0  0  0
 31 33  1  0  0  0  0
 31 32  1  0  0  0  0
 32 34  1  0  0  0  0
 33 30  1  0  0  0  0
 34 30  1  0  0  0  0
M  END
>  <MODEL>
6

>  <REMARK>
 VINA RESULT:      -8.2      1.469      1.867
  Name = 
  3 active torsions:
  status: ('A' for Active; 'I' for Inactive)
    1  A    between atoms: C_17  and  O_28
    2  A    between atoms: O_28  and  C_29
    3  A    between atoms: C_29  and  C_32
                            x       y       z     vdW  Elec       q    Type
                         _______ _______ _______ _____ _____    ______ ____

>  <TORSDO>
F 3

$$$$
=
 OpenBabel11112417463D

 34 40  0  0  1  0  0  0  0  0999 V2000
  190.4270  174.6120  142.9640 C   0  0  0  0  0  0  0  0  0  0  0  0
  188.6740  176.3690  143.3060 C   0  0  0  0  0  2  0  0  0  0  0  0
  196.2230  171.4800  144.6130 C   0  0  2  0  0  3  0  0  0  0  0  0
  192.5960  173.2540  142.6270 C   0  0  1  0  0  3  0  0  0  0  0  0
  194.2760  173.1950  144.4690 C   0  0  0  0  0  0  0  0  0  0  0  0
  196.0650  173.4040  146.0240 O   0  0  0  0  0  0  0  0  0  0  0  0
  197.1550  170.9730  145.6070 N   0  0  0  0  0  1  0  0  0  0  0  0
  196.0490  172.2770  142.1910 C   0  0  0  0  0  2  0  0  0  0  0  0
  190.7660  176.6470  144.5300 C   0  0  2  0  0  3  0  0  0  0  0  0
  190.2630  177.4610  147.6170 C   0  0  0  0  0  2  0  0  0  0  0  0
  193.5340  174.0870  145.1450 C   0  0  0  0  0  3  0  0  0  0  0  0
  194.6080  171.8070  142.3370 C   0  0  0  0  0  2  0  0  0  0  0  0
  191.4040  175.5660  145.4350 C   0  0  1  0  0  3  0  0  0  0  0  0
  188.5340  177.5880  144.1880 C   0  0  0  0  0  2  0  0  0  0  0  0
  193.8350  172.7460  143.1570 N   0  0  0  0  0  0  0  0  0  0  0  0
  196.9480  171.6970  143.2860 C   0  0  0  0  0  2  0  0  0  0  0  0
  189.2190  177.0780  146.5750 C   0  0  2  0  0  3  0  0  0  0  0  0
  191.7990  174.1980  143.4340 C   0  0  0  0  0  0  0  0  0  0  0  0
  195.5430  172.7310  145.0900 C   0  0  0  0  0  0  0  0  0  0  0  0
  192.2580  174.6220  144.6190 C   0  0  0  0  0  0  0  0  0  0  0  0
  191.0010  173.4570  140.8390 C   0  0  0  0  0  3  0  0  0  0  0  0
  191.3010  176.3640  147.7970 C   0  0  0  0  0  2  0  0  0  0  0  0
  192.1970  172.9270  141.4310 N   0  0  0  0  0  0  0  0  0  0  0  0
  192.1860  176.2220  146.5690 C   0  0  0  0  0  2  0  0  0  0  0  0
  189.6880  177.5360  145.1820 C   0  0  1  0  0  3  0  0  0  0  0  0
  190.1810  174.2620  141.5200 C   0  0  0  0  0  3  0  0  0  0  0  0
  190.1610  176.1010  143.2230 C   0  0  1  0  0  3  0  0  0  0  0  0
  188.0110  177.6970  146.9130 O   0  0  0  0  0  0  0  0  0  0  0  0
  187.1590  176.6470  147.2650 C   0  0  0  0  0  2  0  0  0  0  0  0
  184.7390  179.0420  146.2150 O   0  0  0  0  0  0  0  0  0  0  0  0
  185.2980  176.8210  145.6320 C   0  0  0  0  0  2  0  0  0  0  0  0
  185.7140  177.0620  147.0540 C   0  0  2  0  0  3  0  0  0  0  0  0
  184.9510  178.1980  145.1160 C   0  0  0  0  0  2  0  0  0  0  0  0
  185.5860  178.5560  147.2200 C   0  0  0  0  0  2  0  0  0  0  0  0
  1 27  1  0  0  0  0
  1 18  1  0  0  0  0
  2 14  1  0  0  0  0
  3 19  1  0  0  0  0
  3  7  1  1  0  0  0
  4 23  1  6  0  0  0
  4 15  1  0  0  0  0
  4 18  1  0  0  0  0
  5 19  1  0  0  0  0
  5 11  2  0  0  0  0
  8 12  1  0  0  0  0
  8 16  1  0  0  0  0
  9 25  1  0  0  0  0
  9 13  1  0  0  0  0
 10 22  1  0  0  0  0
 12 15  1  0  0  0  0
 13 24  1  0  0  0  0
 14 25  1  0  0  0  0
 15  5  1  0  0  0  0
 16  3  1  0  0  0  0
 17 28  1  0  0  0  0
 17 10  1  0  0  0  0
 18 20  2  0  0  0  0
 19  6  2  0  0  0  0
 20 11  1  0  0  0  0
 20 13  1  0  0  0  0
 21 23  2  0  0  0  0
 21 26  1  0  0  0  0
 24 22  1  0  0  0  0
 25 17  1  0  0  0  0
 26  1  2  0  0  0  0
 27  2  1  0  0  0  0
 27  9  1  0  0  0  0
 28 29  1  0  0  0  0
 30 34  1  0  0  0  0
 31 32  1  0  0  0  0
 32 34  1  0  0  0  0
 32 29  1  0  0  0  0
 33 31  1  0  0  0  0
 33 30  1  0  0  0  0
M  END
>  <MODEL>
7

>  <REMARK>
 VINA RESULT:      -8.1      2.561      4.233
  Name = 
  3 active torsions:
  status: ('A' for Active; 'I' for Inactive)
    1  A    between atoms: C_17  and  O_28
    2  A    between atoms: O_28  and  C_29
    3  A    between atoms: C_29  and  C_32
                            x       y       z     vdW  Elec       q    Type
                         _______ _______ _______ _____ _____    ______ ____

>  <TORSDO>
F 3

$$$$
=
 OpenBabel11112417463D

 34 40  0  0  1  0  0  0  0  0999 V2000
  190.0930  174.5990  141.9940 C   0  0  0  0  0  0  0  0  0  0  0  0
  191.8520  172.9150  142.5800 C   0  0  0  0  0  2  0  0  0  0  0  0
  185.6230  179.4530  143.6010 C   0  0  2  0  0  3  0  0  0  0  0  0
  187.9760  176.0650  141.8050 C   0  0  1  0  0  3  0  0  0  0  0  0
  187.3310  177.5000  143.7400 C   0  0  0  0  0  0  0  0  0  0  0  0
  186.4630  178.5920  145.6670 O   0  0  0  0  0  0  0  0  0  0  0  0
  185.2390  180.6200  144.3790 N   0  0  0  0  0  1  0  0  0  0  0  0
  184.6850  177.4880  142.2640 C   0  0  0  0  0  2  0  0  0  0  0  0
  190.5660  173.8530  144.4290 C   0  0  2  0  0  3  0  0  0  0  0  0
  192.4530  174.6900  146.9150 C   0  0  0  0  0  2  0  0  0  0  0  0
  188.3230  176.9460  144.4540 C   0  0  0  0  0  3  0  0  0  0  0  0
  186.0190  177.5890  141.5360 C   0  0  0  0  0  2  0  0  0  0  0  0
  190.3860  175.3670  144.6950 C   0  0  1  0  0  3  0  0  0  0  0  0
  192.4140  172.3540  143.8660 C   0  0  0  0  0  2  0  0  0  0  0  0
  187.1070  177.0650  142.3690 N   0  0  0  0  0  0  0  0  0  0  0  0
  184.3750  178.7590  143.0590 C   0  0  0  0  0  2  0  0  0  0  0  0
  192.8910  174.1940  145.5430 C   0  0  2  0  0  3  0  0  0  0  0  0
  189.0800  175.5240  142.6220 C   0  0  0  0  0  0  0  0  0  0  0  0
  186.4790  178.5180  144.4060 C   0  0  0  0  0  0  0  0  0  0  0  0
  189.2280  175.9170  143.8940 C   0  0  0  0  0  0  0  0  0  0  0  0
  188.5760  174.5630  140.0250 C   0  0  0  0  0  3  0  0  0  0  0  0
  191.5850  175.9350  146.8080 C   0  0  0  0  0  2  0  0  0  0  0  0
  187.7720  175.6030  140.6050 N   0  0  0  0  0  0  0  0  0  0  0  0
  190.2310  175.6230  146.1910 C   0  0  0  0  0  2  0  0  0  0  0  0
  191.8450  173.2050  144.9940 C   0  0  1  0  0  3  0  0  0  0  0  0
  189.6380  174.0630  140.6620 C   0  0  0  0  0  3  0  0  0  0  0  0
  190.4880  173.4590  142.9420 C   0  0  1  0  0  3  0  0  0  0  0  0
  194.1340  173.5690  145.6760 O   0  0  0  0  0  0  0  0  0  0  0  0
  195.0670  174.6030  145.5660 C   0  0  0  0  0  2  0  0  0  0  0  0
  196.3750  176.7600  143.0490 O   0  0  0  0  0  0  0  0  0  0  0  0
  195.7890  174.4740  143.1960 C   0  0  0  0  0  2  0  0  0  0  0  0
  194.9720  175.2420  144.1930 C   0  0  2  0  0  3  0  0  0  0  0  0
  196.8240  175.4710  142.7270 C   0  0  0  0  0  2  0  0  0  0  0  0
  195.6220  176.6040  144.2210 C   0  0  0  0  0  2  0  0  0  0  0  0
  1 18  1  0  0  0  0
  1 27  1  0  0  0  0
  2 27  1  0  0  0  0
  2 14  1  0  0  0  0
  3  7  1  1  0  0  0
  3 19  1  0  0  0  0
  4 23  1  1  0  0  0
  4 15  1  0  0  0  0
  4 18  1  0  0  0  0
  5 19  1  0  0  0  0
  5 11  2  0  0  0  0
  8 16  1  0  0  0  0
  9 13  1  0  0  0  0
  9 25  1  0  0  0  0
 12  8  1  0  0  0  0
 12 15  1  0  0  0  0
 13 24  1  0  0  0  0
 14 25  1  0  0  0  0
 15  5  1  0  0  0  0
 16  3  1  0  0  0  0
 17 28  1  0  0  0  0
 17 10  1  0  0  0  0
 18 20  2  0  0  0  0
 19  6  2  0  0  0  0
 20 11  1  0  0  0  0
 20 13  1  0  0  0  0
 21 23  2  0  0  0  0
 21 26  1  0  0  0  0
 22 10  1  0  0  0  0
 24 22  1  0  0  0  0
 25 17  1  0  0  0  0
 26  1  2  0  0  0  0
 27  9  1  0  0  0  0
 29 28  1  0  0  0  0
 30 34  1  0  0  0  0
 31 32  1  0  0  0  0
 32 34  1  0  0  0  0
 32 29  1  0  0  0  0
 33 30  1  0  0  0  0
 33 31  1  0  0  0  0
M  END
>  <MODEL>
8

>  <REMARK>
 VINA RESULT:      -8.1      3.378      8.652
  Name = 
  3 active torsions:
  status: ('A' for Active; 'I' for Inactive)
    1  A    between atoms: C_17  and  O_28
    2  A    between atoms: O_28  and  C_29
    3  A    between atoms: C_29  and  C_32
                            x       y       z     vdW  Elec       q    Type
                         _______ _______ _______ _____ _____    ______ ____

>  <TORSDO>
F 3

$$$$
=
 OpenBabel11112417463D

 34 40  0  0  1  0  0  0  0  0999 V2000
  190.5930  175.3280  146.1160 C   0  0  0  0  0  0  0  0  0  0  0  0
  192.9400  174.9180  146.8870 C   0  0  0  0  0  2  0  0  0  0  0  0
  186.0360  177.6870  141.6670 C   0  0  2  0  0  3  0  0  0  0  0  0
  188.3580  176.2980  145.2620 C   0  0  1  0  0  3  0  0  0  0  0  0
  188.2480  177.1990  142.9400 C   0  0  0  0  0  0  0  0  0  0  0  0
  188.1800  178.4030  140.8880 O   0  0  0  0  0  0  0  0  0  0  0  0
  185.5940  177.9150  140.3010 N   0  0  0  0  0  1  0  0  0  0  0  0
  185.7650  178.5180  144.0690 C   0  0  0  0  0  2  0  0  0  0  0  0
  192.6470  176.4670  145.0250 C   0  0  2  0  0  3  0  0  0  0  0  0
  194.7660  175.9160  142.6480 C   0  0  0  0  0  2  0  0  0  0  0  0
  189.5710  177.0040  142.8240 C   0  0  0  0  0  3  0  0  0  0  0  0
  186.1490  177.0830  144.4090 C   0  0  0  0  0  2  0  0  0  0  0  0
  191.8630  176.1450  143.7310 C   0  0  1  0  0  3  0  0  0  0  0  0
  194.3130  175.3430  146.4200 C   0  0  0  0  0  2  0  0  0  0  0  0
  187.5810  176.8610  144.1870 N   0  0  0  0  0  0  0  0  0  0  0  0
  185.3230  178.6550  142.6100 C   0  0  0  0  0  2  0  0  0  0  0  0
  194.5490  175.0880  143.9090 C   0  0  2  0  0  3  0  0  0  0  0  0
  189.8010  176.0630  145.0630 C   0  0  0  0  0  0  0  0  0  0  0  0
  187.5300  177.7920  141.7830 C   0  0  0  0  0  0  0  0  0  0  0  0
  190.3890  176.4270  143.9160 C   0  0  0  0  0  0  0  0  0  0  0  0
  188.5610  175.5370  147.5340 C   0  0  0  0  0  3  0  0  0  0  0  0
  193.4850  176.0470  141.8380 C   0  0  0  0  0  2  0  0  0  0  0  0
  187.8130  176.0410  146.4160 N   0  0  0  0  0  0  0  0  0  0  0  0
  192.4560  176.9090  142.5520 C   0  0  0  0  0  2  0  0  0  0  0  0
  194.1190  176.0110  145.0640 C   0  0  1  0  0  3  0  0  0  0  0  0
  189.8560  175.2270  147.4260 C   0  0  0  0  0  3  0  0  0  0  0  0
  191.9850  175.9410  146.3130 C   0  0  1  0  0  3  0  0  0  0  0  0
  195.7460  174.4370  144.2200 O   0  0  0  0  0  0  0  0  0  0  0  0
  195.6190  173.1660  143.6520 C   0  0  0  0  0  2  0  0  0  0  0  0
  193.4540  170.3430  143.8380 O   0  0  0  0  0  0  0  0  0  0  0  0
  194.5410  171.7580  145.3880 C   0  0  0  0  0  2  0  0  0  0  0  0
  194.3250  172.5210  144.1130 C   0  0  2  0  0  3  0  0  0  0  0  0
  194.2090  170.3310  145.0190 C   0  0  0  0  0  2  0  0  0  0  0  0
  193.9080  171.4600  143.1240 C   0  0  0  0  0  2  0  0  0  0  0  0
  1 27  1  0  0  0  0
  1 26  2  0  0  0  0
  3  7  1  6  0  0  0
  3 19  1  0  0  0  0
  3 16  1  0  0  0  0
  4 18  1  1  0  0  0
  4 23  1  0  0  0  0
  5 15  1  0  0  0  0
  6 19  2  0  0  0  0
  8 12  1  0  0  0  0
  9 25  1  0  0  0  0
  9 27  1  0  0  0  0
 10 17  1  0  0  0  0
 11  5  2  0  0  0  0
 11 20  1  0  0  0  0
 13 20  1  0  0  0  0
 13  9  1  0  0  0  0
 14  2  1  0  0  0  0
 15 12  1  0  0  0  0
 15  4  1  0  0  0  0
 16  8  1  0  0  0  0
 17 28  1  0  0  0  0
 17 25  1  0  0  0  0
 18  1  1  0  0  0  0
 19  5  1  0  0  0  0
 20 18  2  0  0  0  0
 22 24  1  0  0  0  0
 22 10  1  0  0  0  0
 23 21  2  0  0  0  0
 24 13  1  0  0  0  0
 25 14  1  0  0  0  0
 26 21  1  0  0  0  0
 27  2  1  0  0  0  0
 29 32  1  0  0  0  0
 29 28  1  0  0  0  0
 30 33  1  0  0  0  0
 32 31  1  0  0  0  0
 33 31  1  0  0  0  0
 34 30  1  0  0  0  0
 34 32  1  0  0  0  0
M  END
>  <MODEL>
9

>  <REMARK>
 VINA RESULT:      -8.0      3.499      8.009
  Name = 
  3 active torsions:
  status: ('A' for Active; 'I' for Inactive)
    1  A    between atoms: C_17  and  O_28
    2  A    between atoms: O_28  and  C_29
    3  A    between atoms: C_29  and  C_32
                            x       y       z     vdW  Elec       q    Type
                         _______ _______ _______ _____ _____    ______ ____

>  <TORSDO>
F 3

$$$$
