=
 OpenBabel11112416353D

 32 37  0  0  1  0  0  0  0  0999 V2000
  185.1260  179.4070  143.7790 C   0  0  0  0  0  2  0  0  0  0  0  0
  189.2750  175.8610  143.9800 C   0  0  2  0  0  3  0  0  0  0  0  0
  189.5170  172.6030  140.6350 C   0  0  0  0  0  2  0  0  0  0  0  0
  190.8070  173.1420  139.9940 C   0  0  0  0  0  2  0  0  0  0  0  0
  191.3030  176.0450  145.5000 C   0  0  0  0  0  0  0  0  0  0  0  0
  192.7490  176.0490  145.6340 C   0  0  0  0  0  0  0  0  0  0  0  0
  187.1760  177.2120  144.3570 C   0  0  2  0  0  3  0  0  0  0  0  0
  187.4260  176.0300  142.2710 C   0  0  0  0  0  2  0  0  0  0  0  0
  194.8190  175.6580  145.0660 N   0  0  0  0  0  0  0  0  0  0  0  0
  185.4450  177.1200  142.7190 C   0  0  0  0  0  2  0  0  0  0  0  0
  188.7700  173.6830  141.4490 C   0  0  0  0  0  2  0  0  0  0  0  0
  188.9380  175.9190  142.4840 C   0  0  2  0  0  3  0  0  0  0  0  0
  189.5940  174.8850  141.6510 N   0  0  1  0  0  0  0  0  0  0  0  0
  191.6110  175.4830  143.0260 C   0  0  2  0  0  3  0  0  0  0  0  0
  194.8440  176.1200  146.3090 N   0  0  0  0  0  0  0  0  0  0  0  0
  185.3250  178.6620  144.9480 O   0  0  0  0  0  0  0  0  0  0  0  0
  186.8890  177.2360  142.9050 N   0  0  1  0  0  0  0  0  0  0  0  0
  193.5710  176.3720  146.7000 C   0  0  0  0  0  3  0  0  0  0  0  0
  186.7130  178.5080  145.0340 C   0  0  0  0  0  2  0  0  0  0  0  0
  184.7800  178.4940  142.6010 C   0  0  1  0  0  3  0  0  0  0  0  0
  191.7170  173.8440  141.0170 C   0  0  0  0  0  2  0  0  0  0  0  0
  190.8940  174.4360  142.1670 C   0  0  2  0  0  3  0  0  0  0  0  0
  193.0230  174.9630  143.4060 C   0  0  0  0  0  2  0  0  0  0  0  0
  188.6830  177.1200  144.6090 C   0  0  0  0  0  2  0  0  0  0  0  0
  190.5720  176.2360  146.5110 O   0  0  0  0  0  0  0  0  0  0  0  0
  195.9950  175.2120  144.3410 C   0  0  0  0  0  1  0  0  0  0  0  0
  190.7360  175.7920  144.1920 N   0  0  0  0  0  0  0  0  0  0  0  0
  193.5510  175.6260  144.6310 C   0  0  0  0  0  0  0  0  0  0  0  0
  183.2700  178.3360  142.5130 C   0  0  0  0  0  2  0  0  0  0  0  0
  182.8260  178.2820  141.0920 C   0  0  0  0  0  0  0  0  0  0  0  0
  181.4710  178.2680  140.7880 O   0  0  0  0  0  1  0  0  0  0  0  0
  183.6760  178.2760  140.1650 O   0  0  0  0  0  0  0  0  0  0  0  0
  1 16  1  0  0  0  0
  2 27  1  0  0  0  0
  2 24  1  1  0  0  0
  3 11  1  0  0  0  0
  4  3  1  0  0  0  0
  4 21  1  0  0  0  0
  5  6  1  0  0  0  0
  5 25  2  0  0  0  0
  6 18  1  0  0  0  0
  7 24  1  6  0  0  0
  7 19  1  0  0  0  0
  9 15  1  0  0  0  0
 10 17  1  0  0  0  0
 12  8  1  1  0  0  0
 12  2  1  0  0  0  0
 13 11  1  1  0  0  0
 13 22  1  0  0  0  0
 13 12  1  0  0  0  0
 14 23  1  1  0  0  0
 14 27  1  0  0  0  0
 15 18  2  0  0  0  0
 16 19  1  0  0  0  0
 17  8  1  6  0  0  0
 17  7  1  0  0  0  0
 20 29  1  1  0  0  0
 20 10  1  0  0  0  0
 20  1  1  0  0  0  0
 22 21  1  6  0  0  0
 22 14  1  0  0  0  0
 23 28  1  0  0  0  0
 26  9  1  0  0  0  0
 27  5  1  0  0  0  0
 28  9  1  0  0  0  0
 28  6  2  0  0  0  0
 30 29  1  0  0  0  0
 31 30  1  0  0  0  0
 32 30  2  0  0  0  0
M  END
>  <MODEL>
1

>  <REMARK>
 VINA RESULT:      -8.3      0.000      0.000
  Name = 
  2 active torsions:
  status: ('A' for Active; 'I' for Inactive)
    1  A    between atoms: C_20  and  C_29
    2  A    between atoms: C_29  and  C_30
                            x       y       z     vdW  Elec       q    Type
                         _______ _______ _______ _____ _____    ______ ____

>  <TORSDO>
F 2

$$$$
=
 OpenBabel11112416353D

 32 37  0  0  1  0  0  0  0  0999 V2000
  185.7320  176.6270  143.7810 C   0  0  0  0  0  2  0  0  0  0  0  0
  190.8300  174.7110  143.3670 C   0  0  2  0  0  3  0  0  0  0  0  0
  194.2390  177.1230  145.4700 C   0  0  0  0  0  2  0  0  0  0  0  0
  194.5660  176.0410  146.5130 C   0  0  0  0  0  2  0  0  0  0  0  0
  191.4800  172.4280  142.4610 C   0  0  0  0  0  0  0  0  0  0  0  0
  192.2080  171.1850  142.6520 C   0  0  0  0  0  0  0  0  0  0  0  0
  188.5420  175.7110  142.9940 C   0  0  2  0  0  3  0  0  0  0  0  0
  190.0090  176.7550  144.5970 C   0  0  0  0  0  2  0  0  0  0  0  0
  193.7090  169.8490  143.5010 N   0  0  0  0  0  0  0  0  0  0  0  0
  187.9890  177.7500  144.1010 C   0  0  0  0  0  2  0  0  0  0  0  0
  192.8100  176.9760  144.9010 C   0  0  0  0  0  2  0  0  0  0  0  0
  190.8540  175.4830  144.6930 C   0  0  2  0  0  3  0  0  0  0  0  0
  192.2000  175.6900  145.2750 N   0  0  1  0  0  0  0  0  0  0  0  0
  192.5220  173.2820  144.6330 C   0  0  2  0  0  3  0  0  0  0  0  0
  193.1290  169.1910  142.5060 N   0  0  0  0  0  0  0  0  0  0  0  0
  186.2650  176.3890  142.5090 O   0  0  0  0  0  0  0  0  0  0  0  0
  188.6140  176.4420  144.2800 N   0  0  1  0  0  0  0  0  0  0  0  0
  192.1890  169.9940  141.9500 C   0  0  0  0  0  3  0  0  0  0  0  0
  187.1030  175.2820  142.6810 C   0  0  0  0  0  2  0  0  0  0  0  0
  186.5110  177.7280  144.5040 C   0  0  1  0  0  3  0  0  0  0  0  0
  194.2840  174.6220  145.9880 C   0  0  0  0  0  2  0  0  0  0  0  0
  193.1680  174.6380  144.9370 C   0  0  2  0  0  3  0  0  0  0  0  0
  193.6300  172.2160  144.4230 C   0  0  0  0  0  2  0  0  0  0  0  0
  189.3620  174.4210  143.0580 C   0  0  0  0  0  2  0  0  0  0  0  0
  190.7710  172.5950  141.4310 O   0  0  0  0  0  0  0  0  0  0  0  0
  194.8160  169.3270  144.2820 C   0  0  0  0  0  1  0  0  0  0  0  0
  191.6140  173.4620  143.4660 N   0  0  0  0  0  0  0  0  0  0  0  0
  193.1480  171.0600  143.6170 C   0  0  0  0  0  0  0  0  0  0  0  0
  185.8720  179.0750  144.2070 C   0  0  0  0  0  2  0  0  0  0  0  0
  184.4240  179.0620  144.5570 C   0  0  0  0  0  0  0  0  0  0  0  0
  183.4660  179.0440  143.5510 O   0  0  0  0  0  0  0  0  0  0  0  0
  184.0660  179.0410  145.7630 O   0  0  0  0  0  1  0  0  0  0  0  0
  1 20  1  0  0  0  0
  2 24  1  1  0  0  0
  2 27  1  0  0  0  0
  2 12  1  0  0  0  0
  3  4  1  0  0  0  0
  5  6  1  0  0  0  0
  5 27  1  0  0  0  0
  6 28  2  0  0  0  0
  7 19  1  1  0  0  0
  7 24  1  0  0  0  0
  7 17  1  0  0  0  0
  9 28  1  0  0  0  0
  9 26  1  0  0  0  0
 10 20  1  0  0  0  0
 11  3  1  0  0  0  0
 12  8  1  6  0  0  0
 12 13  1  0  0  0  0
 13 11  1  6  0  0  0
 14 23  1  6  0  0  0
 14 22  1  0  0  0  0
 15  9  1  0  0  0  0
 16 19  1  0  0  0  0
 16  1  1  0  0  0  0
 17 10  1  6  0  0  0
 17  8  1  0  0  0  0
 18 15  2  0  0  0  0
 18  6  1  0  0  0  0
 20 29  1  6  0  0  0
 21  4  1  0  0  0  0
 22 13  1  0  0  0  0
 22 21  1  1  0  0  0
 25  5  2  0  0  0  0
 27 14  1  0  0  0  0
 28 23  1  0  0  0  0
 29 30  1  0  0  0  0
 30 32  1  0  0  0  0
 31 30  2  0  0  0  0
M  END
>  <MODEL>
2

>  <REMARK>
 VINA RESULT:      -7.7      2.930      4.837
  Name = 
  2 active torsions:
  status: ('A' for Active; 'I' for Inactive)
    1  A    between atoms: C_20  and  C_29
    2  A    between atoms: C_29  and  C_30
                            x       y       z     vdW  Elec       q    Type
                         _______ _______ _______ _____ _____    ______ ____

>  <TORSDO>
F 2

$$$$
=
 OpenBabel11112416353D

 32 37  0  0  1  0  0  0  0  0999 V2000
  184.9650  177.5510  144.4540 C   0  0  0  0  0  2  0  0  0  0  0  0
  189.3000  174.9620  142.3710 C   0  0  2  0  0  3  0  0  0  0  0  0
  193.1490  174.6910  145.0120 C   0  0  0  0  0  2  0  0  0  0  0  0
  193.0930  173.1660  145.2020 C   0  0  0  0  0  2  0  0  0  0  0  0
  189.3040  173.5580  140.2530 C   0  0  0  0  0  0  0  0  0  0  0  0
  189.6300  172.2980  139.6080 C   0  0  0  0  0  0  0  0  0  0  0  0
  187.4240  176.5560  142.9320 C   0  0  2  0  0  3  0  0  0  0  0  0
  189.0450  176.0400  144.6390 C   0  0  0  0  0  2  0  0  0  0  0  0
  190.6310  170.3780  139.3440 N   0  0  0  0  0  0  0  0  0  0  0  0
  187.4310  177.6290  145.0620 C   0  0  0  0  0  2  0  0  0  0  0  0
  191.7710  175.2890  144.6500 C   0  0  0  0  0  2  0  0  0  0  0  0
  189.4790  174.7800  143.8840 C   0  0  2  0  0  3  0  0  0  0  0  0
  190.7950  174.2440  144.3020 N   0  0  1  0  0  0  0  0  0  0  0  0
  190.4360  172.6780  142.3690 C   0  0  2  0  0  3  0  0  0  0  0  0
  189.9370  170.6040  138.2360 N   0  0  0  0  0  0  0  0  0  0  0  0
  185.4710  177.9640  143.2160 O   0  0  0  0  0  0  0  0  0  0  0  0
  187.6380  176.3530  144.3820 N   0  0  1  0  0  0  0  0  0  0  0  0
  189.3010  171.7940  138.3620 C   0  0  0  0  0  3  0  0  0  0  0  0
  185.9410  176.7900  142.6180 C   0  0  0  0  0  2  0  0  0  0  0  0
  185.9910  177.7710  145.5660 C   0  0  1  0  0  3  0  0  0  0  0  0
  192.4380  172.4540  144.0050 C   0  0  0  0  0  2  0  0  0  0  0  0
  191.4310  173.3730  143.3040 C   0  0  2  0  0  3  0  0  0  0  0  0
  191.1960  171.6850  141.4500 C   0  0  0  0  0  2  0  0  0  0  0  0
  187.8300  175.3080  142.1440 C   0  0  0  0  0  2  0  0  0  0  0  0
  188.7300  174.4740  139.6030 O   0  0  0  0  0  0  0  0  0  0  0  0
  191.4960  169.2290  139.5400 C   0  0  0  0  0  1  0  0  0  0  0  0
  189.6810  173.7350  141.6400 N   0  0  0  0  0  0  0  0  0  0  0  0
  190.4400  171.3920  140.1990 C   0  0  0  0  0  0  0  0  0  0  0  0
  185.7880  179.1500  146.1740 C   0  0  0  0  0  2  0  0  0  0  0  0
  186.0190  179.1190  147.6460 C   0  0  0  0  0  0  0  0  0  0  0  0
  185.9390  177.9180  148.3370 O   0  0  0  0  0  1  0  0  0  0  0  0
  186.3150  180.1770  148.2590 O   0  0  0  0  0  0  0  0  0  0  0  0
  1 20  1  0  0  0  0
  2 24  1  1  0  0  0
  2 12  1  0  0  0  0
  3  4  1  0  0  0  0
  5 27  1  0  0  0  0
  6 28  2  0  0  0  0
  6  5  1  0  0  0  0
  7 24  1  6  0  0  0
  7 17  1  0  0  0  0
  9 26  1  0  0  0  0
  9 28  1  0  0  0  0
 10 20  1  0  0  0  0
 11  3  1  0  0  0  0
 12 13  1  0  0  0  0
 12  8  1  1  0  0  0
 13 11  1  6  0  0  0
 14 23  1  6  0  0  0
 14 22  1  0  0  0  0
 15 18  2  0  0  0  0
 15  9  1  0  0  0  0
 16  1  1  0  0  0  0
 17  8  1  6  0  0  0
 17 10  1  0  0  0  0
 18  6  1  0  0  0  0
 19  7  1  0  0  0  0
 19 16  1  0  0  0  0
 20 29  1  6  0  0  0
 21  4  1  0  0  0  0
 22 21  1  1  0  0  0
 22 13  1  0  0  0  0
 25  5  2  0  0  0  0
 27 14  1  0  0  0  0
 27  2  1  0  0  0  0
 28 23  1  0  0  0  0
 29 30  1  0  0  0  0
 30 32  2  0  0  0  0
 30 31  1  0  0  0  0
M  END
>  <MODEL>
3

>  <REMARK>
 VINA RESULT:      -7.6      2.550      5.685
  Name = 
  2 active torsions:
  status: ('A' for Active; 'I' for Inactive)
    1  A    between atoms: C_20  and  C_29
    2  A    between atoms: C_29  and  C_30
                            x       y       z     vdW  Elec       q    Type
                         _______ _______ _______ _____ _____    ______ ____

>  <TORSDO>
F 2

$$$$
=
 OpenBabel11112416353D

 32 37  0  0  1  0  0  0  0  0999 V2000
  187.4870  178.1490  146.2460 C   0  0  0  0  0  2  0  0  0  0  0  0
  191.4410  175.2860  143.7970 C   0  0  2  0  0  3  0  0  0  0  0  0
  190.1760  172.1440  140.5740 C   0  0  0  0  0  2  0  0  0  0  0  0
  190.8120  172.8830  139.3860 C   0  0  0  0  0  2  0  0  0  0  0  0
  193.9310  175.7640  143.9650 C   0  0  0  0  0  0  0  0  0  0  0  0
  195.1940  175.9900  143.2820 C   0  0  0  0  0  0  0  0  0  0  0  0
  189.7620  176.2920  145.3910 C   0  0  2  0  0  3  0  0  0  0  0  0
  188.9500  175.1860  143.4090 C   0  0  0  0  0  2  0  0  0  0  0  0
  196.6250  175.9310  141.6380 N   0  0  0  0  0  0  0  0  0  0  0  0
  187.4390  175.9510  144.9710 C   0  0  0  0  0  2  0  0  0  0  0  0
  189.8830  173.0850  141.7630 C   0  0  0  0  0  2  0  0  0  0  0  0
  190.3240  175.3080  142.7450 C   0  0  2  0  0  3  0  0  0  0  0  0
  190.5260  174.3980  141.5940 N   0  0  1  0  0  0  0  0  0  0  0  0
  192.8760  175.2860  141.6870 C   0  0  2  0  0  3  0  0  0  0  0  0
  197.2820  176.3770  142.7010 N   0  0  0  0  0  0  0  0  0  0  0  0
  188.3930  177.4300  147.0360 O   0  0  0  0  0  0  0  0  0  0  0  0
  188.7140  176.2880  144.3450 N   0  0  1  0  0  0  0  0  0  0  0  0
  196.4230  176.4240  143.7480 C   0  0  0  0  0  3  0  0  0  0  0  0
  189.6000  177.4920  146.3320 C   0  0  0  0  0  2  0  0  0  0  0  0
  186.6580  177.2080  145.3700 C   0  0  1  0  0  3  0  0  0  0  0  0
  192.0440  173.7050  139.8030 C   0  0  0  0  0  2  0  0  0  0  0  0
  191.9360  174.1500  141.2660 C   0  0  2  0  0  3  0  0  0  0  0  0
  194.3110  174.9860  141.1770 C   0  0  0  0  0  2  0  0  0  0  0  0
  191.1510  176.4310  144.7650 C   0  0  0  0  0  2  0  0  0  0  0  0
  193.8700  175.8280  145.2230 O   0  0  0  0  0  0  0  0  0  0  0  0
  197.2430  175.6810  140.3480 C   0  0  0  0  0  1  0  0  0  0  0  0
  192.7680  175.4420  143.1640 N   0  0  0  0  0  0  0  0  0  0  0  0
  195.3460  175.7080  141.9690 C   0  0  0  0  0  0  0  0  0  0  0  0
  185.3890  176.8180  146.1100 C   0  0  0  0  0  2  0  0  0  0  0  0
  184.5470  178.0170  146.3850 C   0  0  0  0  0  0  0  0  0  0  0  0
  183.9060  178.6700  145.3410 O   0  0  0  0  0  0  0  0  0  0  0  0
  184.3950  178.4220  147.5660 O   0  0  0  0  0  1  0  0  0  0  0  0
  1 16  1  0  0  0  0
  2 24  1  1  0  0  0
  3 11  1  0  0  0  0
  4 21  1  0  0  0  0
  4  3  1  0  0  0  0
  5 25  2  0  0  0  0
  6 18  1  0  0  0  0
  6  5  1  0  0  0  0
  7 24  1  6  0  0  0
  7 19  1  0  0  0  0
  9 28  1  0  0  0  0
  9 15  1  0  0  0  0
 10 20  1  0  0  0  0
 12  8  1  1  0  0  0
 12  2  1  0  0  0  0
 13 11  1  1  0  0  0
 13 12  1  0  0  0  0
 14 23  1  1  0  0  0
 14 27  1  0  0  0  0
 15 18  2  0  0  0  0
 17  8  1  6  0  0  0
 17 10  1  0  0  0  0
 17  7  1  0  0  0  0
 19 16  1  0  0  0  0
 20 29  1  1  0  0  0
 20  1  1  0  0  0  0
 22 21  1  6  0  0  0
 22 13  1  0  0  0  0
 22 14  1  0  0  0  0
 23 28  1  0  0  0  0
 26  9  1  0  0  0  0
 27  2  1  0  0  0  0
 27  5  1  0  0  0  0
 28  6  2  0  0  0  0
 29 30  1  0  0  0  0
 30 32  1  0  0  0  0
 31 30  2  0  0  0  0
M  END
>  <MODEL>
4

>  <REMARK>
 VINA RESULT:      -7.5      2.554      3.375
  Name = 
  2 active torsions:
  status: ('A' for Active; 'I' for Inactive)
    1  A    between atoms: C_20  and  C_29
    2  A    between atoms: C_29  and  C_30
                            x       y       z     vdW  Elec       q    Type
                         _______ _______ _______ _____ _____    ______ ____

>  <TORSDO>
F 2

$$$$
=
 OpenBabel11112416353D

 32 37  0  0  1  0  0  0  0  0999 V2000
  185.1200  178.0210  142.4100 C   0  0  0  0  0  2  0  0  0  0  0  0
  189.1100  174.5850  140.9600 C   0  0  2  0  0  3  0  0  0  0  0  0
  192.0420  173.1220  144.2960 C   0  0  0  0  0  2  0  0  0  0  0  0
  191.5910  171.6520  144.2570 C   0  0  0  0  0  2  0  0  0  0  0  0
  189.2980  173.4030  138.7190 C   0  0  0  0  0  0  0  0  0  0  0  0
  189.4690  172.1570  137.9900 C   0  0  0  0  0  0  0  0  0  0  0  0
  187.5750  176.5550  141.3230 C   0  0  2  0  0  3  0  0  0  0  0  0
  188.5740  175.5040  143.2480 C   0  0  0  0  0  2  0  0  0  0  0  0
  190.0330  170.0730  137.6820 N   0  0  0  0  0  0  0  0  0  0  0  0
  187.3170  177.4140  143.5330 C   0  0  0  0  0  2  0  0  0  0  0  0
  190.9670  174.0800  143.7350 C   0  0  0  0  0  2  0  0  0  0  0  0
  188.8730  174.2400  142.4370 C   0  0  2  0  0  3  0  0  0  0  0  0
  189.8890  173.3530  143.0460 N   0  0  1  0  0  0  0  0  0  0  0  0
  189.6530  172.0930  140.8840 C   0  0  2  0  0  3  0  0  0  0  0  0
  189.6960  170.5580  136.4940 N   0  0  0  0  0  0  0  0  0  0  0  0
  185.9910  178.3900  141.3770 O   0  0  0  0  0  0  0  0  0  0  0  0
  187.3810  176.1870  142.7440 N   0  0  1  0  0  0  0  0  0  0  0  0
  189.3420  171.8570  136.6450 C   0  0  0  0  0  3  0  0  0  0  0  0
  186.3060  177.1870  140.7370 C   0  0  0  0  0  2  0  0  0  0  0  0
  185.8720  177.8800  143.7350 C   0  0  1  0  0  3  0  0  0  0  0  0
  191.0960  171.2310  142.8620 C   0  0  0  0  0  2  0  0  0  0  0  0
  190.5280  172.4310  142.0970 C   0  0  2  0  0  3  0  0  0  0  0  0
  190.3610  171.0160  140.0200 C   0  0  0  0  0  2  0  0  0  0  0  0
  187.8580  175.3130  140.4760 C   0  0  0  0  0  2  0  0  0  0  0  0
  189.1240  174.4840  138.0930 O   0  0  0  0  0  0  0  0  0  0  0  0
  190.5360  168.7280  137.8970 C   0  0  0  0  0  1  0  0  0  0  0  0
  189.3610  173.3640  140.1650 N   0  0  0  0  0  0  0  0  0  0  0  0
  189.8820  171.0290  138.6090 C   0  0  0  0  0  0  0  0  0  0  0  0
  185.8520  179.2110  144.4700 C   0  0  0  0  0  2  0  0  0  0  0  0
  185.2290  179.0640  145.8150 C   0  0  0  0  0  0  0  0  0  0  0  0
  183.9030  178.6660  145.9270 O   0  0  0  0  0  0  0  0  0  0  0  0
  185.9100  179.2740  146.8520 O   0  0  0  0  0  1  0  0  0  0  0  0
  1 20  1  0  0  0  0
  2 24  1  6  0  0  0
  2 12  1  0  0  0  0
  4  3  1  0  0  0  0
  5 27  1  0  0  0  0
  6 28  2  0  0  0  0
  6  5  1  0  0  0  0
  7 24  1  6  0  0  0
  7 17  1  0  0  0  0
  9 26  1  0  0  0  0
  9 28  1  0  0  0  0
 10 20  1  0  0  0  0
 11  3  1  0  0  0  0
 12 13  1  0  0  0  0
 12  8  1  1  0  0  0
 13 11  1  6  0  0  0
 14 23  1  6  0  0  0
 14 22  1  0  0  0  0
 15 18  2  0  0  0  0
 15  9  1  0  0  0  0
 16  1  1  0  0  0  0
 17  8  1  1  0  0  0
 17 10  1  0  0  0  0
 18  6  1  0  0  0  0
 19  7  1  0  0  0  0
 19 16  1  0  0  0  0
 20 29  1  6  0  0  0
 21  4  1  0  0  0  0
 22 21  1  1  0  0  0
 22 13  1  0  0  0  0
 25  5  2  0  0  0  0
 27 14  1  0  0  0  0
 27  2  1  0  0  0  0
 28 23  1  0  0  0  0
 29 30  1  0  0  0  0
 30 31  2  0  0  0  0
 30 32  1  0  0  0  0
M  END
>  <MODEL>
5

>  <REMARK>
 VINA RESULT:      -7.4      2.906      6.041
  Name = 
  2 active torsions:
  status: ('A' for Active; 'I' for Inactive)
    1  A    between atoms: C_20  and  C_29
    2  A    between atoms: C_29  and  C_30
                            x       y       z     vdW  Elec       q    Type
                         _______ _______ _______ _____ _____    ______ ____

>  <TORSDO>
F 2

$$$$
=
 OpenBabel11112416353D

 32 37  0  0  1  0  0  0  0  0999 V2000
  196.0890  174.4380  141.1030 C   0  0  0  0  0  2  0  0  0  0  0  0
  191.2750  175.3330  143.5210 C   0  0  2  0  0  3  0  0  0  0  0  0
  191.2110  175.6690  148.1840 C   0  0  0  0  0  2  0  0  0  0  0  0
  190.8190  177.1550  148.2220 C   0  0  0  0  0  2  0  0  0  0  0  0
  189.1200  175.9640  142.3320 C   0  0  0  0  0  0  0  0  0  0  0  0
  187.9850  176.8660  142.2280 C   0  0  0  0  0  0  0  0  0  0  0  0
  193.2720  174.3980  142.2930 C   0  0  2  0  0  3  0  0  0  0  0  0
  193.5530  175.1010  144.5810 C   0  0  0  0  0  2  0  0  0  0  0  0
  186.5490  178.3680  142.8880 N   0  0  0  0  0  0  0  0  0  0  0  0
  195.3070  174.0760  143.4930 C   0  0  0  0  0  2  0  0  0  0  0  0
  191.8690  175.2690  146.8450 C   0  0  0  0  0  2  0  0  0  0  0  0
  192.2790  175.9470  144.5060 C   0  0  2  0  0  3  0  0  0  0  0  0
  191.7190  176.3190  145.8250 N   0  0  1  0  0  0  0  0  0  0  0  0
  189.8340  177.2300  144.4340 C   0  0  2  0  0  3  0  0  0  0  0  0
  186.1400  177.9430  141.7000 N   0  0  0  0  0  0  0  0  0  0  0  0
  195.0270  173.5630  140.8440 O   0  0  0  0  0  0  0  0  0  0  0  0
  194.2020  175.0050  143.2720 N   0  0  1  0  0  0  0  0  0  0  0  0
  187.0090  177.0030  141.2570 C   0  0  0  0  0  3  0  0  0  0  0  0
  193.8870  174.3710  140.8880 C   0  0  0  0  0  2  0  0  0  0  0  0
  196.4950  174.3850  142.5770 C   0  0  1  0  0  3  0  0  0  0  0  0
  189.9720  177.5650  147.0040 C   0  0  0  0  0  2  0  0  0  0  0  0
  190.2970  176.6870  145.7900 C   0  0  2  0  0  3  0  0  0  0  0  0
  188.3630  177.7120  144.5440 C   0  0  0  0  0  2  0  0  0  0  0  0
  191.9910  175.2280  142.1770 C   0  0  0  0  0  2  0  0  0  0  0  0
  189.2570  175.0210  141.5060 O   0  0  0  0  0  0  0  0  0  0  0  0
  185.8230  179.3280  143.7020 C   0  0  0  0  0  1  0  0  0  0  0  0
  190.0580  176.1660  143.4160 N   0  0  0  0  0  0  0  0  0  0  0  0
  187.6830  177.7350  143.2180 C   0  0  0  0  0  0  0  0  0  0  0  0
  197.5820  173.3380  142.7630 C   0  0  0  0  0  2  0  0  0  0  0  0
  197.8400  173.0950  144.2100 C   0  0  0  0  0  0  0  0  0  0  0  0
  197.9400  174.1660  145.0880 O   0  0  0  0  0  1  0  0  0  0  0  0
  197.9410  171.9180  144.6430 O   0  0  0  0  0  0  0  0  0  0  0  0
  1 20  1  0  0  0  0
  2 24  1  6  0  0  0
  2 12  1  0  0  0  0
  3  4  1  0  0  0  0
  5 27  1  0  0  0  0
  6  5  1  0  0  0  0
  6 28  2  0  0  0  0
  7 19  1  6  0  0  0
  7 17  1  0  0  0  0
  9 28  1  0  0  0  0
  9 26  1  0  0  0  0
 11  3  1  0  0  0  0
 12  8  1  1  0  0  0
 12 13  1  0  0  0  0
 13 11  1  1  0  0  0
 14 23  1  1  0  0  0
 14 22  1  0  0  0  0
 15  9  1  0  0  0  0
 16 19  1  0  0  0  0
 16  1  1  0  0  0  0
 17 10  1  1  0  0  0
 17  8  1  0  0  0  0
 18 15  2  0  0  0  0
 18  6  1  0  0  0  0
 20 29  1  6  0  0  0
 20 10  1  0  0  0  0
 21  4  1  0  0  0  0
 22 13  1  0  0  0  0
 22 21  1  1  0  0  0
 24  7  1  0  0  0  0
 25  5  2  0  0  0  0
 27  2  1  0  0  0  0
 27 14  1  0  0  0  0
 28 23  1  0  0  0  0
 29 30  1  0  0  0  0
 30 32  2  0  0  0  0
 30 31  1  0  0  0  0
M  END
>  <MODEL>
6

>  <REMARK>
 VINA RESULT:      -7.4      3.140      9.209
  Name = 
  2 active torsions:
  status: ('A' for Active; 'I' for Inactive)
    1  A    between atoms: C_20  and  C_29
    2  A    between atoms: C_29  and  C_30
                            x       y       z     vdW  Elec       q    Type
                         _______ _______ _______ _____ _____    ______ ____

>  <TORSDO>
F 2

$$$$
=
 OpenBabel11112416353D

 32 37  0  0  1  0  0  0  0  0999 V2000
  187.3670  177.9690  145.7870 C   0  0  0  0  0  2  0  0  0  0  0  0
  191.2940  174.6520  143.9410 C   0  0  2  0  0  3  0  0  0  0  0  0
  190.7220  172.7450  139.7110 C   0  0  0  0  0  2  0  0  0  0  0  0
  191.8890  173.4970  139.0480 C   0  0  0  0  0  2  0  0  0  0  0  0
  193.5840  174.3430  144.9990 C   0  0  0  0  0  0  0  0  0  0  0  0
  195.0270  174.3290  144.8360 C   0  0  0  0  0  0  0  0  0  0  0  0
  189.3780  175.7500  145.1640 C   0  0  2  0  0  3  0  0  0  0  0  0
  189.1610  175.3600  142.7950 C   0  0  0  0  0  2  0  0  0  0  0  0
  196.9260  174.1980  143.7700 N   0  0  0  0  0  0  0  0  0  0  0  0
  187.3610  176.1910  143.9700 C   0  0  0  0  0  2  0  0  0  0  0  0
  190.2010  173.4650  140.9740 C   0  0  0  0  0  2  0  0  0  0  0  0
  190.6780  175.2130  142.6530 C   0  0  2  0  0  3  0  0  0  0  0  0
  191.1080  174.5410  141.4050 N   0  0  1  0  0  0  0  0  0  0  0  0
  193.3800  174.6710  142.4730 C   0  0  2  0  0  3  0  0  0  0  0  0
  197.2130  174.2060  145.0650 N   0  0  0  0  0  0  0  0  0  0  0  0
  187.7500  176.8720  146.5680 O   0  0  0  0  0  0  0  0  0  0  0  0
  188.8170  176.2650  143.8940 N   0  0  1  0  0  0  0  0  0  0  0  0
  196.0540  174.2830  145.7630 C   0  0  0  0  0  3  0  0  0  0  0  0
  189.1190  176.7250  146.3190 C   0  0  0  0  0  2  0  0  0  0  0  0
  186.7550  177.5100  144.4620 C   0  0  1  0  0  3  0  0  0  0  0  0
  193.0140  173.8220  140.0470 C   0  0  0  0  0  2  0  0  0  0  0  0
  192.4600  173.9680  141.4690 C   0  0  2  0  0  3  0  0  0  0  0  0
  194.8110  174.0800  142.3640 C   0  0  0  0  0  2  0  0  0  0  0  0
  190.8980  175.6070  145.0660 C   0  0  0  0  0  2  0  0  0  0  0  0
  193.0720  174.1610  146.1380 O   0  0  0  0  0  0  0  0  0  0  0  0
  197.9170  174.0510  142.7190 C   0  0  0  0  0  1  0  0  0  0  0  0
  192.7630  174.5440  143.8230 N   0  0  0  0  0  0  0  0  0  0  0  0
  195.5980  174.2910  143.6120 C   0  0  0  0  0  0  0  0  0  0  0  0
  185.2510  177.3610  144.6260 C   0  0  0  0  0  2  0  0  0  0  0  0
  184.6350  178.6480  145.0550 C   0  0  0  0  0  0  0  0  0  0  0  0
  184.7690  179.7810  144.2630 O   0  0  0  0  0  0  0  0  0  0  0  0
  183.9710  178.7050  146.1220 O   0  0  0  0  0  1  0  0  0  0  0  0
  1 16  1  0  0  0  0
  2 24  1  1  0  0  0
  3 11  1  0  0  0  0
  4  3  1  0  0  0  0
  4 21  1  0  0  0  0
  5 25  2  0  0  0  0
  6  5  1  0  0  0  0
  6 18  1  0  0  0  0
  7 24  1  6  0  0  0
  7 19  1  0  0  0  0
  9 15  1  0  0  0  0
 10 20  1  0  0  0  0
 12  8  1  1  0  0  0
 12  2  1  0  0  0  0
 13 11  1  1  0  0  0
 13 22  1  0  0  0  0
 13 12  1  0  0  0  0
 14 23  1  1  0  0  0
 14 27  1  0  0  0  0
 15 18  2  0  0  0  0
 17  8  1  6  0  0  0
 17 10  1  0  0  0  0
 17  7  1  0  0  0  0
 19 16  1  0  0  0  0
 20 29  1  1  0  0  0
 20  1  1  0  0  0  0
 22 21  1  6  0  0  0
 22 14  1  0  0  0  0
 23 28  1  0  0  0  0
 26  9  1  0  0  0  0
 27  2  1  0  0  0  0
 27  5  1  0  0  0  0
 28  9  1  0  0  0  0
 28  6  2  0  0  0  0
 29 30  1  0  0  0  0
 30 32  1  0  0  0  0
 31 30  2  0  0  0  0
M  END
>  <MODEL>
7

>  <REMARK>
 VINA RESULT:      -7.2      2.213      2.926
  Name = 
  2 active torsions:
  status: ('A' for Active; 'I' for Inactive)
    1  A    between atoms: C_20  and  C_29
    2  A    between atoms: C_29  and  C_30
                            x       y       z     vdW  Elec       q    Type
                         _______ _______ _______ _____ _____    ______ ____

>  <TORSDO>
F 2

$$$$
=
 OpenBabel11112416353D

 32 37  0  0  1  0  0  0  0  0999 V2000
  189.2980  177.5790  146.9170 C   0  0  0  0  0  2  0  0  0  0  0  0
  192.3960  174.7670  143.4050 C   0  0  2  0  0  3  0  0  0  0  0  0
  190.2230  172.0700  140.2640 C   0  0  0  0  0  2  0  0  0  0  0  0
  190.6500  172.8940  139.0380 C   0  0  0  0  0  2  0  0  0  0  0  0
  194.8950  175.0770  143.0650 C   0  0  0  0  0  0  0  0  0  0  0  0
  195.9980  175.2990  142.1460 C   0  0  0  0  0  0  0  0  0  0  0  0
  191.1810  175.6930  145.4150 C   0  0  2  0  0  3  0  0  0  0  0  0
  189.8790  174.8570  143.5660 C   0  0  0  0  0  2  0  0  0  0  0  0
  197.0370  175.3320  140.2290 N   0  0  0  0  0  0  0  0  0  0  0  0
  188.8020  175.5380  145.4860 C   0  0  0  0  0  2  0  0  0  0  0  0
  190.2680  172.8940  141.5700 C   0  0  0  0  0  2  0  0  0  0  0  0
  191.0860  174.9690  142.6310 C   0  0  2  0  0  3  0  0  0  0  0  0
  190.9640  174.1770  141.3850 N   0  0  1  0  0  0  0  0  0  0  0  0
  193.3440  174.9090  141.0410 C   0  0  2  0  0  3  0  0  0  0  0  0
  197.9380  175.6220  141.1580 N   0  0  0  0  0  0  0  0  0  0  0  0
  190.2900  176.7270  147.4190 O   0  0  0  0  0  0  0  0  0  0  0  0
  189.9380  175.8640  144.6290 N   0  0  1  0  0  0  0  0  0  0  0  0
  197.3280  175.6070  142.3680 C   0  0  0  0  0  3  0  0  0  0  0  0
  191.3200  176.7930  146.4750 C   0  0  0  0  0  2  0  0  0  0  0  0
  188.2290  176.7880  146.1610 C   0  0  1  0  0  3  0  0  0  0  0  0
  192.0060  173.5920  139.2480 C   0  0  0  0  0  2  0  0  0  0  0  0
  192.2480  173.8820  140.7340 C   0  0  2  0  0  3  0  0  0  0  0  0
  194.6090  174.5810  140.2030 C   0  0  0  0  0  2  0  0  0  0  0  0
  192.4120  175.8170  144.5140 C   0  0  0  0  0  2  0  0  0  0  0  0
  195.1080  175.0080  144.3070 O   0  0  0  0  0  0  0  0  0  0  0  0
  197.3440  175.1870  138.8170 C   0  0  0  0  0  1  0  0  0  0  0  0
  193.5660  174.9110  142.5140 N   0  0  0  0  0  0  0  0  0  0  0  0
  195.8440  175.1510  140.8110 C   0  0  0  0  0  0  0  0  0  0  0  0
  187.1180  176.3970  147.1230 C   0  0  0  0  0  2  0  0  0  0  0  0
  185.9800  177.3550  147.0350 C   0  0  0  0  0  0  0  0  0  0  0  0
  184.9830  177.1650  146.0880 O   0  0  0  0  0  0  0  0  0  0  0  0
  185.9080  178.3220  147.8360 O   0  0  0  0  0  1  0  0  0  0  0  0
  1 16  1  0  0  0  0
  2 24  1  1  0  0  0
  3 11  1  0  0  0  0
  4 21  1  0  0  0  0
  4  3  1  0  0  0  0
  5 25  2  0  0  0  0
  6 18  1  0  0  0  0
  6  5  1  0  0  0  0
  7 24  1  6  0  0  0
  7 19  1  0  0  0  0
  9 28  1  0  0  0  0
  9 15  1  0  0  0  0
 10 20  1  0  0  0  0
 12  2  1  0  0  0  0
 12  8  1  1  0  0  0
 13 11  1  1  0  0  0
 13 12  1  0  0  0  0
 14 23  1  6  0  0  0
 14 27  1  0  0  0  0
 15 18  2  0  0  0  0
 17  8  1  6  0  0  0
 17  7  1  0  0  0  0
 17 10  1  0  0  0  0
 19 16  1  0  0  0  0
 20  1  1  0  0  0  0
 20 29  1  1  0  0  0
 22 21  1  6  0  0  0
 22 14  1  0  0  0  0
 22 13  1  0  0  0  0
 23 28  1  0  0  0  0
 26  9  1  0  0  0  0
 27  5  1  0  0  0  0
 27  2  1  0  0  0  0
 28  6  2  0  0  0  0
 30 29  1  0  0  0  0
 30 32  1  0  0  0  0
 31 30  2  0  0  0  0
M  END
>  <MODEL>
8

>  <REMARK>
 VINA RESULT:      -7.0      3.086      4.589
  Name = 
  2 active torsions:
  status: ('A' for Active; 'I' for Inactive)
    1  A    between atoms: C_20  and  C_29
    2  A    between atoms: C_29  and  C_30
                            x       y       z     vdW  Elec       q    Type
                         _______ _______ _______ _____ _____    ______ ____

>  <TORSDO>
F 2

$$$$
=
 OpenBabel11112416353D

 32 37  0  0  1  0  0  0  0  0999 V2000
  190.9380  171.3770  139.9050 C   0  0  0  0  0  2  0  0  0  0  0  0
  189.0920  175.9310  142.2890 C   0  0  2  0  0  3  0  0  0  0  0  0
  185.5820  178.2100  140.2030 C   0  0  0  0  0  2  0  0  0  0  0  0
  184.5490  177.9390  141.3090 C   0  0  0  0  0  2  0  0  0  0  0  0
  189.7000  176.7270  144.6240 C   0  0  0  0  0  0  0  0  0  0  0  0
  189.2530  177.1840  145.9280 C   0  0  0  0  0  0  0  0  0  0  0  0
  190.4130  174.1520  141.0810 C   0  0  2  0  0  3  0  0  0  0  0  0
  188.2800  174.8170  140.1750 C   0  0  0  0  0  2  0  0  0  0  0  0
  187.8760  178.0210  147.3980 N   0  0  0  0  0  0  0  0  0  0  0  0
  189.5900  173.3310  138.9980 C   0  0  0  0  0  2  0  0  0  0  0  0
  186.7390  177.1860  140.2160 C   0  0  0  0  0  2  0  0  0  0  0  0
  187.8660  175.4180  141.5210 C   0  0  2  0  0  3  0  0  0  0  0  0
  186.7330  176.3680  141.4390 N   0  0  1  0  0  0  0  0  0  0  0  0
  187.2590  176.7420  143.8680 C   0  0  2  0  0  3  0  0  0  0  0  0
  189.0510  177.9000  148.0000 N   0  0  0  0  0  0  0  0  0  0  0  0
  191.8430  172.4060  140.1940 O   0  0  0  0  0  0  0  0  0  0  0  0
  189.2040  173.6950  140.3580 N   0  0  1  0  0  0  0  0  0  0  0  0
  189.9370  177.3840  147.1140 C   0  0  0  0  0  3  0  0  0  0  0  0
  191.3580  172.9800  141.3740 C   0  0  0  0  0  2  0  0  0  0  0  0
  189.8980  171.8350  138.8810 C   0  0  1  0  0  3  0  0  0  0  0  0
  185.2020  177.8060  142.6960 C   0  0  0  0  0  2  0  0  0  0  0  0
  186.6410  177.2920  142.5770 C   0  0  2  0  0  3  0  0  0  0  0  0
  186.9910  177.7320  145.0320 C   0  0  0  0  0  2  0  0  0  0  0  0
  190.0390  174.7430  142.4420 C   0  0  0  0  0  2  0  0  0  0  0  0
  190.9310  176.5770  144.3930 O   0  0  0  0  0  0  0  0  0  0  0  0
  186.7010  178.6070  148.0190 C   0  0  0  0  0  1  0  0  0  0  0  0
  188.7010  176.4780  143.6050 N   0  0  0  0  0  0  0  0  0  0  0  0
  187.9750  177.5710  146.1400 C   0  0  0  0  0  0  0  0  0  0  0  0
  190.3950  171.5140  137.4810 C   0  0  0  0  0  2  0  0  0  0  0  0
  190.7260  170.0660  137.3550 C   0  0  0  0  0  0  0  0  0  0  0  0
  192.0040  169.6760  136.9800 O   0  0  0  0  0  0  0  0  0  0  0  0
  189.8560  169.1960  137.6150 O   0  0  0  0  0  1  0  0  0  0  0  0
  1 16  1  0  0  0  0
  2 24  1  1  0  0  0
  2 27  1  0  0  0  0
  3 11  1  0  0  0  0
  3  4  1  0  0  0  0
  4 21  1  0  0  0  0
  5  6  1  0  0  0  0
  6 28  2  0  0  0  0
  6 18  1  0  0  0  0
  7 19  1  1  0  0  0
  7 24  1  0  0  0  0
  8 17  1  0  0  0  0
  9 15  1  0  0  0  0
  9 26  1  0  0  0  0
 12  8  1  6  0  0  0
 12  2  1  0  0  0  0
 13 11  1  6  0  0  0
 13 12  1  0  0  0  0
 13 22  1  0  0  0  0
 14 23  1  1  0  0  0
 16 19  1  0  0  0  0
 17 10  1  6  0  0  0
 17  7  1  0  0  0  0
 18 15  2  0  0  0  0
 20 29  1  6  0  0  0
 20 10  1  0  0  0  0
 20  1  1  0  0  0  0
 22 21  1  1  0  0  0
 22 14  1  0  0  0  0
 23 28  1  0  0  0  0
 25  5  2  0  0  0  0
 27 14  1  0  0  0  0
 27  5  1  0  0  0  0
 28  9  1  0  0  0  0
 30 29  1  0  0  0  0
 30 32  1  0  0  0  0
 31 30  2  0  0  0  0
M  END
>  <MODEL>
9

>  <REMARK>
 VINA RESULT:      -6.8      3.791      7.220
  Name = 
  2 active torsions:
  status: ('A' for Active; 'I' for Inactive)
    1  A    between atoms: C_20  and  C_29
    2  A    between atoms: C_29  and  C_30
                            x       y       z     vdW  Elec       q    Type
                         _______ _______ _______ _____ _____    ______ ____

>  <TORSDO>
F 2

$$$$
