=
 OpenBabel11112417213D

 37 42  0  0  1  0  0  0  0  0999 V2000
  186.9310  177.2320  143.3650 C   0  0  0  0  0  0  0  0  0  0  0  0
  190.7020  176.2630  145.0450 C   0  0  0  0  0  0  0  0  0  0  0  0
  193.1790  173.9470  142.9750 C   0  0  0  0  0  2  0  0  0  0  0  0
  188.5160  177.2680  145.3860 C   0  0  0  0  0  0  0  0  0  0  0  0
  191.4680  175.5960  143.9330 C   0  0  1  0  0  3  0  0  0  0  0  0
  189.4760  176.6670  144.5740 C   0  0  0  0  0  0  0  0  0  0  0  0
  192.4220  174.4070  144.2510 C   0  0  2  0  0  3  0  0  0  0  0  0
  188.8540  177.5430  146.7160 C   0  0  0  0  0  3  0  0  0  0  0  0
  189.3020  176.3890  143.1410 C   0  0  2  0  0  3  0  0  0  0  0  0
  187.2200  178.5270  142.6230 C   0  0  0  0  0  1  0  0  0  0  0  0
  192.4390  176.3350  146.8910 C   0  0  0  0  0  2  0  0  0  0  0  0
  190.1410  177.2320  147.1910 C   0  0  0  0  0  3  0  0  0  0  0  0
  187.8290  176.1000  142.8280 C   0  0  0  0  0  2  0  0  0  0  0  0
  191.6440  172.6760  141.8650 C   0  0  1  0  0  3  0  0  0  0  0  0
  192.3610  173.8880  141.8340 O   0  0  0  0  0  0  0  0  0  0  0  0
  191.0790  176.5940  146.3600 C   0  0  0  0  0  0  0  0  0  0  0  0
  190.3390  175.2810  142.8880 C   0  0  2  0  0  3  0  0  0  0  0  0
  187.1070  177.4590  144.8840 C   0  0  0  0  0  2  0  0  0  0  0  0
  193.4500  174.6730  145.3730 C   0  0  1  0  0  3  0  0  0  0  0  0
  185.4870  176.8570  143.1060 C   0  0  0  0  0  1  0  0  0  0  0  0
  190.5830  172.6600  142.9800 C   0  0  0  0  0  2  0  0  0  0  0  0
  189.6670  173.8890  143.0290 C   0  0  0  0  0  2  0  0  0  0  0  0
  192.7940  174.8780  146.7270 C   0  0  0  0  0  2  0  0  0  0  0  0
  195.8270  173.9010  145.5670 C   0  0  0  0  0  3  0  0  0  0  0  0
  194.4660  173.5710  145.5080 C   0  0  0  0  0  0  0  0  0  0  0  0
  194.0770  172.2230  145.5840 C   0  0  0  0  0  3  0  0  0  0  0  0
  194.6260  169.7930  145.7860 C   0  0  0  0  0  1  0  0  0  0  0  0
  196.3990  171.5540  145.7650 C   0  0  0  0  0  3  0  0  0  0  0  0
  195.0430  171.2190  145.7080 C   0  0  0  0  0  0  0  0  0  0  0  0
  196.7910  172.8950  145.6930 C   0  0  0  0  0  3  0  0  0  0  0  0
  191.0100  172.4040  140.5330 C   0  0  0  0  0  0  0  0  0  0  0  0
  190.6800  173.5000  139.6740 N   0  0  0  0  0  2  0  0  0  0  0  0
  190.7540  171.2190  140.1780 O   0  0  0  0  0  0  0  0  0  0  0  0
  190.9590  173.9660  137.2840 C   0  0  0  0  0  1  0  0  0  0  0  0
  190.0870  173.3190  138.3560 C   0  0  2  0  0  3  0  0  0  0  0  0
  188.3870  174.5410  139.5460 O   0  0  0  0  0  1  0  0  0  0  0  0
  188.6820  173.9120  138.3330 C   0  0  0  0  0  2  0  0  0  0  0  0
  1 18  1  0  0  0  0
  2 16  1  0  0  0  0
  4  8  2  0  0  0  0
  5  7  1  0  0  0  0
  5  2  1  1  0  0  0
  6  2  2  0  0  0  0
  6  4  1  0  0  0  0
  7  3  1  6  0  0  0
  7 19  1  0  0  0  0
  8 12  1  0  0  0  0
  9 13  1  1  0  0  0
  9  6  1  0  0  0  0
 10  1  1  0  0  0  0
 13  1  1  0  0  0  0
 14 31  1  6  0  0  0
 14 21  1  0  0  0  0
 15 14  1  0  0  0  0
 15  3  1  0  0  0  0
 16 11  1  0  0  0  0
 16 12  2  0  0  0  0
 17 22  1  1  0  0  0
 17  9  1  0  0  0  0
 17  5  1  0  0  0  0
 18  4  1  0  0  0  0
 19 25  1  1  0  0  0
 19 23  1  0  0  0  0
 20  1  1  0  0  0  0
 21 22  1  0  0  0  0
 23 11  1  0  0  0  0
 24 30  1  0  0  0  0
 25 24  2  0  0  0  0
 25 26  1  0  0  0  0
 26 29  2  0  0  0  0
 29 28  1  0  0  0  0
 29 27  1  0  0  0  0
 30 28  2  0  0  0  0
 32 31  1  0  0  0  0
 33 31  2  0  0  0  0
 35 34  1  6  0  0  0
 35 32  1  0  0  0  0
 37 35  1  0  0  0  0
 37 36  1  0  0  0  0
M  END
>  <MODEL>
1

>  <REMARK>
 VINA RESULT:      -8.8      0.000      0.000
  Name = 
  4 active torsions:
  status: ('A' for Active; 'I' for Inactive)
    1  A    between atoms: CA_4  and  N_12
    2  A    between atoms: CA_4  and  C_37
    3  A    between atoms: C_8  and  C_18
    4  A    between atoms: C_23  and  C_30
                            x       y       z     vdW  Elec       q    Type
                         _______ _______ _______ _____ _____    ______ ____

>  <TORSDO>
F 4

$$$$
=
 OpenBabel11112417213D

 37 42  0  0  1  0  0  0  0  0999 V2000
  195.0930  174.2990  143.4150 C   0  0  0  0  0  0  0  0  0  0  0  0
  191.7440  175.6340  145.6470 C   0  0  0  0  0  0  0  0  0  0  0  0
  188.1100  175.1450  144.1180 C   0  0  0  0  0  2  0  0  0  0  0  0
  194.1630  175.5860  145.4360 C   0  0  0  0  0  0  0  0  0  0  0  0
  190.5430  175.0920  144.9160 C   0  0  1  0  0  3  0  0  0  0  0  0
  192.8890  175.2020  145.0240 C   0  0  0  0  0  0  0  0  0  0  0  0
  189.2410  175.9420  144.8220 C   0  0  2  0  0  3  0  0  0  0  0  0
  194.2760  176.3770  146.5840 C   0  0  0  0  0  3  0  0  0  0  0  0
  192.6110  174.3090  143.8890 C   0  0  2  0  0  3  0  0  0  0  0  0
  195.2800  172.8760  143.9150 C   0  0  0  0  0  1  0  0  0  0  0  0
  190.6620  176.7420  147.6560 C   0  0  0  0  0  2  0  0  0  0  0  0
  193.1210  176.7460  147.2980 C   0  0  0  0  0  3  0  0  0  0  0  0
  193.6870  174.4690  142.8080 C   0  0  0  0  0  2  0  0  0  0  0  0
  188.6210  175.3250  141.9020 C   0  0  1  0  0  3  0  0  0  0  0  0
  188.5500  174.4320  142.9900 O   0  0  0  0  0  0  0  0  0  0  0  0
  191.8450  176.3740  146.8400 C   0  0  0  0  0  0  0  0  0  0  0  0
  191.1550  174.6590  143.5370 C   0  0  2  0  0  3  0  0  0  0  0  0
  195.3630  175.2900  144.5720 C   0  0  0  0  0  2  0  0  0  0  0  0
  188.7100  176.4800  146.1700 C   0  0  1  0  0  3  0  0  0  0  0  0
  196.1160  174.5510  142.3270 C   0  0  0  0  0  1  0  0  0  0  0  0
  189.7650  176.3420  142.0630 C   0  0  0  0  0  2  0  0  0  0  0  0
  191.1290  175.7420  142.4250 C   0  0  0  0  0  2  0  0  0  0  0  0
  189.6550  177.4810  146.8110 C   0  0  0  0  0  2  0  0  0  0  0  0
  186.3260  176.7170  146.9070 C   0  0  0  0  0  3  0  0  0  0  0  0
  187.3560  177.1260  146.0490 C   0  0  0  0  0  0  0  0  0  0  0  0
  187.1090  178.1310  145.0990 C   0  0  0  0  0  3  0  0  0  0  0  0
  185.5830  179.7780  144.0000 C   0  0  0  0  0  1  0  0  0  0  0  0
  184.8160  178.3020  145.8660 C   0  0  0  0  0  3  0  0  0  0  0  0
  185.8410  178.7150  145.0080 C   0  0  0  0  0  0  0  0  0  0  0  0
  185.0590  177.3030  146.8150 C   0  0  0  0  0  3  0  0  0  0  0  0
  188.7660  174.5730  140.6120 C   0  0  0  0  0  0  0  0  0  0  0  0
  189.6640  173.4610  140.5430 N   0  0  0  0  0  2  0  0  0  0  0  0
  188.1120  174.9270  139.5910 O   0  0  0  0  0  0  0  0  0  0  0  0
  190.2260  171.2310  139.6940 C   0  0  0  0  0  1  0  0  0  0  0  0
  189.8420  172.6640  139.3360 C   0  0  2  0  0  3  0  0  0  0  0  0
  190.3290  173.8740  137.3110 O   0  0  0  0  0  1  0  0  0  0  0  0
  190.9070  173.2980  138.4470 C   0  0  0  0  0  2  0  0  0  0  0  0
  1 10  1  0  0  0  0
  1 18  1  0  0  0  0
  2 16  1  0  0  0  0
  4  8  2  0  0  0  0
  5  2  1  6  0  0  0
  6  4  1  0  0  0  0
  6  2  2  0  0  0  0
  7  3  1  1  0  0  0
  7  5  1  0  0  0  0
  7 19  1  0  0  0  0
  8 12  1  0  0  0  0
  9 13  1  6  0  0  0
  9  6  1  0  0  0  0
 13  1  1  0  0  0  0
 14 31  1  6  0  0  0
 14 21  1  0  0  0  0
 14 15  1  0  0  0  0
 15  3  1  0  0  0  0
 16 12  2  0  0  0  0
 16 11  1  0  0  0  0
 17 22  1  6  0  0  0
 17  9  1  0  0  0  0
 17  5  1  0  0  0  0
 18  4  1  0  0  0  0
 19 25  1  6  0  0  0
 19 23  1  0  0  0  0
 20  1  1  0  0  0  0
 21 22  1  0  0  0  0
 23 11  1  0  0  0  0
 25 24  2  0  0  0  0
 26 25  1  0  0  0  0
 27 29  1  0  0  0  0
 28 30  2  0  0  0  0
 29 26  2  0  0  0  0
 29 28  1  0  0  0  0
 30 24  1  0  0  0  0
 32 31  1  0  0  0  0
 33 31  2  0  0  0  0
 35 34  1  1  0  0  0
 35 32  1  0  0  0  0
 36 37  1  0  0  0  0
 37 35  1  0  0  0  0
M  END
>  <MODEL>
2

>  <REMARK>
 VINA RESULT:      -8.5      1.899      6.634
  Name = 
  4 active torsions:
  status: ('A' for Active; 'I' for Inactive)
    1  A    between atoms: CA_4  and  N_12
    2  A    between atoms: CA_4  and  C_37
    3  A    between atoms: C_8  and  C_18
    4  A    between atoms: C_23  and  C_30
                            x       y       z     vdW  Elec       q    Type
                         _______ _______ _______ _____ _____    ______ ____

>  <TORSDO>
F 4

$$$$
=
 OpenBabel11112417213D

 37 42  0  0  1  0  0  0  0  0999 V2000
  186.2690  177.7260  143.4040 C   0  0  0  0  0  0  0  0  0  0  0  0
  189.9790  176.6950  145.1800 C   0  0  0  0  0  0  0  0  0  0  0  0
  192.6900  174.7990  142.9820 C   0  0  0  0  0  2  0  0  0  0  0  0
  187.7290  177.5480  145.5110 C   0  0  0  0  0  0  0  0  0  0  0  0
  190.8430  176.2230  144.0410 C   0  0  1  0  0  3  0  0  0  0  0  0
  188.7640  177.1080  144.6900 C   0  0  0  0  0  0  0  0  0  0  0  0
  191.8370  175.0430  144.2550 C   0  0  2  0  0  3  0  0  0  0  0  0
  187.9730  177.6500  146.8850 C   0  0  0  0  0  3  0  0  0  0  0  0
  188.6900  177.0240  143.2240 C   0  0  2  0  0  3  0  0  0  0  0  0
  186.5350  179.1220  142.8660 C   0  0  0  0  0  1  0  0  0  0  0  0
  191.5990  176.5840  147.1290 C   0  0  0  0  0  2  0  0  0  0  0  0
  189.2430  177.3310  147.3970 C   0  0  0  0  0  3  0  0  0  0  0  0
  187.2550  176.7190  142.7790 C   0  0  0  0  0  2  0  0  0  0  0  0
  191.2920  173.6290  141.6100 C   0  0  1  0  0  3  0  0  0  0  0  0
  191.9450  174.8640  141.7920 O   0  0  0  0  0  0  0  0  0  0  0  0
  190.2610  176.8560  146.5500 C   0  0  0  0  0  0  0  0  0  0  0  0
  189.7960  176.0080  142.8900 C   0  0  2  0  0  3  0  0  0  0  0  0
  186.3440  177.7470  144.9480 C   0  0  0  0  0  2  0  0  0  0  0  0
  192.7820  175.1940  145.4690 C   0  0  1  0  0  3  0  0  0  0  0  0
  184.8640  177.3290  143.0030 C   0  0  0  0  0  1  0  0  0  0  0  0
  190.1690  173.4130  142.6410 C   0  0  0  0  0  2  0  0  0  0  0  0
  189.1900  174.5820  142.7970 C   0  0  0  0  0  2  0  0  0  0  0  0
  192.0380  175.1810  146.7920 C   0  0  0  0  0  2  0  0  0  0  0  0
  193.4590  172.7810  145.5220 C   0  0  0  0  0  3  0  0  0  0  0  0
  193.8440  174.1290  145.5190 C   0  0  0  0  0  0  0  0  0  0  0  0
  195.2090  174.4600  145.5560 C   0  0  0  0  0  3  0  0  0  0  0  0
  197.6200  173.8060  145.6440 C   0  0  0  0  0  1  0  0  0  0  0  0
  195.7860  172.1070  145.6070 C   0  0  0  0  0  3  0  0  0  0  0  0
  196.1760  173.4500  145.6030 C   0  0  0  0  0  0  0  0  0  0  0  0
  194.4280  171.7720  145.5670 C   0  0  0  0  0  3  0  0  0  0  0  0
  190.7520  173.5180  140.2150 C   0  0  0  0  0  0  0  0  0  0  0  0
  191.6430  173.6460  139.1040 N   0  0  0  0  0  2  0  0  0  0  0  0
  189.5180  173.3290  140.0220 O   0  0  0  0  0  0  0  0  0  0  0  0
  191.4120  172.1010  137.2150 C   0  0  0  0  0  1  0  0  0  0  0  0
  191.2030  173.5260  137.7200 C   0  0  2  0  0  3  0  0  0  0  0  0
  191.0730  175.2780  136.0730 O   0  0  0  0  0  1  0  0  0  0  0  0
  191.9590  174.5210  136.8450 C   0  0  0  0  0  2  0  0  0  0  0  0
  1 18  1  0  0  0  0
  2 16  1  0  0  0  0
  4  8  2  0  0  0  0
  5  7  1  0  0  0  0
  5  2  1  1  0  0  0
  6  2  2  0  0  0  0
  6  4  1  0  0  0  0
  7  3  1  6  0  0  0
  7 19  1  0  0  0  0
  8 12  1  0  0  0  0
  9 13  1  1  0  0  0
  9  6  1  0  0  0  0
 10  1  1  0  0  0  0
 13  1  1  0  0  0  0
 14 31  1  6  0  0  0
 14 15  1  0  0  0  0
 14 21  1  0  0  0  0
 15  3  1  0  0  0  0
 16 11  1  0  0  0  0
 16 12  2  0  0  0  0
 17 22  1  1  0  0  0
 17  9  1  0  0  0  0
 17  5  1  0  0  0  0
 18  4  1  0  0  0  0
 19 25  1  1  0  0  0
 19 23  1  0  0  0  0
 20  1  1  0  0  0  0
 21 22  1  0  0  0  0
 23 11  1  0  0  0  0
 24 30  1  0  0  0  0
 25 24  2  0  0  0  0
 25 26  1  0  0  0  0
 26 29  2  0  0  0  0
 29 28  1  0  0  0  0
 29 27  1  0  0  0  0
 30 28  2  0  0  0  0
 32 31  1  0  0  0  0
 33 31  2  0  0  0  0
 35 34  1  6  0  0  0
 35 32  1  0  0  0  0
 36 37  1  0  0  0  0
 37 35  1  0  0  0  0
M  END
>  <MODEL>
3

>  <REMARK>
 VINA RESULT:      -8.1      1.194      1.788
  Name = 
  4 active torsions:
  status: ('A' for Active; 'I' for Inactive)
    1  A    between atoms: CA_4  and  N_12
    2  A    between atoms: CA_4  and  C_37
    3  A    between atoms: C_8  and  C_18
    4  A    between atoms: C_23  and  C_30
                            x       y       z     vdW  Elec       q    Type
                         _______ _______ _______ _____ _____    ______ ____

>  <TORSDO>
F 4

$$$$
=
 OpenBabel11112417213D

 37 42  0  0  1  0  0  0  0  0999 V2000
  195.8500  172.9860  144.2690 C   0  0  0  0  0  0  0  0  0  0  0  0
  192.3860  175.0140  145.6370 C   0  0  0  0  0  0  0  0  0  0  0  0
  188.8670  174.0690  144.0540 C   0  0  0  0  0  2  0  0  0  0  0  0
  194.8120  174.8800  145.6600 C   0  0  0  0  0  0  0  0  0  0  0  0
  191.2280  174.2680  145.0290 C   0  0  1  0  0  3  0  0  0  0  0  0
  193.5610  174.3900  145.2920 C   0  0  0  0  0  0  0  0  0  0  0  0
  189.9680  175.0460  144.5480 C   0  0  2  0  0  3  0  0  0  0  0  0
  194.8630  176.0090  146.4850 C   0  0  0  0  0  3  0  0  0  0  0  0
  193.3410  173.1710  144.5000 C   0  0  2  0  0  3  0  0  0  0  0  0
  195.9470  171.8100  145.2270 C   0  0  0  0  0  1  0  0  0  0  0  0
  191.1920  176.7370  147.0640 C   0  0  0  0  0  2  0  0  0  0  0  0
  193.6700  176.6030  146.9350 C   0  0  0  0  0  3  0  0  0  0  0  0
  194.5020  172.9540  143.5220 C   0  0  0  0  0  2  0  0  0  0  0  0
  189.5550  173.4940  141.9560 C   0  0  1  0  0  3  0  0  0  0  0  0
  189.3690  173.0170  143.2690 O   0  0  0  0  0  0  0  0  0  0  0  0
  192.4210  176.1090  146.5200 C   0  0  0  0  0  0  0  0  0  0  0  0
  191.9300  173.3940  143.9280 C   0  0  2  0  0  3  0  0  0  0  0  0
  196.0640  174.3040  145.0490 C   0  0  0  0  0  2  0  0  0  0  0  0
  189.3530  176.0080  145.5890 C   0  0  1  0  0  3  0  0  0  0  0  0
  196.9620  172.8520  143.2500 C   0  0  0  0  0  1  0  0  0  0  0  0
  190.7190  174.4980  141.8660 C   0  0  0  0  0  2  0  0  0  0  0  0
  192.0280  174.0440  142.5220 C   0  0  0  0  0  2  0  0  0  0  0  0
  190.2800  177.1580  145.9400 C   0  0  0  0  0  2  0  0  0  0  0  0
  186.9070  176.4120  145.9580 C   0  0  0  0  0  3  0  0  0  0  0  0
  188.0360  176.5860  145.1460 C   0  0  0  0  0  0  0  0  0  0  0  0
  187.9210  177.3000  143.9410 C   0  0  0  0  0  3  0  0  0  0  0  0
  186.5660  178.5800  142.2760 C   0  0  0  0  0  1  0  0  0  0  0  0
  185.5600  177.6490  144.3660 C   0  0  0  0  0  3  0  0  0  0  0  0
  186.6840  177.8260  143.5530 C   0  0  0  0  0  0  0  0  0  0  0  0
  185.6710  176.9410  145.5680 C   0  0  0  0  0  3  0  0  0  0  0  0
  189.7730  172.3530  141.0070 C   0  0  0  0  0  0  0  0  0  0  0  0
  190.5110  171.2070  141.4410 N   0  0  0  0  0  2  0  0  0  0  0  0
  189.3220  172.4100  139.8280 O   0  0  0  0  0  0  0  0  0  0  0  0
  190.7820  168.7710  141.4240 C   0  0  0  0  0  1  0  0  0  0  0  0
  190.7440  170.0480  140.5890 C   0  0  2  0  0  3  0  0  0  0  0  0
  191.8250  170.1580  138.4400 O   0  0  0  0  0  1  0  0  0  0  0  0
  192.0480  170.2230  139.8190 C   0  0  0  0  0  2  0  0  0  0  0  0
  1 18  1  0  0  0  0
  1 10  1  0  0  0  0
  2 16  1  0  0  0  0
  4  8  2  0  0  0  0
  5  2  1  6  0  0  0
  6  2  2  0  0  0  0
  6  4  1  0  0  0  0
  7  3  1  1  0  0  0
  7  5  1  0  0  0  0
  7 19  1  0  0  0  0
  8 12  1  0  0  0  0
  9 13  1  6  0  0  0
  9  6  1  0  0  0  0
 13  1  1  0  0  0  0
 14 31  1  6  0  0  0
 14 15  1  0  0  0  0
 15  3  1  0  0  0  0
 16 12  2  0  0  0  0
 16 11  1  0  0  0  0
 17 22  1  6  0  0  0
 17  9  1  0  0  0  0
 17  5  1  0  0  0  0
 18  4  1  0  0  0  0
 19 25  1  6  0  0  0
 19 23  1  0  0  0  0
 20  1  1  0  0  0  0
 21 14  1  0  0  0  0
 21 22  1  0  0  0  0
 23 11  1  0  0  0  0
 25 24  2  0  0  0  0
 26 25  1  0  0  0  0
 27 29  1  0  0  0  0
 28 30  2  0  0  0  0
 29 26  2  0  0  0  0
 29 28  1  0  0  0  0
 30 24  1  0  0  0  0
 31 32  1  0  0  0  0
 33 31  2  0  0  0  0
 35 34  1  1  0  0  0
 35 32  1  0  0  0  0
 36 37  1  0  0  0  0
 37 35  1  0  0  0  0
M  END
>  <MODEL>
4

>  <REMARK>
 VINA RESULT:      -8.0      1.786      6.730
  Name = 
  4 active torsions:
  status: ('A' for Active; 'I' for Inactive)
    1  A    between atoms: CA_4  and  N_12
    2  A    between atoms: CA_4  and  C_37
    3  A    between atoms: C_8  and  C_18
    4  A    between atoms: C_23  and  C_30
                            x       y       z     vdW  Elec       q    Type
                         _______ _______ _______ _____ _____    ______ ____

>  <TORSDO>
F 4

$$$$
=
 OpenBabel11112417213D

 37 42  0  0  1  0  0  0  0  0999 V2000
  194.9640  172.5640  144.4680 C   0  0  0  0  0  0  0  0  0  0  0  0
  191.7300  175.1540  145.3730 C   0  0  0  0  0  0  0  0  0  0  0  0
  188.3740  174.8290  143.2730 C   0  0  0  0  0  2  0  0  0  0  0  0
  194.0680  174.6060  145.7440 C   0  0  0  0  0  0  0  0  0  0  0  0
  190.5640  174.6180  144.5840 C   0  0  1  0  0  3  0  0  0  0  0  0
  192.8190  174.3380  145.1860 C   0  0  0  0  0  0  0  0  0  0  0  0
  189.5400  175.6020  143.9470 C   0  0  2  0  0  3  0  0  0  0  0  0
  194.1870  175.7080  146.5980 C   0  0  0  0  0  3  0  0  0  0  0  0
  192.5150  173.1770  144.3380 C   0  0  2  0  0  3  0  0  0  0  0  0
  194.7180  171.3870  145.3980 C   0  0  0  0  0  1  0  0  0  0  0  0
  190.6470  177.0540  146.6580 C   0  0  0  0  0  2  0  0  0  0  0  0
  193.0590  176.4970  146.8860 C   0  0  0  0  0  3  0  0  0  0  0  0
  193.7540  172.7650  143.5330 C   0  0  0  0  0  2  0  0  0  0  0  0
  189.2560  174.1470  141.2820 C   0  0  1  0  0  3  0  0  0  0  0  0
  188.8000  173.7070  142.5400 O   0  0  0  0  0  0  0  0  0  0  0  0
  191.8190  176.2250  146.2820 C   0  0  0  0  0  0  0  0  0  0  0  0
  191.2630  173.6390  143.5740 C   0  0  2  0  0  3  0  0  0  0  0  0
  195.2800  173.8240  145.3060 C   0  0  0  0  0  2  0  0  0  0  0  0
  188.9500  176.6530  144.9140 C   0  0  1  0  0  3  0  0  0  0  0  0
  196.1750  172.2430  143.6180 C   0  0  0  0  0  1  0  0  0  0  0  0
  190.5730  174.9380  141.3890 C   0  0  0  0  0  2  0  0  0  0  0  0
  191.6750  174.2640  142.2150 C   0  0  0  0  0  2  0  0  0  0  0  0
  189.9960  177.6270  145.4250 C   0  0  0  0  0  2  0  0  0  0  0  0
  187.9670  177.9200  142.9870 C   0  0  0  0  0  3  0  0  0  0  0  0
  187.8290  177.4490  144.3000 C   0  0  0  0  0  0  0  0  0  0  0  0
  186.6510  177.7220  145.0140 C   0  0  0  0  0  3  0  0  0  0  0  0
  184.3790  178.7520  145.1800 C   0  0  0  0  0  1  0  0  0  0  0  0
  185.7680  178.9330  143.1100 C   0  0  0  0  0  3  0  0  0  0  0  0
  185.6250  178.4650  144.4200 C   0  0  0  0  0  0  0  0  0  0  0  0
  186.9390  178.6620  142.3940 C   0  0  0  0  0  3  0  0  0  0  0  0
  189.4150  172.9880  140.3440 C   0  0  0  0  0  0  0  0  0  0  0  0
  189.6850  173.2330  138.9610 N   0  0  0  0  0  2  0  0  0  0  0  0
  189.2970  171.8040  140.7690 O   0  0  0  0  0  0  0  0  0  0  0  0
  191.3520  171.7740  137.9110 C   0  0  0  0  0  1  0  0  0  0  0  0
  189.8780  172.1620  137.9920 C   0  0  2  0  0  3  0  0  0  0  0  0
  189.3200  171.5180  135.7390 O   0  0  0  0  0  1  0  0  0  0  0  0
  189.3630  172.6000  136.6240 C   0  0  0  0  0  2  0  0  0  0  0  0
  1 18  1  0  0  0  0
  1 10  1  0  0  0  0
  2 16  1  0  0  0  0
  4  8  2  0  0  0  0
  5  2  1  6  0  0  0
  6  2  2  0  0  0  0
  6  4  1  0  0  0  0
  7  3  1  1  0  0  0
  7  5  1  0  0  0  0
  7 19  1  0  0  0  0
  8 12  1  0  0  0  0
  9 13  1  6  0  0  0
  9  6  1  0  0  0  0
 13  1  1  0  0  0  0
 14 31  1  6  0  0  0
 14 21  1  0  0  0  0
 14 15  1  0  0  0  0
 15  3  1  0  0  0  0
 16 11  1  0  0  0  0
 16 12  2  0  0  0  0
 17 22  1  6  0  0  0
 17  9  1  0  0  0  0
 17  5  1  0  0  0  0
 18  4  1  0  0  0  0
 19 25  1  6  0  0  0
 19 23  1  0  0  0  0
 20  1  1  0  0  0  0
 21 22  1  0  0  0  0
 23 11  1  0  0  0  0
 24 25  1  0  0  0  0
 25 26  2  0  0  0  0
 28 29  2  0  0  0  0
 29 26  1  0  0  0  0
 29 27  1  0  0  0  0
 30 24  2  0  0  0  0
 30 28  1  0  0  0  0
 31 33  2  0  0  0  0
 32 31  1  0  0  0  0
 35 34  1  6  0  0  0
 35 32  1  0  0  0  0
 36 37  1  0  0  0  0
 37 35  1  0  0  0  0
M  END
>  <MODEL>
5

>  <REMARK>
 VINA RESULT:      -7.9      1.670      6.626
  Name = 
  4 active torsions:
  status: ('A' for Active; 'I' for Inactive)
    1  A    between atoms: CA_4  and  N_12
    2  A    between atoms: CA_4  and  C_37
    3  A    between atoms: C_8  and  C_18
    4  A    between atoms: C_23  and  C_30
                            x       y       z     vdW  Elec       q    Type
                         _______ _______ _______ _____ _____    ______ ____

>  <TORSDO>
F 4

$$$$
=
 OpenBabel11112417213D

 37 42  0  0  1  0  0  0  0  0999 V2000
  192.6940  172.3900  141.1630 C   0  0  0  0  0  0  0  0  0  0  0  0
  189.3790  175.0270  141.3730 C   0  0  0  0  0  0  0  0  0  0  0  0
  189.2480  177.7030  144.3060 C   0  0  0  0  0  2  0  0  0  0  0  0
  190.3610  173.0670  140.3250 C   0  0  0  0  0  0  0  0  0  0  0  0
  189.7510  176.0430  142.4210 C   0  0  1  0  0  3  0  0  0  0  0  0
  190.4260  174.1550  141.1930 C   0  0  0  0  0  0  0  0  0  0  0  0
  188.6610  176.6000  143.3830 C   0  0  2  0  0  3  0  0  0  0  0  0
  189.2090  172.9110  139.5460 C   0  0  0  0  0  3  0  0  0  0  0  0
  191.5950  174.5000  142.0150 C   0  0  2  0  0  3  0  0  0  0  0  0
  193.6610  173.1430  140.2650 C   0  0  0  0  0  1  0  0  0  0  0  0
  187.1430  175.9150  140.5700 C   0  0  0  0  0  2  0  0  0  0  0  0
  188.1680  173.8510  139.6390 C   0  0  0  0  0  3  0  0  0  0  0  0
  192.3620  173.2320  142.4110 C   0  0  0  0  0  2  0  0  0  0  0  0
  190.3520  176.5280  145.9200 C   0  0  1  0  0  3  0  0  0  0  0  0
  190.5190  177.3850  144.8140 O   0  0  0  0  0  0  0  0  0  0  0  0
  188.2440  174.9210  140.5480 C   0  0  0  0  0  0  0  0  0  0  0  0
  190.9780  175.3640  143.1280 C   0  0  2  0  0  3  0  0  0  0  0  0
  191.4330  172.0070  140.3540 C   0  0  0  0  0  2  0  0  0  0  0  0
  187.3940  177.1500  142.6920 C   0  0  1  0  0  3  0  0  0  0  0  0
  193.3720  171.1140  141.6160 C   0  0  0  0  0  1  0  0  0  0  0  0
  189.8540  175.1330  145.4990 C   0  0  0  0  0  2  0  0  0  0  0  0
  190.6350  174.4770  144.3540 C   0  0  0  0  0  2  0  0  0  0  0  0
  186.6070  176.0690  141.9720 C   0  0  0  0  0  2  0  0  0  0  0  0
  186.0660  179.1640  143.3720 C   0  0  0  0  0  3  0  0  0  0  0  0
  186.4620  177.8480  143.6460 C   0  0  0  0  0  0  0  0  0  0  0  0
  185.9800  177.2040  144.7980 C   0  0  0  0  0  3  0  0  0  0  0  0
  184.6090  177.1920  146.8880 C   0  0  0  0  0  1  0  0  0  0  0  0
  184.7240  179.1910  145.3910 C   0  0  0  0  0  3  0  0  0  0  0  0
  185.1160  177.8770  145.6690 C   0  0  0  0  0  0  0  0  0  0  0  0
  185.2000  179.8340  144.2430 C   0  0  0  0  0  3  0  0  0  0  0  0
  191.6290  176.4160  146.6970 C   0  0  0  0  0  0  0  0  0  0  0  0
  192.8790  176.3990  146.0000 N   0  0  0  0  0  2  0  0  0  0  0  0
  191.6030  176.3210  147.9570 O   0  0  0  0  0  0  0  0  0  0  0  0
  194.9410  177.6210  146.5130 C   0  0  0  0  0  1  0  0  0  0  0  0
  194.1630  176.3190  146.6840 C   0  0  2  0  0  3  0  0  0  0  0  0
  194.1380  174.2460  145.4580 O   0  0  0  0  0  1  0  0  0  0  0  0
  194.9660  175.1400  146.1430 C   0  0  0  0  0  2  0  0  0  0  0  0
  1 20  1  0  0  0  0
  1 13  1  0  0  0  0
  3 15  1  0  0  0  0
  4 18  1  0  0  0  0
  4  6  2  0  0  0  0
  5  2  1  6  0  0  0
  5 17  1  0  0  0  0
  5  7  1  0  0  0  0
  6  2  1  0  0  0  0
  6  9  1  0  0  0  0
  7  3  1  6  0  0  0
  8 12  2  0  0  0  0
  8  4  1  0  0  0  0
  9 13  1  1  0  0  0
  9 17  1  0  0  0  0
 10  1  1  0  0  0  0
 11 23  1  0  0  0  0
 12 16  1  0  0  0  0
 14 31  1  6  0  0  0
 15 14  1  0  0  0  0
 16 11  1  0  0  0  0
 16  2  2  0  0  0  0
 17 22  1  1  0  0  0
 18  1  1  0  0  0  0
 19  7  1  0  0  0  0
 19 25  1  1  0  0  0
 21 14  1  0  0  0  0
 22 21  1  0  0  0  0
 23 19  1  0  0  0  0
 24 25  2  0  0  0  0
 24 30  1  0  0  0  0
 25 26  1  0  0  0  0
 26 29  2  0  0  0  0
 28 29  1  0  0  0  0
 29 27  1  0  0  0  0
 30 28  2  0  0  0  0
 31 33  2  0  0  0  0
 32 35  1  0  0  0  0
 32 31  1  0  0  0  0
 35 34  1  6  0  0  0
 36 37  1  0  0  0  0
 37 35  1  0  0  0  0
M  END
>  <MODEL>
6

>  <REMARK>
 VINA RESULT:      -7.7      2.790      8.193
  Name = 
  4 active torsions:
  status: ('A' for Active; 'I' for Inactive)
    1  A    between atoms: CA_4  and  N_12
    2  A    between atoms: CA_4  and  C_37
    3  A    between atoms: C_8  and  C_18
    4  A    between atoms: C_23  and  C_30
                            x       y       z     vdW  Elec       q    Type
                         _______ _______ _______ _____ _____    ______ ____

>  <TORSDO>
F 4

$$$$
=
 OpenBabel11112417213D

 37 42  0  0  1  0  0  0  0  0999 V2000
  186.9540  177.2350  145.5600 C   0  0  0  0  0  0  0  0  0  0  0  0
  191.0840  176.2860  145.4100 C   0  0  0  0  0  0  0  0  0  0  0  0
  192.5100  174.4590  142.1830 C   0  0  0  0  0  2  0  0  0  0  0  0
  189.2240  177.0850  146.7530 C   0  0  0  0  0  0  0  0  0  0  0  0
  191.3330  175.8370  143.9940 C   0  0  1  0  0  3  0  0  0  0  0  0
  189.7720  176.6720  145.5400 C   0  0  0  0  0  0  0  0  0  0  0  0
  192.3370  174.6800  143.7100 C   0  0  2  0  0  3  0  0  0  0  0  0
  190.0730  177.1890  147.8600 C   0  0  0  0  0  3  0  0  0  0  0  0
  189.0310  176.5910  144.2730 C   0  0  2  0  0  3  0  0  0  0  0  0
  186.9140  178.6390  144.9780 C   0  0  0  0  0  1  0  0  0  0  0  0
  193.4220  176.2070  146.3900 C   0  0  0  0  0  2  0  0  0  0  0  0
  191.4420  176.8980  147.7240 C   0  0  0  0  0  3  0  0  0  0  0  0
  187.5580  176.2530  144.5370 C   0  0  0  0  0  2  0  0  0  0  0  0
  190.6590  173.2610  141.5970 C   0  0  1  0  0  3  0  0  0  0  0  0
  191.2990  174.5100  141.4720 O   0  0  0  0  0  0  0  0  0  0  0  0
  191.9630  176.4500  146.4970 C   0  0  0  0  0  0  0  0  0  0  0  0
  189.8780  175.6010  143.4540 C   0  0  2  0  0  3  0  0  0  0  0  0
  187.7330  177.2540  146.8950 C   0  0  0  0  0  2  0  0  0  0  0  0
  193.7320  174.8500  144.3530 C   0  0  1  0  0  3  0  0  0  0  0  0
  185.5300  176.8070  145.8470 C   0  0  0  0  0  1  0  0  0  0  0  0
  190.1430  173.0160  143.0260 C   0  0  0  0  0  2  0  0  0  0  0  0
  189.3240  174.1620  143.6320 C   0  0  0  0  0  2  0  0  0  0  0  0
  193.6830  174.8160  145.8700 C   0  0  0  0  0  2  0  0  0  0  0  0
  194.5500  172.4810  144.3070 C   0  0  0  0  0  3  0  0  0  0  0  0
  194.7170  173.8090  143.8930 C   0  0  0  0  0  0  0  0  0  0  0  0
  195.7940  174.1440  143.0550 C   0  0  0  0  0  3  0  0  0  0  0  0
  197.8360  173.5160  141.7570 C   0  0  0  0  0  1  0  0  0  0  0  0
  196.5250  171.8330  143.0600 C   0  0  0  0  0  3  0  0  0  0  0  0
  196.6960  173.1570  142.6430 C   0  0  0  0  0  0  0  0  0  0  0  0
  195.4520  171.4950  143.8920 C   0  0  0  0  0  3  0  0  0  0  0  0
  189.5390  173.1420  140.6070 C   0  0  0  0  0  0  0  0  0  0  0  0
  189.3540  174.1670  139.6260 N   0  0  0  0  0  2  0  0  0  0  0  0
  188.7540  172.1520  140.6480 O   0  0  0  0  0  0  0  0  0  0  0  0
  188.9110  173.8930  137.2310 C   0  0  0  0  0  1  0  0  0  0  0  0
  188.3070  174.1130  138.6150 C   0  0  2  0  0  3  0  0  0  0  0  0
  187.4350  175.9260  139.9390 O   0  0  0  0  0  1  0  0  0  0  0  0
  187.4890  175.4000  138.6440 C   0  0  0  0  0  2  0  0  0  0  0  0
  1 20  1  0  0  0  0
  1 18  1  0  0  0  0
  2  6  2  0  0  0  0
  2 16  1  0  0  0  0
  4 18  1  0  0  0  0
  4  8  2  0  0  0  0
  5  2  1  1  0  0  0
  6  4  1  0  0  0  0
  7  3  1  6  0  0  0
  7  5  1  0  0  0  0
  7 19  1  0  0  0  0
  9 13  1  1  0  0  0
  9  6  1  0  0  0  0
 10  1  1  0  0  0  0
 11 16  1  0  0  0  0
 12  8  1  0  0  0  0
 13  1  1  0  0  0  0
 14 31  1  6  0  0  0
 14 21  1  0  0  0  0
 15 14  1  0  0  0  0
 15  3  1  0  0  0  0
 16 12  2  0  0  0  0
 17 22  1  1  0  0  0
 17  5  1  0  0  0  0
 17  9  1  0  0  0  0
 19 25  1  6  0  0  0
 19 23  1  0  0  0  0
 21 22  1  0  0  0  0
 23 11  1  0  0  0  0
 25 24  1  0  0  0  0
 26 25  2  0  0  0  0
 27 29  1  0  0  0  0
 28 30  1  0  0  0  0
 29 26  1  0  0  0  0
 29 28  2  0  0  0  0
 30 24  2  0  0  0  0
 31 33  2  0  0  0  0
 32 31  1  0  0  0  0
 35 34  1  6  0  0  0
 35 37  1  0  0  0  0
 35 32  1  0  0  0  0
 37 36  1  0  0  0  0
M  END
>  <MODEL>
7

>  <REMARK>
 VINA RESULT:      -7.4      1.554      2.100
  Name = 
  4 active torsions:
  status: ('A' for Active; 'I' for Inactive)
    1  A    between atoms: CA_4  and  N_12
    2  A    between atoms: CA_4  and  C_37
    3  A    between atoms: C_8  and  C_18
    4  A    between atoms: C_23  and  C_30
                            x       y       z     vdW  Elec       q    Type
                         _______ _______ _______ _____ _____    ______ ____

>  <TORSDO>
F 4

$$$$
=
 OpenBabel11112417213D

 37 42  0  0  1  0  0  0  0  0999 V2000
  193.2110  171.9260  139.5390 C   0  0  0  0  0  0  0  0  0  0  0  0
  189.9790  174.1720  141.1170 C   0  0  0  0  0  0  0  0  0  0  0  0
  190.7070  176.7990  144.0080 C   0  0  0  0  0  2  0  0  0  0  0  0
  190.6790  172.3420  139.6820 C   0  0  0  0  0  0  0  0  0  0  0  0
  190.6170  175.2170  141.9950 C   0  0  1  0  0  3  0  0  0  0  0  0
  190.9600  173.4250  140.5120 C   0  0  0  0  0  0  0  0  0  0  0  0
  189.9270  175.6430  143.3240 C   0  0  2  0  0  3  0  0  0  0  0  0
  189.3400  172.0620  139.3910 C   0  0  0  0  0  3  0  0  0  0  0  0
  192.3130  173.8940  140.8450 C   0  0  2  0  0  3  0  0  0  0  0  0
  193.6800  172.7890  138.3790 C   0  0  0  0  0  1  0  0  0  0  0  0
  187.5280  174.8080  141.2660 C   0  0  0  0  0  2  0  0  0  0  0  0
  188.3220  172.8780  139.9170 C   0  0  0  0  0  3  0  0  0  0  0  0
  193.2970  172.7180  140.8590 C   0  0  0  0  0  2  0  0  0  0  0  0
  192.4570  175.7450  145.0230 C   0  0  1  0  0  3  0  0  0  0  0  0
  192.1010  176.6230  143.9800 O   0  0  0  0  0  0  0  0  0  0  0  0
  188.6310  173.9440  140.7800 C   0  0  0  0  0  0  0  0  0  0  0  0
  192.0830  174.6760  142.1500 C   0  0  2  0  0  3  0  0  0  0  0  0
  191.7820  171.4090  139.2500 C   0  0  0  0  0  2  0  0  0  0  0  0
  188.4430  176.0500  143.1920 C   0  0  1  0  0  3  0  0  0  0  0  0
  194.1370  170.7320  139.6380 C   0  0  0  0  0  1  0  0  0  0  0  0
  191.9800  174.3060  144.7560 C   0  0  0  0  0  2  0  0  0  0  0  0
  192.3270  173.7480  143.3700 C   0  0  0  0  0  2  0  0  0  0  0  0
  187.5550  174.8920  142.7720 C   0  0  0  0  0  2  0  0  0  0  0  0
  188.2470  176.0700  145.6910 C   0  0  0  0  0  3  0  0  0  0  0  0
  187.8810  176.6330  144.4610 C   0  0  0  0  0  0  0  0  0  0  0  0
  187.0050  177.7310  144.4340 C   0  0  0  0  0  3  0  0  0  0  0  0
  185.5680  179.4150  145.5960 C   0  0  0  0  0  1  0  0  0  0  0  0
  186.8650  177.6870  146.8530 C   0  0  0  0  0  3  0  0  0  0  0  0
  186.4970  178.2530  145.6290 C   0  0  0  0  0  0  0  0  0  0  0  0
  187.7390  176.5950  146.8850 C   0  0  0  0  0  3  0  0  0  0  0  0
  193.9390  175.7720  145.2530 C   0  0  0  0  0  0  0  0  0  0  0  0
  194.8230  175.8450  144.1300 N   0  0  0  0  0  2  0  0  0  0  0  0
  194.4040  175.7160  146.4260 O   0  0  0  0  0  0  0  0  0  0  0  0
  196.8790  176.7910  143.1870 C   0  0  0  0  0  1  0  0  0  0  0  0
  196.2720  175.9020  144.2700 C   0  0  2  0  0  3  0  0  0  0  0  0
  197.5100  174.1660  145.3890 O   0  0  0  0  0  1  0  0  0  0  0  0
  196.8570  174.4950  144.1970 C   0  0  0  0  0  2  0  0  0  0  0  0
  1 20  1  0  0  0  0
  1 13  1  0  0  0  0
  4  6  1  0  0  0  0
  5  2  1  1  0  0  0
  5 17  1  0  0  0  0
  5  7  1  0  0  0  0
  6  9  1  0  0  0  0
  6  2  2  0  0  0  0
  7  3  1  6  0  0  0
  8  4  2  0  0  0  0
  8 12  1  0  0  0  0
  9 13  1  1  0  0  0
  9 17  1  0  0  0  0
 10  1  1  0  0  0  0
 11 23  1  0  0  0  0
 12 16  2  0  0  0  0
 14 31  1  6  0  0  0
 15  3  1  0  0  0  0
 15 14  1  0  0  0  0
 16  2  1  0  0  0  0
 16 11  1  0  0  0  0
 17 22  1  1  0  0  0
 18  1  1  0  0  0  0
 18  4  1  0  0  0  0
 19  7  1  0  0  0  0
 19 25  1  1  0  0  0
 21 14  1  0  0  0  0
 22 21  1  0  0  0  0
 23 19  1  0  0  0  0
 24 30  1  0  0  0  0
 25 24  2  0  0  0  0
 26 25  1  0  0  0  0
 26 29  2  0  0  0  0
 27 29  1  0  0  0  0
 28 30  2  0  0  0  0
 29 28  1  0  0  0  0
 31 33  2  0  0  0  0
 32 35  1  0  0  0  0
 32 31  1  0  0  0  0
 35 34  1  6  0  0  0
 37 35  1  0  0  0  0
 37 36  1  0  0  0  0
M  END
>  <MODEL>
8

>  <REMARK>
 VINA RESULT:      -7.2      2.771      7.777
  Name = 
  4 active torsions:
  status: ('A' for Active; 'I' for Inactive)
    1  A    between atoms: CA_4  and  N_12
    2  A    between atoms: CA_4  and  C_37
    3  A    between atoms: C_8  and  C_18
    4  A    between atoms: C_23  and  C_30
                            x       y       z     vdW  Elec       q    Type
                         _______ _______ _______ _____ _____    ______ ____

>  <TORSDO>
F 4

$$$$
=
 OpenBabel11112417213D

 37 42  0  0  1  0  0  0  0  0999 V2000
  197.0250  174.1260  140.0120 C   0  0  0  0  0  0  0  0  0  0  0  0
  194.7000  175.1760  143.3990 C   0  0  0  0  0  0  0  0  0  0  0  0
  191.1690  173.4290  143.9110 C   0  0  0  0  0  2  0  0  0  0  0  0
  196.6600  175.6540  142.0450 C   0  0  0  0  0  0  0  0  0  0  0  0
  193.5680  174.1830  143.4230 C   0  0  1  0  0  3  0  0  0  0  0  0
  195.5460  174.8780  142.3590 C   0  0  0  0  0  0  0  0  0  0  0  0
  192.1460  174.6350  143.8660 C   0  0  2  0  0  3  0  0  0  0  0  0
  196.9700  176.7330  142.8800 C   0  0  0  0  0  3  0  0  0  0  0  0
  195.1380  173.6680  141.6290 C   0  0  2  0  0  3  0  0  0  0  0  0
  197.8780  172.9820  140.5360 C   0  0  0  0  0  1  0  0  0  0  0  0
  194.2640  176.4980  145.5200 C   0  0  0  0  0  2  0  0  0  0  0  0
  196.1760  176.9950  144.0110 C   0  0  0  0  0  3  0  0  0  0  0  0
  195.5290  173.7800  140.1500 C   0  0  0  0  0  2  0  0  0  0  0  0
  190.6010  173.1120  141.7240 C   0  0  1  0  0  3  0  0  0  0  0  0
  191.3060  172.5620  142.8140 O   0  0  0  0  0  0  0  0  0  0  0  0
  195.0380  176.2160  144.2860 C   0  0  0  0  0  0  0  0  0  0  0  0
  193.6470  173.5490  141.9880 C   0  0  2  0  0  3  0  0  0  0  0  0
  197.4030  175.4300  140.7520 C   0  0  0  0  0  2  0  0  0  0  0  0
  192.0860  175.3780  145.2200 C   0  0  1  0  0  3  0  0  0  0  0  0
  197.3380  174.3080  138.5420 C   0  0  0  0  0  1  0  0  0  0  0  0
  191.2830  174.3780  141.1750 C   0  0  0  0  0  2  0  0  0  0  0  0
  192.7860  174.2460  140.9020 C   0  0  0  0  0  2  0  0  0  0  0  0
  192.8090  176.7130  145.1850 C   0  0  0  0  0  2  0  0  0  0  0  0
  190.1990  174.9150  146.8030 C   0  0  0  0  0  3  0  0  0  0  0  0
  190.6770  175.6210  145.6910 C   0  0  0  0  0  0  0  0  0  0  0  0
  189.8400  176.5450  145.0440 C   0  0  0  0  0  3  0  0  0  0  0  0
  187.6510  177.7300  144.8140 C   0  0  0  0  0  1  0  0  0  0  0  0
  188.0620  176.0420  146.6120 C   0  0  0  0  0  3  0  0  0  0  0  0
  188.5340  176.7510  145.5030 C   0  0  0  0  0  0  0  0  0  0  0  0
  188.8930  175.1240  147.2620 C   0  0  0  0  0  3  0  0  0  0  0  0
  190.4340  172.0930  140.6360 C   0  0  0  0  0  0  0  0  0  0  0  0
  191.3630  171.0090  140.5380 N   0  0  0  0  0  2  0  0  0  0  0  0
  189.4900  172.1980  139.8030 O   0  0  0  0  0  0  0  0  0  0  0  0
  191.2120  168.5880  140.1840 C   0  0  0  0  0  1  0  0  0  0  0  0
  191.2550  169.9650  139.5270 C   0  0  2  0  0  3  0  0  0  0  0  0
  192.0940  170.8430  137.4470 O   0  0  0  0  0  1  0  0  0  0  0  0
  192.4270  170.0590  138.5560 C   0  0  0  0  0  2  0  0  0  0  0  0
  1 13  1  0  0  0  0
  1 10  1  0  0  0  0
  1 18  1  0  0  0  0
  2 16  1  0  0  0  0
  4  6  1  0  0  0  0
  4  8  2  0  0  0  0
  5  2  1  6  0  0  0
  5  7  1  0  0  0  0
  6  2  2  0  0  0  0
  7  3  1  1  0  0  0
  7 19  1  0  0  0  0
  8 12  1  0  0  0  0
  9 13  1  6  0  0  0
  9 17  1  0  0  0  0
  9  6  1  0  0  0  0
 12 16  2  0  0  0  0
 14 31  1  6  0  0  0
 14 15  1  0  0  0  0
 15  3  1  0  0  0  0
 16 11  1  0  0  0  0
 17 22  1  6  0  0  0
 17  5  1  0  0  0  0
 18  4  1  0  0  0  0
 19 25  1  6  0  0  0
 20  1  1  0  0  0  0
 21 14  1  0  0  0  0
 22 21  1  0  0  0  0
 23 19  1  0  0  0  0
 23 11  1  0  0  0  0
 24 30  1  0  0  0  0
 25 24  2  0  0  0  0
 26 29  2  0  0  0  0
 26 25  1  0  0  0  0
 27 29  1  0  0  0  0
 28 30  2  0  0  0  0
 29 28  1  0  0  0  0
 32 31  1  0  0  0  0
 33 31  2  0  0  0  0
 35 34  1  1  0  0  0
 35 32  1  0  0  0  0
 36 37  1  0  0  0  0
 37 35  1  0  0  0  0
M  END
>  <MODEL>
9

>  <REMARK>
 VINA RESULT:      -7.1      2.790      6.575
  Name = 
  4 active torsions:
  status: ('A' for Active; 'I' for Inactive)
    1  A    between atoms: CA_4  and  N_12
    2  A    between atoms: CA_4  and  C_37
    3  A    between atoms: C_8  and  C_18
    4  A    between atoms: C_23  and  C_30
                            x       y       z     vdW  Elec       q    Type
                         _______ _______ _______ _____ _____    ______ ____

>  <TORSDO>
F 4

$$$$
