=
 OpenBabel11112416173D

 30 34  0  0  1  0  0  0  0  0999 V2000
  187.7610  176.6250  145.5430 N   0  0  0  0  0  0  0  0  0  0  0  0
  185.7260  177.3870  146.8020 C   0  0  0  0  0  0  0  0  0  0  0  0
  186.2640  178.2770  141.9370 C   0  0  0  0  0  2  0  0  0  0  0  0
  188.2610  176.1440  144.2360 C   0  0  2  0  0  3  0  0  0  0  0  0
  188.5540  176.3960  146.7540 C   0  0  0  0  0  2  0  0  0  0  0  0
  191.8920  176.5870  145.0790 O   0  0  0  0  0  1  0  0  0  0  0  0
  190.5090  176.7760  145.1510 C   0  0  2  0  0  3  0  0  0  0  0  0
  187.2360  177.6650  141.0010 C   0  0  0  0  0  0  0  0  0  0  0  0
  189.9900  176.9110  146.6000 C   0  0  2  0  0  3  0  0  0  0  0  0
  189.7430  175.7480  144.3070 C   0  0  1  0  0  3  0  0  0  0  0  0
  184.5150  178.0860  146.8140 C   0  0  0  0  0  3  0  0  0  0  0  0
  186.1310  176.7510  147.9690 O   0  0  0  0  0  1  0  0  0  0  0  0
  186.7600  177.8640  143.2370 N   0  0  0  0  0  0  0  0  0  0  0  0
  184.0480  178.7150  145.6620 C   0  0  0  0  0  3  0  0  0  0  0  0
  186.4940  177.3220  145.6140 C   0  0  0  0  0  0  0  0  0  0  0  0
  188.0730  177.2300  143.1620 C   0  0  2  0  0  3  0  0  0  0  0  0
  187.1910  177.8270  139.7920 O   0  0  0  0  0  0  0  0  0  0  0  0
  188.2670  176.8290  141.6820 C   0  0  1  0  0  3  0  0  0  0  0  0
  184.7880  178.6430  144.4830 C   0  0  0  0  0  3  0  0  0  0  0  0
  186.0060  177.9510  144.4530 C   0  0  0  0  0  0  0  0  0  0  0  0
  187.1700  174.7290  142.2850 O   0  0  0  0  0  0  0  0  0  0  0  0
  187.9960  175.3550  141.3370 C   0  0  0  0  0  3  0  0  0  0  0  0
  189.1900  174.6430  141.1720 O   0  0  0  0  0  0  0  0  0  0  0  0
  187.5710  173.3960  142.2660 C   0  0  0  0  0  2  0  0  0  0  0  0
  188.8260  173.3280  141.4420 C   0  0  0  0  0  2  0  0  0  0  0  0
  191.0500  173.6190  144.1630 C   0  0  0  0  0  1  0  0  0  0  0  0
  189.8870  174.3220  144.8350 C   0  0  0  0  0  2  0  0  0  0  0  0
  190.8920  176.2020  147.6100 C   0  0  0  0  0  2  0  0  0  0  0  0
  191.2900  177.9500  149.3450 C   0  0  0  0  0  1  0  0  0  0  0  0
  191.9120  177.1590  148.2100 C   0  0  0  0  0  2  0  0  0  0  0  0
  1 15  1  0  0  0  0
  1  5  1  0  0  0  0
  2 11  1  0  0  0  0
  2 12  1  0  0  0  0
  3 13  1  0  0  0  0
  4 10  1  0  0  0  0
  4  1  1  1  0  0  0
  7  6  1  1  0  0  0
  7  9  1  0  0  0  0
  8 18  1  0  0  0  0
  8  3  1  0  0  0  0
  9  5  1  0  0  0  0
  9 28  1  1  0  0  0
 10 27  1  1  0  0  0
 10  7  1  0  0  0  0
 13 20  1  0  0  0  0
 14 11  2  0  0  0  0
 15  2  2  0  0  0  0
 16 13  1  6  0  0  0
 16  4  1  0  0  0  0
 17  8  2  0  0  0  0
 18 22  1  1  0  0  0
 18 16  1  0  0  0  0
 19 14  1  0  0  0  0
 20 19  2  0  0  0  0
 20 15  1  0  0  0  0
 22 21  1  0  0  0  0
 23 22  1  0  0  0  0
 23 25  1  0  0  0  0
 24 21  1  0  0  0  0
 25 24  1  0  0  0  0
 26 27  1  0  0  0  0
 28 30  1  0  0  0  0
 30 29  1  0  0  0  0
M  END
>  <MODEL>
1

>  <REMARK>
 VINA RESULT:      -8.1      0.000      0.000
  Name = 
  4 active torsions:
  status: ('A' for Active; 'I' for Inactive)
    1  A    between atoms: C_9  and  C_22
    2  A    between atoms: C_11  and  C_28
    3  A    between atoms: C_12  and  C_27
    4  A    between atoms: C_28  and  C_30
                            x       y       z     vdW  Elec       q    Type
                         _______ _______ _______ _____ _____    ______ ____

>  <TORSDO>
F 4

$$$$
=
 OpenBabel11112416173D

 30 34  0  0  1  0  0  0  0  0999 V2000
  188.7410  175.5350  142.6230 N   0  0  0  0  0  0  0  0  0  0  0  0
  187.1360  177.4550  142.4240 C   0  0  0  0  0  0  0  0  0  0  0  0
  189.1640  176.1990  146.7890 C   0  0  0  0  0  2  0  0  0  0  0  0
  189.9280  175.0250  143.3450 C   0  0  2  0  0  3  0  0  0  0  0  0
  188.3730  174.9540  141.3290 C   0  0  0  0  0  2  0  0  0  0  0  0
  189.6060  171.5050  142.0810 O   0  0  0  0  0  1  0  0  0  0  0  0
  189.2170  172.8030  142.4220 C   0  0  2  0  0  3  0  0  0  0  0  0
  190.3200  175.3040  147.0330 C   0  0  0  0  0  0  0  0  0  0  0  0
  188.2350  173.4290  141.4080 C   0  0  2  0  0  3  0  0  0  0  0  0
  190.4220  173.6950  142.7560 C   0  0  1  0  0  3  0  0  0  0  0  0
  186.3850  178.4600  143.0410 C   0  0  0  0  0  3  0  0  0  0  0  0
  187.0710  177.3410  141.0410 O   0  0  0  0  0  1  0  0  0  0  0  0
  188.8550  175.9580  145.3910 N   0  0  0  0  0  0  0  0  0  0  0  0
  186.4380  178.6380  144.4220 C   0  0  0  0  0  3  0  0  0  0  0  0
  187.9520  176.6000  143.2030 C   0  0  0  0  0  0  0  0  0  0  0  0
  189.6010  174.8330  144.8370 C   0  0  2  0  0  3  0  0  0  0  0  0
  190.8470  175.1780  148.1260 O   0  0  0  0  0  0  0  0  0  0  0  0
  190.7750  174.5800  145.8110 C   0  0  1  0  0  3  0  0  0  0  0  0
  187.2510  177.8130  145.1980 C   0  0  0  0  0  3  0  0  0  0  0  0
  188.0070  176.7970  144.5970 C   0  0  0  0  0  0  0  0  0  0  0  0
  193.2080  174.5030  146.0300 O   0  0  0  0  0  0  0  0  0  0  0  0
  192.1390  175.1530  145.3920 C   0  0  0  0  0  3  0  0  0  0  0  0
  192.1990  176.5360  145.6070 O   0  0  0  0  0  0  0  0  0  0  0  0
  194.1950  175.4810  146.1320 C   0  0  0  0  0  2  0  0  0  0  0  0
  193.5600  176.7860  145.7440 C   0  0  0  0  0  2  0  0  0  0  0  0
  192.3210  175.0510  141.8520 C   0  0  0  0  0  1  0  0  0  0  0  0
  191.3230  173.9500  141.5500 C   0  0  0  0  0  2  0  0  0  0  0  0
  188.3860  172.8360  140.0070 C   0  0  0  0  0  2  0  0  0  0  0  0
  189.7840  173.6570  138.1110 C   0  0  0  0  0  1  0  0  0  0  0  0
  188.5540  173.9250  138.9590 C   0  0  0  0  0  2  0  0  0  0  0  0
  1 15  1  0  0  0  0
  2 11  2  0  0  0  0
  2 15  1  0  0  0  0
  3  8  1  0  0  0  0
  4  1  1  6  0  0  0
  4 16  1  0  0  0  0
  5  9  1  0  0  0  0
  5  1  1  0  0  0  0
  7  6  1  6  0  0  0
  7 10  1  0  0  0  0
  8 17  2  0  0  0  0
  9 28  1  6  0  0  0
  9  7  1  0  0  0  0
 10 27  1  6  0  0  0
 10  4  1  0  0  0  0
 11 14  1  0  0  0  0
 12  2  1  0  0  0  0
 13  3  1  0  0  0  0
 14 19  2  0  0  0  0
 15 20  2  0  0  0  0
 16 13  1  1  0  0  0
 16 18  1  0  0  0  0
 18 22  1  6  0  0  0
 18  8  1  0  0  0  0
 20 19  1  0  0  0  0
 20 13  1  0  0  0  0
 21 24  1  0  0  0  0
 22 23  1  0  0  0  0
 22 21  1  0  0  0  0
 23 25  1  0  0  0  0
 25 24  1  0  0  0  0
 27 26  1  0  0  0  0
 29 30  1  0  0  0  0
 30 28  1  0  0  0  0
M  END
>  <MODEL>
2

>  <REMARK>
 VINA RESULT:      -8.1      2.039      6.032
  Name = 
  4 active torsions:
  status: ('A' for Active; 'I' for Inactive)
    1  A    between atoms: C_9  and  C_22
    2  A    between atoms: C_11  and  C_28
    3  A    between atoms: C_12  and  C_27
    4  A    between atoms: C_28  and  C_30
                            x       y       z     vdW  Elec       q    Type
                         _______ _______ _______ _____ _____    ______ ____

>  <TORSDO>
F 4

$$$$
=
 OpenBabel11112416173D

 30 34  0  0  1  0  0  0  0  0999 V2000
  191.6250  175.9060  144.5720 N   0  0  0  0  0  0  0  0  0  0  0  0
  193.9780  176.0990  143.7180 C   0  0  0  0  0  0  0  0  0  0  0  0
  190.3810  174.0120  140.9890 C   0  0  0  0  0  2  0  0  0  0  0  0
  190.1970  175.9050  144.1830 C   0  0  2  0  0  3  0  0  0  0  0  0
  191.9980  176.1530  145.9680 C   0  0  0  0  0  2  0  0  0  0  0  0
  188.9520  174.5890  147.4720 O   0  0  0  0  0  1  0  0  0  0  0  0
  189.8490  174.8480  146.4310 C   0  0  2  0  0  3  0  0  0  0  0  0
  188.9170  174.0740  141.2100 C   0  0  0  0  0  0  0  0  0  0  0  0
  191.2660  175.2080  146.9290 C   0  0  2  0  0  3  0  0  0  0  0  0
  189.2750  175.8410  145.4100 C   0  0  1  0  0  3  0  0  0  0  0  0
  194.9200  175.8190  142.7240 C   0  0  0  0  0  3  0  0  0  0  0  0
  194.3880  176.8300  144.8260 O   0  0  0  0  0  1  0  0  0  0  0  0
  190.9200  174.5390  142.2290 N   0  0  0  0  0  0  0  0  0  0  0  0
  194.5530  175.1180  141.5770 C   0  0  0  0  0  3  0  0  0  0  0  0
  192.6400  175.6590  143.5710 C   0  0  0  0  0  0  0  0  0  0  0  0
  189.8980  174.7130  143.2570 C   0  0  2  0  0  3  0  0  0  0  0  0
  188.1010  173.6640  140.4000 O   0  0  0  0  0  0  0  0  0  0  0  0
  188.5420  174.6910  142.5160 C   0  0  1  0  0  3  0  0  0  0  0  0
  193.2350  174.6940  141.4140 C   0  0  0  0  0  3  0  0  0  0  0  0
  192.2790  174.9600  142.4020 C   0  0  0  0  0  0  0  0  0  0  0  0
  186.6600  176.2090  142.8770 O   0  0  0  0  0  0  0  0  0  0  0  0
  187.9000  176.0600  142.2340 C   0  0  0  0  0  3  0  0  0  0  0  0
  187.7790  176.2930  140.8590 O   0  0  0  0  0  0  0  0  0  0  0  0
  185.9410  177.0620  142.0440 C   0  0  0  0  0  2  0  0  0  0  0  0
  186.7310  177.2040  140.7740 C   0  0  0  0  0  2  0  0  0  0  0  0
  187.5900  177.5490  146.1190 C   0  0  0  0  0  1  0  0  0  0  0  0
  189.0680  177.2370  145.9930 C   0  0  0  0  0  2  0  0  0  0  0  0
  191.2550  175.8200  148.3290 C   0  0  0  0  0  2  0  0  0  0  0  0
  191.4370  177.9430  149.6270 C   0  0  0  0  0  1  0  0  0  0  0  0
  191.7440  177.2610  148.3070 C   0  0  0  0  0  2  0  0  0  0  0  0
  1  5  1  0  0  0  0
  2 12  1  0  0  0  0
  3  8  1  0  0  0  0
  3 13  1  0  0  0  0
  4  1  1  1  0  0  0
  4 10  1  0  0  0  0
  5  9  1  0  0  0  0
  7  9  1  0  0  0  0
  7  6  1  1  0  0  0
  8 18  1  0  0  0  0
  9 28  1  1  0  0  0
 10 27  1  1  0  0  0
 10  7  1  0  0  0  0
 11  2  2  0  0  0  0
 13 20  1  0  0  0  0
 14 11  1  0  0  0  0
 15  2  1  0  0  0  0
 15  1  1  0  0  0  0
 16 13  1  6  0  0  0
 16  4  1  0  0  0  0
 17  8  2  0  0  0  0
 18 22  1  6  0  0  0
 18 16  1  0  0  0  0
 19 14  2  0  0  0  0
 19 20  1  0  0  0  0
 20 15  2  0  0  0  0
 22 21  1  0  0  0  0
 23 22  1  0  0  0  0
 24 21  1  0  0  0  0
 25 23  1  0  0  0  0
 25 24  1  0  0  0  0
 27 26  1  0  0  0  0
 30 28  1  0  0  0  0
 30 29  1  0  0  0  0
M  END
>  <MODEL>
3

>  <REMARK>
 VINA RESULT:      -7.8      2.444      5.436
  Name = 
  4 active torsions:
  status: ('A' for Active; 'I' for Inactive)
    1  A    between atoms: C_9  and  C_22
    2  A    between atoms: C_11  and  C_28
    3  A    between atoms: C_12  and  C_27
    4  A    between atoms: C_28  and  C_30
                            x       y       z     vdW  Elec       q    Type
                         _______ _______ _______ _____ _____    ______ ____

>  <TORSDO>
F 4

$$$$
=
 OpenBabel11112416173D

 30 34  0  0  1  0  0  0  0  0999 V2000
  189.2210  176.7450  144.7280 N   0  0  0  0  0  0  0  0  0  0  0  0
  187.9080  177.4810  146.7380 C   0  0  0  0  0  0  0  0  0  0  0  0
  186.2010  178.1720  142.1170 C   0  0  0  0  0  2  0  0  0  0  0  0
  189.1210  176.2250  143.3460 C   0  0  2  0  0  3  0  0  0  0  0  0
  190.4770  176.6010  145.4690 C   0  0  0  0  0  2  0  0  0  0  0  0
  192.7220  176.8490  142.4870 O   0  0  0  0  0  1  0  0  0  0  0  0
  191.5040  176.9870  143.1590 C   0  0  2  0  0  3  0  0  0  0  0  0
  186.6950  177.5570  140.8620 C   0  0  0  0  0  0  0  0  0  0  0  0
  191.6690  177.1650  144.6840 C   0  0  2  0  0  3  0  0  0  0  0  0
  190.5020  175.8920  142.7640 C   0  0  1  0  0  3  0  0  0  0  0  0
  186.7900  178.1320  147.2680 C   0  0  0  0  0  3  0  0  0  0  0  0
  188.8200  176.9150  147.6200 O   0  0  0  0  0  1  0  0  0  0  0  0
  187.2410  177.8380  143.0730 N   0  0  0  0  0  0  0  0  0  0  0  0
  185.8290  178.6890  146.4260 C   0  0  0  0  0  3  0  0  0  0  0  0
  188.0790  177.3930  145.3350 C   0  0  0  0  0  0  0  0  0  0  0  0
  188.4200  177.2540  142.4410 C   0  0  2  0  0  3  0  0  0  0  0  0
  186.1140  177.6630  139.7930 O   0  0  0  0  0  0  0  0  0  0  0  0
  187.9650  176.7940  141.0360 C   0  0  1  0  0  3  0  0  0  0  0  0
  185.9780  178.5940  145.0430 C   0  0  0  0  0  3  0  0  0  0  0  0
  187.0950  177.9500  144.4940 C   0  0  0  0  0  0  0  0  0  0  0  0
  187.3580  174.6830  142.1090 O   0  0  0  0  0  0  0  0  0  0  0  0
  187.6520  175.2970  140.8810 C   0  0  0  0  0  3  0  0  0  0  0  0
  188.6910  174.6250  140.2250 O   0  0  0  0  0  0  0  0  0  0  0  0
  187.7830  173.3670  141.9480 C   0  0  0  0  0  2  0  0  0  0  0  0
  188.5540  173.3110  140.6590 C   0  0  0  0  0  2  0  0  0  0  0  0
  191.7480  173.8210  142.1150 C   0  0  0  0  0  1  0  0  0  0  0  0
  190.9430  174.4980  143.2060 C   0  0  0  0  0  2  0  0  0  0  0  0
  192.9600  176.5390  145.2090 C   0  0  0  0  0  2  0  0  0  0  0  0
  193.3330  174.1910  145.9640 C   0  0  0  0  0  1  0  0  0  0  0  0
  192.6780  175.5170  146.3000 C   0  0  0  0  0  2  0  0  0  0  0  0
  1 15  1  0  0  0  0
  1  5  1  0  0  0  0
  2 11  1  0  0  0  0
  2 12  1  0  0  0  0
  3 13  1  0  0  0  0
  4  1  1  1  0  0  0
  7  6  1  6  0  0  0
  7  9  1  0  0  0  0
  8 18  1  0  0  0  0
  8  3  1  0  0  0  0
  9 28  1  1  0  0  0
  9  5  1  0  0  0  0
 10  7  1  0  0  0  0
 10 27  1  1  0  0  0
 10  4  1  0  0  0  0
 13 20  1  0  0  0  0
 14 11  2  0  0  0  0
 15  2  2  0  0  0  0
 16 13  1  1  0  0  0
 16  4  1  0  0  0  0
 17  8  2  0  0  0  0
 18 22  1  1  0  0  0
 18 16  1  0  0  0  0
 19 14  1  0  0  0  0
 20 19  2  0  0  0  0
 20 15  1  0  0  0  0
 22 21  1  0  0  0  0
 23 25  1  0  0  0  0
 23 22  1  0  0  0  0
 24 21  1  0  0  0  0
 25 24  1  0  0  0  0
 26 27  1  0  0  0  0
 28 30  1  0  0  0  0
 29 30  1  0  0  0  0
M  END
>  <MODEL>
4

>  <REMARK>
 VINA RESULT:      -7.5      1.594      1.994
  Name = 
  4 active torsions:
  status: ('A' for Active; 'I' for Inactive)
    1  A    between atoms: C_9  and  C_22
    2  A    between atoms: C_11  and  C_28
    3  A    between atoms: C_12  and  C_27
    4  A    between atoms: C_28  and  C_30
                            x       y       z     vdW  Elec       q    Type
                         _______ _______ _______ _____ _____    ______ ____

>  <TORSDO>
F 4

$$$$
=
 OpenBabel11112416173D

 30 34  0  0  1  0  0  0  0  0999 V2000
  188.1270  175.4790  142.9710 N   0  0  0  0  0  0  0  0  0  0  0  0
  188.4360  173.5080  141.4470 C   0  0  0  0  0  0  0  0  0  0  0  0
  192.3190  175.8780  143.4590 C   0  0  0  0  0  2  0  0  0  0  0  0
  188.6790  176.1960  144.1420 C   0  0  2  0  0  3  0  0  0  0  0  0
  186.7370  175.7080  142.5680 C   0  0  0  0  0  2  0  0  0  0  0  0
  186.5940  179.2820  143.6620 O   0  0  0  0  0  1  0  0  0  0  0  0
  187.2520  178.0930  143.3310 C   0  0  2  0  0  3  0  0  0  0  0  0
  192.3140  176.8490  144.5780 C   0  0  0  0  0  0  0  0  0  0  0  0
  186.4410  177.1990  142.3670 C   0  0  2  0  0  3  0  0  0  0  0  0
  187.7720  177.3580  144.5750 C   0  0  1  0  0  3  0  0  0  0  0  0
  189.2960  172.6580  140.7440 C   0  0  0  0  0  3  0  0  0  0  0  0
  187.0690  173.2750  141.3650 O   0  0  0  0  0  1  0  0  0  0  0  0
  190.9120  175.7550  143.1280 N   0  0  0  0  0  0  0  0  0  0  0  0
  190.6770  172.8280  140.8180 C   0  0  0  0  0  3  0  0  0  0  0  0
  188.9660  174.5600  142.2340 C   0  0  0  0  0  0  0  0  0  0  0  0
  190.0830  176.7370  143.8210 C   0  0  2  0  0  3  0  0  0  0  0  0
  193.3330  177.2610  145.1100 O   0  0  0  0  0  0  0  0  0  0  0  0
  190.9430  177.2670  144.9920 C   0  0  1  0  0  3  0  0  0  0  0  0
  191.2100  173.8490  141.6020 C   0  0  0  0  0  3  0  0  0  0  0  0
  190.3640  174.7140  142.3090 C   0  0  0  0  0  0  0  0  0  0  0  0
  191.0090  177.5280  147.4210 O   0  0  0  0  0  0  0  0  0  0  0  0
  190.6520  176.6610  146.3750 C   0  0  0  0  0  3  0  0  0  0  0  0
  191.2740  175.4160  146.5280 O   0  0  0  0  0  0  0  0  0  0  0  0
  191.3540  176.6790  148.4700 C   0  0  0  0  0  2  0  0  0  0  0  0
  191.4130  175.2870  147.9060 C   0  0  0  0  0  2  0  0  0  0  0  0
  186.8400  177.3380  146.8970 C   0  0  0  0  0  1  0  0  0  0  0  0
  186.6490  176.8490  145.4750 C   0  0  0  0  0  2  0  0  0  0  0  0
  184.9350  177.4350  142.4800 C   0  0  0  0  0  2  0  0  0  0  0  0
  182.8720  178.1860  141.2960 C   0  0  0  0  0  1  0  0  0  0  0  0
  184.3870  178.1250  141.2400 C   0  0  0  0  0  2  0  0  0  0  0  0
  2 15  1  0  0  0  0
  3  8  1  0  0  0  0
  4  1  1  6  0  0  0
  4 10  1  0  0  0  0
  5  1  1  0  0  0  0
  7  6  1  1  0  0  0
  7 10  1  0  0  0  0
  8 18  1  0  0  0  0
  8 17  2  0  0  0  0
  9 28  1  1  0  0  0
  9  5  1  0  0  0  0
  9  7  1  0  0  0  0
 10 27  1  6  0  0  0
 11 14  1  0  0  0  0
 11  2  2  0  0  0  0
 12  2  1  0  0  0  0
 13  3  1  0  0  0  0
 14 19  2  0  0  0  0
 15 20  2  0  0  0  0
 15  1  1  0  0  0  0
 16 13  1  1  0  0  0
 16  4  1  0  0  0  0
 16 18  1  0  0  0  0
 18 22  1  1  0  0  0
 19 20  1  0  0  0  0
 20 13  1  0  0  0  0
 21 24  1  0  0  0  0
 22 23  1  0  0  0  0
 22 21  1  0  0  0  0
 23 25  1  0  0  0  0
 25 24  1  0  0  0  0
 27 26  1  0  0  0  0
 30 29  1  0  0  0  0
 30 28  1  0  0  0  0
M  END
>  <MODEL>
5

>  <REMARK>
 VINA RESULT:      -7.3      2.084      6.682
  Name = 
  4 active torsions:
  status: ('A' for Active; 'I' for Inactive)
    1  A    between atoms: C_9  and  C_22
    2  A    between atoms: C_11  and  C_28
    3  A    between atoms: C_12  and  C_27
    4  A    between atoms: C_28  and  C_30
                            x       y       z     vdW  Elec       q    Type
                         _______ _______ _______ _____ _____    ______ ____

>  <TORSDO>
F 4

$$$$
=
 OpenBabel11112416173D

 30 34  0  0  1  0  0  0  0  0999 V2000
  189.7110  176.6310  143.0660 N   0  0  0  0  0  0  0  0  0  0  0  0
  191.8740  177.1620  144.2240 C   0  0  0  0  0  0  0  0  0  0  0  0
  191.0140  172.6840  142.2370 C   0  0  0  0  0  2  0  0  0  0  0  0
  189.0860  175.8510  141.9740 C   0  0  2  0  0  3  0  0  0  0  0  0
  189.0010  177.7800  143.6360 C   0  0  0  0  0  2  0  0  0  0  0  0
  185.5600  176.4030  143.1370 O   0  0  0  0  0  1  0  0  0  0  0  0
  186.9520  176.3110  143.2100 C   0  0  2  0  0  3  0  0  0  0  0  0
  189.9420  172.2970  141.2900 C   0  0  0  0  0  0  0  0  0  0  0  0
  187.5870  177.4050  144.0970 C   0  0  2  0  0  3  0  0  0  0  0  0
  187.5940  176.1830  141.8210 C   0  0  1  0  0  3  0  0  0  0  0  0
  193.1180  176.7340  144.6960 C   0  0  0  0  0  3  0  0  0  0  0  0
  191.5260  178.4950  144.4020 O   0  0  0  0  0  1  0  0  0  0  0  0
  190.5970  174.0010  142.6810 N   0  0  0  0  0  0  0  0  0  0  0  0
  193.5300  175.4150  144.5150 C   0  0  0  0  0  3  0  0  0  0  0  0
  191.0140  176.2510  143.5640 C   0  0  0  0  0  0  0  0  0  0  0  0
  189.2500  174.3440  142.2360 C   0  0  2  0  0  3  0  0  0  0  0  0
  189.9020  171.2120  140.7320 O   0  0  0  0  0  0  0  0  0  0  0  0
  188.9220  173.3670  141.0840 C   0  0  1  0  0  3  0  0  0  0  0  0
  192.6990  174.5130  143.8520 C   0  0  0  0  0  3  0  0  0  0  0  0
  191.4460  174.9230  143.3760 C   0  0  0  0  0  0  0  0  0  0  0  0
  188.1900  173.3270  138.7530 O   0  0  0  0  0  0  0  0  0  0  0  0
  189.0850  173.9190  139.6580 C   0  0  0  0  0  3  0  0  0  0  0  0
  190.4040  173.7900  139.2090 O   0  0  0  0  0  0  0  0  0  0  0  0
  188.8630  173.3560  137.5340 C   0  0  0  0  0  2  0  0  0  0  0  0
  190.2770  173.7710  137.8240 C   0  0  0  0  0  2  0  0  0  0  0  0
  186.6850  177.1040  139.6800 C   0  0  0  0  0  1  0  0  0  0  0  0
  187.4140  177.4360  140.9670 C   0  0  0  0  0  2  0  0  0  0  0  0
  186.7290  178.6670  144.1710 C   0  0  0  0  0  2  0  0  0  0  0  0
  186.6540  177.8730  146.5340 C   0  0  0  0  0  1  0  0  0  0  0  0
  185.9890  178.7580  145.4970 C   0  0  0  0  0  2  0  0  0  0  0  0
  1 15  1  0  0  0  0
  1  5  1  0  0  0  0
  2 12  1  0  0  0  0
  2 11  1  0  0  0  0
  3 13  1  0  0  0  0
  4 16  1  0  0  0  0
  4  1  1  1  0  0  0
  5  9  1  0  0  0  0
  7  6  1  6  0  0  0
  7  9  1  0  0  0  0
  8  3  1  0  0  0  0
  9 28  1  6  0  0  0
 10 27  1  1  0  0  0
 10  4  1  0  0  0  0
 10  7  1  0  0  0  0
 13 20  1  0  0  0  0
 14 11  2  0  0  0  0
 15  2  2  0  0  0  0
 16 13  1  6  0  0  0
 17  8  2  0  0  0  0
 18 22  1  6  0  0  0
 18  8  1  0  0  0  0
 18 16  1  0  0  0  0
 19 14  1  0  0  0  0
 20 15  1  0  0  0  0
 20 19  2  0  0  0  0
 21 22  1  0  0  0  0
 23 22  1  0  0  0  0
 24 25  1  0  0  0  0
 24 21  1  0  0  0  0
 25 23  1  0  0  0  0
 26 27  1  0  0  0  0
 28 30  1  0  0  0  0
 30 29  1  0  0  0  0
M  END
>  <MODEL>
6

>  <REMARK>
 VINA RESULT:      -7.2      2.473      5.725
  Name = 
  4 active torsions:
  status: ('A' for Active; 'I' for Inactive)
    1  A    between atoms: C_9  and  C_22
    2  A    between atoms: C_11  and  C_28
    3  A    between atoms: C_12  and  C_27
    4  A    between atoms: C_28  and  C_30
                            x       y       z     vdW  Elec       q    Type
                         _______ _______ _______ _____ _____    ______ ____

>  <TORSDO>
F 4

$$$$
=
 OpenBabel11112416173D

 30 34  0  0  1  0  0  0  0  0999 V2000
  187.9320  175.9250  141.5940 N   0  0  0  0  0  0  0  0  0  0  0  0
  186.2630  177.2390  140.2550 C   0  0  0  0  0  0  0  0  0  0  0  0
  186.5880  177.7080  145.1970 C   0  0  0  0  0  2  0  0  0  0  0  0
  188.8050  175.9450  142.7890 C   0  0  2  0  0  3  0  0  0  0  0  0
  188.1920  174.9600  140.5210 C   0  0  0  0  0  2  0  0  0  0  0  0
  189.5390  172.2640  142.7360 O   0  0  0  0  0  1  0  0  0  0  0  0
  188.8560  173.4560  142.4800 C   0  0  2  0  0  3  0  0  0  0  0  0
  187.6770  177.2420  146.0870 C   0  0  0  0  0  0  0  0  0  0  0  0
  188.2660  173.5230  141.0540 C   0  0  2  0  0  3  0  0  0  0  0  0
  189.6850  174.6890  142.8710 C   0  0  1  0  0  3  0  0  0  0  0  0
  185.1880  178.1320  140.2230 C   0  0  0  0  0  3  0  0  0  0  0  0
  186.7620  176.7650  139.0480 O   0  0  0  0  0  1  0  0  0  0  0  0
  186.8900  177.0490  143.9400 N   0  0  0  0  0  0  0  0  0  0  0  0
  184.6700  178.6610  141.4040 C   0  0  0  0  0  3  0  0  0  0  0  0
  186.8290  176.8550  141.4960 C   0  0  0  0  0  0  0  0  0  0  0  0
  187.9550  176.0580  144.0660 C   0  0  2  0  0  3  0  0  0  0  0  0
  187.7480  177.5400  147.2690 O   0  0  0  0  0  0  0  0  0  0  0  0
  188.6780  176.3790  145.3940 C   0  0  1  0  0  3  0  0  0  0  0  0
  185.2300  178.3030  142.6290 C   0  0  0  0  0  3  0  0  0  0  0  0
  186.3040  177.4060  142.6810 C   0  0  0  0  0  0  0  0  0  0  0  0
  190.0250  177.9840  144.1360 O   0  0  0  0  0  0  0  0  0  0  0  0
  189.9940  177.1660  145.2780 C   0  0  0  0  0  3  0  0  0  0  0  0
  191.1030  176.3120  145.3080 O   0  0  0  0  0  0  0  0  0  0  0  0
  191.3740  178.0460  143.7950 C   0  0  0  0  0  2  0  0  0  0  0  0
  192.0880  177.0340  144.6440 C   0  0  0  0  0  2  0  0  0  0  0  0
  192.1070  174.1120  142.6190 C   0  0  0  0  0  1  0  0  0  0  0  0
  190.9360  174.8590  142.0120 C   0  0  0  0  0  2  0  0  0  0  0  0
  189.0410  172.6570  140.0610 C   0  0  0  0  0  2  0  0  0  0  0  0
  191.0020  173.2590  138.6420 C   0  0  0  0  0  1  0  0  0  0  0  0
  189.5170  173.4710  138.8680 C   0  0  0  0  0  2  0  0  0  0  0  0
  2 15  1  0  0  0  0
  3  8  1  0  0  0  0
  4  1  1  6  0  0  0
  4 10  1  0  0  0  0
  4 16  1  0  0  0  0
  5  9  1  0  0  0  0
  5  1  1  0  0  0  0
  7  6  1  6  0  0  0
  7 10  1  0  0  0  0
  8 17  2  0  0  0  0
  9 28  1  6  0  0  0
  9  7  1  0  0  0  0
 10 27  1  6  0  0  0
 11  2  2  0  0  0  0
 11 14  1  0  0  0  0
 12  2  1  0  0  0  0
 13  3  1  0  0  0  0
 14 19  2  0  0  0  0
 15  1  1  0  0  0  0
 15 20  2  0  0  0  0
 16 13  1  6  0  0  0
 16 18  1  0  0  0  0
 18 22  1  6  0  0  0
 18  8  1  0  0  0  0
 19 20  1  0  0  0  0
 20 13  1  0  0  0  0
 21 22  1  0  0  0  0
 22 23  1  0  0  0  0
 24 21  1  0  0  0  0
 24 25  1  0  0  0  0
 25 23  1  0  0  0  0
 27 26  1  0  0  0  0
 29 30  1  0  0  0  0
 30 28  1  0  0  0  0
M  END
>  <MODEL>
7

>  <REMARK>
 VINA RESULT:      -7.2      1.976      5.630
  Name = 
  4 active torsions:
  status: ('A' for Active; 'I' for Inactive)
    1  A    between atoms: C_9  and  C_22
    2  A    between atoms: C_11  and  C_28
    3  A    between atoms: C_12  and  C_27
    4  A    between atoms: C_28  and  C_30
                            x       y       z     vdW  Elec       q    Type
                         _______ _______ _______ _____ _____    ______ ____

>  <TORSDO>
F 4

$$$$
=
 OpenBabel11112416173D

 30 34  0  0  1  0  0  0  0  0999 V2000
  187.2600  177.8130  143.9640 N   0  0  0  0  0  0  0  0  0  0  0  0
  185.3240  179.0870  144.9290 C   0  0  0  0  0  0  0  0  0  0  0  0
  187.7090  175.5980  147.5510 C   0  0  0  0  0  2  0  0  0  0  0  0
  188.5460  177.1520  144.2790 C   0  0  2  0  0  3  0  0  0  0  0  0
  186.9560  178.1890  142.5810 C   0  0  0  0  0  2  0  0  0  0  0  0
  188.8280  175.3720  140.9860 O   0  0  0  0  0  1  0  0  0  0  0  0
  188.2210  176.0300  142.0590 C   0  0  2  0  0  3  0  0  0  0  0  0
  189.0180  174.9700  147.2530 C   0  0  0  0  0  0  0  0  0  0  0  0
  187.1030  177.0020  141.6220 C   0  0  2  0  0  3  0  0  0  0  0  0
  189.2530  176.6530  143.0100 C   0  0  1  0  0  3  0  0  0  0  0  0
  184.4250  179.2890  145.9800 C   0  0  0  0  0  3  0  0  0  0  0  0
  185.2290  179.9130  143.8150 O   0  0  0  0  0  1  0  0  0  0  0  0
  187.3980  176.3010  146.3200 N   0  0  0  0  0  0  0  0  0  0  0  0
  184.4970  178.5100  147.1330 C   0  0  0  0  0  3  0  0  0  0  0  0
  186.3120  178.0770  145.0240 C   0  0  0  0  0  0  0  0  0  0  0  0
  188.3170  175.9690  145.2350 C   0  0  2  0  0  3  0  0  0  0  0  0
  189.6010  174.2360  148.0360 O   0  0  0  0  0  0  0  0  0  0  0  0
  189.5520  175.3270  145.9070 C   0  0  1  0  0  3  0  0  0  0  0  0
  185.4760  177.5240  147.2460 C   0  0  0  0  0  3  0  0  0  0  0  0
  186.3820  177.3040  146.2000 C   0  0  0  0  0  0  0  0  0  0  0  0
  191.9680  175.6310  145.6950 O   0  0  0  0  0  0  0  0  0  0  0  0
  190.7720  176.2440  146.1010 C   0  0  0  0  0  3  0  0  0  0  0  0
  190.8670  176.6920  147.4230 O   0  0  0  0  0  0  0  0  0  0  0  0
  192.9410  176.1960  146.5150 C   0  0  0  0  0  2  0  0  0  0  0  0
  192.2190  176.9820  147.5730 C   0  0  0  0  0  2  0  0  0  0  0  0
  191.0190  178.3920  143.3560 C   0  0  0  0  0  1  0  0  0  0  0  0
  190.0470  177.7860  142.3630 C   0  0  0  0  0  2  0  0  0  0  0  0
  187.3080  177.5230  140.2000 C   0  0  0  0  0  2  0  0  0  0  0  0
  186.6600  176.3880  138.0750 C   0  0  0  0  0  1  0  0  0  0  0  0
  186.1500  177.1330  139.2940 C   0  0  0  0  0  2  0  0  0  0  0  0
  1 15  1  0  0  0  0
  2 15  2  0  0  0  0
  2 11  1  0  0  0  0
  4  1  1  6  0  0  0
  4 16  1  0  0  0  0
  5  1  1  0  0  0  0
  7  6  1  6  0  0  0
  7 10  1  0  0  0  0
  8  3  1  0  0  0  0
  8 17  2  0  0  0  0
  9 28  1  6  0  0  0
  9  7  1  0  0  0  0
  9  5  1  0  0  0  0
 10 27  1  6  0  0  0
 10  4  1  0  0  0  0
 11 14  2  0  0  0  0
 12  2  1  0  0  0  0
 13  3  1  0  0  0  0
 14 19  1  0  0  0  0
 15 20  1  0  0  0  0
 16 18  1  0  0  0  0
 16 13  1  1  0  0  0
 18 22  1  1  0  0  0
 18  8  1  0  0  0  0
 20 13  1  0  0  0  0
 20 19  2  0  0  0  0
 21 22  1  0  0  0  0
 21 24  1  0  0  0  0
 22 23  1  0  0  0  0
 23 25  1  0  0  0  0
 24 25  1  0  0  0  0
 27 26  1  0  0  0  0
 29 30  1  0  0  0  0
 30 28  1  0  0  0  0
M  END
>  <MODEL>
8

>  <REMARK>
 VINA RESULT:      -7.2      1.840      5.721
  Name = 
  4 active torsions:
  status: ('A' for Active; 'I' for Inactive)
    1  A    between atoms: C_9  and  C_22
    2  A    between atoms: C_11  and  C_28
    3  A    between atoms: C_12  and  C_27
    4  A    between atoms: C_28  and  C_30
                            x       y       z     vdW  Elec       q    Type
                         _______ _______ _______ _____ _____    ______ ____

>  <TORSDO>
F 4

$$$$
=
 OpenBabel11112416173D

 30 34  0  0  1  0  0  0  0  0999 V2000
  190.2510  174.6140  143.4010 N   0  0  0  0  0  0  0  0  0  0  0  0
  189.3760  173.2230  141.5020 C   0  0  0  0  0  0  0  0  0  0  0  0
  193.9600  175.1520  141.4210 C   0  0  0  0  0  2  0  0  0  0  0  0
  191.4610  174.9830  144.1680 C   0  0  2  0  0  3  0  0  0  0  0  0
  188.9240  174.8520  143.9780 C   0  0  0  0  0  2  0  0  0  0  0  0
  189.8800  177.9090  145.9100 O   0  0  0  0  0  1  0  0  0  0  0  0
  190.0730  176.9270  144.9340 C   0  0  2  0  0  3  0  0  0  0  0  0
  194.7230  175.7370  142.5490 C   0  0  0  0  0  0  0  0  0  0  0  0
  188.7510  176.3090  144.4250 C   0  0  2  0  0  3  0  0  0  0  0  0
  191.1230  175.8910  145.3600 C   0  0  1  0  0  3  0  0  0  0  0  0
  189.5570  172.6910  140.2230 C   0  0  0  0  0  3  0  0  0  0  0  0
  188.1980  172.9270  142.1780 O   0  0  0  0  0  1  0  0  0  0  0  0
  192.6190  175.0330  141.9620 N   0  0  0  0  0  0  0  0  0  0  0  0
  190.7340  172.9310  139.5150 C   0  0  0  0  0  3  0  0  0  0  0  0
  190.3870  174.0240  142.0870 C   0  0  0  0  0  0  0  0  0  0  0  0
  192.4730  175.6960  143.2540 C   0  0  2  0  0  3  0  0  0  0  0  0
  195.9020  176.0420  142.4700 O   0  0  0  0  0  0  0  0  0  0  0  0
  193.9090  175.9090  143.7870 C   0  0  1  0  0  3  0  0  0  0  0  0
  191.7430  173.7040  140.0870 C   0  0  0  0  0  3  0  0  0  0  0  0
  191.5760  174.2500  141.3670 C   0  0  0  0  0  0  0  0  0  0  0  0
  195.5080  175.3710  145.5550 O   0  0  0  0  0  0  0  0  0  0  0  0
  194.4020  174.8950  144.8320 C   0  0  0  0  0  3  0  0  0  0  0  0
  194.6880  173.6560  144.2450 O   0  0  0  0  0  0  0  0  0  0  0  0
  196.2230  174.2230  145.8870 C   0  0  0  0  0  2  0  0  0  0  0  0
  195.6100  173.0880  145.1170 C   0  0  0  0  0  2  0  0  0  0  0  0
  191.4470  175.4460  147.8010 C   0  0  0  0  0  1  0  0  0  0  0  0
  190.6770  175.0520  146.5560 C   0  0  0  0  0  2  0  0  0  0  0  0
  187.6330  176.3890  145.4630 C   0  0  0  0  0  2  0  0  0  0  0  0
  185.2810  177.0830  145.9220 C   0  0  0  0  0  1  0  0  0  0  0  0
  186.3540  176.9480  144.8580 C   0  0  0  0  0  2  0  0  0  0  0  0
  1  5  1  0  0  0  0
  2 15  1  0  0  0  0
  2 12  1  0  0  0  0
  3 13  1  0  0  0  0
  3  8  1  0  0  0  0
  4  1  1  6  0  0  0
  4 10  1  0  0  0  0
  5  9  1  0  0  0  0
  7 10  1  0  0  0  0
  7  6  1  1  0  0  0
  8 18  1  0  0  0  0
  9  7  1  0  0  0  0
  9 28  1  1  0  0  0
 10 27  1  1  0  0  0
 11  2  2  0  0  0  0
 14 19  2  0  0  0  0
 14 11  1  0  0  0  0
 15  1  1  0  0  0  0
 16 13  1  6  0  0  0
 16 18  1  0  0  0  0
 16  4  1  0  0  0  0
 17  8  2  0  0  0  0
 18 22  1  1  0  0  0
 19 20  1  0  0  0  0
 20 13  1  0  0  0  0
 20 15  2  0  0  0  0
 21 24  1  0  0  0  0
 22 21  1  0  0  0  0
 23 22  1  0  0  0  0
 23 25  1  0  0  0  0
 25 24  1  0  0  0  0
 27 26  1  0  0  0  0
 30 28  1  0  0  0  0
 30 29  1  0  0  0  0
M  END
>  <MODEL>
9

>  <REMARK>
 VINA RESULT:      -7.1      3.108      6.666
  Name = 
  4 active torsions:
  status: ('A' for Active; 'I' for Inactive)
    1  A    between atoms: C_9  and  C_22
    2  A    between atoms: C_11  and  C_28
    3  A    between atoms: C_12  and  C_27
    4  A    between atoms: C_28  and  C_30
                            x       y       z     vdW  Elec       q    Type
                         _______ _______ _______ _____ _____    ______ ____

>  <TORSDO>
F 4

$$$$
