=
 OpenBabel11112416453D

 32 37  0  0  1  0  0  0  0  0999 V2000
  191.1710  175.1780  144.5220 C   0  0  0  0  0  2  0  0  0  0  0  0
  187.5650  177.5620  143.3450 C   0  0  2  0  0  3  0  0  0  0  0  0
  186.0920  177.9230  148.0270 C   0  0  0  0  0  3  0  0  0  0  0  0
  184.7590  177.7870  147.6190 C   0  0  0  0  0  3  0  0  0  0  0  0
  185.7870  177.3870  141.5660 C   0  0  1  0  0  3  0  0  0  0  0  0
  184.6210  178.2160  141.0270 C   0  0  1  0  0  3  0  0  0  0  0  0
  190.0430  177.5480  142.8390 C   0  0  1  0  0  3  0  0  0  0  0  0
  189.1640  177.4280  145.2300 C   0  0  0  0  0  2  0  0  0  0  0  0
  182.3010  178.2370  141.7080 C   0  0  2  0  0  3  0  0  0  0  0  0
  191.6730  177.6460  144.7790 C   0  0  0  0  0  2  0  0  0  0  0  0
  187.1070  177.9570  147.1000 C   0  0  0  0  0  3  0  0  0  0  0  0
  187.8790  177.9370  144.7170 N   0  0  0  0  0  0  0  0  0  0  0  0
  186.8290  178.0030  145.6840 C   0  0  0  0  0  0  0  0  0  0  0  0
  185.1750  178.2160  143.8620 C   0  0  0  0  0  0  0  0  0  0  0  0
  182.3810  177.9840  140.1800 C   0  0  0  0  0  2  0  0  0  0  0  0
  190.3010  175.2270  143.2490 C   0  0  0  0  0  2  0  0  0  0  0  0
  190.2630  177.9070  144.2920 C   0  0  1  0  0  3  0  0  0  0  0  0
  183.8160  177.4850  139.9370 C   0  0  0  0  0  2  0  0  0  0  0  0
  190.5670  176.2760  142.3680 O   0  0  0  0  0  0  0  0  0  0  0  0
  192.2480  176.2510  144.4940 C   0  0  1  0  0  3  0  0  0  0  0  0
  184.4490  177.9160  146.2440 C   0  0  0  0  0  3  0  0  0  0  0  0
  185.4900  178.0850  145.3420 C   0  0  0  0  0  0  0  0  0  0  0  0
  183.9700  178.4290  143.4930 C   0  0  0  0  0  3  0  0  0  0  0  0
  188.6810  177.8450  142.2940 C   0  0  0  0  0  2  0  0  0  0  0  0
  186.6920  176.8830  140.6400 O   0  0  0  0  0  1  0  0  0  0  0  0
  181.3730  179.3880  142.0850 C   0  0  0  0  0  1  0  0  0  0  0  0
  186.2950  178.1380  142.8710 C   0  0  1  0  0  3  0  0  0  0  0  0
  183.6460  178.5460  142.0340 N   0  0  0  0  0  0  0  0  0  0  0  0
  193.4090  175.9640  145.4500 C   0  0  0  0  0  2  0  0  0  0  0  0
  194.6400  176.7460  145.0910 C   0  0  0  0  0  0  0  0  0  0  0  0
  195.3750  176.3150  143.8410 C   0  0  0  0  0  1  0  0  0  0  0  0
  194.9410  177.7550  145.7200 O   0  0  0  0  0  0  0  0  0  0  0  0
  2 24  1  6  0  0  0
  2 12  1  0  0  0  0
  4  3  1  0  0  0  0
  5 25  1  6  0  0  0
  5 27  1  0  0  0  0
  6 18  1  6  0  0  0
  6  5  1  0  0  0  0
  6 28  1  0  0  0  0
  7 24  1  1  0  0  0
  7 17  1  0  0  0  0
  9 28  1  0  0  0  0
  9 26  1  6  0  0  0
 11  3  2  0  0  0  0
 12  8  1  0  0  0  0
 12 13  1  0  0  0  0
 13 11  1  0  0  0  0
 14 22  1  0  0  0  0
 15  9  1  0  0  0  0
 16  1  1  0  0  0  0
 17 10  1  1  0  0  0
 17  8  1  0  0  0  0
 18 15  1  0  0  0  0
 19  7  1  0  0  0  0
 19 16  1  0  0  0  0
 20  1  1  0  0  0  0
 20 10  1  0  0  0  0
 20 29  1  1  0  0  0
 21  4  2  0  0  0  0
 22 13  2  0  0  0  0
 22 21  1  0  0  0  0
 23 14  2  0  0  0  0
 27  2  1  0  0  0  0
 27 14  1  1  0  0  0
 28 23  1  0  0  0  0
 30 29  1  0  0  0  0
 30 32  2  0  0  0  0
 31 30  1  0  0  0  0
M  END
>  <MODEL>
1

>  <REMARK>
 VINA RESULT:      -9.0      0.000      0.000
  Name = 
  2 active torsions:
  status: ('A' for Active; 'I' for Inactive)
    1  A    between atoms: C_20  and  C_29
    2  A    between atoms: C_29  and  C_30
                            x       y       z     vdW  Elec       q    Type
                         _______ _______ _______ _____ _____    ______ ____

>  <TORSDO>
F 2

$$$$
=
 OpenBabel11112416453D

 32 37  0  0  1  0  0  0  0  0999 V2000
  188.1610  175.9060  146.7930 C   0  0  0  0  0  2  0  0  0  0  0  0
  191.2710  176.0420  143.5720 C   0  0  2  0  0  3  0  0  0  0  0  0
  188.7260  172.8910  140.7760 C   0  0  0  0  0  3  0  0  0  0  0  0
  189.9220  172.2890  140.3650 C   0  0  0  0  0  3  0  0  0  0  0  0
  193.7880  175.9170  143.4870 C   0  0  1  0  0  3  0  0  0  0  0  0
  194.9090  176.0840  142.4590 C   0  0  1  0  0  3  0  0  0  0  0  0
  190.0110  177.6850  145.0240 C   0  0  1  0  0  3  0  0  0  0  0  0
  188.8150  175.8150  143.7680 C   0  0  0  0  0  2  0  0  0  0  0  0
  195.9340  174.4370  141.0160 C   0  0  2  0  0  3  0  0  0  0  0  0
  187.4770  177.5910  145.0340 C   0  0  0  0  0  2  0  0  0  0  0  0
  188.7450  173.9830  141.6130 C   0  0  0  0  0  3  0  0  0  0  0  0
  190.0150  175.7010  142.9190 N   0  0  0  0  0  0  0  0  0  0  0  0
  189.9830  174.6310  141.9740 C   0  0  0  0  0  0  0  0  0  0  0  0
  192.4250  174.8420  141.6650 C   0  0  0  0  0  0  0  0  0  0  0  0
  197.0390  175.1580  141.8320 C   0  0  0  0  0  2  0  0  0  0  0  0
  189.6840  176.1490  146.8000 C   0  0  0  0  0  2  0  0  0  0  0  0
  188.7560  177.2380  144.3050 C   0  0  1  0  0  3  0  0  0  0  0  0
  196.3030  175.7740  143.0350 C   0  0  0  0  0  2  0  0  0  0  0  0
  190.0980  177.4360  146.4530 O   0  0  0  0  0  0  0  0  0  0  0  0
  187.3990  177.1910  146.5140 C   0  0  1  0  0  3  0  0  0  0  0  0
  191.1450  172.9490  140.6300 C   0  0  0  0  0  3  0  0  0  0  0  0
  191.1190  174.1260  141.3650 C   0  0  0  0  0  0  0  0  0  0  0  0
  193.4840  174.5080  141.0330 C   0  0  0  0  0  3  0  0  0  0  0  0
  191.2990  177.4130  144.3130 C   0  0  0  0  0  2  0  0  0  0  0  0
  193.9140  176.6100  144.6840 O   0  0  0  0  0  1  0  0  0  0  0  0
  196.1920  174.4380  139.5120 C   0  0  0  0  0  1  0  0  0  0  0  0
  192.4290  175.9560  142.6650 C   0  0  1  0  0  3  0  0  0  0  0  0
  194.7810  175.2000  141.3310 N   0  0  0  0  0  0  0  0  0  0  0  0
  185.9360  177.1340  146.9600 C   0  0  0  0  0  2  0  0  0  0  0  0
  185.2790  178.4840  146.9110 C   0  0  0  0  0  0  0  0  0  0  0  0
  184.0150  178.5920  146.0870 C   0  0  0  0  0  1  0  0  0  0  0  0
  185.6900  179.4020  147.6130 O   0  0  0  0  0  0  0  0  0  0  0  0
  1 16  1  0  0  0  0
  2 24  1  6  0  0  0
  3 11  1  0  0  0  0
  4 21  1  0  0  0  0
  4  3  2  0  0  0  0
  5 25  1  1  0  0  0
  6 18  1  1  0  0  0
  6  5  1  0  0  0  0
  7 24  1  6  0  0  0
  7 19  1  0  0  0  0
  9 26  1  6  0  0  0
  9 28  1  0  0  0  0
  9 15  1  0  0  0  0
 10 20  1  0  0  0  0
 11 13  2  0  0  0  0
 12  2  1  0  0  0  0
 12  8  1  0  0  0  0
 13 12  1  0  0  0  0
 15 18  1  0  0  0  0
 17  8  1  1  0  0  0
 17  7  1  0  0  0  0
 17 10  1  0  0  0  0
 19 16  1  0  0  0  0
 20  1  1  0  0  0  0
 20 29  1  6  0  0  0
 21 22  2  0  0  0  0
 22 14  1  0  0  0  0
 22 13  1  0  0  0  0
 23 28  1  0  0  0  0
 23 14  2  0  0  0  0
 27 14  1  1  0  0  0
 27  5  1  0  0  0  0
 27  2  1  0  0  0  0
 28  6  1  0  0  0  0
 30 29  1  0  0  0  0
 30 32  2  0  0  0  0
 31 30  1  0  0  0  0
M  END
>  <MODEL>
2

>  <REMARK>
 VINA RESULT:      -8.7      3.288      8.710
  Name = 
  2 active torsions:
  status: ('A' for Active; 'I' for Inactive)
    1  A    between atoms: C_20  and  C_29
    2  A    between atoms: C_29  and  C_30
                            x       y       z     vdW  Elec       q    Type
                         _______ _______ _______ _____ _____    ______ ____

>  <TORSDO>
F 2

$$$$
=
 OpenBabel11112416453D

 32 37  0  0  1  0  0  0  0  0999 V2000
  194.6200  175.6230  144.3720 C   0  0  0  0  0  2  0  0  0  0  0  0
  190.3070  175.9410  145.5420 C   0  0  2  0  0  3  0  0  0  0  0  0
  188.8330  174.7630  140.9970 C   0  0  0  0  0  3  0  0  0  0  0  0
  187.7780  175.6790  141.1010 C   0  0  0  0  0  3  0  0  0  0  0  0
  188.9060  177.5860  146.8410 C   0  0  1  0  0  3  0  0  0  0  0  0
  187.4810  177.6980  147.3860 C   0  0  1  0  0  3  0  0  0  0  0  0
  192.4190  174.8910  146.4560 C   0  0  1  0  0  3  0  0  0  0  0  0
  191.7200  174.5940  144.0210 C   0  0  0  0  0  2  0  0  0  0  0  0
  185.4980  178.6030  146.3390 C   0  0  2  0  0  3  0  0  0  0  0  0
  193.7350  173.3250  144.9560 C   0  0  0  0  0  2  0  0  0  0  0  0
  189.6830  174.5520  142.0580 C   0  0  0  0  0  3  0  0  0  0  0  0
  190.3640  175.0100  144.4240 N   0  0  0  0  0  0  0  0  0  0  0  0
  189.4330  175.1460  143.3500 C   0  0  0  0  0  0  0  0  0  0  0  0
  187.9310  176.4360  144.8260 C   0  0  0  0  0  0  0  0  0  0  0  0
  185.7120  179.2950  147.7100 C   0  0  0  0  0  2  0  0  0  0  0  0
  193.8660  176.4610  145.4250 C   0  0  0  0  0  2  0  0  0  0  0  0
  192.4050  173.9910  145.2390 C   0  0  1  0  0  3  0  0  0  0  0  0
  187.1950  179.0590  148.0450 C   0  0  0  0  0  2  0  0  0  0  0  0
  193.5410  175.8020  146.6110 O   0  0  0  0  0  0  0  0  0  0  0  0
  194.9640  174.2430  144.9100 C   0  0  1  0  0  3  0  0  0  0  0  0
  187.4570  176.2090  142.3740 C   0  0  0  0  0  3  0  0  0  0  0  0
  188.2560  175.8690  143.4560 C   0  0  0  0  0  0  0  0  0  0  0  0
  186.7990  176.9980  145.0210 C   0  0  0  0  0  3  0  0  0  0  0  0
  191.1110  175.5240  146.8120 C   0  0  0  0  0  2  0  0  0  0  0  0
  189.9460  177.8560  147.7210 O   0  0  0  0  0  1  0  0  0  0  0  0
  184.0980  178.0230  146.1630 C   0  0  0  0  0  1  0  0  0  0  0  0
  188.9290  176.2830  145.9320 C   0  0  1  0  0  3  0  0  0  0  0  0
  186.4720  177.5730  146.3660 N   0  0  0  0  0  0  0  0  0  0  0  0
  196.0940  173.5590  144.1350 C   0  0  0  0  0  2  0  0  0  0  0  0
  197.0890  172.9060  145.0520 C   0  0  0  0  0  0  0  0  0  0  0  0
  197.1540  173.4330  146.4680 C   0  0  0  0  0  1  0  0  0  0  0  0
  197.7140  171.9160  144.6860 O   0  0  0  0  0  0  0  0  0  0  0  0
  1 20  1  0  0  0  0
  1 16  1  0  0  0  0
  2 27  1  0  0  0  0
  2 24  1  1  0  0  0
  3  4  2  0  0  0  0
  3 11  1  0  0  0  0
  4 21  1  0  0  0  0
  5  6  1  0  0  0  0
  5 25  1  1  0  0  0
  6 18  1  6  0  0  0
  7 19  1  0  0  0  0
  7 24  1  6  0  0  0
  8 12  1  0  0  0  0
  9 26  1  1  0  0  0
  9 28  1  0  0  0  0
  9 15  1  0  0  0  0
 10 17  1  0  0  0  0
 11 13  2  0  0  0  0
 12  2  1  0  0  0  0
 13 22  1  0  0  0  0
 13 12  1  0  0  0  0
 14 23  2  0  0  0  0
 15 18  1  0  0  0  0
 16 19  1  0  0  0  0
 17  8  1  6  0  0  0
 17  7  1  0  0  0  0
 20 29  1  6  0  0  0
 20 10  1  0  0  0  0
 21 22  2  0  0  0  0
 22 14  1  0  0  0  0
 23 28  1  0  0  0  0
 27 14  1  6  0  0  0
 27  5  1  0  0  0  0
 28  6  1  0  0  0  0
 29 30  1  0  0  0  0
 30 31  1  0  0  0  0
 32 30  2  0  0  0  0
M  END
>  <MODEL>
3

>  <REMARK>
 VINA RESULT:      -8.6      3.108      5.506
  Name = 
  2 active torsions:
  status: ('A' for Active; 'I' for Inactive)
    1  A    between atoms: C_20  and  C_29
    2  A    between atoms: C_29  and  C_30
                            x       y       z     vdW  Elec       q    Type
                         _______ _______ _______ _____ _____    ______ ____

>  <TORSDO>
F 2

$$$$
=
 OpenBabel11112416453D

 32 37  0  0  1  0  0  0  0  0999 V2000
  189.7050  171.8740  141.4770 C   0  0  0  0  0  2  0  0  0  0  0  0
  188.6510  175.5960  143.7350 C   0  0  2  0  0  3  0  0  0  0  0  0
  192.3690  174.9140  146.8870 C   0  0  0  0  0  3  0  0  0  0  0  0
  191.5670  175.3840  147.9360 C   0  0  0  0  0  3  0  0  0  0  0  0
  186.5300  176.6260  144.6270 C   0  0  1  0  0  3  0  0  0  0  0  0
  186.0780  177.9330  145.2820 C   0  0  1  0  0  3  0  0  0  0  0  0
  188.9460  174.8930  141.3240 C   0  0  1  0  0  3  0  0  0  0  0  0
  190.6770  174.3210  143.1070 C   0  0  0  0  0  2  0  0  0  0  0  0
  185.9830  178.5310  147.6230 C   0  0  2  0  0  3  0  0  0  0  0  0
  191.1270  173.7940  140.6440 C   0  0  0  0  0  2  0  0  0  0  0  0
  191.8910  174.8930  145.5970 C   0  0  0  0  0  3  0  0  0  0  0  0
  190.0760  175.3770  143.9410 N   0  0  0  0  0  0  0  0  0  0  0  0
  190.6190  175.4850  145.2580 C   0  0  0  0  0  0  0  0  0  0  0  0
  188.6640  176.8290  145.9460 C   0  0  0  0  0  0  0  0  0  0  0  0
  184.5930  178.7720  146.9780 C   0  0  0  0  0  2  0  0  0  0  0  0
  188.3810  172.6260  141.7230 C   0  0  0  0  0  2  0  0  0  0  0  0
  190.4060  174.6660  141.6500 C   0  0  1  0  0  3  0  0  0  0  0  0
  184.5970  177.9160  145.7000 C   0  0  0  0  0  2  0  0  0  0  0  0
  188.1550  173.7430  140.9170 O   0  0  0  0  0  0  0  0  0  0  0  0
  190.4580  172.4570  140.2930 C   0  0  1  0  0  3  0  0  0  0  0  0
  190.3560  176.0480  147.6240 C   0  0  0  0  0  3  0  0  0  0  0  0
  189.9660  176.1290  146.2950 C   0  0  0  0  0  0  0  0  0  0  0  0
  188.0830  177.5500  146.8260 C   0  0  0  0  0  3  0  0  0  0  0  0
  188.2040  175.7990  142.2550 C   0  0  0  0  0  2  0  0  0  0  0  0
  185.7910  176.1690  143.5440 O   0  0  0  0  0  1  0  0  0  0  0  0
  186.5210  179.7440  148.3750 C   0  0  0  0  0  1  0  0  0  0  0  0
  188.1160  176.6940  144.5590 C   0  0  1  0  0  3  0  0  0  0  0  0
  186.7910  178.2360  146.4960 N   0  0  0  0  0  0  0  0  0  0  0  0
  191.4960  171.4970  139.7060 C   0  0  0  0  0  2  0  0  0  0  0  0
  190.8800  170.1940  139.2810 C   0  0  0  0  0  0  0  0  0  0  0  0
  189.9020  170.2510  138.1280 C   0  0  0  0  0  1  0  0  0  0  0  0
  191.2610  169.1360  139.7720 O   0  0  0  0  0  0  0  0  0  0  0  0
  1 16  1  0  0  0  0
  2 24  1  6  0  0  0
  2 12  1  0  0  0  0
  2 27  1  0  0  0  0
  3  4  1  0  0  0  0
  5 25  1  6  0  0  0
  5  6  1  0  0  0  0
  6 18  1  1  0  0  0
  6 28  1  0  0  0  0
  7 17  1  0  0  0  0
  7 24  1  1  0  0  0
  8 12  1  0  0  0  0
  9 26  1  6  0  0  0
 11  3  2  0  0  0  0
 12 13  1  0  0  0  0
 13 11  1  0  0  0  0
 13 22  2  0  0  0  0
 14 22  1  0  0  0  0
 14 23  2  0  0  0  0
 15  9  1  0  0  0  0
 17 10  1  6  0  0  0
 17  8  1  0  0  0  0
 18 15  1  0  0  0  0
 19  7  1  0  0  0  0
 19 16  1  0  0  0  0
 20 29  1  1  0  0  0
 20 10  1  0  0  0  0
 20  1  1  0  0  0  0
 21  4  2  0  0  0  0
 22 21  1  0  0  0  0
 27  5  1  0  0  0  0
 27 14  1  1  0  0  0
 28 23  1  0  0  0  0
 28  9  1  0  0  0  0
 30 29  1  0  0  0  0
 30 32  2  0  0  0  0
 31 30  1  0  0  0  0
M  END
>  <MODEL>
4

>  <REMARK>
 VINA RESULT:      -8.4      3.371      5.868
  Name = 
  2 active torsions:
  status: ('A' for Active; 'I' for Inactive)
    1  A    between atoms: C_20  and  C_29
    2  A    between atoms: C_29  and  C_30
                            x       y       z     vdW  Elec       q    Type
                         _______ _______ _______ _____ _____    ______ ____

>  <TORSDO>
F 2

$$$$
=
 OpenBabel11112416453D

 32 37  0  0  1  0  0  0  0  0999 V2000
  186.9210  176.4160  146.1810 C   0  0  0  0  0  2  0  0  0  0  0  0
  191.0100  175.6280  144.5300 C   0  0  2  0  0  3  0  0  0  0  0  0
  189.2130  172.5260  141.1590 C   0  0  0  0  0  3  0  0  0  0  0  0
  190.3330  171.7000  141.3210 C   0  0  0  0  0  3  0  0  0  0  0  0
  193.2810  175.1190  145.5000 C   0  0  1  0  0  3  0  0  0  0  0  0
  194.7250  174.9700  145.0180 C   0  0  1  0  0  3  0  0  0  0  0  0
  189.6250  177.6300  145.2140 C   0  0  1  0  0  3  0  0  0  0  0  0
  188.6820  175.7990  143.7100 C   0  0  0  0  0  2  0  0  0  0  0  0
  195.8960  173.0000  144.2450 C   0  0  2  0  0  3  0  0  0  0  0  0
  187.3260  177.9160  144.1840 C   0  0  0  0  0  2  0  0  0  0  0  0
  189.1120  173.7100  141.8510 C   0  0  0  0  0  3  0  0  0  0  0  0
  190.0720  175.3880  143.4420 N   0  0  0  0  0  0  0  0  0  0  0  0
  190.2090  174.2120  142.6440 C   0  0  0  0  0  0  0  0  0  0  0  0
  192.5650  174.0110  143.3570 C   0  0  0  0  0  0  0  0  0  0  0  0
  196.7070  173.6570  145.3920 C   0  0  0  0  0  2  0  0  0  0  0  0
  188.3350  176.4280  146.7990 C   0  0  0  0  0  2  0  0  0  0  0  0
  188.6940  177.2770  144.0750 C   0  0  1  0  0  3  0  0  0  0  0  0
  195.6910  174.5410  146.1370 C   0  0  0  0  0  2  0  0  0  0  0  0
  189.0920  177.5770  146.5660 O   0  0  0  0  0  0  0  0  0  0  0  0
  186.5960  177.7470  145.5240 C   0  0  1  0  0  3  0  0  0  0  0  0
  191.4560  172.2020  142.0200 C   0  0  0  0  0  3  0  0  0  0  0  0
  191.3720  173.4620  142.5950 C   0  0  0  0  0  0  0  0  0  0  0  0
  193.7010  173.4370  143.2430 C   0  0  0  0  0  3  0  0  0  0  0  0
  191.0100  177.0710  145.1200 C   0  0  0  0  0  2  0  0  0  0  0  0
  193.0580  175.9490  146.5910 O   0  0  0  0  0  1  0  0  0  0  0  0
  196.7190  172.7480  142.9860 C   0  0  0  0  0  1  0  0  0  0  0  0
  192.3910  175.2430  144.1900 C   0  0  1  0  0  3  0  0  0  0  0  0
  194.8830  173.9630  144.0010 N   0  0  0  0  0  0  0  0  0  0  0  0
  185.0940  177.9720  145.3290 C   0  0  0  0  0  2  0  0  0  0  0  0
  184.8080  178.8910  144.1760 C   0  0  0  0  0  0  0  0  0  0  0  0
  184.0760  178.2910  142.9960 C   0  0  0  0  0  1  0  0  0  0  0  0
  185.0480  180.0910  144.2630 O   0  0  0  0  0  0  0  0  0  0  0  0
  1 16  1  0  0  0  0
  2 24  1  6  0  0  0
  3  4  2  0  0  0  0
  3 11  1  0  0  0  0
  4 21  1  0  0  0  0
  5 25  1  1  0  0  0
  6  5  1  0  0  0  0
  6 18  1  1  0  0  0
  7 24  1  1  0  0  0
  7 19  1  0  0  0  0
  9 26  1  6  0  0  0
  9 15  1  0  0  0  0
 10 20  1  0  0  0  0
 11 13  2  0  0  0  0
 12  8  1  0  0  0  0
 12  2  1  0  0  0  0
 13 12  1  0  0  0  0
 15 18  1  0  0  0  0
 17  8  1  1  0  0  0
 17 10  1  0  0  0  0
 17  7  1  0  0  0  0
 19 16  1  0  0  0  0
 20 29  1  6  0  0  0
 20  1  1  0  0  0  0
 21 22  2  0  0  0  0
 22 13  1  0  0  0  0
 22 14  1  0  0  0  0
 23 14  2  0  0  0  0
 23 28  1  0  0  0  0
 27 14  1  1  0  0  0
 27  2  1  0  0  0  0
 27  5  1  0  0  0  0
 28  9  1  0  0  0  0
 28  6  1  0  0  0  0
 30 32  2  0  0  0  0
 30 29  1  0  0  0  0
 31 30  1  0  0  0  0
M  END
>  <MODEL>
5

>  <REMARK>
 VINA RESULT:      -8.2      2.887      9.083
  Name = 
  2 active torsions:
  status: ('A' for Active; 'I' for Inactive)
    1  A    between atoms: C_20  and  C_29
    2  A    between atoms: C_29  and  C_30
                            x       y       z     vdW  Elec       q    Type
                         _______ _______ _______ _____ _____    ______ ____

>  <TORSDO>
F 2

$$$$
=
 OpenBabel11112416453D

 32 37  0  0  1  0  0  0  0  0999 V2000
  187.6190  176.4590  146.1410 C   0  0  0  0  0  2  0  0  0  0  0  0
  191.6360  175.3800  144.4770 C   0  0  2  0  0  3  0  0  0  0  0  0
  189.6190  172.3060  141.2050 C   0  0  0  0  0  3  0  0  0  0  0  0
  190.6890  171.4170  141.3800 C   0  0  0  0  0  3  0  0  0  0  0  0
  193.8820  174.7590  145.4410 C   0  0  1  0  0  3  0  0  0  0  0  0
  195.3090  174.5090  144.9510 C   0  0  1  0  0  3  0  0  0  0  0  0
  190.3820  177.4800  145.1190 C   0  0  1  0  0  3  0  0  0  0  0  0
  189.3140  175.6720  143.6720 C   0  0  0  0  0  2  0  0  0  0  0  0
  196.3490  172.4520  144.2200 C   0  0  2  0  0  3  0  0  0  0  0  0
  188.0940  177.8790  144.1000 C   0  0  0  0  0  2  0  0  0  0  0  0
  189.5980  173.5120  141.8660 C   0  0  0  0  0  3  0  0  0  0  0  0
  190.6740  175.1700  143.4030 N   0  0  0  0  0  0  0  0  0  0  0  0
  190.7310  173.9660  142.6360 C   0  0  0  0  0  0  0  0  0  0  0  0
  193.0780  173.6410  143.3340 C   0  0  0  0  0  0  0  0  0  0  0  0
  197.2100  173.0880  145.3420 C   0  0  0  0  0  2  0  0  0  0  0  0
  189.0370  176.4010  146.7460 C   0  0  0  0  0  2  0  0  0  0  0  0
  189.4190  177.1550  143.9970 C   0  0  1  0  0  3  0  0  0  0  0  0
  196.2580  174.0510  146.0730 C   0  0  0  0  0  2  0  0  0  0  0  0
  189.8610  177.4950  146.4760 O   0  0  0  0  0  0  0  0  0  0  0  0
  187.3690  177.7900  145.4510 C   0  0  1  0  0  3  0  0  0  0  0  0
  191.8470  171.8680  142.0560 C   0  0  0  0  0  3  0  0  0  0  0  0
  191.8450  173.1450  142.5980 C   0  0  0  0  0  0  0  0  0  0  0  0
  194.1750  172.9950  143.2260 C   0  0  0  0  0  3  0  0  0  0  0  0
  191.7290  176.8350  145.0280 C   0  0  0  0  0  2  0  0  0  0  0  0
  193.7200  175.6290  146.5110 O   0  0  0  0  0  1  0  0  0  0  0  0
  197.1440  172.1170  142.9610 C   0  0  0  0  0  1  0  0  0  0  0  0
  192.9870  174.9030  144.1350 C   0  0  1  0  0  3  0  0  0  0  0  0
  195.3950  173.4680  143.9600 N   0  0  0  0  0  0  0  0  0  0  0  0
  185.8820  178.1010  145.2630 C   0  0  0  0  0  2  0  0  0  0  0  0
  185.2100  178.4480  146.5610 C   0  0  0  0  0  0  0  0  0  0  0  0
  185.9470  179.4090  147.4690 C   0  0  0  0  0  1  0  0  0  0  0  0
  184.0690  178.0630  146.7930 O   0  0  0  0  0  0  0  0  0  0  0  0
  1 16  1  0  0  0  0
  2 24  1  6  0  0  0
  3  4  2  0  0  0  0
  3 11  1  0  0  0  0
  4 21  1  0  0  0  0
  5 25  1  6  0  0  0
  6  5  1  0  0  0  0
  6 18  1  1  0  0  0
  7 24  1  1  0  0  0
  7 19  1  0  0  0  0
  9 26  1  6  0  0  0
  9 15  1  0  0  0  0
 10 20  1  0  0  0  0
 11 13  2  0  0  0  0
 12  8  1  0  0  0  0
 12  2  1  0  0  0  0
 13 12  1  0  0  0  0
 15 18  1  0  0  0  0
 17  8  1  1  0  0  0
 17 10  1  0  0  0  0
 17  7  1  0  0  0  0
 19 16  1  0  0  0  0
 20 29  1  6  0  0  0
 20  1  1  0  0  0  0
 21 22  2  0  0  0  0
 22 13  1  0  0  0  0
 22 14  1  0  0  0  0
 23 14  2  0  0  0  0
 23 28  1  0  0  0  0
 27 14  1  1  0  0  0
 27  2  1  0  0  0  0
 27  5  1  0  0  0  0
 28  9  1  0  0  0  0
 28  6  1  0  0  0  0
 29 30  1  0  0  0  0
 30 32  2  0  0  0  0
 30 31  1  0  0  0  0
M  END
>  <MODEL>
6

>  <REMARK>
 VINA RESULT:      -8.1      3.334      9.355
  Name = 
  2 active torsions:
  status: ('A' for Active; 'I' for Inactive)
    1  A    between atoms: C_20  and  C_29
    2  A    between atoms: C_29  and  C_30
                            x       y       z     vdW  Elec       q    Type
                         _______ _______ _______ _____ _____    ______ ____

>  <TORSDO>
F 2

$$$$
=
 OpenBabel11112416453D

 32 37  0  0  1  0  0  0  0  0999 V2000
  186.9620  178.9080  142.8870 C   0  0  0  0  0  2  0  0  0  0  0  0
  189.3110  175.1810  142.0730 C   0  0  2  0  0  3  0  0  0  0  0  0
  193.0820  176.7850  144.7980 C   0  0  0  0  0  3  0  0  0  0  0  0
  193.9830  176.2200  143.8850 C   0  0  0  0  0  3  0  0  0  0  0  0
  189.8420  173.7910  140.0370 C   0  0  1  0  0  3  0  0  0  0  0  0
  190.5150  172.4580  139.7040 C   0  0  1  0  0  3  0  0  0  0  0  0
  186.9550  175.7930  142.7610 C   0  0  1  0  0  3  0  0  0  0  0  0
  188.9930  176.8060  143.9120 C   0  0  0  0  0  2  0  0  0  0  0  0
  192.8330  171.9850  139.2020 C   0  0  2  0  0  3  0  0  0  0  0  0
  186.6380  177.2750  144.7930 C   0  0  0  0  0  2  0  0  0  0  0  0
  191.7260  176.6350  144.6250 C   0  0  0  0  0  3  0  0  0  0  0  0
  189.7860  175.6980  143.3490 N   0  0  0  0  0  0  0  0  0  0  0  0
  191.1900  175.7770  143.5950 C   0  0  0  0  0  0  0  0  0  0  0  0
  191.5880  174.1030  141.8230 C   0  0  0  0  0  0  0  0  0  0  0  0
  191.9410  171.4300  138.0620 C   0  0  0  0  0  2  0  0  0  0  0  0
  187.0010  177.9160  141.7060 C   0  0  0  0  0  2  0  0  0  0  0  0
  187.5530  176.3310  144.0420 C   0  0  1  0  0  3  0  0  0  0  0  0
  190.6130  172.1960  138.1900 C   0  0  0  0  0  2  0  0  0  0  0  0
  186.2820  176.7320  141.8800 O   0  0  0  0  0  0  0  0  0  0  0  0
  186.0240  178.4240  143.9810 C   0  0  1  0  0  3  0  0  0  0  0  0
  193.4950  175.3070  142.9210 C   0  0  0  0  0  3  0  0  0  0  0  0
  192.1280  175.0730  142.8590 C   0  0  0  0  0  0  0  0  0  0  0  0
  192.3960  173.3290  141.2060 C   0  0  0  0  0  3  0  0  0  0  0  0
  187.7980  174.8080  142.0130 C   0  0  0  0  0  2  0  0  0  0  0  0
  188.5890  174.0260  139.4870 O   0  0  0  0  0  1  0  0  0  0  0  0
  193.7970  170.9520  139.7770 C   0  0  0  0  0  1  0  0  0  0  0  0
  190.1110  174.0450  141.5820 C   0  0  1  0  0  3  0  0  0  0  0  0
  191.8740  172.3760  140.1720 N   0  0  0  0  0  0  0  0  0  0  0  0
  185.5720  179.5430  144.9250 C   0  0  0  0  0  2  0  0  0  0  0  0
  184.8680  179.0050  146.1380 C   0  0  0  0  0  0  0  0  0  0  0  0
  185.6320  179.0570  147.4430 C   0  0  0  0  0  1  0  0  0  0  0  0
  183.6910  178.6660  146.0750 O   0  0  0  0  0  0  0  0  0  0  0  0
  1 20  1  0  0  0  0
  2 24  1  1  0  0  0
  2 12  1  0  0  0  0
  4  3  2  0  0  0  0
  5 25  1  1  0  0  0
  5 27  1  0  0  0  0
  6 18  1  6  0  0  0
  6  5  1  0  0  0  0
  6 28  1  0  0  0  0
  7 24  1  6  0  0  0
  7 17  1  0  0  0  0
  9 26  1  1  0  0  0
  9 28  1  0  0  0  0
 11  3  1  0  0  0  0
 12 13  1  0  0  0  0
 12  8  1  0  0  0  0
 13 11  2  0  0  0  0
 14 22  1  0  0  0  0
 15 18  1  0  0  0  0
 15  9  1  0  0  0  0
 16 19  1  0  0  0  0
 16  1  1  0  0  0  0
 17  8  1  6  0  0  0
 17 10  1  0  0  0  0
 19  7  1  0  0  0  0
 20 10  1  0  0  0  0
 20 29  1  1  0  0  0
 21  4  1  0  0  0  0
 22 21  2  0  0  0  0
 22 13  1  0  0  0  0
 23 14  2  0  0  0  0
 27 14  1  6  0  0  0
 27  2  1  0  0  0  0
 28 23  1  0  0  0  0
 29 30  1  0  0  0  0
 30 31  1  0  0  0  0
 32 30  2  0  0  0  0
M  END
>  <MODEL>
7

>  <REMARK>
 VINA RESULT:      -7.9      3.471      7.946
  Name = 
  2 active torsions:
  status: ('A' for Active; 'I' for Inactive)
    1  A    between atoms: C_20  and  C_29
    2  A    between atoms: C_29  and  C_30
                            x       y       z     vdW  Elec       q    Type
                         _______ _______ _______ _____ _____    ______ ____

>  <TORSDO>
F 2

$$$$
=
 OpenBabel11112416453D

 32 37  0  0  1  0  0  0  0  0999 V2000
  187.0710  178.4660  142.3800 C   0  0  0  0  0  2  0  0  0  0  0  0
  190.1390  175.3810  143.4460 C   0  0  2  0  0  3  0  0  0  0  0  0
  190.5630  177.1660  148.0130 C   0  0  0  0  0  3  0  0  0  0  0  0
  191.9420  176.9170  147.9820 C   0  0  0  0  0  3  0  0  0  0  0  0
  192.2100  174.4430  142.3550 C   0  0  1  0  0  3  0  0  0  0  0  0
  193.2190  173.3170  142.5910 C   0  0  1  0  0  3  0  0  0  0  0  0
  187.8830  175.4570  142.3060 C   0  0  1  0  0  3  0  0  0  0  0  0
  188.2950  176.6150  144.5400 C   0  0  0  0  0  2  0  0  0  0  0  0
  195.2900  173.3400  143.8380 C   0  0  2  0  0  3  0  0  0  0  0  0
  185.9410  176.5220  143.5420 C   0  0  0  0  0  2  0  0  0  0  0  0
  189.7660  176.8120  146.9490 C   0  0  0  0  0  3  0  0  0  0  0  0
  189.4890  175.7650  144.6910 N   0  0  0  0  0  0  0  0  0  0  0  0
  190.2880  176.0470  145.8410 C   0  0  0  0  0  0  0  0  0  0  0  0
  192.1540  174.7680  144.8510 C   0  0  0  0  0  0  0  0  0  0  0  0
  195.5660  172.8250  142.4020 C   0  0  0  0  0  2  0  0  0  0  0  0
  188.1280  177.6950  141.5630 C   0  0  0  0  0  2  0  0  0  0  0  0
  187.3100  175.8820  143.6400 C   0  0  1  0  0  3  0  0  0  0  0  0
  194.3700  173.3180  141.5690 C   0  0  0  0  0  2  0  0  0  0  0  0
  187.7850  176.3920  141.1970 O   0  0  0  0  0  0  0  0  0  0  0  0
  185.7900  177.6610  142.5230 C   0  0  1  0  0  3  0  0  0  0  0  0
  192.4660  176.0970  146.9550 C   0  0  0  0  0  3  0  0  0  0  0  0
  191.6060  175.6420  145.9650 C   0  0  0  0  0  0  0  0  0  0  0  0
  193.3180  174.2540  144.9710 C   0  0  0  0  0  3  0  0  0  0  0  0
  189.2080  174.7640  142.3580 C   0  0  0  0  0  2  0  0  0  0  0  0
  191.6490  174.5400  141.0890 O   0  0  0  0  0  1  0  0  0  0  0  0
  195.8200  172.4130  144.9270 C   0  0  0  0  0  1  0  0  0  0  0  0
  191.2960  174.4930  143.6540 C   0  0  1  0  0  3  0  0  0  0  0  0
  193.8740  173.4000  143.8700 N   0  0  0  0  0  0  0  0  0  0  0  0
  184.5750  178.5200  142.8830 C   0  0  0  0  0  2  0  0  0  0  0  0
  184.7650  179.2470  144.1830 C   0  0  0  0  0  0  0  0  0  0  0  0
  184.0660  178.6660  145.3930 C   0  0  0  0  0  1  0  0  0  0  0  0
  185.5530  180.1840  144.2630 O   0  0  0  0  0  0  0  0  0  0  0  0
  1 20  1  0  0  0  0
  2 24  1  6  0  0  0
  2 27  1  0  0  0  0
  2 12  1  0  0  0  0
  4  3  1  0  0  0  0
  5 25  1  6  0  0  0
  5  6  1  0  0  0  0
  5 27  1  0  0  0  0
  6 18  1  6  0  0  0
  6 28  1  0  0  0  0
  7 24  1  1  0  0  0
  7 17  1  0  0  0  0
  8 12  1  0  0  0  0
  9 28  1  0  0  0  0
  9 26  1  1  0  0  0
 11  3  2  0  0  0  0
 12 13  1  0  0  0  0
 13 22  2  0  0  0  0
 13 11  1  0  0  0  0
 14 23  2  0  0  0  0
 14 22  1  0  0  0  0
 15  9  1  0  0  0  0
 16  1  1  0  0  0  0
 17 10  1  6  0  0  0
 17  8  1  0  0  0  0
 18 15  1  0  0  0  0
 19 16  1  0  0  0  0
 19  7  1  0  0  0  0
 20 29  1  1  0  0  0
 20 10  1  0  0  0  0
 21  4  2  0  0  0  0
 22 21  1  0  0  0  0
 27 14  1  1  0  0  0
 28 23  1  0  0  0  0
 29 30  1  0  0  0  0
 30 32  2  0  0  0  0
 30 31  1  0  0  0  0
M  END
>  <MODEL>
8

>  <REMARK>
 VINA RESULT:      -7.9      2.707      8.198
  Name = 
  2 active torsions:
  status: ('A' for Active; 'I' for Inactive)
    1  A    between atoms: C_20  and  C_29
    2  A    between atoms: C_29  and  C_30
                            x       y       z     vdW  Elec       q    Type
                         _______ _______ _______ _____ _____    ______ ____

>  <TORSDO>
F 2

$$$$
=
 OpenBabel11112416453D

 32 37  0  0  1  0  0  0  0  0999 V2000
  193.8170  174.6990  144.3490 C   0  0  0  0  0  2  0  0  0  0  0  0
  189.4180  175.4800  144.0210 C   0  0  2  0  0  3  0  0  0  0  0  0
  189.2910  173.6830  139.4410 C   0  0  0  0  0  3  0  0  0  0  0  0
  188.3650  174.6700  139.0780 C   0  0  0  0  0  3  0  0  0  0  0  0
  187.8800  177.4010  144.5710 C   0  0  1  0  0  3  0  0  0  0  0  0
  186.3790  177.6910  144.6090 C   0  0  1  0  0  3  0  0  0  0  0  0
  191.0150  174.4570  145.6940 C   0  0  1  0  0  3  0  0  0  0  0  0
  191.0690  173.8170  143.2260 C   0  0  0  0  0  2  0  0  0  0  0  0
  184.9290  178.5420  142.8710 C   0  0  2  0  0  3  0  0  0  0  0  0
  192.5420  172.5880  144.9180 C   0  0  0  0  0  2  0  0  0  0  0  0
  189.7430  173.5910  140.7360 C   0  0  0  0  0  3  0  0  0  0  0  0
  189.7110  174.3790  143.1130 N   0  0  0  0  0  0  0  0  0  0  0  0
  189.1770  174.4010  141.7890 C   0  0  0  0  0  0  0  0  0  0  0  0
  187.4480  176.0060  142.5200 C   0  0  0  0  0  0  0  0  0  0  0  0
  184.7860  179.4310  144.1340 C   0  0  0  0  0  2  0  0  0  0  0  0
  192.8750  175.7430  144.9840 C   0  0  0  0  0  2  0  0  0  0  0  0
  191.2740  173.3750  144.6680 C   0  0  1  0  0  3  0  0  0  0  0  0
  186.0580  179.1560  144.9560 C   0  0  0  0  0  2  0  0  0  0  0  0
  192.1290  175.3060  146.0790 O   0  0  0  0  0  0  0  0  0  0  0  0
  193.8220  173.4050  145.1470 C   0  0  1  0  0  3  0  0  0  0  0  0
  187.7300  175.4180  140.0980 C   0  0  0  0  0  3  0  0  0  0  0  0
  188.1140  175.2050  141.4150 C   0  0  0  0  0  0  0  0  0  0  0  0
  186.3830  176.6640  142.2650 C   0  0  0  0  0  3  0  0  0  0  0  0
  189.7410  175.2230  145.5240 C   0  0  0  0  0  2  0  0  0  0  0  0
  188.6220  177.7410  145.6940 O   0  0  0  0  0  1  0  0  0  0  0  0
  183.5950  178.0330  142.3340 C   0  0  0  0  0  1  0  0  0  0  0  0
  188.0340  175.9700  143.8980 C   0  0  1  0  0  3  0  0  0  0  0  0
  185.7250  177.4690  143.3460 N   0  0  0  0  0  0  0  0  0  0  0  0
  195.0500  172.5330  144.8740 C   0  0  0  0  0  2  0  0  0  0  0  0
  196.3240  173.3300  144.9050 C   0  0  0  0  0  0  0  0  0  0  0  0
  196.9470  173.5570  146.2650 C   0  0  0  0  0  1  0  0  0  0  0  0
  196.8780  173.6570  143.8610 O   0  0  0  0  0  0  0  0  0  0  0  0
  1 16  1  0  0  0  0
  1 20  1  0  0  0  0
  2 24  1  1  0  0  0
  3 11  1  0  0  0  0
  4  3  2  0  0  0  0
  4 21  1  0  0  0  0
  5  6  1  0  0  0  0
  5 25  1  1  0  0  0
  6 18  1  6  0  0  0
  7 24  1  6  0  0  0
  7 19  1  0  0  0  0
  9 26  1  1  0  0  0
  9 28  1  0  0  0  0
  9 15  1  0  0  0  0
 10 20  1  0  0  0  0
 11 13  2  0  0  0  0
 12  8  1  0  0  0  0
 12  2  1  0  0  0  0
 13 12  1  0  0  0  0
 15 18  1  0  0  0  0
 16 19  1  0  0  0  0
 17  8  1  6  0  0  0
 17 10  1  0  0  0  0
 17  7  1  0  0  0  0
 20 29  1  6  0  0  0
 21 22  2  0  0  0  0
 22 13  1  0  0  0  0
 22 14  1  0  0  0  0
 23 14  2  0  0  0  0
 23 28  1  0  0  0  0
 27 14  1  6  0  0  0
 27  2  1  0  0  0  0
 27  5  1  0  0  0  0
 28  6  1  0  0  0  0
 29 30  1  0  0  0  0
 30 31  1  0  0  0  0
 32 30  2  0  0  0  0
M  END
>  <MODEL>
9

>  <REMARK>
 VINA RESULT:      -7.9      2.736      5.000
  Name = 
  2 active torsions:
  status: ('A' for Active; 'I' for Inactive)
    1  A    between atoms: C_20  and  C_29
    2  A    between atoms: C_29  and  C_30
                            x       y       z     vdW  Elec       q    Type
                         _______ _______ _______ _____ _____    ______ ____

>  <TORSDO>
F 2

$$$$
