=
 OpenBabel11112417343D

 28 32  0  0  1  0  0  0  0  0999 V2000
  187.2180  178.0510  144.2680 C   0  0  0  0  0  0  0  0  0  0  0  0
  189.7530  177.3440  147.3080 O   0  0  0  0  0  0  0  0  0  0  0  0
  187.3150  173.3610  141.8820 O   0  0  0  0  0  0  0  0  0  0  0  0
  185.9440  176.7790  146.4180 C   0  0  0  0  0  3  0  0  0  0  0  0
  189.4620  173.6840  142.7770 N   0  0  0  0  0  0  0  0  0  0  0  0
  187.8160  178.7000  143.0550 C   0  0  0  0  0  2  0  0  0  0  0  0
  190.3420  175.0580  147.9440 O   0  0  0  0  0  0  0  0  0  0  0  0
  190.4800  176.1020  146.8720 S   0  0  0  0  0  0  0  0  0  0  0  0
  192.7610  175.3720  145.9640 C   0  0  2  0  0  3  0  0  0  0  0  0
  189.8010  175.4760  145.3830 N   0  0  2  0  0  0  0  0  0  0  0  0
  185.8440  177.2180  140.2880 N   0  0  0  0  0  2  0  0  0  0  0  0
  189.3730  176.0480  143.0800 C   0  0  1  0  0  3  0  0  0  0  0  0
  192.1920  175.3110  144.5650 C   0  0  0  0  0  2  0  0  0  0  0  0
  192.1530  176.4830  146.6700 N   0  0  0  0  0  2  0  0  0  0  0  0
  186.8110  177.3140  141.1370 C   0  0  0  0  0  0  0  0  0  0  0  0
  187.8700  176.9910  144.9400 C   0  0  0  0  0  0  0  0  0  0  0  0
  188.2020  174.1340  142.3300 C   0  0  0  0  0  0  0  0  0  0  0  0
  194.2560  175.5900  145.8860 C   0  0  0  0  0  1  0  0  0  0  0  0
  187.8770  176.2620  141.1170 C   0  0  0  0  0  2  0  0  0  0  0  0
  187.2070  176.3540  146.0040 C   0  0  0  0  0  3  0  0  0  0  0  0
  185.9550  178.4770  144.7000 C   0  0  0  0  0  3  0  0  0  0  0  0
  185.3210  177.8470  145.7730 C   0  0  0  0  0  3  0  0  0  0  0  0
  186.9360  178.5190  141.9040 N   0  0  0  0  0  2  0  0  0  0  0  0
  190.2910  174.8220  143.1280 C   0  0  1  0  0  3  0  0  0  0  0  0
  188.0320  175.5950  142.4720 C   0  0  2  0  0  3  0  0  0  0  0  0
  190.7730  174.7280  144.5620 C   0  0  2  0  0  3  0  0  0  0  0  0
  189.9730  172.3390  142.5780 C   0  0  0  0  0  1  0  0  0  0  0  0
  189.2690  176.5420  144.5300 C   0  0  1  0  0  3  0  0  0  0  0  0
  1 21  2  0  0  0  0
  1 16  1  0  0  0  0
  3 17  2  0  0  0  0
  5 24  1  0  0  0  0
  6  1  1  0  0  0  0
  8  2  2  0  0  0  0
  8  7  2  0  0  0  0
  9 18  1  6  0  0  0
  9 14  1  0  0  0  0
 10  8  1  1  0  0  0
 11 15  2  0  0  0  0
 12 24  1  0  0  0  0
 12 28  1  0  0  0  0
 13  9  1  0  0  0  0
 14  8  1  0  0  0  0
 15 23  1  0  0  0  0
 16 20  2  0  0  0  0
 17 25  1  0  0  0  0
 17  5  1  0  0  0  0
 19 15  1  0  0  0  0
 19 25  1  0  0  0  0
 20  4  1  0  0  0  0
 21 22  1  0  0  0  0
 22  4  2  0  0  0  0
 23  6  1  0  0  0  0
 24 26  1  0  0  0  0
 25 12  1  0  0  0  0
 26 13  1  0  0  0  0
 26 10  1  0  0  0  0
 27  5  1  0  0  0  0
 28 16  1  0  0  0  0
 28 10  1  0  0  0  0
M  END
>  <MODEL>
1

>  <REMARK>
 VINA RESULT:      -8.4      0.000      0.000
  Name = 
  0 active torsions:
  status: ('A' for Active; 'I' for Inactive)
                            x       y       z     vdW  Elec       q    Type
                         _______ _______ _______ _____ _____    ______ ____

>  <TORSDO>
F 0

$$$$
=
 OpenBabel11112417343D

 28 32  0  0  1  0  0  0  0  0999 V2000
  189.0840  176.7460  145.4110 C   0  0  0  0  0  0  0  0  0  0  0  0
  192.8600  176.1430  146.6550 O   0  0  0  0  0  0  0  0  0  0  0  0
  188.8230  173.2120  141.5200 O   0  0  0  0  0  0  0  0  0  0  0  0
  189.2680  174.5800  147.1830 C   0  0  0  0  0  3  0  0  0  0  0  0
  191.0400  173.9900  141.5510 N   0  0  0  0  0  0  0  0  0  0  0  0
  188.8890  177.8650  144.4310 C   0  0  0  0  0  2  0  0  0  0  0  0
  194.0740  174.1130  146.0370 O   0  0  0  0  0  0  0  0  0  0  0  0
  193.4860  175.3920  145.5130 S   0  0  0  0  0  0  0  0  0  0  0  0
  195.1200  175.7600  143.5760 C   0  0  2  0  0  3  0  0  0  0  0  0
  192.2880  175.0050  144.2940 N   0  0  2  0  0  0  0  0  0  0  0  0
  186.1110  176.6160  142.3170 N   0  0  0  0  0  2  0  0  0  0  0  0
  190.6970  176.0030  142.7820 C   0  0  1  0  0  3  0  0  0  0  0  0
  193.9610  175.8940  142.6140 C   0  0  0  0  0  2  0  0  0  0  0  0
  194.7510  176.3600  144.8430 N   0  0  0  0  0  2  0  0  0  0  0  0
  187.3360  176.8010  142.6810 C   0  0  0  0  0  0  0  0  0  0  0  0
  190.1550  175.8310  145.2890 C   0  0  0  0  0  0  0  0  0  0  0  0
  189.6660  174.0870  141.8540 C   0  0  0  0  0  0  0  0  0  0  0  0
  196.3220  176.4870  143.0130 C   0  0  0  0  0  1  0  0  0  0  0  0
  188.4220  176.2220  141.8260 C   0  0  0  0  0  2  0  0  0  0  0  0
  190.2200  174.7410  146.1750 C   0  0  0  0  0  3  0  0  0  0  0  0
  188.1410  176.5810  146.4340 C   0  0  0  0  0  3  0  0  0  0  0  0
  188.2330  175.5060  147.3190 C   0  0  0  0  0  3  0  0  0  0  0  0
  187.6070  177.7170  143.7500 N   0  0  0  0  0  2  0  0  0  0  0  0
  191.7200  175.2000  141.9720 C   0  0  1  0  0  3  0  0  0  0  0  0
  189.3330  175.3050  142.6210 C   0  0  2  0  0  3  0  0  0  0  0  0
  192.8490  174.8880  142.9340 C   0  0  2  0  0  3  0  0  0  0  0  0
  191.6150  173.0080  140.6470 C   0  0  0  0  0  1  0  0  0  0  0  0
  191.2300  176.0160  144.2220 C   0  0  1  0  0  3  0  0  0  0  0  0
  1 21  1  0  0  0  0
  3 17  2  0  0  0  0
  4 22  1  0  0  0  0
  5 17  1  0  0  0  0
  5 24  1  0  0  0  0
  6  1  1  0  0  0  0
  8  7  2  0  0  0  0
  8  2  2  0  0  0  0
  9 18  1  6  0  0  0
  9 14  1  0  0  0  0
 10  8  1  1  0  0  0
 11 15  2  0  0  0  0
 12 28  1  0  0  0  0
 13 26  1  0  0  0  0
 13  9  1  0  0  0  0
 14  8  1  0  0  0  0
 15 23  1  0  0  0  0
 16  1  2  0  0  0  0
 16 20  1  0  0  0  0
 17 25  1  0  0  0  0
 19 25  1  0  0  0  0
 19 15  1  0  0  0  0
 20  4  2  0  0  0  0
 21 22  2  0  0  0  0
 23  6  1  0  0  0  0
 24 12  1  0  0  0  0
 24 26  1  0  0  0  0
 25 12  1  0  0  0  0
 26 10  1  0  0  0  0
 27  5  1  0  0  0  0
 28 10  1  0  0  0  0
 28 16  1  0  0  0  0
M  END
>  <MODEL>
2

>  <REMARK>
 VINA RESULT:      -8.0      2.257      2.744
  Name = 
  0 active torsions:
  status: ('A' for Active; 'I' for Inactive)
                            x       y       z     vdW  Elec       q    Type
                         _______ _______ _______ _____ _____    ______ ____

>  <TORSDO>
F 0

$$$$
=
 OpenBabel11112417343D

 28 32  0  0  1  0  0  0  0  0999 V2000
  188.4840  175.7350  145.9270 C   0  0  0  0  0  0  0  0  0  0  0  0
  187.1030  174.5880  142.3290 O   0  0  0  0  0  0  0  0  0  0  0  0
  193.2120  177.5890  144.5470 O   0  0  0  0  0  0  0  0  0  0  0  0
  187.3770  177.8800  144.4990 C   0  0  0  0  0  3  0  0  0  0  0  0
  192.7550  175.8090  143.0840 N   0  0  0  0  0  0  0  0  0  0  0  0
  189.1270  174.6610  146.7540 C   0  0  0  0  0  2  0  0  0  0  0  0
  188.1430  175.3980  140.2700 O   0  0  0  0  0  0  0  0  0  0  0  0
  188.3440  174.5330  141.4820 S   0  0  0  0  0  0  0  0  0  0  0  0
  189.9370  172.8240  140.4320 C   0  0  2  0  0  3  0  0  0  0  0  0
  189.7310  175.1250  142.3750 N   0  0  2  0  0  0  0  0  0  0  0  0
  191.7610  176.5170  148.5870 N   0  0  0  0  0  2  0  0  0  0  0  0
  191.0500  174.7290  144.3540 C   0  0  1  0  0  3  0  0  0  0  0  0
  190.9290  173.0510  141.5490 C   0  0  0  0  0  2  0  0  0  0  0  0
  188.5940  172.9000  140.9730 N   0  0  0  0  0  2  0  0  0  0  0  0
  191.2450  175.8300  147.6250 C   0  0  0  0  0  0  0  0  0  0  0  0
  188.7540  175.8690  144.5450 C   0  0  0  0  0  0  0  0  0  0  0  0
  192.5700  176.5400  144.2750 C   0  0  0  0  0  0  0  0  0  0  0  0
  190.1570  171.4480  139.8410 C   0  0  0  0  0  1  0  0  0  0  0  0
  192.1190  175.4770  146.4600 C   0  0  0  0  0  2  0  0  0  0  0  0
  188.2040  176.9620  143.8510 C   0  0  0  0  0  3  0  0  0  0  0  0
  187.6430  176.6560  146.5650 C   0  0  0  0  0  3  0  0  0  0  0  0
  187.0880  177.7220  145.8540 C   0  0  0  0  0  3  0  0  0  0  0  0
  189.9430  175.2590  147.8060 N   0  0  0  0  0  2  0  0  0  0  0  0
  191.9500  174.6030  143.1210 C   0  0  1  0  0  3  0  0  0  0  0  0
  191.5280  175.9600  145.1480 C   0  0  2  0  0  3  0  0  0  0  0  0
  191.0100  174.5340  141.9340 C   0  0  2  0  0  3  0  0  0  0  0  0
  193.8370  176.0340  142.1410 C   0  0  0  0  0  1  0  0  0  0  0  0
  189.6190  174.8510  143.8100 C   0  0  1  0  0  3  0  0  0  0  0  0
  1 21  1  0  0  0  0
  1  6  1  0  0  0  0
  4 22  1  0  0  0  0
  5 24  1  0  0  0  0
  5 17  1  0  0  0  0
  6 23  1  0  0  0  0
  7  8  2  0  0  0  0
  8  2  2  0  0  0  0
  9 18  1  1  0  0  0
  9 14  1  0  0  0  0
  9 13  1  0  0  0  0
 10  8  1  6  0  0  0
 10 28  1  0  0  0  0
 12 25  1  0  0  0  0
 13 26  1  0  0  0  0
 14  8  1  0  0  0  0
 15 23  1  0  0  0  0
 15 11  2  0  0  0  0
 16  1  2  0  0  0  0
 17  3  2  0  0  0  0
 17 25  1  0  0  0  0
 19 15  1  0  0  0  0
 20  4  2  0  0  0  0
 20 16  1  0  0  0  0
 22 21  2  0  0  0  0
 24 12  1  0  0  0  0
 25 19  1  0  0  0  0
 26 10  1  0  0  0  0
 26 24  1  0  0  0  0
 27  5  1  0  0  0  0
 28 12  1  0  0  0  0
 28 16  1  0  0  0  0
M  END
>  <MODEL>
3

>  <REMARK>
 VINA RESULT:      -7.7      2.613      5.506
  Name = 
  0 active torsions:
  status: ('A' for Active; 'I' for Inactive)
                            x       y       z     vdW  Elec       q    Type
                         _______ _______ _______ _____ _____    ______ ____

>  <TORSDO>
F 0

$$$$
=
 OpenBabel11112417343D

 28 32  0  0  1  0  0  0  0  0999 V2000
  190.4520  177.2480  144.7400 C   0  0  0  0  0  0  0  0  0  0  0  0
  194.3610  177.2560  145.6820 O   0  0  0  0  0  0  0  0  0  0  0  0
  189.9070  172.2700  143.1230 O   0  0  0  0  0  0  0  0  0  0  0  0
  190.9100  176.2210  147.3080 C   0  0  0  0  0  3  0  0  0  0  0  0
  192.0820  172.9200  142.5190 N   0  0  0  0  0  0  0  0  0  0  0  0
  190.1090  177.7500  143.3680 C   0  0  0  0  0  2  0  0  0  0  0  0
  195.5780  175.1600  145.9990 O   0  0  0  0  0  0  0  0  0  0  0  0
  194.8880  176.0310  144.9880 S   0  0  0  0  0  0  0  0  0  0  0  0
  196.2870  175.3730  142.9470 C   0  0  2  0  0  3  0  0  0  0  0  0
  193.5800  175.1210  144.2580 N   0  0  2  0  0  0  0  0  0  0  0  0
  187.1680  175.6820  142.4610 N   0  0  0  0  0  2  0  0  0  0  0  0
  191.7970  175.2840  142.6430 C   0  0  1  0  0  3  0  0  0  0  0  0
  195.0260  175.0430  142.1800 C   0  0  0  0  0  2  0  0  0  0  0  0
  196.0340  176.5230  143.7930 N   0  0  0  0  0  2  0  0  0  0  0  0
  188.4170  175.9960  142.5480 C   0  0  0  0  0  0  0  0  0  0  0  0
  191.5380  176.3690  144.9590 C   0  0  0  0  0  0  0  0  0  0  0  0
  190.7460  173.1800  142.8900 C   0  0  0  0  0  0  0  0  0  0  0  0
  197.3910  175.7090  141.9680 C   0  0  0  0  0  1  0  0  0  0  0  0
  189.4260  175.0530  141.9660 C   0  0  0  0  0  2  0  0  0  0  0  0
  191.7400  175.8510  146.2500 C   0  0  0  0  0  3  0  0  0  0  0  0
  189.6320  177.6220  145.8130 C   0  0  0  0  0  3  0  0  0  0  0  0
  189.8610  177.1150  147.0930 C   0  0  0  0  0  3  0  0  0  0  0  0
  188.7670  177.3130  142.9950 N   0  0  0  0  0  2  0  0  0  0  0  0
  192.7560  174.1680  142.2170 C   0  0  1  0  0  3  0  0  0  0  0  0
  190.4520  174.6230  142.9990 C   0  0  2  0  0  3  0  0  0  0  0  0
  193.9940  174.3430  143.0740 C   0  0  2  0  0  3  0  0  0  0  0  0
  192.5930  171.6110  142.1500 C   0  0  0  0  0  1  0  0  0  0  0  0
  192.4820  175.9880  143.8230 C   0  0  1  0  0  3  0  0  0  0  0  0
  1 16  2  0  0  0  0
  1 21  1  0  0  0  0
  5 17  1  0  0  0  0
  6  1  1  0  0  0  0
  8  2  2  0  0  0  0
  8  7  2  0  0  0  0
  9 18  1  6  0  0  0
  9 14  1  0  0  0  0
 10  8  1  6  0  0  0
 11 15  2  0  0  0  0
 12 25  1  0  0  0  0
 12 28  1  0  0  0  0
 13  9  1  0  0  0  0
 13 26  1  0  0  0  0
 14  8  1  0  0  0  0
 15 23  1  0  0  0  0
 16 20  1  0  0  0  0
 17 25  1  0  0  0  0
 17  3  2  0  0  0  0
 19 15  1  0  0  0  0
 19 25  1  0  0  0  0
 20  4  2  0  0  0  0
 21 22  2  0  0  0  0
 22  4  1  0  0  0  0
 23  6  1  0  0  0  0
 24  5  1  0  0  0  0
 24 12  1  0  0  0  0
 24 26  1  0  0  0  0
 26 10  1  0  0  0  0
 27  5  1  0  0  0  0
 28 10  1  0  0  0  0
 28 16  1  0  0  0  0
M  END
>  <MODEL>
4

>  <REMARK>
 VINA RESULT:      -7.5      2.975      3.765
  Name = 
  0 active torsions:
  status: ('A' for Active; 'I' for Inactive)
                            x       y       z     vdW  Elec       q    Type
                         _______ _______ _______ _____ _____    ______ ____

>  <TORSDO>
F 0

$$$$
=
 OpenBabel11112417343D

 28 32  0  0  1  0  0  0  0  0999 V2000
  188.7060  175.8770  145.4510 C   0  0  0  0  0  0  0  0  0  0  0  0
  187.9030  173.9190  142.0320 O   0  0  0  0  0  0  0  0  0  0  0  0
  193.8120  176.9270  144.7310 O   0  0  0  0  0  0  0  0  0  0  0  0
  188.1840  177.6410  143.3340 C   0  0  0  0  0  3  0  0  0  0  0  0
  193.4150  174.8610  143.6850 N   0  0  0  0  0  0  0  0  0  0  0  0
  189.0320  175.0170  146.6360 C   0  0  0  0  0  2  0  0  0  0  0  0
  189.4160  174.0680  140.1170 O   0  0  0  0  0  0  0  0  0  0  0  0
  189.2650  173.5450  141.5180 S   0  0  0  0  0  0  0  0  0  0  0  0
  190.7930  171.5010  141.2940 C   0  0  2  0  0  3  0  0  0  0  0  0
  190.5200  174.2460  142.5200 N   0  0  2  0  0  0  0  0  0  0  0  0
  191.4840  177.0880  148.4900 N   0  0  0  0  0  2  0  0  0  0  0  0
  191.3720  174.2940  144.7760 C   0  0  1  0  0  3  0  0  0  0  0  0
  191.5730  171.9420  142.5120 C   0  0  0  0  0  2  0  0  0  0  0  0
  189.3930  171.8220  141.4920 N   0  0  0  0  0  2  0  0  0  0  0  0
  191.0770  176.2100  147.6370 C   0  0  0  0  0  0  0  0  0  0  0  0
  189.2510  175.6160  144.1720 C   0  0  0  0  0  0  0  0  0  0  0  0
  193.1020  175.8970  144.5910 C   0  0  0  0  0  0  0  0  0  0  0  0
  190.9400  170.0050  141.1220 C   0  0  0  0  0  1  0  0  0  0  0  0
  192.1050  175.4930  146.8150 C   0  0  0  0  0  2  0  0  0  0  0  0
  188.9930  176.5220  143.1290 C   0  0  0  0  0  3  0  0  0  0  0  0
  187.8850  176.9970  145.6430 C   0  0  0  0  0  3  0  0  0  0  0  0
  187.6210  177.8730  144.5890 C   0  0  0  0  0  3  0  0  0  0  0  0
  189.7010  175.8100  147.6630 N   0  0  0  0  0  2  0  0  0  0  0  0
  192.4670  173.7740  143.8390 C   0  0  1  0  0  3  0  0  0  0  0  0
  191.8450  175.6520  145.3280 C   0  0  2  0  0  3  0  0  0  0  0  0
  191.7720  173.4630  142.5290 C   0  0  2  0  0  3  0  0  0  0  0  0
  194.6780  174.7430  142.9770 C   0  0  0  0  0  1  0  0  0  0  0  0
  190.1000  174.3750  143.9170 C   0  0  1  0  0  3  0  0  0  0  0  0
  1 21  1  0  0  0  0
  1  6  1  0  0  0  0
  4 22  1  0  0  0  0
  5 24  1  0  0  0  0
  5 17  1  0  0  0  0
  6 23  1  0  0  0  0
  7  8  2  0  0  0  0
  8  2  2  0  0  0  0
  9 18  1  1  0  0  0
  9 14  1  0  0  0  0
  9 13  1  0  0  0  0
 10  8  1  6  0  0  0
 10 26  1  0  0  0  0
 10 28  1  0  0  0  0
 12 25  1  0  0  0  0
 13 26  1  0  0  0  0
 14  8  1  0  0  0  0
 15 23  1  0  0  0  0
 15 11  2  0  0  0  0
 16  1  2  0  0  0  0
 17  3  2  0  0  0  0
 17 25  1  0  0  0  0
 19 15  1  0  0  0  0
 20  4  2  0  0  0  0
 20 16  1  0  0  0  0
 22 21  2  0  0  0  0
 24 12  1  0  0  0  0
 25 19  1  0  0  0  0
 26 24  1  0  0  0  0
 27  5  1  0  0  0  0
 28 16  1  0  0  0  0
 28 12  1  0  0  0  0
M  END
>  <MODEL>
5

>  <REMARK>
 VINA RESULT:      -7.5      2.759      5.555
  Name = 
  0 active torsions:
  status: ('A' for Active; 'I' for Inactive)
                            x       y       z     vdW  Elec       q    Type
                         _______ _______ _______ _____ _____    ______ ____

>  <TORSDO>
F 0

$$$$
=
 OpenBabel11112417343D

 28 32  0  0  1  0  0  0  0  0999 V2000
  194.7250  175.8920  144.3020 C   0  0  0  0  0  0  0  0  0  0  0  0
  191.6390  178.3720  143.5950 O   0  0  0  0  0  0  0  0  0  0  0  0
  192.4210  171.2610  143.3310 O   0  0  0  0  0  0  0  0  0  0  0  0
  194.4390  176.4530  141.5700 C   0  0  0  0  0  3  0  0  0  0  0  0
  190.7520  172.6450  144.2360 N   0  0  0  0  0  0  0  0  0  0  0  0
  194.9370  175.5050  145.7360 C   0  0  0  0  0  2  0  0  0  0  0  0
  189.6770  177.6090  142.3530 O   0  0  0  0  0  0  0  0  0  0  0  0
  190.4450  177.4600  143.6360 S   0  0  0  0  0  0  0  0  0  0  0  0
  188.4720  176.8680  145.1580 C   0  0  2  0  0  3  0  0  0  0  0  0
  190.9450  175.7900  143.8040 N   0  0  2  0  0  0  0  0  0  0  0  0
  196.2220  172.0380  145.4570 N   0  0  0  0  0  2  0  0  0  0  0  0
  192.1570  174.2850  145.2470 C   0  0  1  0  0  3  0  0  0  0  0  0
  189.2020  175.6330  145.6350 C   0  0  0  0  0  2  0  0  0  0  0  0
  189.4340  177.9330  144.9550 N   0  0  0  0  0  2  0  0  0  0  0  0
  195.3370  172.9710  145.5690 C   0  0  0  0  0  0  0  0  0  0  0  0
  193.4340  175.9140  143.7230 C   0  0  0  0  0  0  0  0  0  0  0  0
  192.0930  172.2800  143.9950 C   0  0  0  0  0  0  0  0  0  0  0  0
  187.4720  177.2940  146.2110 C   0  0  0  0  0  1  0  0  0  0  0  0
  193.8950  172.5700  145.6600 C   0  0  0  0  0  2  0  0  0  0  0  0
  193.3140  176.1800  142.3480 C   0  0  0  0  0  3  0  0  0  0  0  0
  195.8460  176.1800  143.5130 C   0  0  0  0  0  3  0  0  0  0  0  0
  195.7050  176.4630  142.1540 C   0  0  0  0  0  3  0  0  0  0  0  0
  195.7760  174.3130  145.8150 N   0  0  0  0  0  2  0  0  0  0  0  0
  190.7110  173.7960  145.1170 C   0  0  1  0  0  3  0  0  0  0  0  0
  193.0600  173.2320  144.5790 C   0  0  2  0  0  3  0  0  0  0  0  0
  189.9460  174.9420  144.4860 C   0  0  2  0  0  3  0  0  0  0  0  0
  189.6060  171.7990  143.9510 C   0  0  0  0  0  1  0  0  0  0  0  0
  192.1890  175.6620  144.5670 C   0  0  1  0  0  3  0  0  0  0  0  0
  1  6  1  0  0  0  0
  2  8  2  0  0  0  0
  3 17  2  0  0  0  0
  4 22  2  0  0  0  0
  4 20  1  0  0  0  0
  5 24  1  0  0  0  0
  6 23  1  0  0  0  0
  7  8  2  0  0  0  0
  8 14  1  0  0  0  0
  9 13  1  0  0  0  0
  9 18  1  1  0  0  0
 10  8  1  1  0  0  0
 10 26  1  0  0  0  0
 10 28  1  0  0  0  0
 11 15  2  0  0  0  0
 14  9  1  0  0  0  0
 15 19  1  0  0  0  0
 15 23  1  0  0  0  0
 16  1  1  0  0  0  0
 16 28  1  0  0  0  0
 17  5  1  0  0  0  0
 17 25  1  0  0  0  0
 20 16  2  0  0  0  0
 21  1  2  0  0  0  0
 22 21  1  0  0  0  0
 24 12  1  0  0  0  0
 25 12  1  0  0  0  0
 25 19  1  0  0  0  0
 26 24  1  0  0  0  0
 26 13  1  0  0  0  0
 27  5  1  0  0  0  0
 28 12  1  0  0  0  0
M  END
>  <MODEL>
6

>  <REMARK>
 VINA RESULT:      -7.3      2.990      6.771
  Name = 
  0 active torsions:
  status: ('A' for Active; 'I' for Inactive)
                            x       y       z     vdW  Elec       q    Type
                         _______ _______ _______ _____ _____    ______ ____

>  <TORSDO>
F 0

$$$$
=
 OpenBabel11112417343D

 28 32  0  0  1  0  0  0  0  0999 V2000
  186.7950  176.8010  143.5610 C   0  0  0  0  0  0  0  0  0  0  0  0
  189.4180  174.6840  141.3680 O   0  0  0  0  0  0  0  0  0  0  0  0
  189.9100  178.2910  147.5320 O   0  0  0  0  0  0  0  0  0  0  0  0
  188.3460  178.4500  141.9060 C   0  0  0  0  0  3  0  0  0  0  0  0
  190.6680  176.1690  146.8670 N   0  0  0  0  0  0  0  0  0  0  0  0
  185.9410  176.0080  144.5050 C   0  0  0  0  0  2  0  0  0  0  0  0
  191.8250  174.9160  141.7240 O   0  0  0  0  0  0  0  0  0  0  0  0
  190.5430  174.4210  142.3310 S   0  0  0  0  0  0  0  0  0  0  0  0
  191.5300  172.5190  143.7330 C   0  0  2  0  0  3  0  0  0  0  0  0
  190.2730  175.2610  143.8440 N   0  0  2  0  0  0  0  0  0  0  0  0
  185.4900  178.3450  147.3480 N   0  0  0  0  0  2  0  0  0  0  0  0
  188.7260  175.4490  145.6850 C   0  0  1  0  0  3  0  0  0  0  0  0
  190.8440  173.0630  144.9660 C   0  0  0  0  0  2  0  0  0  0  0  0
  190.6630  172.7170  142.5880 N   0  0  0  0  0  2  0  0  0  0  0  0
  186.0510  177.4100  146.6570 C   0  0  0  0  0  0  0  0  0  0  0  0
  188.1820  176.5550  143.4290 C   0  0  0  0  0  0  0  0  0  0  0  0
  189.7050  177.1960  146.9440 C   0  0  0  0  0  0  0  0  0  0  0  0
  191.7820  171.0380  143.9160 C   0  0  0  0  0  1  0  0  0  0  0  0
  187.2860  176.7660  147.2110 C   0  0  0  0  0  2  0  0  0  0  0  0
  188.9450  177.4050  142.6090 C   0  0  0  0  0  3  0  0  0  0  0  0
  186.2020  177.8470  142.8400 C   0  0  0  0  0  3  0  0  0  0  0  0
  186.9720  178.6660  142.0130 C   0  0  0  0  0  3  0  0  0  0  0  0
  185.3600  176.8870  145.5150 N   0  0  0  0  0  2  0  0  0  0  0  0
  190.0900  175.0050  146.2220 C   0  0  1  0  0  3  0  0  0  0  0  0
  188.4500  176.8590  146.2410 C   0  0  2  0  0  3  0  0  0  0  0  0
  190.8960  174.5950  145.0050 C   0  0  2  0  0  3  0  0  0  0  0  0
  191.9080  176.1460  147.6240 C   0  0  0  0  0  1  0  0  0  0  0  0
  188.8470  175.3900  144.1550 C   0  0  1  0  0  3  0  0  0  0  0  0
  1  6  1  0  0  0  0
  2  8  2  0  0  0  0
  4 22  2  0  0  0  0
  4 20  1  0  0  0  0
  5 17  1  0  0  0  0
  5 27  1  0  0  0  0
  6 23  1  0  0  0  0
  7  8  2  0  0  0  0
  8 14  1  0  0  0  0
  9 18  1  1  0  0  0
  9 13  1  0  0  0  0
 10  8  1  6  0  0  0
 10 28  1  0  0  0  0
 10 26  1  0  0  0  0
 12 24  1  0  0  0  0
 12 25  1  0  0  0  0
 13 26  1  0  0  0  0
 14  9  1  0  0  0  0
 15 19  1  0  0  0  0
 15 11  2  0  0  0  0
 16  1  1  0  0  0  0
 16 28  1  0  0  0  0
 17  3  2  0  0  0  0
 20 16  2  0  0  0  0
 21  1  2  0  0  0  0
 22 21  1  0  0  0  0
 23 15  1  0  0  0  0
 24  5  1  0  0  0  0
 25 17  1  0  0  0  0
 25 19  1  0  0  0  0
 26 24  1  0  0  0  0
 28 12  1  0  0  0  0
M  END
>  <MODEL>
7

>  <REMARK>
 VINA RESULT:      -7.2      2.410      4.690
  Name = 
  0 active torsions:
  status: ('A' for Active; 'I' for Inactive)
                            x       y       z     vdW  Elec       q    Type
                         _______ _______ _______ _____ _____    ______ ____

>  <TORSDO>
F 0

$$$$
=
 OpenBabel11112417343D

 28 32  0  0  1  0  0  0  0  0999 V2000
  191.1340  176.4550  143.1880 C   0  0  0  0  0  0  0  0  0  0  0  0
  187.7340  177.6570  141.4090 O   0  0  0  0  0  0  0  0  0  0  0  0
  189.1730  174.3680  147.6030 O   0  0  0  0  0  0  0  0  0  0  0  0
  189.8820  174.3630  141.8040 C   0  0  0  0  0  3  0  0  0  0  0  0
  187.7640  176.1640  147.0460 N   0  0  0  0  0  0  0  0  0  0  0  0
  191.8610  177.5000  143.9840 C   0  0  0  0  0  2  0  0  0  0  0  0
  185.5660  176.7910  142.1340 O   0  0  0  0  0  0  0  0  0  0  0  0
  186.7340  177.6490  142.5310 S   0  0  0  0  0  0  0  0  0  0  0  0
  185.4700  179.2740  144.0550 C   0  0  2  0  0  3  0  0  0  0  0  0
  187.4450  176.9930  143.9920 N   0  0  2  0  0  0  0  0  0  0  0  0
  193.3560  175.5230  146.7410 N   0  0  0  0  0  2  0  0  0  0  0  0
  189.2340  177.3290  145.5740 C   0  0  1  0  0  3  0  0  0  0  0  0
  186.4520  179.0020  145.1710 C   0  0  0  0  0  2  0  0  0  0  0  0
  186.1810  179.2650  142.7910 N   0  0  0  0  0  2  0  0  0  0  0  0
  192.4620  176.2310  146.1380 C   0  0  0  0  0  0  0  0  0  0  0  0
  189.7300  176.3040  143.2700 C   0  0  0  0  0  0  0  0  0  0  0  0
  188.9760  175.4460  146.9820 C   0  0  0  0  0  0  0  0  0  0  0  0
  184.8430  180.6360  144.2630 C   0  0  0  0  0  1  0  0  0  0  0  0
  191.1900  176.5370  146.8700 C   0  0  0  0  0  2  0  0  0  0  0  0
  189.1240  175.2370  142.5830 C   0  0  0  0  0  3  0  0  0  0  0  0
  191.8840  175.5790  142.3930 C   0  0  0  0  0  3  0  0  0  0  0  0
  191.2620  174.5390  141.7000 C   0  0  0  0  0  3  0  0  0  0  0  0
  192.8050  176.8660  144.8990 N   0  0  0  0  0  2  0  0  0  0  0  0
  187.8930  177.4080  146.3120 C   0  0  1  0  0  3  0  0  0  0  0  0
  189.9710  176.0790  146.0910 C   0  0  2  0  0  3  0  0  0  0  0  0
  186.8370  177.5190  145.2300 C   0  0  2  0  0  3  0  0  0  0  0  0
  186.6910  175.8830  147.9840 C   0  0  0  0  0  1  0  0  0  0  0  0
  188.8800  177.2760  144.0800 C   0  0  1  0  0  3  0  0  0  0  0  0
  1 16  1  0  0  0  0
  1  6  1  0  0  0  0
  2  8  2  0  0  0  0
  4 20  1  0  0  0  0
  5 27  1  0  0  0  0
  6 23  1  0  0  0  0
  7  8  2  0  0  0  0
  8 14  1  0  0  0  0
  9 18  1  1  0  0  0
  9 13  1  0  0  0  0
 10  8  1  6  0  0  0
 10 28  1  0  0  0  0
 10 26  1  0  0  0  0
 12 25  1  0  0  0  0
 12 24  1  0  0  0  0
 13 26  1  0  0  0  0
 14  9  1  0  0  0  0
 15 11  2  0  0  0  0
 15 19  1  0  0  0  0
 16 28  1  0  0  0  0
 17  5  1  0  0  0  0
 17  3  2  0  0  0  0
 20 16  2  0  0  0  0
 21  1  2  0  0  0  0
 22  4  2  0  0  0  0
 22 21  1  0  0  0  0
 23 15  1  0  0  0  0
 24  5  1  0  0  0  0
 25 19  1  0  0  0  0
 25 17  1  0  0  0  0
 26 24  1  0  0  0  0
 28 12  1  0  0  0  0
M  END
>  <MODEL>
8

>  <REMARK>
 VINA RESULT:      -7.2      2.356      6.312
  Name = 
  0 active torsions:
  status: ('A' for Active; 'I' for Inactive)
                            x       y       z     vdW  Elec       q    Type
                         _______ _______ _______ _____ _____    ______ ____

>  <TORSDO>
F 0

$$$$
=
 OpenBabel11112417343D

 28 32  0  0  1  0  0  0  0  0999 V2000
  192.7110  174.5450  142.9790 C   0  0  0  0  0  0  0  0  0  0  0  0
  189.4720  174.1260  140.6320 O   0  0  0  0  0  0  0  0  0  0  0  0
  190.3780  175.2890  147.6380 O   0  0  0  0  0  0  0  0  0  0  0  0
  191.7030  171.9290  143.0450 C   0  0  0  0  0  3  0  0  0  0  0  0
  188.9630  176.2610  146.0350 N   0  0  0  0  0  0  0  0  0  0  0  0
  193.3030  175.9220  143.0360 C   0  0  0  0  0  2  0  0  0  0  0  0
  187.2780  173.6480  141.5980 O   0  0  0  0  0  0  0  0  0  0  0  0
  188.3590  174.6850  141.4740 S   0  0  0  0  0  0  0  0  0  0  0  0
  186.8720  176.7630  141.6460 C   0  0  2  0  0  3  0  0  0  0  0  0
  188.9370  175.0910  143.0770 N   0  0  2  0  0  0  0  0  0  0  0  0
  194.5770  176.1130  146.5130 N   0  0  0  0  0  2  0  0  0  0  0  0
  190.5310  176.4690  144.2510 C   0  0  1  0  0  3  0  0  0  0  0  0
  187.7400  177.3000  142.7610 C   0  0  0  0  0  2  0  0  0  0  0  0
  187.7140  176.0790  140.6840 N   0  0  0  0  0  2  0  0  0  0  0  0
  193.7240  176.2370  145.5530 C   0  0  0  0  0  0  0  0  0  0  0  0
  191.3140  174.3350  143.0500 C   0  0  0  0  0  0  0  0  0  0  0  0
  190.2040  175.7670  146.4850 C   0  0  0  0  0  0  0  0  0  0  0  0
  186.1700  177.9150  140.9610 C   0  0  0  0  0  1  0  0  0  0  0  0
  192.3690  176.7910  145.8790 C   0  0  0  0  0  2  0  0  0  0  0  0
  190.8290  173.0160  143.1000 C   0  0  0  0  0  3  0  0  0  0  0  0
  193.5780  173.4470  142.9120 C   0  0  0  0  0  3  0  0  0  0  0  0
  193.0770  172.1440  142.9410 C   0  0  0  0  0  3  0  0  0  0  0  0
  194.1700  176.0480  144.2040 N   0  0  0  0  0  2  0  0  0  0  0  0
  189.1170  176.8370  144.7120 C   0  0  1  0  0  3  0  0  0  0  0  0
  191.2600  175.8450  145.4550 C   0  0  2  0  0  3  0  0  0  0  0  0
  188.1790  176.1840  143.7170 C   0  0  2  0  0  3  0  0  0  0  0  0
  187.8090  176.4860  146.8880 C   0  0  0  0  0  1  0  0  0  0  0  0
  190.3410  175.5100  143.0660 C   0  0  1  0  0  3  0  0  0  0  0  0
  1  6  1  0  0  0  0
  1 16  1  0  0  0  0
  2  8  2  0  0  0  0
  4 20  1  0  0  0  0
  5 17  1  0  0  0  0
  5 27  1  0  0  0  0
  6 23  1  0  0  0  0
  8  7  2  0  0  0  0
  9 18  1  6  0  0  0
  9 13  1  0  0  0  0
 10  8  1  6  0  0  0
 10 26  1  0  0  0  0
 12 24  1  0  0  0  0
 12 25  1  0  0  0  0
 13 26  1  0  0  0  0
 14  8  1  0  0  0  0
 14  9  1  0  0  0  0
 15 19  1  0  0  0  0
 15 11  2  0  0  0  0
 16 28  1  0  0  0  0
 16 20  2  0  0  0  0
 17  3  2  0  0  0  0
 21 22  1  0  0  0  0
 21  1  2  0  0  0  0
 22  4  2  0  0  0  0
 23 15  1  0  0  0  0
 24  5  1  0  0  0  0
 25 19  1  0  0  0  0
 25 17  1  0  0  0  0
 26 24  1  0  0  0  0
 28 10  1  0  0  0  0
 28 12  1  0  0  0  0
M  END
>  <MODEL>
9

>  <REMARK>
 VINA RESULT:      -7.1      2.056      6.649
  Name = 
  0 active torsions:
  status: ('A' for Active; 'I' for Inactive)
                            x       y       z     vdW  Elec       q    Type
                         _______ _______ _______ _____ _____    ______ ____

>  <TORSDO>
F 0

$$$$
