=
 OpenBabel11112417423D

 28 32  0  0  1  0  0  0  0  0999 V2000
  186.7820  178.0120  144.6310 C   0  0  1  0  0  3  0  0  0  0  0  0
  190.8220  177.5020  145.3140 F   0  0  0  0  0  0  0  0  0  0  0  0
  187.8850  173.6580  141.1530 O   0  0  0  0  0  0  0  0  0  0  0  0
  186.1130  177.7480  147.3880 C   0  0  0  0  0  3  0  0  0  0  0  0
  189.8990  174.1180  142.4060 C   0  0  2  0  0  3  0  0  0  0  0  0
  187.4910  178.6220  143.5130 N   0  0  0  0  0  2  0  0  0  0  0  0
  190.1160  177.2630  147.5530 C   0  0  0  0  0  1  0  0  0  0  0  0
  190.6180  176.5590  146.3080 C   0  0  1  0  0  0  0  0  0  0  0  0
  192.3900  174.8000  145.9530 C   0  0  0  0  0  0  0  0  0  0  0  0
  189.6010  175.4740  145.8440 C   0  0  2  0  0  3  0  0  0  0  0  0
  186.0770  177.3640  140.2480 C   0  0  0  0  0  1  0  0  0  0  0  0
  188.8750  176.0620  143.5700 C   0  0  1  0  0  3  0  0  0  0  0  0
  191.6200  174.1300  145.1540 N   0  0  0  0  0  0  0  0  0  0  0  0
  191.8990  175.9500  146.6380 N   0  0  0  0  0  2  0  0  0  0  0  0
  186.9340  177.3330  141.4950 C   0  0  2  0  0  3  0  0  0  0  0  0
  187.7670  177.3030  145.5910 C   0  0  1  0  0  3  0  0  0  0  0  0
  188.4970  174.3520  142.0090 C   0  0  0  0  0  0  0  0  0  0  0  0
  193.7700  174.3200  146.2200 C   0  0  0  0  0  1  0  0  0  0  0  0
  186.6500  176.0520  142.2640 C   0  0  0  0  0  2  0  0  0  0  0  0
  187.0750  176.9660  146.8910 C   0  0  0  0  0  3  0  0  0  0  0  0
  185.9840  179.0710  145.3500 C   0  0  0  0  0  3  0  0  0  0  0  0
  185.6430  178.9190  146.6320 C   0  0  0  0  0  3  0  0  0  0  0  0
  186.6120  178.5520  142.3500 C   0  0  0  0  0  2  0  0  0  0  0  0
  190.1340  175.1740  143.4900 C   0  0  1  0  0  3  0  0  0  0  0  0
  187.8980  175.4350  142.6900 N   0  0  0  0  0  0  0  0  0  0  0  0
  190.2390  174.5050  144.8460 C   0  0  2  0  0  3  0  0  0  0  0  0
  190.8210  174.3940  141.2330 C   0  0  0  0  0  1  0  0  0  0  0  0
  188.4070  176.0150  145.0300 C   0  0  2  0  0  3  0  0  0  0  0  0
  1 21  1  1  0  0  0
  1 16  1  0  0  0  0
  2  8  1  0  0  0  0
  3 17  2  0  0  0  0
  5 27  1  6  0  0  0
  5 24  1  0  0  0  0
  6  1  1  0  0  0  0
  8 14  1  0  0  0  0
  8  7  1  1  0  0  0
  9 18  1  0  0  0  0
  9 14  1  0  0  0  0
 10  8  1  0  0  0  0
 11 15  1  0  0  0  0
 12 28  1  0  0  0  0
 13  9  2  0  0  0  0
 15 19  1  0  0  0  0
 15 23  1  0  0  0  0
 16 20  1  0  0  0  0
 17  5  1  0  0  0  0
 17 25  1  0  0  0  0
 19 25  1  0  0  0  0
 20  4  2  0  0  0  0
 21 22  2  0  0  0  0
 22  4  1  0  0  0  0
 23  6  1  0  0  0  0
 24 12  1  0  0  0  0
 24 26  1  0  0  0  0
 25 12  1  0  0  0  0
 26 13  1  0  0  0  0
 26 10  1  0  0  0  0
 28 16  1  0  0  0  0
 28 10  1  0  0  0  0
M  END
>  <MODEL>
1

>  <REMARK>
 VINA RESULT:      -8.8      0.000      0.000
  Name = 
  0 active torsions:
  status: ('A' for Active; 'I' for Inactive)
                            x       y       z     vdW  Elec       q    Type
                         _______ _______ _______ _____ _____    ______ ____

>  <TORSDO>
F 0

$$$$
=
 OpenBabel11112417423D

 28 32  0  0  1  0  0  0  0  0999 V2000
  190.2900  175.4200  143.9010 C   0  0  1  0  0  3  0  0  0  0  0  0
  187.9270  177.9340  141.6340 F   0  0  0  0  0  0  0  0  0  0  0  0
  186.3960  176.9380  147.7480 O   0  0  0  0  0  0  0  0  0  0  0  0
  190.0050  173.2420  142.0860 C   0  0  0  0  0  3  0  0  0  0  0  0
  185.7300  177.8820  145.6260 C   0  0  2  0  0  3  0  0  0  0  0  0
  190.6520  176.7870  144.2520 N   0  0  0  0  0  2  0  0  0  0  0  0
  187.7470  176.0350  140.2460 C   0  0  0  0  0  1  0  0  0  0  0  0
  187.0590  176.9200  141.2660 C   0  0  1  0  0  0  0  0  0  0  0  0
  184.7510  177.9330  141.3500 C   0  0  0  0  0  0  0  0  0  0  0  0
  186.6200  176.0850  142.5070 C   0  0  2  0  0  3  0  0  0  0  0  0
  190.6010  177.2160  148.0010 C   0  0  0  0  0  1  0  0  0  0  0  0
  187.7600  177.0260  144.4720 C   0  0  1  0  0  3  0  0  0  0  0  0
  184.6100  177.6060  142.5950 N   0  0  0  0  0  0  0  0  0  0  0  0
  185.8990  177.5150  140.6160 N   0  0  0  0  0  2  0  0  0  0  0  0
  190.0260  177.1370  146.6030 C   0  0  2  0  0  3  0  0  0  0  0  0
  189.0960  175.3970  142.9180 C   0  0  1  0  0  3  0  0  0  0  0  0
  186.6210  177.1190  146.5210 C   0  0  0  0  0  0  0  0  0  0  0  0
  183.6690  178.6790  140.6580 C   0  0  0  0  0  1  0  0  0  0  0  0
  188.9240  176.0890  146.5750 C   0  0  0  0  0  2  0  0  0  0  0  0
  188.9440  174.0210  142.3150 C   0  0  0  0  0  3  0  0  0  0  0  0
  191.4940  174.7220  143.3170 C   0  0  0  0  0  3  0  0  0  0  0  0
  191.3490  173.6780  142.4970 C   0  0  0  0  0  3  0  0  0  0  0  0
  191.1370  176.7710  145.6280 C   0  0  0  0  0  2  0  0  0  0  0  0
  186.4180  177.7560  144.2630 C   0  0  1  0  0  3  0  0  0  0  0  0
  187.7610  176.6020  145.8650 N   0  0  0  0  0  0  0  0  0  0  0  0
  185.6050  176.8510  143.3590 C   0  0  2  0  0  3  0  0  0  0  0  0
  185.7080  179.3410  146.0400 C   0  0  0  0  0  1  0  0  0  0  0  0
  187.7420  175.8140  143.5310 C   0  0  2  0  0  3  0  0  0  0  0  0
  1 21  1  6  0  0  0
  1  6  1  0  0  0  0
  4 20  2  0  0  0  0
  4 22  1  0  0  0  0
  5 27  1  1  0  0  0
  5 17  1  0  0  0  0
  6 23  1  0  0  0  0
  8  7  1  6  0  0  0
  8  2  1  0  0  0  0
  8 10  1  0  0  0  0
  9 13  2  0  0  0  0
 10 26  1  0  0  0  0
 10 28  1  0  0  0  0
 12 25  1  0  0  0  0
 13 26  1  0  0  0  0
 14  8  1  0  0  0  0
 14  9  1  0  0  0  0
 15 11  1  0  0  0  0
 16 28  1  0  0  0  0
 16  1  1  0  0  0  0
 17  3  2  0  0  0  0
 18  9  1  0  0  0  0
 19 15  1  0  0  0  0
 20 16  1  0  0  0  0
 22 21  2  0  0  0  0
 23 15  1  0  0  0  0
 24 12  1  0  0  0  0
 24  5  1  0  0  0  0
 25 17  1  0  0  0  0
 25 19  1  0  0  0  0
 26 24  1  0  0  0  0
 28 12  1  0  0  0  0
M  END
>  <MODEL>
2

>  <REMARK>
 VINA RESULT:      -8.7      2.371      6.665
  Name = 
  0 active torsions:
  status: ('A' for Active; 'I' for Inactive)
                            x       y       z     vdW  Elec       q    Type
                         _______ _______ _______ _____ _____    ______ ____

>  <TORSDO>
F 0

$$$$
=
 OpenBabel11112417423D

 28 32  0  0  1  0  0  0  0  0999 V2000
  190.6080  174.4180  142.0520 C   0  0  1  0  0  3  0  0  0  0  0  0
  188.7990  178.1190  142.3290 F   0  0  0  0  0  0  0  0  0  0  0  0
  189.6510  174.6940  147.6440 O   0  0  0  0  0  0  0  0  0  0  0  0
  188.7290  173.4580  140.1370 C   0  0  0  0  0  3  0  0  0  0  0  0
  188.6310  176.6370  146.6350 C   0  0  2  0  0  3  0  0  0  0  0  0
  191.6120  175.3550  142.5380 N   0  0  0  0  0  2  0  0  0  0  0  0
  187.2960  177.1770  140.7730 C   0  0  0  0  0  1  0  0  0  0  0  0
  187.5230  177.5950  142.2120 C   0  0  1  0  0  0  0  0  0  0  0  0
  186.1020  178.8890  143.8450 C   0  0  0  0  0  0  0  0  0  0  0  0
  187.3290  176.3820  143.1720 C   0  0  2  0  0  3  0  0  0  0  0  0
  193.2860  173.9700  145.6230 C   0  0  0  0  0  1  0  0  0  0  0  0
  189.4510  176.0370  144.3650 C   0  0  1  0  0  3  0  0  0  0  0  0
  186.3630  178.0510  144.7970 N   0  0  0  0  0  0  0  0  0  0  0  0
  186.5600  178.6450  142.5180 N   0  0  0  0  0  2  0  0  0  0  0  0
  192.2120  174.6760  144.8220 C   0  0  2  0  0  3  0  0  0  0  0  0
  189.2240  175.1010  141.9310 C   0  0  1  0  0  3  0  0  0  0  0  0
  189.4060  175.3810  146.6170 C   0  0  0  0  0  0  0  0  0  0  0  0
  185.2480  180.0730  144.1210 C   0  0  0  0  0  1  0  0  0  0  0  0
  190.8720  174.0090  145.0890 C   0  0  0  0  0  2  0  0  0  0  0  0
  188.2830  174.2320  141.1300 C   0  0  0  0  0  3  0  0  0  0  0  0
  191.0560  173.8520  140.7270 C   0  0  0  0  0  3  0  0  0  0  0  0
  190.1700  173.3700  139.8530 C   0  0  0  0  0  3  0  0  0  0  0  0
  192.5630  174.5960  143.3420 C   0  0  0  0  0  2  0  0  0  0  0  0
  188.5770  177.0320  145.1550 C   0  0  1  0  0  3  0  0  0  0  0  0
  189.8480  175.0170  145.3250 N   0  0  0  0  0  0  0  0  0  0  0  0
  187.1720  176.8430  144.6230 C   0  0  2  0  0  3  0  0  0  0  0  0
  189.3880  177.7010  147.4070 C   0  0  0  0  0  1  0  0  0  0  0  0
  188.5490  175.4430  143.2760 C   0  0  2  0  0  3  0  0  0  0  0  0
  1 21  1  6  0  0  0
  1  6  1  0  0  0  0
  4 20  2  0  0  0  0
  5 27  1  1  0  0  0
  6 23  1  0  0  0  0
  8  7  1  6  0  0  0
  8  2  1  0  0  0  0
  8 14  1  0  0  0  0
  8 10  1  0  0  0  0
  9 18  1  0  0  0  0
  9 13  2  0  0  0  0
 10 28  1  0  0  0  0
 10 26  1  0  0  0  0
 12 24  1  0  0  0  0
 12 25  1  0  0  0  0
 14  9  1  0  0  0  0
 15 19  1  0  0  0  0
 15 11  1  0  0  0  0
 16  1  1  0  0  0  0
 16 28  1  0  0  0  0
 17  5  1  0  0  0  0
 17  3  2  0  0  0  0
 19 25  1  0  0  0  0
 20 16  1  0  0  0  0
 22  4  1  0  0  0  0
 22 21  2  0  0  0  0
 23 15  1  0  0  0  0
 24  5  1  0  0  0  0
 25 17  1  0  0  0  0
 26 13  1  0  0  0  0
 26 24  1  0  0  0  0
 28 12  1  0  0  0  0
M  END
>  <MODEL>
3

>  <REMARK>
 VINA RESULT:      -8.7      2.113      6.423
  Name = 
  0 active torsions:
  status: ('A' for Active; 'I' for Inactive)
                            x       y       z     vdW  Elec       q    Type
                         _______ _______ _______ _____ _____    ______ ____

>  <TORSDO>
F 0

$$$$
=
 OpenBabel11112417423D

 28 32  0  0  1  0  0  0  0  0999 V2000
  187.0890  177.2360  146.8820 C   0  0  1  0  0  3  0  0  0  0  0  0
  185.9800  176.0330  143.0910 F   0  0  0  0  0  0  0  0  0  0  0  0
  192.1250  177.2980  144.2550 O   0  0  0  0  0  0  0  0  0  0  0  0
  185.2540  179.4160  146.9090 C   0  0  0  0  0  3  0  0  0  0  0  0
  190.4420  176.8120  142.5910 C   0  0  2  0  0  3  0  0  0  0  0  0
  187.4410  175.8280  146.7550 N   0  0  0  0  0  2  0  0  0  0  0  0
  184.5400  177.8970  143.2390 C   0  0  0  0  0  1  0  0  0  0  0  0
  185.8130  177.3320  142.6400 C   0  0  1  0  0  0  0  0  0  0  0  0
  186.7440  177.3640  140.2960 C   0  0  0  0  0  0  0  0  0  0  0  0
  187.0380  178.2160  143.0230 C   0  0  2  0  0  3  0  0  0  0  0  0
  191.0260  175.2910  147.8020 C   0  0  0  0  0  1  0  0  0  0  0  0
  188.6110  176.8000  144.2740 C   0  0  1  0  0  3  0  0  0  0  0  0
  187.9280  177.6640  140.7290 N   0  0  0  0  0  0  0  0  0  0  0  0
  185.6390  177.3010  141.1940 N   0  0  0  0  0  2  0  0  0  0  0  0
  189.8900  175.6640  146.8740 C   0  0  2  0  0  3  0  0  0  0  0  0
  186.5500  177.7960  145.5450 C   0  0  1  0  0  3  0  0  0  0  0  0
  190.9170  177.0960  143.9600 C   0  0  0  0  0  0  0  0  0  0  0  0
  186.5210  177.1660  138.8410 C   0  0  0  0  0  1  0  0  0  0  0  0
  190.1150  177.0750  146.3520 C   0  0  0  0  0  2  0  0  0  0  0  0
  185.8930  179.1380  145.7690 C   0  0  0  0  0  3  0  0  0  0  0  0
  186.0780  177.3980  147.9910 C   0  0  0  0  0  3  0  0  0  0  0  0
  185.2490  178.4430  148.0130 C   0  0  0  0  0  3  0  0  0  0  0  0
  188.5750  175.5800  147.6380 C   0  0  0  0  0  2  0  0  0  0  0  0
  188.9240  176.7030  142.7670 C   0  0  1  0  0  3  0  0  0  0  0  0
  189.8770  177.1230  144.9160 N   0  0  0  0  0  0  0  0  0  0  0  0
  188.2460  177.9030  142.1380 C   0  0  2  0  0  3  0  0  0  0  0  0
  190.9860  175.4760  142.1220 C   0  0  0  0  0  1  0  0  0  0  0  0
  187.6090  177.9510  144.4310 C   0  0  2  0  0  3  0  0  0  0  0  0
  1 21  1  1  0  0  0
  4 22  1  0  0  0  0
  5 27  1  1  0  0  0
  5 24  1  0  0  0  0
  5 17  1  0  0  0  0
  6  1  1  0  0  0  0
  6 23  1  0  0  0  0
  8 10  1  0  0  0  0
  8  2  1  0  0  0  0
  8  7  1  1  0  0  0
  9 13  2  0  0  0  0
  9 14  1  0  0  0  0
 10 28  1  0  0  0  0
 12 28  1  0  0  0  0
 12 25  1  0  0  0  0
 13 26  1  0  0  0  0
 14  8  1  0  0  0  0
 15 23  1  0  0  0  0
 15 11  1  0  0  0  0
 16 20  1  0  0  0  0
 16  1  1  0  0  0  0
 17  3  2  0  0  0  0
 17 25  1  0  0  0  0
 18  9  1  0  0  0  0
 19 15  1  0  0  0  0
 20  4  2  0  0  0  0
 21 22  2  0  0  0  0
 24 12  1  0  0  0  0
 25 19  1  0  0  0  0
 26 24  1  0  0  0  0
 26 10  1  0  0  0  0
 28 16  1  0  0  0  0
M  END
>  <MODEL>
4

>  <REMARK>
 VINA RESULT:      -8.6      2.390      5.345
  Name = 
  0 active torsions:
  status: ('A' for Active; 'I' for Inactive)
                            x       y       z     vdW  Elec       q    Type
                         _______ _______ _______ _____ _____    ______ ____

>  <TORSDO>
F 0

$$$$
=
 OpenBabel11112417423D

 28 32  0  0  1  0  0  0  0  0999 V2000
  185.9940  177.3850  143.5710 C   0  0  1  0  0  3  0  0  0  0  0  0
  188.1920  173.9580  142.8840 F   0  0  0  0  0  0  0  0  0  0  0  0
  190.0160  177.9120  147.5470 O   0  0  0  0  0  0  0  0  0  0  0  0
  186.2530  178.2910  140.8820 C   0  0  0  0  0  3  0  0  0  0  0  0
  190.5640  175.9760  146.2100 C   0  0  2  0  0  3  0  0  0  0  0  0
  185.6140  176.4160  144.5900 N   0  0  0  0  0  2  0  0  0  0  0  0
  188.3570  174.8520  140.7060 C   0  0  0  0  0  1  0  0  0  0  0  0
  189.0670  174.5950  142.0200 C   0  0  1  0  0  0  0  0  0  0  0  0
  191.3510  173.6710  142.5610 C   0  0  0  0  0  0  0  0  0  0  0  0
  189.5810  175.9320  142.6350 C   0  0  2  0  0  3  0  0  0  0  0  0
  185.8210  177.9920  148.0130 C   0  0  0  0  0  1  0  0  0  0  0  0
  188.5070  176.1990  144.8300 C   0  0  1  0  0  3  0  0  0  0  0  0
  191.5550  174.5900  143.4510 N   0  0  0  0  0  0  0  0  0  0  0  0
  190.1820  173.6980  141.7460 N   0  0  0  0  0  2  0  0  0  0  0  0
  186.3350  177.3090  146.7640 C   0  0  2  0  0  3  0  0  0  0  0  0
  187.1440  176.8420  142.6900 C   0  0  1  0  0  3  0  0  0  0  0  0
  189.7320  177.1310  146.6000 C   0  0  0  0  0  0  0  0  0  0  0  0
  192.3820  172.6270  142.3310 C   0  0  0  0  0  1  0  0  0  0  0  0
  187.4600  178.1410  146.1670 C   0  0  0  0  0  2  0  0  0  0  0  0
  187.3030  177.6980  141.4550 C   0  0  0  0  0  3  0  0  0  0  0  0
  184.7830  177.7310  142.7390 C   0  0  0  0  0  3  0  0  0  0  0  0
  184.9180  178.1910  141.4930 C   0  0  0  0  0  3  0  0  0  0  0  0
  185.1910  177.1650  145.7680 C   0  0  0  0  0  2  0  0  0  0  0  0
  189.8200  175.4070  144.9980 C   0  0  1  0  0  3  0  0  0  0  0  0
  188.5780  177.2830  145.7990 N   0  0  0  0  0  0  0  0  0  0  0  0
  190.6140  175.6750  143.7350 C   0  0  2  0  0  3  0  0  0  0  0  0
  190.5670  174.9440  147.3220 C   0  0  0  0  0  1  0  0  0  0  0  0
  188.5130  176.7440  143.3970 C   0  0  2  0  0  3  0  0  0  0  0  0
  1 21  1  6  0  0  0
  1  6  1  0  0  0  0
  4 20  2  0  0  0  0
  4 22  1  0  0  0  0
  5 17  1  0  0  0  0
  5 27  1  1  0  0  0
  6 23  1  0  0  0  0
  8  7  1  6  0  0  0
  8 10  1  0  0  0  0
  8  2  1  0  0  0  0
  9 13  2  0  0  0  0
 10 28  1  0  0  0  0
 10 26  1  0  0  0  0
 12 24  1  0  0  0  0
 12 25  1  0  0  0  0
 13 26  1  0  0  0  0
 14  8  1  0  0  0  0
 14  9  1  0  0  0  0
 15 11  1  0  0  0  0
 16 28  1  0  0  0  0
 16  1  1  0  0  0  0
 17  3  2  0  0  0  0
 18  9  1  0  0  0  0
 19 15  1  0  0  0  0
 20 16  1  0  0  0  0
 22 21  2  0  0  0  0
 23 15  1  0  0  0  0
 24  5  1  0  0  0  0
 25 19  1  0  0  0  0
 25 17  1  0  0  0  0
 26 24  1  0  0  0  0
 28 12  1  0  0  0  0
M  END
>  <MODEL>
5

>  <REMARK>
 VINA RESULT:      -8.1      2.407      4.684
  Name = 
  0 active torsions:
  status: ('A' for Active; 'I' for Inactive)
                            x       y       z     vdW  Elec       q    Type
                         _______ _______ _______ _____ _____    ______ ____

>  <TORSDO>
F 0

$$$$
=
 OpenBabel11112417423D

 28 32  0  0  1  0  0  0  0  0999 V2000
  193.2620  174.3790  144.8470 C   0  0  1  0  0  3  0  0  0  0  0  0
  189.4960  174.7730  146.4930 F   0  0  0  0  0  0  0  0  0  0  0  0
  190.0320  173.7910  140.2110 O   0  0  0  0  0  0  0  0  0  0  0  0
  194.1590  176.8770  145.8840 C   0  0  0  0  0  3  0  0  0  0  0  0
  188.5690  174.3460  142.0520 C   0  0  2  0  0  3  0  0  0  0  0  0
  192.7020  173.0400  144.9720 N   0  0  0  0  0  2  0  0  0  0  0  0
  190.3620  176.8330  147.2510 C   0  0  0  0  0  1  0  0  0  0  0  0
  189.4480  176.1370  146.2620 C   0  0  1  0  0  0  0  0  0  0  0  0
  187.0920  176.6180  145.5020 C   0  0  0  0  0  0  0  0  0  0  0  0
  189.8720  176.4690  144.7990 C   0  0  2  0  0  3  0  0  0  0  0  0
  193.0150  171.1970  141.6930 C   0  0  0  0  0  1  0  0  0  0  0  0
  190.4380  174.3470  143.6930 C   0  0  1  0  0  3  0  0  0  0  0  0
  187.4080  176.4160  144.2620 N   0  0  0  0  0  0  0  0  0  0  0  0
  188.0920  176.6040  146.5170 N   0  0  0  0  0  2  0  0  0  0  0  0
  192.4040  172.1480  142.7010 C   0  0  2  0  0  3  0  0  0  0  0  0
  192.2250  175.4540  145.2520 C   0  0  1  0  0  3  0  0  0  0  0  0
  189.8760  174.0460  141.4350 C   0  0  0  0  0  0  0  0  0  0  0  0
  185.6880  176.9500  145.8590 C   0  0  0  0  0  1  0  0  0  0  0  0
  192.2630  173.5230  142.0660 C   0  0  0  0  0  2  0  0  0  0  0  0
  192.9050  176.7910  145.4330 C   0  0  0  0  0  3  0  0  0  0  0  0
  194.5100  174.4770  145.6890 C   0  0  0  0  0  3  0  0  0  0  0  0
  194.9420  175.6570  146.1380 C   0  0  0  0  0  3  0  0  0  0  0  0
  193.3030  172.2170  143.9280 C   0  0  0  0  0  2  0  0  0  0  0  0
  188.9320  174.6310  143.5130 C   0  0  1  0  0  3  0  0  0  0  0  0
  190.9470  174.0770  142.3560 N   0  0  0  0  0  0  0  0  0  0  0  0
  188.7650  176.1080  143.8050 C   0  0  2  0  0  3  0  0  0  0  0  0
  187.6750  173.1220  141.9910 C   0  0  0  0  0  1  0  0  0  0  0  0
  191.0520  175.6310  144.2640 C   0  0  2  0  0  3  0  0  0  0  0  0
  1  6  1  0  0  0  0
  1 16  1  0  0  0  0
  1 21  1  1  0  0  0
  3 17  2  0  0  0  0
  4 22  1  0  0  0  0
  5 27  1  1  0  0  0
  5 24  1  0  0  0  0
  8  2  1  0  0  0  0
  8 14  1  0  0  0  0
  8  7  1  1  0  0  0
  9 18  1  0  0  0  0
  9 14  1  0  0  0  0
 10  8  1  0  0  0  0
 11 15  1  0  0  0  0
 12 28  1  0  0  0  0
 13  9  2  0  0  0  0
 15 23  1  0  0  0  0
 16 20  1  0  0  0  0
 17  5  1  0  0  0  0
 17 25  1  0  0  0  0
 19 25  1  0  0  0  0
 19 15  1  0  0  0  0
 20  4  2  0  0  0  0
 21 22  2  0  0  0  0
 23  6  1  0  0  0  0
 24 12  1  0  0  0  0
 24 26  1  0  0  0  0
 25 12  1  0  0  0  0
 26 13  1  0  0  0  0
 26 10  1  0  0  0  0
 28 10  1  0  0  0  0
 28 16  1  0  0  0  0
M  END
>  <MODEL>
6

>  <REMARK>
 VINA RESULT:      -7.8      2.032      5.723
  Name = 
  0 active torsions:
  status: ('A' for Active; 'I' for Inactive)
                            x       y       z     vdW  Elec       q    Type
                         _______ _______ _______ _____ _____    ______ ____

>  <TORSDO>
F 0

$$$$
=
 OpenBabel11112417423D

 28 32  0  0  1  0  0  0  0  0999 V2000
  188.3330  176.6490  144.6260 C   0  0  1  0  0  3  0  0  0  0  0  0
  192.4260  176.1080  144.6850 F   0  0  0  0  0  0  0  0  0  0  0  0
  188.9660  173.0210  140.3010 O   0  0  0  0  0  0  0  0  0  0  0  0
  188.0240  175.8760  147.3510 C   0  0  0  0  0  3  0  0  0  0  0  0
  191.1260  173.2870  141.3500 C   0  0  2  0  0  3  0  0  0  0  0  0
  188.8930  177.4660  143.5570 N   0  0  0  0  0  2  0  0  0  0  0  0
  192.0130  175.4530  146.9140 C   0  0  0  0  0  1  0  0  0  0  0  0
  192.3490  174.9970  145.5080 C   0  0  1  0  0  0  0  0  0  0  0  0
  194.0550  173.3680  144.6150 C   0  0  0  0  0  0  0  0  0  0  0  0
  191.2770  173.9920  144.9870 C   0  0  2  0  0  3  0  0  0  0  0  0
  187.0670  176.7910  140.3240 C   0  0  0  0  0  1  0  0  0  0  0  0
  190.2660  174.9670  142.9690 C   0  0  1  0  0  3  0  0  0  0  0  0
  193.1870  172.8380  143.8130 N   0  0  0  0  0  0  0  0  0  0  0  0
  193.6600  174.3640  145.5560 N   0  0  0  0  0  2  0  0  0  0  0  0
  188.0780  176.5530  141.4260 C   0  0  2  0  0  3  0  0  0  0  0  0
  189.4310  175.7980  145.3070 C   0  0  1  0  0  3  0  0  0  0  0  0
  189.6850  173.5600  141.1850 C   0  0  0  0  0  0  0  0  0  0  0  0
  195.4570  172.8760  144.6130 C   0  0  0  0  0  1  0  0  0  0  0  0
  187.8910  175.1480  141.9780 C   0  0  0  0  0  2  0  0  0  0  0  0
  188.9120  175.2180  146.6020 C   0  0  0  0  0  3  0  0  0  0  0  0
  187.6370  177.5440  145.6220 C   0  0  0  0  0  3  0  0  0  0  0  0
  187.4640  177.1550  146.8870 C   0  0  0  0  0  3  0  0  0  0  0  0
  187.8720  177.5890  142.5230 C   0  0  0  0  0  2  0  0  0  0  0  0
  191.5010  174.1350  142.5700 C   0  0  1  0  0  3  0  0  0  0  0  0
  189.1830  174.4900  142.1220 N   0  0  0  0  0  0  0  0  0  0  0  0
  191.7790  173.2340  143.7560 C   0  0  2  0  0  3  0  0  0  0  0  0
  191.8900  173.7910  140.1400 C   0  0  0  0  0  1  0  0  0  0  0  0
  189.9900  174.6470  144.4440 C   0  0  2  0  0  3  0  0  0  0  0  0
  1 16  1  0  0  0  0
  1 21  1  1  0  0  0
  2  8  1  0  0  0  0
  3 17  2  0  0  0  0
  5 27  1  6  0  0  0
  5 24  1  0  0  0  0
  6  1  1  0  0  0  0
  8 14  1  0  0  0  0
  8  7  1  1  0  0  0
  9 14  1  0  0  0  0
 10  8  1  0  0  0  0
 11 15  1  0  0  0  0
 12 28  1  0  0  0  0
 13  9  2  0  0  0  0
 15 19  1  0  0  0  0
 15 23  1  0  0  0  0
 16 20  1  0  0  0  0
 17  5  1  0  0  0  0
 17 25  1  0  0  0  0
 18  9  1  0  0  0  0
 19 25  1  0  0  0  0
 20  4  2  0  0  0  0
 21 22  2  0  0  0  0
 22  4  1  0  0  0  0
 23  6  1  0  0  0  0
 24 12  1  0  0  0  0
 24 26  1  0  0  0  0
 25 12  1  0  0  0  0
 26 13  1  0  0  0  0
 26 10  1  0  0  0  0
 28 10  1  0  0  0  0
 28 16  1  0  0  0  0
M  END
>  <MODEL>
7

>  <REMARK>
 VINA RESULT:      -7.5      1.560      2.139
  Name = 
  0 active torsions:
  status: ('A' for Active; 'I' for Inactive)
                            x       y       z     vdW  Elec       q    Type
                         _______ _______ _______ _____ _____    ______ ____

>  <TORSDO>
F 0

$$$$
=
 OpenBabel11112417423D

 28 32  0  0  1  0  0  0  0  0999 V2000
  188.8360  175.6540  144.0880 C   0  0  1  0  0  3  0  0  0  0  0  0
  192.8800  176.3050  144.6010 F   0  0  0  0  0  0  0  0  0  0  0  0
  190.9720  171.2220  141.2490 O   0  0  0  0  0  0  0  0  0  0  0  0
  188.3070  175.6760  146.8880 C   0  0  0  0  0  3  0  0  0  0  0  0
  192.8190  172.3740  142.2970 C   0  0  2  0  0  3  0  0  0  0  0  0
  189.3400  176.2350  142.8510 N   0  0  0  0  0  2  0  0  0  0  0  0
  192.3000  176.2580  146.8880 C   0  0  0  0  0  1  0  0  0  0  0  0
  192.9470  175.5140  145.7360 C   0  0  1  0  0  0  0  0  0  0  0  0
  195.1090  174.2300  145.5460 C   0  0  0  0  0  0  0  0  0  0  0  0
  192.2390  174.1450  145.5020 C   0  0  2  0  0  3  0  0  0  0  0  0
  188.2450  174.1500  139.9020 C   0  0  0  0  0  1  0  0  0  0  0  0
  191.3440  174.1550  143.2120 C   0  0  1  0  0  3  0  0  0  0  0  0
  194.5260  173.2670  144.9060 N   0  0  0  0  0  0  0  0  0  0  0  0
  194.3480  175.3110  146.0780 N   0  0  0  0  0  2  0  0  0  0  0  0
  189.1030  174.5390  141.0870 C   0  0  2  0  0  3  0  0  0  0  0  0
  189.9880  175.3820  145.0840 C   0  0  1  0  0  3  0  0  0  0  0  0
  191.3970  172.1770  141.9530 C   0  0  0  0  0  0  0  0  0  0  0  0
  196.5710  174.1660  145.8010 C   0  0  0  0  0  1  0  0  0  0  0  0
  189.1760  173.3690  142.0560 C   0  0  0  0  0  2  0  0  0  0  0  0
  189.4310  175.0950  146.4590 C   0  0  0  0  0  3  0  0  0  0  0  0
  187.8020  176.5770  144.6850 C   0  0  0  0  0  3  0  0  0  0  0  0
  187.5360  176.5520  145.9930 C   0  0  0  0  0  3  0  0  0  0  0  0
  188.4900  175.7580  141.7660 C   0  0  0  0  0  2  0  0  0  0  0  0
  192.7890  173.6160  143.1940 C   0  0  1  0  0  3  0  0  0  0  0  0
  190.5490  173.1670  142.4970 N   0  0  0  0  0  0  0  0  0  0  0  0
  193.0900  173.2230  144.6260 C   0  0  2  0  0  3  0  0  0  0  0  0
  193.6160  172.6830  141.0440 C   0  0  0  0  0  1  0  0  0  0  0  0
  190.9310  174.2260  144.6870 C   0  0  2  0  0  3  0  0  0  0  0  0
  1 21  1  1  0  0  0
  1 16  1  0  0  0  0
  2  8  1  0  0  0  0
  3 17  2  0  0  0  0
  5 27  1  6  0  0  0
  5 24  1  0  0  0  0
  6  1  1  0  0  0  0
  8 14  1  0  0  0  0
  8  7  1  1  0  0  0
  9 18  1  0  0  0  0
  9 14  1  0  0  0  0
 10  8  1  0  0  0  0
 11 15  1  0  0  0  0
 12 28  1  0  0  0  0
 13  9  2  0  0  0  0
 15 23  1  0  0  0  0
 15 19  1  0  0  0  0
 16 20  1  0  0  0  0
 17  5  1  0  0  0  0
 17 25  1  0  0  0  0
 19 25  1  0  0  0  0
 20  4  2  0  0  0  0
 21 22  2  0  0  0  0
 22  4  1  0  0  0  0
 23  6  1  0  0  0  0
 24 12  1  0  0  0  0
 24 26  1  0  0  0  0
 25 12  1  0  0  0  0
 26 13  1  0  0  0  0
 26 10  1  0  0  0  0
 28 16  1  0  0  0  0
 28 10  1  0  0  0  0
M  END
>  <MODEL>
8

>  <REMARK>
 VINA RESULT:      -7.4      2.169      3.173
  Name = 
  0 active torsions:
  status: ('A' for Active; 'I' for Inactive)
                            x       y       z     vdW  Elec       q    Type
                         _______ _______ _______ _____ _____    ______ ____

>  <TORSDO>
F 0

$$$$
=
 OpenBabel11112417423D

 28 32  0  0  1  0  0  0  0  0999 V2000
  188.6160  176.1360  145.0690 C   0  0  1  0  0  3  0  0  0  0  0  0
  189.0670  172.2410  143.7760 F   0  0  0  0  0  0  0  0  0  0  0  0
  194.2620  175.5880  145.3670 O   0  0  0  0  0  0  0  0  0  0  0  0
  187.1910  176.9240  142.7300 C   0  0  0  0  0  3  0  0  0  0  0  0
  193.3860  173.5680  144.3720 C   0  0  2  0  0  3  0  0  0  0  0  0
  188.8300  175.3100  146.2500 N   0  0  0  0  0  2  0  0  0  0  0  0
  187.9120  173.0450  141.8810 C   0  0  0  0  0  1  0  0  0  0  0  0
  189.2480  172.6150  142.4550 C   0  0  1  0  0  0  0  0  0  0  0  0
  191.0710  171.1150  141.5660 C   0  0  0  0  0  0  0  0  0  0  0  0
  190.2910  173.7680  142.3400 C   0  0  2  0  0  3  0  0  0  0  0  0
  191.5660  176.7930  148.3840 C   0  0  0  0  0  1  0  0  0  0  0  0
  191.0300  174.3260  144.6180 C   0  0  1  0  0  3  0  0  0  0  0  0
  191.9900  171.9510  141.9320 N   0  0  0  0  0  0  0  0  0  0  0  0
  189.6920  171.4500  141.7000 N   0  0  0  0  0  2  0  0  0  0  0  0
  190.9710  175.9890  147.2480 C   0  0  2  0  0  3  0  0  0  0  0  0
  188.7510  175.2990  143.7750 C   0  0  1  0  0  3  0  0  0  0  0  0
  193.2730  174.9060  144.9840 C   0  0  0  0  0  0  0  0  0  0  0  0
  191.4550  169.8310  140.9250 C   0  0  0  0  0  1  0  0  0  0  0  0
  191.5480  176.4860  145.9310 C   0  0  0  0  0  2  0  0  0  0  0  0
  188.2120  176.0740  142.5950 C   0  0  0  0  0  3  0  0  0  0  0  0
  187.2590  176.7900  145.1590 C   0  0  0  0  0  3  0  0  0  0  0  0
  186.6170  177.1890  144.0590 C   0  0  0  0  0  3  0  0  0  0  0  0
  189.4570  176.1520  147.2630 C   0  0  0  0  0  2  0  0  0  0  0  0
  191.9310  173.2120  144.0470 C   0  0  1  0  0  3  0  0  0  0  0  0
  191.9390  175.3570  145.0970 N   0  0  0  0  0  0  0  0  0  0  0  0
  191.7160  173.2500  142.5480 C   0  0  2  0  0  3  0  0  0  0  0  0
  193.9250  172.5790  145.3880 C   0  0  0  0  0  1  0  0  0  0  0  0
  190.1880  174.8410  143.4440 C   0  0  2  0  0  3  0  0  0  0  0  0
  1 21  1  1  0  0  0
  1  6  1  0  0  0  0
  4 22  1  0  0  0  0
  5 17  1  0  0  0  0
  5 27  1  1  0  0  0
  6 23  1  0  0  0  0
  8  7  1  6  0  0  0
  8  2  1  0  0  0  0
  9 14  1  0  0  0  0
  9 13  2  0  0  0  0
 10  8  1  0  0  0  0
 10 26  1  0  0  0  0
 10 28  1  0  0  0  0
 12 25  1  0  0  0  0
 13 26  1  0  0  0  0
 14  8  1  0  0  0  0
 15 23  1  0  0  0  0
 15 11  1  0  0  0  0
 16  1  1  0  0  0  0
 17 25  1  0  0  0  0
 17  3  2  0  0  0  0
 18  9  1  0  0  0  0
 19 15  1  0  0  0  0
 20  4  2  0  0  0  0
 20 16  1  0  0  0  0
 22 21  2  0  0  0  0
 24  5  1  0  0  0  0
 24 12  1  0  0  0  0
 25 19  1  0  0  0  0
 26 24  1  0  0  0  0
 28 16  1  0  0  0  0
 28 12  1  0  0  0  0
M  END
>  <MODEL>
9

>  <REMARK>
 VINA RESULT:      -7.3      2.746      5.360
  Name = 
  0 active torsions:
  status: ('A' for Active; 'I' for Inactive)
                            x       y       z     vdW  Elec       q    Type
                         _______ _______ _______ _____ _____    ______ ____

>  <TORSDO>
F 0

$$$$
