=
 OpenBabel11112416333D

 32 38  0  0  1  0  0  0  0  0999 V2000
  192.1260  174.7120  146.1840 C   0  0  1  0  0  3  0  0  0  0  0  0
  188.2630  177.4670  143.8510 C   0  0  0  0  0  0  0  0  0  0  0  0
  186.1120  178.0940  148.2730 C   0  0  0  0  0  3  0  0  0  0  0  0
  184.8540  178.0900  147.6710 C   0  0  0  0  0  3  0  0  0  0  0  0
  186.7920  177.6940  141.7470 C   0  0  0  0  0  0  0  0  0  0  0  0
  185.4560  177.8630  141.1840 C   0  0  0  0  0  0  0  0  0  0  0  0
  190.1040  175.8420  144.2750 C   0  0  1  0  0  3  0  0  0  0  0  0
  189.6640  177.7170  145.8870 C   0  0  0  0  0  2  0  0  0  0  0  0
  183.2080  178.1620  141.1510 C   0  0  0  0  0  0  0  0  0  0  0  0
  191.5060  176.0870  146.4380 C   0  0  2  0  0  3  0  0  0  0  0  0
  187.2620  178.0140  147.4850 C   0  0  0  0  0  3  0  0  0  0  0  0
  188.3450  177.8390  145.2690 N   0  0  0  0  0  0  0  0  0  0  0  0
  187.1640  177.9250  146.0870 C   0  0  2  0  0  3  0  0  0  0  0  0
  185.7850  177.8670  144.0050 C   0  0  0  0  0  0  0  0  0  0  0  0
  183.6060  178.0900  139.9180 N   0  0  0  0  0  0  0  0  0  0  0  0
  191.2660  173.7840  145.2960 C   0  0  0  0  0  2  0  0  0  0  0  0
  190.1380  176.2740  145.7530 C   0  0  2  0  0  3  0  0  0  0  0  0
  185.0320  177.9010  139.9270 C   0  0  0  0  0  3  0  0  0  0  0  0
  190.6160  174.4170  144.0550 C   0  0  0  0  0  2  0  0  0  0  0  0
  192.6750  175.9360  145.4670 C   0  0  1  0  0  3  0  0  0  0  0  0
  184.7460  178.0090  146.2810 C   0  0  0  0  0  3  0  0  0  0  0  0
  185.8960  177.9250  145.4790 C   0  0  0  0  0  0  0  0  0  0  0  0
  184.4360  178.0370  143.3760 C   0  0  0  0  0  3  0  0  0  0  0  0
  188.7070  176.0130  143.6840 C   0  0  0  0  0  2  0  0  0  0  0  0
  187.8020  177.5560  141.0050 O   0  0  0  0  0  0  0  0  0  0  0  0
  181.7860  178.3580  141.5440 C   0  0  0  0  0  1  0  0  0  0  0  0
  186.9020  177.6970  143.2350 C   0  0  0  0  0  0  0  0  0  0  0  0
  184.3340  178.0250  142.0490 C   0  0  0  0  0  0  0  0  0  0  0  0
  193.9500  176.3890  146.1480 C   0  0  0  0  0  2  0  0  0  0  0  0
  195.1300  175.8200  145.4410 C   0  0  0  0  0  0  0  0  0  0  0  0
  195.7020  174.7960  145.8940 O   0  0  0  0  0  1  0  0  0  0  0  0
  195.5770  176.3990  144.2600 O   0  0  0  0  0  0  0  0  0  0  0  0
  1 16  1  6  0  0  0
  1 10  1  0  0  0  0
  2 12  1  0  0  0  0
  4  3  1  0  0  0  0
  5 27  1  0  0  0  0
  6  5  1  0  0  0  0
  6 28  1  0  0  0  0
  7 24  1  1  0  0  0
  7 17  1  0  0  0  0
  9 26  1  0  0  0  0
  9 28  1  0  0  0  0
 11  3  2  0  0  0  0
 12  8  1  0  0  0  0
 12 13  1  0  0  0  0
 13 11  1  0  0  0  0
 14 22  2  0  0  0  0
 15 18  1  0  0  0  0
 15  9  2  0  0  0  0
 17  8  1  0  0  0  0
 17 10  1  0  0  0  0
 18  6  2  0  0  0  0
 19  7  1  0  0  0  0
 19 16  1  0  0  0  0
 20 29  1  0  0  0  0
 20  1  1  0  0  0  0
 20 10  1  0  0  0  0
 21  4  2  0  0  0  0
 22 13  1  0  0  0  0
 22 21  1  0  0  0  0
 23 14  1  0  0  0  0
 24  2  1  0  0  0  0
 25  5  2  0  0  0  0
 27  2  2  0  0  0  0
 27 14  1  0  0  0  0
 28 23  2  0  0  0  0
 30 31  1  0  0  0  0
 30 29  1  0  0  0  0
 32 30  2  0  0  0  0
M  END
>  <MODEL>
1

>  <REMARK>
 VINA RESULT:      -9.6      0.000      0.000
  Name = 
  2 active torsions:
  status: ('A' for Active; 'I' for Inactive)
    1  A    between atoms: C_20  and  C_29
    2  A    between atoms: C_29  and  C_30
                            x       y       z     vdW  Elec       q    Type
                         _______ _______ _______ _____ _____    ______ ____

>  <TORSDO>
F 2

$$$$
=
 OpenBabel11112416333D

 32 38  0  0  1  0  0  0  0  0999 V2000
  185.5680  177.4120  145.8600 C   0  0  1  0  0  3  0  0  0  0  0  0
  190.4990  175.9760  144.6060 C   0  0  0  0  0  0  0  0  0  0  0  0
  188.6750  172.1570  142.0260 C   0  0  0  0  0  3  0  0  0  0  0  0
  189.8020  171.3960  142.3390 C   0  0  0  0  0  3  0  0  0  0  0  0
  192.9390  175.8280  145.4240 C   0  0  0  0  0  0  0  0  0  0  0  0
  194.1490  175.0250  145.5690 C   0  0  0  0  0  0  0  0  0  0  0  0
  188.5290  176.9230  145.8020 C   0  0  1  0  0  3  0  0  0  0  0  0
  188.3410  176.2130  143.4000 C   0  0  0  0  0  2  0  0  0  0  0  0
  195.5190  173.2280  145.3690 C   0  0  0  0  0  0  0  0  0  0  0  0
  186.2750  177.0970  144.5400 C   0  0  2  0  0  3  0  0  0  0  0  0
  188.5950  173.4880  142.4410 C   0  0  0  0  0  3  0  0  0  0  0  0
  189.5630  175.4390  143.6110 N   0  0  0  0  0  0  0  0  0  0  0  0
  189.6400  174.0690  143.1770 C   0  0  0  0  0  0  0  0  0  0  0  0
  191.8980  173.9200  144.2350 C   0  0  0  0  0  0  0  0  0  0  0  0
  196.1790  174.1490  146.0020 N   0  0  0  0  0  0  0  0  0  0  0  0
  186.3140  176.9030  147.1140 C   0  0  0  0  0  2  0  0  0  0  0  0
  187.5980  176.3300  144.7270 C   0  0  2  0  0  3  0  0  0  0  0  0
  195.3180  175.2940  146.1340 C   0  0  0  0  0  2  0  0  0  0  0  0
  187.8360  177.1190  147.1520 C   0  0  0  0  0  2  0  0  0  0  0  0
  186.2900  178.5160  145.1030 C   0  0  1  0  0  3  0  0  0  0  0  0
  190.8490  171.9680  143.0650 C   0  0  0  0  0  2  0  0  0  0  0  0
  190.7780  173.3040  143.4900 C   0  0  0  0  0  0  0  0  0  0  0  0
  193.1640  173.1380  144.4090 C   0  0  0  0  0  2  0  0  0  0  0  0
  189.7930  176.0820  145.9580 C   0  0  0  0  0  2  0  0  0  0  0  0
  192.8790  177.0050  145.8730 O   0  0  0  0  0  0  0  0  0  0  0  0
  196.0840  171.8900  145.0430 C   0  0  0  0  0  1  0  0  0  0  0  0
  191.7860  175.1920  144.7220 C   0  0  0  0  0  0  0  0  0  0  0  0
  194.1900  173.6990  145.0440 C   0  0  0  0  0  0  0  0  0  0  0  0
  185.2770  179.3600  144.3560 C   0  0  0  0  0  2  0  0  0  0  0  0
  185.1540  178.8780  142.9540 C   0  0  0  0  0  0  0  0  0  0  0  0
  186.1270  178.9850  142.1640 O   0  0  0  0  0  0  0  0  0  0  0  0
  183.9770  178.2770  142.5260 O   0  0  0  0  0  1  0  0  0  0  0  0
  1 16  1  1  0  0  0
  2 27  2  0  0  0  0
  2 24  1  0  0  0  0
  3  4  2  0  0  0  0
  3 11  1  0  0  0  0
  4 21  1  0  0  0  0
  5  6  1  0  0  0  0
  5 25  2  0  0  0  0
  6 18  1  0  0  0  0
  7 24  1  1  0  0  0
  7 19  1  0  0  0  0
  8 12  1  0  0  0  0
  8 17  1  0  0  0  0
  9 15  2  0  0  0  0
 10 17  1  0  0  0  0
 10 20  1  0  0  0  0
 10  1  1  0  0  0  0
 11 13  2  0  0  0  0
 12  2  1  0  0  0  0
 13 22  1  0  0  0  0
 13 12  1  0  0  0  0
 14 23  1  0  0  0  0
 14 27  1  0  0  0  0
 15 18  1  0  0  0  0
 16 19  1  0  0  0  0
 17  7  1  0  0  0  0
 20  1  1  0  0  0  0
 21 22  1  0  0  0  0
 22 14  2  0  0  0  0
 23 28  1  0  0  0  0
 26  9  1  0  0  0  0
 27  5  1  0  0  0  0
 28  9  1  0  0  0  0
 28  6  2  0  0  0  0
 29 20  1  0  0  0  0
 30 29  1  0  0  0  0
 31 30  2  0  0  0  0
 32 30  1  0  0  0  0
M  END
>  <MODEL>
2

>  <REMARK>
 VINA RESULT:      -8.7      2.608      8.711
  Name = 
  2 active torsions:
  status: ('A' for Active; 'I' for Inactive)
    1  A    between atoms: C_20  and  C_29
    2  A    between atoms: C_29  and  C_30
                            x       y       z     vdW  Elec       q    Type
                         _______ _______ _______ _____ _____    ______ ____

>  <TORSDO>
F 2

$$$$
=
 OpenBabel11112416333D

 32 38  0  0  1  0  0  0  0  0999 V2000
  195.1730  174.8010  144.2880 C   0  0  1  0  0  3  0  0  0  0  0  0
  189.9910  175.5510  145.0240 C   0  0  0  0  0  0  0  0  0  0  0  0
  189.1750  174.1290  140.3460 C   0  0  0  0  0  3  0  0  0  0  0  0
  188.0810  174.9910  140.2660 C   0  0  0  0  0  3  0  0  0  0  0  0
  188.2000  177.0030  146.1770 C   0  0  0  0  0  0  0  0  0  0  0  0
  186.9540  177.7530  146.0620 C   0  0  0  0  0  0  0  0  0  0  0  0
  192.4700  175.7370  145.1990 C   0  0  1  0  0  3  0  0  0  0  0  0
  191.4190  173.7990  143.9930 C   0  0  0  0  0  2  0  0  0  0  0  0
  185.0880  178.5980  145.0880 C   0  0  0  0  0  0  0  0  0  0  0  0
  193.9350  173.9310  144.0590 C   0  0  2  0  0  3  0  0  0  0  0  0
  189.8720  173.9970  141.5490 C   0  0  0  0  0  3  0  0  0  0  0  0
  190.1980  174.6010  143.9240 N   0  0  0  0  0  0  0  0  0  0  0  0
  189.4830  174.7300  142.6820 C   0  0  0  0  0  0  0  0  0  0  0  0
  187.9420  176.3450  143.8020 C   0  0  0  0  0  0  0  0  0  0  0  0
  185.1030  179.0110  146.3180 N   0  0  0  0  0  0  0  0  0  0  0  0
  194.8670  176.3070  144.4510 C   0  0  0  0  0  2  0  0  0  0  0  0
  192.6210  174.7360  144.0370 C   0  0  2  0  0  3  0  0  0  0  0  0
  186.2830  178.4800  146.9460 C   0  0  0  0  0  2  0  0  0  0  0  0
  193.6670  176.6790  145.3370 C   0  0  0  0  0  2  0  0  0  0  0  0
  194.6410  173.9250  145.4130 C   0  0  1  0  0  3  0  0  0  0  0  0
  187.6830  175.7190  141.3900 C   0  0  0  0  0  2  0  0  0  0  0  0
  188.3790  175.5960  142.6030 C   0  0  0  0  0  0  0  0  0  0  0  0
  186.6670  177.1300  143.7380 C   0  0  0  0  0  2  0  0  0  0  0  0
  191.1690  176.5250  145.0790 C   0  0  0  0  0  2  0  0  0  0  0  0
  188.8410  176.9610  147.2630 O   0  0  0  0  0  0  0  0  0  0  0  0
  184.0130  178.9440  144.1180 C   0  0  0  0  0  1  0  0  0  0  0  0
  188.6740  176.2900  144.9550 C   0  0  0  0  0  0  0  0  0  0  0  0
  186.2480  177.7750  144.8240 C   0  0  0  0  0  0  0  0  0  0  0  0
  195.4930  172.6770  145.5260 C   0  0  0  0  0  2  0  0  0  0  0  0
  196.9160  173.0560  145.7480 C   0  0  0  0  0  0  0  0  0  0  0  0
  197.2440  173.6910  146.7820 O   0  0  0  0  0  1  0  0  0  0  0  0
  197.8870  172.6760  144.8300 O   0  0  0  0  0  0  0  0  0  0  0  0
  1 16  1  1  0  0  0
  1 20  1  0  0  0  0
  2 24  1  0  0  0  0
  3 11  1  0  0  0  0
  4  3  2  0  0  0  0
  4 21  1  0  0  0  0
  5 25  2  0  0  0  0
  6  5  1  0  0  0  0
  6 18  1  0  0  0  0
  7 24  1  6  0  0  0
  7 19  1  0  0  0  0
  8 17  1  0  0  0  0
  9 15  2  0  0  0  0
 10  1  1  0  0  0  0
 10 20  1  0  0  0  0
 11 13  2  0  0  0  0
 12  8  1  0  0  0  0
 12  2  1  0  0  0  0
 13 12  1  0  0  0  0
 14 27  1  0  0  0  0
 15 18  1  0  0  0  0
 16 19  1  0  0  0  0
 17 10  1  0  0  0  0
 17  7  1  0  0  0  0
 20 29  1  0  0  0  0
 21 22  1  0  0  0  0
 22 13  1  0  0  0  0
 22 14  2  0  0  0  0
 23 14  1  0  0  0  0
 23 28  1  0  0  0  0
 26  9  1  0  0  0  0
 27  2  2  0  0  0  0
 27  5  1  0  0  0  0
 28  9  1  0  0  0  0
 28  6  2  0  0  0  0
 29 30  1  0  0  0  0
 30 31  1  0  0  0  0
 32 30  2  0  0  0  0
M  END
>  <MODEL>
3

>  <REMARK>
 VINA RESULT:      -8.6      2.500      4.841
  Name = 
  2 active torsions:
  status: ('A' for Active; 'I' for Inactive)
    1  A    between atoms: C_20  and  C_29
    2  A    between atoms: C_29  and  C_30
                            x       y       z     vdW  Elec       q    Type
                         _______ _______ _______ _____ _____    ______ ____

>  <TORSDO>
F 2

$$$$
=
 OpenBabel11112416333D

 32 38  0  0  1  0  0  0  0  0999 V2000
  185.4970  177.1900  146.0450 C   0  0  1  0  0  3  0  0  0  0  0  0
  190.2730  176.4010  143.9190 C   0  0  0  0  0  0  0  0  0  0  0  0
  188.5640  172.2910  141.7370 C   0  0  0  0  0  3  0  0  0  0  0  0
  189.8240  171.7000  141.8440 C   0  0  0  0  0  3  0  0  0  0  0  0
  192.8170  176.6110  144.2780 C   0  0  0  0  0  0  0  0  0  0  0  0
  194.1320  175.9850  144.2030 C   0  0  0  0  0  0  0  0  0  0  0  0
  188.4380  177.1070  145.4490 C   0  0  1  0  0  3  0  0  0  0  0  0
  187.9210  176.3040  143.1260 C   0  0  0  0  0  2  0  0  0  0  0  0
  195.6810  174.3860  143.7660 C   0  0  0  0  0  0  0  0  0  0  0  0
  185.9920  176.9330  144.6200 C   0  0  2  0  0  3  0  0  0  0  0  0
  188.3750  173.6100  142.1520 C   0  0  0  0  0  3  0  0  0  0  0  0
  189.2570  175.7100  143.1140 N   0  0  0  0  0  0  0  0  0  0  0  0
  189.4450  174.3510  142.6820 C   0  0  0  0  0  0  0  0  0  0  0  0
  191.8550  174.5430  143.3100 C   0  0  0  0  0  0  0  0  0  0  0  0
  196.3090  175.4070  144.2630 N   0  0  0  0  0  0  0  0  0  0  0  0
  186.5210  176.8270  147.1450 C   0  0  0  0  0  2  0  0  0  0  0  0
  187.4210  176.3600  144.5660 C   0  0  2  0  0  3  0  0  0  0  0  0
  195.3360  176.4280  144.5430 C   0  0  0  0  0  2  0  0  0  0  0  0
  187.9790  177.2480  146.9020 C   0  0  0  0  0  2  0  0  0  0  0  0
  185.9100  178.3580  145.1630 C   0  0  1  0  0  3  0  0  0  0  0  0
  190.8950  172.4310  142.3620 C   0  0  0  0  0  2  0  0  0  0  0  0
  190.7150  173.7580  142.7850 C   0  0  0  0  0  0  0  0  0  0  0  0
  193.2280  173.9460  143.2540 C   0  0  0  0  0  2  0  0  0  0  0  0
  189.8150  176.4510  145.3760 C   0  0  0  0  0  2  0  0  0  0  0  0
  192.6750  177.7820  144.7230 O   0  0  0  0  0  0  0  0  0  0  0  0
  196.3590  173.1280  143.3500 C   0  0  0  0  0  1  0  0  0  0  0  0
  191.6560  175.8030  143.8020 C   0  0  0  0  0  0  0  0  0  0  0  0
  194.2630  174.6620  143.6880 C   0  0  0  0  0  0  0  0  0  0  0  0
  184.6720  179.0330  144.6090 C   0  0  0  0  0  2  0  0  0  0  0  0
  184.5540  178.7550  143.1510 C   0  0  0  0  0  0  0  0  0  0  0  0
  183.4830  178.2910  142.6840 O   0  0  0  0  0  1  0  0  0  0  0  0
  185.6150  179.0410  142.3020 O   0  0  0  0  0  0  0  0  0  0  0  0
  1 16  1  1  0  0  0
  2 24  1  0  0  0  0
  3  4  2  0  0  0  0
  3 11  1  0  0  0  0
  4 21  1  0  0  0  0
  5 25  2  0  0  0  0
  6  5  1  0  0  0  0
  6 18  1  0  0  0  0
  7 24  1  1  0  0  0
  7 19  1  0  0  0  0
  8 17  1  0  0  0  0
  9 15  2  0  0  0  0
 10 20  1  0  0  0  0
 10  1  1  0  0  0  0
 11 13  2  0  0  0  0
 12  8  1  0  0  0  0
 12  2  1  0  0  0  0
 13 22  1  0  0  0  0
 13 12  1  0  0  0  0
 14 27  1  0  0  0  0
 15 18  1  0  0  0  0
 17 10  1  0  0  0  0
 17  7  1  0  0  0  0
 19 16  1  0  0  0  0
 20  1  1  0  0  0  0
 21 22  1  0  0  0  0
 22 14  2  0  0  0  0
 23 14  1  0  0  0  0
 23 28  1  0  0  0  0
 26  9  1  0  0  0  0
 27  2  2  0  0  0  0
 27  5  1  0  0  0  0
 28  9  1  0  0  0  0
 28  6  2  0  0  0  0
 29 20  1  0  0  0  0
 30 29  1  0  0  0  0
 31 30  1  0  0  0  0
 32 30  2  0  0  0  0
M  END
>  <MODEL>
4

>  <REMARK>
 VINA RESULT:      -8.6      2.658      8.523
  Name = 
  2 active torsions:
  status: ('A' for Active; 'I' for Inactive)
    1  A    between atoms: C_20  and  C_29
    2  A    between atoms: C_29  and  C_30
                            x       y       z     vdW  Elec       q    Type
                         _______ _______ _______ _____ _____    ______ ____

>  <TORSDO>
F 2

$$$$
=
 OpenBabel11112416333D

 32 38  0  0  1  0  0  0  0  0999 V2000
  186.6630  178.7100  143.4590 C   0  0  1  0  0  3  0  0  0  0  0  0
  189.3380  174.2000  144.1310 C   0  0  0  0  0  0  0  0  0  0  0  0
  192.5890  176.6150  146.9900 C   0  0  0  0  0  3  0  0  0  0  0  0
  193.6110  175.7700  146.5560 C   0  0  0  0  0  3  0  0  0  0  0  0
  190.1010  172.0000  143.0250 C   0  0  0  0  0  0  0  0  0  0  0  0
  191.1870  171.0650  142.7510 C   0  0  0  0  0  0  0  0  0  0  0  0
  187.9010  175.9910  143.1660 C   0  0  1  0  0  3  0  0  0  0  0  0
  188.5680  176.0600  145.5870 C   0  0  0  0  0  2  0  0  0  0  0  0
  193.2790  170.1900  142.8170 C   0  0  0  0  0  0  0  0  0  0  0  0
  187.1660  177.9520  144.6890 C   0  0  2  0  0  3  0  0  0  0  0  0
  191.2780  176.4010  146.5610 C   0  0  0  0  0  3  0  0  0  0  0  0
  189.6280  175.1130  145.2440 N   0  0  0  0  0  0  0  0  0  0  0  0
  190.9770  175.3390  145.6920 C   0  0  2  0  0  3  0  0  0  0  0  0
  191.6900  173.3430  144.3700 C   0  0  0  0  0  0  0  0  0  0  0  0
  192.5520  169.3990  142.0910 N   0  0  0  0  0  0  0  0  0  0  0  0
  187.3320  178.2800  142.1330 C   0  0  0  0  0  2  0  0  0  0  0  0
  188.2460  176.9040  144.3580 C   0  0  2  0  0  3  0  0  0  0  0  0
  191.2220  169.9440  142.0420 C   0  0  0  0  0  3  0  0  0  0  0  0
  187.5160  176.7710  141.9070 C   0  0  0  0  0  2  0  0  0  0  0  0
  185.7920  177.6410  144.1000 C   0  0  1  0  0  3  0  0  0  0  0  0
  193.3200  174.7080  145.6970 C   0  0  0  0  0  3  0  0  0  0  0  0
  192.0050  174.4840  145.2580 C   0  0  0  0  0  0  0  0  0  0  0  0
  192.7710  172.3530  144.0580 C   0  0  0  0  0  3  0  0  0  0  0  0
  189.0370  175.0150  142.8730 C   0  0  0  0  0  2  0  0  0  0  0  0
  188.9430  171.8100  142.5640 O   0  0  0  0  0  0  0  0  0  0  0  0
  194.7210  169.9540  143.0990 C   0  0  0  0  0  1  0  0  0  0  0  0
  190.4270  173.1830  143.8750 C   0  0  0  0  0  0  0  0  0  0  0  0
  192.4850  171.3030  143.2920 C   0  0  0  0  0  0  0  0  0  0  0  0
  184.7250  178.3020  144.9480 C   0  0  0  0  0  2  0  0  0  0  0  0
  184.7850  177.7750  146.3390 C   0  0  0  0  0  0  0  0  0  0  0  0
  184.8390  176.5350  146.5390 O   0  0  0  0  0  0  0  0  0  0  0  0
  184.8180  178.6530  147.4140 O   0  0  0  0  0  1  0  0  0  0  0  0
  1 16  1  6  0  0  0
  1 20  1  0  0  0  0
  1 10  1  0  0  0  0
  2 12  1  0  0  0  0
  4  3  1  0  0  0  0
  5 27  1  0  0  0  0
  6  5  1  0  0  0  0
  6 28  1  0  0  0  0
  7 19  1  6  0  0  0
  7 17  1  0  0  0  0
  9 26  1  0  0  0  0
  9 28  1  0  0  0  0
 11  3  2  0  0  0  0
 12  8  1  0  0  0  0
 12 13  1  0  0  0  0
 13 11  1  0  0  0  0
 14 22  2  0  0  0  0
 15  9  2  0  0  0  0
 17 10  1  0  0  0  0
 17  8  1  0  0  0  0
 18 15  1  0  0  0  0
 18  6  2  0  0  0  0
 19 16  1  0  0  0  0
 20 10  1  0  0  0  0
 20 29  1  0  0  0  0
 21  4  2  0  0  0  0
 22 13  1  0  0  0  0
 22 21  1  0  0  0  0
 23 14  1  0  0  0  0
 24  7  1  0  0  0  0
 24  2  1  0  0  0  0
 25  5  2  0  0  0  0
 27  2  2  0  0  0  0
 27 14  1  0  0  0  0
 28 23  2  0  0  0  0
 29 30  1  0  0  0  0
 30 31  2  0  0  0  0
 30 32  1  0  0  0  0
M  END
>  <MODEL>
5

>  <REMARK>
 VINA RESULT:      -8.5      3.435      8.168
  Name = 
  2 active torsions:
  status: ('A' for Active; 'I' for Inactive)
    1  A    between atoms: C_20  and  C_29
    2  A    between atoms: C_29  and  C_30
                            x       y       z     vdW  Elec       q    Type
                         _______ _______ _______ _____ _____    ______ ____

>  <TORSDO>
F 2

$$$$
=
 OpenBabel11112416333D

 32 38  0  0  1  0  0  0  0  0999 V2000
  191.7180  171.9950  140.2930 C   0  0  1  0  0  3  0  0  0  0  0  0
  189.1540  175.9190  142.7400 C   0  0  0  0  0  0  0  0  0  0  0  0
  191.9450  175.1620  146.7660 C   0  0  0  0  0  3  0  0  0  0  0  0
  190.8850  175.5530  147.5850 C   0  0  0  0  0  3  0  0  0  0  0  0
  186.8860  177.1050  143.0460 C   0  0  0  0  0  0  0  0  0  0  0  0
  185.8900  177.6510  143.9600 C   0  0  0  0  0  0  0  0  0  0  0  0
  189.7050  174.0150  141.2290 C   0  0  1  0  0  3  0  0  0  0  0  0
  191.5210  175.2060  142.4920 C   0  0  0  0  0  2  0  0  0  0  0  0
  184.9490  178.2480  145.9370 C   0  0  0  0  0  0  0  0  0  0  0  0
  192.1710  173.2510  141.0400 C   0  0  2  0  0  3  0  0  0  0  0  0
  191.8120  175.2200  145.3770 C   0  0  0  0  0  3  0  0  0  0  0  0
  190.4690  175.7270  143.3640 N   0  0  0  0  0  0  0  0  0  0  0  0
  190.6150  175.6670  144.7940 C   0  0  2  0  0  3  0  0  0  0  0  0
  188.2960  176.5710  145.0120 C   0  0  0  0  0  0  0  0  0  0  0  0
  184.1190  178.5810  144.9970 N   0  0  0  0  0  0  0  0  0  0  0  0
  190.2540  171.5870  140.5730 C   0  0  0  0  0  2  0  0  0  0  0  0
  191.0700  173.8630  141.9270 C   0  0  2  0  0  3  0  0  0  0  0  0
  184.7060  178.2080  143.7380 C   0  0  0  0  0  3  0  0  0  0  0  0
  189.2100  172.7160  140.5910 C   0  0  0  0  0  2  0  0  0  0  0  0
  191.8730  173.3090  139.5440 C   0  0  1  0  0  3  0  0  0  0  0  0
  189.6940  176.0060  147.0140 C   0  0  0  0  0  3  0  0  0  0  0  0
  189.5480  176.0660  145.6190 C   0  0  0  0  0  0  0  0  0  0  0  0
  187.2410  177.1440  145.9080 C   0  0  0  0  0  3  0  0  0  0  0  0
  188.6590  174.5830  142.1850 C   0  0  0  0  0  2  0  0  0  0  0  0
  186.7020  177.1130  141.7980 O   0  0  0  0  0  0  0  0  0  0  0  0
  184.6870  178.4790  147.3840 C   0  0  0  0  0  1  0  0  0  0  0  0
  188.1270  176.5440  143.6560 C   0  0  0  0  0  0  0  0  0  0  0  0
  186.1290  177.6360  145.3660 C   0  0  0  0  0  0  0  0  0  0  0  0
  193.1780  173.2990  138.7740 C   0  0  0  0  0  2  0  0  0  0  0  0
  193.5680  174.6920  138.4230 C   0  0  0  0  0  0  0  0  0  0  0  0
  194.3730  175.3230  139.1530 O   0  0  0  0  0  1  0  0  0  0  0  0
  193.0700  175.2820  137.2680 O   0  0  0  0  0  0  0  0  0  0  0  0
  1 16  1  1  0  0  0
  1 10  1  0  0  0  0
  2 12  1  0  0  0  0
  2 27  2  0  0  0  0
  3  4  1  0  0  0  0
  5 27  1  0  0  0  0
  5  6  1  0  0  0  0
  6 28  1  0  0  0  0
  7 19  1  1  0  0  0
  7 17  1  0  0  0  0
  7 24  1  0  0  0  0
  8 12  1  0  0  0  0
  9 26  1  0  0  0  0
 10 17  1  0  0  0  0
 11  3  2  0  0  0  0
 12 13  1  0  0  0  0
 13 11  1  0  0  0  0
 13 22  1  0  0  0  0
 14 22  2  0  0  0  0
 14 23  1  0  0  0  0
 15  9  2  0  0  0  0
 16 19  1  0  0  0  0
 17  8  1  0  0  0  0
 18  6  2  0  0  0  0
 18 15  1  0  0  0  0
 20  1  1  0  0  0  0
 20 10  1  0  0  0  0
 21  4  2  0  0  0  0
 22 21  1  0  0  0  0
 24  2  1  0  0  0  0
 25  5  2  0  0  0  0
 27 14  1  0  0  0  0
 28 23  2  0  0  0  0
 28  9  1  0  0  0  0
 29 20  1  0  0  0  0
 30 29  1  0  0  0  0
 30 31  1  0  0  0  0
 32 30  2  0  0  0  0
M  END
>  <MODEL>
6

>  <REMARK>
 VINA RESULT:      -8.5      3.131      5.043
  Name = 
  2 active torsions:
  status: ('A' for Active; 'I' for Inactive)
    1  A    between atoms: C_20  and  C_29
    2  A    between atoms: C_29  and  C_30
                            x       y       z     vdW  Elec       q    Type
                         _______ _______ _______ _____ _____    ______ ____

>  <TORSDO>
F 2

$$$$
=
 OpenBabel11112416333D

 32 38  0  0  1  0  0  0  0  0999 V2000
  185.7250  179.1290  144.1530 C   0  0  1  0  0  3  0  0  0  0  0  0
  188.5910  174.8920  142.8130 C   0  0  0  0  0  0  0  0  0  0  0  0
  192.5970  177.0440  144.7850 C   0  0  0  0  0  3  0  0  0  0  0  0
  193.4100  176.4160  143.8410 C   0  0  0  0  0  3  0  0  0  0  0  0
  188.9530  173.0470  141.0510 C   0  0  0  0  0  0  0  0  0  0  0  0
  189.8860  172.3070  140.2080 C   0  0  0  0  0  0  0  0  0  0  0  0
  186.8460  176.6700  142.8450 C   0  0  1  0  0  3  0  0  0  0  0  0
  188.3610  176.3380  144.8210 C   0  0  0  0  0  2  0  0  0  0  0  0
  191.8790  171.6690  139.3310 C   0  0  0  0  0  0  0  0  0  0  0  0
  186.6710  178.2050  144.9230 C   0  0  2  0  0  3  0  0  0  0  0  0
  191.2280  176.7760  144.8160 C   0  0  0  0  0  3  0  0  0  0  0  0
  189.2460  175.5980  143.9220 N   0  0  0  0  0  0  0  0  0  0  0  0
  190.6570  175.8770  143.8990 C   0  0  0  0  0  0  0  0  0  0  0  0
  190.8880  174.2670  142.0030 C   0  0  0  0  0  0  0  0  0  0  0  0
  190.9580  170.9600  138.7550 N   0  0  0  0  0  0  0  0  0  0  0  0
  185.8670  179.0410  142.6160 C   0  0  0  0  0  2  0  0  0  0  0  0
  187.5820  177.3650  144.0060 C   0  0  2  0  0  3  0  0  0  0  0  0
  189.6890  171.3560  139.3050 C   0  0  0  0  0  3  0  0  0  0  0  0
  185.9980  177.6340  142.0110 C   0  0  0  0  0  2  0  0  0  0  0  0
  185.1870  177.8670  144.8090 C   0  0  1  0  0  3  0  0  0  0  0  0
  192.8530  175.5160  142.9300 C   0  0  0  0  0  2  0  0  0  0  0  0
  191.4760  175.2410  142.9500 C   0  0  0  0  0  0  0  0  0  0  0  0
  191.8040  173.4800  141.1160 C   0  0  0  0  0  3  0  0  0  0  0  0
  187.8210  175.9000  141.9590 C   0  0  0  0  0  2  0  0  0  0  0  0
  187.7120  172.8250  141.0030 O   0  0  0  0  0  0  0  0  0  0  0  0
  193.3290  171.5400  139.0200 C   0  0  0  0  0  1  0  0  0  0  0  0
  189.5360  174.0690  141.9680 C   0  0  0  0  0  0  0  0  0  0  0  0
  191.2850  172.5740  140.2900 C   0  0  0  0  0  0  0  0  0  0  0  0
  184.4910  178.2310  146.1050 C   0  0  0  0  0  2  0  0  0  0  0  0
  185.4850  178.2870  147.2120 C   0  0  0  0  0  0  0  0  0  0  0  0
  185.8820  179.3990  147.6440 O   0  0  0  0  0  0  0  0  0  0  0  0
  185.9450  177.1130  147.7930 O   0  0  0  0  0  1  0  0  0  0  0  0
  1 16  1  6  0  0  0
  1 20  1  0  0  0  0
  1 10  1  0  0  0  0
  2 12  1  0  0  0  0
  3 11  1  0  0  0  0
  4  3  2  0  0  0  0
  5 27  1  0  0  0  0
  6 28  1  0  0  0  0
  6  5  1  0  0  0  0
  7 24  1  6  0  0  0
  7 17  1  0  0  0  0
  9 28  1  0  0  0  0
 12  8  1  0  0  0  0
 13 12  1  0  0  0  0
 13 11  2  0  0  0  0
 14 22  2  0  0  0  0
 15 18  1  0  0  0  0
 15  9  2  0  0  0  0
 17  8  1  0  0  0  0
 17 10  1  0  0  0  0
 18  6  2  0  0  0  0
 19 16  1  0  0  0  0
 19  7  1  0  0  0  0
 20 10  1  0  0  0  0
 20 29  1  0  0  0  0
 21 22  1  0  0  0  0
 21  4  1  0  0  0  0
 22 13  1  0  0  0  0
 23 14  1  0  0  0  0
 24  2  1  0  0  0  0
 25  5  2  0  0  0  0
 26  9  1  0  0  0  0
 27 14  1  0  0  0  0
 27  2  2  0  0  0  0
 28 23  2  0  0  0  0
 29 30  1  0  0  0  0
 30 31  2  0  0  0  0
 30 32  1  0  0  0  0
M  END
>  <MODEL>
7

>  <REMARK>
 VINA RESULT:      -8.4      3.707      7.600
  Name = 
  2 active torsions:
  status: ('A' for Active; 'I' for Inactive)
    1  A    between atoms: C_20  and  C_29
    2  A    between atoms: C_29  and  C_30
                            x       y       z     vdW  Elec       q    Type
                         _______ _______ _______ _____ _____    ______ ____

>  <TORSDO>
F 2

$$$$
=
 OpenBabel11112416333D

 32 38  0  0  1  0  0  0  0  0999 V2000
  194.9120  172.3380  144.4420 C   0  0  1  0  0  3  0  0  0  0  0  0
  190.0340  174.2470  145.1640 C   0  0  0  0  0  0  0  0  0  0  0  0
  189.1930  173.7910  140.3000 C   0  0  0  0  0  3  0  0  0  0  0  0
  188.3500  174.9030  140.3330 C   0  0  0  0  0  3  0  0  0  0  0  0
  188.5820  175.9110  146.4920 C   0  0  0  0  0  0  0  0  0  0  0  0
  187.5660  176.9580  146.4700 C   0  0  0  0  0  0  0  0  0  0  0  0
  192.4670  173.7760  145.4260 C   0  0  1  0  0  3  0  0  0  0  0  0
  191.0540  172.3670  143.9000 C   0  0  0  0  0  2  0  0  0  0  0  0
  186.0280  178.3810  145.5990 C   0  0  0  0  0  0  0  0  0  0  0  0
  193.5160  171.8520  144.0470 C   0  0  2  0  0  3  0  0  0  0  0  0
  189.7590  173.3100  141.4820 C   0  0  0  0  0  3  0  0  0  0  0  0
  190.0720  173.4510  143.9310 N   0  0  0  0  0  0  0  0  0  0  0  0
  189.4900  173.9390  142.7090 C   0  0  0  0  0  0  0  0  0  0  0  0
  188.3220  175.7030  144.0370 C   0  0  0  0  0  0  0  0  0  0  0  0
  186.0650  178.5880  146.8800 N   0  0  0  0  0  0  0  0  0  0  0  0
  194.9730  173.8310  144.8380 C   0  0  0  0  0  2  0  0  0  0  0  0
  192.4430  172.9550  144.1220 C   0  0  2  0  0  3  0  0  0  0  0  0
  187.0380  177.6900  147.4420 C   0  0  0  0  0  2  0  0  0  0  0  0
  193.8470  174.3560  145.7430 C   0  0  0  0  0  2  0  0  0  0  0  0
  194.1120  171.4670  145.3980 C   0  0  1  0  0  3  0  0  0  0  0  0
  188.0710  175.5300  141.5490 C   0  0  0  0  0  2  0  0  0  0  0  0
  188.6380  175.0570  142.7440 C   0  0  0  0  0  0  0  0  0  0  0  0
  187.2840  176.7830  144.0690 C   0  0  0  0  0  2  0  0  0  0  0  0
  191.4080  174.8740  145.4030 C   0  0  0  0  0  2  0  0  0  0  0  0
  189.1230  175.5480  147.5720 O   0  0  0  0  0  0  0  0  0  0  0  0
  185.1340  179.1270  144.6720 C   0  0  0  0  0  1  0  0  0  0  0  0
  188.9440  175.2940  145.1830 C   0  0  0  0  0  0  0  0  0  0  0  0
  186.9660  177.3420  145.2340 C   0  0  0  0  0  0  0  0  0  0  0  0
  194.6250  170.0420  145.3290 C   0  0  0  0  0  2  0  0  0  0  0  0
  195.2400  169.6640  146.6310 C   0  0  0  0  0  0  0  0  0  0  0  0
  194.5670  169.0330  147.4850 O   0  0  0  0  0  1  0  0  0  0  0  0
  196.5690  169.9750  146.8880 O   0  0  0  0  0  0  0  0  0  0  0  0
  1 16  1  1  0  0  0
  1 20  1  0  0  0  0
  2 27  2  0  0  0  0
  2 24  1  0  0  0  0
  3  4  2  0  0  0  0
  3 11  1  0  0  0  0
  4 21  1  0  0  0  0
  5 25  2  0  0  0  0
  6  5  1  0  0  0  0
  6 18  1  0  0  0  0
  7 24  1  6  0  0  0
  7 19  1  0  0  0  0
  8 12  1  0  0  0  0
  8 17  1  0  0  0  0
  9 15  2  0  0  0  0
 10 17  1  0  0  0  0
 10  1  1  0  0  0  0
 10 20  1  0  0  0  0
 11 13  2  0  0  0  0
 12  2  1  0  0  0  0
 13 22  1  0  0  0  0
 13 12  1  0  0  0  0
 14 23  1  0  0  0  0
 14 27  1  0  0  0  0
 15 18  1  0  0  0  0
 16 19  1  0  0  0  0
 17  7  1  0  0  0  0
 21 22  1  0  0  0  0
 22 14  2  0  0  0  0
 23 28  1  0  0  0  0
 26  9  1  0  0  0  0
 27  5  1  0  0  0  0
 28  9  1  0  0  0  0
 28  6  2  0  0  0  0
 29 20  1  0  0  0  0
 29 30  1  0  0  0  0
 30 32  2  0  0  0  0
 30 31  1  0  0  0  0
M  END
>  <MODEL>
8

>  <REMARK>
 VINA RESULT:      -8.3      3.150      5.678
  Name = 
  2 active torsions:
  status: ('A' for Active; 'I' for Inactive)
    1  A    between atoms: C_20  and  C_29
    2  A    between atoms: C_29  and  C_30
                            x       y       z     vdW  Elec       q    Type
                         _______ _______ _______ _____ _____    ______ ____

>  <TORSDO>
F 2

$$$$
=
 OpenBabel11112416333D

 32 38  0  0  1  0  0  0  0  0999 V2000
  186.6010  176.7130  145.9020 C   0  0  1  0  0  3  0  0  0  0  0  0
  191.3480  176.1160  143.6500 C   0  0  0  0  0  0  0  0  0  0  0  0
  189.4100  172.7350  140.5850 C   0  0  0  0  0  3  0  0  0  0  0  0
  190.6280  172.0540  140.5530 C   0  0  0  0  0  3  0  0  0  0  0  0
  193.8940  176.0700  144.0470 C   0  0  0  0  0  0  0  0  0  0  0  0
  195.1680  175.3920  143.8310 C   0  0  0  0  0  0  0  0  0  0  0  0
  189.5390  176.5730  145.3020 C   0  0  1  0  0  3  0  0  0  0  0  0
  189.0060  176.3580  142.8560 C   0  0  0  0  0  2  0  0  0  0  0  0
  196.6170  173.8360  143.0390 C   0  0  0  0  0  0  0  0  0  0  0  0
  187.0990  176.7560  144.4550 C   0  0  2  0  0  3  0  0  0  0  0  0
  189.3010  173.9340  141.2920 C   0  0  0  0  0  3  0  0  0  0  0  0
  190.3020  175.6960  142.7090 N   0  0  0  0  0  0  0  0  0  0  0  0
  190.4080  174.4620  141.9760 C   0  0  0  0  0  0  0  0  0  0  0  0
  192.8160  174.3460  142.6310 C   0  0  0  0  0  0  0  0  0  0  0  0
  197.3020  174.6730  143.7560 N   0  0  0  0  0  0  0  0  0  0  0  0
  187.5830  176.0410  146.8880 C   0  0  0  0  0  2  0  0  0  0  0  0
  188.4890  176.1170  144.2710 C   0  0  2  0  0  3  0  0  0  0  0  0
  196.3920  175.6650  144.2630 C   0  0  0  0  0  2  0  0  0  0  0  0
  189.0690  176.4090  146.7480 C   0  0  0  0  0  2  0  0  0  0  0  0
  187.1020  178.0210  145.3100 C   0  0  1  0  0  3  0  0  0  0  0  0
  191.7360  172.5750  141.2250 C   0  0  0  0  0  2  0  0  0  0  0  0
  191.6360  173.7790  141.9410 C   0  0  0  0  0  0  0  0  0  0  0  0
  194.1480  173.6880  142.4400 C   0  0  0  0  0  2  0  0  0  0  0  0
  190.8720  175.8620  145.0800 C   0  0  0  0  0  2  0  0  0  0  0  0
  193.8210  177.1150  144.7490 O   0  0  0  0  0  0  0  0  0  0  0  0
  197.2180  172.6640  142.3450 C   0  0  0  0  0  1  0  0  0  0  0  0
  192.6910  175.4700  143.3990 C   0  0  0  0  0  0  0  0  0  0  0  0
  195.2210  174.2160  143.0260 C   0  0  0  0  0  0  0  0  0  0  0  0
  185.9180  178.8850  144.9250 C   0  0  0  0  0  2  0  0  0  0  0  0
  185.0070  179.0420  146.0920 C   0  0  0  0  0  0  0  0  0  0  0  0
  183.7780  178.8040  145.9680 O   0  0  0  0  0  0  0  0  0  0  0  0
  185.5190  179.4170  147.3280 O   0  0  0  0  0  1  0  0  0  0  0  0
  1 16  1  1  0  0  0
  2 24  1  0  0  0  0
  3 11  1  0  0  0  0
  4  3  2  0  0  0  0
  4 21  1  0  0  0  0
  5 25  2  0  0  0  0
  6  5  1  0  0  0  0
  6 18  1  0  0  0  0
  7 24  1  1  0  0  0
  7 19  1  0  0  0  0
  8 17  1  0  0  0  0
  9 15  2  0  0  0  0
 10 20  1  0  0  0  0
 10  1  1  0  0  0  0
 11 13  2  0  0  0  0
 12  8  1  0  0  0  0
 12  2  1  0  0  0  0
 13 12  1  0  0  0  0
 14 27  1  0  0  0  0
 15 18  1  0  0  0  0
 17 10  1  0  0  0  0
 17  7  1  0  0  0  0
 19 16  1  0  0  0  0
 20  1  1  0  0  0  0
 21 22  1  0  0  0  0
 22 13  1  0  0  0  0
 22 14  2  0  0  0  0
 23 14  1  0  0  0  0
 23 28  1  0  0  0  0
 26  9  1  0  0  0  0
 27  2  2  0  0  0  0
 27  5  1  0  0  0  0
 28  9  1  0  0  0  0
 28  6  2  0  0  0  0
 29 20  1  0  0  0  0
 29 30  1  0  0  0  0
 30 32  1  0  0  0  0
 31 30  2  0  0  0  0
M  END
>  <MODEL>
9

>  <REMARK>
 VINA RESULT:      -8.2      3.387      8.899
  Name = 
  2 active torsions:
  status: ('A' for Active; 'I' for Inactive)
    1  A    between atoms: C_20  and  C_29
    2  A    between atoms: C_29  and  C_30
                            x       y       z     vdW  Elec       q    Type
                         _______ _______ _______ _____ _____    ______ ____

>  <TORSDO>
F 2

$$$$
