=
 OpenBabel11112418073D

 34 37  0  0  1  0  0  0  0  0999 V2000
  186.7950  177.2360  146.3890 C   0  0  2  0  0  3  0  0  0  0  0  0
  188.3280  175.5040  147.3440 C   0  0  0  0  0  2  0  0  0  0  0  0
  185.2600  178.5720  144.9810 C   0  0  0  0  0  2  0  0  0  0  0  0
  189.3070  177.0690  145.7150 C   0  0  2  0  0  3  0  0  0  0  0  0
  191.8060  176.5990  144.2710 C   0  0  0  0  0  2  0  0  0  0  0  0
  188.8320  177.0800  144.2370 C   0  0  1  0  0  3  0  0  0  0  0  0
  189.4890  174.8380  146.6320 C   0  0  0  0  0  2  0  0  0  0  0  0
  191.0830  175.4790  144.8640 N   0  0  0  0  0  0  0  0  0  0  0  0
  186.7340  178.2210  145.2240 C   0  0  2  0  0  3  0  0  0  0  0  0
  187.3620  177.5270  144.0150 C   0  0  1  0  0  3  0  0  0  0  0  0
  184.6100  178.1810  147.1080 C   0  0  0  0  0  2  0  0  0  0  0  0
  191.0610  177.0870  143.0390 C   0  0  0  0  0  2  0  0  0  0  0  0
  184.7190  179.1830  146.1260 O   0  0  0  0  0  0  0  0  0  0  0  0
  189.8330  177.9010  143.4230 C   0  0  0  0  0  2  0  0  0  0  0  0
  190.3200  175.9570  146.0270 C   0  0  1  0  0  3  0  0  0  0  0  0
  186.0010  177.7620  147.5840 C   0  0  0  0  0  2  0  0  0  0  0  0
  188.2300  176.9200  146.8000 C   0  0  1  0  0  3  0  0  0  0  0  0
  187.0570  178.1790  142.6560 C   0  0  0  0  0  2  0  0  0  0  0  0
  186.4320  177.1960  141.6740 C   0  0  0  0  0  2  0  0  0  0  0  0
  186.8940  176.4910  139.4350 O   0  0  0  0  0  1  0  0  0  0  0  0
  187.4770  176.7050  140.6870 C   0  0  2  0  0  3  0  0  0  0  0  0
  188.1260  175.4240  141.2050 C   0  0  1  0  0  3  0  0  0  0  0  0
  187.2380  174.7210  142.0210 O   0  0  0  0  0  1  0  0  0  0  0  0
  188.5730  174.5310  140.0550 C   0  0  0  0  0  2  0  0  0  0  0  0
  188.2400  173.0730  140.3310 C   0  0  0  0  0  2  0  0  0  0  0  0
  188.3070  172.3320  139.1510 O   0  0  0  0  0  0  0  0  0  0  0  0
  188.3440  173.2900  138.1380 C   0  0  0  0  0  1  0  0  0  0  0  0
  192.1090  174.5640  145.3470 C   0  0  0  0  0  2  0  0  0  0  0  0
  192.5700  173.7250  144.2530 N   0  0  0  0  0  2  0  0  0  0  0  0
  192.0870  172.3770  144.5120 C   0  0  1  0  0  3  0  0  0  0  0  0
  189.6890  172.1160  144.5520 O   0  0  0  0  0  1  0  0  0  0  0  0
  190.8130  172.0860  143.7240 C   0  0  0  0  0  2  0  0  0  0  0  0
  193.3860  171.1160  144.2240 S   0  0  0  0  0  0  0  0  0  0  0  0
  194.4340  171.5840  145.6370 C   0  0  0  0  0  1  0  0  0  0  0  0
  1 17  1  0  0  0  0
  1 16  1  1  0  0  0
  3  9  1  0  0  0  0
  3 13  1  0  0  0  0
  4 15  1  0  0  0  0
  4 17  1  0  0  0  0
  5  8  1  0  0  0  0
  6  4  1  0  0  0  0
  7  2  1  0  0  0  0
  8 28  1  0  0  0  0
  8 15  1  0  0  0  0
  9  1  1  0  0  0  0
 10  6  1  0  0  0  0
 10  9  1  0  0  0  0
 11 16  1  0  0  0  0
 12 14  1  0  0  0  0
 12  5  1  0  0  0  0
 13 11  1  0  0  0  0
 14  6  1  0  0  0  0
 15  7  1  0  0  0  0
 17  2  1  0  0  0  0
 18 10  1  0  0  0  0
 19 18  1  0  0  0  0
 20 21  1  0  0  0  0
 21 22  1  0  0  0  0
 21 19  1  0  0  0  0
 22 23  1  0  0  0  0
 24 25  1  0  0  0  0
 24 22  1  0  0  0  0
 26 25  1  0  0  0  0
 27 26  1  0  0  0  0
 29 30  1  0  0  0  0
 29 28  1  0  0  0  0
 32 30  1  0  0  0  0
 32 31  1  0  0  0  0
 33 30  1  0  0  0  0
 33 34  1  0  0  0  0
M  END
>  <MODEL>
1

>  <REMARK>
 VINA RESULT:      -6.7      0.000      0.000
  Name = 
  12 active torsions:
  status: ('A' for Active; 'I' for Inactive)
    1  A    between atoms: C_3  and  C_16
    2  A    between atoms: C_3  and  C_19
    3  A    between atoms: C_5  and  C_11
    4  A    between atoms: C_5  and  C_19
    5  A    between atoms: C_8  and  O_12
    6  A    between atoms: C_8  and  C_16
    7  A    between atoms: C_11  and  C_20
    8  A    between atoms: N_17  and  C_28
    9  A    between atoms: C_28  and  N_29
   10  A    between atoms: N_29  and  C_32
   11  A    between atoms: S_31  and  C_32
   12  A    between atoms: C_32  and  C_34
                            x       y       z     vdW  Elec       q    Type
                         _______ _______ _______ _____ _____    ______ ____

>  <TORSDO>
F 12

$$$$
=
 OpenBabel11112418073D

 34 37  0  0  1  0  0  0  0  0999 V2000
  186.7990  177.1460  146.2400 C   0  0  2  0  0  3  0  0  0  0  0  0
  188.4330  175.5330  147.2350 C   0  0  0  0  0  2  0  0  0  0  0  0
  185.2180  178.3740  144.7860 C   0  0  0  0  0  2  0  0  0  0  0  0
  189.3440  177.2110  145.6820 C   0  0  2  0  0  3  0  0  0  0  0  0
  191.9370  176.9910  144.3490 C   0  0  0  0  0  2  0  0  0  0  0  0
  188.9370  177.2130  144.1830 C   0  0  1  0  0  3  0  0  0  0  0  0
  189.6790  174.9840  146.5670 C   0  0  0  0  0  2  0  0  0  0  0  0
  191.2890  175.8000  144.8870 N   0  0  0  0  0  0  0  0  0  0  0  0
  186.7050  178.1470  145.0920 C   0  0  2  0  0  3  0  0  0  0  0  0
  187.4450  177.5360  143.9010 C   0  0  1  0  0  3  0  0  0  0  0  0
  184.5100  177.8820  146.8730 C   0  0  0  0  0  2  0  0  0  0  0  0
  191.2080  177.4390  143.0920 C   0  0  0  0  0  2  0  0  0  0  0  0
  184.5750  178.9110  145.9150 O   0  0  0  0  0  0  0  0  0  0  0  0
  189.8990  178.1360  143.4320 C   0  0  0  0  0  2  0  0  0  0  0  0
  190.4350  176.1850  146.0210 C   0  0  1  0  0  3  0  0  0  0  0  0
  185.9090  177.5750  147.4060 C   0  0  0  0  0  2  0  0  0  0  0  0
  188.2360  176.9460  146.7120 C   0  0  1  0  0  3  0  0  0  0  0  0
  187.1460  178.1890  142.5420 C   0  0  0  0  0  2  0  0  0  0  0  0
  186.4400  177.2330  141.5880 C   0  0  0  0  0  2  0  0  0  0  0  0
  186.7820  177.2010  139.2200 O   0  0  0  0  0  1  0  0  0  0  0  0
  187.3650  176.8570  140.4430 C   0  0  2  0  0  3  0  0  0  0  0  0
  187.6750  175.3630  140.4890 C   0  0  1  0  0  3  0  0  0  0  0  0
  187.9970  174.8900  139.2150 O   0  0  0  0  0  1  0  0  0  0  0  0
  188.8250  175.0700  141.4440 C   0  0  0  0  0  2  0  0  0  0  0  0
  188.7620  173.6400  141.9560 C   0  0  0  0  0  2  0  0  0  0  0  0
  189.8280  173.3900  142.8220 O   0  0  0  0  0  0  0  0  0  0  0  0
  189.4100  172.3020  143.5860 C   0  0  0  0  0  1  0  0  0  0  0  0
  192.3680  174.9670  145.4010 C   0  0  0  0  0  2  0  0  0  0  0  0
  192.7720  174.0090  144.3850 N   0  0  0  0  0  2  0  0  0  0  0  0
  194.2280  173.9810  144.3760 C   0  0  1  0  0  3  0  0  0  0  0  0
  194.8950  175.7960  142.9360 O   0  0  0  0  0  1  0  0  0  0  0  0
  194.7810  174.4080  143.0210 C   0  0  0  0  0  2  0  0  0  0  0  0
  194.9390  174.9550  145.7570 S   0  0  0  0  0  0  0  0  0  0  0  0
  196.5440  174.0980  145.8010 C   0  0  0  0  0  1  0  0  0  0  0  0
  1 17  1  0  0  0  0
  1 16  1  1  0  0  0
  3  9  1  0  0  0  0
  3 13  1  0  0  0  0
  4 15  1  0  0  0  0
  4 17  1  0  0  0  0
  5  8  1  0  0  0  0
  6  4  1  0  0  0  0
  7  2  1  0  0  0  0
  8 28  1  0  0  0  0
  8 15  1  0  0  0  0
  9  1  1  0  0  0  0
 10  6  1  0  0  0  0
 10  9  1  0  0  0  0
 11 16  1  0  0  0  0
 12 14  1  0  0  0  0
 12  5  1  0  0  0  0
 13 11  1  0  0  0  0
 14  6  1  0  0  0  0
 15  7  1  0  0  0  0
 17  2  1  0  0  0  0
 18 10  1  0  0  0  0
 19 18  1  0  0  0  0
 20 21  1  0  0  0  0
 21 22  1  0  0  0  0
 21 19  1  0  0  0  0
 22 24  1  0  0  0  0
 23 22  1  0  0  0  0
 24 25  1  0  0  0  0
 25 26  1  0  0  0  0
 26 27  1  0  0  0  0
 29 28  1  0  0  0  0
 30 29  1  0  0  0  0
 30 33  1  0  0  0  0
 31 32  1  0  0  0  0
 32 30  1  0  0  0  0
 33 34  1  0  0  0  0
M  END
>  <MODEL>
2

>  <REMARK>
 VINA RESULT:      -6.7      1.793      2.224
  Name = 
  12 active torsions:
  status: ('A' for Active; 'I' for Inactive)
    1  A    between atoms: C_3  and  C_16
    2  A    between atoms: C_3  and  C_19
    3  A    between atoms: C_5  and  C_11
    4  A    between atoms: C_5  and  C_19
    5  A    between atoms: C_8  and  O_12
    6  A    between atoms: C_8  and  C_16
    7  A    between atoms: C_11  and  C_20
    8  A    between atoms: N_17  and  C_28
    9  A    between atoms: C_28  and  N_29
   10  A    between atoms: N_29  and  C_32
   11  A    between atoms: S_31  and  C_32
   12  A    between atoms: C_32  and  C_34
                            x       y       z     vdW  Elec       q    Type
                         _______ _______ _______ _____ _____    ______ ____

>  <TORSDO>
F 12

$$$$
=
 OpenBabel11112418073D

 34 37  0  0  1  0  0  0  0  0999 V2000
  186.0960  177.5850  144.1320 C   0  0  2  0  0  3  0  0  0  0  0  0
  186.6020  177.0680  141.7360 C   0  0  0  0  0  2  0  0  0  0  0  0
  186.1620  178.2910  146.5030 C   0  0  0  0  0  2  0  0  0  0  0  0
  187.4070  175.4520  143.4100 C   0  0  2  0  0  3  0  0  0  0  0  0
  189.4990  173.4700  142.9150 C   0  0  0  0  0  2  0  0  0  0  0  0
  188.4860  175.8560  144.4510 C   0  0  1  0  0  3  0  0  0  0  0  0
  187.8340  176.3610  141.2080 C   0  0  0  0  0  2  0  0  0  0  0  0
  189.3860  174.6420  142.0550 N   0  0  0  0  0  0  0  0  0  0  0  0
  186.5360  177.1630  145.5310 C   0  0  2  0  0  3  0  0  0  0  0  0
  188.0470  176.9340  145.4780 C   0  0  1  0  0  3  0  0  0  0  0  0
  184.4420  179.0610  145.2600 C   0  0  0  0  0  2  0  0  0  0  0  0
  190.0620  173.8850  144.2650 C   0  0  0  0  0  2  0  0  0  0  0  0
  184.7690  178.4820  146.5000 O   0  0  0  0  0  0  0  0  0  0  0  0
  189.0060  174.5790  145.1140 C   0  0  0  0  0  2  0  0  0  0  0  0
  187.9870  175.0930  142.0330 C   0  0  1  0  0  3  0  0  0  0  0  0
  184.6370  178.0400  144.1380 C   0  0  0  0  0  2  0  0  0  0  0  0
  186.3040  176.4770  143.1050 C   0  0  1  0  0  3  0  0  0  0  0  0
  188.7490  176.8840  146.8450 C   0  0  0  0  0  2  0  0  0  0  0  0
  190.1410  177.4990  146.8000 C   0  0  0  0  0  2  0  0  0  0  0  0
  191.5620  177.2670  148.7100 O   0  0  0  0  0  1  0  0  0  0  0  0
  191.1280  176.6210  147.5500 C   0  0  2  0  0  3  0  0  0  0  0  0
  192.3130  176.2770  146.6500 C   0  0  1  0  0  3  0  0  0  0  0  0
  192.5190  174.8970  146.6180 O   0  0  0  0  0  1  0  0  0  0  0  0
  192.0940  176.7900  145.2330 C   0  0  0  0  0  2  0  0  0  0  0  0
  193.0190  176.0930  144.2480 C   0  0  0  0  0  2  0  0  0  0  0  0
  192.6100  176.3500  142.9390 O   0  0  0  0  0  0  0  0  0  0  0  0
  191.6080  177.3110  143.0670 C   0  0  0  0  0  1  0  0  0  0  0  0
  189.7290  174.1790  140.7170 C   0  0  0  0  0  2  0  0  0  0  0  0
  189.3280  172.7900  140.5620 N   0  0  0  0  0  2  0  0  0  0  0  0
  188.8840  172.6230  139.1860 C   0  0  1  0  0  3  0  0  0  0  0  0
  187.8880  174.3750  137.8620 O   0  0  0  0  0  1  0  0  0  0  0  0
  189.0940  173.8990  138.3780 C   0  0  0  0  0  2  0  0  0  0  0  0
  189.6520  171.1600  138.3920 S   0  0  0  0  0  0  0  0  0  0  0  0
  190.6870  170.6820  139.8110 C   0  0  0  0  0  1  0  0  0  0  0  0
  1 16  1  1  0  0  0
  1  9  1  0  0  0  0
  2 17  1  0  0  0  0
  4  6  1  0  0  0  0
  5 12  1  0  0  0  0
  6 14  1  0  0  0  0
  6 10  1  0  0  0  0
  7  2  1  0  0  0  0
  7 15  1  0  0  0  0
  8  5  1  0  0  0  0
  9  3  1  0  0  0  0
 10  9  1  0  0  0  0
 10 18  1  0  0  0  0
 11 13  1  0  0  0  0
 12 14  1  0  0  0  0
 13  3  1  0  0  0  0
 15  8  1  0  0  0  0
 15  4  1  0  0  0  0
 16 11  1  0  0  0  0
 17  4  1  0  0  0  0
 17  1  1  0  0  0  0
 19 18  1  0  0  0  0
 19 21  1  0  0  0  0
 21 20  1  0  0  0  0
 22 21  1  0  0  0  0
 23 22  1  0  0  0  0
 24 22  1  0  0  0  0
 25 24  1  0  0  0  0
 26 27  1  0  0  0  0
 26 25  1  0  0  0  0
 28  8  1  0  0  0  0
 29 28  1  0  0  0  0
 30 29  1  0  0  0  0
 31 32  1  0  0  0  0
 32 30  1  0  0  0  0
 33 30  1  0  0  0  0
 33 34  1  0  0  0  0
M  END
>  <MODEL>
3

>  <REMARK>
 VINA RESULT:      -6.4      2.694      5.443
  Name = 
  12 active torsions:
  status: ('A' for Active; 'I' for Inactive)
    1  A    between atoms: C_3  and  C_16
    2  A    between atoms: C_3  and  C_19
    3  A    between atoms: C_5  and  C_11
    4  A    between atoms: C_5  and  C_19
    5  A    between atoms: C_8  and  O_12
    6  A    between atoms: C_8  and  C_16
    7  A    between atoms: C_11  and  C_20
    8  A    between atoms: N_17  and  C_28
    9  A    between atoms: C_28  and  N_29
   10  A    between atoms: N_29  and  C_32
   11  A    between atoms: S_31  and  C_32
   12  A    between atoms: C_32  and  C_34
                            x       y       z     vdW  Elec       q    Type
                         _______ _______ _______ _____ _____    ______ ____

>  <TORSDO>
F 12

$$$$
=
 OpenBabel11112418073D

 34 37  0  0  1  0  0  0  0  0999 V2000
  190.3490  175.0430  145.9850 C   0  0  2  0  0  3  0  0  0  0  0  0
  190.3050  172.9310  144.6430 C   0  0  0  0  0  2  0  0  0  0  0  0
  189.8000  177.0470  147.3280 C   0  0  0  0  0  2  0  0  0  0  0  0
  189.7350  175.0090  143.4520 C   0  0  2  0  0  3  0  0  0  0  0  0
  188.3050  175.1110  140.9040 C   0  0  0  0  0  2  0  0  0  0  0  0
  188.4640  175.8190  143.8290 C   0  0  1  0  0  3  0  0  0  0  0  0
  189.3740  172.6170  143.4880 C   0  0  0  0  0  2  0  0  0  0  0  0
  188.2210  173.9200  141.7410 N   0  0  0  0  0  0  0  0  0  0  0  0
  189.8570  176.4850  145.9010 C   0  0  2  0  0  3  0  0  0  0  0  0
  188.4760  176.4520  145.2460 C   0  0  1  0  0  3  0  0  0  0  0  0
  191.4080  175.6870  148.1410 C   0  0  0  0  0  2  0  0  0  0  0  0
  187.4860  176.2290  141.5310 C   0  0  0  0  0  2  0  0  0  0  0  0
  191.0860  177.0350  147.8980 O   0  0  0  0  0  0  0  0  0  0  0  0
  188.2100  176.8430  142.7210 C   0  0  0  0  0  2  0  0  0  0  0  0
  189.4490  173.8050  142.5430 C   0  0  1  0  0  3  0  0  0  0  0  0
  191.6280  174.9550  146.8160 C   0  0  0  0  0  2  0  0  0  0  0  0
  190.5660  174.4280  144.6060 C   0  0  1  0  0  3  0  0  0  0  0  0
  187.6420  177.7320  145.4150 C   0  0  0  0  0  2  0  0  0  0  0  0
  186.1990  177.4320  145.8000 C   0  0  0  0  0  2  0  0  0  0  0  0
  184.4840  178.5690  147.0210 O   0  0  0  0  0  1  0  0  0  0  0  0
  185.4300  178.7260  146.0050 C   0  0  2  0  0  3  0  0  0  0  0  0
  184.7550  179.1470  144.7020 C   0  0  1  0  0  3  0  0  0  0  0  0
  185.4230  180.2320  144.1320 O   0  0  0  0  0  1  0  0  0  0  0  0
  184.7160  177.9950  143.7070 C   0  0  0  0  0  2  0  0  0  0  0  0
  183.7500  178.2850  142.5680 C   0  0  0  0  0  2  0  0  0  0  0  0
  184.3770  178.0790  141.3390 O   0  0  0  0  0  0  0  0  0  0  0  0
  183.3590  178.2240  140.3980 C   0  0  0  0  0  1  0  0  0  0  0  0
  188.1830  172.7950  140.8160 C   0  0  0  0  0  2  0  0  0  0  0  0
  189.3470  172.8380  139.9450 N   0  0  0  0  0  2  0  0  0  0  0  0
  188.9990  172.1200  138.7280 C   0  0  1  0  0  3  0  0  0  0  0  0
  190.0120  174.0110  137.6250 O   0  0  0  0  0  1  0  0  0  0  0  0
  189.0080  173.0470  137.5170 C   0  0  0  0  0  2  0  0  0  0  0  0
  190.0530  170.6410  138.4800 S   0  0  0  0  0  0  0  0  0  0  0  0
  189.8980  170.5840  136.6680 C   0  0  0  0  0  1  0  0  0  0  0  0
  1 16  1  1  0  0  0
  3 13  1  0  0  0  0
  4  6  1  0  0  0  0
  4 17  1  0  0  0  0
  5 12  1  0  0  0  0
  5  8  1  0  0  0  0
  6 10  1  0  0  0  0
  7  2  1  0  0  0  0
  8 15  1  0  0  0  0
  9  1  1  0  0  0  0
  9  3  1  0  0  0  0
 10 18  1  0  0  0  0
 10  9  1  0  0  0  0
 12 14  1  0  0  0  0
 13 11  1  0  0  0  0
 14  6  1  0  0  0  0
 15  4  1  0  0  0  0
 15  7  1  0  0  0  0
 16 11  1  0  0  0  0
 17  2  1  0  0  0  0
 17  1  1  0  0  0  0
 18 19  1  0  0  0  0
 19 21  1  0  0  0  0
 21 20  1  0  0  0  0
 22 21  1  0  0  0  0
 23 22  1  0  0  0  0
 24 22  1  0  0  0  0
 25 24  1  0  0  0  0
 26 25  1  0  0  0  0
 27 26  1  0  0  0  0
 28  8  1  0  0  0  0
 29 28  1  0  0  0  0
 30 29  1  0  0  0  0
 32 31  1  0  0  0  0
 32 30  1  0  0  0  0
 33 30  1  0  0  0  0
 34 33  1  0  0  0  0
M  END
>  <MODEL>
4

>  <REMARK>
 VINA RESULT:      -6.4      2.676      5.707
  Name = 
  12 active torsions:
  status: ('A' for Active; 'I' for Inactive)
    1  A    between atoms: C_3  and  C_16
    2  A    between atoms: C_3  and  C_19
    3  A    between atoms: C_5  and  C_11
    4  A    between atoms: C_5  and  C_19
    5  A    between atoms: C_8  and  O_12
    6  A    between atoms: C_8  and  C_16
    7  A    between atoms: C_11  and  C_20
    8  A    between atoms: N_17  and  C_28
    9  A    between atoms: C_28  and  N_29
   10  A    between atoms: N_29  and  C_32
   11  A    between atoms: S_31  and  C_32
   12  A    between atoms: C_32  and  C_34
                            x       y       z     vdW  Elec       q    Type
                         _______ _______ _______ _____ _____    ______ ____

>  <TORSDO>
F 12

$$$$
=
 OpenBabel11112418073D

 34 37  0  0  1  0  0  0  0  0999 V2000
  186.0960  177.6000  144.2440 C   0  0  2  0  0  3  0  0  0  0  0  0
  186.5680  177.2350  141.8130 C   0  0  0  0  0  2  0  0  0  0  0  0
  186.1950  178.1590  146.6520 C   0  0  0  0  0  2  0  0  0  0  0  0
  187.4110  175.5260  143.3710 C   0  0  2  0  0  3  0  0  0  0  0  0
  189.5090  173.5950  142.7230 C   0  0  0  0  0  2  0  0  0  0  0  0
  188.5030  175.8740  144.4180 C   0  0  1  0  0  3  0  0  0  0  0  0
  187.7960  176.5720  141.2230 C   0  0  0  0  0  2  0  0  0  0  0  0
  189.3740  174.8170  141.9390 N   0  0  0  0  0  0  0  0  0  0  0  0
  186.5610  177.0960  145.6070 C   0  0  2  0  0  3  0  0  0  0  0  0
  188.0720  176.8830  145.5170 C   0  0  1  0  0  3  0  0  0  0  0  0
  184.4500  178.9900  145.4850 C   0  0  0  0  0  2  0  0  0  0  0  0
  190.0900  173.9310  144.0870 C   0  0  0  0  0  2  0  0  0  0  0  0
  184.8000  178.3390  146.6820 O   0  0  0  0  0  0  0  0  0  0  0  0
  189.0430  174.5620  144.9930 C   0  0  0  0  0  2  0  0  0  0  0  0
  187.9710  175.2570  141.9660 C   0  0  1  0  0  3  0  0  0  0  0  0
  184.6340  178.0420  144.3000 C   0  0  0  0  0  2  0  0  0  0  0  0
  186.2960  176.5590  143.1470 C   0  0  1  0  0  3  0  0  0  0  0  0
  188.7960  176.7540  146.8670 C   0  0  0  0  0  2  0  0  0  0  0  0
  190.1640  177.4240  146.8530 C   0  0  0  0  0  2  0  0  0  0  0  0
  191.5890  177.4730  148.7740 O   0  0  0  0  0  1  0  0  0  0  0  0
  191.1330  176.6560  147.7350 C   0  0  2  0  0  3  0  0  0  0  0  0
  192.3050  176.1410  146.9020 C   0  0  1  0  0  3  0  0  0  0  0  0
  192.3160  174.7450  146.8840 O   0  0  0  0  0  1  0  0  0  0  0  0
  192.2370  176.6670  145.4750 C   0  0  0  0  0  2  0  0  0  0  0  0
  193.2170  175.9340  144.5730 C   0  0  0  0  0  2  0  0  0  0  0  0
  194.4520  176.5840  144.5730 O   0  0  0  0  0  0  0  0  0  0  0  0
  195.3570  175.6160  145.0060 C   0  0  0  0  0  1  0  0  0  0  0  0
  189.6990  174.4400  140.5700 C   0  0  0  0  0  2  0  0  0  0  0  0
  190.1170  173.0480  140.5310 N   0  0  0  0  0  2  0  0  0  0  0  0
  189.9780  172.5960  139.1550 C   0  0  1  0  0  3  0  0  0  0  0  0
  190.6190  170.5330  140.2280 O   0  0  0  0  0  1  0  0  0  0  0  0
  190.0870  171.0780  139.0580 C   0  0  0  0  0  2  0  0  0  0  0  0
  188.4470  173.2350  138.3750 S   0  0  0  0  0  0  0  0  0  0  0  0
  189.2450  173.9000  136.8810 C   0  0  0  0  0  1  0  0  0  0  0  0
  1 16  1  1  0  0  0
  1  9  1  0  0  0  0
  2 17  1  0  0  0  0
  3 13  1  0  0  0  0
  4  6  1  0  0  0  0
  5 12  1  0  0  0  0
  6 14  1  0  0  0  0
  6 10  1  0  0  0  0
  7  2  1  0  0  0  0
  7 15  1  0  0  0  0
  8 15  1  0  0  0  0
  8  5  1  0  0  0  0
  9  3  1  0  0  0  0
 10  9  1  0  0  0  0
 10 18  1  0  0  0  0
 11 13  1  0  0  0  0
 12 14  1  0  0  0  0
 15  4  1  0  0  0  0
 16 11  1  0  0  0  0
 17  4  1  0  0  0  0
 17  1  1  0  0  0  0
 19 18  1  0  0  0  0
 19 21  1  0  0  0  0
 21 20  1  0  0  0  0
 22 21  1  0  0  0  0
 23 22  1  0  0  0  0
 24 22  1  0  0  0  0
 25 24  1  0  0  0  0
 26 25  1  0  0  0  0
 26 27  1  0  0  0  0
 28  8  1  0  0  0  0
 29 28  1  0  0  0  0
 30 29  1  0  0  0  0
 32 30  1  0  0  0  0
 32 31  1  0  0  0  0
 33 30  1  0  0  0  0
 34 33  1  0  0  0  0
M  END
>  <MODEL>
5

>  <REMARK>
 VINA RESULT:      -6.0      2.928      5.770
  Name = 
  12 active torsions:
  status: ('A' for Active; 'I' for Inactive)
    1  A    between atoms: C_3  and  C_16
    2  A    between atoms: C_3  and  C_19
    3  A    between atoms: C_5  and  C_11
    4  A    between atoms: C_5  and  C_19
    5  A    between atoms: C_8  and  O_12
    6  A    between atoms: C_8  and  C_16
    7  A    between atoms: C_11  and  C_20
    8  A    between atoms: N_17  and  C_28
    9  A    between atoms: C_28  and  N_29
   10  A    between atoms: N_29  and  C_32
   11  A    between atoms: S_31  and  C_32
   12  A    between atoms: C_32  and  C_34
                            x       y       z     vdW  Elec       q    Type
                         _______ _______ _______ _____ _____    ______ ____

>  <TORSDO>
F 12

$$$$
=
 OpenBabel11112418073D

 34 37  0  0  1  0  0  0  0  0999 V2000
  192.2120  175.0270  144.6880 C   0  0  2  0  0  3  0  0  0  0  0  0
  191.8820  173.3130  142.8940 C   0  0  0  0  0  2  0  0  0  0  0  0
  192.0380  176.4800  146.6830 C   0  0  0  0  0  2  0  0  0  0  0  0
  190.5280  175.3620  142.7270 C   0  0  2  0  0  3  0  0  0  0  0  0
  188.1010  175.6090  141.1170 C   0  0  0  0  0  2  0  0  0  0  0  0
  189.4620  175.7010  143.8030 C   0  0  1  0  0  3  0  0  0  0  0  0
  190.5880  173.0090  142.1650 C   0  0  0  0  0  2  0  0  0  0  0  0
  188.5860  174.2900  141.5080 N   0  0  0  0  0  0  0  0  0  0  0  0
  191.5250  176.2670  145.2520 C   0  0  2  0  0  3  0  0  0  0  0  0
  190.0200  176.0010  145.2200 C   0  0  1  0  0  3  0  0  0  0  0  0
  194.0250  175.4650  146.3340 C   0  0  0  0  0  2  0  0  0  0  0  0
  187.4980  176.3060  142.3260 C   0  0  0  0  0  2  0  0  0  0  0  0
  193.4280  176.6950  146.6650 O   0  0  0  0  0  0  0  0  0  0  0  0
  188.5810  176.8280  143.2590 C   0  0  0  0  0  2  0  0  0  0  0  0
  190.0460  174.3450  141.6820 C   0  0  1  0  0  3  0  0  0  0  0  0
  193.7270  175.1150  144.8750 C   0  0  0  0  0  2  0  0  0  0  0  0
  191.8700  174.7980  143.2190 C   0  0  1  0  0  3  0  0  0  0  0  0
  189.1720  176.9440  146.0890 C   0  0  0  0  0  2  0  0  0  0  0  0
  187.8930  176.2780  146.5820 C   0  0  0  0  0  2  0  0  0  0  0  0
  186.1210  176.9500  148.0420 O   0  0  0  0  0  1  0  0  0  0  0  0
  186.8460  177.3280  146.9090 C   0  0  2  0  0  3  0  0  0  0  0  0
  185.9140  177.5280  145.7160 C   0  0  1  0  0  3  0  0  0  0  0  0
  184.5800  177.4890  146.1260 O   0  0  0  0  0  1  0  0  0  0  0  0
  186.1910  178.8510  145.0170 C   0  0  0  0  0  2  0  0  0  0  0  0
  184.9960  179.2960  144.1880 C   0  0  0  0  0  2  0  0  0  0  0  0
  185.2200  179.0300  142.8370 O   0  0  0  0  0  0  0  0  0  0  0  0
  184.1150  178.2780  142.4410 C   0  0  0  0  0  1  0  0  0  0  0  0
  188.3020  173.4180  140.3770 C   0  0  0  0  0  2  0  0  0  0  0  0
  188.5620  174.1280  139.1340 N   0  0  0  0  0  2  0  0  0  0  0  0
  189.5070  173.3250  138.3710 C   0  0  1  0  0  3  0  0  0  0  0  0
  190.4580  171.2510  139.1510 O   0  0  0  0  0  1  0  0  0  0  0  0
  189.3030  171.8360  138.6290 C   0  0  0  0  0  2  0  0  0  0  0  0
  189.4640  173.7340  136.5840 S   0  0  0  0  0  0  0  0  0  0  0  0
  189.6650  172.0270  135.9840 C   0  0  0  0  0  1  0  0  0  0  0  0
  1 16  1  6  0  0  0
  1  9  1  0  0  0  0
  2 17  1  0  0  0  0
  4 17  1  0  0  0  0
  4  6  1  0  0  0  0
  5  8  1  0  0  0  0
  5 12  1  0  0  0  0
  6 10  1  0  0  0  0
  7  2  1  0  0  0  0
  8 15  1  0  0  0  0
  9  3  1  0  0  0  0
 10  9  1  0  0  0  0
 10 18  1  0  0  0  0
 11 13  1  0  0  0  0
 12 14  1  0  0  0  0
 13  3  1  0  0  0  0
 14  6  1  0  0  0  0
 15  7  1  0  0  0  0
 15  4  1  0  0  0  0
 16 11  1  0  0  0  0
 17  1  1  0  0  0  0
 18 19  1  0  0  0  0
 19 21  1  0  0  0  0
 21 20  1  0  0  0  0
 22 23  1  0  0  0  0
 22 21  1  0  0  0  0
 24 22  1  0  0  0  0
 25 24  1  0  0  0  0
 26 25  1  0  0  0  0
 27 26  1  0  0  0  0
 28  8  1  0  0  0  0
 29 28  1  0  0  0  0
 30 32  1  0  0  0  0
 30 29  1  0  0  0  0
 32 31  1  0  0  0  0
 33 30  1  0  0  0  0
 34 33  1  0  0  0  0
M  END
>  <MODEL>
6

>  <REMARK>
 VINA RESULT:      -5.9      2.842      6.457
  Name = 
  12 active torsions:
  status: ('A' for Active; 'I' for Inactive)
    1  A    between atoms: C_3  and  C_16
    2  A    between atoms: C_3  and  C_19
    3  A    between atoms: C_5  and  C_11
    4  A    between atoms: C_5  and  C_19
    5  A    between atoms: C_8  and  O_12
    6  A    between atoms: C_8  and  C_16
    7  A    between atoms: C_11  and  C_20
    8  A    between atoms: N_17  and  C_28
    9  A    between atoms: C_28  and  N_29
   10  A    between atoms: N_29  and  C_32
   11  A    between atoms: S_31  and  C_32
   12  A    between atoms: C_32  and  C_34
                            x       y       z     vdW  Elec       q    Type
                         _______ _______ _______ _____ _____    ______ ____

>  <TORSDO>
F 12

$$$$
=
 OpenBabel11112418073D

 34 37  0  0  1  0  0  0  0  0999 V2000
  191.2500  172.6230  141.9500 C   0  0  2  0  0  3  0  0  0  0  0  0
  188.7700  172.7360  141.6360 C   0  0  0  0  0  2  0  0  0  0  0  0
  193.5620  172.6240  142.8320 C   0  0  0  0  0  2  0  0  0  0  0  0
  189.9660  174.8830  141.7630 C   0  0  2  0  0  3  0  0  0  0  0  0
  188.6920  177.4500  142.3450 C   0  0  0  0  0  2  0  0  0  0  0  0
  190.6910  175.3140  143.0670 C   0  0  1  0  0  3  0  0  0  0  0  0
  187.8410  173.8040  142.1770 C   0  0  0  0  0  2  0  0  0  0  0  0
  188.0250  176.2050  142.7090 N   0  0  0  0  0  0  0  0  0  0  0  0
  192.4130  173.5230  142.3560 C   0  0  2  0  0  3  0  0  0  0  0  0
  191.9060  174.4370  143.4730 C   0  0  1  0  0  3  0  0  0  0  0  0
  192.9500  170.8450  141.5820 C   0  0  0  0  0  2  0  0  0  0  0  0
  189.8590  177.6930  143.2880 C   0  0  0  0  0  2  0  0  0  0  0  0
  193.9780  171.7850  141.7820 O   0  0  0  0  0  0  0  0  0  0  0  0
  191.0410  176.7980  142.9460 C   0  0  0  0  0  2  0  0  0  0  0  0
  188.4520  175.1400  141.7880 C   0  0  1  0  0  3  0  0  0  0  0  0
  191.7200  171.5330  140.9880 C   0  0  0  0  0  2  0  0  0  0  0  0
  190.0970  173.4130  141.3380 C   0  0  1  0  0  3  0  0  0  0  0  0
  193.0020  175.1440  144.2860 C   0  0  0  0  0  2  0  0  0  0  0  0
  192.8580  174.8970  145.7830 C   0  0  0  0  0  2  0  0  0  0  0  0
  193.6890  176.7800  147.0020 O   0  0  0  0  0  1  0  0  0  0  0  0
  192.5250  176.1940  146.4990 C   0  0  2  0  0  3  0  0  0  0  0  0
  191.5270  175.9290  147.6250 C   0  0  1  0  0  3  0  0  0  0  0  0
  191.1990  177.1190  148.2770 O   0  0  0  0  0  1  0  0  0  0  0  0
  190.2590  175.2770  147.0920 C   0  0  0  0  0  2  0  0  0  0  0  0
  189.3240  176.3100  146.4820 C   0  0  0  0  0  2  0  0  0  0  0  0
  188.0420  175.7770  146.3420 O   0  0  0  0  0  0  0  0  0  0  0  0
  187.2340  176.5980  147.1290 C   0  0  0  0  0  1  0  0  0  0  0  0
  186.6050  176.4430  142.4920 C   0  0  0  0  0  2  0  0  0  0  0  0
  185.9360  176.6160  143.7710 N   0  0  0  0  0  2  0  0  0  0  0  0
  185.0670  177.7770  143.6470 C   0  0  1  0  0  3  0  0  0  0  0  0
  185.5580  180.1260  143.8910 O   0  0  0  0  0  1  0  0  0  0  0  0
  185.5180  178.9060  144.5680 C   0  0  0  0  0  2  0  0  0  0  0  0
  184.9000  178.3250  141.9050 S   0  0  0  0  0  0  0  0  0  0  0  0
  183.0810  178.2900  141.8580 C   0  0  0  0  0  1  0  0  0  0  0  0
  1 16  1  6  0  0  0
  1  9  1  0  0  0  0
  2  7  1  0  0  0  0
  4 15  1  0  0  0  0
  4  6  1  0  0  0  0
  5  8  1  0  0  0  0
  5 12  1  0  0  0  0
  6 10  1  0  0  0  0
  9  3  1  0  0  0  0
  9 10  1  0  0  0  0
 10 18  1  0  0  0  0
 11 13  1  0  0  0  0
 13  3  1  0  0  0  0
 14  6  1  0  0  0  0
 14 12  1  0  0  0  0
 15  7  1  0  0  0  0
 15  8  1  0  0  0  0
 16 11  1  0  0  0  0
 17  2  1  0  0  0  0
 17  4  1  0  0  0  0
 17  1  1  0  0  0  0
 18 19  1  0  0  0  0
 19 21  1  0  0  0  0
 21 20  1  0  0  0  0
 21 22  1  0  0  0  0
 22 23  1  0  0  0  0
 24 22  1  0  0  0  0
 25 24  1  0  0  0  0
 26 25  1  0  0  0  0
 26 27  1  0  0  0  0
 28  8  1  0  0  0  0
 28 29  1  0  0  0  0
 30 29  1  0  0  0  0
 30 32  1  0  0  0  0
 31 32  1  0  0  0  0
 33 30  1  0  0  0  0
 34 33  1  0  0  0  0
M  END
>  <MODEL>
7

>  <REMARK>
 VINA RESULT:      -5.8      3.428      8.007
  Name = 
  12 active torsions:
  status: ('A' for Active; 'I' for Inactive)
    1  A    between atoms: C_3  and  C_16
    2  A    between atoms: C_3  and  C_19
    3  A    between atoms: C_5  and  C_11
    4  A    between atoms: C_5  and  C_19
    5  A    between atoms: C_8  and  O_12
    6  A    between atoms: C_8  and  C_16
    7  A    between atoms: C_11  and  C_20
    8  A    between atoms: N_17  and  C_28
    9  A    between atoms: C_28  and  N_29
   10  A    between atoms: N_29  and  C_32
   11  A    between atoms: S_31  and  C_32
   12  A    between atoms: C_32  and  C_34
                            x       y       z     vdW  Elec       q    Type
                         _______ _______ _______ _____ _____    ______ ____

>  <TORSDO>
F 12

$$$$
=
 OpenBabel11112418073D

 34 37  0  0  1  0  0  0  0  0999 V2000
  188.9610  176.7060  143.0970 C   0  0  2  0  0  3  0  0  0  0  0  0
  191.3870  177.3140  143.0120 C   0  0  0  0  0  2  0  0  0  0  0  0
  186.5470  176.5220  143.6100 C   0  0  0  0  0  2  0  0  0  0  0  0
  190.6940  175.7820  144.8100 C   0  0  2  0  0  3  0  0  0  0  0  0
  192.2550  175.2590  147.2260 C   0  0  0  0  0  2  0  0  0  0  0  0
  189.7240  176.2540  145.9280 C   0  0  1  0  0  3  0  0  0  0  0  0
  192.3200  177.4650  144.1970 C   0  0  0  0  0  2  0  0  0  0  0  0
  192.5020  176.4650  146.4440 N   0  0  0  0  0  0  0  0  0  0  0  0
  187.9500  176.0860  144.0570 C   0  0  2  0  0  3  0  0  0  0  0  0
  188.2860  176.6000  145.4570 C   0  0  1  0  0  3  0  0  0  0  0  0
  187.1080  176.7970  141.4400 C   0  0  0  0  0  2  0  0  0  0  0  0
  190.9410  175.4030  147.9770 C   0  0  0  0  0  2  0  0  0  0  0  0
  186.2920  176.0500  142.3100 O   0  0  0  0  0  0  0  0  0  0  0  0
  189.7510  175.2120  147.0480 C   0  0  0  0  0  2  0  0  0  0  0  0
  192.1510  176.2110  145.0380 C   0  0  1  0  0  3  0  0  0  0  0  0
  188.5750  176.4190  141.6460 C   0  0  0  0  0  2  0  0  0  0  0  0
  190.3830  176.2310  143.3740 C   0  0  1  0  0  3  0  0  0  0  0  0
  187.1760  176.4170  146.5050 C   0  0  0  0  0  2  0  0  0  0  0  0
  187.1800  177.5260  147.5480 C   0  0  0  0  0  2  0  0  0  0  0  0
  186.2310  179.6720  148.0130 O   0  0  0  0  0  1  0  0  0  0  0  0
  186.5420  178.7820  146.9820 C   0  0  2  0  0  3  0  0  0  0  0  0
  185.2890  178.4210  146.1870 C   0  0  1  0  0  3  0  0  0  0  0  0
  184.1750  178.3670  147.0270 O   0  0  0  0  0  1  0  0  0  0  0  0
  185.0360  179.4270  145.0730 C   0  0  0  0  0  2  0  0  0  0  0  0
  183.9850  178.9160  144.1000 C   0  0  0  0  0  2  0  0  0  0  0  0
  184.4410  179.0400  142.7880 O   0  0  0  0  0  0  0  0  0  0  0  0
  183.5500  178.2780  142.0340 C   0  0  0  0  0  1  0  0  0  0  0  0
  193.9400  176.6880  146.5130 C   0  0  0  0  0  2  0  0  0  0  0  0
  194.6330  175.4100  146.5120 N   0  0  0  0  0  2  0  0  0  0  0  0
  194.8740  175.0530  145.1210 C   0  0  1  0  0  3  0  0  0  0  0  0
  196.0580  176.6540  143.7600 O   0  0  0  0  0  1  0  0  0  0  0  0
  196.2210  175.5830  144.6400 C   0  0  0  0  0  2  0  0  0  0  0  0
  194.6920  173.2520  144.8350 S   0  0  0  0  0  0  0  0  0  0  0  0
  196.1250  173.0780  143.7270 C   0  0  0  0  0  1  0  0  0  0  0  0
  1 16  1  6  0  0  0
  1 17  1  0  0  0  0
  1  9  1  0  0  0  0
  2 17  1  0  0  0  0
  2  7  1  0  0  0  0
  3  9  1  0  0  0  0
  4 15  1  0  0  0  0
  4  6  1  0  0  0  0
  5 12  1  0  0  0  0
  6 14  1  0  0  0  0
  7 15  1  0  0  0  0
  8 28  1  0  0  0  0
  8  5  1  0  0  0  0
  9 10  1  0  0  0  0
 10  6  1  0  0  0  0
 10 18  1  0  0  0  0
 11 16  1  0  0  0  0
 11 13  1  0  0  0  0
 13  3  1  0  0  0  0
 14 12  1  0  0  0  0
 15  8  1  0  0  0  0
 17  4  1  0  0  0  0
 18 19  1  0  0  0  0
 21 19  1  0  0  0  0
 21 20  1  0  0  0  0
 22 21  1  0  0  0  0
 22 23  1  0  0  0  0
 24 22  1  0  0  0  0
 25 24  1  0  0  0  0
 26 25  1  0  0  0  0
 27 26  1  0  0  0  0
 29 28  1  0  0  0  0
 30 29  1  0  0  0  0
 31 32  1  0  0  0  0
 32 30  1  0  0  0  0
 33 30  1  0  0  0  0
 34 33  1  0  0  0  0
M  END
>  <MODEL>
8

>  <REMARK>
 VINA RESULT:      -5.8      2.452      5.379
  Name = 
  12 active torsions:
  status: ('A' for Active; 'I' for Inactive)
    1  A    between atoms: C_3  and  C_16
    2  A    between atoms: C_3  and  C_19
    3  A    between atoms: C_5  and  C_11
    4  A    between atoms: C_5  and  C_19
    5  A    between atoms: C_8  and  O_12
    6  A    between atoms: C_8  and  C_16
    7  A    between atoms: C_11  and  C_20
    8  A    between atoms: N_17  and  C_28
    9  A    between atoms: C_28  and  N_29
   10  A    between atoms: N_29  and  C_32
   11  A    between atoms: S_31  and  C_32
   12  A    between atoms: C_32  and  C_34
                            x       y       z     vdW  Elec       q    Type
                         _______ _______ _______ _____ _____    ______ ____

>  <TORSDO>
F 12

$$$$
=
 OpenBabel11112418073D

 34 37  0  0  1  0  0  0  0  0999 V2000
  188.3020  176.9640  146.4820 C   0  0  2  0  0  3  0  0  0  0  0  0
  190.3930  176.1320  147.5780 C   0  0  0  0  0  2  0  0  0  0  0  0
  186.2140  177.2290  145.1830 C   0  0  0  0  0  2  0  0  0  0  0  0
  190.5700  176.7800  145.2100 C   0  0  2  0  0  3  0  0  0  0  0  0
  192.7360  175.9510  143.4290 C   0  0  0  0  0  2  0  0  0  0  0  0
  189.8010  175.9970  144.1110 C   0  0  1  0  0  3  0  0  0  0  0  0
  191.5040  175.3420  146.9160 C   0  0  0  0  0  2  0  0  0  0  0  0
  192.4660  175.2000  144.6490 N   0  0  0  0  0  0  0  0  0  0  0  0
  187.7450  177.2230  145.0850 C   0  0  2  0  0  3  0  0  0  0  0  0
  188.2540  176.0980  144.1830 C   0  0  1  0  0  3  0  0  0  0  0  0
  186.1560  177.8770  147.3460 C   0  0  0  0  0  2  0  0  0  0  0  0
  191.6440  175.6690  142.4090 C   0  0  0  0  0  2  0  0  0  0  0  0
  185.7940  178.2610  146.0410 O   0  0  0  0  0  0  0  0  0  0  0  0
  190.3630  176.4150  142.7510 C   0  0  0  0  0  2  0  0  0  0  0  0
  191.8740  176.1000  145.6510 C   0  0  1  0  0  3  0  0  0  0  0  0
  187.6770  177.9180  147.5000 C   0  0  0  0  0  2  0  0  0  0  0  0
  189.8240  177.0660  146.5220 C   0  0  1  0  0  3  0  0  0  0  0  0
  187.5090  175.9450  142.8470 C   0  0  0  0  0  2  0  0  0  0  0  0
  187.3940  177.2670  142.0970 C   0  0  0  0  0  2  0  0  0  0  0  0
  186.6380  177.8000  139.8910 O   0  0  0  0  0  1  0  0  0  0  0  0
  186.2540  177.2050  141.0960 C   0  0  2  0  0  3  0  0  0  0  0  0
  185.0180  177.8960  141.6670 C   0  0  1  0  0  3  0  0  0  0  0  0
  185.3830  179.0300  142.3960 O   0  0  0  0  0  1  0  0  0  0  0  0
  184.0510  178.2950  140.5600 C   0  0  0  0  0  2  0  0  0  0  0  0
  182.6210  177.9200  140.9190 C   0  0  0  0  0  2  0  0  0  0  0  0
  181.7430  178.9260  140.5130 O   0  0  0  0  0  0  0  0  0  0  0  0
  180.8160  179.0200  141.5490 C   0  0  0  0  0  1  0  0  0  0  0  0
  193.7680  174.7750  145.1430 C   0  0  0  0  0  2  0  0  0  0  0  0
  194.7570  175.8030  144.8630 N   0  0  0  0  0  2  0  0  0  0  0  0
  196.0680  175.2070  145.0740 C   0  0  1  0  0  3  0  0  0  0  0  0
  197.1630  173.4740  146.3460 O   0  0  0  0  0  1  0  0  0  0  0  0
  195.9540  173.8470  145.7540 C   0  0  0  0  0  2  0  0  0  0  0  0
  197.0420  175.1300  143.5230 S   0  0  0  0  0  0  0  0  0  0  0  0
  196.5660  176.7740  142.9050 C   0  0  0  0  0  1  0  0  0  0  0  0
  1 17  1  0  0  0  0
  1 16  1  1  0  0  0
  3 13  1  0  0  0  0
  4 15  1  0  0  0  0
  4 17  1  0  0  0  0
  5  8  1  0  0  0  0
  6 10  1  0  0  0  0
  6  4  1  0  0  0  0
  7  2  1  0  0  0  0
  8 28  1  0  0  0  0
  8 15  1  0  0  0  0
  9  3  1  0  0  0  0
  9  1  1  0  0  0  0
 10  9  1  0  0  0  0
 11 16  1  0  0  0  0
 12 14  1  0  0  0  0
 12  5  1  0  0  0  0
 13 11  1  0  0  0  0
 14  6  1  0  0  0  0
 15  7  1  0  0  0  0
 17  2  1  0  0  0  0
 18 10  1  0  0  0  0
 19 18  1  0  0  0  0
 20 21  1  0  0  0  0
 21 22  1  0  0  0  0
 21 19  1  0  0  0  0
 22 23  1  0  0  0  0
 24 25  1  0  0  0  0
 24 22  1  0  0  0  0
 26 25  1  0  0  0  0
 26 27  1  0  0  0  0
 29 30  1  0  0  0  0
 29 28  1  0  0  0  0
 30 32  1  0  0  0  0
 32 31  1  0  0  0  0
 33 30  1  0  0  0  0
 34 33  1  0  0  0  0
M  END
>  <MODEL>
9

>  <REMARK>
 VINA RESULT:      -5.8      2.928      4.108
  Name = 
  12 active torsions:
  status: ('A' for Active; 'I' for Inactive)
    1  A    between atoms: C_3  and  C_16
    2  A    between atoms: C_3  and  C_19
    3  A    between atoms: C_5  and  C_11
    4  A    between atoms: C_5  and  C_19
    5  A    between atoms: C_8  and  O_12
    6  A    between atoms: C_8  and  C_16
    7  A    between atoms: C_11  and  C_20
    8  A    between atoms: N_17  and  C_28
    9  A    between atoms: C_28  and  N_29
   10  A    between atoms: N_29  and  C_32
   11  A    between atoms: S_31  and  C_32
   12  A    between atoms: C_32  and  C_34
                            x       y       z     vdW  Elec       q    Type
                         _______ _______ _______ _____ _____    ______ ____

>  <TORSDO>
F 12

$$$$
