=
 OpenBabel11112416313D

 32 37  0  0  1  0  0  0  0  0999 V2000
  185.9520  177.8680  145.7230 C   0  0  0  0  0  2  0  0  0  0  0  0
  190.3100  175.0070  144.9740 C   0  0  1  0  0  3  0  0  0  0  0  0
  190.1390  172.3600  140.7670 C   0  0  0  0  0  2  0  0  0  0  0  0
  191.5540  172.2260  141.1210 N   0  0  0  0  0  2  0  0  0  0  0  0
  192.1690  174.4270  146.6730 C   0  0  1  0  0  3  0  0  0  0  0  0
  193.4650  175.0700  146.1230 C   0  0  2  0  0  3  0  0  0  0  0  0
  188.9860  176.7870  145.3740 C   0  0  1  0  0  3  0  0  0  0  0  0
  188.6940  175.6140  143.1860 C   0  0  0  0  0  2  0  0  0  0  0  0
  194.3900  176.0030  144.1290 N   0  0  0  0  0  0  0  0  0  0  0  0
  187.3500  177.6780  143.5880 C   0  0  0  0  0  2  0  0  0  0  0  0
  189.3510  173.1320  141.8370 C   0  0  0  0  0  2  0  0  0  0  0  0
  189.4360  174.4350  143.8320 C   0  0  1  0  0  3  0  0  0  0  0  0
  190.2520  173.7250  142.8340 N   0  0  1  0  0  0  0  0  0  0  0  0
  191.9570  173.1420  144.5320 C   0  0  1  0  0  3  0  0  0  0  0  0
  194.4740  177.0550  145.1270 C   0  0  0  0  0  2  0  0  0  0  0  0
  186.9410  177.3880  146.8020 C   0  0  0  0  0  2  0  0  0  0  0  0
  187.9860  176.4510  144.2470 C   0  0  2  0  0  3  0  0  0  0  0  0
  193.6160  176.5790  146.3110 C   0  0  0  0  0  2  0  0  0  0  0  0
  188.4120  177.6780  146.4830 C   0  0  0  0  0  2  0  0  0  0  0  0
  186.6110  178.6140  144.5580 C   0  0  1  0  0  3  0  0  0  0  0  0
  191.6640  171.6910  142.4780 C   0  0  0  0  0  2  0  0  0  0  0  0
  190.9670  172.6160  143.4930 C   0  0  2  0  0  3  0  0  0  0  0  0
  192.9820  174.0500  143.9030 C   0  0  0  0  0  3  0  0  0  0  0  0
  189.4730  175.5960  145.9390 O   0  0  0  0  0  0  0  0  0  0  0  0
  191.5370  175.2110  147.7240 N   0  0  0  0  0  1  0  0  0  0  0  0
  194.6110  176.2470  142.7130 C   0  0  0  0  0  1  0  0  0  0  0  0
  191.1740  173.9060  145.6140 C   0  0  2  0  0  3  0  0  0  0  0  0
  193.6740  174.9050  144.6610 C   0  0  0  0  0  0  0  0  0  0  0  0
  185.5620  179.4210  143.8120 C   0  0  0  0  0  2  0  0  0  0  0  0
  184.9640  178.6180  142.7090 C   0  0  0  0  0  0  0  0  0  0  0  0
  183.9390  177.9200  142.9210 O   0  0  0  0  0  1  0  0  0  0  0  0
  185.5160  178.6650  141.4350 O   0  0  0  0  0  0  0  0  0  0  0  0
  1 16  1  0  0  0  0
  2 27  1  0  0  0  0
  2 24  1  1  0  0  0
  3  4  1  0  0  0  0
  3 11  1  0  0  0  0
  4 21  1  0  0  0  0
  5 25  1  6  0  0  0
  6 18  1  6  0  0  0
  6  5  1  0  0  0  0
  7 24  1  0  0  0  0
  7 19  1  1  0  0  0
  9 28  1  0  0  0  0
  9 15  1  0  0  0  0
 10 17  1  0  0  0  0
 10 20  1  0  0  0  0
 12  8  1  6  0  0  0
 12  2  1  0  0  0  0
 13 11  1  6  0  0  0
 13 22  1  0  0  0  0
 13 12  1  0  0  0  0
 14 23  1  6  0  0  0
 14 27  1  0  0  0  0
 15 18  1  0  0  0  0
 17  8  1  6  0  0  0
 17  7  1  0  0  0  0
 19 16  1  0  0  0  0
 20 29  1  6  0  0  0
 20  1  1  0  0  0  0
 22 21  1  6  0  0  0
 22 14  1  0  0  0  0
 23 28  2  0  0  0  0
 26  9  1  0  0  0  0
 27  5  1  0  0  0  0
 28  6  1  0  0  0  0
 30 31  1  0  0  0  0
 30 29  1  0  0  0  0
 32 30  2  0  0  0  0
M  END
>  <MODEL>
1

>  <REMARK>
 VINA RESULT:      -8.3      0.000      0.000
  Name = 
  2 active torsions:
  status: ('A' for Active; 'I' for Inactive)
    1  A    between atoms: C_20  and  C_29
    2  A    between atoms: C_29  and  C_30
                            x       y       z     vdW  Elec       q    Type
                         _______ _______ _______ _____ _____    ______ ____

>  <TORSDO>
F 2

$$$$
=
 OpenBabel11112416313D

 32 37  0  0  1  0  0  0  0  0999 V2000
  186.0160  177.5250  145.7150 C   0  0  0  0  0  2  0  0  0  0  0  0
  189.9970  174.7760  143.6350 C   0  0  1  0  0  3  0  0  0  0  0  0
  189.2400  173.6730  138.8440 C   0  0  0  0  0  2  0  0  0  0  0  0
  190.6580  173.3340  138.9860 N   0  0  0  0  0  2  0  0  0  0  0  0
  191.9150  173.5440  144.8530 C   0  0  1  0  0  3  0  0  0  0  0  0
  193.2220  174.2410  144.4050 C   0  0  2  0  0  3  0  0  0  0  0  0
  188.8920  176.4120  144.7200 C   0  0  1  0  0  3  0  0  0  0  0  0
  188.3160  176.0450  142.3160 C   0  0  0  0  0  2  0  0  0  0  0  0
  194.0790  175.7100  142.7280 N   0  0  0  0  0  0  0  0  0  0  0  0
  187.2190  177.9500  143.4960 C   0  0  0  0  0  2  0  0  0  0  0  0
  188.6170  174.1040  140.1830 C   0  0  0  0  0  2  0  0  0  0  0  0
  188.9850  174.6710  142.4690 C   0  0  1  0  0  3  0  0  0  0  0  0
  189.6470  174.2740  141.2150 N   0  0  1  0  0  0  0  0  0  0  0  0
  191.4120  173.0500  142.4480 C   0  0  1  0  0  3  0  0  0  0  0  0
  194.3430  176.3680  143.9960 C   0  0  0  0  0  2  0  0  0  0  0  0
  187.0320  176.6510  146.4730 C   0  0  0  0  0  2  0  0  0  0  0  0
  187.7780  176.5340  143.6570 C   0  0  2  0  0  3  0  0  0  0  0  0
  193.5370  175.5900  145.0480 C   0  0  0  0  0  2  0  0  0  0  0  0
  188.4960  176.9270  146.1110 C   0  0  0  0  0  2  0  0  0  0  0  0
  186.6540  178.5650  144.7880 C   0  0  1  0  0  3  0  0  0  0  0  0
  190.8180  172.3770  140.0800 C   0  0  0  0  0  2  0  0  0  0  0  0
  190.2970  172.9630  141.4050 C   0  0  2  0  0  3  0  0  0  0  0  0
  192.4700  174.0410  142.0390 C   0  0  0  0  0  3  0  0  0  0  0  0
  189.3000  175.0710  144.8200 O   0  0  0  0  0  0  0  0  0  0  0  0
  191.4470  173.9810  146.1600 N   0  0  0  0  0  1  0  0  0  0  0  0
  194.2130  176.3890  141.4500 C   0  0  0  0  0  1  0  0  0  0  0  0
  190.7940  173.4680  143.7940 C   0  0  2  0  0  3  0  0  0  0  0  0
  193.3000  174.5500  142.9530 C   0  0  0  0  0  0  0  0  0  0  0  0
  185.6360  179.6420  144.4530 C   0  0  0  0  0  2  0  0  0  0  0  0
  184.2640  179.0660  144.3710 C   0  0  0  0  0  0  0  0  0  0  0  0
  183.5100  179.0880  145.3770 O   0  0  0  0  0  1  0  0  0  0  0  0
  183.8040  178.5340  143.1730 O   0  0  0  0  0  0  0  0  0  0  0  0
  1 16  1  0  0  0  0
  2 27  1  0  0  0  0
  2 24  1  1  0  0  0
  3  4  1  0  0  0  0
  3 11  1  0  0  0  0
  4 21  1  0  0  0  0
  5 25  1  1  0  0  0
  6  5  1  0  0  0  0
  6 18  1  1  0  0  0
  7 24  1  0  0  0  0
  7 19  1  1  0  0  0
  9 28  1  0  0  0  0
  9 15  1  0  0  0  0
 10 17  1  0  0  0  0
 10 20  1  0  0  0  0
 12  8  1  6  0  0  0
 12  2  1  0  0  0  0
 13 11  1  6  0  0  0
 13 22  1  0  0  0  0
 13 12  1  0  0  0  0
 14 23  1  6  0  0  0
 14 27  1  0  0  0  0
 15 18  1  0  0  0  0
 17  8  1  6  0  0  0
 17  7  1  0  0  0  0
 19 16  1  0  0  0  0
 20 29  1  6  0  0  0
 20  1  1  0  0  0  0
 22 21  1  6  0  0  0
 22 14  1  0  0  0  0
 23 28  2  0  0  0  0
 26  9  1  0  0  0  0
 27  5  1  0  0  0  0
 28  6  1  0  0  0  0
 30 29  1  0  0  0  0
 30 31  1  0  0  0  0
 32 30  2  0  0  0  0
M  END
>  <MODEL>
2

>  <REMARK>
 VINA RESULT:      -8.0      1.347      1.717
  Name = 
  2 active torsions:
  status: ('A' for Active; 'I' for Inactive)
    1  A    between atoms: C_20  and  C_29
    2  A    between atoms: C_29  and  C_30
                            x       y       z     vdW  Elec       q    Type
                         _______ _______ _______ _____ _____    ______ ____

>  <TORSDO>
F 2

$$$$
=
 OpenBabel11112416313D

 32 37  0  0  1  0  0  0  0  0999 V2000
  187.9280  176.7220  145.0190 C   0  0  0  0  0  2  0  0  0  0  0  0
  192.6890  174.4730  144.9170 C   0  0  1  0  0  3  0  0  0  0  0  0
  192.5140  169.7330  143.4200 C   0  0  0  0  0  2  0  0  0  0  0  0
  193.9550  169.9910  143.3550 N   0  0  0  0  0  2  0  0  0  0  0  0
  194.8870  175.3030  145.9940 C   0  0  1  0  0  3  0  0  0  0  0  0
  195.8680  175.5540  144.8230 C   0  0  2  0  0  3  0  0  0  0  0  0
  191.0390  175.9580  144.5300 C   0  0  1  0  0  3  0  0  0  0  0  0
  190.7020  173.6280  143.6880 C   0  0  0  0  0  2  0  0  0  0  0  0
  196.1840  175.0580  142.5090 N   0  0  0  0  0  0  0  0  0  0  0  0
  188.9590  175.3280  143.1370 C   0  0  0  0  0  2  0  0  0  0  0  0
  191.7410  170.9370  143.9820 C   0  0  0  0  0  2  0  0  0  0  0  0
  191.8160  173.2210  144.6630 C   0  0  1  0  0  3  0  0  0  0  0  0
  192.6110  172.1130  144.1090 N   0  0  1  0  0  0  0  0  0  0  0  0
  194.6640  172.9260  145.2310 C   0  0  1  0  0  3  0  0  0  0  0  0
  196.1580  176.5080  142.5970 C   0  0  0  0  0  2  0  0  0  0  0  0
  189.1700  177.1470  145.8250 C   0  0  0  0  0  2  0  0  0  0  0  0
  189.9860  174.8820  144.1810 C   0  0  2  0  0  3  0  0  0  0  0  0
  195.6570  176.8330  144.0130 C   0  0  0  0  0  2  0  0  0  0  0  0
  190.4460  177.2970  144.9880 C   0  0  0  0  0  2  0  0  0  0  0  0
  188.1750  176.5960  143.5120 C   0  0  1  0  0  3  0  0  0  0  0  0
  194.4180  170.4730  144.6560 C   0  0  0  0  0  2  0  0  0  0  0  0
  193.6850  171.7640  145.0590 C   0  0  2  0  0  3  0  0  0  0  0  0
  195.3050  173.3020  143.9210 C   0  0  0  0  0  3  0  0  0  0  0  0
  191.9000  175.4650  145.5260 O   0  0  0  0  0  0  0  0  0  0  0  0
  194.2570  176.5170  146.4900 N   0  0  0  0  0  1  0  0  0  0  0  0
  196.1000  174.3480  141.2430 C   0  0  0  0  0  1  0  0  0  0  0  0
  193.8990  174.1320  145.8060 C   0  0  2  0  0  3  0  0  0  0  0  0
  195.8690  174.5030  143.7720 C   0  0  0  0  0  0  0  0  0  0  0  0
  186.8470  176.6280  142.7740 C   0  0  0  0  0  2  0  0  0  0  0  0
  186.7600  177.8260  141.8920 C   0  0  0  0  0  0  0  0  0  0  0  0
  186.3760  178.9280  142.3620 O   0  0  0  0  0  1  0  0  0  0  0  0
  187.1330  177.7350  140.5580 O   0  0  0  0  0  0  0  0  0  0  0  0
  1 16  1  0  0  0  0
  2 24  1  1  0  0  0
  2 27  1  0  0  0  0
  3 11  1  0  0  0  0
  4  3  1  0  0  0  0
  4 21  1  0  0  0  0
  5 25  1  6  0  0  0
  6 18  1  6  0  0  0
  6  5  1  0  0  0  0
  7 19  1  1  0  0  0
  7 24  1  0  0  0  0
  8 17  1  0  0  0  0
  9 15  1  0  0  0  0
  9 28  1  0  0  0  0
 10 20  1  0  0  0  0
 12  8  1  6  0  0  0
 12  2  1  0  0  0  0
 13 11  1  1  0  0  0
 13 12  1  0  0  0  0
 13 22  1  0  0  0  0
 14 23  1  6  0  0  0
 14 27  1  0  0  0  0
 15 18  1  0  0  0  0
 17 10  1  6  0  0  0
 17  7  1  0  0  0  0
 19 16  1  0  0  0  0
 20 29  1  6  0  0  0
 20  1  1  0  0  0  0
 22 21  1  6  0  0  0
 22 14  1  0  0  0  0
 26  9  1  0  0  0  0
 27  5  1  0  0  0  0
 28 23  2  0  0  0  0
 28  6  1  0  0  0  0
 30 31  1  0  0  0  0
 30 29  1  0  0  0  0
 32 30  2  0  0  0  0
M  END
>  <MODEL>
3

>  <REMARK>
 VINA RESULT:      -7.9      2.003      2.922
  Name = 
  2 active torsions:
  status: ('A' for Active; 'I' for Inactive)
    1  A    between atoms: C_20  and  C_29
    2  A    between atoms: C_29  and  C_30
                            x       y       z     vdW  Elec       q    Type
                         _______ _______ _______ _____ _____    ______ ____

>  <TORSDO>
F 2

$$$$
=
 OpenBabel11112416313D

 32 37  0  0  1  0  0  0  0  0999 V2000
  197.5090  171.0460  145.0510 C   0  0  0  0  0  2  0  0  0  0  0  0
  193.2480  174.0610  144.3500 C   0  0  1  0  0  3  0  0  0  0  0  0
  189.6930  171.7440  141.7550 C   0  0  0  0  0  2  0  0  0  0  0  0
  188.9550  172.9030  142.2630 N   0  0  0  0  0  2  0  0  0  0  0  0
  193.0040  176.6100  144.6940 C   0  0  1  0  0  3  0  0  0  0  0  0
  191.9550  176.7910  145.8190 C   0  0  2  0  0  3  0  0  0  0  0  0
  194.9310  172.9790  145.3880 C   0  0  1  0  0  3  0  0  0  0  0  0
  193.2780  171.5850  144.1330 C   0  0  0  0  0  2  0  0  0  0  0  0
  190.2510  175.6020  146.9960 N   0  0  0  0  0  0  0  0  0  0  0  0
  195.0600  170.4010  145.4180 C   0  0  0  0  0  2  0  0  0  0  0  0
  191.1800  171.7980  142.1420 C   0  0  0  0  0  2  0  0  0  0  0  0
  192.8770  172.8830  143.4170 C   0  0  1  0  0  3  0  0  0  0  0  0
  191.4400  172.8790  143.1010 N   0  0  1  0  0  0  0  0  0  0  0  0
  191.2960  175.3360  143.3750 C   0  0  1  0  0  3  0  0  0  0  0  0
  191.1910  176.0410  148.0110 C   0  0  0  0  0  2  0  0  0  0  0  0
  197.4480  172.5840  145.0850 C   0  0  0  0  0  2  0  0  0  0  0  0
  194.7240  171.6590  144.6130 C   0  0  2  0  0  3  0  0  0  0  0  0
  192.4310  176.5350  147.2490 C   0  0  0  0  0  2  0  0  0  0  0  0
  196.3370  173.1520  145.9760 C   0  0  0  0  0  2  0  0  0  0  0  0
  196.4940  170.3590  145.9710 C   0  0  1  0  0  3  0  0  0  0  0  0
  189.6530  174.1280  141.8740 C   0  0  0  0  0  2  0  0  0  0  0  0
  191.0860  174.1480  142.4360 C   0  0  2  0  0  3  0  0  0  0  0  0
  190.4530  175.2090  144.6170 C   0  0  0  0  0  3  0  0  0  0  0  0
  194.6410  174.0670  144.5470 O   0  0  0  0  0  0  0  0  0  0  0  0
  194.3760  176.7410  145.1590 N   0  0  0  0  0  1  0  0  0  0  0  0
  189.2060  174.6270  147.2640 C   0  0  0  0  0  1  0  0  0  0  0  0
  192.7850  175.4030  143.7570 C   0  0  2  0  0  3  0  0  0  0  0  0
  190.7650  175.9060  145.7130 C   0  0  0  0  0  0  0  0  0  0  0  0
  196.9200  168.9210  146.2150 C   0  0  0  0  0  2  0  0  0  0  0  0
  196.6170  168.5100  147.6140 C   0  0  0  0  0  0  0  0  0  0  0  0
  197.5430  168.4300  148.4620 O   0  0  0  0  0  1  0  0  0  0  0  0
  195.3080  168.2460  147.9940 O   0  0  0  0  0  0  0  0  0  0  0  0
  1 16  1  0  0  0  0
  1 20  1  0  0  0  0
  2 24  1  6  0  0  0
  3 11  1  0  0  0  0
  3  4  1  0  0  0  0
  5 25  1  1  0  0  0
  5  6  1  0  0  0  0
  6 18  1  1  0  0  0
  7 19  1  6  0  0  0
  9 26  1  0  0  0  0
  9 15  1  0  0  0  0
 10 20  1  0  0  0  0
 12  8  1  1  0  0  0
 12  2  1  0  0  0  0
 13 11  1  6  0  0  0
 13 12  1  0  0  0  0
 14 27  1  0  0  0  0
 14 23  1  1  0  0  0
 16 19  1  0  0  0  0
 17  8  1  1  0  0  0
 17  7  1  0  0  0  0
 17 10  1  0  0  0  0
 18 15  1  0  0  0  0
 20 29  1  6  0  0  0
 21  4  1  0  0  0  0
 22 21  1  1  0  0  0
 22 13  1  0  0  0  0
 22 14  1  0  0  0  0
 23 28  2  0  0  0  0
 24  7  1  0  0  0  0
 27  2  1  0  0  0  0
 27  5  1  0  0  0  0
 28  6  1  0  0  0  0
 28  9  1  0  0  0  0
 29 30  1  0  0  0  0
 30 32  2  0  0  0  0
 30 31  1  0  0  0  0
M  END
>  <MODEL>
4

>  <REMARK>
 VINA RESULT:      -7.6      4.021      8.203
  Name = 
  2 active torsions:
  status: ('A' for Active; 'I' for Inactive)
    1  A    between atoms: C_20  and  C_29
    2  A    between atoms: C_29  and  C_30
                            x       y       z     vdW  Elec       q    Type
                         _______ _______ _______ _____ _____    ______ ____

>  <TORSDO>
F 2

$$$$
=
 OpenBabel11112416313D

 32 37  0  0  1  0  0  0  0  0999 V2000
  187.4040  177.8680  144.4450 C   0  0  0  0  0  2  0  0  0  0  0  0
  191.3380  174.8760  142.6280 C   0  0  1  0  0  3  0  0  0  0  0  0
  195.6260  175.7380  144.9980 C   0  0  0  0  0  2  0  0  0  0  0  0
  195.9520  174.5080  144.2730 N   0  0  0  0  0  2  0  0  0  0  0  0
  191.4400  173.5000  140.4430 C   0  0  1  0  0  3  0  0  0  0  0  0
  191.5890  172.0210  140.8760 C   0  0  2  0  0  3  0  0  0  0  0  0
  189.3240  175.4520  143.4590 C   0  0  1  0  0  3  0  0  0  0  0  0
  191.3330  176.0110  144.8380 C   0  0  0  0  0  2  0  0  0  0  0  0
  192.1610  170.6730  142.7630 N   0  0  0  0  0  0  0  0  0  0  0  0
  189.0850  176.4990  145.8060 C   0  0  0  0  0  2  0  0  0  0  0  0
  194.2170  176.2490  144.6530 C   0  0  0  0  0  2  0  0  0  0  0  0
  192.1470  175.8180  143.5510 C   0  0  1  0  0  3  0  0  0  0  0  0
  193.4760  175.2640  143.8560 N   0  0  1  0  0  0  0  0  0  0  0  0
  193.5360  174.0300  141.7090 C   0  0  1  0  0  3  0  0  0  0  0  0
  190.8170  170.2690  142.3880 C   0  0  0  0  0  2  0  0  0  0  0  0
  187.5020  177.2130  143.0550 C   0  0  0  0  0  2  0  0  0  0  0  0
  189.9000  176.4230  144.5130 C   0  0  2  0  0  3  0  0  0  0  0  0
  190.3270  171.3240  141.3830 C   0  0  0  0  0  2  0  0  0  0  0  0
  187.8620  175.7230  143.0830 C   0  0  0  0  0  2  0  0  0  0  0  0
  187.6110  176.8950  145.6110 C   0  0  1  0  0  3  0  0  0  0  0  0
  195.6960  174.7050  142.8460 C   0  0  0  0  0  2  0  0  0  0  0  0
  194.2210  175.0700  142.5970 C   0  0  2  0  0  3  0  0  0  0  0  0
  193.4370  172.6960  142.4030 C   0  0  0  0  0  3  0  0  0  0  0  0
  190.1180  175.4930  142.3000 O   0  0  0  0  0  0  0  0  0  0  0  0
  190.0770  173.8600  140.0810 N   0  0  0  0  0  1  0  0  0  0  0  0
  192.7770  170.2770  144.0190 C   0  0  0  0  0  1  0  0  0  0  0  0
  192.1300  174.5400  141.3510 C   0  0  2  0  0  3  0  0  0  0  0  0
  192.5530  171.7880  141.9830 C   0  0  0  0  0  0  0  0  0  0  0  0
  187.0590  177.5050  146.8880 C   0  0  0  0  0  2  0  0  0  0  0  0
  185.5940  177.7460  146.7690 C   0  0  0  0  0  0  0  0  0  0  0  0
  184.8160  176.7910  146.5130 O   0  0  0  0  0  0  0  0  0  0  0  0
  185.0800  179.0200  146.9730 O   0  0  0  0  0  1  0  0  0  0  0  0
  1 20  1  0  0  0  0
  2 24  1  6  0  0  0
  2 12  1  0  0  0  0
  4  3  1  0  0  0  0
  5 25  1  1  0  0  0
  5  6  1  0  0  0  0
  5 27  1  0  0  0  0
  6 18  1  1  0  0  0
  6 28  1  0  0  0  0
  7 19  1  6  0  0  0
  7 17  1  0  0  0  0
  9 26  1  0  0  0  0
 11  3  1  0  0  0  0
 12 13  1  0  0  0  0
 12  8  1  1  0  0  0
 13 11  1  1  0  0  0
 14 23  1  1  0  0  0
 14 22  1  0  0  0  0
 15  9  1  0  0  0  0
 16 19  1  0  0  0  0
 16  1  1  0  0  0  0
 17  8  1  1  0  0  0
 17 10  1  0  0  0  0
 18 15  1  0  0  0  0
 20 10  1  0  0  0  0
 20 29  1  1  0  0  0
 21  4  1  0  0  0  0
 22 21  1  1  0  0  0
 22 13  1  0  0  0  0
 24  7  1  0  0  0  0
 27 14  1  0  0  0  0
 27  2  1  0  0  0  0
 28 23  2  0  0  0  0
 28  9  1  0  0  0  0
 30 29  1  0  0  0  0
 30 32  1  0  0  0  0
 31 30  2  0  0  0  0
M  END
>  <MODEL>
5

>  <REMARK>
 VINA RESULT:      -7.5      2.265      4.904
  Name = 
  2 active torsions:
  status: ('A' for Active; 'I' for Inactive)
    1  A    between atoms: C_20  and  C_29
    2  A    between atoms: C_29  and  C_30
                            x       y       z     vdW  Elec       q    Type
                         _______ _______ _______ _____ _____    ______ ____

>  <TORSDO>
F 2

$$$$
=
 OpenBabel11112416313D

 32 37  0  0  1  0  0  0  0  0999 V2000
  188.0690  177.2990  146.4010 C   0  0  0  0  0  2  0  0  0  0  0  0
  192.0700  174.3260  144.7020 C   0  0  1  0  0  3  0  0  0  0  0  0
  190.5330  170.4490  141.9910 C   0  0  0  0  0  2  0  0  0  0  0  0
  191.9710  170.4310  141.7100 N   0  0  0  0  0  2  0  0  0  0  0  0
  194.5280  174.3220  145.5000 C   0  0  1  0  0  3  0  0  0  0  0  0
  195.3750  174.7430  144.2740 C   0  0  2  0  0  3  0  0  0  0  0  0
  190.8010  176.1460  145.0940 C   0  0  1  0  0  3  0  0  0  0  0  0
  189.7900  174.3240  143.7130 C   0  0  0  0  0  2  0  0  0  0  0  0
  195.2480  174.9670  141.9000 N   0  0  0  0  0  0  0  0  0  0  0  0
  188.4630  176.4130  144.0320 C   0  0  0  0  0  2  0  0  0  0  0  0
  190.1630  171.5340  143.0160 C   0  0  0  0  0  2  0  0  0  0  0  0
  190.8890  173.4170  144.2860 C   0  0  1  0  0  3  0  0  0  0  0  0
  191.3050  172.4150  143.2910 N   0  0  1  0  0  0  0  0  0  0  0  0
  193.6250  172.4090  144.1570 C   0  0  1  0  0  3  0  0  0  0  0  0
  195.5920  176.2870  142.3980 C   0  0  0  0  0  2  0  0  0  0  0  0
  189.4730  177.1930  147.0250 C   0  0  0  0  0  2  0  0  0  0  0  0
  189.4790  175.4650  144.6760 C   0  0  2  0  0  3  0  0  0  0  0  0
  195.3800  176.2290  143.9200 C   0  0  0  0  0  2  0  0  0  0  0  0
  190.6230  177.3540  146.0230 C   0  0  0  0  0  2  0  0  0  0  0  0
  188.0740  177.6200  144.9020 C   0  0  1  0  0  3  0  0  0  0  0  0
  192.7080  170.3680  142.9720 C   0  0  0  0  0  2  0  0  0  0  0  0
  192.3760  171.5770  143.8650 C   0  0  2  0  0  3  0  0  0  0  0  0
  194.1590  173.0560  142.9050 C   0  0  0  0  0  3  0  0  0  0  0  0
  191.6380  175.2020  145.7130 O   0  0  0  0  0  0  0  0  0  0  0  0
  194.2890  175.4110  146.4360 N   0  0  0  0  0  1  0  0  0  0  0  0
  194.8230  174.7330  140.5290 C   0  0  0  0  0  1  0  0  0  0  0  0
  193.2660  173.4890  145.1920 C   0  0  2  0  0  3  0  0  0  0  0  0
  194.9770  174.1070  142.9910 C   0  0  0  0  0  0  0  0  0  0  0  0
  186.7090  178.1440  144.4900 C   0  0  0  0  0  2  0  0  0  0  0  0
  185.7330  178.0180  145.6090 C   0  0  0  0  0  0  0  0  0  0  0  0
  185.4120  179.0310  146.2820 O   0  0  0  0  0  1  0  0  0  0  0  0
  185.1510  176.7880  145.8900 O   0  0  0  0  0  0  0  0  0  0  0  0
  1 16  1  0  0  0  0
  2 27  1  0  0  0  0
  2 24  1  1  0  0  0
  3 11  1  0  0  0  0
  4  3  1  0  0  0  0
  4 21  1  0  0  0  0
  5 25  1  6  0  0  0
  6 18  1  6  0  0  0
  6  5  1  0  0  0  0
  7 24  1  0  0  0  0
  7 19  1  1  0  0  0
  9 15  1  0  0  0  0
  9 28  1  0  0  0  0
 10 17  1  0  0  0  0
 10 20  1  0  0  0  0
 12  8  1  6  0  0  0
 12  2  1  0  0  0  0
 13 11  1  1  0  0  0
 13 22  1  0  0  0  0
 13 12  1  0  0  0  0
 14 23  1  6  0  0  0
 14 27  1  0  0  0  0
 15 18  1  0  0  0  0
 17  8  1  6  0  0  0
 17  7  1  0  0  0  0
 19 16  1  0  0  0  0
 20 29  1  6  0  0  0
 20  1  1  0  0  0  0
 22 21  1  6  0  0  0
 22 14  1  0  0  0  0
 23 28  2  0  0  0  0
 26  9  1  0  0  0  0
 27  5  1  0  0  0  0
 28  6  1  0  0  0  0
 29 30  1  0  0  0  0
 30 32  2  0  0  0  0
 30 31  1  0  0  0  0
M  END
>  <MODEL>
6

>  <REMARK>
 VINA RESULT:      -7.4      1.906      2.447
  Name = 
  2 active torsions:
  status: ('A' for Active; 'I' for Inactive)
    1  A    between atoms: C_20  and  C_29
    2  A    between atoms: C_29  and  C_30
                            x       y       z     vdW  Elec       q    Type
                         _______ _______ _______ _____ _____    ______ ____

>  <TORSDO>
F 2

$$$$
=
 OpenBabel11112416313D

 32 37  0  0  1  0  0  0  0  0999 V2000
  191.0520  172.8530  138.7940 C   0  0  0  0  0  2  0  0  0  0  0  0
  190.0140  175.9900  142.8950 C   0  0  1  0  0  3  0  0  0  0  0  0
  185.1920  177.1670  143.2080 C   0  0  0  0  0  2  0  0  0  0  0  0
  185.6730  177.6210  144.5160 N   0  0  0  0  0  2  0  0  0  0  0  0
  191.6680  177.3420  144.3480 C   0  0  1  0  0  3  0  0  0  0  0  0
  191.5420  176.7720  145.7820 C   0  0  2  0  0  3  0  0  0  0  0  0
  190.7880  174.2340  141.7130 C   0  0  1  0  0  3  0  0  0  0  0  0
  188.3190  174.6230  141.6980 C   0  0  0  0  0  2  0  0  0  0  0  0
  190.1080  175.4310  147.1420 N   0  0  0  0  0  0  0  0  0  0  0  0
  189.1840  172.5970  140.5250 C   0  0  0  0  0  2  0  0  0  0  0  0
  186.3370  176.6450  142.3250 C   0  0  0  0  0  2  0  0  0  0  0  0
  188.6400  176.0430  142.1850 C   0  0  1  0  0  3  0  0  0  0  0  0
  187.5860  176.5320  143.0890 N   0  0  1  0  0  0  0  0  0  0  0  0
  189.2180  177.8640  144.3920 C   0  0  1  0  0  3  0  0  0  0  0  0
  191.3960  174.7600  147.1530 C   0  0  0  0  0  2  0  0  0  0  0  0
  192.0400  173.7870  139.5170 C   0  0  0  0  0  2  0  0  0  0  0  0
  189.4870  174.0500  140.9010 C   0  0  2  0  0  3  0  0  0  0  0  0
  192.2300  175.4350  146.0530 C   0  0  0  0  0  2  0  0  0  0  0  0
  192.0380  173.6460  141.0440 C   0  0  0  0  0  2  0  0  0  0  0  0
  190.2960  171.8990  139.7250 C   0  0  1  0  0  3  0  0  0  0  0  0
  186.7830  178.5550  144.3230 C   0  0  0  0  0  2  0  0  0  0  0  0
  187.9380  177.8870  143.5560 C   0  0  2  0  0  3  0  0  0  0  0  0
  189.0660  176.9780  145.6020 C   0  0  0  0  0  3  0  0  0  0  0  0
  190.9940  175.6020  141.9640 O   0  0  0  0  0  0  0  0  0  0  0  0
  192.8210  176.8280  143.6230 N   0  0  0  0  0  1  0  0  0  0  0  0
  188.8930  174.8040  147.6370 C   0  0  0  0  0  1  0  0  0  0  0  0
  190.3710  177.3550  143.5110 C   0  0  2  0  0  3  0  0  0  0  0  0
  190.1480  176.5140  146.2310 C   0  0  0  0  0  0  0  0  0  0  0  0
  189.7180  170.7500  138.9160 C   0  0  0  0  0  2  0  0  0  0  0  0
  190.6090  169.5580  138.9770 C   0  0  0  0  0  0  0  0  0  0  0  0
  191.4570  169.4510  139.9010 O   0  0  0  0  0  1  0  0  0  0  0  0
  190.4830  168.5460  138.0340 O   0  0  0  0  0  0  0  0  0  0  0  0
  1 16  1  0  0  0  0
  1 20  1  0  0  0  0
  2 24  1  6  0  0  0
  2 27  1  0  0  0  0
  3  4  1  0  0  0  0
  5 25  1  6  0  0  0
  5  6  1  0  0  0  0
  6 18  1  6  0  0  0
  6 28  1  0  0  0  0
  7 19  1  6  0  0  0
  7 24  1  0  0  0  0
  9 15  1  0  0  0  0
  9 26  1  0  0  0  0
 11  3  1  0  0  0  0
 12  8  1  1  0  0  0
 12  2  1  0  0  0  0
 12 13  1  0  0  0  0
 13 11  1  6  0  0  0
 13 22  1  0  0  0  0
 14 23  1  1  0  0  0
 16 19  1  0  0  0  0
 17 10  1  1  0  0  0
 17  8  1  0  0  0  0
 17  7  1  0  0  0  0
 18 15  1  0  0  0  0
 20 29  1  6  0  0  0
 20 10  1  0  0  0  0
 21  4  1  0  0  0  0
 22 21  1  1  0  0  0
 22 14  1  0  0  0  0
 23 28  2  0  0  0  0
 27  5  1  0  0  0  0
 27 14  1  0  0  0  0
 28  9  1  0  0  0  0
 29 30  1  0  0  0  0
 30 31  1  0  0  0  0
 32 30  2  0  0  0  0
M  END
>  <MODEL>
7

>  <REMARK>
 VINA RESULT:      -7.2      3.347      6.812
  Name = 
  2 active torsions:
  status: ('A' for Active; 'I' for Inactive)
    1  A    between atoms: C_20  and  C_29
    2  A    between atoms: C_29  and  C_30
                            x       y       z     vdW  Elec       q    Type
                         _______ _______ _______ _____ _____    ______ ____

>  <TORSDO>
F 2

$$$$
=
 OpenBabel11112416313D

 32 37  0  0  1  0  0  0  0  0999 V2000
  189.2330  175.5230  147.2630 C   0  0  0  0  0  2  0  0  0  0  0  0
  193.3350  173.7000  144.5100 C   0  0  1  0  0  3  0  0  0  0  0  0
  192.0440  170.0700  141.3640 C   0  0  0  0  0  2  0  0  0  0  0  0
  193.3960  170.3800  140.8910 N   0  0  0  0  0  2  0  0  0  0  0  0
  195.8570  174.0560  144.9490 C   0  0  1  0  0  3  0  0  0  0  0  0
  196.4010  174.8220  143.7180 C   0  0  2  0  0  3  0  0  0  0  0  0
  191.8600  175.1500  145.4030 C   0  0  1  0  0  3  0  0  0  0  0  0
  190.9550  173.4040  143.8600 C   0  0  0  0  0  2  0  0  0  0  0  0
  195.8370  175.3860  141.4670 N   0  0  0  0  0  0  0  0  0  0  0  0
  189.3660  175.1150  144.7400 C   0  0  0  0  0  2  0  0  0  0  0  0
  191.6740  170.8870  142.6130 C   0  0  0  0  0  2  0  0  0  0  0  0
  192.2730  172.6530  144.0980 C   0  0  1  0  0  3  0  0  0  0  0  0
  192.6790  171.9210  142.8880 N   0  0  1  0  0  0  0  0  0  0  0  0
  195.0790  172.2370  143.4110 C   0  0  1  0  0  3  0  0  0  0  0  0
  196.0310  176.6530  142.1500 C   0  0  0  0  0  2  0  0  0  0  0  0
  190.7190  175.5990  147.6580 C   0  0  0  0  0  2  0  0  0  0  0  0
  190.6210  174.2970  145.0510 C   0  0  2  0  0  3  0  0  0  0  0  0
  196.0930  176.3170  143.6490 C   0  0  0  0  0  2  0  0  0  0  0  0
  191.6390  176.1390  146.5560 C   0  0  0  0  0  2  0  0  0  0  0  0
  188.9290  176.0700  145.8640 C   0  0  1  0  0  3  0  0  0  0  0  0
  194.3360  170.2660  142.0060 C   0  0  0  0  0  2  0  0  0  0  0  0
  193.9590  171.2320  143.1440 C   0  0  2  0  0  3  0  0  0  0  0  0
  195.2750  173.1640  142.2400 C   0  0  0  0  0  3  0  0  0  0  0  0
  192.9380  174.3050  145.7160 O   0  0  0  0  0  0  0  0  0  0  0  0
  195.5980  174.9160  146.0950 N   0  0  0  0  0  1  0  0  0  0  0  0
  195.2330  175.2910  140.1480 C   0  0  0  0  0  1  0  0  0  0  0  0
  194.7210  173.0490  144.6680 C   0  0  2  0  0  3  0  0  0  0  0  0
  195.9050  174.3290  142.4060 C   0  0  0  0  0  0  0  0  0  0  0  0
  187.4450  176.3720  145.7470 C   0  0  0  0  0  2  0  0  0  0  0  0
  187.1250  176.9440  144.4080 C   0  0  0  0  0  0  0  0  0  0  0  0
  186.2340  176.4160  143.6940 O   0  0  0  0  0  0  0  0  0  0  0  0
  187.7870  178.0800  143.9610 O   0  0  0  0  0  1  0  0  0  0  0  0
  1 16  1  0  0  0  0
  2 27  1  0  0  0  0
  2 24  1  1  0  0  0
  3 11  1  0  0  0  0
  4  3  1  0  0  0  0
  4 21  1  0  0  0  0
  5 25  1  1  0  0  0
  6 18  1  1  0  0  0
  6  5  1  0  0  0  0
  7 24  1  0  0  0  0
  7 19  1  1  0  0  0
  9 15  1  0  0  0  0
  9 28  1  0  0  0  0
 10 17  1  0  0  0  0
 10 20  1  0  0  0  0
 12  8  1  6  0  0  0
 12  2  1  0  0  0  0
 13 11  1  1  0  0  0
 13 22  1  0  0  0  0
 13 12  1  0  0  0  0
 14 23  1  6  0  0  0
 14 27  1  0  0  0  0
 15 18  1  0  0  0  0
 17  8  1  6  0  0  0
 17  7  1  0  0  0  0
 19 16  1  0  0  0  0
 20 29  1  1  0  0  0
 20  1  1  0  0  0  0
 22 21  1  6  0  0  0
 22 14  1  0  0  0  0
 23 28  2  0  0  0  0
 26  9  1  0  0  0  0
 27  5  1  0  0  0  0
 28  6  1  0  0  0  0
 30 29  1  0  0  0  0
 31 30  2  0  0  0  0
 32 30  1  0  0  0  0
M  END
>  <MODEL>
8

>  <REMARK>
 VINA RESULT:      -7.1      2.206      3.474
  Name = 
  2 active torsions:
  status: ('A' for Active; 'I' for Inactive)
    1  A    between atoms: C_20  and  C_29
    2  A    between atoms: C_29  and  C_30
                            x       y       z     vdW  Elec       q    Type
                         _______ _______ _______ _____ _____    ______ ____

>  <TORSDO>
F 2

$$$$
=
 OpenBabel11112416313D

 32 37  0  0  1  0  0  0  0  0999 V2000
  192.0080  176.3170  147.5240 C   0  0  0  0  0  2  0  0  0  0  0  0
  195.6870  174.3090  144.3350 C   0  0  1  0  0  3  0  0  0  0  0  0
  196.1290  169.3780  144.8190 C   0  0  0  0  0  2  0  0  0  0  0  0
  196.9010  169.6070  143.5950 N   0  0  0  0  0  2  0  0  0  0  0  0
  197.5420  175.5500  143.0320 C   0  0  1  0  0  3  0  0  0  0  0  0
  197.2520  175.2970  141.5330 C   0  0  2  0  0  3  0  0  0  0  0  0
  193.8770  175.4650  145.0190 C   0  0  1  0  0  3  0  0  0  0  0  0
  193.8620  172.9930  145.3910 C   0  0  0  0  0  2  0  0  0  0  0  0
  195.9960  173.8740  140.0840 N   0  0  0  0  0  0  0  0  0  0  0  0
  191.8070  174.2730  145.9970 C   0  0  0  0  0  2  0  0  0  0  0  0
  195.6310  170.6950  145.4370 C   0  0  0  0  0  2  0  0  0  0  0  0
  195.3830  173.0530  145.1880 C   0  0  1  0  0  3  0  0  0  0  0  0
  195.8680  171.8270  144.5330 N   0  0  1  0  0  0  0  0  0  0  0  0
  197.6700  173.0700  143.3740 C   0  0  1  0  0  3  0  0  0  0  0  0
  195.5510  175.2240  139.7860 C   0  0  0  0  0  2  0  0  0  0  0  0
  193.2100  177.0620  146.9130 C   0  0  0  0  0  2  0  0  0  0  0  0
  193.3350  174.3270  145.9110 C   0  0  2  0  0  3  0  0  0  0  0  0
  196.1200  176.1100  140.9060 C   0  0  0  0  0  2  0  0  0  0  0  0
  193.3730  176.8620  145.4020 C   0  0  0  0  0  2  0  0  0  0  0  0
  191.1490  175.5690  146.4990 C   0  0  1  0  0  3  0  0  0  0  0  0
  197.9410  170.6000  143.8590 C   0  0  0  0  0  2  0  0  0  0  0  0
  197.3260  171.9300  144.3320 C   0  0  2  0  0  3  0  0  0  0  0  0
  197.0270  172.8670  142.0260 C   0  0  0  0  0  3  0  0  0  0  0  0
  195.2820  175.4530  145.0460 O   0  0  0  0  0  0  0  0  0  0  0  0
  197.0830  176.8500  143.4980 N   0  0  0  0  0  1  0  0  0  0  0  0
  195.2950  172.6940  139.6030 C   0  0  0  0  0  1  0  0  0  0  0  0
  197.1850  174.3940  143.9910 C   0  0  2  0  0  3  0  0  0  0  0  0
  196.8710  173.9000  141.1960 C   0  0  0  0  0  0  0  0  0  0  0  0
  189.7870  175.2650  147.1010 C   0  0  0  0  0  2  0  0  0  0  0  0
  188.7500  176.1860  146.5550 C   0  0  0  0  0  0  0  0  0  0  0  0
  187.5440  176.0380  146.8780 O   0  0  0  0  0  1  0  0  0  0  0  0
  189.1190  177.2290  145.7150 O   0  0  0  0  0  0  0  0  0  0  0  0
  2 24  1  1  0  0  0
  2 12  1  0  0  0  0
  3 11  1  0  0  0  0
  4 21  1  0  0  0  0
  4  3  1  0  0  0  0
  5 25  1  1  0  0  0
  5 27  1  0  0  0  0
  6 18  1  1  0  0  0
  6  5  1  0  0  0  0
  7 24  1  0  0  0  0
  7 19  1  1  0  0  0
  7 17  1  0  0  0  0
  9 28  1  0  0  0  0
 10 20  1  0  0  0  0
 12  8  1  6  0  0  0
 13 12  1  0  0  0  0
 13 11  1  1  0  0  0
 14 23  1  6  0  0  0
 14 27  1  0  0  0  0
 14 22  1  0  0  0  0
 15  9  1  0  0  0  0
 15 18  1  0  0  0  0
 16  1  1  0  0  0  0
 17  8  1  6  0  0  0
 17 10  1  0  0  0  0
 19 16  1  0  0  0  0
 20 29  1  1  0  0  0
 20  1  1  0  0  0  0
 22 21  1  6  0  0  0
 22 13  1  0  0  0  0
 26  9  1  0  0  0  0
 27  2  1  0  0  0  0
 28  6  1  0  0  0  0
 28 23  2  0  0  0  0
 30 31  1  0  0  0  0
 30 29  1  0  0  0  0
 32 30  2  0  0  0  0
M  END
>  <MODEL>
9

>  <REMARK>
 VINA RESULT:      -6.9      3.605      6.060
  Name = 
  2 active torsions:
  status: ('A' for Active; 'I' for Inactive)
    1  A    between atoms: C_20  and  C_29
    2  A    between atoms: C_29  and  C_30
                            x       y       z     vdW  Elec       q    Type
                         _______ _______ _______ _____ _____    ______ ____

>  <TORSDO>
F 2

$$$$
