=
 OpenBabel11112417543D

 34 41  0  0  1  0  0  0  0  0999 V2000
  189.4940  174.7590  143.0130 C   0  0  0  0  0  0  0  0  0  0  0  0
  191.8540  173.8820  143.3450 C   0  0  0  0  0  2  0  0  0  0  0  0
  185.0020  179.1430  144.8560 C   0  0  1  0  0  3  0  0  0  0  0  0
  187.2810  175.7860  142.7040 C   0  0  2  0  0  3  0  0  0  0  0  0
  186.3670  176.8300  144.7660 C   0  0  2  0  0  3  0  0  0  0  0  0
  184.6620  177.3740  146.6650 C   0  0  0  0  0  1  0  0  0  0  0  0
  186.0970  179.0670  145.7460 O   0  0  0  0  0  0  0  0  0  0  0  0
  185.1000  178.5290  142.3620 C   0  0  0  0  0  2  0  0  0  0  0  0
  190.6320  174.7500  145.2590 C   0  0  2  0  0  3  0  0  0  0  0  0
  192.5190  176.2090  147.3920 C   0  0  0  0  0  2  0  0  0  0  0  0
  187.6020  176.5530  145.5310 N   0  0  0  0  0  2  0  0  0  0  0  0
  185.2830  177.1580  142.6540 O   0  0  0  0  0  0  0  0  0  0  0  0
  190.1050  176.1890  145.4670 C   0  0  1  0  0  3  0  0  0  0  0  0
  192.7620  173.7630  144.5530 C   0  0  0  0  0  2  0  0  0  0  0  0
  186.5450  177.0040  143.2440 C   0  0  2  0  0  3  0  0  0  0  0  0
  185.5470  179.4990  143.4750 C   0  0  0  0  0  2  0  0  0  0  0  0
  192.7660  175.8120  145.9970 N   0  0  0  0  0  0  0  0  0  0  0  0
  188.5700  175.6200  143.4650 C   0  0  0  0  0  0  0  0  0  0  0  0
  185.4510  177.8520  145.4640 C   0  0  2  0  0  0  0  0  0  0  0  0
  188.8040  176.4900  144.6840 C   0  0  1  0  0  3  0  0  0  0  0  0
  188.4300  174.6790  140.8070 C   0  0  0  0  0  3  0  0  0  0  0  0
  191.0680  176.0190  147.8510 C   0  0  0  0  0  2  0  0  0  0  0  0
  187.5730  175.8560  141.2030 C   0  0  0  0  0  2  0  0  0  0  0  0
  190.0500  176.6790  146.9240 C   0  0  0  0  0  2  0  0  0  0  0  0
  192.0920  174.5290  145.7060 C   0  0  1  0  0  3  0  0  0  0  0  0
  189.3500  174.1880  141.6520 C   0  0  0  0  0  3  0  0  0  0  0  0
  190.6130  174.4310  143.8430 N   0  0  0  0  0  0  0  0  0  0  0  0
  194.1090  175.6440  145.8920 O   0  0  0  0  0  0  0  0  0  0  0  0
  194.5550  176.7540  145.1640 C   0  0  0  0  0  2  0  0  0  0  0  0
  196.1440  174.0980  143.3900 C   0  0  0  0  0  2  0  0  0  0  0  0
  195.0070  176.1240  142.7770 C   0  0  0  0  0  2  0  0  0  0  0  0
  195.6150  176.3510  144.1480 C   0  0  0  0  0  3  0  0  0  0  0  0
  195.7520  174.9440  142.1990 C   0  0  0  0  0  2  0  0  0  0  0  0
  196.3120  175.0610  144.5500 C   0  0  0  0  0  2  0  0  0  0  0  0
  1 18  2  0  0  0  0
  1 27  1  0  0  0  0
  2 27  1  0  0  0  0
  2 14  1  0  0  0  0
  3 16  1  6  0  0  0
  3 19  1  0  0  0  0
  3  7  1  0  0  0  0
  4 23  1  6  0  0  0
  4 15  1  0  0  0  0
  4 18  1  0  0  0  0
  5 19  1  0  0  0  0
  5 11  1  1  0  0  0
  8 12  1  0  0  0  0
  8 16  1  0  0  0  0
  9 27  1  6  0  0  0
  9 13  1  0  0  0  0
  9 25  1  0  0  0  0
 10 22  1  0  0  0  0
 13 24  1  1  0  0  0
 15 12  1  6  0  0  0
 15  5  1  0  0  0  0
 17 10  1  0  0  0  0
 19  7  1  0  0  0  0
 19  6  1  1  0  0  0
 20 18  1  6  0  0  0
 20 13  1  0  0  0  0
 20 11  1  0  0  0  0
 21 23  1  0  0  0  0
 21 26  2  0  0  0  0
 24 22  1  0  0  0  0
 25 14  1  6  0  0  0
 25 17  1  0  0  0  0
 26  1  1  0  0  0  0
 28 17  1  0  0  0  0
 29 28  1  0  0  0  0
 30 34  1  0  0  0  0
 31 32  1  0  0  0  0
 32 34  1  0  0  0  0
 32 29  1  0  0  0  0
 33 31  1  0  0  0  0
 33 30  1  0  0  0  0
M  END
>  <MODEL>
1

>  <REMARK>
 VINA RESULT:      -8.9      0.000      0.000
  Name = 
  3 active torsions:
  status: ('A' for Active; 'I' for Inactive)
    1  A    between atoms: N_17  and  O_28
    2  A    between atoms: O_28  and  C_29
    3  A    between atoms: C_29  and  C_32
                            x       y       z     vdW  Elec       q    Type
                         _______ _______ _______ _____ _____    ______ ____

>  <TORSDO>
F 3

$$$$
=
 OpenBabel11112417543D

 34 41  0  0  1  0  0  0  0  0999 V2000
  191.9070  175.9910  145.8190 C   0  0  0  0  0  0  0  0  0  0  0  0
  189.5620  176.3330  146.7330 C   0  0  0  0  0  2  0  0  0  0  0  0
  195.6460  175.4390  140.4800 C   0  0  1  0  0  3  0  0  0  0  0  0
  194.1370  175.7950  144.8040 C   0  0  2  0  0  3  0  0  0  0  0  0
  194.1270  174.7030  142.5700 C   0  0  2  0  0  3  0  0  0  0  0  0
  194.7960  173.0400  140.6750 C   0  0  0  0  0  1  0  0  0  0  0  0
  194.2650  175.3340  140.2000 O   0  0  0  0  0  0  0  0  0  0  0  0
  196.6380  176.6930  142.4930 C   0  0  0  0  0  2  0  0  0  0  0  0
  189.8590  175.0840  144.6680 C   0  0  2  0  0  3  0  0  0  0  0  0
  187.4570  175.5010  142.5970 C   0  0  0  0  0  2  0  0  0  0  0  0
  192.6500  174.6180  142.5480 N   0  0  0  0  0  2  0  0  0  0  0  0
  196.1170  175.7470  143.4040 O   0  0  0  0  0  0  0  0  0  0  0  0
  190.4540  175.5940  143.3350 C   0  0  1  0  0  3  0  0  0  0  0  0
  188.1860  175.9120  146.2570 C   0  0  0  0  0  2  0  0  0  0  0  0
  194.7200  175.8620  143.3990 C   0  0  2  0  0  3  0  0  0  0  0  0
  195.8840  176.7910  141.1510 C   0  0  0  0  0  2  0  0  0  0  0  0
  187.8370  176.2580  143.7990 N   0  0  0  0  0  0  0  0  0  0  0  0
  192.6340  175.8060  144.7080 C   0  0  0  0  0  0  0  0  0  0  0  0
  194.7580  174.4640  141.1870 C   0  0  2  0  0  0  0  0  0  0  0  0
  191.9990  175.6750  143.3380 C   0  0  1  0  0  3  0  0  0  0  0  0
  193.8560  176.8520  147.0280 C   0  0  0  0  0  3  0  0  0  0  0  0
  188.4650  174.4190  142.1920 C   0  0  0  0  0  2  0  0  0  0  0  0
  194.6050  176.9290  145.7200 C   0  0  0  0  0  2  0  0  0  0  0  0
  189.8930  174.9440  142.0590 C   0  0  0  0  0  2  0  0  0  0  0  0
  188.3470  175.3400  144.8390 C   0  0  1  0  0  3  0  0  0  0  0  0
  192.5810  176.4380  147.0620 C   0  0  0  0  0  3  0  0  0  0  0  0
  190.4920  175.7790  145.7740 N   0  0  0  0  0  0  0  0  0  0  0  0
  186.6950  176.8440  144.2430 O   0  0  0  0  0  0  0  0  0  0  0  0
  186.7830  178.1740  143.8140 C   0  0  0  0  0  2  0  0  0  0  0  0
  183.9070  178.6280  145.8770 C   0  0  0  0  0  2  0  0  0  0  0  0
  186.2840  178.7710  146.2010 C   0  0  0  0  0  2  0  0  0  0  0  0
  186.0120  179.1010  144.7460 C   0  0  0  0  0  3  0  0  0  0  0  0
  184.9630  178.9600  146.9090 C   0  0  0  0  0  2  0  0  0  0  0  0
  184.5110  178.9840  144.5320 C   0  0  0  0  0  2  0  0  0  0  0  0
  1 26  1  0  0  0  0
  3 16  1  1  0  0  0
  3 19  1  0  0  0  0
  4 23  1  1  0  0  0
  5 11  1  6  0  0  0
  5 15  1  0  0  0  0
  7  3  1  0  0  0  0
  7 19  1  0  0  0  0
  8 12  1  0  0  0  0
  9 25  1  0  0  0  0
  9 27  1  1  0  0  0
 10 17  1  0  0  0  0
 13 24  1  6  0  0  0
 13 20  1  0  0  0  0
 13  9  1  0  0  0  0
 14  2  1  0  0  0  0
 15 12  1  1  0  0  0
 15  4  1  0  0  0  0
 16  8  1  0  0  0  0
 17 28  1  0  0  0  0
 17 25  1  0  0  0  0
 18  4  1  0  0  0  0
 18  1  2  0  0  0  0
 19  6  1  6  0  0  0
 19  5  1  0  0  0  0
 20 11  1  1  0  0  0
 20 18  1  0  0  0  0
 21 26  2  0  0  0  0
 22 10  1  0  0  0  0
 23 21  1  0  0  0  0
 24 22  1  0  0  0  0
 25 14  1  1  0  0  0
 27  1  1  0  0  0  0
 27  2  1  0  0  0  0
 29 28  1  0  0  0  0
 29 32  1  0  0  0  0
 30 33  1  0  0  0  0
 31 33  1  0  0  0  0
 32 31  1  0  0  0  0
 34 32  1  0  0  0  0
 34 30  1  0  0  0  0
M  END
>  <MODEL>
2

>  <REMARK>
 VINA RESULT:      -8.4      1.857      8.398
  Name = 
  3 active torsions:
  status: ('A' for Active; 'I' for Inactive)
    1  A    between atoms: N_17  and  O_28
    2  A    between atoms: O_28  and  C_29
    3  A    between atoms: C_29  and  C_32
                            x       y       z     vdW  Elec       q    Type
                         _______ _______ _______ _____ _____    ______ ____

>  <TORSDO>
F 3

$$$$
=
 OpenBabel11112417543D

 34 41  0  0  1  0  0  0  0  0999 V2000
  192.3540  176.2160  145.4560 C   0  0  0  0  0  0  0  0  0  0  0  0
  190.2530  177.1670  146.5200 C   0  0  0  0  0  2  0  0  0  0  0  0
  195.2900  174.3520  139.9150 C   0  0  1  0  0  3  0  0  0  0  0  0
  194.3660  175.4260  144.2840 C   0  0  2  0  0  3  0  0  0  0  0  0
  193.8780  174.1720  142.1940 C   0  0  2  0  0  3  0  0  0  0  0  0
  193.9590  172.2380  140.4440 C   0  0  0  0  0  1  0  0  0  0  0  0
  193.8970  174.5420  139.7660 O   0  0  0  0  0  0  0  0  0  0  0  0
  196.7410  175.5180  141.6870 C   0  0  0  0  0  2  0  0  0  0  0  0
  190.0460  175.7050  144.5880 C   0  0  2  0  0  3  0  0  0  0  0  0
  187.5880  176.4770  142.6920 C   0  0  0  0  0  2  0  0  0  0  0  0
  192.4240  174.4260  142.3050 N   0  0  0  0  0  2  0  0  0  0  0  0
  196.1250  174.8010  142.7380 O   0  0  0  0  0  0  0  0  0  0  0  0
  190.5930  175.9460  143.1620 C   0  0  1  0  0  3  0  0  0  0  0  0
  188.7750  177.0320  146.2100 C   0  0  0  0  0  2  0  0  0  0  0  0
  194.7960  175.2320  142.8370 C   0  0  2  0  0  3  0  0  0  0  0  0
  195.8890  175.6670  140.4100 C   0  0  0  0  0  2  0  0  0  0  0  0
  188.2510  177.2310  143.7680 N   0  0  0  0  0  0  0  0  0  0  0  0
  192.9000  175.7720  144.3150 C   0  0  0  0  0  0  0  0  0  0  0  0
  194.2900  173.6730  140.7970 C   0  0  2  0  0  0  0  0  0  0  0  0
  192.1090  175.6700  143.0250 C   0  0  1  0  0  3  0  0  0  0  0  0
  194.5630  176.7110  146.3940 C   0  0  0  0  0  3  0  0  0  0  0  0
  188.2850  175.1620  142.3250 C   0  0  0  0  0  2  0  0  0  0  0  0
  195.1660  176.4980  145.0280 C   0  0  0  0  0  2  0  0  0  0  0  0
  189.7700  175.3310  142.0160 C   0  0  0  0  0  2  0  0  0  0  0  0
  188.6550  176.3150  144.8560 C   0  0  1  0  0  3  0  0  0  0  0  0
  193.2380  176.6050  146.5810 C   0  0  0  0  0  3  0  0  0  0  0  0
  190.9310  176.3310  145.5540 N   0  0  0  0  0  0  0  0  0  0  0  0
  187.3200  178.0990  144.2380 O   0  0  0  0  0  0  0  0  0  0  0  0
  186.0960  177.4400  144.0730 C   0  0  0  0  0  2  0  0  0  0  0  0
  185.5020  177.5790  147.5880 C   0  0  0  0  0  2  0  0  0  0  0  0
  185.4410  179.1590  145.7800 C   0  0  0  0  0  2  0  0  0  0  0  0
  185.1260  177.7970  145.1920 C   0  0  0  0  0  3  0  0  0  0  0  0
  185.1910  179.0230  147.2630 C   0  0  0  0  0  2  0  0  0  0  0  0
  185.1920  176.7910  146.3300 C   0  0  0  0  0  2  0  0  0  0  0  0
  1 27  1  0  0  0  0
  1 26  1  0  0  0  0
  3 16  1  1  0  0  0
  3 19  1  0  0  0  0
  4 18  1  0  0  0  0
  4 23  1  6  0  0  0
  5 11  1  6  0  0  0
  5 15  1  0  0  0  0
  7  3  1  0  0  0  0
  7 19  1  0  0  0  0
  8 12  1  0  0  0  0
  9 25  1  0  0  0  0
  9 27  1  1  0  0  0
 10 17  1  0  0  0  0
 13 24  1  6  0  0  0
 13  9  1  0  0  0  0
 14  2  1  0  0  0  0
 15 12  1  1  0  0  0
 15  4  1  0  0  0  0
 16  8  1  0  0  0  0
 17 28  1  0  0  0  0
 17 25  1  0  0  0  0
 18  1  2  0  0  0  0
 19  6  1  6  0  0  0
 19  5  1  0  0  0  0
 20 11  1  1  0  0  0
 20 13  1  0  0  0  0
 20 18  1  0  0  0  0
 21 26  2  0  0  0  0
 22 10  1  0  0  0  0
 23 21  1  0  0  0  0
 24 22  1  0  0  0  0
 25 14  1  1  0  0  0
 27  2  1  0  0  0  0
 29 28  1  0  0  0  0
 29 32  1  0  0  0  0
 31 33  1  0  0  0  0
 32 31  1  0  0  0  0
 32 34  1  0  0  0  0
 33 30  1  0  0  0  0
 34 30  1  0  0  0  0
M  END
>  <MODEL>
3

>  <REMARK>
 VINA RESULT:      -8.2      2.037      8.420
  Name = 
  3 active torsions:
  status: ('A' for Active; 'I' for Inactive)
    1  A    between atoms: N_17  and  O_28
    2  A    between atoms: O_28  and  C_29
    3  A    between atoms: C_29  and  C_32
                            x       y       z     vdW  Elec       q    Type
                         _______ _______ _______ _____ _____    ______ ____

>  <TORSDO>
F 3

$$$$
=
 OpenBabel11112417543D

 34 41  0  0  1  0  0  0  0  0999 V2000
  190.3760  175.0780  144.7270 C   0  0  0  0  0  0  0  0  0  0  0  0
  191.6670  173.3850  143.3440 C   0  0  0  0  0  2  0  0  0  0  0  0
  184.7220  178.2650  145.5470 C   0  0  1  0  0  3  0  0  0  0  0  0
  188.9720  176.6000  146.0530 C   0  0  2  0  0  3  0  0  0  0  0  0
  187.2300  177.7710  144.7210 C   0  0  2  0  0  3  0  0  0  0  0  0
  185.8120  179.7460  143.7760 C   0  0  0  0  0  1  0  0  0  0  0  0
  184.8160  177.6210  144.2920 O   0  0  0  0  0  0  0  0  0  0  0  0
  185.9820  177.5310  147.6630 C   0  0  0  0  0  2  0  0  0  0  0  0
  190.0570  174.8340  142.2410 C   0  0  2  0  0  3  0  0  0  0  0  0
  188.5750  173.4180  139.7840 C   0  0  0  0  0  2  0  0  0  0  0  0
  187.5800  177.0260  143.4910 N   0  0  0  0  0  2  0  0  0  0  0  0
  187.2290  177.9090  147.1130 O   0  0  0  0  0  0  0  0  0  0  0  0
  188.5320  174.9080  142.4880 C   0  0  1  0  0  3  0  0  0  0  0  0
  191.6730  173.0280  141.8700 C   0  0  0  0  0  2  0  0  0  0  0  0
  187.5160  177.0420  146.0500 C   0  0  2  0  0  3  0  0  0  0  0  0
  184.8870  177.2010  146.6290 C   0  0  0  0  0  2  0  0  0  0  0  0
  189.3760  172.8550  140.8830 N   0  0  0  0  0  0  0  0  0  0  0  0
  189.2320  175.7710  144.8230 C   0  0  0  0  0  0  0  0  0  0  0  0
  185.8730  178.4880  144.6170 C   0  0  2  0  0  0  0  0  0  0  0  0
  188.1500  175.6970  143.7630 C   0  0  1  0  0  3  0  0  0  0  0  0
  190.7850  175.2980  147.1330 C   0  0  0  0  0  3  0  0  0  0  0  0
  188.2850  174.9170  139.9230 C   0  0  0  0  0  2  0  0  0  0  0  0
  189.3760  175.8120  147.3020 C   0  0  0  0  0  2  0  0  0  0  0  0
  187.6740  175.2920  141.2700 C   0  0  0  0  0  2  0  0  0  0  0  0
  190.4920  173.7650  141.2170 C   0  0  1  0  0  3  0  0  0  0  0  0
  191.2370  174.9290  145.9240 C   0  0  0  0  0  3  0  0  0  0  0  0
  190.7270  174.4750  143.4770 N   0  0  0  0  0  0  0  0  0  0  0  0
  189.8800  171.6860  140.4120 O   0  0  0  0  0  0  0  0  0  0  0  0
  189.6710  171.7350  139.0280 C   0  0  0  0  0  2  0  0  0  0  0  0
  191.1040  168.4680  139.0260 C   0  0  0  0  0  2  0  0  0  0  0  0
  189.7290  169.7330  137.5160 C   0  0  0  0  0  2  0  0  0  0  0  0
  190.5570  170.7290  138.3050 C   0  0  0  0  0  3  0  0  0  0  0  0
  190.4420  168.4100  137.6670 C   0  0  0  0  0  2  0  0  0  0  0  0
  191.4080  169.9320  139.2810 C   0  0  0  0  0  2  0  0  0  0  0  0
  1 18  2  0  0  0  0
  1 26  1  0  0  0  0
  2 27  1  0  0  0  0
  3 16  1  1  0  0  0
  4 23  1  1  0  0  0
  5 11  1  6  0  0  0
  5 15  1  0  0  0  0
  7 19  1  0  0  0  0
  7  3  1  0  0  0  0
  9 13  1  0  0  0  0
  9 27  1  1  0  0  0
 10 22  1  0  0  0  0
 10 17  1  0  0  0  0
 12  8  1  0  0  0  0
 13 24  1  6  0  0  0
 13 20  1  0  0  0  0
 14  2  1  0  0  0  0
 15  4  1  0  0  0  0
 15 12  1  1  0  0  0
 16  8  1  0  0  0  0
 17 25  1  0  0  0  0
 18  4  1  0  0  0  0
 19  6  1  6  0  0  0
 19  5  1  0  0  0  0
 19  3  1  0  0  0  0
 20 11  1  6  0  0  0
 20 18  1  0  0  0  0
 21 23  1  0  0  0  0
 22 24  1  0  0  0  0
 25 14  1  1  0  0  0
 25  9  1  0  0  0  0
 26 21  2  0  0  0  0
 27  1  1  0  0  0  0
 28 17  1  0  0  0  0
 29 28  1  0  0  0  0
 30 34  1  0  0  0  0
 31 33  1  0  0  0  0
 31 32  1  0  0  0  0
 32 29  1  0  0  0  0
 32 34  1  0  0  0  0
 33 30  1  0  0  0  0
M  END
>  <MODEL>
4

>  <REMARK>
 VINA RESULT:      -8.0      2.990      5.733
  Name = 
  3 active torsions:
  status: ('A' for Active; 'I' for Inactive)
    1  A    between atoms: N_17  and  O_28
    2  A    between atoms: O_28  and  C_29
    3  A    between atoms: C_29  and  C_32
                            x       y       z     vdW  Elec       q    Type
                         _______ _______ _______ _____ _____    ______ ____

>  <TORSDO>
F 3

$$$$
=
 OpenBabel11112417543D

 34 41  0  0  1  0  0  0  0  0999 V2000
  192.1010  175.7700  145.6110 C   0  0  0  0  0  0  0  0  0  0  0  0
  190.2450  177.4700  145.2700 C   0  0  0  0  0  2  0  0  0  0  0  0
  195.2050  170.5380  143.2070 C   0  0  1  0  0  3  0  0  0  0  0  0
  193.9400  174.1440  145.7540 C   0  0  2  0  0  3  0  0  0  0  0  0
  193.4470  171.9770  144.6410 C   0  0  2  0  0  3  0  0  0  0  0  0
  193.2230  169.3950  144.3390 C   0  0  0  0  0  1  0  0  0  0  0  0
  193.9830  170.8060  142.5490 O   0  0  0  0  0  0  0  0  0  0  0  0
  196.6280  172.3010  144.4200 C   0  0  0  0  0  2  0  0  0  0  0  0
  189.9260  175.1920  144.4820 C   0  0  2  0  0  3  0  0  0  0  0  0
  188.1730  175.0270  141.8110 C   0  0  0  0  0  2  0  0  0  0  0  0
  192.1440  172.4600  144.1340 N   0  0  0  0  0  2  0  0  0  0  0  0
  195.6560  172.4610  145.4350 O   0  0  0  0  0  0  0  0  0  0  0  0
  190.7500  174.4420  143.4090 C   0  0  1  0  0  3  0  0  0  0  0  0
  188.8700  177.3990  144.6360 C   0  0  0  0  0  2  0  0  0  0  0  0
  194.5250  173.0580  144.8610 C   0  0  2  0  0  3  0  0  0  0  0  0
  196.0870  171.7780  143.0740 C   0  0  0  0  0  2  0  0  0  0  0  0
  188.8460  176.1660  142.4540 N   0  0  0  0  0  0  0  0  0  0  0  0
  192.6670  174.6540  145.1300 C   0  0  0  0  0  0  0  0  0  0  0  0
  193.9130  170.6840  143.9470 C   0  0  2  0  0  0  0  0  0  0  0  0
  192.1090  173.9170  143.9280 C   0  0  1  0  0  3  0  0  0  0  0  0
  194.1670  176.3920  146.7730 C   0  0  0  0  0  3  0  0  0  0  0  0
  188.4850  173.6690  142.4510 C   0  0  0  0  0  2  0  0  0  0  0  0
  194.8950  175.3130  146.0090 C   0  0  0  0  0  2  0  0  0  0  0  0
  189.9810  173.3940  142.5860 C   0  0  0  0  0  2  0  0  0  0  0  0
  188.7640  176.0400  143.9250 C   0  0  1  0  0  3  0  0  0  0  0  0
  192.8620  176.6190  146.5590 C   0  0  0  0  0  3  0  0  0  0  0  0
  190.7860  176.1320  145.1780 N   0  0  0  0  0  0  0  0  0  0  0  0
  188.1610  177.2700  142.0620 O   0  0  0  0  0  0  0  0  0  0  0  0
  186.8860  176.8010  141.7230 C   0  0  0  0  0  2  0  0  0  0  0  0
  185.3080  178.2020  144.6000 C   0  0  0  0  0  2  0  0  0  0  0  0
  186.3680  179.0820  142.6310 C   0  0  0  0  0  2  0  0  0  0  0  0
  185.8020  177.7240  142.2630 C   0  0  0  0  0  3  0  0  0  0  0  0
  185.6350  179.4950  143.8860 C   0  0  0  0  0  2  0  0  0  0  0  0
  185.1550  177.1530  143.5150 C   0  0  0  0  0  2  0  0  0  0  0  0
  1 26  1  0  0  0  0
  3 16  1  1  0  0  0
  3 19  1  0  0  0  0
  4 23  1  6  0  0  0
  5 11  1  6  0  0  0
  5 15  1  0  0  0  0
  7  3  1  0  0  0  0
  7 19  1  0  0  0  0
  8 12  1  0  0  0  0
  9 27  1  6  0  0  0
 10 22  1  0  0  0  0
 10 17  1  0  0  0  0
 13 24  1  1  0  0  0
 13 20  1  0  0  0  0
 13  9  1  0  0  0  0
 14  2  1  0  0  0  0
 15 12  1  1  0  0  0
 15  4  1  0  0  0  0
 16  8  1  0  0  0  0
 17 25  1  0  0  0  0
 18  1  2  0  0  0  0
 18  4  1  0  0  0  0
 19  6  1  1  0  0  0
 19  5  1  0  0  0  0
 20 11  1  1  0  0  0
 20 18  1  0  0  0  0
 22 24  1  0  0  0  0
 23 21  1  0  0  0  0
 25  9  1  0  0  0  0
 25 14  1  1  0  0  0
 26 21  2  0  0  0  0
 27  2  1  0  0  0  0
 27  1  1  0  0  0  0
 28 17  1  0  0  0  0
 29 28  1  0  0  0  0
 29 32  1  0  0  0  0
 31 33  1  0  0  0  0
 32 31  1  0  0  0  0
 32 34  1  0  0  0  0
 33 30  1  0  0  0  0
 34 30  1  0  0  0  0
M  END
>  <MODEL>
5

>  <REMARK>
 VINA RESULT:      -8.0      2.215      8.569
  Name = 
  3 active torsions:
  status: ('A' for Active; 'I' for Inactive)
    1  A    between atoms: N_17  and  O_28
    2  A    between atoms: O_28  and  C_29
    3  A    between atoms: C_29  and  C_32
                            x       y       z     vdW  Elec       q    Type
                         _______ _______ _______ _____ _____    ______ ____

>  <TORSDO>
F 3

$$$$
=
 OpenBabel11112417543D

 34 41  0  0  1  0  0  0  0  0999 V2000
  191.1010  173.0440  142.4990 C   0  0  0  0  0  0  0  0  0  0  0  0
  188.6840  173.8110  142.3770 C   0  0  0  0  0  2  0  0  0  0  0  0
  196.9670  173.9380  145.2530 C   0  0  1  0  0  3  0  0  0  0  0  0
  193.4300  172.3200  142.8100 C   0  0  2  0  0  3  0  0  0  0  0  0
  194.9690  174.1580  143.4710 C   0  0  2  0  0  3  0  0  0  0  0  0
  197.0650  175.7110  143.4180 C   0  0  0  0  0  1  0  0  0  0  0  0
  196.0760  175.0090  145.4920 O   0  0  0  0  0  0  0  0  0  0  0  0
  196.2480  171.5200  144.7650 C   0  0  0  0  0  2  0  0  0  0  0  0
  190.4290  175.4550  142.7790 C   0  0  2  0  0  3  0  0  0  0  0  0
  189.4850  177.8420  144.6870 C   0  0  0  0  0  2  0  0  0  0  0  0
  193.8630  175.1370  143.5630 N   0  0  0  0  0  2  0  0  0  0  0  0
  195.7100  171.8800  143.5080 O   0  0  0  0  0  0  0  0  0  0  0  0
  191.3980  175.5240  143.9830 C   0  0  1  0  0  3  0  0  0  0  0  0
  188.0110  175.1640  142.5090 C   0  0  0  0  0  2  0  0  0  0  0  0
  194.5870  172.6870  143.7310 C   0  0  2  0  0  3  0  0  0  0  0  0
  196.3210  172.6650  145.7950 C   0  0  0  0  0  2  0  0  0  0  0  0
  188.8870  176.5250  144.4220 N   0  0  0  0  0  0  0  0  0  0  0  0
  192.3080  173.3010  143.0250 C   0  0  0  0  0  0  0  0  0  0  0  0
  196.2600  174.6540  144.1450 C   0  0  2  0  0  0  0  0  0  0  0  0
  192.5700  174.5170  143.8930 C   0  0  1  0  0  3  0  0  0  0  0  0
  191.6830  170.6880  142.1570 C   0  0  0  0  0  3  0  0  0  0  0  0
  190.8660  178.0450  144.0520 C   0  0  0  0  0  2  0  0  0  0  0  0
  192.9140  170.8930  143.0050 C   0  0  0  0  0  2  0  0  0  0  0  0
  191.8560  176.9340  144.3940 C   0  0  0  0  0  2  0  0  0  0  0  0
  189.0740  176.1570  143.0020 C   0  0  1  0  0  3  0  0  0  0  0  0
  190.8220  171.6960  141.9480 C   0  0  0  0  0  3  0  0  0  0  0  0
  190.1000  174.0670  142.5070 N   0  0  0  0  0  0  0  0  0  0  0  0
  187.5600  176.6630  144.6750 O   0  0  0  0  0  0  0  0  0  0  0  0
  187.4260  176.4040  146.0440 C   0  0  0  0  0  2  0  0  0  0  0  0
  185.2970  178.9730  147.3090 C   0  0  0  0  0  2  0  0  0  0  0  0
  185.2270  177.4570  145.4470 C   0  0  0  0  0  2  0  0  0  0  0  0
  186.0360  176.7840  146.5390 C   0  0  0  0  0  3  0  0  0  0  0  0
  184.4370  178.5400  146.1430 C   0  0  0  0  0  2  0  0  0  0  0  0
  186.1060  177.7530  147.7080 C   0  0  0  0  0  2  0  0  0  0  0  0
  1 27  1  0  0  0  0
  1 18  2  0  0  0  0
  2 27  1  0  0  0  0
  2 14  1  0  0  0  0
  3  7  1  0  0  0  0
  3 16  1  1  0  0  0
  4 23  1  1  0  0  0
  4 18  1  0  0  0  0
  4 15  1  0  0  0  0
  5 11  1  1  0  0  0
  5 15  1  0  0  0  0
  5 19  1  0  0  0  0
  8 16  1  0  0  0  0
  9 27  1  1  0  0  0
  9 25  1  0  0  0  0
  9 13  1  0  0  0  0
 11 20  1  0  0  0  0
 12  8  1  0  0  0  0
 13 24  1  6  0  0  0
 15 12  1  6  0  0  0
 17 28  1  0  0  0  0
 17 10  1  0  0  0  0
 19  6  1  6  0  0  0
 19  3  1  0  0  0  0
 19  7  1  0  0  0  0
 20 18  1  6  0  0  0
 20 13  1  0  0  0  0
 21 23  1  0  0  0  0
 22 24  1  0  0  0  0
 22 10  1  0  0  0  0
 25 14  1  1  0  0  0
 25 17  1  0  0  0  0
 26 21  2  0  0  0  0
 26  1  1  0  0  0  0
 28 29  1  0  0  0  0
 29 32  1  0  0  0  0
 30 34  1  0  0  0  0
 31 33  1  0  0  0  0
 31 32  1  0  0  0  0
 32 34  1  0  0  0  0
 33 30  1  0  0  0  0
M  END
>  <MODEL>
6

>  <REMARK>
 VINA RESULT:      -7.9      2.083      8.291
  Name = 
  3 active torsions:
  status: ('A' for Active; 'I' for Inactive)
    1  A    between atoms: N_17  and  O_28
    2  A    between atoms: O_28  and  C_29
    3  A    between atoms: C_29  and  C_32
                            x       y       z     vdW  Elec       q    Type
                         _______ _______ _______ _____ _____    ______ ____

>  <TORSDO>
F 3

$$$$
=
 OpenBabel11112417543D

 34 41  0  0  1  0  0  0  0  0999 V2000
  192.1580  175.9650  145.4860 C   0  0  0  0  0  0  0  0  0  0  0  0
  189.7210  176.4790  145.9800 C   0  0  0  0  0  2  0  0  0  0  0  0
  196.6330  174.6930  140.8870 C   0  0  1  0  0  3  0  0  0  0  0  0
  194.5050  175.5890  144.8570 C   0  0  2  0  0  3  0  0  0  0  0  0
  194.7820  174.2470  142.7830 C   0  0  2  0  0  3  0  0  0  0  0  0
  195.6520  172.3570  141.2080 C   0  0  0  0  0  1  0  0  0  0  0  0
  195.3060  174.5960  140.4080 O   0  0  0  0  0  0  0  0  0  0  0  0
  197.3660  176.1410  142.8800 C   0  0  0  0  0  2  0  0  0  0  0  0
  190.2680  174.9920  144.1360 C   0  0  2  0  0  3  0  0  0  0  0  0
  188.2300  175.2380  141.6830 C   0  0  0  0  0  2  0  0  0  0  0  0
  193.3230  174.2030  142.5410 N   0  0  0  0  0  2  0  0  0  0  0  0
  196.6690  175.3210  143.7970 O   0  0  0  0  0  0  0  0  0  0  0  0
  191.0810  175.3280  142.8640 C   0  0  1  0  0  3  0  0  0  0  0  0
  188.4140  176.0460  145.3450 C   0  0  0  0  0  2  0  0  0  0  0  0
  195.2960  175.4750  143.5620 C   0  0  2  0  0  3  0  0  0  0  0  0
  196.8290  176.1050  141.4340 C   0  0  0  0  0  2  0  0  0  0  0  0
  188.4580  176.1170  142.8400 N   0  0  0  0  0  0  0  0  0  0  0  0
  193.0360  175.6320  144.5290 C   0  0  0  0  0  0  0  0  0  0  0  0
  195.6030  173.8320  141.5490 C   0  0  2  0  0  0  0  0  0  0  0  0
  192.6100  175.3630  143.0990 C   0  0  1  0  0  3  0  0  0  0  0  0
  193.9410  176.9030  146.8820 C   0  0  0  0  0  3  0  0  0  0  0  0
  189.2360  174.0870  141.5610 C   0  0  0  0  0  2  0  0  0  0  0  0
  194.8810  176.8060  145.7060 C   0  0  0  0  0  2  0  0  0  0  0  0
  190.6900  174.5510  141.5950 C   0  0  0  0  0  2  0  0  0  0  0  0
  188.7620  175.3100  144.0410 C   0  0  1  0  0  3  0  0  0  0  0  0
  192.6560  176.5320  146.7620 C   0  0  0  0  0  3  0  0  0  0  0  0
  190.7580  175.7910  145.2450 N   0  0  0  0  0  0  0  0  0  0  0  0
  187.2910  176.7830  143.0340 O   0  0  0  0  0  0  0  0  0  0  0  0
  187.5270  178.0730  142.5430 C   0  0  0  0  0  2  0  0  0  0  0  0
  184.0080  178.2900  143.0900 C   0  0  0  0  0  2  0  0  0  0  0  0
  185.9690  179.0470  144.2540 C   0  0  0  0  0  2  0  0  0  0  0  0
  186.3240  178.9770  142.7810 C   0  0  0  0  0  3  0  0  0  0  0  0
  184.4600  179.0750  144.3020 C   0  0  0  0  0  2  0  0  0  0  0  0
  185.0930  178.4720  142.0450 C   0  0  0  0  0  2  0  0  0  0  0  0
  1 26  1  0  0  0  0
  3 16  1  1  0  0  0
  3 19  1  0  0  0  0
  4 23  1  6  0  0  0
  5 11  1  6  0  0  0
  5 15  1  0  0  0  0
  7  3  1  0  0  0  0
  7 19  1  0  0  0  0
  8 12  1  0  0  0  0
  9 27  1  1  0  0  0
 10 17  1  0  0  0  0
 13 24  1  6  0  0  0
 13 20  1  0  0  0  0
 13  9  1  0  0  0  0
 14  2  1  0  0  0  0
 15 12  1  1  0  0  0
 15  4  1  0  0  0  0
 16  8  1  0  0  0  0
 17 28  1  0  0  0  0
 17 25  1  0  0  0  0
 18  4  1  0  0  0  0
 18  1  2  0  0  0  0
 19  6  1  6  0  0  0
 19  5  1  0  0  0  0
 20 11  1  1  0  0  0
 20 18  1  0  0  0  0
 22 24  1  0  0  0  0
 22 10  1  0  0  0  0
 23 21  1  0  0  0  0
 25  9  1  0  0  0  0
 25 14  1  1  0  0  0
 26 21  2  0  0  0  0
 27  1  1  0  0  0  0
 27  2  1  0  0  0  0
 29 32  1  0  0  0  0
 29 28  1  0  0  0  0
 30 33  1  0  0  0  0
 31 33  1  0  0  0  0
 32 31  1  0  0  0  0
 34 32  1  0  0  0  0
 34 30  1  0  0  0  0
M  END
>  <MODEL>
7

>  <REMARK>
 VINA RESULT:      -7.9      1.891      8.655
  Name = 
  3 active torsions:
  status: ('A' for Active; 'I' for Inactive)
    1  A    between atoms: N_17  and  O_28
    2  A    between atoms: O_28  and  C_29
    3  A    between atoms: C_29  and  C_32
                            x       y       z     vdW  Elec       q    Type
                         _______ _______ _______ _____ _____    ______ ____

>  <TORSDO>
F 3

$$$$
=
 OpenBabel11112417543D

 34 41  0  0  1  0  0  0  0  0999 V2000
  190.4160  174.2550  142.6840 C   0  0  0  0  0  0  0  0  0  0  0  0
  188.9230  176.2370  143.2260 C   0  0  0  0  0  2  0  0  0  0  0  0
  194.4650  169.6840  145.0310 C   0  0  1  0  0  3  0  0  0  0  0  0
  191.7910  172.2500  142.3180 C   0  0  2  0  0  3  0  0  0  0  0  0
  193.6550  172.0030  143.9450 C   0  0  2  0  0  3  0  0  0  0  0  0
  196.0860  171.6440  144.8190 C   0  0  0  0  0  1  0  0  0  0  0  0
  194.1910  170.7100  145.9630 O   0  0  0  0  0  0  0  0  0  0  0  0
  192.9020  169.0030  143.1070 C   0  0  0  0  0  2  0  0  0  0  0  0
  190.9530  175.8940  144.5200 C   0  0  2  0  0  3  0  0  0  0  0  0
  190.6560  176.7950  147.5750 C   0  0  0  0  0  2  0  0  0  0  0  0
  193.2210  173.1880  144.7180 N   0  0  0  0  0  2  0  0  0  0  0  0
  193.1200  170.2250  142.4300 O   0  0  0  0  0  0  0  0  0  0  0  0
  191.3050  174.6840  145.4170 C   0  0  1  0  0  3  0  0  0  0  0  0
  188.9990  177.3500  144.2520 C   0  0  0  0  0  2  0  0  0  0  0  0
  192.5400  171.2510  143.1890 C   0  0  2  0  0  3  0  0  0  0  0  0
  193.1340  169.0510  144.6310 C   0  0  0  0  0  2  0  0  0  0  0  0
  189.6410  176.5490  146.5380 N   0  0  0  0  0  0  0  0  0  0  0  0
  191.3000  173.3790  143.1850 C   0  0  0  0  0  0  0  0  0  0  0  0
  194.6660  171.1310  144.7090 C   0  0  2  0  0  0  0  0  0  0  0  0
  191.7750  173.4410  144.6230 C   0  0  1  0  0  3  0  0  0  0  0  0
  189.8590  172.7370  140.8430 C   0  0  0  0  0  3  0  0  0  0  0  0
  192.0820  176.4160  147.1600 C   0  0  0  0  0  2  0  0  0  0  0  0
  190.6160  171.6390  141.5490 C   0  0  0  0  0  2  0  0  0  0  0  0
  192.1990  174.9890  146.6310 C   0  0  0  0  0  2  0  0  0  0  0  0
  190.1400  177.0010  145.2220 C   0  0  1  0  0  3  0  0  0  0  0  0
  189.7460  173.9540  141.3970 C   0  0  0  0  0  3  0  0  0  0  0  0
  190.1200  175.4480  143.4180 N   0  0  0  0  0  0  0  0  0  0  0  0
  188.5660  177.2990  146.8890 O   0  0  0  0  0  0  0  0  0  0  0  0
  187.5620  176.3700  147.1910 C   0  0  0  0  0  2  0  0  0  0  0  0
  185.5370  179.1740  146.3160 C   0  0  0  0  0  2  0  0  0  0  0  0
  185.3540  176.7910  146.0740 C   0  0  0  0  0  2  0  0  0  0  0  0
  186.2030  177.0500  147.3040 C   0  0  0  0  0  3  0  0  0  0  0  0
  184.6150  178.0830  145.8180 C   0  0  0  0  0  2  0  0  0  0  0  0
  186.3440  178.5580  147.4430 C   0  0  0  0  0  2  0  0  0  0  0  0
  1 18  2  0  0  0  0
  1 27  1  0  0  0  0
  2 27  1  0  0  0  0
  2 14  1  0  0  0  0
  3 16  1  6  0  0  0
  3  7  1  0  0  0  0
  4 23  1  1  0  0  0
  4 18  1  0  0  0  0
  4 15  1  0  0  0  0
  5 19  1  0  0  0  0
  5 11  1  1  0  0  0
  8 16  1  0  0  0  0
  9 27  1  6  0  0  0
  9 25  1  0  0  0  0
  9 13  1  0  0  0  0
 12  8  1  0  0  0  0
 13 24  1  1  0  0  0
 15 12  1  6  0  0  0
 15  5  1  0  0  0  0
 17 28  1  0  0  0  0
 17 10  1  0  0  0  0
 19  6  1  6  0  0  0
 19  3  1  0  0  0  0
 19  7  1  0  0  0  0
 20 18  1  6  0  0  0
 20 11  1  0  0  0  0
 20 13  1  0  0  0  0
 21 26  2  0  0  0  0
 21 23  1  0  0  0  0
 22 10  1  0  0  0  0
 24 22  1  0  0  0  0
 25 14  1  6  0  0  0
 25 17  1  0  0  0  0
 26  1  1  0  0  0  0
 28 29  1  0  0  0  0
 29 32  1  0  0  0  0
 30 34  1  0  0  0  0
 31 32  1  0  0  0  0
 32 34  1  0  0  0  0
 33 31  1  0  0  0  0
 33 30  1  0  0  0  0
M  END
>  <MODEL>
8

>  <REMARK>
 VINA RESULT:      -7.9      2.618      7.890
  Name = 
  3 active torsions:
  status: ('A' for Active; 'I' for Inactive)
    1  A    between atoms: N_17  and  O_28
    2  A    between atoms: O_28  and  C_29
    3  A    between atoms: C_29  and  C_32
                            x       y       z     vdW  Elec       q    Type
                         _______ _______ _______ _____ _____    ______ ____

>  <TORSDO>
F 3

$$$$
=
 OpenBabel11112417543D

 34 41  0  0  1  0  0  0  0  0999 V2000
  190.8840  175.7160  144.8870 C   0  0  0  0  0  0  0  0  0  0  0  0
  192.3630  174.0740  143.6350 C   0  0  0  0  0  2  0  0  0  0  0  0
  184.8310  178.0510  145.7270 C   0  0  1  0  0  3  0  0  0  0  0  0
  189.3210  177.1650  146.1130 C   0  0  2  0  0  3  0  0  0  0  0  0
  187.3370  177.8510  144.7800 C   0  0  2  0  0  3  0  0  0  0  0  0
  185.5590  179.4270  143.7040 C   0  0  0  0  0  1  0  0  0  0  0  0
  184.9630  177.2630  144.5600 O   0  0  0  0  0  0  0  0  0  0  0  0
  186.3110  177.8250  147.8160 C   0  0  0  0  0  2  0  0  0  0  0  0
  190.4740  175.0840  142.4840 C   0  0  2  0  0  3  0  0  0  0  0  0
  189.1180  173.1260  140.3490 C   0  0  0  0  0  2  0  0  0  0  0  0
  187.7390  177.0080  143.6320 N   0  0  0  0  0  2  0  0  0  0  0  0
  187.4440  178.3160  147.1290 O   0  0  0  0  0  0  0  0  0  0  0  0
  188.9750  174.9500  142.8360 C   0  0  1  0  0  3  0  0  0  0  0  0
  192.3460  173.5240  142.2230 C   0  0  0  0  0  2  0  0  0  0  0  0
  187.8130  177.3670  146.1660 C   0  0  2  0  0  3  0  0  0  0  0  0
  185.2300  177.1850  146.9200 C   0  0  0  0  0  2  0  0  0  0  0  0
  190.0600  172.8540  141.4450 N   0  0  0  0  0  0  0  0  0  0  0  0
  189.6470  176.2260  144.9820 C   0  0  0  0  0  0  0  0  0  0  0  0
  185.8760  178.3230  144.6910 C   0  0  2  0  0  0  0  0  0  0  0  0
  188.5360  175.8370  144.0260 C   0  0  1  0  0  3  0  0  0  0  0  0
  191.3820  176.3280  147.2070 C   0  0  0  0  0  3  0  0  0  0  0  0
  188.5890  174.5650  140.3170 C   0  0  0  0  0  2  0  0  0  0  0  0
  189.9190  176.6310  147.4170 C   0  0  0  0  0  2  0  0  0  0  0  0
  187.9980  175.0210  141.6490 C   0  0  0  0  0  2  0  0  0  0  0  0
  191.0250  173.9670  141.5740 C   0  0  1  0  0  3  0  0  0  0  0  0
  191.8220  175.8720  146.0240 C   0  0  0  0  0  3  0  0  0  0  0  0
  191.2620  175.0100  143.7010 N   0  0  0  0  0  0  0  0  0  0  0  0
  190.7250  171.7260  141.0890 O   0  0  0  0  0  0  0  0  0  0  0  0
  190.4400  170.8040  142.1040 C   0  0  0  0  0  2  0  0  0  0  0  0
  193.9270  170.1340  141.7570 C   0  0  0  0  0  2  0  0  0  0  0  0
  192.3310  170.0090  143.5490 C   0  0  0  0  0  2  0  0  0  0  0  0
  191.5680  169.7920  142.2570 C   0  0  0  0  0  3  0  0  0  0  0  0
  193.7790  169.7400  143.2100 C   0  0  0  0  0  2  0  0  0  0  0  0
  192.5710  169.8990  141.1190 C   0  0  0  0  0  2  0  0  0  0  0  0
  1 18  2  0  0  0  0
  1 26  1  0  0  0  0
  2 27  1  0  0  0  0
  3 16  1  1  0  0  0
  4 15  1  0  0  0  0
  4 23  1  1  0  0  0
  5 11  1  6  0  0  0
  5 15  1  0  0  0  0
  7 19  1  0  0  0  0
  7  3  1  0  0  0  0
  9 13  1  0  0  0  0
  9 27  1  1  0  0  0
 10 17  1  0  0  0  0
 12  8  1  0  0  0  0
 13 24  1  6  0  0  0
 13 20  1  0  0  0  0
 14  2  1  0  0  0  0
 15 12  1  1  0  0  0
 16  8  1  0  0  0  0
 17 25  1  0  0  0  0
 18  4  1  0  0  0  0
 19  6  1  6  0  0  0
 19  5  1  0  0  0  0
 19  3  1  0  0  0  0
 20 11  1  6  0  0  0
 20 18  1  0  0  0  0
 21 23  1  0  0  0  0
 22 10  1  0  0  0  0
 22 24  1  0  0  0  0
 25 14  1  1  0  0  0
 25  9  1  0  0  0  0
 26 21  2  0  0  0  0
 27  1  1  0  0  0  0
 28 17  1  0  0  0  0
 28 29  1  0  0  0  0
 29 32  1  0  0  0  0
 30 33  1  0  0  0  0
 32 31  1  0  0  0  0
 33 31  1  0  0  0  0
 34 30  1  0  0  0  0
 34 32  1  0  0  0  0
M  END
>  <MODEL>
9

>  <REMARK>
 VINA RESULT:      -7.6      2.470      4.986
  Name = 
  3 active torsions:
  status: ('A' for Active; 'I' for Inactive)
    1  A    between atoms: N_17  and  O_28
    2  A    between atoms: O_28  and  C_29
    3  A    between atoms: C_29  and  C_32
                            x       y       z     vdW  Elec       q    Type
                         _______ _______ _______ _____ _____    ______ ____

>  <TORSDO>
F 3

$$$$
