=
 OpenBabel11112417403D

 28 32  0  0  1  0  0  0  0  0999 V2000
  185.9250  177.0980  144.2450 C   0  0  0  0  0  0  0  0  0  0  0  0
  187.4130  173.9070  142.2740 O   0  0  0  0  0  0  0  0  0  0  0  0
  191.1020  176.6010  147.6370 N   0  0  0  0  0  1  0  0  0  0  0  0
  186.1860  179.0910  142.2970 C   0  0  0  0  0  3  0  0  0  0  0  0
  191.3440  176.9170  145.1850 C   0  0  0  0  0  0  0  0  0  0  0  0
  185.8050  176.1400  145.2480 O   0  0  0  0  0  0  0  0  0  0  0  0
  188.1930  175.0000  140.2180 O   0  0  0  0  0  0  0  0  0  0  0  0
  188.5740  174.6010  141.6150 S   0  0  0  0  0  0  0  0  0  0  0  0
  190.9700  173.7170  142.4800 C   0  0  0  0  0  0  0  0  0  0  0  0
  189.0290  176.0220  142.5010 N   0  0  2  0  0  0  0  0  0  0  0  0
  187.1540  178.1650  147.5290 O   0  0  0  0  0  0  0  0  0  0  0  0
  189.2030  176.8160  144.6830 C   0  0  0  0  0  0  0  0  0  0  0  0
  191.1380  174.8430  143.1020 N   0  0  0  0  0  0  0  0  0  0  0  0
  189.9140  173.5340  141.5520 N   0  0  0  0  0  2  0  0  0  0  0  0
  187.0580  177.0450  147.0540 C   0  0  0  0  0  0  0  0  0  0  0  0
  187.0940  177.1590  143.4690 C   0  0  0  0  0  0  0  0  0  0  0  0
  190.5750  176.8490  146.3360 C   0  0  0  0  0  0  0  0  0  0  0  0
  191.8520  172.5680  142.8080 C   0  0  0  0  0  1  0  0  0  0  0  0
  188.2620  176.1690  146.9320 C   0  0  0  0  0  2  0  0  0  0  0  0
  187.2180  178.1730  142.5030 C   0  0  0  0  0  3  0  0  0  0  0  0
  184.8950  178.0260  144.0400 C   0  0  0  0  0  3  0  0  0  0  0  0
  185.0230  179.0160  143.0640 C   0  0  0  0  0  3  0  0  0  0  0  0
  185.7270  176.5310  146.6110 C   0  0  0  0  0  2  0  0  0  0  0  0
  190.4370  176.8770  144.1410 C   0  0  0  0  0  0  0  0  0  0  0  0
  189.2610  176.7440  146.0330 N   0  0  0  0  0  0  0  0  0  0  0  0
  190.4690  176.1330  142.8570 C   0  0  2  0  0  3  0  0  0  0  0  0
  192.8110  176.6760  145.0930 C   0  0  0  0  0  1  0  0  0  0  0  0
  188.2350  176.2070  143.7330 C   0  0  1  0  0  3  0  0  0  0  0  0
  1  6  1  0  0  0  0
  4 20  2  0  0  0  0
  4 22  1  0  0  0  0
  5 17  2  0  0  0  0
  6 23  1  0  0  0  0
  7  8  2  0  0  0  0
  8  2  2  0  0  0  0
  9 18  1  0  0  0  0
  9 13  2  0  0  0  0
 10  8  1  1  0  0  0
 10 26  1  0  0  0  0
 10 28  1  0  0  0  0
 12 25  1  0  0  0  0
 14  8  1  0  0  0  0
 14  9  1  0  0  0  0
 15 11  2  0  0  0  0
 16  1  2  0  0  0  0
 17  3  1  0  0  0  0
 19 15  1  0  0  0  0
 20 16  1  0  0  0  0
 21  1  1  0  0  0  0
 22 21  2  0  0  0  0
 23 15  1  0  0  0  0
 24 12  2  0  0  0  0
 24  5  1  0  0  0  0
 25 17  1  0  0  0  0
 25 19  1  0  0  0  0
 26 13  1  1  0  0  0
 26 24  1  0  0  0  0
 27  5  1  0  0  0  0
 28 16  1  6  0  0  0
 28 12  1  0  0  0  0
M  END
>  <MODEL>
1

>  <REMARK>
 VINA RESULT:      -8.1      0.000      0.000
  Name = 
  0 active torsions:
  status: ('A' for Active; 'I' for Inactive)
                            x       y       z     vdW  Elec       q    Type
                         _______ _______ _______ _____ _____    ______ ____

>  <TORSDO>
F 0

$$$$
=
 OpenBabel11112417403D

 28 32  0  0  1  0  0  0  0  0999 V2000
  188.7930  176.6770  145.3090 C   0  0  0  0  0  0  0  0  0  0  0  0
  192.6300  177.3860  144.2800 O   0  0  0  0  0  0  0  0  0  0  0  0
  188.3160  174.5170  139.5070 N   0  0  0  0  0  1  0  0  0  0  0  0
  189.1150  174.5840  147.1390 C   0  0  0  0  0  3  0  0  0  0  0  0
  190.0000  173.4700  141.0040 C   0  0  0  0  0  0  0  0  0  0  0  0
  188.5920  177.6990  144.3830 O   0  0  0  0  0  0  0  0  0  0  0  0
  193.7390  175.5480  145.4730 O   0  0  0  0  0  0  0  0  0  0  0  0
  193.0810  175.9540  144.1860 S   0  0  0  0  0  0  0  0  0  0  0  0
  193.7650  175.2180  141.6840 C   0  0  0  0  0  0  0  0  0  0  0  0
  191.7340  174.9000  143.8870 N   0  0  2  0  0  0  0  0  0  0  0  0
  186.1600  176.0100  142.8490 O   0  0  0  0  0  0  0  0  0  0  0  0
  189.7220  174.8230  142.7180 C   0  0  0  0  0  0  0  0  0  0  0  0
  192.6950  174.4890  141.6260 N   0  0  0  0  0  0  0  0  0  0  0  0
  194.2060  175.7940  142.9020 N   0  0  0  0  0  2  0  0  0  0  0  0
  187.1440  176.7270  142.7680 C   0  0  0  0  0  0  0  0  0  0  0  0
  189.7100  175.6500  145.0320 C   0  0  0  0  0  0  0  0  0  0  0  0
  188.9450  174.3390  140.7740 C   0  0  0  0  0  0  0  0  0  0  0  0
  194.5020  175.5260  140.4310 C   0  0  0  0  0  1  0  0  0  0  0  0
  188.1530  176.5080  141.6890 C   0  0  0  0  0  2  0  0  0  0  0  0
  189.8520  174.5980  145.9530 C   0  0  0  0  0  3  0  0  0  0  0  0
  188.0500  176.6570  146.4970 C   0  0  0  0  0  3  0  0  0  0  0  0
  188.2150  175.6150  147.4120 C   0  0  0  0  0  3  0  0  0  0  0  0
  187.3360  177.8470  143.7380 C   0  0  0  0  0  2  0  0  0  0  0  0
  190.4890  173.8160  142.2510 C   0  0  0  0  0  0  0  0  0  0  0  0
  188.7970  175.2010  141.8060 N   0  0  0  0  0  0  0  0  0  0  0  0
  191.8830  173.9660  142.7390 C   0  0  2  0  0  3  0  0  0  0  0  0
  190.6950  172.6420  139.9790 C   0  0  0  0  0  1  0  0  0  0  0  0
  190.4610  175.6310  143.7230 C   0  0  1  0  0  3  0  0  0  0  0  0
  1 21  1  0  0  0  0
  3 17  1  0  0  0  0
  4 22  1  0  0  0  0
  5 24  1  0  0  0  0
  6  1  1  0  0  0  0
  8  2  2  0  0  0  0
  8  7  2  0  0  0  0
  9 14  1  0  0  0  0
 10  8  1  6  0  0  0
 13  9  2  0  0  0  0
 14  8  1  0  0  0  0
 15 11  2  0  0  0  0
 15 23  1  0  0  0  0
 16  1  2  0  0  0  0
 16 20  1  0  0  0  0
 17  5  2  0  0  0  0
 17 25  1  0  0  0  0
 18  9  1  0  0  0  0
 19 25  1  0  0  0  0
 19 15  1  0  0  0  0
 20  4  2  0  0  0  0
 21 22  2  0  0  0  0
 23  6  1  0  0  0  0
 24 12  2  0  0  0  0
 24 26  1  0  0  0  0
 25 12  1  0  0  0  0
 26 13  1  6  0  0  0
 26 10  1  0  0  0  0
 27  5  1  0  0  0  0
 28 12  1  6  0  0  0
 28 10  1  0  0  0  0
 28 16  1  0  0  0  0
M  END
>  <MODEL>
2

>  <REMARK>
 VINA RESULT:      -7.9      2.902      5.049
  Name = 
  0 active torsions:
  status: ('A' for Active; 'I' for Inactive)
                            x       y       z     vdW  Elec       q    Type
                         _______ _______ _______ _____ _____    ______ ____

>  <TORSDO>
F 0

$$$$
=
 OpenBabel11112417403D

 28 32  0  0  1  0  0  0  0  0999 V2000
  186.5240  178.2730  144.5060 C   0  0  0  0  0  0  0  0  0  0  0  0
  190.4550  178.2300  145.4140 O   0  0  0  0  0  0  0  0  0  0  0  0
  188.2380  174.6340  139.7760 N   0  0  0  0  0  1  0  0  0  0  0  0
  185.4780  176.7570  146.6150 C   0  0  0  0  0  3  0  0  0  0  0  0
  188.7620  173.8700  142.0820 C   0  0  0  0  0  0  0  0  0  0  0  0
  187.0100  179.0080  143.4280 O   0  0  0  0  0  0  0  0  0  0  0  0
  190.4360  176.6890  147.3270 O   0  0  0  0  0  0  0  0  0  0  0  0
  190.5500  176.7880  145.8320 S   0  0  0  0  0  0  0  0  0  0  0  0
  192.1000  175.3060  144.1990 C   0  0  0  0  0  0  0  0  0  0  0  0
  189.2800  175.8500  145.1100 N   0  0  2  0  0  0  0  0  0  0  0  0
  185.2190  177.2390  141.2420 O   0  0  0  0  0  0  0  0  0  0  0  0
  188.0620  175.6720  143.1330 C   0  0  0  0  0  0  0  0  0  0  0  0
  191.0350  174.7150  143.7550 N   0  0  0  0  0  0  0  0  0  0  0  0
  192.0610  176.1480  145.3380 N   0  0  0  0  0  2  0  0  0  0  0  0
  186.2700  177.7890  141.5270 C   0  0  0  0  0  0  0  0  0  0  0  0
  187.1960  177.1140  144.9260 C   0  0  0  0  0  0  0  0  0  0  0  0
  188.1630  174.7510  141.1950 C   0  0  0  0  0  0  0  0  0  0  0  0
  193.3740  175.1650  143.4480 C   0  0  0  0  0  1  0  0  0  0  0  0
  187.5760  177.1640  141.1590 C   0  0  0  0  0  2  0  0  0  0  0  0
  186.6540  176.3540  145.9770 C   0  0  0  0  0  3  0  0  0  0  0  0
  185.3410  178.6710  145.1440 C   0  0  0  0  0  3  0  0  0  0  0  0
  184.8230  177.9170  146.2000 C   0  0  0  0  0  3  0  0  0  0  0  0
  186.2580  179.1090  142.2280 C   0  0  0  0  0  2  0  0  0  0  0  0
  188.6970  174.4960  143.3130 C   0  0  0  0  0  0  0  0  0  0  0  0
  187.7690  175.8790  141.8280 N   0  0  0  0  0  0  0  0  0  0  0  0
  189.7090  174.6200  144.3920 C   0  0  2  0  0  3  0  0  0  0  0  0
  189.6290  172.7140  141.7190 C   0  0  0  0  0  1  0  0  0  0  0  0
  188.4320  176.6430  144.1970 C   0  0  1  0  0  3  0  0  0  0  0  0
  1 16  2  0  0  0  0
  1 21  1  0  0  0  0
  2  8  2  0  0  0  0
  3 17  1  0  0  0  0
  5 24  1  0  0  0  0
  6  1  1  0  0  0  0
  8  7  2  0  0  0  0
  9 14  1  0  0  0  0
 10  8  1  6  0  0  0
 11 15  2  0  0  0  0
 12 24  2  0  0  0  0
 13  9  2  0  0  0  0
 13 26  1  0  0  0  0
 14  8  1  0  0  0  0
 15 23  1  0  0  0  0
 16 20  1  0  0  0  0
 17 25  1  0  0  0  0
 17  5  2  0  0  0  0
 18  9  1  0  0  0  0
 19 15  1  0  0  0  0
 19 25  1  0  0  0  0
 20  4  2  0  0  0  0
 21 22  2  0  0  0  0
 22  4  1  0  0  0  0
 23  6  1  0  0  0  0
 25 12  1  0  0  0  0
 26 24  1  6  0  0  0
 26 10  1  0  0  0  0
 27  5  1  0  0  0  0
 28 12  1  6  0  0  0
 28 16  1  0  0  0  0
 28 10  1  0  0  0  0
M  END
>  <MODEL>
3

>  <REMARK>
 VINA RESULT:      -7.8      2.345      4.602
  Name = 
  0 active torsions:
  status: ('A' for Active; 'I' for Inactive)
                            x       y       z     vdW  Elec       q    Type
                         _______ _______ _______ _____ _____    ______ ____

>  <TORSDO>
F 0

$$$$
=
 OpenBabel11112417403D

 28 32  0  0  1  0  0  0  0  0999 V2000
  192.5460  174.3970  145.0490 C   0  0  0  0  0  0  0  0  0  0  0  0
  189.4900  175.4950  147.4460 O   0  0  0  0  0  0  0  0  0  0  0  0
  188.2690  174.6720  140.5570 N   0  0  0  0  0  1  0  0  0  0  0  0
  194.1110  176.7180  145.0930 C   0  0  0  0  0  3  0  0  0  0  0  0
  188.6860  176.7240  141.8940 C   0  0  0  0  0  0  0  0  0  0  0  0
  191.7800  173.2360  144.9830 O   0  0  0  0  0  0  0  0  0  0  0  0
  190.0650  177.8540  147.8170 O   0  0  0  0  0  0  0  0  0  0  0  0
  189.3220  176.8980  146.9280 S   0  0  0  0  0  0  0  0  0  0  0  0
  186.9620  177.2970  145.6880 C   0  0  0  0  0  0  0  0  0  0  0  0
  189.9410  177.0390  145.3120 N   0  0  2  0  0  0  0  0  0  0  0  0
  192.0530  173.0890  141.6620 O   0  0  0  0  0  0  0  0  0  0  0  0
  190.1020  175.8350  143.3250 C   0  0  0  0  0  0  0  0  0  0  0  0
  187.5900  177.3580  144.5550 N   0  0  0  0  0  0  0  0  0  0  0  0
  187.6580  177.3080  146.9220 N   0  0  0  0  0  2  0  0  0  0  0  0
  191.3600  172.9640  142.6590 C   0  0  0  0  0  0  0  0  0  0  0  0
  191.9240  175.6540  144.9650 C   0  0  0  0  0  0  0  0  0  0  0  0
  188.9840  175.4180  141.5390 C   0  0  0  0  0  0  0  0  0  0  0  0
  185.4860  177.1290  145.6910 C   0  0  0  0  0  1  0  0  0  0  0  0
  189.9350  173.4110  142.6510 C   0  0  0  0  0  2  0  0  0  0  0  0
  192.7220  176.8110  144.9740 C   0  0  0  0  0  3  0  0  0  0  0  0
  193.9400  174.3080  145.1620 C   0  0  0  0  0  3  0  0  0  0  0  0
  194.7200  175.4660  145.1890 C   0  0  0  0  0  3  0  0  0  0  0  0
  191.9280  172.3390  143.8920 C   0  0  0  0  0  2  0  0  0  0  0  0
  189.4040  176.9570  143.0520 C   0  0  0  0  0  0  0  0  0  0  0  0
  189.8210  174.8520  142.4390 N   0  0  0  0  0  0  0  0  0  0  0  0
  189.0170  177.6380  144.3130 C   0  0  2  0  0  3  0  0  0  0  0  0
  187.5480  177.5360  141.3780 C   0  0  0  0  0  1  0  0  0  0  0  0
  190.4300  175.7530  144.7730 C   0  0  1  0  0  3  0  0  0  0  0  0
  1 21  1  0  0  0  0
  3 17  1  0  0  0  0
  4 22  1  0  0  0  0
  5 24  1  0  0  0  0
  6  1  1  0  0  0  0
  8  2  2  0  0  0  0
  8  7  2  0  0  0  0
  9 18  1  0  0  0  0
  9 14  1  0  0  0  0
 10  8  1  1  0  0  0
 11 15  2  0  0  0  0
 13  9  2  0  0  0  0
 14  8  1  0  0  0  0
 15 23  1  0  0  0  0
 16 20  1  0  0  0  0
 16  1  2  0  0  0  0
 17  5  2  0  0  0  0
 17 25  1  0  0  0  0
 19 15  1  0  0  0  0
 20  4  2  0  0  0  0
 21 22  2  0  0  0  0
 23  6  1  0  0  0  0
 24 12  2  0  0  0  0
 25 19  1  0  0  0  0
 25 12  1  0  0  0  0
 26 24  1  6  0  0  0
 26 13  1  0  0  0  0
 26 10  1  0  0  0  0
 27  5  1  0  0  0  0
 28 12  1  6  0  0  0
 28 16  1  0  0  0  0
 28 10  1  0  0  0  0
M  END
>  <MODEL>
4

>  <REMARK>
 VINA RESULT:      -7.7      2.448      6.511
  Name = 
  0 active torsions:
  status: ('A' for Active; 'I' for Inactive)
                            x       y       z     vdW  Elec       q    Type
                         _______ _______ _______ _____ _____    ______ ____

>  <TORSDO>
F 0

$$$$
=
 OpenBabel11112417403D

 28 32  0  0  1  0  0  0  0  0999 V2000
  188.2690  177.4110  144.8440 C   0  0  0  0  0  0  0  0  0  0  0  0
  192.2550  176.8640  145.1590 O   0  0  0  0  0  0  0  0  0  0  0  0
  188.6800  173.0780  140.4150 N   0  0  0  0  0  1  0  0  0  0  0  0
  187.3910  176.3020  147.2590 C   0  0  0  0  0  3  0  0  0  0  0  0
  189.4680  172.4890  142.6970 C   0  0  0  0  0  0  0  0  0  0  0  0
  188.6660  177.9460  143.6210 O   0  0  0  0  0  0  0  0  0  0  0  0
  192.3440  175.5540  147.2350 O   0  0  0  0  0  0  0  0  0  0  0  0
  192.2230  175.4770  145.7400 S   0  0  0  0  0  0  0  0  0  0  0  0
  193.2710  173.6140  144.0970 C   0  0  0  0  0  0  0  0  0  0  0  0
  190.7380  174.6730  145.3380 N   0  0  2  0  0  0  0  0  0  0  0  0
  186.3190  176.2510  141.9660 O   0  0  0  0  0  0  0  0  0  0  0  0
  189.1990  174.4770  143.6010 C   0  0  0  0  0  0  0  0  0  0  0  0
  192.0780  173.1480  143.8950 N   0  0  0  0  0  0  0  0  0  0  0  0
  193.5330  174.5670  145.1130 N   0  0  0  0  0  2  0  0  0  0  0  0
  187.4670  176.6620  142.0200 C   0  0  0  0  0  0  0  0  0  0  0  0
  188.8400  176.2130  145.3040 C   0  0  0  0  0  0  0  0  0  0  0  0
  188.8550  173.3530  141.8030 C   0  0  0  0  0  0  0  0  0  0  0  0
  194.3740  173.2010  143.1910 C   0  0  0  0  0  1  0  0  0  0  0  0
  188.5990  175.8100  141.5470 C   0  0  0  0  0  2  0  0  0  0  0  0
  188.3810  175.6590  146.5120 C   0  0  0  0  0  3  0  0  0  0  0  0
  187.2720  178.0490  145.5930 C   0  0  0  0  0  3  0  0  0  0  0  0
  186.8380  177.4980  146.8010 C   0  0  0  0  0  3  0  0  0  0  0  0
  187.7480  178.0340  142.5420 C   0  0  0  0  0  2  0  0  0  0  0  0
  189.6910  173.2430  143.8340 C   0  0  0  0  0  0  0  0  0  0  0  0
  188.7260  174.5880  142.3390 N   0  0  0  0  0  0  0  0  0  0  0  0
  190.8740  173.3240  144.7280 C   0  0  2  0  0  3  0  0  0  0  0  0
  190.1010  171.1830  142.3610 C   0  0  0  0  0  1  0  0  0  0  0  0
  189.8650  175.4860  144.4660 C   0  0  1  0  0  3  0  0  0  0  0  0
  1 16  2  0  0  0  0
  1 21  1  0  0  0  0
  2  8  2  0  0  0  0
  3 17  1  0  0  0  0
  5 24  1  0  0  0  0
  6  1  1  0  0  0  0
  8  7  2  0  0  0  0
  9 14  1  0  0  0  0
 10  8  1  6  0  0  0
 11 15  2  0  0  0  0
 12 24  2  0  0  0  0
 13  9  2  0  0  0  0
 13 26  1  0  0  0  0
 14  8  1  0  0  0  0
 15 23  1  0  0  0  0
 16 20  1  0  0  0  0
 17 25  1  0  0  0  0
 17  5  2  0  0  0  0
 18  9  1  0  0  0  0
 19 15  1  0  0  0  0
 19 25  1  0  0  0  0
 20  4  2  0  0  0  0
 21 22  2  0  0  0  0
 22  4  1  0  0  0  0
 23  6  1  0  0  0  0
 25 12  1  0  0  0  0
 26 24  1  6  0  0  0
 26 10  1  0  0  0  0
 27  5  1  0  0  0  0
 28 12  1  6  0  0  0
 28 16  1  0  0  0  0
 28 10  1  0  0  0  0
M  END
>  <MODEL>
5

>  <REMARK>
 VINA RESULT:      -7.6      2.668      4.847
  Name = 
  0 active torsions:
  status: ('A' for Active; 'I' for Inactive)
                            x       y       z     vdW  Elec       q    Type
                         _______ _______ _______ _____ _____    ______ ____

>  <TORSDO>
F 0

$$$$
=
 OpenBabel11112417403D

 28 32  0  0  1  0  0  0  0  0999 V2000
  191.7400  173.7310  143.4090 C   0  0  0  0  0  0  0  0  0  0  0  0
  189.2610  174.1260  146.5690 O   0  0  0  0  0  0  0  0  0  0  0  0
  187.0480  176.2740  140.2350 N   0  0  0  0  0  1  0  0  0  0  0  0
  193.6900  175.6420  144.0260 C   0  0  0  0  0  3  0  0  0  0  0  0
  187.9940  177.5570  142.1410 C   0  0  0  0  0  0  0  0  0  0  0  0
  190.7750  172.7910  143.0560 O   0  0  0  0  0  0  0  0  0  0  0  0
  190.2940  176.0560  147.6840 O   0  0  0  0  0  0  0  0  0  0  0  0
  189.2850  175.6280  146.6570 S   0  0  0  0  0  0  0  0  0  0  0  0
  186.8970  176.7610  146.1230 C   0  0  0  0  0  0  0  0  0  0  0  0
  189.7080  176.3300  145.1270 N   0  0  2  0  0  0  0  0  0  0  0  0
  190.5940  173.9530  139.9350 O   0  0  0  0  0  0  0  0  0  0  0  0
  189.3970  176.0120  142.8410 C   0  0  0  0  0  0  0  0  0  0  0  0
  187.3770  177.1970  145.0000 N   0  0  0  0  0  0  0  0  0  0  0  0
  187.7340  176.1960  147.1180 N   0  0  0  0  0  2  0  0  0  0  0  0
  190.0220  173.5220  140.9230 C   0  0  0  0  0  0  0  0  0  0  0  0
  191.3490  174.9790  143.9200 C   0  0  0  0  0  0  0  0  0  0  0  0
  188.0050  176.4760  141.2730 C   0  0  0  0  0  0  0  0  0  0  0  0
  185.4280  176.7790  146.3400 C   0  0  0  0  0  1  0  0  0  0  0  0
  188.7110  174.0970  141.3510 C   0  0  0  0  0  2  0  0  0  0  0  0
  192.3370  175.9350  144.2130 C   0  0  0  0  0  3  0  0  0  0  0  0
  193.0970  173.4420  143.2170 C   0  0  0  0  0  3  0  0  0  0  0  0
  194.0710  174.3940  143.5300 C   0  0  0  0  0  3  0  0  0  0  0  0
  190.6190  172.3940  141.7020 C   0  0  0  0  0  2  0  0  0  0  0  0
  188.8840  177.2220  143.1450 C   0  0  0  0  0  0  0  0  0  0  0  0
  188.8330  175.5050  141.7210 N   0  0  0  0  0  0  0  0  0  0  0  0
  188.7880  177.3820  144.6180 C   0  0  2  0  0  3  0  0  0  0  0  0
  186.9650  178.6330  142.1910 C   0  0  0  0  0  1  0  0  0  0  0  0
  189.8850  175.3210  144.0630 C   0  0  1  0  0  3  0  0  0  0  0  0
  1 16  1  0  0  0  0
  2  8  2  0  0  0  0
  3 17  1  0  0  0  0
  4 20  1  0  0  0  0
  5 27  1  0  0  0  0
  5 24  1  0  0  0  0
  6  1  1  0  0  0  0
  8 14  1  0  0  0  0
  8  7  2  0  0  0  0
  9 18  1  0  0  0  0
  9 14  1  0  0  0  0
 10  8  1  1  0  0  0
 11 15  2  0  0  0  0
 12 24  2  0  0  0  0
 13  9  2  0  0  0  0
 15 19  1  0  0  0  0
 15 23  1  0  0  0  0
 16 28  1  0  0  0  0
 16 20  2  0  0  0  0
 17 25  1  0  0  0  0
 17  5  2  0  0  0  0
 19 25  1  0  0  0  0
 21  1  2  0  0  0  0
 21 22  1  0  0  0  0
 22  4  2  0  0  0  0
 23  6  1  0  0  0  0
 25 12  1  0  0  0  0
 26 24  1  6  0  0  0
 26 13  1  0  0  0  0
 26 10  1  0  0  0  0
 28 12  1  6  0  0  0
 28 10  1  0  0  0  0
M  END
>  <MODEL>
6

>  <REMARK>
 VINA RESULT:      -7.6      2.291      6.432
  Name = 
  0 active torsions:
  status: ('A' for Active; 'I' for Inactive)
                            x       y       z     vdW  Elec       q    Type
                         _______ _______ _______ _____ _____    ______ ____

>  <TORSDO>
F 0

$$$$
=
 OpenBabel11112417403D

 28 32  0  0  1  0  0  0  0  0999 V2000
  188.7660  175.7740  145.5160 C   0  0  0  0  0  0  0  0  0  0  0  0
  189.3870  172.9090  142.7420 O   0  0  0  0  0  0  0  0  0  0  0  0
  194.9410  175.6010  146.1380 N   0  0  0  0  0  1  0  0  0  0  0  0
  187.9770  177.9160  143.8950 C   0  0  0  0  0  3  0  0  0  0  0  0
  194.0120  176.1140  143.8920 C   0  0  0  0  0  0  0  0  0  0  0  0
  189.1800  174.7390  146.3510 O   0  0  0  0  0  0  0  0  0  0  0  0
  189.0670  174.2230  140.6920 O   0  0  0  0  0  0  0  0  0  0  0  0
  190.0700  173.7690  141.7140 S   0  0  0  0  0  0  0  0  0  0  0  0
  192.6470  173.0920  141.3040 C   0  0  0  0  0  0  0  0  0  0  0  0
  190.7880  175.1660  142.4540 N   0  0  2  0  0  0  0  0  0  0  0  0
  191.2910  176.7330  147.9930 O   0  0  0  0  0  0  0  0  0  0  0  0
  191.8910  175.8170  144.3990 C   0  0  0  0  0  0  0  0  0  0  0  0
  193.0090  174.1820  141.9050 N   0  0  0  0  0  0  0  0  0  0  0  0
  191.2980  172.8610  140.9360 N   0  0  0  0  0  2  0  0  0  0  0  0
  191.0600  175.6450  147.4890 C   0  0  0  0  0  0  0  0  0  0  0  0
  189.4420  176.0150  144.3090 C   0  0  0  0  0  0  0  0  0  0  0  0
  193.8620  175.8830  145.2500 C   0  0  0  0  0  0  0  0  0  0  0  0
  193.6530  172.0240  141.0690 C   0  0  0  0  0  1  0  0  0  0  0  0
  192.1280  174.9160  146.7410 C   0  0  0  0  0  2  0  0  0  0  0  0
  189.0450  177.1020  143.5110 C   0  0  0  0  0  3  0  0  0  0  0  0
  187.6980  176.5960  145.9010 C   0  0  0  0  0  3  0  0  0  0  0  0
  187.3020  177.6610  145.0900 C   0  0  0  0  0  3  0  0  0  0  0  0
  189.7100  175.0220  147.6380 C   0  0  0  0  0  2  0  0  0  0  0  0
  192.7330  176.0500  143.3700 C   0  0  0  0  0  0  0  0  0  0  0  0
  192.5650  175.6570  145.5610 N   0  0  0  0  0  0  0  0  0  0  0  0
  192.2200  175.4060  142.1340 C   0  0  2  0  0  3  0  0  0  0  0  0
  195.2860  176.0410  143.1240 C   0  0  0  0  0  1  0  0  0  0  0  0
  190.6370  175.1760  143.9240 C   0  0  1  0  0  3  0  0  0  0  0  0
  1 21  1  0  0  0  0
  1  6  1  0  0  0  0
  4 22  1  0  0  0  0
  5 17  2  0  0  0  0
  6 23  1  0  0  0  0
  7  8  2  0  0  0  0
  8  2  2  0  0  0  0
  9 13  2  0  0  0  0
 10  8  1  1  0  0  0
 10 28  1  0  0  0  0
 12 25  1  0  0  0  0
 14  9  1  0  0  0  0
 14  8  1  0  0  0  0
 15 23  1  0  0  0  0
 15 11  2  0  0  0  0
 16  1  2  0  0  0  0
 17 25  1  0  0  0  0
 17  3  1  0  0  0  0
 18  9  1  0  0  0  0
 19 15  1  0  0  0  0
 20  4  2  0  0  0  0
 20 16  1  0  0  0  0
 22 21  2  0  0  0  0
 24  5  1  0  0  0  0
 24 12  2  0  0  0  0
 25 19  1  0  0  0  0
 26 13  1  1  0  0  0
 26 10  1  0  0  0  0
 26 24  1  0  0  0  0
 27  5  1  0  0  0  0
 28 16  1  6  0  0  0
 28 12  1  0  0  0  0
M  END
>  <MODEL>
7

>  <REMARK>
 VINA RESULT:      -7.5      2.219      3.080
  Name = 
  0 active torsions:
  status: ('A' for Active; 'I' for Inactive)
                            x       y       z     vdW  Elec       q    Type
                         _______ _______ _______ _____ _____    ______ ____

>  <TORSDO>
F 0

$$$$
=
 OpenBabel11112417403D

 28 32  0  0  1  0  0  0  0  0999 V2000
  188.9410  175.3110  146.2840 C   0  0  0  0  0  0  0  0  0  0  0  0
  189.2220  172.0000  143.9960 O   0  0  0  0  0  0  0  0  0  0  0  0
  194.8680  176.1630  144.6410 N   0  0  0  0  0  1  0  0  0  0  0  0
  187.2280  176.8860  144.7270 C   0  0  0  0  0  3  0  0  0  0  0  0
  193.1700  176.0050  142.8330 C   0  0  0  0  0  0  0  0  0  0  0  0
  189.8160  174.5680  147.0730 O   0  0  0  0  0  0  0  0  0  0  0  0
  187.9780  172.7440  142.0130 O   0  0  0  0  0  0  0  0  0  0  0  0
  189.3320  172.6860  142.6620 S   0  0  0  0  0  0  0  0  0  0  0  0
  191.7170  172.3030  141.4630 C   0  0  0  0  0  0  0  0  0  0  0  0
  189.9360  174.3030  142.8450 N   0  0  2  0  0  0  0  0  0  0  0  0
  191.8690  177.1660  147.4770 O   0  0  0  0  0  0  0  0  0  0  0  0
  191.4460  175.5370  144.1180 C   0  0  0  0  0  0  0  0  0  0  0  0
  192.0130  173.5430  141.7000 N   0  0  0  0  0  0  0  0  0  0  0  0
  190.4040  171.8050  141.6540 N   0  0  0  0  0  2  0  0  0  0  0  0
  191.7250  175.9700  147.2820 C   0  0  0  0  0  0  0  0  0  0  0  0
  189.1190  175.3600  144.8920 C   0  0  0  0  0  0  0  0  0  0  0  0
  193.5240  176.0760  144.1720 C   0  0  0  0  0  0  0  0  0  0  0  0
  192.7950  171.3640  141.0610 C   0  0  0  0  0  1  0  0  0  0  0  0
  192.6200  175.2450  146.3300 C   0  0  0  0  0  2  0  0  0  0  0  0
  188.2610  176.1650  144.1230 C   0  0  0  0  0  3  0  0  0  0  0  0
  187.9080  176.0410  146.8880 C   0  0  0  0  0  3  0  0  0  0  0  0
  187.0500  176.8220  146.1100 C   0  0  0  0  0  3  0  0  0  0  0  0
  190.6630  175.2130  148.0120 C   0  0  0  0  0  2  0  0  0  0  0  0
  191.8360  175.6410  142.8310 C   0  0  0  0  0  0  0  0  0  0  0  0
  192.4800  175.7470  144.9650 N   0  0  0  0  0  0  0  0  0  0  0  0
  191.0990  174.6620  141.9920 C   0  0  2  0  0  3  0  0  0  0  0  0
  194.1100  175.9370  141.6790 C   0  0  0  0  0  1  0  0  0  0  0  0
  190.2730  174.6320  144.2450 C   0  0  1  0  0  3  0  0  0  0  0  0
  1 21  1  0  0  0  0
  1  6  1  0  0  0  0
  4 22  1  0  0  0  0
  5 17  2  0  0  0  0
  6 23  1  0  0  0  0
  7  8  2  0  0  0  0
  8  2  2  0  0  0  0
  9 14  1  0  0  0  0
  9 13  2  0  0  0  0
 10  8  1  1  0  0  0
 10 28  1  0  0  0  0
 12 25  1  0  0  0  0
 14  8  1  0  0  0  0
 15 11  2  0  0  0  0
 15 23  1  0  0  0  0
 16  1  2  0  0  0  0
 17  3  1  0  0  0  0
 17 25  1  0  0  0  0
 18  9  1  0  0  0  0
 19 15  1  0  0  0  0
 20  4  2  0  0  0  0
 20 16  1  0  0  0  0
 22 21  2  0  0  0  0
 24  5  1  0  0  0  0
 24 12  2  0  0  0  0
 25 19  1  0  0  0  0
 26 13  1  1  0  0  0
 26 24  1  0  0  0  0
 26 10  1  0  0  0  0
 27  5  1  0  0  0  0
 28 12  1  6  0  0  0
 28 16  1  0  0  0  0
M  END
>  <MODEL>
8

>  <REMARK>
 VINA RESULT:      -7.4      2.327      3.490
  Name = 
  0 active torsions:
  status: ('A' for Active; 'I' for Inactive)
                            x       y       z     vdW  Elec       q    Type
                         _______ _______ _______ _____ _____    ______ ____

>  <TORSDO>
F 0

$$$$
=
 OpenBabel11112417403D

 28 32  0  0  1  0  0  0  0  0999 V2000
  187.8540  176.5240  144.4810 C   0  0  0  0  0  0  0  0  0  0  0  0
  188.9420  173.1120  142.6210 O   0  0  0  0  0  0  0  0  0  0  0  0
  193.5910  176.3000  146.8460 N   0  0  0  0  0  1  0  0  0  0  0  0
  187.7270  178.2900  142.3120 C   0  0  0  0  0  3  0  0  0  0  0  0
  193.3520  176.3460  144.3730 C   0  0  0  0  0  0  0  0  0  0  0  0
  187.9330  175.6820  145.5870 O   0  0  0  0  0  0  0  0  0  0  0  0
  189.3070  173.9630  140.3460 O   0  0  0  0  0  0  0  0  0  0  0  0
  189.9510  173.7090  141.6790 S   0  0  0  0  0  0  0  0  0  0  0  0
  192.4720  172.8800  142.1580 C   0  0  0  0  0  0  0  0  0  0  0  0
  190.5650  175.2090  142.3000 N   0  0  2  0  0  0  0  0  0  0  0  0
  189.6910  177.9160  147.3300 O   0  0  0  0  0  0  0  0  0  0  0  0
  191.1550  176.2300  144.3080 C   0  0  0  0  0  0  0  0  0  0  0  0
  192.7540  174.0630  142.6080 N   0  0  0  0  0  0  0  0  0  0  0  0
  191.2570  172.6170  141.4760 N   0  0  0  0  0  2  0  0  0  0  0  0
  189.5090  176.7530  147.0070 C   0  0  0  0  0  0  0  0  0  0  0  0
  188.8500  176.4790  143.4920 C   0  0  0  0  0  0  0  0  0  0  0  0
  192.8210  176.4170  145.6510 C   0  0  0  0  0  0  0  0  0  0  0  0
  193.4040  171.7570  142.4330 C   0  0  0  0  0  1  0  0  0  0  0  0
  190.6690  175.8470  146.7520 C   0  0  0  0  0  2  0  0  0  0  0  0
  188.7830  177.3810  142.4150 C   0  0  0  0  0  3  0  0  0  0  0  0
  186.8000  177.4420  144.3770 C   0  0  0  0  0  3  0  0  0  0  0  0
  186.7350  178.3200  143.2930 C   0  0  0  0  0  3  0  0  0  0  0  0
  188.1180  176.2180  146.8880 C   0  0  0  0  0  2  0  0  0  0  0  0
  192.2610  176.2100  143.5350 C   0  0  0  0  0  0  0  0  0  0  0  0
  191.4730  176.3030  145.6210 N   0  0  0  0  0  0  0  0  0  0  0  0
  192.0460  175.3310  142.3570 C   0  0  2  0  0  3  0  0  0  0  0  0
  194.7750  176.0690  144.0280 C   0  0  0  0  0  1  0  0  0  0  0  0
  190.0240  175.5400  143.6340 C   0  0  1  0  0  3  0  0  0  0  0  0
  1  6  1  0  0  0  0
  4 20  2  0  0  0  0
  4 22  1  0  0  0  0
  5 17  2  0  0  0  0
  6 23  1  0  0  0  0
  7  8  2  0  0  0  0
  8  2  2  0  0  0  0
  9 18  1  0  0  0  0
  9 13  2  0  0  0  0
 10  8  1  1  0  0  0
 10 26  1  0  0  0  0
 10 28  1  0  0  0  0
 12 25  1  0  0  0  0
 14  8  1  0  0  0  0
 14  9  1  0  0  0  0
 15 11  2  0  0  0  0
 16  1  2  0  0  0  0
 17  3  1  0  0  0  0
 19 15  1  0  0  0  0
 20 16  1  0  0  0  0
 21  1  1  0  0  0  0
 22 21  2  0  0  0  0
 23 15  1  0  0  0  0
 24 12  2  0  0  0  0
 24  5  1  0  0  0  0
 25 17  1  0  0  0  0
 25 19  1  0  0  0  0
 26 13  1  1  0  0  0
 26 24  1  0  0  0  0
 27  5  1  0  0  0  0
 28 16  1  6  0  0  0
 28 12  1  0  0  0  0
M  END
>  <MODEL>
9

>  <REMARK>
 VINA RESULT:      -7.3      1.540      2.052
  Name = 
  0 active torsions:
  status: ('A' for Active; 'I' for Inactive)
                            x       y       z     vdW  Elec       q    Type
                         _______ _______ _______ _____ _____    ______ ____

>  <TORSDO>
F 0

$$$$
