=
 OpenBabel11112416203D

 30 35  0  0  1  0  0  0  0  0999 V2000
  189.6950  175.9630  144.1990 C   0  0  0  0  0  0  0  0  0  0  0  0
  191.8160  175.8480  145.5360 C   0  0  2  0  0  3  0  0  0  0  0  0
  187.3670  177.8220  147.1930 C   0  0  0  0  0  2  0  0  0  0  0  0
  188.3510  176.4000  143.9650 C   0  0  0  0  0  0  0  0  0  0  0  0
  190.3140  175.2270  143.2420 N   0  0  0  0  0  0  0  0  0  0  0  0
  187.9410  175.2250  140.6500 O   0  0  0  0  0  0  0  0  0  0  0  0
  185.4350  177.0470  142.8010 C   0  0  1  0  0  3  0  0  0  0  0  0
  188.4590  175.4480  141.7800 C   0  0  0  0  0  0  0  0  0  0  0  0
  185.4800  177.6370  144.1160 N   0  0  0  0  0  0  0  0  0  0  0  0
  186.0500  177.6090  146.5290 C   0  0  0  0  0  0  0  0  0  0  0  0
  189.7180  174.9170  142.0670 C   0  0  0  0  0  0  0  0  0  0  0  0
  187.8150  176.2380  142.6960 N   0  0  0  0  0  0  0  0  0  0  0  0
  192.2960  175.9920  146.9580 C   0  0  0  0  0  3  0  0  0  0  0  0
  184.4160  178.5660  144.2520 C   0  0  0  0  0  3  0  0  0  0  0  0
  184.3670  177.8450  142.0540 C   0  0  0  0  0  2  0  0  0  0  0  0
  192.6990  176.7020  144.6410 C   0  0  0  0  0  1  0  0  0  0  0  0
  188.3110  177.3500  146.1960 N   0  0  0  0  0  0  0  0  0  0  0  0
  191.5780  176.5990  147.9070 C   0  0  0  0  0  3  0  0  0  0  0  0
  190.3580  176.2320  145.3520 C   0  0  0  0  0  0  0  0  0  0  0  0
  187.6570  176.9650  144.9920 C   0  0  0  0  0  0  0  0  0  0  0  0
  184.9840  177.8550  147.0710 O   0  0  0  0  0  0  0  0  0  0  0  0
  186.1730  176.9450  145.1880 C   0  0  2  0  0  3  0  0  0  0  0  0
  183.7680  178.7160  143.1110 C   0  0  0  0  0  3  0  0  0  0  0  0
  187.3330  178.5790  142.0390 C   0  0  0  0  0  1  0  0  0  0  0  0
  190.2320  177.1210  147.6320 C   0  0  0  0  0  3  0  0  0  0  0  0
  189.6580  176.9520  146.4380 C   0  0  0  0  0  0  0  0  0  0  0  0
  186.8000  177.1500  142.1350 C   0  0  2  0  0  3  0  0  0  0  0  0
  190.4000  174.1120  141.1020 N   0  0  0  0  0  2  0  0  0  0  0  0
  191.5980  172.1290  141.8080 C   0  0  0  0  0  1  0  0  0  0  0  0
  191.7230  173.5660  141.3480 C   0  0  0  0  0  2  0  0  0  0  0  0
  1 19  2  0  0  0  0
  2 16  1  6  0  0  0
  2 13  1  0  0  0  0
  4  1  1  0  0  0  0
  4 20  2  0  0  0  0
  5  1  1  0  0  0  0
  6  8  2  0  0  0  0
  7 15  1  6  0  0  0
  7  9  1  0  0  0  0
  8 11  1  0  0  0  0
  8 12  1  0  0  0  0
  9 14  1  0  0  0  0
  9 22  1  0  0  0  0
 10 21  2  0  0  0  0
 10  3  1  0  0  0  0
 11  5  2  0  0  0  0
 12  4  1  0  0  0  0
 13 18  2  0  0  0  0
 15 23  1  0  0  0  0
 17 26  1  0  0  0  0
 17  3  1  0  0  0  0
 19  2  1  0  0  0  0
 19 26  1  0  0  0  0
 20 17  1  0  0  0  0
 22 20  1  6  0  0  0
 22 10  1  0  0  0  0
 23 14  2  0  0  0  0
 25 18  1  0  0  0  0
 26 25  2  0  0  0  0
 27 24  1  1  0  0  0
 27 12  1  0  0  0  0
 27  7  1  0  0  0  0
 28 30  1  0  0  0  0
 28 11  1  0  0  0  0
 30 29  1  0  0  0  0
M  END
>  <MODEL>
1

>  <REMARK>
 VINA RESULT:      -8.8      0.000      0.000
  Name = 
  1 active torsions:
  status: ('A' for Active; 'I' for Inactive)
    1  A    between atoms: N_28  and  C_30
                            x       y       z     vdW  Elec       q    Type
                         _______ _______ _______ _____ _____    ______ ____

>  <TORSDO>
F 1

$$$$
=
 OpenBabel11112416203D

 30 35  0  0  1  0  0  0  0  0999 V2000
  189.7430  175.6570  143.8480 C   0  0  0  0  0  0  0  0  0  0  0  0
  191.0200  173.8070  142.7310 C   0  0  0  0  0  0  0  0  0  0  0  0
  187.0660  176.3580  140.6560 C   0  0  0  0  0  2  0  0  0  0  0  0
  188.6520  176.5790  143.9500 C   0  0  0  0  0  0  0  0  0  0  0  0
  190.6530  175.6120  144.8540 N   0  0  0  0  0  0  0  0  0  0  0  0
  189.2870  177.8520  147.1930 O   0  0  0  0  0  0  0  0  0  0  0  0
  186.5120  178.8000  144.8220 C   0  0  1  0  0  3  0  0  0  0  0  0
  189.4210  177.1930  146.1240 C   0  0  0  0  0  0  0  0  0  0  0  0
  186.0920  178.3280  143.5250 N   0  0  0  0  0  0  0  0  0  0  0  0
  186.5220  177.6420  141.1820 C   0  0  0  0  0  0  0  0  0  0  0  0
  190.5490  176.3870  145.9580 C   0  0  0  0  0  0  0  0  0  0  0  0
  188.4510  177.2330  145.1560 N   0  0  0  0  0  0  0  0  0  0  0  0
  191.2130  173.1950  141.3660 C   0  0  0  0  0  3  0  0  0  0  0  0
  184.7480  178.7210  143.2940 C   0  0  0  0  0  3  0  0  0  0  0  0
  185.2380  179.3460  145.4670 C   0  0  0  0  0  2  0  0  0  0  0  0
  190.7240  172.6920  143.7200 C   0  0  0  0  0  1  0  0  0  0  0  0
  187.9220  175.9040  141.7380 N   0  0  0  0  0  0  0  0  0  0  0  0
  190.3610  173.3910  140.3570 C   0  0  0  0  0  3  0  0  0  0  0  0
  189.9160  174.8490  142.7710 C   0  0  0  0  0  0  0  0  0  0  0  0
  187.8510  176.7700  142.8660 C   0  0  0  0  0  0  0  0  0  0  0  0
  185.7740  178.3600  140.5390 O   0  0  0  0  0  0  0  0  0  0  0  0
  187.0910  178.0130  142.5210 C   0  0  2  0  0  3  0  0  0  0  0  0
  184.2290  179.2920  144.3650 C   0  0  0  0  0  3  0  0  0  0  0  0
  186.1830  176.4580  145.7900 C   0  0  0  0  0  1  0  0  0  0  0  0
  189.1950  174.2750  140.5010 C   0  0  0  0  0  3  0  0  0  0  0  0
  188.9830  174.9580  141.6290 C   0  0  2  0  0  3  0  0  0  0  0  0
  187.1170  177.6560  145.6230 C   0  0  2  0  0  3  0  0  0  0  0  0
  191.5500  176.3280  146.9780 N   0  0  0  0  0  2  0  0  0  0  0  0
  193.9250  176.3280  146.4980 C   0  0  0  0  0  1  0  0  0  0  0  0
  192.7240  175.4800  146.8610 C   0  0  0  0  0  2  0  0  0  0  0  0
  1  4  1  0  0  0  0
  1  5  1  0  0  0  0
  2 19  1  0  0  0  0
  2 16  1  0  0  0  0
  3 10  1  0  0  0  0
  3 17  1  0  0  0  0
  4 12  1  0  0  0  0
  5 11  2  0  0  0  0
  7 15  1  1  0  0  0
  7 27  1  0  0  0  0
  8  6  2  0  0  0  0
  9  7  1  0  0  0  0
 11  8  1  0  0  0  0
 11 28  1  0  0  0  0
 12 27  1  0  0  0  0
 12  8  1  0  0  0  0
 13  2  2  0  0  0  0
 14  9  1  0  0  0  0
 14 23  2  0  0  0  0
 17 20  1  0  0  0  0
 18 25  2  0  0  0  0
 18 13  1  0  0  0  0
 19  1  2  0  0  0  0
 20  4  2  0  0  0  0
 21 10  2  0  0  0  0
 22 10  1  6  0  0  0
 22 20  1  0  0  0  0
 22  9  1  0  0  0  0
 23 15  1  0  0  0  0
 26 25  1  6  0  0  0
 26 17  1  0  0  0  0
 26 19  1  0  0  0  0
 27 24  1  6  0  0  0
 29 30  1  0  0  0  0
 30 28  1  0  0  0  0
M  END
>  <MODEL>
2

>  <REMARK>
 VINA RESULT:      -8.6      1.699      4.746
  Name = 
  1 active torsions:
  status: ('A' for Active; 'I' for Inactive)
    1  A    between atoms: N_28  and  C_30
                            x       y       z     vdW  Elec       q    Type
                         _______ _______ _______ _____ _____    ______ ____

>  <TORSDO>
F 1

$$$$
=
 OpenBabel11112416203D

 30 35  0  0  1  0  0  0  0  0999 V2000
  187.4190  177.3020  144.4280 C   0  0  0  0  0  0  0  0  0  0  0  0
  185.9130  178.3070  146.1670 C   0  0  2  0  0  3  0  0  0  0  0  0
  190.7650  176.7980  146.9560 C   0  0  0  0  0  2  0  0  0  0  0  0
  188.6130  176.6380  143.9970 C   0  0  0  0  0  0  0  0  0  0  0  0
  186.4570  177.5700  143.5090 N   0  0  0  0  0  0  0  0  0  0  0  0
  187.7430  176.0410  140.6170 O   0  0  0  0  0  0  0  0  0  0  0  0
  190.9510  175.1480  142.3880 C   0  0  1  0  0  3  0  0  0  0  0  0
  187.6760  176.4480  141.8100 C   0  0  0  0  0  0  0  0  0  0  0  0
  191.4130  175.2610  143.7490 N   0  0  0  0  0  0  0  0  0  0  0  0
  191.7430  176.5000  145.8710 C   0  0  0  0  0  0  0  0  0  0  0  0
  186.5760  177.2080  142.2100 C   0  0  0  0  0  0  0  0  0  0  0  0
  188.6490  176.1100  142.7150 N   0  0  0  0  0  0  0  0  0  0  0  0
  185.9830  178.9160  147.5440 C   0  0  0  0  0  3  0  0  0  0  0  0
  192.5060  174.3790  143.9500 C   0  0  0  0  0  3  0  0  0  0  0  0
  191.7240  173.9620  141.8130 C   0  0  0  0  0  2  0  0  0  0  0  0
  184.8190  177.2530  146.1610 C   0  0  0  0  0  1  0  0  0  0  0  0
  189.5020  176.8590  146.2430 N   0  0  0  0  0  0  0  0  0  0  0  0
  187.0250  178.7430  148.3610 C   0  0  0  0  0  3  0  0  0  0  0  0
  187.2280  177.6980  145.7120 C   0  0  0  0  0  0  0  0  0  0  0  0
  189.6580  176.5420  144.8640 C   0  0  0  0  0  0  0  0  0  0  0  0
  192.9440  176.4060  146.0660 O   0  0  0  0  0  0  0  0  0  0  0  0
  191.1110  176.4600  144.5100 C   0  0  2  0  0  3  0  0  0  0  0  0
  192.7100  173.6260  142.8860 C   0  0  0  0  0  3  0  0  0  0  0  0
  188.9960  173.6960  143.1630 C   0  0  0  0  0  1  0  0  0  0  0  0
  188.2120  177.9860  147.9370 C   0  0  0  0  0  3  0  0  0  0  0  0
  188.3100  177.4940  146.6990 C   0  0  0  0  0  0  0  0  0  0  0  0
  189.4460  174.9180  142.3640 C   0  0  2  0  0  3  0  0  0  0  0  0
  185.5490  177.5410  141.2720 N   0  0  0  0  0  2  0  0  0  0  0  0
  183.3740  178.2910  140.5130 C   0  0  0  0  0  1  0  0  0  0  0  0
  184.3720  178.3030  141.6520 C   0  0  0  0  0  2  0  0  0  0  0  0
  1 19  2  0  0  0  0
  2 16  1  1  0  0  0
  2 13  1  0  0  0  0
  4  1  1  0  0  0  0
  4 20  2  0  0  0  0
  5  1  1  0  0  0  0
  6  8  2  0  0  0  0
  7 15  1  1  0  0  0
  7  9  1  0  0  0  0
  8 11  1  0  0  0  0
  8 12  1  0  0  0  0
  9 14  1  0  0  0  0
  9 22  1  0  0  0  0
 10 21  2  0  0  0  0
 10  3  1  0  0  0  0
 11  5  2  0  0  0  0
 12  4  1  0  0  0  0
 13 18  2  0  0  0  0
 15 23  1  0  0  0  0
 17 26  1  0  0  0  0
 17  3  1  0  0  0  0
 19  2  1  0  0  0  0
 19 26  1  0  0  0  0
 20 17  1  0  0  0  0
 22 20  1  1  0  0  0
 22 10  1  0  0  0  0
 23 14  2  0  0  0  0
 25 18  1  0  0  0  0
 26 25  2  0  0  0  0
 27  7  1  0  0  0  0
 27 12  1  0  0  0  0
 27 24  1  1  0  0  0
 28 30  1  0  0  0  0
 28 11  1  0  0  0  0
 29 30  1  0  0  0  0
M  END
>  <MODEL>
3

>  <REMARK>
 VINA RESULT:      -8.1      1.865      5.721
  Name = 
  1 active torsions:
  status: ('A' for Active; 'I' for Inactive)
    1  A    between atoms: N_28  and  C_30
                            x       y       z     vdW  Elec       q    Type
                         _______ _______ _______ _____ _____    ______ ____

>  <TORSDO>
F 1

$$$$
=
 OpenBabel11112416203D

 30 35  0  0  1  0  0  0  0  0999 V2000
  191.1660  175.3110  143.9080 C   0  0  0  0  0  0  0  0  0  0  0  0
  192.3150  173.9740  142.1200 C   0  0  0  0  0  0  0  0  0  0  0  0
  187.3360  175.2600  142.1280 C   0  0  0  0  0  2  0  0  0  0  0  0
  190.0120  175.8530  144.5580 C   0  0  0  0  0  0  0  0  0  0  0  0
  192.3850  175.5150  144.4700 N   0  0  0  0  0  0  0  0  0  0  0  0
  191.5570  177.1580  147.4650 O   0  0  0  0  0  0  0  0  0  0  0  0
  187.9110  177.2870  146.5090 C   0  0  1  0  0  3  0  0  0  0  0  0
  191.4110  176.6050  146.3390 C   0  0  0  0  0  0  0  0  0  0  0  0
  187.1380  176.7500  145.4150 N   0  0  0  0  0  0  0  0  0  0  0  0
  186.7350  176.3000  143.0110 C   0  0  0  0  0  0  0  0  0  0  0  0
  192.5410  176.1870  145.6340 C   0  0  0  0  0  0  0  0  0  0  0  0
  190.1570  176.3770  145.8340 N   0  0  0  0  0  0  0  0  0  0  0  0
  192.0860  173.4930  140.7090 C   0  0  0  0  0  3  0  0  0  0  0  0
  185.7670  176.7210  145.7780 C   0  0  0  0  0  3  0  0  0  0  0  0
  186.9190  177.3980  147.6670 C   0  0  0  0  0  2  0  0  0  0  0  0
  192.7590  172.7920  142.9650 C   0  0  0  0  0  1  0  0  0  0  0  0
  188.6470  175.0560  142.7180 N   0  0  0  0  0  0  0  0  0  0  0  0
  190.8760  173.4510  140.1450 C   0  0  0  0  0  3  0  0  0  0  0  0
  191.0900  174.6280  142.7370 C   0  0  0  0  0  0  0  0  0  0  0  0
  188.8170  175.8240  143.9050 C   0  0  0  0  0  0  0  0  0  0  0  0
  185.6270  176.7760  142.8200 O   0  0  0  0  0  0  0  0  0  0  0  0
  187.6820  176.7860  144.0700 C   0  0  2  0  0  3  0  0  0  0  0  0
  185.6010  177.0730  147.0390 C   0  0  0  0  0  3  0  0  0  0  0  0
  188.6440  174.9270  147.1600 C   0  0  0  0  0  1  0  0  0  0  0  0
  189.6830  173.9320  140.8560 C   0  0  0  0  0  3  0  0  0  0  0  0
  189.7800  174.4820  142.0690 C   0  0  2  0  0  3  0  0  0  0  0  0
  189.0720  176.3580  146.8340 C   0  0  2  0  0  3  0  0  0  0  0  0
  193.8480  176.4040  146.1720 N   0  0  0  0  0  2  0  0  0  0  0  0
  195.4680  174.6090  146.0320 C   0  0  0  0  0  1  0  0  0  0  0  0
  195.0500  175.9590  145.4870 C   0  0  0  0  0  2  0  0  0  0  0  0
  1  5  1  0  0  0  0
  1  4  1  0  0  0  0
  2 19  1  0  0  0  0
  2 16  1  0  0  0  0
  3 17  1  0  0  0  0
  3 10  1  0  0  0  0
  4 12  1  0  0  0  0
  5 11  2  0  0  0  0
  7 27  1  0  0  0  0
  7 15  1  1  0  0  0
  8  6  2  0  0  0  0
  9 14  1  0  0  0  0
  9  7  1  0  0  0  0
 11 28  1  0  0  0  0
 11  8  1  0  0  0  0
 12  8  1  0  0  0  0
 12 27  1  0  0  0  0
 13  2  2  0  0  0  0
 14 23  2  0  0  0  0
 17 20  1  0  0  0  0
 18 13  1  0  0  0  0
 18 25  2  0  0  0  0
 19  1  2  0  0  0  0
 20 22  1  0  0  0  0
 20  4  2  0  0  0  0
 21 10  2  0  0  0  0
 22 10  1  6  0  0  0
 22  9  1  0  0  0  0
 23 15  1  0  0  0  0
 26 25  1  6  0  0  0
 26 17  1  0  0  0  0
 26 19  1  0  0  0  0
 27 24  1  6  0  0  0
 30 29  1  0  0  0  0
 30 28  1  0  0  0  0
M  END
>  <MODEL>
4

>  <REMARK>
 VINA RESULT:      -8.0      2.189      5.011
  Name = 
  1 active torsions:
  status: ('A' for Active; 'I' for Inactive)
    1  A    between atoms: N_28  and  C_30
                            x       y       z     vdW  Elec       q    Type
                         _______ _______ _______ _____ _____    ______ ____

>  <TORSDO>
F 1

$$$$
=
 OpenBabel11112416203D

 30 35  0  0  1  0  0  0  0  0999 V2000
  187.0310  176.8850  143.9790 C   0  0  0  0  0  0  0  0  0  0  0  0
  185.2690  178.4260  143.0710 C   0  0  0  0  0  0  0  0  0  0  0  0
  188.1910  175.2690  140.2540 C   0  0  0  0  0  2  0  0  0  0  0  0
  188.1320  175.9800  143.8460 C   0  0  0  0  0  0  0  0  0  0  0  0
  186.6180  177.2270  145.2260 N   0  0  0  0  0  0  0  0  0  0  0  0
  188.9940  175.6260  147.2630 O   0  0  0  0  0  0  0  0  0  0  0  0
  190.6030  173.9830  144.2730 C   0  0  1  0  0  3  0  0  0  0  0  0
  188.3800  175.9870  146.2200 C   0  0  0  0  0  0  0  0  0  0  0  0
  190.4110  174.0820  142.8470 N   0  0  0  0  0  0  0  0  0  0  0  0
  189.0000  174.1470  140.8100 C   0  0  0  0  0  0  0  0  0  0  0  0
  187.2280  176.7640  146.3430 C   0  0  0  0  0  0  0  0  0  0  0  0
  188.8630  175.6580  144.9800 N   0  0  0  0  0  0  0  0  0  0  0  0
  184.4830  178.6660  141.8070 C   0  0  0  0  0  3  0  0  0  0  0  0
  191.5650  173.5910  142.1820 C   0  0  0  0  0  3  0  0  0  0  0  0
  192.0670  173.5760  144.4410 C   0  0  0  0  0  2  0  0  0  0  0  0
  185.8630  179.7480  143.5270 C   0  0  0  0  0  1  0  0  0  0  0  0
  187.8280  176.0230  141.4410 N   0  0  0  0  0  0  0  0  0  0  0  0
  184.8540  178.1790  140.6200 C   0  0  0  0  0  3  0  0  0  0  0  0
  186.3670  177.3890  142.9080 C   0  0  0  0  0  0  0  0  0  0  0  0
  188.4250  175.4810  142.6140 C   0  0  0  0  0  0  0  0  0  0  0  0
  189.4670  173.2570  140.1180 O   0  0  0  0  0  0  0  0  0  0  0  0
  189.0660  174.1620  142.3100 C   0  0  2  0  0  3  0  0  0  0  0  0
  192.5220  173.3000  143.0440 C   0  0  0  0  0  3  0  0  0  0  0  0
  191.1250  176.4820  144.3850 C   0  0  0  0  0  1  0  0  0  0  0  0
  186.0380  177.3190  140.4810 C   0  0  0  0  0  3  0  0  0  0  0  0
  186.7490  176.9480  141.5490 C   0  0  2  0  0  3  0  0  0  0  0  0
  190.2990  175.3200  144.9350 C   0  0  2  0  0  3  0  0  0  0  0  0
  186.7360  177.1280  147.6360 N   0  0  0  0  0  2  0  0  0  0  0  0
  185.9410  179.4160  147.6390 C   0  0  0  0  0  1  0  0  0  0  0  0
  185.5590  177.9610  147.8100 C   0  0  0  0  0  2  0  0  0  0  0  0
  1  5  1  0  0  0  0
  2 16  1  0  0  0  0
  3 10  1  0  0  0  0
  3 17  1  0  0  0  0
  4  1  1  0  0  0  0
  4 12  1  0  0  0  0
  5 11  2  0  0  0  0
  7 15  1  6  0  0  0
  7 27  1  0  0  0  0
  8 11  1  0  0  0  0
  8  6  2  0  0  0  0
  9  7  1  0  0  0  0
 11 28  1  0  0  0  0
 12  8  1  0  0  0  0
 13  2  2  0  0  0  0
 14  9  1  0  0  0  0
 14 23  2  0  0  0  0
 17 26  1  0  0  0  0
 17 20  1  0  0  0  0
 18 13  1  0  0  0  0
 19  2  1  0  0  0  0
 19  1  2  0  0  0  0
 20  4  2  0  0  0  0
 21 10  2  0  0  0  0
 22 10  1  6  0  0  0
 22 20  1  0  0  0  0
 22  9  1  0  0  0  0
 23 15  1  0  0  0  0
 25 18  2  0  0  0  0
 26 25  1  1  0  0  0
 26 19  1  0  0  0  0
 27 24  1  6  0  0  0
 27 12  1  0  0  0  0
 28 30  1  0  0  0  0
 29 30  1  0  0  0  0
M  END
>  <MODEL>
5

>  <REMARK>
 VINA RESULT:      -8.0      1.817      7.060
  Name = 
  1 active torsions:
  status: ('A' for Active; 'I' for Inactive)
    1  A    between atoms: N_28  and  C_30
                            x       y       z     vdW  Elec       q    Type
                         _______ _______ _______ _____ _____    ______ ____

>  <TORSDO>
F 1

$$$$
=
 OpenBabel11112416203D

 30 35  0  0  1  0  0  0  0  0999 V2000
  190.8090  174.7130  143.6240 C   0  0  0  0  0  0  0  0  0  0  0  0
  193.1900  174.3180  144.3140 C   0  0  2  0  0  3  0  0  0  0  0  0
  189.8630  177.3860  146.7540 C   0  0  0  0  0  2  0  0  0  0  0  0
  189.5500  175.3920  143.6980 C   0  0  0  0  0  0  0  0  0  0  0  0
  190.9710  173.7470  142.6840 N   0  0  0  0  0  0  0  0  0  0  0  0
  187.9460  173.9240  140.9030 O   0  0  0  0  0  0  0  0  0  0  0  0
  186.5670  176.4940  143.2950 C   0  0  1  0  0  3  0  0  0  0  0  0
  188.8180  174.1720  141.7830 C   0  0  0  0  0  0  0  0  0  0  0  0
  187.1140  177.2220  144.4130 N   0  0  0  0  0  0  0  0  0  0  0  0
  188.3890  177.3770  146.5340 C   0  0  0  0  0  0  0  0  0  0  0  0
  189.9980  173.4260  141.8000 C   0  0  0  0  0  0  0  0  0  0  0  0
  188.6300  175.1900  142.6810 N   0  0  0  0  0  0  0  0  0  0  0  0
  194.1030  174.5340  145.4940 C   0  0  0  0  0  3  0  0  0  0  0  0
  186.3120  178.3650  144.6670 C   0  0  0  0  0  3  0  0  0  0  0  0
  185.4680  177.4000  142.7410 C   0  0  0  0  0  2  0  0  0  0  0  0
  193.8810  174.8440  143.0670 C   0  0  0  0  0  1  0  0  0  0  0  0
  190.3600  176.6030  145.6370 N   0  0  0  0  0  0  0  0  0  0  0  0
  193.8250  175.3940  146.4770 C   0  0  0  0  0  3  0  0  0  0  0  0
  191.8320  174.9770  144.4770 C   0  0  0  0  0  0  0  0  0  0  0  0
  189.3120  176.2160  144.7550 C   0  0  0  0  0  0  0  0  0  0  0  0
  187.5990  177.9100  147.2960 O   0  0  0  0  0  0  0  0  0  0  0  0
  187.9790  176.5390  145.3570 C   0  0  2  0  0  3  0  0  0  0  0  0
  185.3780  178.5050  143.7450 C   0  0  0  0  0  3  0  0  0  0  0  0
  188.3620  177.4780  141.7660 C   0  0  0  0  0  1  0  0  0  0  0  0
  192.5650  176.1520  146.4980 C   0  0  0  0  0  3  0  0  0  0  0  0
  191.6310  175.9600  145.5630 C   0  0  0  0  0  0  0  0  0  0  0  0
  187.6570  176.2190  142.2670 C   0  0  2  0  0  3  0  0  0  0  0  0
  190.2050  172.3790  140.8480 N   0  0  0  0  0  2  0  0  0  0  0  0
  191.1050  170.1390  141.0510 C   0  0  0  0  0  1  0  0  0  0  0  0
  191.4300  171.5980  140.8110 C   0  0  0  0  0  2  0  0  0  0  0  0
  1  4  1  0  0  0  0
  1 19  2  0  0  0  0
  2 16  1  6  0  0  0
  2 19  1  0  0  0  0
  2 13  1  0  0  0  0
  4 20  2  0  0  0  0
  5  1  1  0  0  0  0
  6  8  2  0  0  0  0
  7 15  1  6  0  0  0
  7  9  1  0  0  0  0
  8 11  1  0  0  0  0
  8 12  1  0  0  0  0
  9 14  1  0  0  0  0
  9 22  1  0  0  0  0
 10  3  1  0  0  0  0
 10 21  2  0  0  0  0
 11  5  2  0  0  0  0
 12  4  1  0  0  0  0
 13 18  2  0  0  0  0
 15 23  1  0  0  0  0
 17  3  1  0  0  0  0
 18 25  1  0  0  0  0
 19 26  1  0  0  0  0
 20 17  1  0  0  0  0
 22 20  1  6  0  0  0
 22 10  1  0  0  0  0
 23 14  2  0  0  0  0
 26 17  1  0  0  0  0
 26 25  2  0  0  0  0
 27 24  1  1  0  0  0
 27 12  1  0  0  0  0
 27  7  1  0  0  0  0
 28 11  1  0  0  0  0
 30 28  1  0  0  0  0
 30 29  1  0  0  0  0
M  END
>  <MODEL>
6

>  <REMARK>
 VINA RESULT:      -7.9      1.586      2.030
  Name = 
  1 active torsions:
  status: ('A' for Active; 'I' for Inactive)
    1  A    between atoms: N_28  and  C_30
                            x       y       z     vdW  Elec       q    Type
                         _______ _______ _______ _____ _____    ______ ____

>  <TORSDO>
F 1

$$$$
=
 OpenBabel11112416203D

 30 35  0  0  1  0  0  0  0  0999 V2000
  188.9710  176.5370  144.0750 C   0  0  0  0  0  0  0  0  0  0  0  0
  189.0260  177.4560  146.4100 C   0  0  0  0  0  0  0  0  0  0  0  0
  192.3660  174.0570  144.4780 C   0  0  0  0  0  2  0  0  0  0  0  0
  189.3890  175.6370  143.0430 C   0  0  0  0  0  0  0  0  0  0  0  0
  187.9730  177.4170  143.8040 N   0  0  0  0  0  0  0  0  0  0  0  0
  187.0120  176.4770  140.5560 O   0  0  0  0  0  0  0  0  0  0  0  0
  189.7960  173.9400  140.3540 C   0  0  1  0  0  3  0  0  0  0  0  0
  187.6580  176.4930  141.6410 C   0  0  0  0  0  0  0  0  0  0  0  0
  190.7770  173.4480  141.2890 N   0  0  0  0  0  0  0  0  0  0  0  0
  192.5190  173.7570  143.0260 C   0  0  0  0  0  0  0  0  0  0  0  0
  187.3450  177.4530  142.6060 C   0  0  0  0  0  0  0  0  0  0  0  0
  188.6240  175.5530  141.8890 N   0  0  0  0  0  0  0  0  0  0  0  0
  189.9510  177.5410  147.5980 C   0  0  0  0  0  3  0  0  0  0  0  0
  191.2790  172.2020  140.8320 C   0  0  0  0  0  3  0  0  0  0  0  0
  189.5790  172.7860  139.3750 C   0  0  0  0  0  2  0  0  0  0  0  0
  187.6740  176.9520  146.8880 C   0  0  0  0  0  1  0  0  0  0  0  0
  191.1230  174.8070  144.5220 N   0  0  0  0  0  0  0  0  0  0  0  0
  191.0130  176.7450  147.7470 C   0  0  0  0  0  3  0  0  0  0  0  0
  189.5540  176.5640  145.3000 C   0  0  0  0  0  0  0  0  0  0  0  0
  190.5110  174.8910  143.2390 C   0  0  0  0  0  0  0  0  0  0  0  0
  193.4800  173.1600  142.5680 O   0  0  0  0  0  0  0  0  0  0  0  0
  191.4420  174.3780  142.1840 C   0  0  2  0  0  3  0  0  0  0  0  0
  190.6270  171.7910  139.7600 C   0  0  0  0  0  3  0  0  0  0  0  0
  187.9190  173.1760  141.9110 C   0  0  0  0  0  1  0  0  0  0  0  0
  191.3840  175.7630  146.7180 C   0  0  0  0  0  3  0  0  0  0  0  0
  190.7030  175.6750  145.5730 C   0  0  2  0  0  3  0  0  0  0  0  0
  188.5170  174.3170  141.0890 C   0  0  2  0  0  3  0  0  0  0  0  0
  186.3210  178.4190  142.3570 N   0  0  0  0  0  2  0  0  0  0  0  0
  184.6820  178.9670  144.0540 C   0  0  0  0  0  1  0  0  0  0  0  0
  185.9410  179.4160  143.3430 C   0  0  0  0  0  2  0  0  0  0  0  0
  1 19  2  0  0  0  0
  2 16  1  0  0  0  0
  2 13  2  0  0  0  0
  3 17  1  0  0  0  0
  4 20  2  0  0  0  0
  4  1  1  0  0  0  0
  5  1  1  0  0  0  0
  6  8  2  0  0  0  0
  7 15  1  6  0  0  0
  7 27  1  0  0  0  0
  7  9  1  0  0  0  0
  8 12  1  0  0  0  0
  8 11  1  0  0  0  0
  9 22  1  0  0  0  0
 10  3  1  0  0  0  0
 11  5  2  0  0  0  0
 12  4  1  0  0  0  0
 13 18  1  0  0  0  0
 14  9  1  0  0  0  0
 15 23  1  0  0  0  0
 17 26  1  0  0  0  0
 19 26  1  0  0  0  0
 19  2  1  0  0  0  0
 20 17  1  0  0  0  0
 21 10  2  0  0  0  0
 22 10  1  1  0  0  0
 22 20  1  0  0  0  0
 23 14  2  0  0  0  0
 25 18  2  0  0  0  0
 26 25  1  6  0  0  0
 27 12  1  0  0  0  0
 27 24  1  1  0  0  0
 28 11  1  0  0  0  0
 28 30  1  0  0  0  0
 30 29  1  0  0  0  0
M  END
>  <MODEL>
7

>  <REMARK>
 VINA RESULT:      -7.9      1.902      5.774
  Name = 
  1 active torsions:
  status: ('A' for Active; 'I' for Inactive)
    1  A    between atoms: N_28  and  C_30
                            x       y       z     vdW  Elec       q    Type
                         _______ _______ _______ _____ _____    ______ ____

>  <TORSDO>
F 1

$$$$
=
 OpenBabel11112416203D

 30 35  0  0  1  0  0  0  0  0999 V2000
  190.2580  175.6170  144.4520 C   0  0  0  0  0  0  0  0  0  0  0  0
  191.5270  176.2270  146.5300 C   0  0  0  0  0  0  0  0  0  0  0  0
  193.5340  173.9250  142.3930 C   0  0  0  0  0  2  0  0  0  0  0  0
  190.1140  174.9680  143.1830 C   0  0  0  0  0  0  0  0  0  0  0  0
  189.1910  176.2790  144.9670 N   0  0  0  0  0  0  0  0  0  0  0  0
  186.6670  175.5610  142.6280 O   0  0  0  0  0  0  0  0  0  0  0  0
  189.1080  173.7530  140.3930 C   0  0  1  0  0  3  0  0  0  0  0  0
  187.8090  175.5850  143.1670 C   0  0  0  0  0  0  0  0  0  0  0  0
  190.4960  173.3800  140.5140 N   0  0  0  0  0  0  0  0  0  0  0  0
  192.8670  173.8500  141.0620 C   0  0  0  0  0  0  0  0  0  0  0  0
  187.9930  176.3230  144.3380 C   0  0  0  0  0  0  0  0  0  0  0  0
  188.8440  174.8610  142.6360 N   0  0  0  0  0  0  0  0  0  0  0  0
  192.9460  176.3670  147.0180 C   0  0  0  0  0  3  0  0  0  0  0  0
  190.7860  172.3430  139.5890 C   0  0  0  0  0  3  0  0  0  0  0  0
  188.5060  172.7110  139.4500 C   0  0  0  0  0  2  0  0  0  0  0  0
  190.7560  175.3790  147.5280 C   0  0  0  0  0  1  0  0  0  0  0  0
  192.4620  174.3680  143.2670 N   0  0  0  0  0  0  0  0  0  0  0  0
  193.9870  175.8160  146.3880 C   0  0  0  0  0  3  0  0  0  0  0  0
  191.4270  175.6200  145.1410 C   0  0  0  0  0  0  0  0  0  0  0  0
  191.2250  174.4730  142.5710 C   0  0  0  0  0  0  0  0  0  0  0  0
  193.4570  173.5430  140.0390 O   0  0  0  0  0  0  0  0  0  0  0  0
  191.4400  174.3150  141.0980 C   0  0  2  0  0  3  0  0  0  0  0  0
  189.6920  171.9350  138.9740 C   0  0  0  0  0  3  0  0  0  0  0  0
  188.5530  172.4020  142.4900 C   0  0  0  0  0  1  0  0  0  0  0  0
  193.8160  175.0760  145.1290 C   0  0  0  0  0  3  0  0  0  0  0  0
  192.6190  174.9820  144.5440 C   0  0  2  0  0  3  0  0  0  0  0  0
  188.4430  173.7410  141.7620 C   0  0  2  0  0  3  0  0  0  0  0  0
  186.9070  177.0610  144.9050 N   0  0  0  0  0  2  0  0  0  0  0  0
  186.4280  177.0370  147.2800 C   0  0  0  0  0  1  0  0  0  0  0  0
  187.0460  177.8170  146.1380 C   0  0  0  0  0  2  0  0  0  0  0  0
  1  5  1  0  0  0  0
  1 19  2  0  0  0  0
  2 13  2  0  0  0  0
  2 16  1  0  0  0  0
  3 17  1  0  0  0  0
  4  1  1  0  0  0  0
  6  8  2  0  0  0  0
  7 15  1  6  0  0  0
  7  9  1  0  0  0  0
  7 27  1  0  0  0  0
  8 11  1  0  0  0  0
  9 22  1  0  0  0  0
 10  3  1  0  0  0  0
 11 28  1  0  0  0  0
 11  5  2  0  0  0  0
 12  8  1  0  0  0  0
 12  4  1  0  0  0  0
 14  9  1  0  0  0  0
 17 26  1  0  0  0  0
 18 13  1  0  0  0  0
 19  2  1  0  0  0  0
 20  4  2  0  0  0  0
 20 17  1  0  0  0  0
 21 10  2  0  0  0  0
 22 10  1  1  0  0  0
 22 20  1  0  0  0  0
 23 15  1  0  0  0  0
 23 14  2  0  0  0  0
 25 18  2  0  0  0  0
 26 25  1  6  0  0  0
 26 19  1  0  0  0  0
 27 24  1  1  0  0  0
 27 12  1  0  0  0  0
 28 30  1  0  0  0  0
 30 29  1  0  0  0  0
M  END
>  <MODEL>
8

>  <REMARK>
 VINA RESULT:      -7.7      2.234      6.014
  Name = 
  1 active torsions:
  status: ('A' for Active; 'I' for Inactive)
    1  A    between atoms: N_28  and  C_30
                            x       y       z     vdW  Elec       q    Type
                         _______ _______ _______ _____ _____    ______ ____

>  <TORSDO>
F 1

$$$$
=
 OpenBabel11112416203D

 30 35  0  0  1  0  0  0  0  0999 V2000
  189.5120  175.8360  143.9750 C   0  0  0  0  0  0  0  0  0  0  0  0
  189.0790  177.1430  146.0740 C   0  0  0  0  0  0  0  0  0  0  0  0
  193.0210  173.9230  145.3390 C   0  0  0  0  0  2  0  0  0  0  0  0
  190.1850  174.8320  143.2070 C   0  0  0  0  0  0  0  0  0  0  0  0
  188.4910  176.5190  143.3970 N   0  0  0  0  0  0  0  0  0  0  0  0
  188.1900  174.9160  140.2830 O   0  0  0  0  0  0  0  0  0  0  0  0
  191.2080  172.7640  140.9820 C   0  0  1  0  0  3  0  0  0  0  0  0
  188.6390  175.2030  141.4280 C   0  0  0  0  0  0  0  0  0  0  0  0
  192.0620  172.5730  142.1270 N   0  0  0  0  0  0  0  0  0  0  0  0
  193.4460  173.3990  144.0100 C   0  0  0  0  0  0  0  0  0  0  0  0
  188.0730  176.2650  142.1350 C   0  0  0  0  0  0  0  0  0  0  0  0
  189.6390  174.4530  141.9910 N   0  0  0  0  0  0  0  0  0  0  0  0
  189.7780  177.5500  147.3460 C   0  0  0  0  0  3  0  0  0  0  0  0
  192.7560  171.3420  141.9950 C   0  0  0  0  0  3  0  0  0  0  0  0
  191.2760  171.4410  140.2200 C   0  0  0  0  0  2  0  0  0  0  0  0
  187.7240  176.5580  146.4350 C   0  0  0  0  0  1  0  0  0  0  0  0
  191.7200  174.5020  145.0560 N   0  0  0  0  0  0  0  0  0  0  0  0
  190.8740  176.9370  147.7990 C   0  0  0  0  0  3  0  0  0  0  0  0
  189.8740  176.1480  145.2450 C   0  0  0  0  0  0  0  0  0  0  0  0
  191.3280  174.2840  143.7050 C   0  0  0  0  0  0  0  0  0  0  0  0
  194.5250  172.8620  143.8220 O   0  0  0  0  0  0  0  0  0  0  0  0
  192.4700  173.7210  142.9160 C   0  0  2  0  0  3  0  0  0  0  0  0
  192.3390  170.6720  140.9380 C   0  0  0  0  0  3  0  0  0  0  0  0
  189.1820  172.0440  142.3610 C   0  0  0  0  0  1  0  0  0  0  0  0
  191.5100  175.8480  147.0430 C   0  0  0  0  0  3  0  0  0  0  0  0
  191.0440  175.4760  145.8490 C   0  0  2  0  0  3  0  0  0  0  0  0
  189.7930  173.0940  141.4350 C   0  0  2  0  0  3  0  0  0  0  0  0
  187.0140  177.0340  141.5580 N   0  0  0  0  0  2  0  0  0  0  0  0
  184.8770  178.0530  142.0680 C   0  0  0  0  0  1  0  0  0  0  0  0
  186.3760  178.1280  142.2690 C   0  0  0  0  0  2  0  0  0  0  0  0
  1 19  2  0  0  0  0
  2 16  1  0  0  0  0
  2 13  2  0  0  0  0
  4 20  2  0  0  0  0
  4  1  1  0  0  0  0
  5  1  1  0  0  0  0
  6  8  2  0  0  0  0
  7 15  1  1  0  0  0
  7 27  1  0  0  0  0
  7  9  1  0  0  0  0
  8 12  1  0  0  0  0
  8 11  1  0  0  0  0
  9 22  1  0  0  0  0
 10  3  1  0  0  0  0
 11  5  2  0  0  0  0
 12  4  1  0  0  0  0
 13 18  1  0  0  0  0
 14  9  1  0  0  0  0
 15 23  1  0  0  0  0
 17  3  1  0  0  0  0
 17 26  1  0  0  0  0
 19 26  1  0  0  0  0
 19  2  1  0  0  0  0
 20 17  1  0  0  0  0
 21 10  2  0  0  0  0
 22 20  1  1  0  0  0
 22 10  1  0  0  0  0
 23 14  2  0  0  0  0
 25 18  2  0  0  0  0
 26 25  1  6  0  0  0
 27 12  1  0  0  0  0
 27 24  1  1  0  0  0
 28 11  1  0  0  0  0
 28 30  1  0  0  0  0
 29 30  1  0  0  0  0
M  END
>  <MODEL>
9

>  <REMARK>
 VINA RESULT:      -7.3      2.076      6.181
  Name = 
  1 active torsions:
  status: ('A' for Active; 'I' for Inactive)
    1  A    between atoms: N_28  and  C_30
                            x       y       z     vdW  Elec       q    Type
                         _______ _______ _______ _____ _____    ______ ____

>  <TORSDO>
F 1

$$$$
