=
 OpenBabel11112417123D

 37 42  0  0  1  0  0  0  0  0999 V2000
  195.8390  176.0180  142.4030 C   0  0  0  0  0  0  0  0  0  0  0  0
  192.6030  175.9160  144.9940 C   0  0  0  0  0  0  0  0  0  0  0  0
  190.7220  177.9380  143.5590 C   0  0  0  0  0  1  0  0  0  0  0  0
  194.8990  176.4630  144.7360 C   0  0  0  0  0  0  0  0  0  0  0  0
  191.4660  175.5620  144.0840 C   0  0  1  0  0  3  0  0  0  0  0  0
  193.7120  175.9640  144.2540 C   0  0  0  0  0  0  0  0  0  0  0  0
  190.3270  176.5980  144.1600 C   0  0  1  0  0  3  0  0  0  0  0  0
  194.9270  176.8740  146.0370 N   0  0  0  0  0  0  0  0  0  0  0  0
  193.4420  175.6850  142.9140 N   0  0  0  0  0  0  0  0  0  0  0  0
  196.2460  174.5590  142.5220 C   0  0  0  0  0  1  0  0  0  0  0  0
  191.3750  176.4820  147.1360 C   0  0  0  0  0  2  0  0  0  0  0  0
  193.8260  176.8110  146.8080 N   0  0  0  0  0  0  0  0  0  0  0  0
  194.3840  176.1030  141.8790 C   0  0  0  0  0  2  0  0  0  0  0  0
  192.6320  176.3490  146.3200 C   0  0  0  0  0  0  0  0  0  0  0  0
  192.0580  175.4780  142.7130 N   0  0  1  0  0  0  0  0  0  0  0  0
  196.0280  176.7200  143.7740 C   0  0  0  0  0  2  0  0  0  0  0  0
  189.7830  176.8150  145.5870 C   0  0  2  0  0  3  0  0  0  0  0  0
  196.7520  176.6820  141.3950 C   0  0  0  0  0  1  0  0  0  0  0  0
  190.2780  175.8700  146.5050 O   0  0  0  0  0  0  0  0  0  0  0  0
  191.8340  172.9770  143.1540 C   0  0  0  0  0  2  0  0  0  0  0  0
  191.4610  171.6650  142.4670 C   0  0  2  0  0  3  0  0  0  0  0  0
  189.1410  172.8560  142.1800 C   0  0  2  0  0  3  0  0  0  0  0  0
  189.9670  171.5570  142.1180 C   0  0  0  0  0  2  0  0  0  0  0  0
  189.5270  173.8960  141.2000 N   0  0  0  0  0  0  0  0  0  0  0  0
  188.9940  175.0950  141.5390 O   0  0  0  0  0  1  0  0  0  0  0  0
  190.9620  174.0710  140.9230 C   0  0  0  0  0  2  0  0  0  0  0  0
  188.9170  173.3570  143.6060 C   0  0  0  0  0  1  0  0  0  0  0  0
  191.8990  174.1310  142.1420 C   0  0  1  0  0  3  0  0  0  0  0  0
  192.8480  170.8970  144.3160 N   0  0  0  0  0  1  0  0  0  0  0  0
  191.8530  170.4870  143.3390 C   0  0  0  0  0  2  0  0  0  0  0  0
  187.5690  176.9170  146.7880 C   0  0  0  0  0  3  0  0  0  0  0  0
  188.2880  176.8150  145.5890 C   0  0  0  0  0  0  0  0  0  0  0  0
  187.6010  176.6860  144.3770 C   0  0  0  0  0  3  0  0  0  0  0  0
  185.5410  176.5450  143.1860 F   0  0  0  0  0  0  0  0  0  0  0  0
  185.4880  176.7730  145.5580 C   0  0  0  0  0  3  0  0  0  0  0  0
  186.2020  176.6670  144.3610 C   0  0  0  0  0  0  0  0  0  0  0  0
  186.1710  176.8980  146.7720 C   0  0  0  0  0  3  0  0  0  0  0  0
  1 10  1  0  0  0  0
  1 16  1  0  0  0  0
  2 14  1  0  0  0  0
  4  8  2  0  0  0  0
  5  7  1  0  0  0  0
  5  2  1  1  0  0  0
  6  4  1  0  0  0  0
  6  2  2  0  0  0  0
  7  3  1  1  0  0  0
  7 17  1  0  0  0  0
  8 12  1  0  0  0  0
  9  6  1  0  0  0  0
 13  1  1  0  0  0  0
 13  9  1  0  0  0  0
 14 12  2  0  0  0  0
 14 11  1  0  0  0  0
 15  9  1  1  0  0  0
 15  5  1  0  0  0  0
 16  4  1  0  0  0  0
 17 32  1  6  0  0  0
 17 19  1  0  0  0  0
 18  1  1  0  0  0  0
 19 11  1  0  0  0  0
 21 20  1  0  0  0  0
 21 30  1  1  0  0  0
 22 27  1  1  0  0  0
 23 22  1  0  0  0  0
 23 21  1  0  0  0  0
 24 25  1  0  0  0  0
 24 22  1  0  0  0  0
 26 24  1  0  0  0  0
 28 26  1  1  0  0  0
 28 15  1  0  0  0  0
 28 20  1  0  0  0  0
 30 29  1  0  0  0  0
 32 31  2  0  0  0  0
 33 32  1  0  0  0  0
 34 36  1  0  0  0  0
 35 37  2  0  0  0  0
 36 33  2  0  0  0  0
 36 35  1  0  0  0  0
 37 31  1  0  0  0  0
M  END
>  <MODEL>
1

>  <REMARK>
 VINA RESULT:      -8.6      0.000      0.000
  Name = 
  3 active torsions:
  status: ('A' for Active; 'I' for Inactive)
    1  A    between atoms: C_4  and  C_37
    2  A    between atoms: N_21  and  C_27
    3  A    between atoms: C_23  and  C_30
                            x       y       z     vdW  Elec       q    Type
                         _______ _______ _______ _____ _____    ______ ____

>  <TORSDO>
F 3

$$$$
=
 OpenBabel11112417123D

 37 42  0  0  1  0  0  0  0  0999 V2000
  196.2430  174.7640  139.8460 C   0  0  0  0  0  0  0  0  0  0  0  0
  194.3290  175.0450  143.5140 C   0  0  0  0  0  0  0  0  0  0  0  0
  191.9860  176.9410  142.7350 C   0  0  0  0  0  1  0  0  0  0  0  0
  196.3140  175.4980  142.2910 C   0  0  0  0  0  0  0  0  0  0  0  0
  192.9290  174.6200  143.1860 C   0  0  1  0  0  3  0  0  0  0  0  0
  195.0440  174.9790  142.3890 C   0  0  0  0  0  0  0  0  0  0  0  0
  191.8960  175.6890  143.5940 C   0  0  1  0  0  3  0  0  0  0  0  0
  196.8550  176.0530  143.4150 N   0  0  0  0  0  0  0  0  0  0  0  0
  194.2630  174.5570  141.3140 N   0  0  0  0  0  0  0  0  0  0  0  0
  196.6950  173.3170  139.9580 C   0  0  0  0  0  1  0  0  0  0  0  0
  194.0560  175.8850  145.8880 C   0  0  0  0  0  2  0  0  0  0  0  0
  196.1600  176.1080  144.5650 N   0  0  0  0  0  0  0  0  0  0  0  0
  194.6980  174.8280  139.9460 C   0  0  0  0  0  2  0  0  0  0  0  0
  194.8800  175.6260  144.6550 C   0  0  0  0  0  0  0  0  0  0  0  0
  192.9200  174.3650  141.7120 N   0  0  1  0  0  0  0  0  0  0  0  0
  196.9540  175.6130  140.9340 C   0  0  0  0  0  2  0  0  0  0  0  0
  191.9680  176.0810  145.0850 C   0  0  2  0  0  3  0  0  0  0  0  0
  196.6570  175.2840  138.4860 C   0  0  0  0  0  1  0  0  0  0  0  0
  192.8110  175.2340  145.8280 O   0  0  0  0  0  0  0  0  0  0  0  0
  192.5940  172.0000  142.6060 C   0  0  0  0  0  2  0  0  0  0  0  0
  192.0200  170.6390  142.2210 C   0  0  2  0  0  3  0  0  0  0  0  0
  189.7760  171.9900  142.0850 C   0  0  2  0  0  3  0  0  0  0  0  0
  190.4850  170.6240  142.1250 C   0  0  0  0  0  2  0  0  0  0  0  0
  190.0680  172.8180  140.8930 N   0  0  0  0  0  0  0  0  0  0  0  0
  189.6850  174.1020  141.0980 O   0  0  0  0  0  1  0  0  0  0  0  0
  191.4460  172.8060  140.3780 C   0  0  0  0  0  2  0  0  0  0  0  0
  189.8260  172.7300  143.4200 C   0  0  0  0  0  1  0  0  0  0  0  0
  192.5730  172.9670  141.4130 C   0  0  1  0  0  3  0  0  0  0  0  0
  193.4910  170.1210  144.0920 N   0  0  0  0  0  1  0  0  0  0  0  0
  192.4660  169.5810  143.2140 C   0  0  0  0  0  2  0  0  0  0  0  0
  189.7150  177.1680  145.3950 C   0  0  0  0  0  3  0  0  0  0  0  0
  190.6010  176.1220  145.6880 C   0  0  0  0  0  0  0  0  0  0  0  0
  190.2130  175.1130  146.5750 C   0  0  0  0  0  3  0  0  0  0  0  0
  188.5710  174.1630  148.0190 F   0  0  0  0  0  0  0  0  0  0  0  0
  188.0610  176.1860  146.8660 C   0  0  0  0  0  3  0  0  0  0  0  0
  188.9440  175.1430  147.1630 C   0  0  0  0  0  0  0  0  0  0  0  0
  188.4470  177.1980  145.9820 C   0  0  0  0  0  3  0  0  0  0  0  0
  1 13  1  0  0  0  0
  1 10  1  0  0  0  0
  1 16  1  0  0  0  0
  2 14  1  0  0  0  0
  4  6  1  0  0  0  0
  4  8  2  0  0  0  0
  5  2  1  6  0  0  0
  5  7  1  0  0  0  0
  6  2  2  0  0  0  0
  7  3  1  6  0  0  0
  7 17  1  0  0  0  0
  8 12  1  0  0  0  0
  9  6  1  0  0  0  0
 12 14  2  0  0  0  0
 13  9  1  0  0  0  0
 14 11  1  0  0  0  0
 15  9  1  1  0  0  0
 15  5  1  0  0  0  0
 16  4  1  0  0  0  0
 17 32  1  1  0  0  0
 17 19  1  0  0  0  0
 18  1  1  0  0  0  0
 19 11  1  0  0  0  0
 21 20  1  0  0  0  0
 21 30  1  1  0  0  0
 22 23  1  0  0  0  0
 22 27  1  1  0  0  0
 23 21  1  0  0  0  0
 24 25  1  0  0  0  0
 24 22  1  0  0  0  0
 26 24  1  0  0  0  0
 28 26  1  1  0  0  0
 28 15  1  0  0  0  0
 28 20  1  0  0  0  0
 30 29  1  0  0  0  0
 31 32  2  0  0  0  0
 31 37  1  0  0  0  0
 32 33  1  0  0  0  0
 33 36  2  0  0  0  0
 35 36  1  0  0  0  0
 36 34  1  0  0  0  0
 37 35  2  0  0  0  0
M  END
>  <MODEL>
2

>  <REMARK>
 VINA RESULT:      -7.7      1.948      2.590
  Name = 
  3 active torsions:
  status: ('A' for Active; 'I' for Inactive)
    1  A    between atoms: C_4  and  C_37
    2  A    between atoms: N_21  and  C_27
    3  A    between atoms: C_23  and  C_30
                            x       y       z     vdW  Elec       q    Type
                         _______ _______ _______ _____ _____    ______ ____

>  <TORSDO>
F 3

$$$$
=
 OpenBabel11112417123D

 37 42  0  0  1  0  0  0  0  0999 V2000
  193.9530  169.5450  143.5590 C   0  0  0  0  0  0  0  0  0  0  0  0
  191.4460  172.6410  142.4060 C   0  0  0  0  0  0  0  0  0  0  0  0
  189.6570  172.8360  144.9470 C   0  0  0  0  0  1  0  0  0  0  0  0
  192.1620  170.4210  141.9630 C   0  0  0  0  0  0  0  0  0  0  0  0
  191.6120  173.6280  143.5220 C   0  0  1  0  0  3  0  0  0  0  0  0
  192.2310  171.5950  142.6740 C   0  0  0  0  0  0  0  0  0  0  0  0
  190.2610  173.9950  144.1680 C   0  0  1  0  0  3  0  0  0  0  0  0
  191.2840  170.3680  140.9190 N   0  0  0  0  0  0  0  0  0  0  0  0
  192.9140  171.7670  143.8780 N   0  0  0  0  0  0  0  0  0  0  0  0
  195.2200  170.0420  142.8820 C   0  0  0  0  0  1  0  0  0  0  0  0
  189.5150  173.6560  141.1190 C   0  0  0  0  0  2  0  0  0  0  0  0
  190.5020  171.4190  140.6170 N   0  0  0  0  0  0  0  0  0  0  0  0
  193.4650  170.6070  144.5750 C   0  0  0  0  0  2  0  0  0  0  0  0
  190.5400  172.5780  141.3480 C   0  0  0  0  0  0  0  0  0  0  0  0
  192.5440  172.9820  144.4980 N   0  0  1  0  0  0  0  0  0  0  0  0
  192.8900  169.2090  142.4800 C   0  0  0  0  0  2  0  0  0  0  0  0
  189.2220  174.5370  143.1640 C   0  0  2  0  0  3  0  0  0  0  0  0
  194.2870  168.2770  144.3140 C   0  0  0  0  0  1  0  0  0  0  0  0
  189.7780  174.7970  141.8980 O   0  0  0  0  0  0  0  0  0  0  0  0
  194.0870  174.7770  143.5500 C   0  0  0  0  0  2  0  0  0  0  0  0
  195.2570  175.6790  143.9330 C   0  0  2  0  0  3  0  0  0  0  0  0
  193.5260  176.6370  145.6560 C   0  0  2  0  0  3  0  0  0  0  0  0
  194.8780  176.7850  144.9330 C   0  0  0  0  0  2  0  0  0  0  0  0
  193.4170  175.4690  146.5590 N   0  0  0  0  0  0  0  0  0  0  0  0
  192.1220  175.2320  146.8800 O   0  0  0  0  0  1  0  0  0  0  0  0
  194.0410  174.2100  146.1210 C   0  0  0  0  0  2  0  0  0  0  0  0
  192.3270  176.8630  144.7370 C   0  0  0  0  0  1  0  0  0  0  0  0
  193.7720  173.7740  144.6700 C   0  0  1  0  0  3  0  0  0  0  0  0
  197.1750  176.8490  142.9930 N   0  0  0  0  0  1  0  0  0  0  0  0
  195.8560  176.3160  142.6930 C   0  0  0  0  0  2  0  0  0  0  0  0
  188.5490  176.0300  145.0800 C   0  0  0  0  0  3  0  0  0  0  0  0
  188.5520  175.7590  143.7040 C   0  0  0  0  0  0  0  0  0  0  0  0
  187.8990  176.6280  142.8250 C   0  0  0  0  0  3  0  0  0  0  0  0
  186.6230  178.6080  142.4590 F   0  0  0  0  0  0  0  0  0  0  0  0
  187.2540  178.0380  144.6860 C   0  0  0  0  0  3  0  0  0  0  0  0
  187.2520  177.7680  143.3140 C   0  0  0  0  0  0  0  0  0  0  0  0
  187.9020  177.1690  145.5690 C   0  0  0  0  0  3  0  0  0  0  0  0
  1 18  1  0  0  0  0
  1 13  1  0  0  0  0
  2  6  1  0  0  0  0
  4 16  1  0  0  0  0
  4  6  2  0  0  0  0
  5  2  1  6  0  0  0
  5  7  1  0  0  0  0
  5 15  1  0  0  0  0
  6  9  1  0  0  0  0
  7  3  1  6  0  0  0
  8  4  1  0  0  0  0
  9 13  1  0  0  0  0
 10  1  1  0  0  0  0
 11 14  1  0  0  0  0
 11 19  1  0  0  0  0
 12  8  2  0  0  0  0
 12 14  1  0  0  0  0
 14  2  2  0  0  0  0
 15  9  1  6  0  0  0
 15 28  1  0  0  0  0
 16  1  1  0  0  0  0
 17 32  1  1  0  0  0
 17  7  1  0  0  0  0
 19 17  1  0  0  0  0
 20 21  1  0  0  0  0
 21 30  1  6  0  0  0
 21 23  1  0  0  0  0
 22 27  1  6  0  0  0
 22 24  1  0  0  0  0
 23 22  1  0  0  0  0
 24 25  1  0  0  0  0
 26 24  1  0  0  0  0
 28 20  1  6  0  0  0
 28 26  1  0  0  0  0
 30 29  1  0  0  0  0
 31 37  1  0  0  0  0
 32 31  2  0  0  0  0
 33 36  2  0  0  0  0
 33 32  1  0  0  0  0
 34 36  1  0  0  0  0
 35 37  2  0  0  0  0
 36 35  1  0  0  0  0
M  END
>  <MODEL>
3

>  <REMARK>
 VINA RESULT:      -7.6      1.897      5.564
  Name = 
  3 active torsions:
  status: ('A' for Active; 'I' for Inactive)
    1  A    between atoms: C_4  and  C_37
    2  A    between atoms: N_21  and  C_27
    3  A    between atoms: C_23  and  C_30
                            x       y       z     vdW  Elec       q    Type
                         _______ _______ _______ _____ _____    ______ ____

>  <TORSDO>
F 3

$$$$
=
 OpenBabel11112417123D

 37 42  0  0  1  0  0  0  0  0999 V2000
  192.1970  170.2800  139.8380 C   0  0  0  0  0  0  0  0  0  0  0  0
  190.1170  173.6790  140.9870 C   0  0  0  0  0  0  0  0  0  0  0  0
  189.1100  172.7530  143.7830 C   0  0  0  0  0  1  0  0  0  0  0  0
  190.2570  171.8910  139.4300 C   0  0  0  0  0  0  0  0  0  0  0  0
  190.7480  174.0190  142.3030 C   0  0  1  0  0  3  0  0  0  0  0  0
  190.7290  172.5900  140.5160 C   0  0  0  0  0  0  0  0  0  0  0  0
  189.7040  174.1090  143.4340 C   0  0  1  0  0  3  0  0  0  0  0  0
  189.1480  172.3780  138.8020 N   0  0  0  0  0  0  0  0  0  0  0  0
  191.7180  172.1440  141.3920 N   0  0  0  0  0  0  0  0  0  0  0  0
  193.3180  170.9700  139.0790 C   0  0  0  0  0  1  0  0  0  0  0  0
  188.1510  175.2750  140.9450 C   0  0  0  0  0  2  0  0  0  0  0  0
  188.5300  173.4870  139.2460 N   0  0  0  0  0  0  0  0  0  0  0  0
  192.1970  170.7660  141.3080 C   0  0  0  0  0  2  0  0  0  0  0  0
  188.9750  174.1650  140.3510 C   0  0  0  0  0  0  0  0  0  0  0  0
  191.7580  172.9450  142.5560 N   0  0  1  0  0  0  0  0  0  0  0  0
  190.8480  170.5430  139.1160 C   0  0  0  0  0  2  0  0  0  0  0  0
  188.5660  175.1100  143.1460 C   0  0  2  0  0  3  0  0  0  0  0  0
  192.4640  168.7910  139.8240 C   0  0  0  0  0  1  0  0  0  0  0  0
  188.8170  175.9040  142.0120 O   0  0  0  0  0  0  0  0  0  0  0  0
  193.3460  174.8450  141.9480 C   0  0  0  0  0  2  0  0  0  0  0  0
  194.7180  175.4190  142.2920 C   0  0  2  0  0  3  0  0  0  0  0  0
  193.6350  175.7220  144.6620 C   0  0  2  0  0  3  0  0  0  0  0  0
  194.7880  176.0460  143.6950 C   0  0  0  0  0  2  0  0  0  0  0  0
  193.5220  174.2990  145.0560 N   0  0  0  0  0  0  0  0  0  0  0  0
  192.3140  174.0520  145.6180 O   0  0  0  0  0  1  0  0  0  0  0  0
  193.7870  173.2840  144.0230 C   0  0  0  0  0  2  0  0  0  0  0  0
  192.3190  176.3950  144.2730 C   0  0  0  0  0  1  0  0  0  0  0  0
  193.1170  173.5000  142.6550 C   0  0  1  0  0  3  0  0  0  0  0  0
  196.5310  176.7910  141.4180 N   0  0  0  0  0  1  0  0  0  0  0  0
  195.1250  176.4580  141.2630 C   0  0  0  0  0  2  0  0  0  0  0  0
  188.8980  175.6850  145.5770 C   0  0  0  0  0  3  0  0  0  0  0  0
  188.3020  175.9690  144.3400 C   0  0  0  0  0  0  0  0  0  0  0  0
  187.4300  177.0560  144.2240 C   0  0  0  0  0  3  0  0  0  0  0  0
  186.3150  178.9140  145.2180 F   0  0  0  0  0  0  0  0  0  0  0  0
  187.7570  177.5780  146.5670 C   0  0  0  0  0  3  0  0  0  0  0  0
  187.1590  177.8610  145.3360 C   0  0  0  0  0  0  0  0  0  0  0  0
  188.6270  176.4900  146.6880 C   0  0  0  0  0  3  0  0  0  0  0  0
  1 13  1  0  0  0  0
  4  6  2  0  0  0  0
  5  2  1  6  0  0  0
  5 15  1  0  0  0  0
  5  7  1  0  0  0  0
  6  2  1  0  0  0  0
  6  9  1  0  0  0  0
  7  3  1  6  0  0  0
  8 12  2  0  0  0  0
  8  4  1  0  0  0  0
 10  1  1  0  0  0  0
 11 19  1  0  0  0  0
 12 14  1  0  0  0  0
 13  9  1  0  0  0  0
 14 11  1  0  0  0  0
 14  2  2  0  0  0  0
 15  9  1  6  0  0  0
 15 28  1  0  0  0  0
 16  4  1  0  0  0  0
 16  1  1  0  0  0  0
 17  7  1  0  0  0  0
 17 32  1  1  0  0  0
 18  1  1  0  0  0  0
 19 17  1  0  0  0  0
 20 21  1  0  0  0  0
 21 30  1  6  0  0  0
 21 23  1  0  0  0  0
 22 27  1  6  0  0  0
 22 24  1  0  0  0  0
 23 22  1  0  0  0  0
 24 25  1  0  0  0  0
 26 24  1  0  0  0  0
 28 20  1  1  0  0  0
 28 26  1  0  0  0  0
 30 29  1  0  0  0  0
 31 37  1  0  0  0  0
 32 31  2  0  0  0  0
 33 32  1  0  0  0  0
 33 36  2  0  0  0  0
 34 36  1  0  0  0  0
 35 37  2  0  0  0  0
 36 35  1  0  0  0  0
M  END
>  <MODEL>
4

>  <REMARK>
 VINA RESULT:      -7.5      2.150      5.653
  Name = 
  3 active torsions:
  status: ('A' for Active; 'I' for Inactive)
    1  A    between atoms: C_4  and  C_37
    2  A    between atoms: N_21  and  C_27
    3  A    between atoms: C_23  and  C_30
                            x       y       z     vdW  Elec       q    Type
                         _______ _______ _______ _____ _____    ______ ____

>  <TORSDO>
F 3

$$$$
=
 OpenBabel11112417123D

 37 42  0  0  1  0  0  0  0  0999 V2000
  191.6300  170.4400  138.6150 C   0  0  0  0  0  0  0  0  0  0  0  0
  189.9100  173.7070  140.5030 C   0  0  0  0  0  0  0  0  0  0  0  0
  189.1520  172.3980  143.2230 C   0  0  0  0  0  1  0  0  0  0  0  0
  189.7660  172.1850  138.6860 C   0  0  0  0  0  0  0  0  0  0  0  0
  190.7000  173.8040  141.7730 C   0  0  1  0  0  3  0  0  0  0  0  0
  190.3960  172.6800  139.8030 C   0  0  0  0  0  0  0  0  0  0  0  0
  189.7910  173.7630  143.0180 C   0  0  1  0  0  3  0  0  0  0  0  0
  188.6290  172.8170  138.2730 N   0  0  0  0  0  0  0  0  0  0  0  0
  191.4420  172.0530  140.4800 N   0  0  0  0  0  0  0  0  0  0  0  0
  192.7050  171.1870  137.8460 C   0  0  0  0  0  1  0  0  0  0  0  0
  188.0580  175.3810  140.9330 C   0  0  0  0  0  2  0  0  0  0  0  0
  188.1360  173.8690  138.9500 N   0  0  0  0  0  0  0  0  0  0  0  0
  191.8190  170.6850  140.1330 C   0  0  0  0  0  2  0  0  0  0  0  0
  188.7400  174.3410  140.0850 C   0  0  0  0  0  0  0  0  0  0  0  0
  191.6590  172.6570  141.7400 N   0  0  1  0  0  0  0  0  0  0  0  0
  190.2310  170.8770  138.1040 C   0  0  0  0  0  2  0  0  0  0  0  0
  188.6950  174.8490  143.0200 C   0  0  2  0  0  3  0  0  0  0  0  0
  191.7970  168.9600  138.3440 C   0  0  0  0  0  1  0  0  0  0  0  0
  188.8740  175.8010  141.9980 O   0  0  0  0  0  0  0  0  0  0  0  0
  193.2630  174.6260  141.5160 C   0  0  0  0  0  2  0  0  0  0  0  0
  194.7130  175.0280  141.7700 C   0  0  2  0  0  3  0  0  0  0  0  0
  194.0750  174.5190  144.2630 C   0  0  2  0  0  3  0  0  0  0  0  0
  195.0690  175.1370  143.2630 C   0  0  0  0  0  2  0  0  0  0  0  0
  193.9220  173.0490  144.1740 N   0  0  0  0  0  0  0  0  0  0  0  0
  192.8110  172.6430  144.8360 O   0  0  0  0  0  1  0  0  0  0  0  0
  193.9270  172.4440  142.8320 C   0  0  0  0  0  2  0  0  0  0  0  0
  192.7690  175.3040  144.3720 C   0  0  0  0  0  1  0  0  0  0  0  0
  193.0540  173.1250  141.7640 C   0  0  1  0  0  3  0  0  0  0  0  0
  196.3330  176.8250  141.4870 N   0  0  0  0  0  1  0  0  0  0  0  0
  195.0180  176.3500  141.0900 C   0  0  0  0  0  2  0  0  0  0  0  0
  187.9250  176.7280  144.5140 C   0  0  0  0  0  3  0  0  0  0  0  0
  188.6180  175.5190  144.3540 C   0  0  0  0  0  0  0  0  0  0  0  0
  189.2680  174.9430  145.4490 C   0  0  0  0  0  3  0  0  0  0  0  0
  189.8490  175.0020  147.7610 F   0  0  0  0  0  0  0  0  0  0  0  0
  188.5260  176.7670  146.8590 C   0  0  0  0  0  3  0  0  0  0  0  0
  189.2210  175.5650  146.7020 C   0  0  0  0  0  0  0  0  0  0  0  0
  187.8780  177.3490  145.7650 C   0  0  0  0  0  3  0  0  0  0  0  0
  1 13  1  0  0  0  0
  4  6  1  0  0  0  0
  5  2  1  6  0  0  0
  5  7  1  0  0  0  0
  6  9  1  0  0  0  0
  6  2  2  0  0  0  0
  7 17  1  0  0  0  0
  7  3  1  6  0  0  0
  8  4  2  0  0  0  0
  8 12  1  0  0  0  0
 10  1  1  0  0  0  0
 11 19  1  0  0  0  0
 12 14  2  0  0  0  0
 13  9  1  0  0  0  0
 14  2  1  0  0  0  0
 14 11  1  0  0  0  0
 15  9  1  6  0  0  0
 15 28  1  0  0  0  0
 15  5  1  0  0  0  0
 16  1  1  0  0  0  0
 16  4  1  0  0  0  0
 17 32  1  1  0  0  0
 18  1  1  0  0  0  0
 19 17  1  0  0  0  0
 20 21  1  0  0  0  0
 21 30  1  6  0  0  0
 21 23  1  0  0  0  0
 22 27  1  6  0  0  0
 23 22  1  0  0  0  0
 24 22  1  0  0  0  0
 24 25  1  0  0  0  0
 26 24  1  0  0  0  0
 28 20  1  1  0  0  0
 28 26  1  0  0  0  0
 30 29  1  0  0  0  0
 31 37  1  0  0  0  0
 32 31  2  0  0  0  0
 32 33  1  0  0  0  0
 33 36  2  0  0  0  0
 36 35  1  0  0  0  0
 36 34  1  0  0  0  0
 37 35  2  0  0  0  0
M  END
>  <MODEL>
5

>  <REMARK>
 VINA RESULT:      -7.5      2.649      6.005
  Name = 
  3 active torsions:
  status: ('A' for Active; 'I' for Inactive)
    1  A    between atoms: C_4  and  C_37
    2  A    between atoms: N_21  and  C_27
    3  A    between atoms: C_23  and  C_30
                            x       y       z     vdW  Elec       q    Type
                         _______ _______ _______ _____ _____    ______ ____

>  <TORSDO>
F 3

$$$$
=
 OpenBabel11112417123D

 37 42  0  0  1  0  0  0  0  0999 V2000
  195.4660  175.7630  143.4190 C   0  0  0  0  0  0  0  0  0  0  0  0
  191.7530  176.0310  145.2470 C   0  0  0  0  0  0  0  0  0  0  0  0
  190.5080  178.3330  143.5610 C   0  0  0  0  0  1  0  0  0  0  0  0
  194.1000  176.2660  145.5180 C   0  0  0  0  0  0  0  0  0  0  0  0
  190.8090  175.8630  144.0950 C   0  0  1  0  0  3  0  0  0  0  0  0
  192.9950  175.9480  144.7650 C   0  0  0  0  0  0  0  0  0  0  0  0
  189.8230  177.0430  143.9850 C   0  0  1  0  0  3  0  0  0  0  0  0
  193.8930  176.6310  146.8170 N   0  0  0  0  0  0  0  0  0  0  0  0
  192.9930  175.7480  143.3850 N   0  0  0  0  0  0  0  0  0  0  0  0
  195.6470  174.2590  143.5380 C   0  0  0  0  0  1  0  0  0  0  0  0
  190.1660  176.6990  147.1040 C   0  0  0  0  0  2  0  0  0  0  0  0
  192.6510  176.6980  147.3290 N   0  0  0  0  0  0  0  0  0  0  0  0
  194.1850  176.0620  142.6010 C   0  0  0  0  0  2  0  0  0  0  0  0
  191.5450  176.4190  146.5700 C   0  0  0  0  0  0  0  0  0  0  0  0
  191.6730  175.7380  142.8800 N   0  0  1  0  0  0  0  0  0  0  0  0
  195.4370  176.3930  144.8380 C   0  0  0  0  0  2  0  0  0  0  0  0
  189.0090  177.2910  145.2720 C   0  0  2  0  0  3  0  0  0  0  0  0
  196.6550  176.3240  142.6700 C   0  0  0  0  0  1  0  0  0  0  0  0
  189.1650  176.2610  146.2190 O   0  0  0  0  0  0  0  0  0  0  0  0
  192.0710  173.2200  142.9230 C   0  0  0  0  0  2  0  0  0  0  0  0
  191.6250  171.9230  142.2540 C   0  0  2  0  0  3  0  0  0  0  0  0
  189.2930  172.5970  143.2470 C   0  0  2  0  0  3  0  0  0  0  0  0
  190.1800  171.5200  142.5950 C   0  0  0  0  0  2  0  0  0  0  0  0
  189.0050  173.7760  142.4000 N   0  0  0  0  0  0  0  0  0  0  0  0
  188.5180  174.7960  143.1480 O   0  0  0  0  0  1  0  0  0  0  0  0
  190.0930  174.2840  141.5490 C   0  0  0  0  0  2  0  0  0  0  0  0
  189.6940  172.9130  144.6870 C   0  0  0  0  0  1  0  0  0  0  0  0
  191.4720  174.4430  142.2110 C   0  0  1  0  0  3  0  0  0  0  0  0
  193.9170  171.0990  142.2210 N   0  0  0  0  0  1  0  0  0  0  0  0
  192.5590  170.7880  142.6360 C   0  0  0  0  0  2  0  0  0  0  0  0
  187.1580  177.8920  143.6710 C   0  0  0  0  0  3  0  0  0  0  0  0
  187.5640  177.4960  144.9540 C   0  0  0  0  0  0  0  0  0  0  0  0
  186.6070  177.3120  145.9580 C   0  0  0  0  0  3  0  0  0  0  0  0
  184.3280  177.3350  146.6560 F   0  0  0  0  0  0  0  0  0  0  0  0
  184.8490  177.9070  144.4010 C   0  0  0  0  0  3  0  0  0  0  0  0
  185.2510  177.5160  145.6820 C   0  0  0  0  0  0  0  0  0  0  0  0
  185.8020  178.0960  143.3960 C   0  0  0  0  0  3  0  0  0  0  0  0
  1 10  1  0  0  0  0
  1 16  1  0  0  0  0
  2 14  1  0  0  0  0
  4  8  2  0  0  0  0
  5  2  1  1  0  0  0
  6  2  2  0  0  0  0
  6  4  1  0  0  0  0
  7  3  1  1  0  0  0
  7  5  1  0  0  0  0
  7 17  1  0  0  0  0
  8 12  1  0  0  0  0
  9  6  1  0  0  0  0
 13  9  1  0  0  0  0
 13  1  1  0  0  0  0
 14 11  1  0  0  0  0
 14 12  2  0  0  0  0
 15  9  1  1  0  0  0
 15  5  1  0  0  0  0
 16  4  1  0  0  0  0
 17 32  1  6  0  0  0
 17 19  1  0  0  0  0
 18  1  1  0  0  0  0
 19 11  1  0  0  0  0
 21 23  1  0  0  0  0
 21 30  1  1  0  0  0
 21 20  1  0  0  0  0
 22 27  1  1  0  0  0
 23 22  1  0  0  0  0
 24 25  1  0  0  0  0
 24 22  1  0  0  0  0
 26 24  1  0  0  0  0
 28 26  1  1  0  0  0
 28 15  1  0  0  0  0
 28 20  1  0  0  0  0
 29 30  1  0  0  0  0
 31 32  1  0  0  0  0
 32 33  2  0  0  0  0
 35 36  2  0  0  0  0
 36 33  1  0  0  0  0
 36 34  1  0  0  0  0
 37 31  2  0  0  0  0
 37 35  1  0  0  0  0
M  END
>  <MODEL>
6

>  <REMARK>
 VINA RESULT:      -7.5      1.227      1.525
  Name = 
  3 active torsions:
  status: ('A' for Active; 'I' for Inactive)
    1  A    between atoms: C_4  and  C_37
    2  A    between atoms: N_21  and  C_27
    3  A    between atoms: C_23  and  C_30
                            x       y       z     vdW  Elec       q    Type
                         _______ _______ _______ _____ _____    ______ ____

>  <TORSDO>
F 3

$$$$
=
 OpenBabel11112417123D

 37 42  0  0  1  0  0  0  0  0999 V2000
  187.1610  176.8160  142.2190 C   0  0  0  0  0  0  0  0  0  0  0  0
  191.1120  175.9400  143.1230 C   0  0  0  0  0  0  0  0  0  0  0  0
  190.6770  173.8240  145.3640 C   0  0  0  0  0  1  0  0  0  0  0  0
  189.4230  177.6080  143.1030 C   0  0  0  0  0  0  0  0  0  0  0  0
  191.1660  174.4520  142.9470 C   0  0  1  0  0  3  0  0  0  0  0  0
  189.8690  176.3340  142.8410 C   0  0  0  0  0  0  0  0  0  0  0  0
  191.6740  173.7420  144.2180 C   0  0  1  0  0  3  0  0  0  0  0  0
  190.3200  178.4940  143.6260 N   0  0  0  0  0  0  0  0  0  0  0  0
  189.0580  175.2530  142.4960 N   0  0  0  0  0  0  0  0  0  0  0  0
  187.3340  177.0360  140.7250 C   0  0  0  0  0  1  0  0  0  0  0  0
  193.3710  176.4040  144.1700 C   0  0  0  0  0  2  0  0  0  0  0  0
  191.5840  178.1230  143.8950 N   0  0  0  0  0  0  0  0  0  0  0  0
  187.6050  175.3770  142.5800 C   0  0  0  0  0  2  0  0  0  0  0  0
  192.0210  176.8440  143.6710 C   0  0  0  0  0  0  0  0  0  0  0  0
  189.7730  174.0380  142.5910 N   0  0  1  0  0  0  0  0  0  0  0  0
  187.9510  177.9030  142.9950 C   0  0  0  0  0  2  0  0  0  0  0  0
  193.0520  174.2440  144.6980 C   0  0  2  0  0  3  0  0  0  0  0  0
  185.6920  176.9620  142.5500 C   0  0  0  0  0  1  0  0  0  0  0  0
  193.6740  175.0920  143.7630 O   0  0  0  0  0  0  0  0  0  0  0  0
  190.8120  173.8400  140.2710 C   0  0  0  0  0  2  0  0  0  0  0  0
  190.7930  172.9700  139.0170 C   0  0  2  0  0  3  0  0  0  0  0  0
  191.6580  171.1320  140.6750 C   0  0  2  0  0  3  0  0  0  0  0  0
  191.4210  171.5810  139.2220 C   0  0  0  0  0  2  0  0  0  0  0  0
  190.4340  170.9480  141.4880 N   0  0  0  0  0  0  0  0  0  0  0  0
  190.7410  170.8860  142.8070 O   0  0  0  0  0  1  0  0  0  0  0  0
  189.3390  171.9120  141.2950 C   0  0  0  0  0  2  0  0  0  0  0  0
  192.7870  171.8980  141.3630 C   0  0  0  0  0  1  0  0  0  0  0  0
  189.7270  173.4010  141.2650 C   0  0  1  0  0  3  0  0  0  0  0  0
  192.8020  174.1620  138.3270 N   0  0  0  0  0  1  0  0  0  0  0  0
  191.5080  173.6740  137.8790 C   0  0  0  0  0  2  0  0  0  0  0  0
  193.4640  171.7770  145.0080 C   0  0  0  0  0  3  0  0  0  0  0  0
  193.9430  173.0940  145.0390 C   0  0  0  0  0  0  0  0  0  0  0  0
  195.2670  173.3420  145.4170 C   0  0  0  0  0  3  0  0  0  0  0  0
  197.3930  172.5230  146.1190 F   0  0  0  0  0  0  0  0  0  0  0  0
  195.6320  170.9670  145.7210 C   0  0  0  0  0  3  0  0  0  0  0  0
  196.1120  172.2800  145.7560 C   0  0  0  0  0  0  0  0  0  0  0  0
  194.3080  170.7160  145.3470 C   0  0  0  0  0  3  0  0  0  0  0  0
  1 18  1  0  0  0  0
  1 13  1  0  0  0  0
  1 16  1  0  0  0  0
  2 14  1  0  0  0  0
  4  8  2  0  0  0  0
  5  2  1  1  0  0  0
  5  7  1  0  0  0  0
  6  4  1  0  0  0  0
  6  2  2  0  0  0  0
  7 17  1  0  0  0  0
  7  3  1  1  0  0  0
  8 12  1  0  0  0  0
  9 13  1  0  0  0  0
  9  6  1  0  0  0  0
 10  1  1  0  0  0  0
 14 12  2  0  0  0  0
 14 11  1  0  0  0  0
 15  9  1  6  0  0  0
 15  5  1  0  0  0  0
 16  4  1  0  0  0  0
 17 32  1  6  0  0  0
 19 11  1  0  0  0  0
 19 17  1  0  0  0  0
 21 30  1  6  0  0  0
 21 23  1  0  0  0  0
 21 20  1  0  0  0  0
 22 27  1  1  0  0  0
 22 24  1  0  0  0  0
 23 22  1  0  0  0  0
 24 25  1  0  0  0  0
 26 24  1  0  0  0  0
 28 20  1  1  0  0  0
 28 26  1  0  0  0  0
 28 15  1  0  0  0  0
 30 29  1  0  0  0  0
 31 32  2  0  0  0  0
 31 37  1  0  0  0  0
 32 33  1  0  0  0  0
 33 36  2  0  0  0  0
 35 36  1  0  0  0  0
 36 34  1  0  0  0  0
 37 35  2  0  0  0  0
M  END
>  <MODEL>
7

>  <REMARK>
 VINA RESULT:      -7.5      3.444      6.434
  Name = 
  3 active torsions:
  status: ('A' for Active; 'I' for Inactive)
    1  A    between atoms: C_4  and  C_37
    2  A    between atoms: N_21  and  C_27
    3  A    between atoms: C_23  and  C_30
                            x       y       z     vdW  Elec       q    Type
                         _______ _______ _______ _____ _____    ______ ____

>  <TORSDO>
F 3

$$$$
=
 OpenBabel11112417123D

 37 42  0  0  1  0  0  0  0  0999 V2000
  192.3610  169.7540  140.2040 C   0  0  0  0  0  0  0  0  0  0  0  0
  190.5900  173.2860  141.4630 C   0  0  0  0  0  0  0  0  0  0  0  0
  189.8510  172.4870  144.3800 C   0  0  0  0  0  1  0  0  0  0  0  0
  190.4700  171.4530  139.9570 C   0  0  0  0  0  0  0  0  0  0  0  0
  191.3770  173.6270  142.6910 C   0  0  1  0  0  3  0  0  0  0  0  0
  191.0920  172.1550  140.9630 C   0  0  0  0  0  0  0  0  0  0  0  0
  190.4690  173.8010  143.9250 C   0  0  1  0  0  3  0  0  0  0  0  0
  189.3240  171.9810  139.4370 N   0  0  0  0  0  0  0  0  0  0  0  0
  192.1480  171.6800  141.7410 N   0  0  0  0  0  0  0  0  0  0  0  0
  193.4250  170.3630  139.3070 C   0  0  0  0  0  1  0  0  0  0  0  0
  188.7120  174.9810  141.5820 C   0  0  0  0  0  2  0  0  0  0  0  0
  188.8140  173.1320  139.9110 N   0  0  0  0  0  0  0  0  0  0  0  0
  192.5460  170.2770  141.6500 C   0  0  0  0  0  2  0  0  0  0  0  0
  189.4100  173.8140  140.9380 C   0  0  0  0  0  0  0  0  0  0  0  0
  192.3540  172.5080  142.8680 N   0  0  1  0  0  0  0  0  0  0  0  0
  190.9560  170.0680  139.6240 C   0  0  0  0  0  2  0  0  0  0  0  0
  189.3570  174.8530  143.7300 C   0  0  2  0  0  3  0  0  0  0  0  0
  192.5520  168.2520  140.2090 C   0  0  0  0  0  1  0  0  0  0  0  0
  189.5210  175.6020  142.5500 O   0  0  0  0  0  0  0  0  0  0  0  0
  193.9210  174.5190  142.8110 C   0  0  0  0  0  2  0  0  0  0  0  0
  195.3930  174.8990  142.9500 C   0  0  2  0  0  3  0  0  0  0  0  0
  195.0770  173.9270  145.3660 C   0  0  2  0  0  3  0  0  0  0  0  0
  195.9370  174.7390  144.3800 C   0  0  0  0  0  2  0  0  0  0  0  0
  194.9110  172.4950  145.0270 N   0  0  0  0  0  0  0  0  0  0  0  0
  193.8930  171.9510  145.7380 O   0  0  0  0  0  1  0  0  0  0  0  0
  194.7430  172.1480  143.6070 C   0  0  0  0  0  2  0  0  0  0  0  0
  193.7970  174.6500  145.7820 C   0  0  0  0  0  1  0  0  0  0  0  0
  193.7420  172.9930  142.8010 C   0  0  1  0  0  3  0  0  0  0  0  0
  196.9020  176.8100  142.9560 N   0  0  0  0  0  1  0  0  0  0  0  0
  195.6110  176.3290  142.4930 C   0  0  0  0  0  2  0  0  0  0  0  0
  188.1020  176.4880  145.1810 C   0  0  0  0  0  3  0  0  0  0  0  0
  189.2690  175.7550  144.9180 C   0  0  0  0  0  0  0  0  0  0  0  0
  190.3750  175.8870  145.7620 C   0  0  0  0  0  3  0  0  0  0  0  0
  191.3900  176.8630  147.6870 F   0  0  0  0  0  0  0  0  0  0  0  0
  189.1510  177.4670  147.1310 C   0  0  0  0  0  3  0  0  0  0  0  0
  190.3170  176.7400  146.8700 C   0  0  0  0  0  0  0  0  0  0  0  0
  188.0440  177.3410  146.2870 C   0  0  0  0  0  3  0  0  0  0  0  0
  1 18  1  0  0  0  0
  1 13  1  0  0  0  0
  4  6  2  0  0  0  0
  5  2  1  6  0  0  0
  5 15  1  0  0  0  0
  5  7  1  0  0  0  0
  6  2  1  0  0  0  0
  6  9  1  0  0  0  0
  7  3  1  6  0  0  0
  8 12  2  0  0  0  0
  8  4  1  0  0  0  0
 10  1  1  0  0  0  0
 11 19  1  0  0  0  0
 12 14  1  0  0  0  0
 13  9  1  0  0  0  0
 14  2  2  0  0  0  0
 14 11  1  0  0  0  0
 15  9  1  6  0  0  0
 16  4  1  0  0  0  0
 16  1  1  0  0  0  0
 17  7  1  0  0  0  0
 17 32  1  1  0  0  0
 19 17  1  0  0  0  0
 20 21  1  0  0  0  0
 21 30  1  1  0  0  0
 21 23  1  0  0  0  0
 22 27  1  6  0  0  0
 23 22  1  0  0  0  0
 24 22  1  0  0  0  0
 24 25  1  0  0  0  0
 26 24  1  0  0  0  0
 28 20  1  1  0  0  0
 28 15  1  0  0  0  0
 28 26  1  0  0  0  0
 30 29  1  0  0  0  0
 31 37  1  0  0  0  0
 32 31  2  0  0  0  0
 32 33  1  0  0  0  0
 33 36  2  0  0  0  0
 36 35  1  0  0  0  0
 36 34  1  0  0  0  0
 37 35  2  0  0  0  0
M  END
>  <MODEL>
8

>  <REMARK>
 VINA RESULT:      -7.3      2.576      5.932
  Name = 
  3 active torsions:
  status: ('A' for Active; 'I' for Inactive)
    1  A    between atoms: C_4  and  C_37
    2  A    between atoms: N_21  and  C_27
    3  A    between atoms: C_23  and  C_30
                            x       y       z     vdW  Elec       q    Type
                         _______ _______ _______ _____ _____    ______ ____

>  <TORSDO>
F 3

$$$$
=
 OpenBabel11112417123D

 37 42  0  0  1  0  0  0  0  0999 V2000
  196.2190  174.6570  138.8790 C   0  0  0  0  0  0  0  0  0  0  0  0
  195.0860  174.6290  142.8690 C   0  0  0  0  0  0  0  0  0  0  0  0
  192.6390  176.5480  142.7290 C   0  0  0  0  0  1  0  0  0  0  0  0
  196.7840  175.2010  141.3100 C   0  0  0  0  0  0  0  0  0  0  0  0
  193.6490  174.2120  142.7970 C   0  0  1  0  0  3  0  0  0  0  0  0
  195.5600  174.6590  141.6210 C   0  0  0  0  0  0  0  0  0  0  0  0
  192.7210  175.2320  143.4880 C   0  0  1  0  0  3  0  0  0  0  0  0
  197.5430  175.6740  142.3410 N   0  0  0  0  0  0  0  0  0  0  0  0
  194.5760  174.3110  140.6950 N   0  0  0  0  0  0  0  0  0  0  0  0
  196.6800  173.2130  138.7840 C   0  0  0  0  0  1  0  0  0  0  0  0
  195.3010  175.2790  145.3070 C   0  0  0  0  0  2  0  0  0  0  0  0
  197.0950  175.6320  143.6080 N   0  0  0  0  0  0  0  0  0  0  0  0
  194.7270  174.6930  139.2940 C   0  0  0  0  0  2  0  0  0  0  0  0
  195.8590  175.1270  143.9170 C   0  0  0  0  0  0  0  0  0  0  0  0
  193.3410  174.0720  141.3400 N   0  0  1  0  0  0  0  0  0  0  0  0
  197.1370  175.4290  139.8650 C   0  0  0  0  0  2  0  0  0  0  0  0
  193.0950  175.5090  144.9600 C   0  0  2  0  0  3  0  0  0  0  0  0
  196.3510  175.2860  137.5090 C   0  0  0  0  0  1  0  0  0  0  0  0
  194.0680  174.6180  145.4480 O   0  0  0  0  0  0  0  0  0  0  0  0
  193.0070  171.6800  142.1580 C   0  0  0  0  0  2  0  0  0  0  0  0
  192.3720  170.3510  141.7570 C   0  0  2  0  0  3  0  0  0  0  0  0
  190.1620  171.7620  141.8210 C   0  0  2  0  0  3  0  0  0  0  0  0
  190.8350  170.3780  141.7600 C   0  0  0  0  0  2  0  0  0  0  0  0
  190.4010  172.6320  140.6470 N   0  0  0  0  0  0  0  0  0  0  0  0
  190.0670  173.9160  140.9270 O   0  0  0  0  0  1  0  0  0  0  0  0
  191.7420  172.6070  140.0430 C   0  0  0  0  0  2  0  0  0  0  0  0
  190.3180  172.4450  143.1790 C   0  0  0  0  0  1  0  0  0  0  0  0
  192.9370  172.6960  141.0090 C   0  0  1  0  0  3  0  0  0  0  0  0
  192.8720  169.7080  144.0520 N   0  0  0  0  0  1  0  0  0  0  0  0
  192.8510  169.2420  142.6760 C   0  0  0  0  0  2  0  0  0  0  0  0
  191.9870  175.3340  147.2170 C   0  0  0  0  0  3  0  0  0  0  0  0
  191.8780  175.4850  145.8270 C   0  0  0  0  0  0  0  0  0  0  0  0
  190.6140  175.5890  145.2390 C   0  0  0  0  0  3  0  0  0  0  0  0
  188.2410  175.6560  145.4600 F   0  0  0  0  0  0  0  0  0  0  0  0
  189.5750  175.4050  147.4190 C   0  0  0  0  0  3  0  0  0  0  0  0
  189.4630  175.5510  146.0340 C   0  0  0  0  0  0  0  0  0  0  0  0
  190.8380  175.2960  148.0110 C   0  0  0  0  0  3  0  0  0  0  0  0
  1 13  1  0  0  0  0
  1 16  1  0  0  0  0
  2 14  1  0  0  0  0
  4  6  1  0  0  0  0
  4  8  2  0  0  0  0
  5  2  1  6  0  0  0
  5  7  1  0  0  0  0
  6  2  2  0  0  0  0
  7  3  1  6  0  0  0
  7 17  1  0  0  0  0
  8 12  1  0  0  0  0
  9  6  1  0  0  0  0
 10  1  1  0  0  0  0
 11 19  1  0  0  0  0
 12 14  2  0  0  0  0
 13  9  1  0  0  0  0
 14 11  1  0  0  0  0
 15  9  1  6  0  0  0
 15  5  1  0  0  0  0
 16  4  1  0  0  0  0
 17 19  1  0  0  0  0
 17 32  1  1  0  0  0
 18  1  1  0  0  0  0
 21 23  1  0  0  0  0
 21 20  1  0  0  0  0
 21 30  1  1  0  0  0
 22 27  1  1  0  0  0
 23 22  1  0  0  0  0
 24 25  1  0  0  0  0
 24 22  1  0  0  0  0
 26 24  1  0  0  0  0
 28 26  1  1  0  0  0
 28 15  1  0  0  0  0
 28 20  1  0  0  0  0
 30 29  1  0  0  0  0
 31 37  1  0  0  0  0
 32 31  2  0  0  0  0
 33 32  1  0  0  0  0
 33 36  2  0  0  0  0
 34 36  1  0  0  0  0
 35 37  2  0  0  0  0
 36 35  1  0  0  0  0
M  END
>  <MODEL>
9

>  <REMARK>
 VINA RESULT:      -6.9      2.301      3.372
  Name = 
  3 active torsions:
  status: ('A' for Active; 'I' for Inactive)
    1  A    between atoms: C_4  and  C_37
    2  A    between atoms: N_21  and  C_27
    3  A    between atoms: C_23  and  C_30
                            x       y       z     vdW  Elec       q    Type
                         _______ _______ _______ _____ _____    ______ ____

>  <TORSDO>
F 3

$$$$
