=
 OpenBabel11112416283D

 32 37  0  0  1  0  0  0  0  0999 V2000
  192.6060  174.6540  144.3890 C   0  0  0  0  0  3  0  0  0  0  0  0
  188.0180  177.4080  143.6970 C   0  0  1  0  0  3  0  0  0  0  0  0
  186.0470  178.0500  148.1790 C   0  0  0  0  0  3  0  0  0  0  0  0
  184.8960  178.6060  147.6220 C   0  0  0  0  0  3  0  0  0  0  0  0
  186.4290  177.4690  141.6460 C   0  0  0  0  0  0  0  0  0  0  0  0
  185.0830  177.7910  141.1700 C   0  0  0  0  0  0  0  0  0  0  0  0
  190.4310  176.7650  143.4950 C   0  0  1  0  0  3  0  0  0  0  0  0
  189.4290  177.2930  145.7600 C   0  0  0  0  0  2  0  0  0  0  0  0
  182.9640  178.2470  141.2680 C   0  0  0  0  0  0  0  0  0  0  0  0
  191.8560  176.7370  145.6530 C   0  0  0  0  0  2  0  0  0  0  0  0
  187.0320  177.5720  147.3720 N   0  0  0  0  0  0  0  0  0  0  0  0
  188.0450  177.0040  145.1810 C   0  0  1  0  0  3  0  0  0  0  0  0
  186.9460  177.6240  146.0120 C   0  0  0  0  0  0  0  0  0  0  0  0
  185.6700  178.2650  143.9170 C   0  0  2  0  0  3  0  0  0  0  0  0
  183.3050  178.0470  139.9730 N   0  0  0  0  0  0  0  0  0  0  0  0
  191.8680  174.6660  143.2730 C   0  0  0  0  0  3  0  0  0  0  0  0
  190.4840  176.4780  145.0160 C   0  0  2  0  0  3  0  0  0  0  0  0
  184.6050  177.7630  139.9120 N   0  0  0  0  0  0  0  0  0  0  0  0
  191.4320  175.9640  142.6460 C   0  0  0  0  0  2  0  0  0  0  0  0
  193.0260  175.9400  145.0560 C   0  0  1  0  0  3  0  0  0  0  0  0
  184.7680  178.6520  146.2350 C   0  0  0  0  0  3  0  0  0  0  0  0
  185.7740  178.1340  145.4120 C   0  0  0  0  0  0  0  0  0  0  0  0
  184.2780  178.1990  143.4450 N   0  0  0  0  0  0  0  0  0  0  0  0
  189.0210  176.5210  142.9590 C   0  0  0  0  0  2  0  0  0  0  0  0
  187.3690  177.2810  140.8300 O   0  0  0  0  0  0  0  0  0  0  0  0
  181.5950  178.5880  141.7400 C   0  0  0  0  0  1  0  0  0  0  0  0
  186.5900  177.2730  143.1510 C   0  0  2  0  0  3  0  0  0  0  0  0
  184.0850  178.0920  142.0360 C   0  0  0  0  0  0  0  0  0  0  0  0
  194.0550  175.6710  146.1420 C   0  0  0  0  0  2  0  0  0  0  0  0
  195.3650  175.2810  145.5470 C   0  0  0  0  0  0  0  0  0  0  0  0
  195.8520  175.9580  144.4370 O   0  0  0  0  0  0  0  0  0  0  0  0
  196.0450  174.3590  146.0680 O   0  0  0  0  0  1  0  0  0  0  0  0
  1 20  1  0  0  0  0
  2 24  1  6  0  0  0
  2 12  1  0  0  0  0
  4  3  1  0  0  0  0
  6  5  1  0  0  0  0
  6 28  1  0  0  0  0
  7 19  1  6  0  0  0
  7 17  1  0  0  0  0
  9 26  1  0  0  0  0
  9 28  1  0  0  0  0
 11  3  2  0  0  0  0
 12  8  1  1  0  0  0
 12 13  1  0  0  0  0
 13 11  1  0  0  0  0
 14 23  1  6  0  0  0
 14 22  1  0  0  0  0
 15  9  2  0  0  0  0
 16  1  2  0  0  0  0
 17 10  1  1  0  0  0
 17  8  1  0  0  0  0
 18 15  1  0  0  0  0
 18  6  2  0  0  0  0
 19 16  1  0  0  0  0
 20 10  1  0  0  0  0
 20 29  1  1  0  0  0
 21  4  2  0  0  0  0
 22 13  2  0  0  0  0
 22 21  1  0  0  0  0
 24  7  1  0  0  0  0
 25  5  2  0  0  0  0
 27  5  1  6  0  0  0
 27  2  1  0  0  0  0
 27 14  1  0  0  0  0
 28 23  2  0  0  0  0
 30 32  1  0  0  0  0
 30 29  1  0  0  0  0
 31 30  2  0  0  0  0
M  END
>  <MODEL>
1

>  <REMARK>
 VINA RESULT:      -9.7      0.000      0.000
  Name = 
  2 active torsions:
  status: ('A' for Active; 'I' for Inactive)
    1  A    between atoms: C_20  and  C_29
    2  A    between atoms: C_29  and  C_30
                            x       y       z     vdW  Elec       q    Type
                         _______ _______ _______ _____ _____    ______ ____

>  <TORSDO>
F 2

$$$$
=
 OpenBabel11112416283D

 32 37  0  0  1  0  0  0  0  0999 V2000
  186.2680  176.8100  146.6490 C   0  0  0  0  0  3  0  0  0  0  0  0
  190.9630  175.8320  144.1760 C   0  0  1  0  0  3  0  0  0  0  0  0
  189.8860  173.6570  139.8750 C   0  0  0  0  0  3  0  0  0  0  0  0
  191.2380  173.4310  139.6210 C   0  0  0  0  0  3  0  0  0  0  0  0
  193.3070  175.4070  145.2040 C   0  0  0  0  0  0  0  0  0  0  0  0
  194.6470  174.8660  144.9730 C   0  0  0  0  0  0  0  0  0  0  0  0
  189.1660  177.0620  145.4150 C   0  0  1  0  0  3  0  0  0  0  0  0
  188.7100  176.0980  143.1190 C   0  0  0  0  0  2  0  0  0  0  0  0
  196.2280  173.7340  144.0090 C   0  0  0  0  0  0  0  0  0  0  0  0
  186.8840  177.3700  144.2400 C   0  0  0  0  0  2  0  0  0  0  0  0
  189.4980  174.2220  141.0500 N   0  0  0  0  0  0  0  0  0  0  0  0
  189.8860  175.1430  143.3190 C   0  0  1  0  0  3  0  0  0  0  0  0
  190.3960  174.5930  142.0070 C   0  0  0  0  0  0  0  0  0  0  0  0
  192.7920  174.7870  142.8130 C   0  0  2  0  0  3  0  0  0  0  0  0
  196.6890  174.2000  145.1930 N   0  0  0  0  0  0  0  0  0  0  0  0
  187.4490  176.6490  147.2590 C   0  0  0  0  0  3  0  0  0  0  0  0
  188.0980  176.4600  144.4690 C   0  0  2  0  0  3  0  0  0  0  0  0
  195.7190  174.8910  145.7880 N   0  0  0  0  0  2  0  0  0  0  0  0
  188.6610  177.4280  146.8210 C   0  0  0  0  0  2  0  0  0  0  0  0
  186.1120  177.7780  145.5040 C   0  0  1  0  0  3  0  0  0  0  0  0
  192.1780  173.7780  140.5890 C   0  0  0  0  0  3  0  0  0  0  0  0
  191.7680  174.3340  141.8070 C   0  0  0  0  0  0  0  0  0  0  0  0
  194.0010  173.9490  142.7980 N   0  0  0  0  0  2  0  0  0  0  0  0
  190.3530  176.1080  145.5500 C   0  0  0  0  0  2  0  0  0  0  0  0
  193.0760  176.1430  146.1990 O   0  0  0  0  0  0  0  0  0  0  0  0
  197.0220  172.9170  143.0530 C   0  0  0  0  0  1  0  0  0  0  0  0
  192.2120  174.9440  144.2470 C   0  0  2  0  0  3  0  0  0  0  0  0
  194.9350  174.1540  143.8560 C   0  0  0  0  0  0  0  0  0  0  0  0
  184.6440  177.9660  145.1560 C   0  0  0  0  0  2  0  0  0  0  0  0
  184.4850  178.9340  144.0330 C   0  0  0  0  0  0  0  0  0  0  0  0
  185.1180  180.1690  144.0850 O   0  0  0  0  0  1  0  0  0  0  0  0
  183.8010  178.6220  143.0230 O   0  0  0  0  0  0  0  0  0  0  0  0
  1 16  2  0  0  0  0
  2 27  1  0  0  0  0
  2 24  1  1  0  0  0
  3 11  1  0  0  0  0
  4  3  2  0  0  0  0
  4 21  1  0  0  0  0
  5 25  2  0  0  0  0
  6  5  1  0  0  0  0
  6 18  1  0  0  0  0
  7 24  1  1  0  0  0
  7 19  1  0  0  0  0
  9 15  2  0  0  0  0
 10 17  1  0  0  0  0
 10 20  1  0  0  0  0
 11 13  2  0  0  0  0
 12  8  1  6  0  0  0
 12  2  1  0  0  0  0
 13 12  1  0  0  0  0
 14 22  1  6  0  0  0
 14 27  1  0  0  0  0
 15 18  1  0  0  0  0
 17  8  1  6  0  0  0
 17  7  1  0  0  0  0
 19 16  1  0  0  0  0
 20 29  1  6  0  0  0
 20  1  1  0  0  0  0
 21 22  2  0  0  0  0
 22 13  1  0  0  0  0
 23 14  1  0  0  0  0
 23 28  1  0  0  0  0
 26  9  1  0  0  0  0
 27  5  1  1  0  0  0
 28  9  1  0  0  0  0
 28  6  2  0  0  0  0
 30 31  1  0  0  0  0
 30 29  1  0  0  0  0
 32 30  2  0  0  0  0
M  END
>  <MODEL>
2

>  <REMARK>
 VINA RESULT:      -8.4      3.780      9.260
  Name = 
  2 active torsions:
  status: ('A' for Active; 'I' for Inactive)
    1  A    between atoms: C_20  and  C_29
    2  A    between atoms: C_29  and  C_30
                            x       y       z     vdW  Elec       q    Type
                         _______ _______ _______ _____ _____    ______ ____

>  <TORSDO>
F 2

$$$$
=
 OpenBabel11112416283D

 32 37  0  0  1  0  0  0  0  0999 V2000
  187.3250  176.4770  146.9070 C   0  0  0  0  0  3  0  0  0  0  0  0
  191.4330  175.9850  143.4440 C   0  0  1  0  0  3  0  0  0  0  0  0
  189.9050  172.9830  139.8330 C   0  0  0  0  0  3  0  0  0  0  0  0
  191.1800  172.9690  139.2690 C   0  0  0  0  0  3  0  0  0  0  0  0
  193.9840  176.1670  143.8800 C   0  0  0  0  0  0  0  0  0  0  0  0
  195.3210  175.8490  143.3770 C   0  0  0  0  0  0  0  0  0  0  0  0
  189.7420  177.0510  144.9540 C   0  0  1  0  0  3  0  0  0  0  0  0
  188.9960  175.6610  142.9740 C   0  0  0  0  0  2  0  0  0  0  0  0
  196.8480  174.8830  142.1750 C   0  0  0  0  0  0  0  0  0  0  0  0
  187.2410  176.7420  144.3740 C   0  0  0  0  0  2  0  0  0  0  0  0
  189.6810  173.6500  140.9970 N   0  0  0  0  0  0  0  0  0  0  0  0
  190.3650  174.9810  142.9730 C   0  0  1  0  0  3  0  0  0  0  0  0
  190.6700  174.3290  141.6450 C   0  0  0  0  0  0  0  0  0  0  0  0
  193.0870  175.0840  141.7850 C   0  0  2  0  0  3  0  0  0  0  0  0
  197.4540  175.6120  143.1420 N   0  0  0  0  0  0  0  0  0  0  0  0
  188.6190  176.6350  147.2100 C   0  0  0  0  0  3  0  0  0  0  0  0
  188.6430  176.1190  144.3860 C   0  0  2  0  0  3  0  0  0  0  0  0
  196.5180  176.2010  143.8830 N   0  0  0  0  0  2  0  0  0  0  0  0
  189.5020  177.5410  146.3920 C   0  0  0  0  0  2  0  0  0  0  0  0
  186.7070  177.2020  145.7390 C   0  0  1  0  0  3  0  0  0  0  0  0
  192.2170  173.6340  139.9200 C   0  0  0  0  0  3  0  0  0  0  0  0
  191.9840  174.2950  141.1320 C   0  0  0  0  0  0  0  0  0  0  0  0
  194.4120  174.4900  141.5570 N   0  0  0  0  0  2  0  0  0  0  0  0
  191.1050  176.3640  144.8880 C   0  0  0  0  0  2  0  0  0  0  0  0
  193.8320  176.9990  144.8130 O   0  0  0  0  0  0  0  0  0  0  0  0
  197.5620  174.0810  141.1460 C   0  0  0  0  0  1  0  0  0  0  0  0
  192.8270  175.3630  143.2930 C   0  0  2  0  0  3  0  0  0  0  0  0
  195.4950  175.0310  142.3110 C   0  0  0  0  0  0  0  0  0  0  0  0
  185.1930  177.0600  145.7580 C   0  0  0  0  0  2  0  0  0  0  0  0
  184.5510  178.3020  146.2760 C   0  0  0  0  0  0  0  0  0  0  0  0
  184.7080  178.6630  147.6070 O   0  0  0  0  0  1  0  0  0  0  0  0
  183.8900  179.0410  145.4990 O   0  0  0  0  0  0  0  0  0  0  0  0
  1 16  2  0  0  0  0
  2 24  1  1  0  0  0
  3 11  1  0  0  0  0
  4  3  2  0  0  0  0
  4 21  1  0  0  0  0
  5 25  2  0  0  0  0
  6  5  1  0  0  0  0
  6 18  1  0  0  0  0
  7 24  1  1  0  0  0
  7 19  1  0  0  0  0
  9 28  1  0  0  0  0
  9 15  2  0  0  0  0
 10 17  1  0  0  0  0
 10 20  1  0  0  0  0
 11 13  2  0  0  0  0
 12  8  1  6  0  0  0
 12  2  1  0  0  0  0
 13 12  1  0  0  0  0
 14 22  1  1  0  0  0
 14 27  1  0  0  0  0
 15 18  1  0  0  0  0
 17  8  1  6  0  0  0
 17  7  1  0  0  0  0
 19 16  1  0  0  0  0
 20 29  1  6  0  0  0
 20  1  1  0  0  0  0
 21 22  2  0  0  0  0
 22 13  1  0  0  0  0
 23 14  1  0  0  0  0
 23 28  1  0  0  0  0
 26  9  1  0  0  0  0
 27  2  1  0  0  0  0
 27  5  1  6  0  0  0
 28  6  2  0  0  0  0
 29 30  1  0  0  0  0
 30 31  1  0  0  0  0
 32 30  2  0  0  0  0
M  END
>  <MODEL>
3

>  <REMARK>
 VINA RESULT:      -8.3      4.370      9.251
  Name = 
  2 active torsions:
  status: ('A' for Active; 'I' for Inactive)
    1  A    between atoms: C_20  and  C_29
    2  A    between atoms: C_29  and  C_30
                            x       y       z     vdW  Elec       q    Type
                         _______ _______ _______ _____ _____    ______ ____

>  <TORSDO>
F 2

$$$$
=
 OpenBabel11112416283D

 32 37  0  0  1  0  0  0  0  0999 V2000
  186.1920  179.0440  143.2500 C   0  0  0  0  0  3  0  0  0  0  0  0
  189.0730  174.5000  142.8470 C   0  0  1  0  0  3  0  0  0  0  0  0
  192.7510  174.8440  146.1240 C   0  0  0  0  0  3  0  0  0  0  0  0
  193.3200  173.6640  145.6490 C   0  0  0  0  0  3  0  0  0  0  0  0
  189.4050  172.9380  140.8010 C   0  0  0  0  0  0  0  0  0  0  0  0
  190.2320  171.8890  140.2040 C   0  0  0  0  0  0  0  0  0  0  0  0
  187.0940  176.0220  143.0550 C   0  0  1  0  0  3  0  0  0  0  0  0
  188.9100  176.0300  144.8200 C   0  0  0  0  0  2  0  0  0  0  0  0
  191.9580  170.6090  139.8990 C   0  0  0  0  0  0  0  0  0  0  0  0
  186.9440  177.5250  145.1540 C   0  0  0  0  0  2  0  0  0  0  0  0
  191.6430  175.3570  145.5240 N   0  0  0  0  0  0  0  0  0  0  0  0
  189.8640  175.4150  143.7980 C   0  0  1  0  0  3  0  0  0  0  0  0
  191.0460  174.7460  144.4610 C   0  0  0  0  0  0  0  0  0  0  0  0
  190.9560  172.8420  142.7890 C   0  0  2  0  0  3  0  0  0  0  0  0
  191.0910  170.4180  138.8780 N   0  0  0  0  0  0  0  0  0  0  0  0
  186.2710  178.2680  142.1630 C   0  0  0  0  0  3  0  0  0  0  0  0
  187.8530  176.8690  144.1060 C   0  0  2  0  0  3  0  0  0  0  0  0
  190.0340  171.2060  139.0610 N   0  0  0  0  0  0  0  0  0  0  0  0
  186.0280  176.7840  142.2500 C   0  0  0  0  0  2  0  0  0  0  0  0
  185.8580  178.4590  144.5990 C   0  0  1  0  0  3  0  0  0  0  0  0
  192.7460  173.0280  144.5490 C   0  0  0  0  0  3  0  0  0  0  0  0
  191.6220  173.5770  143.9210 C   0  0  0  0  0  0  0  0  0  0  0  0
  191.9150  172.0860  141.9700 N   0  0  0  0  0  0  0  0  0  0  0  0
  188.0800  175.3760  142.0830 C   0  0  0  0  0  2  0  0  0  0  0  0
  188.2620  173.1930  140.3380 O   0  0  0  0  0  0  0  0  0  0  0  0
  193.2590  169.9040  140.0490 C   0  0  0  0  0  1  0  0  0  0  0  0
  190.0440  173.7550  141.9220 C   0  0  2  0  0  3  0  0  0  0  0  0
  191.4220  171.5360  140.7500 C   0  0  0  0  0  0  0  0  0  0  0  0
  185.5800  179.5610  145.6090 C   0  0  0  0  0  2  0  0  0  0  0  0
  185.3620  178.9910  146.9690 C   0  0  0  0  0  0  0  0  0  0  0  0
  186.2740  179.2470  147.9840 O   0  0  0  0  0  1  0  0  0  0  0  0
  184.3350  178.3020  147.2070 O   0  0  0  0  0  0  0  0  0  0  0  0
  1 20  1  0  0  0  0
  2 24  1  6  0  0  0
  2 12  1  0  0  0  0
  4  3  1  0  0  0  0
  6 28  1  0  0  0  0
  6  5  1  0  0  0  0
  7 24  1  6  0  0  0
  7 17  1  0  0  0  0
  9 26  1  0  0  0  0
  9 28  1  0  0  0  0
 11  3  2  0  0  0  0
 12 13  1  0  0  0  0
 12  8  1  1  0  0  0
 13 11  1  0  0  0  0
 14 23  1  6  0  0  0
 14 22  1  0  0  0  0
 15 18  1  0  0  0  0
 15  9  2  0  0  0  0
 16 19  1  0  0  0  0
 16  1  2  0  0  0  0
 17  8  1  1  0  0  0
 17 10  1  0  0  0  0
 18  6  2  0  0  0  0
 19  7  1  0  0  0  0
 20 10  1  0  0  0  0
 20 29  1  1  0  0  0
 21  4  2  0  0  0  0
 22 13  2  0  0  0  0
 22 21  1  0  0  0  0
 25  5  2  0  0  0  0
 27  5  1  6  0  0  0
 27 14  1  0  0  0  0
 27  2  1  0  0  0  0
 28 23  2  0  0  0  0
 29 30  1  0  0  0  0
 30 32  2  0  0  0  0
 30 31  1  0  0  0  0
M  END
>  <MODEL>
4

>  <REMARK>
 VINA RESULT:      -8.3      4.202      7.997
  Name = 
  2 active torsions:
  status: ('A' for Active; 'I' for Inactive)
    1  A    between atoms: C_20  and  C_29
    2  A    between atoms: C_29  and  C_30
                            x       y       z     vdW  Elec       q    Type
                         _______ _______ _______ _____ _____    ______ ____

>  <TORSDO>
F 2

$$$$
=
 OpenBabel11112416283D

 32 37  0  0  1  0  0  0  0  0999 V2000
  186.4470  178.6280  142.9390 C   0  0  0  0  0  3  0  0  0  0  0  0
  190.2990  174.8730  143.3520 C   0  0  1  0  0  3  0  0  0  0  0  0
  193.6380  176.5970  146.5560 C   0  0  0  0  0  3  0  0  0  0  0  0
  194.4820  175.5190  146.2970 C   0  0  0  0  0  3  0  0  0  0  0  0
  191.0760  173.1140  141.6100 C   0  0  0  0  0  0  0  0  0  0  0  0
  192.1480  172.2020  141.2100 C   0  0  0  0  0  0  0  0  0  0  0  0
  188.0190  175.9080  143.2770 C   0  0  1  0  0  3  0  0  0  0  0  0
  189.6970  176.6280  145.0310 C   0  0  0  0  0  2  0  0  0  0  0  0
  194.1320  171.3240  141.1470 C   0  0  0  0  0  0  0  0  0  0  0  0
  187.4290  177.6620  145.0830 C   0  0  0  0  0  2  0  0  0  0  0  0
  192.4740  176.7330  145.8660 N   0  0  0  0  0  0  0  0  0  0  0  0
  190.8150  176.0910  144.1390 C   0  0  1  0  0  3  0  0  0  0  0  0
  192.0830  175.8330  144.9190 C   0  0  0  0  0  0  0  0  0  0  0  0
  192.5090  173.7100  143.5990 C   0  0  2  0  0  3  0  0  0  0  0  0
  193.3820  170.7710  140.1650 N   0  0  0  0  0  0  0  0  0  0  0  0
  186.7530  177.7230  142.0020 C   0  0  0  0  0  3  0  0  0  0  0  0
  188.5140  177.0700  144.1730 C   0  0  2  0  0  3  0  0  0  0  0  0
  192.1660  171.3120  140.2000 N   0  0  0  0  0  0  0  0  0  0  0  0
  186.8490  176.2590  142.3410 C   0  0  0  0  0  2  0  0  0  0  0  0
  186.1880  178.2130  144.3650 C   0  0  1  0  0  3  0  0  0  0  0  0
  194.1220  174.5950  145.3180 C   0  0  0  0  0  3  0  0  0  0  0  0
  192.9350  174.7570  144.5940 C   0  0  0  0  0  0  0  0  0  0  0  0
  193.6540  173.0720  142.9320 N   0  0  0  0  0  0  0  0  0  0  0  0
  189.1720  175.3570  142.4390 C   0  0  0  0  0  2  0  0  0  0  0  0
  189.9300  173.0180  141.0990 O   0  0  0  0  0  0  0  0  0  0  0  0
  195.5500  170.9740  141.4280 C   0  0  0  0  0  1  0  0  0  0  0  0
  191.4580  174.2310  142.5790 C   0  0  2  0  0  3  0  0  0  0  0  0
  193.3580  172.2290  141.8200 C   0  0  0  0  0  0  0  0  0  0  0  0
  185.6190  179.3720  145.1680 C   0  0  0  0  0  2  0  0  0  0  0  0
  185.2010  178.9220  146.5270 C   0  0  0  0  0  0  0  0  0  0  0  0
  185.8620  179.4010  147.6500 O   0  0  0  0  0  1  0  0  0  0  0  0
  184.2320  178.1310  146.6590 O   0  0  0  0  0  0  0  0  0  0  0  0
  1 20  1  0  0  0  0
  2 24  1  6  0  0  0
  2 12  1  0  0  0  0
  4  3  1  0  0  0  0
  6  5  1  0  0  0  0
  6 28  1  0  0  0  0
  7 19  1  6  0  0  0
  7 17  1  0  0  0  0
  9 26  1  0  0  0  0
  9 28  1  0  0  0  0
 11  3  2  0  0  0  0
 12 13  1  0  0  0  0
 12  8  1  1  0  0  0
 13 11  1  0  0  0  0
 14 23  1  6  0  0  0
 14 22  1  0  0  0  0
 15 18  1  0  0  0  0
 15  9  2  0  0  0  0
 16 19  1  0  0  0  0
 16  1  2  0  0  0  0
 17  8  1  1  0  0  0
 17 10  1  0  0  0  0
 18  6  2  0  0  0  0
 20 10  1  0  0  0  0
 20 29  1  1  0  0  0
 21  4  2  0  0  0  0
 22 13  2  0  0  0  0
 22 21  1  0  0  0  0
 24  7  1  0  0  0  0
 25  5  2  0  0  0  0
 27  5  1  1  0  0  0
 27  2  1  0  0  0  0
 27 14  1  0  0  0  0
 28 23  2  0  0  0  0
 29 30  1  0  0  0  0
 30 32  2  0  0  0  0
 30 31  1  0  0  0  0
M  END
>  <MODEL>
5

>  <REMARK>
 VINA RESULT:      -8.2      4.196      8.405
  Name = 
  2 active torsions:
  status: ('A' for Active; 'I' for Inactive)
    1  A    between atoms: C_20  and  C_29
    2  A    between atoms: C_29  and  C_30
                            x       y       z     vdW  Elec       q    Type
                         _______ _______ _______ _____ _____    ______ ____

>  <TORSDO>
F 2

$$$$
=
 OpenBabel11112416283D

 32 37  0  0  1  0  0  0  0  0999 V2000
  194.9410  176.0250  146.1110 C   0  0  0  0  0  3  0  0  0  0  0  0
  189.8330  175.7900  144.3930 C   0  0  1  0  0  3  0  0  0  0  0  0
  189.9300  173.7460  139.8990 C   0  0  0  0  0  3  0  0  0  0  0  0
  188.5660  173.9840  139.7320 C   0  0  0  0  0  3  0  0  0  0  0  0
  187.8210  177.3160  144.9950 C   0  0  0  0  0  0  0  0  0  0  0  0
  186.4870  177.7680  144.5990 C   0  0  0  0  0  0  0  0  0  0  0  0
  191.8250  175.5540  145.8940 C   0  0  1  0  0  3  0  0  0  0  0  0
  191.7530  174.3630  143.6610 C   0  0  0  0  0  2  0  0  0  0  0  0
  184.7670  178.1000  143.3180 C   0  0  0  0  0  0  0  0  0  0  0  0
  193.7440  174.0070  145.1160 C   0  0  0  0  0  2  0  0  0  0  0  0
  190.5660  174.1800  141.0190 N   0  0  0  0  0  0  0  0  0  0  0  0
  190.6980  175.3640  143.1940 C   0  0  1  0  0  3  0  0  0  0  0  0
  189.9100  174.8440  142.0140 C   0  0  0  0  0  0  0  0  0  0  0  0
  187.7710  175.8230  142.9610 C   0  0  2  0  0  3  0  0  0  0  0  0
  184.5850  178.7820  144.4740 N   0  0  0  0  0  0  0  0  0  0  0  0
  193.9490  176.8280  146.5130 C   0  0  0  0  0  3  0  0  0  0  0  0
  192.6570  175.0090  144.7070 C   0  0  2  0  0  3  0  0  0  0  0  0
  185.6430  178.5820  145.2590 N   0  0  0  0  0  2  0  0  0  0  0  0
  192.6380  176.2620  146.9910 C   0  0  0  0  0  2  0  0  0  0  0  0
  194.7810  174.5260  146.1250 C   0  0  1  0  0  3  0  0  0  0  0  0
  187.8730  174.6800  140.7200 C   0  0  0  0  0  3  0  0  0  0  0  0
  188.5410  175.1480  141.8580 C   0  0  0  0  0  0  0  0  0  0  0  0
  186.6280  176.5970  142.4550 N   0  0  0  0  0  2  0  0  0  0  0  0
  190.7430  176.5090  145.3880 C   0  0  0  0  0  2  0  0  0  0  0  0
  188.2560  177.5410  146.1550 O   0  0  0  0  0  0  0  0  0  0  0  0
  183.7990  178.0750  142.1890 C   0  0  0  0  0  1  0  0  0  0  0  0
  188.6730  176.6680  143.9050 C   0  0  2  0  0  3  0  0  0  0  0  0
  185.9680  177.4490  143.3880 C   0  0  0  0  0  0  0  0  0  0  0  0
  196.1140  173.8400  145.8720 C   0  0  0  0  0  2  0  0  0  0  0  0
  196.4840  173.9150  144.4300 C   0  0  0  0  0  0  0  0  0  0  0  0
  196.9400  175.1110  143.8910 O   0  0  0  0  0  1  0  0  0  0  0  0
  196.4110  172.8870  143.7060 O   0  0  0  0  0  0  0  0  0  0  0  0
  1 20  1  0  0  0  0
  1 16  2  0  0  0  0
  2 24  1  1  0  0  0
  3 11  1  0  0  0  0
  4  3  2  0  0  0  0
  4 21  1  0  0  0  0
  5 25  2  0  0  0  0
  6  5  1  0  0  0  0
  6 18  1  0  0  0  0
  7 24  1  6  0  0  0
  7 19  1  0  0  0  0
  9 28  1  0  0  0  0
  9 15  2  0  0  0  0
 10 20  1  0  0  0  0
 11 13  2  0  0  0  0
 12  8  1  1  0  0  0
 12  2  1  0  0  0  0
 13 12  1  0  0  0  0
 14 22  1  6  0  0  0
 14 27  1  0  0  0  0
 15 18  1  0  0  0  0
 16 19  1  0  0  0  0
 17  8  1  6  0  0  0
 17 10  1  0  0  0  0
 17  7  1  0  0  0  0
 20 29  1  6  0  0  0
 21 22  2  0  0  0  0
 22 13  1  0  0  0  0
 23 14  1  0  0  0  0
 23 28  1  0  0  0  0
 26  9  1  0  0  0  0
 27  2  1  0  0  0  0
 27  5  1  1  0  0  0
 28  6  2  0  0  0  0
 30 29  1  0  0  0  0
 31 30  1  0  0  0  0
 32 30  2  0  0  0  0
M  END
>  <MODEL>
6

>  <REMARK>
 VINA RESULT:      -8.2      2.373      4.635
  Name = 
  2 active torsions:
  status: ('A' for Active; 'I' for Inactive)
    1  A    between atoms: C_20  and  C_29
    2  A    between atoms: C_29  and  C_30
                            x       y       z     vdW  Elec       q    Type
                         _______ _______ _______ _____ _____    ______ ____

>  <TORSDO>
F 2

$$$$
=
 OpenBabel11112416283D

 32 37  0  0  1  0  0  0  0  0999 V2000
  187.0890  177.1520  146.2820 C   0  0  0  0  0  3  0  0  0  0  0  0
  191.5470  174.6720  144.5280 C   0  0  1  0  0  3  0  0  0  0  0  0
  190.0660  170.8090  141.8310 C   0  0  0  0  0  3  0  0  0  0  0  0
  191.3800  170.3630  141.7010 C   0  0  0  0  0  3  0  0  0  0  0  0
  193.9080  174.5760  145.6010 C   0  0  0  0  0  0  0  0  0  0  0  0
  195.1880  173.8680  145.6430 C   0  0  0  0  0  0  0  0  0  0  0  0
  189.9230  176.5080  145.0410 C   0  0  1  0  0  3  0  0  0  0  0  0
  189.2650  174.6070  143.5040 C   0  0  0  0  0  2  0  0  0  0  0  0
  196.6210  172.2690  145.3250 C   0  0  0  0  0  0  0  0  0  0  0  0
  187.6070  176.4250  143.8950 C   0  0  0  0  0  2  0  0  0  0  0  0
  189.7900  171.9020  142.5920 N   0  0  0  0  0  0  0  0  0  0  0  0
  190.3750  173.7600  144.1260 C   0  0  1  0  0  3  0  0  0  0  0  0
  190.7660  172.6020  143.2370 C   0  0  0  0  0  0  0  0  0  0  0  0
  193.2120  172.9340  143.8160 C   0  0  2  0  0  3  0  0  0  0  0  0
  197.1840  173.2020  146.1290 N   0  0  0  0  0  0  0  0  0  0  0  0
  188.2870  177.1950  146.8780 C   0  0  0  0  0  3  0  0  0  0  0  0
  188.7600  175.6290  144.5190 C   0  0  2  0  0  3  0  0  0  0  0  0
  196.3030  174.1810  146.3290 N   0  0  0  0  0  2  0  0  0  0  0  0
  189.5270  177.5500  146.1010 C   0  0  0  0  0  2  0  0  0  0  0  0
  186.9410  177.4610  144.8140 C   0  0  1  0  0  3  0  0  0  0  0  0
  192.3970  171.0430  142.3670 C   0  0  0  0  0  3  0  0  0  0  0  0
  192.1010  172.1520  143.1690 C   0  0  0  0  0  0  0  0  0  0  0  0
  194.3520  172.0840  144.1920 N   0  0  0  0  0  2  0  0  0  0  0  0
  191.0390  175.6300  145.6050 C   0  0  0  0  0  2  0  0  0  0  0  0
  193.7910  175.7170  146.1200 O   0  0  0  0  0  0  0  0  0  0  0  0
  197.2960  171.0230  144.8740 C   0  0  0  0  0  1  0  0  0  0  0  0
  192.7280  173.8140  145.0030 C   0  0  2  0  0  3  0  0  0  0  0  0
  195.3570  172.6840  145.0060 C   0  0  0  0  0  0  0  0  0  0  0  0
  185.4740  177.5950  144.4380 C   0  0  0  0  0  2  0  0  0  0  0  0
  184.9500  178.9390  144.8180 C   0  0  0  0  0  0  0  0  0  0  0  0
  185.5530  180.0860  144.3200 O   0  0  0  0  0  0  0  0  0  0  0  0
  183.9420  179.0340  145.5660 O   0  0  0  0  0  1  0  0  0  0  0  0
  1 16  2  0  0  0  0
  2 27  1  0  0  0  0
  2 24  1  1  0  0  0
  3 11  1  0  0  0  0
  4  3  2  0  0  0  0
  4 21  1  0  0  0  0
  5  6  1  0  0  0  0
  5 25  2  0  0  0  0
  6 18  1  0  0  0  0
  7 24  1  1  0  0  0
  7 19  1  0  0  0  0
  9 15  2  0  0  0  0
 10 17  1  0  0  0  0
 10 20  1  0  0  0  0
 11 13  2  0  0  0  0
 12  8  1  6  0  0  0
 12  2  1  0  0  0  0
 13 12  1  0  0  0  0
 14 22  1  1  0  0  0
 14 23  1  0  0  0  0
 14 27  1  0  0  0  0
 15 18  1  0  0  0  0
 17  8  1  6  0  0  0
 17  7  1  0  0  0  0
 19 16  1  0  0  0  0
 20 29  1  6  0  0  0
 20  1  1  0  0  0  0
 21 22  2  0  0  0  0
 22 13  1  0  0  0  0
 23 28  1  0  0  0  0
 26  9  1  0  0  0  0
 27  5  1  6  0  0  0
 28  9  1  0  0  0  0
 28  6  2  0  0  0  0
 29 30  1  0  0  0  0
 30 32  1  0  0  0  0
 31 30  2  0  0  0  0
M  END
>  <MODEL>
7

>  <REMARK>
 VINA RESULT:      -8.0      4.271      9.714
  Name = 
  2 active torsions:
  status: ('A' for Active; 'I' for Inactive)
    1  A    between atoms: C_20  and  C_29
    2  A    between atoms: C_29  and  C_30
                            x       y       z     vdW  Elec       q    Type
                         _______ _______ _______ _____ _____    ______ ____

>  <TORSDO>
F 2

$$$$
=
 OpenBabel11112416283D

 32 37  0  0  1  0  0  0  0  0999 V2000
  186.0070  178.2840  141.5000 C   0  0  0  0  0  3  0  0  0  0  0  0
  190.1580  175.7020  143.7820 C   0  0  1  0  0  3  0  0  0  0  0  0
  190.6610  177.5490  148.3340 C   0  0  0  0  0  3  0  0  0  0  0  0
  191.8300  176.8160  148.5300 C   0  0  0  0  0  3  0  0  0  0  0  0
  192.2390  174.6230  142.6670 C   0  0  0  0  0  0  0  0  0  0  0  0
  193.6040  174.1370  142.8730 C   0  0  0  0  0  0  0  0  0  0  0  0
  188.0200  176.0780  142.5310 C   0  0  1  0  0  3  0  0  0  0  0  0
  188.2510  176.8380  144.9350 C   0  0  0  0  0  2  0  0  0  0  0  0
  195.5200  173.8590  143.8530 C   0  0  0  0  0  0  0  0  0  0  0  0
  186.0600  177.1890  143.8000 C   0  0  0  0  0  2  0  0  0  0  0  0
  190.0250  177.5080  147.1320 N   0  0  0  0  0  0  0  0  0  0  0  0
  189.7690  176.8210  144.7640 C   0  0  1  0  0  3  0  0  0  0  0  0
  190.4860  176.7560  146.0930 C   0  0  0  0  0  0  0  0  0  0  0  0
  192.1990  175.1510  145.1340 C   0  0  2  0  0  3  0  0  0  0  0  0
  195.5930  173.3430  142.6030 N   0  0  0  0  0  0  0  0  0  0  0  0
  187.0220  177.7110  140.8410 C   0  0  0  0  0  3  0  0  0  0  0  0
  187.5790  177.1150  143.5930 C   0  0  2  0  0  3  0  0  0  0  0  0
  194.4190  173.5180  141.9990 N   0  0  0  0  0  0  0  0  0  0  0  0
  187.4280  176.2900  141.1280 C   0  0  0  0  0  2  0  0  0  0  0  0
  185.2350  177.5250  142.5490 C   0  0  1  0  0  3  0  0  0  0  0  0
  192.3400  176.0560  147.4790 C   0  0  0  0  0  3  0  0  0  0  0  0
  191.6940  176.0410  146.2380 C   0  0  0  0  0  0  0  0  0  0  0  0
  193.6620  174.9990  145.1630 N   0  0  0  0  0  0  0  0  0  0  0  0
  189.5440  176.0450  142.4240 C   0  0  0  0  0  2  0  0  0  0  0  0
  191.6060  174.3310  141.6180 O   0  0  0  0  0  0  0  0  0  0  0  0
  196.6340  173.8520  144.8370 C   0  0  0  0  0  1  0  0  0  0  0  0
  191.6860  175.5720  143.7280 C   0  0  2  0  0  3  0  0  0  0  0  0
  194.2610  174.3600  144.0370 C   0  0  0  0  0  0  0  0  0  0  0  0
  183.9900  178.2930  142.9610 C   0  0  0  0  0  2  0  0  0  0  0  0
  184.2460  179.1020  144.1860 C   0  0  0  0  0  0  0  0  0  0  0  0
  185.0670  180.2200  144.1210 O   0  0  0  0  0  0  0  0  0  0  0  0
  183.6960  178.7910  145.2750 O   0  0  0  0  0  1  0  0  0  0  0  0
  1 20  1  0  0  0  0
  2 24  1  6  0  0  0
  2 12  1  0  0  0  0
  3  4  1  0  0  0  0
  5  6  1  0  0  0  0
  6 28  1  0  0  0  0
  7 19  1  6  0  0  0
  7 17  1  0  0  0  0
  9 28  1  0  0  0  0
  9 26  1  0  0  0  0
 11  3  2  0  0  0  0
 12  8  1  1  0  0  0
 12 13  1  0  0  0  0
 13 22  2  0  0  0  0
 13 11  1  0  0  0  0
 14 23  1  6  0  0  0
 14 22  1  0  0  0  0
 15  9  2  0  0  0  0
 16 19  1  0  0  0  0
 16  1  2  0  0  0  0
 17 10  1  1  0  0  0
 17  8  1  0  0  0  0
 18 15  1  0  0  0  0
 18  6  2  0  0  0  0
 20 29  1  1  0  0  0
 20 10  1  0  0  0  0
 21  4  2  0  0  0  0
 22 21  1  0  0  0  0
 24  7  1  0  0  0  0
 25  5  2  0  0  0  0
 27  5  1  6  0  0  0
 27  2  1  0  0  0  0
 27 14  1  0  0  0  0
 28 23  2  0  0  0  0
 29 30  1  0  0  0  0
 30 32  1  0  0  0  0
 31 30  2  0  0  0  0
M  END
>  <MODEL>
8

>  <REMARK>
 VINA RESULT:      -8.0      3.631      8.354
  Name = 
  2 active torsions:
  status: ('A' for Active; 'I' for Inactive)
    1  A    between atoms: C_20  and  C_29
    2  A    between atoms: C_29  and  C_30
                            x       y       z     vdW  Elec       q    Type
                         _______ _______ _______ _____ _____    ______ ____

>  <TORSDO>
F 2

$$$$
=
 OpenBabel11112416283D

 32 37  0  0  1  0  0  0  0  0999 V2000
  189.6910  171.7410  139.1760 C   0  0  0  0  0  3  0  0  0  0  0  0
  188.8060  175.6770  142.7580 C   0  0  1  0  0  3  0  0  0  0  0  0
  192.1760  175.1440  146.3280 C   0  0  0  0  0  3  0  0  0  0  0  0
  191.5750  176.1510  147.0820 C   0  0  0  0  0  3  0  0  0  0  0  0
  186.5950  176.9050  143.3420 C   0  0  0  0  0  0  0  0  0  0  0  0
  185.8940  177.7250  144.3300 C   0  0  0  0  0  0  0  0  0  0  0  0
  189.1540  174.5310  140.5580 C   0  0  1  0  0  3  0  0  0  0  0  0
  190.9440  174.4450  142.3460 C   0  0  0  0  0  2  0  0  0  0  0  0
  185.4740  178.6630  146.2420 C   0  0  0  0  0  0  0  0  0  0  0  0
  191.4140  173.3380  140.1630 C   0  0  0  0  0  2  0  0  0  0  0  0
  191.6190  174.7480  145.1520 N   0  0  0  0  0  0  0  0  0  0  0  0
  189.8760  174.7690  143.3890 C   0  0  1  0  0  3  0  0  0  0  0  0
  190.4780  175.3130  144.6640 C   0  0  0  0  0  0  0  0  0  0  0  0
  188.5890  176.9900  144.8860 C   0  0  2  0  0  3  0  0  0  0  0  0
  184.4190  178.8660  145.4180 N   0  0  0  0  0  0  0  0  0  0  0  0
  188.5200  172.3560  139.3810 C   0  0  0  0  0  3  0  0  0  0  0  0
  190.3150  173.7070  141.1680 C   0  0  2  0  0  3  0  0  0  0  0  0
  184.6730  178.2870  144.2460 N   0  0  0  0  0  0  0  0  0  0  0  0
  188.4240  173.8590  139.3830 C   0  0  0  0  0  2  0  0  0  0  0  0
  190.9530  172.5320  138.9400 C   0  0  1  0  0  3  0  0  0  0  0  0
  190.3960  176.7320  146.6210 C   0  0  0  0  0  3  0  0  0  0  0  0
  189.8140  176.3000  145.4230 C   0  0  0  0  0  0  0  0  0  0  0  0
  187.7050  177.4760  145.9560 N   0  0  0  0  0  0  0  0  0  0  0  0
  188.1320  174.8860  141.6370 C   0  0  0  0  0  2  0  0  0  0  0  0
  186.1430  176.7830  142.1730 O   0  0  0  0  0  0  0  0  0  0  0  0
  185.5650  179.1620  147.6400 C   0  0  0  0  0  1  0  0  0  0  0  0
  187.8180  176.1380  143.8390 C   0  0  2  0  0  3  0  0  0  0  0  0
  186.4180  177.9450  145.5600 C   0  0  0  0  0  0  0  0  0  0  0  0
  192.0810  171.6210  138.4850 C   0  0  0  0  0  2  0  0  0  0  0  0
  191.8170  171.0900  137.1170 C   0  0  0  0  0  0  0  0  0  0  0  0
  191.4880  171.9600  136.0860 O   0  0  0  0  0  0  0  0  0  0  0  0
  191.9210  169.8570  136.8880 O   0  0  0  0  0  1  0  0  0  0  0  0
  1 16  2  0  0  0  0
  2 24  1  6  0  0  0
  2 12  1  0  0  0  0
  2 27  1  0  0  0  0
  3  4  1  0  0  0  0
  5  6  1  0  0  0  0
  6 28  1  0  0  0  0
  7 19  1  6  0  0  0
  7 17  1  0  0  0  0
  7 24  1  0  0  0  0
  9 26  1  0  0  0  0
 11  3  2  0  0  0  0
 12  8  1  6  0  0  0
 12 13  1  0  0  0  0
 13 11  1  0  0  0  0
 13 22  2  0  0  0  0
 14 22  1  1  0  0  0
 14 23  1  0  0  0  0
 15  9  2  0  0  0  0
 16 19  1  0  0  0  0
 17 10  1  6  0  0  0
 17  8  1  0  0  0  0
 18  6  2  0  0  0  0
 18 15  1  0  0  0  0
 20 29  1  1  0  0  0
 20  1  1  0  0  0  0
 20 10  1  0  0  0  0
 21  4  2  0  0  0  0
 22 21  1  0  0  0  0
 25  5  2  0  0  0  0
 27  5  1  6  0  0  0
 27 14  1  0  0  0  0
 28 23  2  0  0  0  0
 28  9  1  0  0  0  0
 30 29  1  0  0  0  0
 31 30  2  0  0  0  0
 32 30  1  0  0  0  0
M  END
>  <MODEL>
9

>  <REMARK>
 VINA RESULT:      -7.9      3.737      5.844
  Name = 
  2 active torsions:
  status: ('A' for Active; 'I' for Inactive)
    1  A    between atoms: C_20  and  C_29
    2  A    between atoms: C_29  and  C_30
                            x       y       z     vdW  Elec       q    Type
                         _______ _______ _______ _____ _____    ______ ____

>  <TORSDO>
F 2

$$$$
