=
 OpenBabel11112417303D

 37 43  0  0  1  0  0  0  0  0999 V2000
  188.6900  173.6250  141.4040 C   0  0  2  0  0  3  0  0  0  0  0  0
  186.9920  177.3350  143.5850 C   0  0  0  0  0  0  0  0  0  0  0  0
  190.2410  175.6890  145.5160 C   0  0  0  0  0  0  0  0  0  0  0  0
  192.7620  174.0140  143.2260 O   0  0  0  0  0  0  0  0  0  0  0  0
  188.2560  177.0160  145.7460 C   0  0  0  0  0  0  0  0  0  0  0  0
  190.8450  174.7240  144.5250 C   0  0  2  0  0  3  0  0  0  0  0  0
  190.7600  173.0410  140.2460 N   0  0  0  0  0  0  0  0  0  0  0  0
  188.9920  176.0340  145.1090 C   0  0  0  0  0  0  0  0  0  0  0  0
  192.2880  175.0580  144.0430 C   0  0  1  0  0  3  0  0  0  0  0  0
  188.7560  177.5790  146.8820 N   0  0  0  0  0  0  0  0  0  0  0  0
  189.6740  174.0120  140.3020 C   0  0  0  0  0  2  0  0  0  0  0  0
  188.6490  175.4950  143.8630 N   0  0  0  0  0  0  0  0  0  0  0  0
  187.9020  178.4010  142.9950 C   0  0  0  0  0  1  0  0  0  0  0  0
  192.1660  176.0040  147.0930 C   0  0  0  0  0  2  0  0  0  0  0  0
  189.9910  177.2230  147.3580 C   0  0  0  0  0  3  0  0  0  0  0  0
  187.4660  175.9390  143.1240 C   0  0  0  0  0  2  0  0  0  0  0  0
  191.4440  172.9710  141.5500 C   0  0  1  0  0  3  0  0  0  0  0  0
  192.2620  174.2140  141.9360 C   0  0  0  0  0  2  0  0  0  0  0  0
  190.7700  176.2680  146.6760 C   0  0  0  0  0  0  0  0  0  0  0  0
  189.8280  174.8110  143.3360 C   0  0  2  0  0  3  0  0  0  0  0  0
  186.9630  177.4620  145.1270 C   0  0  0  0  0  2  0  0  0  0  0  0
  193.2940  175.2020  145.2100 C   0  0  2  0  0  3  0  0  0  0  0  0
  185.5920  177.5640  143.0580 C   0  0  0  0  0  1  0  0  0  0  0  0
  190.5630  172.5630  142.5880 O   0  0  0  0  0  0  0  0  0  0  0  0
  191.6890  173.4550  139.2050 C   0  0  0  0  0  1  0  0  0  0  0  0
  189.4570  173.4480  142.7220 C   0  0  2  0  0  3  0  0  0  0  0  0
  193.0480  176.3940  146.0090 N   0  0  0  0  0  2  0  0  0  0  0  0
  195.6520  174.2920  145.2130 C   0  0  0  0  0  3  0  0  0  0  0  0
  194.7160  175.2210  144.7320 C   0  0  0  0  0  0  0  0  0  0  0  0
  195.1120  176.1830  143.7970 C   0  0  0  0  0  3  0  0  0  0  0  0
  196.8140  177.1530  142.4390 F   0  0  0  0  0  0  0  0  0  0  0  0
  197.3650  175.2940  143.8250 C   0  0  0  0  0  3  0  0  0  0  0  0
  196.4340  176.2200  143.3440 C   0  0  0  0  0  0  0  0  0  0  0  0
  196.9740  174.3310  144.7590 C   0  0  0  0  0  3  0  0  0  0  0  0
  187.9230  172.3570  141.0430 C   0  0  0  0  0  3  0  0  0  0  0  0
  186.7730  172.2680  141.8050 F   0  0  0  0  0  0  0  0  0  0  0  0
  187.5750  172.3800  139.7050 F   0  0  0  0  0  0  0  0  0  0  0  0
  1 35  1  6  0  0  0
  1 26  1  0  0  0  0
  2 21  1  0  0  0  0
  3 19  1  0  0  0  0
  5 10  2  0  0  0  0
  6  3  1  1  0  0  0
  7 11  1  0  0  0  0
  7 17  1  0  0  0  0
  8  3  2  0  0  0  0
  8  5  1  0  0  0  0
  9  4  1  6  0  0  0
  9  6  1  0  0  0  0
  9 22  1  0  0  0  0
 10 15  1  0  0  0  0
 11  1  1  0  0  0  0
 12  8  1  0  0  0  0
 13  2  1  0  0  0  0
 16  2  1  0  0  0  0
 16 12  1  0  0  0  0
 17 18  1  1  0  0  0
 17 24  1  0  0  0  0
 18  4  1  0  0  0  0
 19 14  1  0  0  0  0
 19 15  2  0  0  0  0
 20 12  1  1  0  0  0
 20  6  1  0  0  0  0
 21  5  1  0  0  0  0
 22 29  1  6  0  0  0
 22 27  1  0  0  0  0
 23  2  1  0  0  0  0
 25  7  1  0  0  0  0
 26 24  1  6  0  0  0
 26 20  1  0  0  0  0
 27 14  1  0  0  0  0
 29 28  2  0  0  0  0
 30 29  1  0  0  0  0
 31 33  1  0  0  0  0
 32 34  2  0  0  0  0
 33 30  2  0  0  0  0
 33 32  1  0  0  0  0
 34 28  1  0  0  0  0
 35 36  1  0  0  0  0
 37 35  1  0  0  0  0
M  END
>  <MODEL>
1

>  <REMARK>
 VINA RESULT:      -8.4      0.000      0.000
  Name = 
  2 active torsions:
  status: ('A' for Active; 'I' for Inactive)
    1  A    between atoms: C_1  and  C_4
    2  A    between atoms: C_23  and  C_30
                            x       y       z     vdW  Elec       q    Type
                         _______ _______ _______ _____ _____    ______ ____

>  <TORSDO>
F 2

$$$$
=
 OpenBabel11112417303D

 37 43  0  0  1  0  0  0  0  0999 V2000
  189.4280  173.5260  139.8480 C   0  0  2  0  0  3  0  0  0  0  0  0
  187.4630  177.2890  141.6860 C   0  0  0  0  0  0  0  0  0  0  0  0
  189.3540  174.9350  144.4930 C   0  0  0  0  0  0  0  0  0  0  0  0
  192.3660  173.0300  143.1900 O   0  0  0  0  0  0  0  0  0  0  0  0
  187.6460  176.5730  144.0990 C   0  0  0  0  0  0  0  0  0  0  0  0
  190.1890  173.9620  143.6970 C   0  0  2  0  0  3  0  0  0  0  0  0
  191.6990  172.6760  139.5480 N   0  0  0  0  0  0  0  0  0  0  0  0
  188.4480  175.5310  143.6740 C   0  0  0  0  0  0  0  0  0  0  0  0
  191.7310  174.0710  143.8930 C   0  0  1  0  0  3  0  0  0  0  0  0
  187.6890  176.9420  145.4110 N   0  0  0  0  0  0  0  0  0  0  0  0
  190.8250  173.8190  139.3060 C   0  0  0  0  0  2  0  0  0  0  0  0
  188.5960  175.1650  142.3310 N   0  0  0  0  0  0  0  0  0  0  0  0
  188.6650  178.2190  141.6780 C   0  0  0  0  0  1  0  0  0  0  0  0
  190.4580  174.7710  146.7390 C   0  0  0  0  0  2  0  0  0  0  0  0
  188.5510  176.3340  146.2850 C   0  0  0  0  0  3  0  0  0  0  0  0
  187.9020  175.8730  141.2530 C   0  0  0  0  0  2  0  0  0  0  0  0
  191.7550  172.3790  140.9910 C   0  0  1  0  0  3  0  0  0  0  0  0
  192.4860  173.4210  141.8540 C   0  0  0  0  0  2  0  0  0  0  0  0
  189.4140  175.3140  145.8400 C   0  0  0  0  0  0  0  0  0  0  0  0
  189.7880  174.3270  142.2270 C   0  0  2  0  0  3  0  0  0  0  0  0
  186.8030  177.2920  143.0860 C   0  0  0  0  0  2  0  0  0  0  0  0
  192.1610  173.9370  145.3730 C   0  0  2  0  0  3  0  0  0  0  0  0
  186.4570  177.8060  140.6810 C   0  0  0  0  0  1  0  0  0  0  0  0
  190.4740  172.0520  141.5130 O   0  0  0  0  0  0  0  0  0  0  0  0
  193.0250  173.0010  139.0440 C   0  0  0  0  0  1  0  0  0  0  0  0
  189.5390  173.1070  141.3210 C   0  0  2  0  0  3  0  0  0  0  0  0
  191.7570  175.0840  146.1730 N   0  0  0  0  0  2  0  0  0  0  0  0
  194.5150  174.8370  145.5670 C   0  0  0  0  0  3  0  0  0  0  0  0
  193.6410  173.7400  145.5170 C   0  0  0  0  0  0  0  0  0  0  0  0
  194.1550  172.4420  145.5970 C   0  0  0  0  0  3  0  0  0  0  0  0
  196.0250  170.9780  145.8020 F   0  0  0  0  0  0  0  0  0  0  0  0
  196.4000  173.3320  145.7740 C   0  0  0  0  0  3  0  0  0  0  0  0
  195.5320  172.2370  145.7250 C   0  0  0  0  0  0  0  0  0  0  0  0
  195.8910  174.6320  145.6950 C   0  0  0  0  0  3  0  0  0  0  0  0
  188.7290  172.4490  139.0240 C   0  0  0  0  0  3  0  0  0  0  0  0
  187.4570  172.2290  139.5190 F   0  0  0  0  0  0  0  0  0  0  0  0
  188.6350  172.8500  137.7040 F   0  0  0  0  0  0  0  0  0  0  0  0
  1 35  1  6  0  0  0
  1 26  1  0  0  0  0
  2 21  1  0  0  0  0
  3 19  1  0  0  0  0
  5 10  2  0  0  0  0
  6  9  1  0  0  0  0
  6  3  1  1  0  0  0
  7 17  1  0  0  0  0
  8  5  1  0  0  0  0
  8  3  2  0  0  0  0
  9  4  1  6  0  0  0
  9 22  1  0  0  0  0
 10 15  1  0  0  0  0
 11  7  1  0  0  0  0
 11  1  1  0  0  0  0
 12  8  1  0  0  0  0
 13  2  1  0  0  0  0
 16  2  1  0  0  0  0
 16 12  1  0  0  0  0
 17 24  1  0  0  0  0
 17 18  1  1  0  0  0
 18  4  1  0  0  0  0
 19 15  2  0  0  0  0
 19 14  1  0  0  0  0
 20 12  1  1  0  0  0
 20  6  1  0  0  0  0
 21  5  1  0  0  0  0
 22 29  1  6  0  0  0
 22 27  1  0  0  0  0
 23  2  1  0  0  0  0
 25  7  1  0  0  0  0
 26 24  1  6  0  0  0
 26 20  1  0  0  0  0
 27 14  1  0  0  0  0
 28 34  1  0  0  0  0
 29 28  2  0  0  0  0
 29 30  1  0  0  0  0
 30 33  2  0  0  0  0
 33 32  1  0  0  0  0
 33 31  1  0  0  0  0
 34 32  2  0  0  0  0
 35 36  1  0  0  0  0
 37 35  1  0  0  0  0
M  END
>  <MODEL>
2

>  <REMARK>
 VINA RESULT:      -8.4      1.862      2.299
  Name = 
  2 active torsions:
  status: ('A' for Active; 'I' for Inactive)
    1  A    between atoms: C_1  and  C_4
    2  A    between atoms: C_23  and  C_30
                            x       y       z     vdW  Elec       q    Type
                         _______ _______ _______ _____ _____    ______ ____

>  <TORSDO>
F 2

$$$$
=
 OpenBabel11112417303D

 37 43  0  0  1  0  0  0  0  0999 V2000
  193.1670  175.9590  145.7230 C   0  0  2  0  0  3  0  0  0  0  0  0
  188.7220  177.0420  146.4130 C   0  0  0  0  0  0  0  0  0  0  0  0
  189.4680  175.6950  142.5900 C   0  0  0  0  0  0  0  0  0  0  0  0
  192.2980  173.1810  142.3210 O   0  0  0  0  0  0  0  0  0  0  0  0
  188.0260  177.0050  143.9880 C   0  0  0  0  0  0  0  0  0  0  0  0
  190.8530  175.0980  142.6420 C   0  0  2  0  0  3  0  0  0  0  0  0
  194.4480  173.9310  145.2620 N   0  0  0  0  0  0  0  0  0  0  0  0
  189.2590  176.4540  143.6970 C   0  0  0  0  0  0  0  0  0  0  0  0
  190.9460  173.5680  142.3600 C   0  0  1  0  0  3  0  0  0  0  0  0
  187.0170  176.8750  143.0810 N   0  0  0  0  0  0  0  0  0  0  0  0
  193.4840  174.5350  146.1740 C   0  0  0  0  0  2  0  0  0  0  0  0
  190.3180  176.3970  144.6110 N   0  0  0  0  0  0  0  0  0  0  0  0
  188.1910  175.6660  146.7790 C   0  0  0  0  0  1  0  0  0  0  0  0
  188.5840  174.6400  140.4930 C   0  0  0  0  0  2  0  0  0  0  0  0
  187.1980  176.1620  141.9250 C   0  0  0  0  0  3  0  0  0  0  0  0
  190.1980  176.9260  145.9710 C   0  0  0  0  0  2  0  0  0  0  0  0
  193.9150  173.9330  143.8870 C   0  0  1  0  0  3  0  0  0  0  0  0
  192.7300  172.9860  143.6360 C   0  0  0  0  0  2  0  0  0  0  0  0
  188.4360  175.5450  141.6560 C   0  0  0  0  0  0  0  0  0  0  0  0
  191.2820  175.4180  144.1150 C   0  0  2  0  0  3  0  0  0  0  0  0
  187.8330  177.6760  145.3170 C   0  0  0  0  0  2  0  0  0  0  0  0
  190.3280  173.1690  140.9980 C   0  0  2  0  0  3  0  0  0  0  0  0
  188.6600  177.9160  147.6470 C   0  0  0  0  0  1  0  0  0  0  0  0
  193.6580  175.2520  143.4220 O   0  0  0  0  0  0  0  0  0  0  0  0
  194.7050  172.5690  145.7060 C   0  0  0  0  0  1  0  0  0  0  0  0
  192.7260  175.9340  144.2530 C   0  0  2  0  0  3  0  0  0  0  0  0
  188.8790  173.3070  140.9860 N   0  0  0  0  0  2  0  0  0  0  0  0
  191.2600  171.4930  139.3520 C   0  0  0  0  0  3  0  0  0  0  0  0
  190.6870  171.7670  140.6040 C   0  0  0  0  0  0  0  0  0  0  0  0
  190.4410  170.7200  141.4970 C   0  0  0  0  0  3  0  0  0  0  0  0
  190.5230  168.3940  142.0130 F   0  0  0  0  0  0  0  0  0  0  0  0
  191.3340  169.1350  139.8980 C   0  0  0  0  0  3  0  0  0  0  0  0
  190.7630  169.4050  141.1450 C   0  0  0  0  0  0  0  0  0  0  0  0
  191.5820  170.1790  139.0010 C   0  0  0  0  0  3  0  0  0  0  0  0
  194.3650  176.8820  145.9200 C   0  0  0  0  0  3  0  0  0  0  0  0
  194.3170  177.9180  145.0050 F   0  0  0  0  0  0  0  0  0  0  0  0
  194.3510  177.4100  147.1970 F   0  0  0  0  0  0  0  0  0  0  0  0
  1 35  1  6  0  0  0
  1 11  1  0  0  0  0
  2 13  1  0  0  0  0
  2 23  1  0  0  0  0
  3  8  1  0  0  0  0
  4 18  1  0  0  0  0
  5 21  1  0  0  0  0
  6  3  1  1  0  0  0
  6 20  1  0  0  0  0
  7 25  1  0  0  0  0
  7 11  1  0  0  0  0
  8  5  2  0  0  0  0
  8 12  1  0  0  0  0
  9  4  1  6  0  0  0
  9  6  1  0  0  0  0
 10  5  1  0  0  0  0
 12 16  1  0  0  0  0
 14 27  1  0  0  0  0
 14 19  1  0  0  0  0
 15 10  2  0  0  0  0
 16  2  1  0  0  0  0
 17 18  1  1  0  0  0
 17  7  1  0  0  0  0
 19 15  1  0  0  0  0
 19  3  2  0  0  0  0
 20 26  1  0  0  0  0
 20 12  1  6  0  0  0
 21  2  1  0  0  0  0
 22 29  1  1  0  0  0
 22  9  1  0  0  0  0
 24 17  1  0  0  0  0
 26 24  1  6  0  0  0
 26  1  1  0  0  0  0
 27 22  1  0  0  0  0
 28 29  1  0  0  0  0
 29 30  2  0  0  0  0
 32 33  2  0  0  0  0
 33 30  1  0  0  0  0
 33 31  1  0  0  0  0
 34 28  2  0  0  0  0
 34 32  1  0  0  0  0
 35 37  1  0  0  0  0
 36 35  1  0  0  0  0
M  END
>  <MODEL>
3

>  <REMARK>
 VINA RESULT:      -8.0      2.310      6.211
  Name = 
  2 active torsions:
  status: ('A' for Active; 'I' for Inactive)
    1  A    between atoms: C_1  and  C_4
    2  A    between atoms: C_23  and  C_30
                            x       y       z     vdW  Elec       q    Type
                         _______ _______ _______ _____ _____    ______ ____

>  <TORSDO>
F 2

$$$$
=
 OpenBabel11112417303D

 37 43  0  0  1  0  0  0  0  0999 V2000
  195.1240  174.5130  144.8470 C   0  0  2  0  0  3  0  0  0  0  0  0
  194.6270  173.8880  140.2900 C   0  0  0  0  0  0  0  0  0  0  0  0
  191.0980  173.4130  142.3660 C   0  0  0  0  0  0  0  0  0  0  0  0
  190.8120  175.5260  145.5060 O   0  0  0  0  0  0  0  0  0  0  0  0
  192.3230  172.8640  140.3780 C   0  0  0  0  0  0  0  0  0  0  0  0
  191.3730  173.9590  143.7460 C   0  0  2  0  0  3  0  0  0  0  0  0
  194.3430  176.1200  146.5130 N   0  0  0  0  0  0  0  0  0  0  0  0
  192.2730  173.2200  141.7120 C   0  0  0  0  0  0  0  0  0  0  0  0
  190.5400  175.2080  144.1620 C   0  0  1  0  0  3  0  0  0  0  0  0
  191.1560  172.5940  139.7260 N   0  0  0  0  0  0  0  0  0  0  0  0
  195.0310  175.9870  145.2330 C   0  0  0  0  0  2  0  0  0  0  0  0
  193.3860  173.6610  142.4390 N   0  0  0  0  0  0  0  0  0  0  0  0
  194.1920  175.2910  139.8990 C   0  0  0  0  0  1  0  0  0  0  0  0
  188.5900  173.4500  142.3400 C   0  0  0  0  0  2  0  0  0  0  0  0
  189.9490  172.7260  140.3610 C   0  0  0  0  0  3  0  0  0  0  0  0
  194.7120  173.7840  141.8290 C   0  0  0  0  0  2  0  0  0  0  0  0
  192.9990  175.5210  146.4290 C   0  0  1  0  0  3  0  0  0  0  0  0
  191.9930  176.2730  145.5430 C   0  0  0  0  0  2  0  0  0  0  0  0
  189.8930  173.1490  141.7040 C   0  0  0  0  0  0  0  0  0  0  0  0
  192.8960  174.3130  143.6510 C   0  0  2  0  0  3  0  0  0  0  0  0
  193.6550  172.8460  139.6860 C   0  0  0  0  0  2  0  0  0  0  0  0
  189.0140  174.9760  144.0580 C   0  0  2  0  0  3  0  0  0  0  0  0
  196.0070  173.6440  139.7170 C   0  0  0  0  0  1  0  0  0  0  0  0
  193.0560  174.1350  146.1190 O   0  0  0  0  0  0  0  0  0  0  0  0
  194.2500  177.5360  146.8360 C   0  0  0  0  0  1  0  0  0  0  0  0
  193.7190  173.8950  144.8830 C   0  0  2  0  0  3  0  0  0  0  0  0
  188.5630  174.8610  142.6790 N   0  0  0  0  0  2  0  0  0  0  0  0
  188.0270  176.0410  146.1270 C   0  0  0  0  0  3  0  0  0  0  0  0
  188.2300  176.0590  144.7380 C   0  0  0  0  0  0  0  0  0  0  0  0
  187.6900  177.0980  143.9730 C   0  0  0  0  0  3  0  0  0  0  0  0
  186.4300  179.1170  143.8430 F   0  0  0  0  0  0  0  0  0  0  0  0
  186.7500  178.0930  145.9710 C   0  0  0  0  0  3  0  0  0  0  0  0
  186.9510  178.1130  144.5880 C   0  0  0  0  0  0  0  0  0  0  0  0
  187.2880  177.0570  146.7410 C   0  0  0  0  0  3  0  0  0  0  0  0
  196.0780  173.7580  145.7660 C   0  0  0  0  0  3  0  0  0  0  0  0
  195.9850  172.3990  145.5290 F   0  0  0  0  0  0  0  0  0  0  0  0
  197.3790  174.1660  145.5360 F   0  0  0  0  0  0  0  0  0  0  0  0
  1 26  1  0  0  0  0
  1 11  1  0  0  0  0
  1 35  1  1  0  0  0
  2 16  1  0  0  0  0
  4 18  1  0  0  0  0
  5  8  2  0  0  0  0
  6  3  1  6  0  0  0
  6  9  1  0  0  0  0
  7 25  1  0  0  0  0
  8  3  1  0  0  0  0
  8 12  1  0  0  0  0
  9  4  1  1  0  0  0
 10 15  2  0  0  0  0
 10  5  1  0  0  0  0
 11  7  1  0  0  0  0
 13  2  1  0  0  0  0
 14 27  1  0  0  0  0
 15 19  1  0  0  0  0
 16 12  1  0  0  0  0
 17 18  1  6  0  0  0
 17  7  1  0  0  0  0
 19 14  1  0  0  0  0
 19  3  2  0  0  0  0
 20 12  1  6  0  0  0
 20  6  1  0  0  0  0
 20 26  1  0  0  0  0
 21  2  1  0  0  0  0
 21  5  1  0  0  0  0
 22  9  1  0  0  0  0
 22 29  1  6  0  0  0
 23  2  1  0  0  0  0
 24 17  1  0  0  0  0
 26 24  1  1  0  0  0
 27 22  1  0  0  0  0
 28 34  1  0  0  0  0
 29 28  2  0  0  0  0
 30 33  2  0  0  0  0
 30 29  1  0  0  0  0
 31 33  1  0  0  0  0
 32 34  2  0  0  0  0
 33 32  1  0  0  0  0
 36 35  1  0  0  0  0
 37 35  1  0  0  0  0
M  END
>  <MODEL>
4

>  <REMARK>
 VINA RESULT:      -7.7      2.588      7.612
  Name = 
  2 active torsions:
  status: ('A' for Active; 'I' for Inactive)
    1  A    between atoms: C_1  and  C_4
    2  A    between atoms: C_23  and  C_30
                            x       y       z     vdW  Elec       q    Type
                         _______ _______ _______ _____ _____    ______ ____

>  <TORSDO>
F 2

$$$$
=
 OpenBabel11112417303D

 37 43  0  0  1  0  0  0  0  0999 V2000
  189.3480  173.4810  142.2190 C   0  0  2  0  0  3  0  0  0  0  0  0
  189.5910  176.9830  145.2320 C   0  0  0  0  0  0  0  0  0  0  0  0
  193.1810  175.0090  144.7770 C   0  0  0  0  0  0  0  0  0  0  0  0
  193.7370  173.5090  141.3350 O   0  0  0  0  0  0  0  0  0  0  0  0
  191.8340  176.3760  146.2160 C   0  0  0  0  0  0  0  0  0  0  0  0
  193.0040  174.1400  143.5560 C   0  0  2  0  0  3  0  0  0  0  0  0
  190.2990  172.9530  140.0310 N   0  0  0  0  0  0  0  0  0  0  0  0
  191.9670  175.4440  145.2030 C   0  0  0  0  0  0  0  0  0  0  0  0
  193.9270  174.4710  142.3450 C   0  0  1  0  0  3  0  0  0  0  0  0
  192.9510  176.7880  146.8800 N   0  0  0  0  0  0  0  0  0  0  0  0
  189.5440  173.9520  140.7800 C   0  0  0  0  0  2  0  0  0  0  0  0
  190.9170  175.0620  144.3590 N   0  0  0  0  0  0  0  0  0  0  0  0
  190.0880  178.0730  144.2970 C   0  0  0  0  0  1  0  0  0  0  0  0
  195.6830  175.0720  144.9460 C   0  0  0  0  0  2  0  0  0  0  0  0
  194.1920  176.3350  146.5180 C   0  0  0  0  0  3  0  0  0  0  0  0
  189.5730  175.6310  144.4850 C   0  0  0  0  0  2  0  0  0  0  0  0
  191.6000  172.7110  140.6790 C   0  0  1  0  0  3  0  0  0  0  0  0
  192.6050  173.8720  140.5990 C   0  0  0  0  0  2  0  0  0  0  0  0
  194.3360  175.4340  145.4440 C   0  0  0  0  0  0  0  0  0  0  0  0
  191.5010  174.3980  143.1960 C   0  0  2  0  0  3  0  0  0  0  0  0
  190.4710  176.9360  146.5030 C   0  0  0  0  0  2  0  0  0  0  0  0
  195.4300  174.4460  142.7090 C   0  0  2  0  0  3  0  0  0  0  0  0
  188.1740  177.3210  145.6420 C   0  0  0  0  0  1  0  0  0  0  0  0
  191.4480  172.2230  142.0060 O   0  0  0  0  0  0  0  0  0  0  0  0
  190.4890  173.4460  138.6760 C   0  0  0  0  0  1  0  0  0  0  0  0
  190.7140  173.1280  142.8230 C   0  0  2  0  0  3  0  0  0  0  0  0
  195.8080  175.5490  143.5810 N   0  0  0  0  0  2  0  0  0  0  0  0
  196.7090  175.6770  140.9100 C   0  0  0  0  0  3  0  0  0  0  0  0
  196.3070  174.4650  141.4920 C   0  0  0  0  0  0  0  0  0  0  0  0
  196.7250  173.2540  140.9300 C   0  0  0  0  0  3  0  0  0  0  0  0
  197.9400  172.0770  139.2510 F   0  0  0  0  0  0  0  0  0  0  0  0
  197.9360  174.4600  139.2140 C   0  0  0  0  0  3  0  0  0  0  0  0
  197.5380  173.2510  139.7920 C   0  0  0  0  0  0  0  0  0  0  0  0
  197.5220  175.6720  139.7720 C   0  0  0  0  0  3  0  0  0  0  0  0
  188.3960  172.2910  142.2880 C   0  0  0  0  0  3  0  0  0  0  0  0
  188.5630  171.6220  143.4860 F   0  0  0  0  0  0  0  0  0  0  0  0
  187.0870  172.7270  142.1950 F   0  0  0  0  0  0  0  0  0  0  0  0
  1 35  1  6  0  0  0
  1 26  1  0  0  0  0
  2 23  1  0  0  0  0
  2 21  1  0  0  0  0
  3  8  2  0  0  0  0
  3 19  1  0  0  0  0
  5 21  1  0  0  0  0
  5 10  2  0  0  0  0
  6  3  1  1  0  0  0
  7 17  1  0  0  0  0
  7 11  1  0  0  0  0
  8  5  1  0  0  0  0
  9  4  1  6  0  0  0
  9 22  1  0  0  0  0
  9  6  1  0  0  0  0
 11  1  1  0  0  0  0
 12 16  1  0  0  0  0
 12  8  1  0  0  0  0
 13  2  1  0  0  0  0
 14 19  1  0  0  0  0
 15 10  1  0  0  0  0
 16  2  1  0  0  0  0
 17 18  1  1  0  0  0
 17 24  1  0  0  0  0
 18  4  1  0  0  0  0
 19 15  2  0  0  0  0
 20  6  1  0  0  0  0
 20 12  1  1  0  0  0
 22 29  1  6  0  0  0
 22 27  1  0  0  0  0
 25  7  1  0  0  0  0
 26 24  1  6  0  0  0
 26 20  1  0  0  0  0
 27 14  1  0  0  0  0
 28 29  1  0  0  0  0
 30 29  2  0  0  0  0
 31 33  1  0  0  0  0
 32 34  1  0  0  0  0
 32 33  2  0  0  0  0
 33 30  1  0  0  0  0
 34 28  2  0  0  0  0
 35 36  1  0  0  0  0
 37 35  1  0  0  0  0
M  END
>  <MODEL>
5

>  <REMARK>
 VINA RESULT:      -7.7      2.266      3.252
  Name = 
  2 active torsions:
  status: ('A' for Active; 'I' for Inactive)
    1  A    between atoms: C_1  and  C_4
    2  A    between atoms: C_23  and  C_30
                            x       y       z     vdW  Elec       q    Type
                         _______ _______ _______ _____ _____    ______ ____

>  <TORSDO>
F 2

$$$$
=
 OpenBabel11112417303D

 37 43  0  0  1  0  0  0  0  0999 V2000
  194.4330  175.8360  144.2270 C   0  0  2  0  0  3  0  0  0  0  0  0
  190.8240  176.3760  147.0710 C   0  0  0  0  0  0  0  0  0  0  0  0
  189.7150  176.0920  143.1110 C   0  0  0  0  0  0  0  0  0  0  0  0
  192.0030  173.9440  140.9760 O   0  0  0  0  0  0  0  0  0  0  0  0
  189.1150  176.8970  145.2890 C   0  0  0  0  0  0  0  0  0  0  0  0
  190.9470  175.6060  142.3870 C   0  0  2  0  0  3  0  0  0  0  0  0
  195.2750  174.0900  142.7400 N   0  0  0  0  0  0  0  0  0  0  0  0
  190.0600  176.5300  144.3500 C   0  0  0  0  0  0  0  0  0  0  0  0
  190.8310  174.2070  141.7100 C   0  0  1  0  0  3  0  0  0  0  0  0
  187.8020  176.9240  144.9250 N   0  0  0  0  0  0  0  0  0  0  0  0
  194.8500  174.3720  144.1060 C   0  0  0  0  0  2  0  0  0  0  0  0
  191.4120  176.3250  144.6500 N   0  0  0  0  0  0  0  0  0  0  0  0
  190.4490  174.9160  147.2660 C   0  0  0  0  0  1  0  0  0  0  0  0
  187.9370  175.5340  141.4320 C   0  0  0  0  0  2  0  0  0  0  0  0
  187.4130  176.5390  143.6680 C   0  0  0  0  0  3  0  0  0  0  0  0
  191.9390  176.4840  146.0070 C   0  0  0  0  0  2  0  0  0  0  0  0
  194.1840  174.3970  141.7970 C   0  0  1  0  0  3  0  0  0  0  0  0
  192.9680  173.4580  141.8630 C   0  0  0  0  0  2  0  0  0  0  0  0
  188.3680  176.1040  142.7290 C   0  0  0  0  0  0  0  0  0  0  0  0
  192.0050  175.5770  143.5430 C   0  0  2  0  0  3  0  0  0  0  0  0
  189.5700  177.1970  146.6890 C   0  0  0  0  0  2  0  0  0  0  0  0
  189.6510  174.1180  140.7130 C   0  0  2  0  0  3  0  0  0  0  0  0
  191.3620  176.9050  148.3830 C   0  0  0  0  0  1  0  0  0  0  0  0
  193.8080  175.7670  141.8520 O   0  0  0  0  0  0  0  0  0  0  0  0
  195.6390  172.6830  142.6560 C   0  0  0  0  0  1  0  0  0  0  0  0
  193.3810  176.1480  143.1540 C   0  0  2  0  0  3  0  0  0  0  0  0
  188.3580  174.1460  141.3810 N   0  0  0  0  0  2  0  0  0  0  0  0
  190.0660  171.6440  140.4030 C   0  0  0  0  0  3  0  0  0  0  0  0
  189.7290  172.8910  139.8530 C   0  0  0  0  0  0  0  0  0  0  0  0
  189.4650  172.9960  138.4840 C   0  0  0  0  0  3  0  0  0  0  0  0
  189.2830  171.9710  136.3400 F   0  0  0  0  0  0  0  0  0  0  0  0
  189.8750  170.6240  138.2150 C   0  0  0  0  0  3  0  0  0  0  0  0
  189.5380  171.8650  137.6650 C   0  0  0  0  0  0  0  0  0  0  0  0
  190.1390  170.5140  139.5830 C   0  0  0  0  0  3  0  0  0  0  0  0
  195.6350  176.7670  144.1010 C   0  0  0  0  0  3  0  0  0  0  0  0
  195.5730  177.7500  145.0710 F   0  0  0  0  0  0  0  0  0  0  0  0
  196.8070  176.0510  144.2620 F   0  0  0  0  0  0  0  0  0  0  0  0
  1 35  1  6  0  0  0
  2 13  1  0  0  0  0
  2 23  1  0  0  0  0
  3  8  1  0  0  0  0
  4 18  1  0  0  0  0
  5 21  1  0  0  0  0
  6  3  1  1  0  0  0
  6 20  1  0  0  0  0
  7 11  1  0  0  0  0
  8 12  1  0  0  0  0
  8  5  2  0  0  0  0
  9  4  1  6  0  0  0
  9  6  1  0  0  0  0
 10  5  1  0  0  0  0
 11  1  1  0  0  0  0
 12 16  1  0  0  0  0
 14 19  1  0  0  0  0
 15 10  2  0  0  0  0
 16  2  1  0  0  0  0
 17 24  1  0  0  0  0
 17 18  1  1  0  0  0
 17  7  1  0  0  0  0
 19  3  2  0  0  0  0
 19 15  1  0  0  0  0
 20 12  1  1  0  0  0
 21  2  1  0  0  0  0
 22 29  1  1  0  0  0
 22 27  1  0  0  0  0
 22  9  1  0  0  0  0
 25  7  1  0  0  0  0
 26 24  1  6  0  0  0
 26 20  1  0  0  0  0
 26  1  1  0  0  0  0
 27 14  1  0  0  0  0
 29 28  1  0  0  0  0
 30 29  2  0  0  0  0
 31 33  1  0  0  0  0
 32 34  1  0  0  0  0
 33 32  2  0  0  0  0
 33 30  1  0  0  0  0
 34 28  2  0  0  0  0
 35 37  1  0  0  0  0
 35 36  1  0  0  0  0
M  END
>  <MODEL>
6

>  <REMARK>
 VINA RESULT:      -7.6      2.092      6.398
  Name = 
  2 active torsions:
  status: ('A' for Active; 'I' for Inactive)
    1  A    between atoms: C_1  and  C_4
    2  A    between atoms: C_23  and  C_30
                            x       y       z     vdW  Elec       q    Type
                         _______ _______ _______ _____ _____    ______ ____

>  <TORSDO>
F 2

$$$$
=
 OpenBabel11112417303D

 37 43  0  0  1  0  0  0  0  0999 V2000
  190.5940  176.2070  146.0470 C   0  0  2  0  0  3  0  0  0  0  0  0
  186.2740  177.7620  146.6090 C   0  0  0  0  0  0  0  0  0  0  0  0
  187.4270  177.6290  142.6540 C   0  0  0  0  0  0  0  0  0  0  0  0
  189.9160  174.8880  141.8220 O   0  0  0  0  0  0  0  0  0  0  0  0
  185.9650  178.6410  144.2640 C   0  0  0  0  0  0  0  0  0  0  0  0
  188.6980  176.8160  142.6380 C   0  0  2  0  0  3  0  0  0  0  0  0
  191.6600  174.2500  145.0450 N   0  0  0  0  0  0  0  0  0  0  0  0
  187.1470  178.0090  143.9280 C   0  0  0  0  0  0  0  0  0  0  0  0
  188.6360  175.4710  141.8540 C   0  0  1  0  0  3  0  0  0  0  0  0
  185.1010  178.9920  143.2690 N   0  0  0  0  0  0  0  0  0  0  0  0
  190.6510  174.6820  146.0060 C   0  0  0  0  0  2  0  0  0  0  0  0
  188.0350  177.4730  144.8700 N   0  0  0  0  0  0  0  0  0  0  0  0
  185.5190  176.4560  146.4180 C   0  0  0  0  0  1  0  0  0  0  0  0
  186.7520  177.4880  140.2420 C   0  0  0  0  0  2  0  0  0  0  0  0
  185.3680  178.6750  141.9630 C   0  0  0  0  0  3  0  0  0  0  0  0
  187.7730  177.5410  146.3090 C   0  0  0  0  0  2  0  0  0  0  0  0
  191.3520  174.7940  143.7100 C   0  0  1  0  0  3  0  0  0  0  0  0
  190.1090  174.2030  143.0250 C   0  0  0  0  0  2  0  0  0  0  0  0
  186.5420  177.9740  141.6250 C   0  0  0  0  0  0  0  0  0  0  0  0
  188.9300  176.5580  144.1660 C   0  0  2  0  0  3  0  0  0  0  0  0
  185.6550  178.8640  145.7160 C   0  0  0  0  0  2  0  0  0  0  0  0
  188.1910  175.6530  140.3820 C   0  0  2  0  0  3  0  0  0  0  0  0
  186.1330  178.1820  148.0560 C   0  0  0  0  0  1  0  0  0  0  0  0
  191.3430  176.2150  143.7070 O   0  0  0  0  0  0  0  0  0  0  0  0
  191.6670  172.7950  145.0130 C   0  0  0  0  0  1  0  0  0  0  0  0
  190.3890  176.7400  144.6220 C   0  0  2  0  0  3  0  0  0  0  0  0
  186.7920  176.0380  140.2700 N   0  0  0  0  0  2  0  0  0  0  0  0
  188.3610  173.1420  140.1490 C   0  0  0  0  0  3  0  0  0  0  0  0
  188.4240  174.4170  139.5650 C   0  0  0  0  0  0  0  0  0  0  0  0
  188.7130  174.5410  138.2020 C   0  0  0  0  0  3  0  0  0  0  0  0
  189.2190  173.5260  136.1060 F   0  0  0  0  0  0  0  0  0  0  0  0
  188.8760  172.1320  138.0080 C   0  0  0  0  0  3  0  0  0  0  0  0
  188.9390  173.4010  137.4240 C   0  0  0  0  0  0  0  0  0  0  0  0
  188.5870  172.0030  139.3700 C   0  0  0  0  0  3  0  0  0  0  0  0
  191.8560  176.7910  146.6740 C   0  0  0  0  0  3  0  0  0  0  0  0
  191.6040  177.1670  147.9800 F   0  0  0  0  0  0  0  0  0  0  0  0
  192.8690  175.8500  146.6640 F   0  0  0  0  0  0  0  0  0  0  0  0
  1 35  1  6  0  0  0
  2 23  1  0  0  0  0
  3  8  1  0  0  0  0
  4 18  1  0  0  0  0
  5 21  1  0  0  0  0
  6  3  1  1  0  0  0
  6 20  1  0  0  0  0
  7 11  1  0  0  0  0
  8  5  2  0  0  0  0
  8 12  1  0  0  0  0
  9  4  1  6  0  0  0
  9  6  1  0  0  0  0
 10  5  1  0  0  0  0
 11  1  1  0  0  0  0
 12 16  1  0  0  0  0
 13  2  1  0  0  0  0
 14 27  1  0  0  0  0
 14 19  1  0  0  0  0
 15 10  2  0  0  0  0
 16  2  1  0  0  0  0
 17 18  1  1  0  0  0
 17  7  1  0  0  0  0
 19 15  1  0  0  0  0
 19  3  2  0  0  0  0
 20 26  1  0  0  0  0
 20 12  1  1  0  0  0
 21  2  1  0  0  0  0
 22 29  1  6  0  0  0
 22  9  1  0  0  0  0
 24 17  1  0  0  0  0
 25  7  1  0  0  0  0
 26 24  1  6  0  0  0
 26  1  1  0  0  0  0
 27 22  1  0  0  0  0
 29 28  1  0  0  0  0
 30 29  2  0  0  0  0
 31 33  1  0  0  0  0
 32 34  1  0  0  0  0
 33 32  2  0  0  0  0
 33 30  1  0  0  0  0
 34 28  2  0  0  0  0
 35 36  1  0  0  0  0
 37 35  1  0  0  0  0
M  END
>  <MODEL>
7

>  <REMARK>
 VINA RESULT:      -7.4      3.036      6.482
  Name = 
  2 active torsions:
  status: ('A' for Active; 'I' for Inactive)
    1  A    between atoms: C_1  and  C_4
    2  A    between atoms: C_23  and  C_30
                            x       y       z     vdW  Elec       q    Type
                         _______ _______ _______ _____ _____    ______ ____

>  <TORSDO>
F 2

$$$$
=
 OpenBabel11112417303D

 37 43  0  0  1  0  0  0  0  0999 V2000
  192.4430  175.8060  145.8970 C   0  0  2  0  0  3  0  0  0  0  0  0
  196.1140  173.0270  145.4440 C   0  0  0  0  0  0  0  0  0  0  0  0
  192.7540  171.5620  143.5590 C   0  0  0  0  0  0  0  0  0  0  0  0
  190.3890  174.2240  142.2460 O   0  0  0  0  0  0  0  0  0  0  0  0
  194.8630  171.0200  144.5640 C   0  0  0  0  0  0  0  0  0  0  0  0
  191.7800  172.7150  143.5320 C   0  0  2  0  0  3  0  0  0  0  0  0
  191.0570  177.1690  144.4180 N   0  0  0  0  0  0  0  0  0  0  0  0
  193.7530  171.8330  144.4390 C   0  0  0  0  0  0  0  0  0  0  0  0
  191.3880  173.2420  142.1190 C   0  0  1  0  0  3  0  0  0  0  0  0
  194.9060  169.8530  143.8610 N   0  0  0  0  0  0  0  0  0  0  0  0
  192.4280  176.9080  144.8400 C   0  0  0  0  0  2  0  0  0  0  0  0
  193.6650  173.1160  144.9940 N   0  0  0  0  0  0  0  0  0  0  0  0
  196.6310  173.5240  144.1050 C   0  0  0  0  0  1  0  0  0  0  0  0
  191.7840  170.0890  141.7750 C   0  0  0  0  0  2  0  0  0  0  0  0
  193.8950  169.5140  142.9990 C   0  0  0  0  0  3  0  0  0  0  0  0
  194.7630  173.7060  145.7610 C   0  0  0  0  0  2  0  0  0  0  0  0
  190.4460  175.9360  143.8900 C   0  0  1  0  0  3  0  0  0  0  0  0
  191.0120  175.4380  142.5500 C   0  0  0  0  0  2  0  0  0  0  0  0
  192.7920  170.3720  142.8220 C   0  0  0  0  0  0  0  0  0  0  0  0
  192.5600  173.8100  144.3360 C   0  0  2  0  0  3  0  0  0  0  0  0
  196.0020  171.4840  145.4260 C   0  0  0  0  0  2  0  0  0  0  0  0
  190.8120  172.1360  141.2020 C   0  0  2  0  0  3  0  0  0  0  0  0
  197.1110  173.4220  146.5130 C   0  0  0  0  0  1  0  0  0  0  0  0
  190.4000  174.9070  144.8700 O   0  0  0  0  0  0  0  0  0  0  0  0
  191.0830  178.2020  143.3940 C   0  0  0  0  0  1  0  0  0  0  0  0
  191.6970  174.5790  145.3540 C   0  0  2  0  0  3  0  0  0  0  0  0
  191.8220  171.1660  140.8030 N   0  0  0  0  0  2  0  0  0  0  0  0
  188.7720  172.6660  139.8080 C   0  0  0  0  0  3  0  0  0  0  0  0
  190.1660  172.7000  139.9720 C   0  0  0  0  0  0  0  0  0  0  0  0
  190.9670  173.2650  138.9740 C   0  0  0  0  0  3  0  0  0  0  0  0
  191.1630  174.3360  136.8540 F   0  0  0  0  0  0  0  0  0  0  0  0
  188.9950  173.7550  137.6560 C   0  0  0  0  0  3  0  0  0  0  0  0
  190.3840  173.7910  137.8180 C   0  0  0  0  0  0  0  0  0  0  0  0
  188.1900  173.1920  138.6510 C   0  0  0  0  0  3  0  0  0  0  0  0
  191.8270  176.2860  147.2070 C   0  0  0  0  0  3  0  0  0  0  0  0
  191.5690  175.2060  148.0300 F   0  0  0  0  0  0  0  0  0  0  0  0
  192.6960  177.1450  147.8520 F   0  0  0  0  0  0  0  0  0  0  0  0
  1 35  1  1  0  0  0
  2 16  1  0  0  0  0
  2 23  1  0  0  0  0
  3  8  1  0  0  0  0
  4 18  1  0  0  0  0
  5 21  1  0  0  0  0
  6  3  1  6  0  0  0
  6 20  1  0  0  0  0
  7 11  1  0  0  0  0
  8  5  2  0  0  0  0
  8 12  1  0  0  0  0
  9  4  1  1  0  0  0
  9  6  1  0  0  0  0
 10  5  1  0  0  0  0
 11  1  1  0  0  0  0
 12 16  1  0  0  0  0
 13  2  1  0  0  0  0
 14 19  1  0  0  0  0
 15 10  2  0  0  0  0
 17 18  1  6  0  0  0
 17  7  1  0  0  0  0
 17 24  1  0  0  0  0
 19 15  1  0  0  0  0
 19  3  2  0  0  0  0
 20 12  1  1  0  0  0
 20 26  1  0  0  0  0
 21  2  1  0  0  0  0
 22 29  1  6  0  0  0
 22  9  1  0  0  0  0
 25  7  1  0  0  0  0
 26 24  1  6  0  0  0
 26  1  1  0  0  0  0
 27 22  1  0  0  0  0
 27 14  1  0  0  0  0
 28 29  1  0  0  0  0
 30 29  2  0  0  0  0
 31 33  1  0  0  0  0
 32 33  2  0  0  0  0
 32 34  1  0  0  0  0
 33 30  1  0  0  0  0
 34 28  2  0  0  0  0
 35 37  1  0  0  0  0
 35 36  1  0  0  0  0
M  END
>  <MODEL>
8

>  <REMARK>
 VINA RESULT:      -7.4      3.059      7.645
  Name = 
  2 active torsions:
  status: ('A' for Active; 'I' for Inactive)
    1  A    between atoms: C_1  and  C_4
    2  A    between atoms: C_23  and  C_30
                            x       y       z     vdW  Elec       q    Type
                         _______ _______ _______ _____ _____    ______ ____

>  <TORSDO>
F 2

$$$$
=
 OpenBabel11112417303D

 37 43  0  0  1  0  0  0  0  0999 V2000
  189.8850  177.3270  147.2540 C   0  0  2  0  0  3  0  0  0  0  0  0
  185.3420  177.8480  146.5510 C   0  0  0  0  0  0  0  0  0  0  0  0
  187.4550  177.3220  143.0510 C   0  0  0  0  0  0  0  0  0  0  0  0
  190.5660  175.1740  143.3870 O   0  0  0  0  0  0  0  0  0  0  0  0
  185.4650  178.2060  144.0560 C   0  0  0  0  0  0  0  0  0  0  0  0
  188.8250  176.8550  143.4800 C   0  0  2  0  0  3  0  0  0  0  0  0
  191.5340  175.5490  146.9590 N   0  0  0  0  0  0  0  0  0  0  0  0
  186.7950  177.8350  144.1210 C   0  0  0  0  0  0  0  0  0  0  0  0
  189.2290  175.4210  143.0230 C   0  0  1  0  0  3  0  0  0  0  0  0
  184.8270  178.1570  142.8520 N   0  0  0  0  0  0  0  0  0  0  0  0
  190.2510  175.8790  147.5700 C   0  0  0  0  0  2  0  0  0  0  0  0
  187.5050  177.7040  145.3210 N   0  0  0  0  0  0  0  0  0  0  0  0
  184.9340  176.3840  146.5070 C   0  0  0  0  0  1  0  0  0  0  0  0
  187.4500  176.6050  140.6470 C   0  0  0  0  0  2  0  0  0  0  0  0
  185.4710  177.6950  141.7340 C   0  0  0  0  0  3  0  0  0  0  0  0
  186.8820  177.9530  146.6220 C   0  0  0  0  0  2  0  0  0  0  0  0
  191.4710  175.7620  145.5020 C   0  0  1  0  0  3  0  0  0  0  0  0
  190.5820  174.7750  144.7270 C   0  0  0  0  0  2  0  0  0  0  0  0
  186.8070  177.2560  141.8110 C   0  0  0  0  0  0  0  0  0  0  0  0
  188.7110  176.9290  145.0410 C   0  0  2  0  0  3  0  0  0  0  0  0
  184.7630  178.5930  145.3250 C   0  0  0  0  0  2  0  0  0  0  0  0
  189.1420  175.2320  141.4900 C   0  0  2  0  0  3  0  0  0  0  0  0
  184.7620  178.4640  147.8050 C   0  0  0  0  0  1  0  0  0  0  0  0
  191.1810  177.1150  145.1770 O   0  0  0  0  0  0  0  0  0  0  0  0
  191.8370  174.1580  147.2570 C   0  0  0  0  0  1  0  0  0  0  0  0
  189.9430  177.5400  145.7350 C   0  0  2  0  0  3  0  0  0  0  0  0
  187.7690  175.2360  141.0080 N   0  0  0  0  0  2  0  0  0  0  0  0
  190.6160  173.9490  139.8870 C   0  0  0  0  0  3  0  0  0  0  0  0
  189.8130  173.9680  141.0370 C   0  0  0  0  0  0  0  0  0  0  0  0
  189.6290  172.7930  141.7730 C   0  0  0  0  0  3  0  0  0  0  0  0
  190.0600  170.4690  142.0790 F   0  0  0  0  0  0  0  0  0  0  0  0
  191.0410  171.5880  140.2170 C   0  0  0  0  0  3  0  0  0  0  0  0
  190.2410  171.6050  141.3640 C   0  0  0  0  0  0  0  0  0  0  0  0
  191.2280  172.7600  139.4790 C   0  0  0  0  0  3  0  0  0  0  0  0
  190.8070  178.3030  147.9780 C   0  0  0  0  0  3  0  0  0  0  0  0
  190.0610  179.1630  148.7630 F   0  0  0  0  0  0  0  0  0  0  0  0
  191.6890  177.6090  148.7860 F   0  0  0  0  0  0  0  0  0  0  0  0
  1 11  1  0  0  0  0
  1 35  1  1  0  0  0
  2 16  1  0  0  0  0
  2 23  1  0  0  0  0
  3  8  1  0  0  0  0
  4 18  1  0  0  0  0
  5  8  2  0  0  0  0
  5 21  1  0  0  0  0
  6  3  1  6  0  0  0
  6 20  1  0  0  0  0
  7 25  1  0  0  0  0
  7 11  1  0  0  0  0
  8 12  1  0  0  0  0
  9  4  1  6  0  0  0
  9  6  1  0  0  0  0
 10  5  1  0  0  0  0
 12 16  1  0  0  0  0
 13  2  1  0  0  0  0
 14 27  1  0  0  0  0
 14 19  1  0  0  0  0
 15 19  1  0  0  0  0
 15 10  2  0  0  0  0
 17 18  1  1  0  0  0
 17  7  1  0  0  0  0
 19  3  2  0  0  0  0
 20 12  1  6  0  0  0
 20 26  1  0  0  0  0
 21  2  1  0  0  0  0
 22 29  1  1  0  0  0
 22  9  1  0  0  0  0
 24 17  1  0  0  0  0
 26 24  1  6  0  0  0
 26  1  1  0  0  0  0
 27 22  1  0  0  0  0
 28 29  1  0  0  0  0
 29 30  2  0  0  0  0
 32 33  2  0  0  0  0
 33 30  1  0  0  0  0
 33 31  1  0  0  0  0
 34 28  2  0  0  0  0
 34 32  1  0  0  0  0
 35 36  1  0  0  0  0
 35 37  1  0  0  0  0
M  END
>  <MODEL>
9

>  <REMARK>
 VINA RESULT:      -7.3      2.972      6.364
  Name = 
  2 active torsions:
  status: ('A' for Active; 'I' for Inactive)
    1  A    between atoms: C_1  and  C_4
    2  A    between atoms: C_23  and  C_30
                            x       y       z     vdW  Elec       q    Type
                         _______ _______ _______ _____ _____    ______ ____

>  <TORSDO>
F 2

$$$$
