=
 OpenBabel11112416263D

 30 35  0  0  1  0  0  0  0  0999 V2000
  186.6350  177.3300  144.1210 C   0  0  0  0  0  0  0  0  0  0  0  0
  184.7950  178.2650  145.5480 C   0  0  0  0  0  0  0  0  0  0  0  0
  189.1640  177.1380  147.3320 O   0  0  0  0  0  0  0  0  0  0  0  0
  187.9540  176.8210  144.0170 C   0  0  0  0  0  0  0  0  0  0  0  0
  185.8130  177.3580  142.8560 C   0  0  0  0  0  2  0  0  0  0  0  0
  188.9950  178.2690  141.4550 O   0  0  0  0  0  1  0  0  0  0  0  0
  190.9200  176.3430  143.0400 C   0  0  1  0  0  3  0  0  0  0  0  0
  188.0350  177.2570  141.5230 C   0  0  2  0  0  3  0  0  0  0  0  0
  191.0750  176.0990  144.4560 N   0  0  0  0  0  0  0  0  0  0  0  0
  190.2710  176.6810  146.7860 C   0  0  0  0  0  0  0  0  0  0  0  0
  186.6390  177.8970  141.6770 C   0  0  1  0  0  3  0  0  0  0  0  0
  188.3630  176.2800  142.6610 C   0  0  1  0  0  3  0  0  0  0  0  0
  184.3500  178.6700  146.8100 C   0  0  0  0  0  3  0  0  0  0  0  0
  192.3910  175.5980  144.8000 C   0  0  0  0  0  2  0  0  0  0  0  0
  192.1950  175.8400  142.3840 C   0  0  0  0  0  2  0  0  0  0  0  0
  183.9050  178.3670  144.4840 O   0  0  0  0  0  1  0  0  0  0  0  0
  188.2570  177.2360  146.3870 C   0  0  0  0  0  0  0  0  0  0  0  0
  185.1880  178.5970  147.9200 C   0  0  0  0  0  3  0  0  0  0  0  0
  186.1150  177.7670  145.3810 C   0  0  0  0  0  0  0  0  0  0  0  0
  188.7560  176.8230  145.1750 C   0  0  0  0  0  0  0  0  0  0  0  0
  191.5280  176.4680  147.5570 C   0  0  0  0  0  1  0  0  0  0  0  0
  190.0780  176.4700  145.4230 C   0  0  0  0  0  0  0  0  0  0  0  0
  193.1920  175.6100  143.5110 C   0  0  0  0  0  2  0  0  0  0  0  0
  189.7790  174.4960  142.0900 O   0  0  0  0  0  0  0  0  0  0  0  0
  186.4880  178.1160  147.7810 C   0  0  0  0  0  3  0  0  0  0  0  0
  186.9550  177.7040  146.5310 C   0  0  0  0  0  0  0  0  0  0  0  0
  189.7040  175.6300  142.5400 C   0  0  0  0  0  0  0  0  0  0  0  0
  185.8520  177.8490  140.3720 C   0  0  0  0  0  2  0  0  0  0  0  0
  183.3840  177.7600  140.1750 C   0  0  0  0  0  1  0  0  0  0  0  0
  184.5680  178.6610  140.4500 C   0  0  0  0  0  2  0  0  0  0  0  0
  1 19  1  0  0  0  0
  2 13  1  0  0  0  0
  4  1  2  0  0  0  0
  4 20  1  0  0  0  0
  5  1  1  0  0  0  0
  7 15  1  6  0  0  0
  7  9  1  0  0  0  0
  8  6  1  1  0  0  0
  8 11  1  0  0  0  0
  8 12  1  0  0  0  0
  9 14  1  0  0  0  0
  9 22  1  0  0  0  0
 10  3  1  0  0  0  0
 10 21  1  0  0  0  0
 11 28  1  6  0  0  0
 11  5  1  0  0  0  0
 12 27  1  1  0  0  0
 12  4  1  0  0  0  0
 13 18  2  0  0  0  0
 15 23  1  0  0  0  0
 16  2  1  0  0  0  0
 17 26  1  0  0  0  0
 17  3  1  0  0  0  0
 19  2  2  0  0  0  0
 19 26  1  0  0  0  0
 20 22  1  0  0  0  0
 20 17  2  0  0  0  0
 22 10  2  0  0  0  0
 23 14  1  0  0  0  0
 24 27  2  0  0  0  0
 25 18  1  0  0  0  0
 26 25  2  0  0  0  0
 27  7  1  0  0  0  0
 28 30  1  0  0  0  0
 29 30  1  0  0  0  0
M  END
>  <MODEL>
1

>  <REMARK>
 VINA RESULT:      -9.0      0.000      0.000
  Name = 
  2 active torsions:
  status: ('A' for Active; 'I' for Inactive)
    1  A    between atoms: C_11  and  C_28
    2  A    between atoms: C_28  and  C_30
                            x       y       z     vdW  Elec       q    Type
                         _______ _______ _______ _____ _____    ______ ____

>  <TORSDO>
F 2

$$$$
=
 OpenBabel11112416263D

 30 35  0  0  1  0  0  0  0  0999 V2000
  189.3930  174.6870  144.0510 C   0  0  0  0  0  0  0  0  0  0  0  0
  190.8510  173.1190  142.7440 C   0  0  0  0  0  0  0  0  0  0  0  0
  187.5970  176.0300  140.6270 O   0  0  0  0  0  0  0  0  0  0  0  0
  188.3550  175.6540  144.0680 C   0  0  0  0  0  0  0  0  0  0  0  0
  189.9770  174.2900  145.3830 C   0  0  0  0  0  2  0  0  0  0  0  0
  189.5150  177.7980  146.0160 O   0  0  0  0  0  1  0  0  0  0  0  0
  186.7140  178.2860  144.6610 C   0  0  1  0  0  3  0  0  0  0  0  0
  189.0600  176.5190  146.3420 C   0  0  2  0  0  3  0  0  0  0  0  0
  186.2240  177.9720  143.3370 N   0  0  0  0  0  0  0  0  0  0  0  0
  186.7670  176.9420  141.0890 C   0  0  0  0  0  0  0  0  0  0  0  0
  190.2400  175.5270  146.2570 C   0  0  1  0  0  3  0  0  0  0  0  0
  187.8890  176.1170  145.4340 C   0  0  1  0  0  3  0  0  0  0  0  0
  191.2280  172.5900  141.5060 C   0  0  0  0  0  3  0  0  0  0  0  0
  185.1310  178.8290  142.9240 C   0  0  0  0  0  2  0  0  0  0  0  0
  185.7820  179.3530  145.2120 C   0  0  0  0  0  2  0  0  0  0  0  0
  191.5030  172.6450  143.8760 O   0  0  0  0  0  1  0  0  0  0  0  0
  188.2360  175.5100  141.6500 C   0  0  0  0  0  0  0  0  0  0  0  0
  190.6190  173.0190  140.3290 C   0  0  0  0  0  3  0  0  0  0  0  0
  189.8330  174.1060  142.8190 C   0  0  0  0  0  0  0  0  0  0  0  0
  187.8210  176.0720  142.8340 C   0  0  0  0  0  0  0  0  0  0  0  0
  185.8910  177.7620  140.2060 C   0  0  0  0  0  1  0  0  0  0  0  0
  186.8680  177.0190  142.4760 C   0  0  0  0  0  0  0  0  0  0  0  0
  184.9590  179.8510  144.0330 C   0  0  0  0  0  2  0  0  0  0  0  0
  185.7570  176.7500  146.1890 O   0  0  0  0  0  0  0  0  0  0  0  0
  189.6200  173.9890  140.3760 C   0  0  0  0  0  3  0  0  0  0  0  0
  189.2240  174.5320  141.6020 C   0  0  0  0  0  0  0  0  0  0  0  0
  186.7200  177.0480  145.4980 C   0  0  0  0  0  0  0  0  0  0  0  0
  190.7480  175.1390  147.6420 C   0  0  0  0  0  2  0  0  0  0  0  0
  192.8120  176.3390  146.9790 C   0  0  0  0  0  1  0  0  0  0  0  0
  191.8590  176.0620  148.1210 C   0  0  0  0  0  2  0  0  0  0  0  0
  1  4  1  0  0  0  0
  1  5  1  0  0  0  0
  2 19  1  0  0  0  0
  2 16  1  0  0  0  0
  3 10  1  0  0  0  0
  3 17  1  0  0  0  0
  5 11  1  0  0  0  0
  7 15  1  1  0  0  0
  7 27  1  0  0  0  0
  8  6  1  6  0  0  0
  9  7  1  0  0  0  0
 10 22  2  0  0  0  0
 11  8  1  0  0  0  0
 11 28  1  1  0  0  0
 12  4  1  6  0  0  0
 12 27  1  0  0  0  0
 12  8  1  0  0  0  0
 13  2  2  0  0  0  0
 14  9  1  0  0  0  0
 14 23  1  0  0  0  0
 17 20  1  0  0  0  0
 18 25  2  0  0  0  0
 18 13  1  0  0  0  0
 19  1  2  0  0  0  0
 20  4  2  0  0  0  0
 21 10  1  0  0  0  0
 22 20  1  0  0  0  0
 22  9  1  0  0  0  0
 23 15  1  0  0  0  0
 25 26  1  0  0  0  0
 26 17  2  0  0  0  0
 26 19  1  0  0  0  0
 27 24  2  0  0  0  0
 28 30  1  0  0  0  0
 29 30  1  0  0  0  0
M  END
>  <MODEL>
2

>  <REMARK>
 VINA RESULT:      -8.7      2.150      7.274
  Name = 
  2 active torsions:
  status: ('A' for Active; 'I' for Inactive)
    1  A    between atoms: C_11  and  C_28
    2  A    between atoms: C_28  and  C_30
                            x       y       z     vdW  Elec       q    Type
                         _______ _______ _______ _____ _____    ______ ____

>  <TORSDO>
F 2

$$$$
=
 OpenBabel11112416263D

 30 35  0  0  1  0  0  0  0  0999 V2000
  189.6640  174.8240  143.9650 C   0  0  0  0  0  0  0  0  0  0  0  0
  190.5890  173.7500  141.8950 C   0  0  0  0  0  0  0  0  0  0  0  0
  186.4780  176.3270  141.8820 O   0  0  0  0  0  0  0  0  0  0  0  0
  188.6380  175.5790  144.5890 C   0  0  0  0  0  0  0  0  0  0  0  0
  190.7880  174.3420  144.8470 C   0  0  0  0  0  2  0  0  0  0  0  0
  190.2880  177.5790  146.3270 O   0  0  0  0  0  1  0  0  0  0  0  0
  187.1430  177.7640  146.3130 C   0  0  1  0  0  3  0  0  0  0  0  0
  190.1400  176.2060  146.5300 C   0  0  2  0  0  3  0  0  0  0  0  0
  186.1790  177.5700  145.2530 N   0  0  0  0  0  0  0  0  0  0  0  0
  185.8310  176.9990  142.8110 C   0  0  0  0  0  0  0  0  0  0  0  0
  191.2690  175.4610  145.7850 C   0  0  1  0  0  3  0  0  0  0  0  0
  188.7420  175.7440  146.0920 C   0  0  1  0  0  3  0  0  0  0  0  0
  190.4650  173.4870  140.5280 C   0  0  0  0  0  3  0  0  0  0  0  0
  184.9340  178.2730  145.4900 C   0  0  0  0  0  2  0  0  0  0  0  0
  186.4270  178.5550  147.3940 C   0  0  0  0  0  2  0  0  0  0  0  0
  191.6990  173.2340  142.5560 O   0  0  0  0  0  1  0  0  0  0  0  0
  187.5340  175.7800  142.4390 C   0  0  0  0  0  0  0  0  0  0  0  0
  189.3800  173.9730  139.8020 C   0  0  0  0  0  3  0  0  0  0  0  0
  189.6030  174.5210  142.5680 C   0  0  0  0  0  0  0  0  0  0  0  0
  187.5980  176.0770  143.7800 C   0  0  0  0  0  0  0  0  0  0  0  0
  184.5900  177.7740  142.5350 C   0  0  0  0  0  1  0  0  0  0  0  0
  186.4950  176.8840  144.0300 C   0  0  0  0  0  0  0  0  0  0  0  0
  185.1420  179.0710  146.7640 C   0  0  0  0  0  2  0  0  0  0  0  0
  187.0710  175.8720  147.7360 O   0  0  0  0  0  0  0  0  0  0  0  0
  188.4020  174.7340  140.4380 C   0  0  0  0  0  3  0  0  0  0  0  0
  188.5030  175.0090  141.8040 C   0  0  0  0  0  0  0  0  0  0  0  0
  187.6220  176.4340  146.8020 C   0  0  0  0  0  0  0  0  0  0  0  0
  192.3450  174.9660  146.7450 C   0  0  0  0  0  2  0  0  0  0  0  0
  194.0530  176.7560  146.6160 C   0  0  0  0  0  1  0  0  0  0  0  0
  193.7440  175.3170  146.2630 C   0  0  0  0  0  2  0  0  0  0  0  0
  1  4  1  0  0  0  0
  1  5  1  0  0  0  0
  2 16  1  0  0  0  0
  2 19  1  0  0  0  0
  3 17  1  0  0  0  0
  3 10  1  0  0  0  0
  5 11  1  0  0  0  0
  7 27  1  0  0  0  0
  7 15  1  1  0  0  0
  8  6  1  6  0  0  0
  9 14  1  0  0  0  0
  9  7  1  0  0  0  0
 10 22  2  0  0  0  0
 11  8  1  0  0  0  0
 11 28  1  1  0  0  0
 12  4  1  6  0  0  0
 12  8  1  0  0  0  0
 12 27  1  0  0  0  0
 13  2  2  0  0  0  0
 14 23  1  0  0  0  0
 17 20  1  0  0  0  0
 18 25  2  0  0  0  0
 18 13  1  0  0  0  0
 19  1  2  0  0  0  0
 20 22  1  0  0  0  0
 20  4  2  0  0  0  0
 21 10  1  0  0  0  0
 22  9  1  0  0  0  0
 23 15  1  0  0  0  0
 25 26  1  0  0  0  0
 26 17  2  0  0  0  0
 26 19  1  0  0  0  0
 27 24  2  0  0  0  0
 30 29  1  0  0  0  0
 30 28  1  0  0  0  0
M  END
>  <MODEL>
3

>  <REMARK>
 VINA RESULT:      -8.5      2.039      7.218
  Name = 
  2 active torsions:
  status: ('A' for Active; 'I' for Inactive)
    1  A    between atoms: C_11  and  C_28
    2  A    between atoms: C_28  and  C_30
                            x       y       z     vdW  Elec       q    Type
                         _______ _______ _______ _____ _____    ______ ____

>  <TORSDO>
F 2

$$$$
=
 OpenBabel11112416263D

 30 35  0  0  1  0  0  0  0  0999 V2000
  189.9020  176.0340  144.0990 C   0  0  0  0  0  0  0  0  0  0  0  0
  191.7640  175.2870  145.6050 C   0  0  0  0  0  0  0  0  0  0  0  0
  187.9220  177.7610  147.2370 O   0  0  0  0  0  0  0  0  0  0  0  0
  188.6740  176.7250  143.9330 C   0  0  0  0  0  0  0  0  0  0  0  0
  190.5180  175.4330  142.8610 C   0  0  0  0  0  2  0  0  0  0  0  0
  187.0660  174.7420  142.1380 O   0  0  0  0  0  1  0  0  0  0  0  0
  185.7070  177.4160  143.1000 C   0  0  1  0  0  3  0  0  0  0  0  0
  188.1680  175.5140  141.7660 C   0  0  2  0  0  3  0  0  0  0  0  0
  185.7970  178.1400  144.3480 N   0  0  0  0  0  0  0  0  0  0  0  0
  186.8300  178.2160  146.6590 C   0  0  0  0  0  0  0  0  0  0  0  0
  189.4580  174.7040  142.0180 C   0  0  1  0  0  3  0  0  0  0  0  0
  188.1620  176.8560  142.5130 C   0  0  1  0  0  3  0  0  0  0  0  0
  192.3190  175.2430  146.8870 C   0  0  0  0  0  3  0  0  0  0  0  0
  184.6370  178.9690  144.6020 C   0  0  0  0  0  2  0  0  0  0  0  0
  184.4420  177.9100  142.4180 C   0  0  0  0  0  2  0  0  0  0  0  0
  192.4640  174.6690  144.5750 O   0  0  0  0  0  1  0  0  0  0  0  0
  188.6570  177.1830  146.3140 C   0  0  0  0  0  0  0  0  0  0  0  0
  191.6720  175.8390  147.9670 C   0  0  0  0  0  3  0  0  0  0  0  0
  190.5250  175.9460  145.3840 C   0  0  0  0  0  0  0  0  0  0  0  0
  188.0570  177.2600  145.0800 C   0  0  0  0  0  0  0  0  0  0  0  0
  185.7450  178.9100  147.4080 C   0  0  0  0  0  1  0  0  0  0  0  0
  186.8550  177.9230  145.2980 C   0  0  0  0  0  0  0  0  0  0  0  0
  183.6660  178.6870  143.4710 C   0  0  0  0  0  2  0  0  0  0  0  0
  186.9670  178.5890  141.4710 O   0  0  0  0  0  0  0  0  0  0  0  0
  190.4540  176.4880  147.7770 C   0  0  0  0  0  3  0  0  0  0  0  0
  189.8800  176.5470  146.5040 C   0  0  0  0  0  0  0  0  0  0  0  0
  186.9330  177.6750  142.2830 C   0  0  0  0  0  0  0  0  0  0  0  0
  190.0470  174.1660  140.7190 C   0  0  0  0  0  2  0  0  0  0  0  0
  189.6920  171.9840  141.8370 C   0  0  0  0  0  1  0  0  0  0  0  0
  189.7070  172.6990  140.5040 C   0  0  0  0  0  2  0  0  0  0  0  0
  1 19  1  0  0  0  0
  2 13  1  0  0  0  0
  4  1  2  0  0  0  0
  4 20  1  0  0  0  0
  5  1  1  0  0  0  0
  7 15  1  6  0  0  0
  7  9  1  0  0  0  0
  8 11  1  0  0  0  0
  8  6  1  1  0  0  0
  8 12  1  0  0  0  0
  9 14  1  0  0  0  0
  9 22  1  0  0  0  0
 10  3  1  0  0  0  0
 10 21  1  0  0  0  0
 11 28  1  6  0  0  0
 11  5  1  0  0  0  0
 12 27  1  1  0  0  0
 12  4  1  0  0  0  0
 13 18  2  0  0  0  0
 15 23  1  0  0  0  0
 16  2  1  0  0  0  0
 17 26  1  0  0  0  0
 17  3  1  0  0  0  0
 19  2  2  0  0  0  0
 19 26  1  0  0  0  0
 20 22  1  0  0  0  0
 20 17  2  0  0  0  0
 22 10  2  0  0  0  0
 23 14  1  0  0  0  0
 24 27  2  0  0  0  0
 25 18  1  0  0  0  0
 26 25  2  0  0  0  0
 27  7  1  0  0  0  0
 30 28  1  0  0  0  0
 30 29  1  0  0  0  0
M  END
>  <MODEL>
4

>  <REMARK>
 VINA RESULT:      -8.5      1.967      5.683
  Name = 
  2 active torsions:
  status: ('A' for Active; 'I' for Inactive)
    1  A    between atoms: C_11  and  C_28
    2  A    between atoms: C_28  and  C_30
                            x       y       z     vdW  Elec       q    Type
                         _______ _______ _______ _____ _____    ______ ____

>  <TORSDO>
F 2

$$$$
=
 OpenBabel11112416263D

 30 35  0  0  1  0  0  0  0  0999 V2000
  187.3300  176.8620  144.4950 C   0  0  0  0  0  0  0  0  0  0  0  0
  185.1650  177.8180  145.3270 C   0  0  0  0  0  0  0  0  0  0  0  0
  189.2070  177.7850  148.0120 O   0  0  0  0  0  0  0  0  0  0  0  0
  188.6910  176.5420  144.7350 C   0  0  0  0  0  0  0  0  0  0  0  0
  186.7660  176.4760  143.1500 C   0  0  0  0  0  2  0  0  0  0  0  0
  190.0450  177.4990  142.0910 O   0  0  0  0  0  1  0  0  0  0  0  0
  191.8210  176.2930  144.3960 C   0  0  1  0  0  3  0  0  0  0  0  0
  189.2000  176.4000  142.2570 C   0  0  2  0  0  3  0  0  0  0  0  0
  191.7280  176.4060  145.8340 N   0  0  0  0  0  0  0  0  0  0  0  0
  190.4400  177.3840  147.7830 C   0  0  0  0  0  0  0  0  0  0  0  0
  187.7410  176.8460  142.0200 C   0  0  1  0  0  3  0  0  0  0  0  0
  189.4050  175.7700  143.6430 C   0  0  1  0  0  3  0  0  0  0  0  0
  184.4490  178.4320  146.3580 C   0  0  0  0  0  3  0  0  0  0  0  0
  192.9990  176.1970  146.4980 C   0  0  0  0  0  2  0  0  0  0  0  0
  193.2440  175.8470  144.1000 C   0  0  0  0  0  2  0  0  0  0  0  0
  184.4890  177.5410  144.1440 O   0  0  0  0  0  1  0  0  0  0  0  0
  188.4920  177.5290  146.9400 C   0  0  0  0  0  0  0  0  0  0  0  0
  185.0620  178.7400  147.5700 C   0  0  0  0  0  3  0  0  0  0  0  0
  186.5380  177.4950  145.5040 C   0  0  0  0  0  0  0  0  0  0  0  0
  189.2530  176.9280  145.9670 C   0  0  0  0  0  0  0  0  0  0  0  0
  191.5410  177.5410  148.7730 C   0  0  0  0  0  1  0  0  0  0  0  0
  190.5320  176.8400  146.5040 C   0  0  0  0  0  0  0  0  0  0  0  0
  194.0260  176.0310  145.3930 C   0  0  0  0  0  2  0  0  0  0  0  0
  191.0810  174.1310  143.7730 O   0  0  0  0  0  0  0  0  0  0  0  0
  186.4070  178.4370  147.7670 C   0  0  0  0  0  3  0  0  0  0  0  0
  187.1450  177.8210  146.7520 C   0  0  0  0  0  0  0  0  0  0  0  0
  190.8040  175.3140  143.9050 C   0  0  0  0  0  0  0  0  0  0  0  0
  187.2270  176.3840  140.6610 C   0  0  0  0  0  2  0  0  0  0  0  0
  185.3100  177.9150  140.3200 C   0  0  0  0  0  1  0  0  0  0  0  0
  186.6910  177.5410  139.8310 C   0  0  0  0  0  2  0  0  0  0  0  0
  1  4  2  0  0  0  0
  1 19  1  0  0  0  0
  2 19  2  0  0  0  0
  2 13  1  0  0  0  0
  4 20  1  0  0  0  0
  5  1  1  0  0  0  0
  7 15  1  1  0  0  0
  7  9  1  0  0  0  0
  8  6  1  1  0  0  0
  8 12  1  0  0  0  0
  9 14  1  0  0  0  0
  9 22  1  0  0  0  0
 10  3  1  0  0  0  0
 10 21  1  0  0  0  0
 11 28  1  6  0  0  0
 11  8  1  0  0  0  0
 11  5  1  0  0  0  0
 12 27  1  1  0  0  0
 12  4  1  0  0  0  0
 13 18  2  0  0  0  0
 15 23  1  0  0  0  0
 16  2  1  0  0  0  0
 17  3  1  0  0  0  0
 18 25  1  0  0  0  0
 19 26  1  0  0  0  0
 20 22  1  0  0  0  0
 20 17  2  0  0  0  0
 22 10  2  0  0  0  0
 23 14  1  0  0  0  0
 24 27  2  0  0  0  0
 26 17  1  0  0  0  0
 26 25  2  0  0  0  0
 27  7  1  0  0  0  0
 30 29  1  0  0  0  0
 30 28  1  0  0  0  0
M  END
>  <MODEL>
5

>  <REMARK>
 VINA RESULT:      -8.4      1.111      1.444
  Name = 
  2 active torsions:
  status: ('A' for Active; 'I' for Inactive)
    1  A    between atoms: C_11  and  C_28
    2  A    between atoms: C_28  and  C_30
                            x       y       z     vdW  Elec       q    Type
                         _______ _______ _______ _____ _____    ______ ____

>  <TORSDO>
F 2

$$$$
=
 OpenBabel11112416263D

 30 35  0  0  1  0  0  0  0  0999 V2000
  187.6840  177.5070  143.9610 C   0  0  0  0  0  0  0  0  0  0  0  0
  185.8750  178.3030  142.4150 C   0  0  0  0  0  0  0  0  0  0  0  0
  189.3530  175.2320  140.9970 O   0  0  0  0  0  0  0  0  0  0  0  0
  188.8630  176.7460  144.1630 C   0  0  0  0  0  0  0  0  0  0  0  0
  187.1670  178.2910  145.1410 C   0  0  0  0  0  2  0  0  0  0  0  0
  188.2530  175.3400  146.8810 O   0  0  0  0  0  1  0  0  0  0  0  0
  190.9600  174.7280  145.3910 C   0  0  1  0  0  3  0  0  0  0  0  0
  188.5210  176.6940  146.6720 C   0  0  2  0  0  3  0  0  0  0  0  0
  191.2690  174.5930  143.9850 N   0  0  0  0  0  0  0  0  0  0  0  0
  190.3600  174.6580  141.6220 C   0  0  0  0  0  0  0  0  0  0  0  0
  187.1920  177.4370  146.4190 C   0  0  1  0  0  3  0  0  0  0  0  0
  189.5220  176.8730  145.5220 C   0  0  1  0  0  3  0  0  0  0  0  0
  185.3040  178.2940  141.1390 C   0  0  0  0  0  3  0  0  0  0  0  0
  192.4450  173.7820  143.7420 C   0  0  0  0  0  2  0  0  0  0  0  0
  192.1010  174.0570  146.1380 C   0  0  0  0  0  2  0  0  0  0  0  0
  185.2610  179.0770  143.3940 O   0  0  0  0  0  1  0  0  0  0  0  0
  188.7340  176.0090  141.8560 C   0  0  0  0  0  0  0  0  0  0  0  0
  185.8650  177.5410  140.1100 C   0  0  0  0  0  3  0  0  0  0  0  0
  187.0440  177.5410  142.6810 C   0  0  0  0  0  0  0  0  0  0  0  0
  189.3430  175.9730  143.0880 C   0  0  0  0  0  0  0  0  0  0  0  0
  191.2740  173.6830  140.9630 C   0  0  0  0  0  1  0  0  0  0  0  0
  190.4010  175.0820  142.9480 C   0  0  0  0  0  0  0  0  0  0  0  0
  192.8820  173.2640  145.1000 C   0  0  0  0  0  2  0  0  0  0  0  0
  191.7890  176.8200  146.1340 O   0  0  0  0  0  0  0  0  0  0  0  0
  187.0090  176.7820  140.3470 C   0  0  0  0  0  3  0  0  0  0  0  0
  187.5990  176.7760  141.6140 C   0  0  0  0  0  0  0  0  0  0  0  0
  190.8280  176.1770  145.7360 C   0  0  0  0  0  0  0  0  0  0  0  0
  186.7560  178.2400  147.6400 C   0  0  0  0  0  2  0  0  0  0  0  0
  184.3930  178.2910  146.8960 C   0  0  0  0  0  1  0  0  0  0  0  0
  185.5660  179.1390  147.3370 C   0  0  0  0  0  2  0  0  0  0  0  0
  1  4  1  0  0  0  0
  1  5  1  0  0  0  0
  2 19  1  0  0  0  0
  2 16  1  0  0  0  0
  3 10  1  0  0  0  0
  3 17  1  0  0  0  0
  5 11  1  0  0  0  0
  7 27  1  0  0  0  0
  7 15  1  1  0  0  0
  8  6  1  6  0  0  0
  9  7  1  0  0  0  0
 10 22  2  0  0  0  0
 11  8  1  0  0  0  0
 11 28  1  1  0  0  0
 12  4  1  6  0  0  0
 12 27  1  0  0  0  0
 12  8  1  0  0  0  0
 13  2  2  0  0  0  0
 14  9  1  0  0  0  0
 14 23  1  0  0  0  0
 17 20  1  0  0  0  0
 18 25  2  0  0  0  0
 18 13  1  0  0  0  0
 19  1  2  0  0  0  0
 20  4  2  0  0  0  0
 21 10  1  0  0  0  0
 22 20  1  0  0  0  0
 22  9  1  0  0  0  0
 23 15  1  0  0  0  0
 25 26  1  0  0  0  0
 26 17  2  0  0  0  0
 26 19  1  0  0  0  0
 27 24  2  0  0  0  0
 29 30  1  0  0  0  0
 30 28  1  0  0  0  0
M  END
>  <MODEL>
6

>  <REMARK>
 VINA RESULT:      -8.3      1.439      4.825
  Name = 
  2 active torsions:
  status: ('A' for Active; 'I' for Inactive)
    1  A    between atoms: C_11  and  C_28
    2  A    between atoms: C_28  and  C_30
                            x       y       z     vdW  Elec       q    Type
                         _______ _______ _______ _____ _____    ______ ____

>  <TORSDO>
F 2

$$$$
=
 OpenBabel11112416263D

 30 35  0  0  1  0  0  0  0  0999 V2000
  187.6550  176.5970  144.5580 C   0  0  0  0  0  0  0  0  0  0  0  0
  185.4190  177.5700  145.1490 C   0  0  0  0  0  0  0  0  0  0  0  0
  189.2720  177.9180  148.0780 O   0  0  0  0  0  0  0  0  0  0  0  0
  189.0030  176.3410  144.9170 C   0  0  0  0  0  0  0  0  0  0  0  0
  187.1910  176.0640  143.2260 C   0  0  0  0  0  2  0  0  0  0  0  0
  190.5110  177.0690  142.2830 O   0  0  0  0  0  1  0  0  0  0  0  0
  192.1540  176.1480  144.8080 C   0  0  1  0  0  3  0  0  0  0  0  0
  189.6810  175.9680  142.5040 C   0  0  2  0  0  3  0  0  0  0  0  0
  191.9620  176.4010  146.2180 N   0  0  0  0  0  0  0  0  0  0  0  0
  190.5250  177.5300  147.9710 C   0  0  0  0  0  0  0  0  0  0  0  0
  188.2320  176.3470  142.1300 C   0  0  1  0  0  3  0  0  0  0  0  0
  189.8050  175.4840  143.9570 C   0  0  1  0  0  3  0  0  0  0  0  0
  184.6220  178.2630  146.0640 C   0  0  0  0  0  3  0  0  0  0  0  0
  193.1900  176.2950  146.9810 C   0  0  0  0  0  2  0  0  0  0  0  0
  193.6030  175.7150  144.6510 C   0  0  0  0  0  2  0  0  0  0  0  0
  184.8300  177.1580  143.9590 O   0  0  0  0  0  1  0  0  0  0  0  0
  188.6350  177.5370  146.9940 C   0  0  0  0  0  0  0  0  0  0  0  0
  185.1460  178.7070  147.2760 C   0  0  0  0  0  3  0  0  0  0  0  0
  186.7830  177.3050  145.4450 C   0  0  0  0  0  0  0  0  0  0  0  0
  189.4730  176.8630  146.1380 C   0  0  0  0  0  0  0  0  0  0  0  0
  191.5540  177.8160  149.0090 C   0  0  0  0  0  1  0  0  0  0  0  0
  190.7150  176.8650  146.7620 C   0  0  0  0  0  0  0  0  0  0  0  0
  194.2910  176.0480  145.9670 C   0  0  0  0  0  2  0  0  0  0  0  0
  191.5040  173.9140  144.3600 O   0  0  0  0  0  0  0  0  0  0  0  0
  186.4810  178.4630  147.5880 C   0  0  0  0  0  3  0  0  0  0  0  0
  187.2980  177.7700  146.6910 C   0  0  0  0  0  0  0  0  0  0  0  0
  191.1930  175.0960  144.3540 C   0  0  0  0  0  0  0  0  0  0  0  0
  187.8190  175.7380  140.7940 C   0  0  0  0  0  2  0  0  0  0  0  0
  188.5740  174.1640  139.0350 C   0  0  0  0  0  1  0  0  0  0  0  0
  188.5260  174.4180  140.5260 C   0  0  0  0  0  2  0  0  0  0  0  0
  1  4  2  0  0  0  0
  1 19  1  0  0  0  0
  2 19  2  0  0  0  0
  2 13  1  0  0  0  0
  4 20  1  0  0  0  0
  5  1  1  0  0  0  0
  7 15  1  1  0  0  0
  7  9  1  0  0  0  0
  8  6  1  1  0  0  0
  8 12  1  0  0  0  0
  9 22  1  0  0  0  0
  9 14  1  0  0  0  0
 10  3  1  0  0  0  0
 10 21  1  0  0  0  0
 11 28  1  6  0  0  0
 11  8  1  0  0  0  0
 11  5  1  0  0  0  0
 12 27  1  1  0  0  0
 12  4  1  0  0  0  0
 13 18  2  0  0  0  0
 15 23  1  0  0  0  0
 16  2  1  0  0  0  0
 17  3  1  0  0  0  0
 18 25  1  0  0  0  0
 19 26  1  0  0  0  0
 20 22  1  0  0  0  0
 20 17  2  0  0  0  0
 22 10  2  0  0  0  0
 23 14  1  0  0  0  0
 26 17  1  0  0  0  0
 26 25  2  0  0  0  0
 27 24  2  0  0  0  0
 27  7  1  0  0  0  0
 29 30  1  0  0  0  0
 30 28  1  0  0  0  0
M  END
>  <MODEL>
7

>  <REMARK>
 VINA RESULT:      -8.2      1.819      2.388
  Name = 
  2 active torsions:
  status: ('A' for Active; 'I' for Inactive)
    1  A    between atoms: C_11  and  C_28
    2  A    between atoms: C_28  and  C_30
                            x       y       z     vdW  Elec       q    Type
                         _______ _______ _______ _____ _____    ______ ____

>  <TORSDO>
F 2

$$$$
=
 OpenBabel11112416263D

 30 35  0  0  1  0  0  0  0  0999 V2000
  189.8680  174.6230  143.4300 C   0  0  0  0  0  0  0  0  0  0  0  0
  190.5470  173.6280  141.2290 C   0  0  0  0  0  0  0  0  0  0  0  0
  186.5240  176.2880  141.7590 O   0  0  0  0  0  0  0  0  0  0  0  0
  188.9310  175.3700  144.1900 C   0  0  0  0  0  0  0  0  0  0  0  0
  191.0640  174.0770  144.1680 C   0  0  0  0  0  2  0  0  0  0  0  0
  190.8030  177.2500  145.8340 O   0  0  0  0  0  1  0  0  0  0  0  0
  187.6790  177.5010  146.1550 C   0  0  1  0  0  3  0  0  0  0  0  0
  190.6410  175.8730  145.9900 C   0  0  2  0  0  3  0  0  0  0  0  0
  186.6060  177.3770  145.1950 N   0  0  0  0  0  0  0  0  0  0  0  0
  185.9930  176.9290  142.7790 C   0  0  0  0  0  0  0  0  0  0  0  0
  191.6670  175.1410  145.0990 C   0  0  1  0  0  3  0  0  0  0  0  0
  189.1940  175.4620  145.6800 C   0  0  1  0  0  3  0  0  0  0  0  0
  190.2760  173.4320  139.8720 C   0  0  0  0  0  3  0  0  0  0  0  0
  185.4100  178.0950  145.5910 C   0  0  0  0  0  2  0  0  0  0  0  0
  187.0980  178.2560  147.3400 C   0  0  0  0  0  2  0  0  0  0  0  0
  191.7050  173.0590  141.7470 O   0  0  0  0  0  1  0  0  0  0  0  0
  187.6180  175.6940  142.1780 C   0  0  0  0  0  0  0  0  0  0  0  0
  189.1350  173.9740  139.2850 C   0  0  0  0  0  3  0  0  0  0  0  0
  189.6560  174.3870  142.0340 C   0  0  0  0  0  0  0  0  0  0  0  0
  187.8270  175.9260  143.5160 C   0  0  0  0  0  0  0  0  0  0  0  0
  184.7510  177.7420  142.6680 C   0  0  0  0  0  1  0  0  0  0  0  0
  186.7760  176.7430  143.9160 C   0  0  0  0  0  0  0  0  0  0  0  0
  185.7690  178.8280  146.8710 C   0  0  0  0  0  2  0  0  0  0  0  0
  187.7050  175.5470  147.4940 O   0  0  0  0  0  0  0  0  0  0  0  0
  188.2470  174.7240  140.0530 C   0  0  0  0  0  3  0  0  0  0  0  0
  188.4960  174.9330  141.4120 C   0  0  0  0  0  0  0  0  0  0  0  0
  188.1710  176.1410  146.5330 C   0  0  0  0  0  0  0  0  0  0  0  0
  192.8240  174.5790  145.9190 C   0  0  0  0  0  2  0  0  0  0  0  0
  194.8340  173.2130  145.4390 C   0  0  0  0  0  1  0  0  0  0  0  0
  193.3230  173.2520  145.3670 C   0  0  0  0  0  2  0  0  0  0  0  0
  1  5  1  0  0  0  0
  1  4  1  0  0  0  0
  2 16  1  0  0  0  0
  2 19  1  0  0  0  0
  3 17  1  0  0  0  0
  3 10  1  0  0  0  0
  5 11  1  0  0  0  0
  7 27  1  0  0  0  0
  7 15  1  1  0  0  0
  8  6  1  6  0  0  0
  9 14  1  0  0  0  0
  9  7  1  0  0  0  0
 10 22  2  0  0  0  0
 11 28  1  1  0  0  0
 11  8  1  0  0  0  0
 12  4  1  6  0  0  0
 12  8  1  0  0  0  0
 12 27  1  0  0  0  0
 13  2  2  0  0  0  0
 14 23  1  0  0  0  0
 17 20  1  0  0  0  0
 18 13  1  0  0  0  0
 18 25  2  0  0  0  0
 19  1  2  0  0  0  0
 20 22  1  0  0  0  0
 20  4  2  0  0  0  0
 21 10  1  0  0  0  0
 22  9  1  0  0  0  0
 23 15  1  0  0  0  0
 25 26  1  0  0  0  0
 26 19  1  0  0  0  0
 26 17  2  0  0  0  0
 27 24  2  0  0  0  0
 30 29  1  0  0  0  0
 30 28  1  0  0  0  0
M  END
>  <MODEL>
8

>  <REMARK>
 VINA RESULT:      -8.0      2.133      7.244
  Name = 
  2 active torsions:
  status: ('A' for Active; 'I' for Inactive)
    1  A    between atoms: C_11  and  C_28
    2  A    between atoms: C_28  and  C_30
                            x       y       z     vdW  Elec       q    Type
                         _______ _______ _______ _____ _____    ______ ____

>  <TORSDO>
F 2

$$$$
=
 OpenBabel11112416263D

 30 35  0  0  1  0  0  0  0  0999 V2000
  188.4280  176.2060  144.3050 C   0  0  0  0  0  0  0  0  0  0  0  0
  186.5230  177.7830  144.7300 C   0  0  0  0  0  0  0  0  0  0  0  0
  187.3090  175.7490  140.3950 O   0  0  0  0  0  0  0  0  0  0  0  0
  189.1560  175.3950  143.3980 C   0  0  0  0  0  0  0  0  0  0  0  0
  188.9420  176.2760  145.7210 C   0  0  0  0  0  2  0  0  0  0  0  0
  189.5980  172.8020  145.0780 O   0  0  0  0  0  1  0  0  0  0  0  0
  190.6640  172.9340  142.1160 C   0  0  1  0  0  3  0  0  0  0  0  0
  190.1940  174.0490  145.2770 C   0  0  2  0  0  3  0  0  0  0  0  0
  190.1120  173.5430  140.9270 N   0  0  0  0  0  0  0  0  0  0  0  0
  188.1970  174.8840  139.9520 C   0  0  0  0  0  0  0  0  0  0  0  0
  189.3160  174.8780  146.2390 C   0  0  1  0  0  3  0  0  0  0  0  0
  190.4230  174.7570  143.9330 C   0  0  1  0  0  3  0  0  0  0  0  0
  185.4110  178.4740  144.2380 C   0  0  0  0  0  3  0  0  0  0  0  0
  190.5860  172.9230  139.7060 C   0  0  0  0  0  2  0  0  0  0  0  0
  191.6830  171.9150  141.6320 C   0  0  0  0  0  2  0  0  0  0  0  0
  186.8520  177.9560  146.0700 O   0  0  0  0  0  1  0  0  0  0  0  0
  187.5730  175.9880  141.6600 C   0  0  0  0  0  0  0  0  0  0  0  0
  185.0220  178.3470  142.9070 C   0  0  0  0  0  3  0  0  0  0  0  0
  187.2770  176.9380  143.8720 C   0  0  0  0  0  0  0  0  0  0  0  0
  188.6740  175.2800  142.0800 C   0  0  0  0  0  0  0  0  0  0  0  0
  188.1910  174.3570  138.5590 C   0  0  0  0  0  1  0  0  0  0  0  0
  189.0820  174.5450  140.9730 C   0  0  0  0  0  0  0  0  0  0  0  0
  191.4440  171.7490  140.1390 C   0  0  0  0  0  2  0  0  0  0  0  0
  192.4620  174.2790  142.8710 O   0  0  0  0  0  0  0  0  0  0  0  0
  185.7430  177.5220  142.0460 C   0  0  0  0  0  3  0  0  0  0  0  0
  186.8590  176.8230  142.5140 C   0  0  0  0  0  0  0  0  0  0  0  0
  191.2790  173.9890  142.9780 C   0  0  0  0  0  0  0  0  0  0  0  0
  189.9210  174.9400  147.6380 C   0  0  0  0  0  2  0  0  0  0  0  0
  191.5660  176.7150  148.1700 C   0  0  0  0  0  1  0  0  0  0  0  0
  191.3930  175.3210  147.6070 C   0  0  0  0  0  2  0  0  0  0  0  0
  1  5  1  0  0  0  0
  2 16  1  0  0  0  0
  3 17  1  0  0  0  0
  4 12  1  0  0  0  0
  4  1  2  0  0  0  0
  5 11  1  0  0  0  0
  7 15  1  6  0  0  0
  7 27  1  0  0  0  0
  8  6  1  6  0  0  0
  8 11  1  0  0  0  0
  9 22  1  0  0  0  0
  9  7  1  0  0  0  0
 10  3  1  0  0  0  0
 10 22  2  0  0  0  0
 11 28  1  1  0  0  0
 12 27  1  6  0  0  0
 12  8  1  0  0  0  0
 13  2  1  0  0  0  0
 14 23  1  0  0  0  0
 14  9  1  0  0  0  0
 17 20  2  0  0  0  0
 17 26  1  0  0  0  0
 18 13  2  0  0  0  0
 19  1  1  0  0  0  0
 19  2  2  0  0  0  0
 20  4  1  0  0  0  0
 21 10  1  0  0  0  0
 22 20  1  0  0  0  0
 23 15  1  0  0  0  0
 24 27  2  0  0  0  0
 25 26  2  0  0  0  0
 25 18  1  0  0  0  0
 26 19  1  0  0  0  0
 30 28  1  0  0  0  0
 30 29  1  0  0  0  0
M  END
>  <MODEL>
9

>  <REMARK>
 VINA RESULT:      -8.0      2.488      5.657
  Name = 
  2 active torsions:
  status: ('A' for Active; 'I' for Inactive)
    1  A    between atoms: C_11  and  C_28
    2  A    between atoms: C_28  and  C_30
                            x       y       z     vdW  Elec       q    Type
                         _______ _______ _______ _____ _____    ______ ____

>  <TORSDO>
F 2

$$$$
