=
 OpenBabel11112417343D

 28 32  0  0  1  0  0  0  0  0999 V2000
  187.6010  177.7260  144.7710 C   0  0  0  0  0  0  0  0  0  0  0  0
  192.7380  177.0940  144.8010 O   0  0  0  0  0  0  0  0  0  0  0  0
  189.3090  174.0960  140.0000 C   0  0  0  0  0  1  0  0  0  0  0  0
  187.3260  176.3780  147.2120 C   0  0  0  0  0  3  0  0  0  0  0  0
  189.4450  173.0010  142.2310 C   0  0  1  0  0  3  0  0  0  0  0  0
  187.6790  178.4320  143.4520 C   0  0  0  0  0  2  0  0  0  0  0  0
  191.2820  176.9250  146.7830 O   0  0  0  0  0  0  0  0  0  0  0  0
  191.8800  176.1780  145.6260 S   0  0  0  0  0  0  0  0  0  0  0  0
  193.0420  173.7830  145.1020 C   0  0  1  0  0  3  0  0  0  0  0  0
  190.6310  175.4570  144.6370 C   0  0  2  0  0  3  0  0  0  0  0  0
  185.9550  175.8400  143.0890 O   0  0  0  0  0  1  0  0  0  0  0  0
  188.8660  174.9950  143.2550 C   0  0  2  0  0  3  0  0  0  0  0  0
  191.7650  173.3000  144.5730 N   0  0  0  0  0  0  0  0  0  0  0  0
  192.8430  174.8010  146.2250 C   0  0  0  0  0  2  0  0  0  0  0  0
  186.3700  176.7010  142.0690 C   0  0  2  0  0  3  0  0  0  0  0  0
  188.4340  176.6260  145.0580 C   0  0  0  0  0  0  0  0  0  0  0  0
  188.5370  173.8040  141.2750 C   0  0  1  0  0  3  0  0  0  0  0  0
  193.8560  172.6120  145.6100 C   0  0  0  0  0  1  0  0  0  0  0  0
  187.6620  176.2430  141.3810 C   0  0  0  0  0  2  0  0  0  0  0  0
  188.2690  175.9450  146.2780 C   0  0  0  0  0  3  0  0  0  0  0  0
  186.6610  178.1550  145.7160 C   0  0  0  0  0  3  0  0  0  0  0  0
  186.5260  177.4870  146.9330 C   0  0  0  0  0  3  0  0  0  0  0  0
  186.4600  178.1450  142.5700 C   0  0  0  0  0  2  0  0  0  0  0  0
  189.5480  173.8960  143.4180 C   0  0  2  0  0  3  0  0  0  0  0  0
  188.2350  175.0450  141.9900 N   0  0  2  0  0  0  0  0  0  0  0  0
  190.6880  174.1900  144.2590 C   0  0  0  0  0  0  0  0  0  0  0  0
  188.8080  171.8150  142.5960 O   0  0  0  0  0  1  0  0  0  0  0  0
  189.4350  176.1430  144.0330 C   0  0  1  0  0  3  0  0  0  0  0  0
  1 16  2  0  0  0  0
  1 21  1  0  0  0  0
  2  8  2  0  0  0  0
  3 17  1  0  0  0  0
  5 27  1  1  0  0  0
  5 24  1  0  0  0  0
  6  1  1  0  0  0  0
  8 14  1  0  0  0  0
  8  7  2  0  0  0  0
  9 18  1  1  0  0  0
  9 14  1  0  0  0  0
 10 26  1  6  0  0  0
 10  8  1  0  0  0  0
 12 24  1  0  0  0  0
 12 28  1  0  0  0  0
 13  9  1  0  0  0  0
 15 23  1  0  0  0  0
 15 11  1  0  0  0  0
 16 20  1  0  0  0  0
 17 25  1  0  0  0  0
 17  5  1  0  0  0  0
 19 25  1  0  0  0  0
 19 15  1  0  0  0  0
 20  4  2  0  0  0  0
 21 22  2  0  0  0  0
 22  4  1  0  0  0  0
 23  6  1  0  0  0  0
 24 26  1  0  0  0  0
 25 12  1  0  0  0  0
 26 13  2  0  0  0  0
 28 10  1  0  0  0  0
 28 16  1  0  0  0  0
M  END
>  <MODEL>
1

>  <REMARK>
 VINA RESULT:      -8.5      0.000      0.000
  Name = 
  0 active torsions:
  status: ('A' for Active; 'I' for Inactive)
                            x       y       z     vdW  Elec       q    Type
                         _______ _______ _______ _____ _____    ______ ____

>  <TORSDO>
F 0

$$$$
=
 OpenBabel11112417343D

 28 32  0  0  1  0  0  0  0  0999 V2000
  190.3580  175.1630  144.2110 C   0  0  0  0  0  0  0  0  0  0  0  0
  188.1100  178.8020  141.2970 O   0  0  0  0  0  0  0  0  0  0  0  0
  186.8830  178.8910  147.8000 C   0  0  0  0  0  1  0  0  0  0  0  0
  188.9260  173.1210  142.9330 C   0  0  0  0  0  3  0  0  0  0  0  0
  185.5790  177.3340  146.3600 C   0  0  1  0  0  3  0  0  0  0  0  0
  191.1330  176.2100  144.9500 C   0  0  0  0  0  2  0  0  0  0  0  0
  188.2150  176.4050  140.7320 O   0  0  0  0  0  0  0  0  0  0  0  0
  187.4390  177.4680  141.4540 S   0  0  0  0  0  0  0  0  0  0  0  0
  184.8640  178.2360  141.8350 C   0  0  1  0  0  3  0  0  0  0  0  0
  187.2630  177.0700  143.1470 C   0  0  2  0  0  3  0  0  0  0  0  0
  189.2840  174.7180  146.9930 O   0  0  0  0  0  1  0  0  0  0  0  0
  187.5370  176.5960  145.3700 C   0  0  2  0  0  3  0  0  0  0  0  0
  184.8750  177.5580  143.1340 N   0  0  0  0  0  0  0  0  0  0  0  0
  185.7710  177.5370  140.8220 C   0  0  0  0  0  2  0  0  0  0  0  0
  190.0660  175.8450  147.2630 C   0  0  2  0  0  3  0  0  0  0  0  0
  189.0250  175.3900  143.8120 C   0  0  0  0  0  0  0  0  0  0  0  0
  186.7240  177.4370  147.3890 C   0  0  1  0  0  3  0  0  0  0  0  0
  183.4490  178.2910  141.3030 C   0  0  0  0  0  1  0  0  0  0  0  0
  189.2910  177.1620  147.1360 C   0  0  0  0  0  2  0  0  0  0  0  0
  188.3120  174.3480  143.1920 C   0  0  0  0  0  3  0  0  0  0  0  0
  190.9670  173.9310  143.9430 C   0  0  0  0  0  3  0  0  0  0  0  0
  190.2560  172.9150  143.3030 C   0  0  0  0  0  3  0  0  0  0  0  0
  191.3450  175.8410  146.4220 C   0  0  0  0  0  2  0  0  0  0  0  0
  186.2660  176.7930  145.1540 C   0  0  2  0  0  3  0  0  0  0  0  0
  187.9160  176.9700  146.6800 N   0  0  2  0  0  0  0  0  0  0  0  0
  186.0910  177.1320  143.7590 C   0  0  0  0  0  0  0  0  0  0  0  0
  184.6290  176.4160  146.8070 O   0  0  0  0  0  1  0  0  0  0  0  0
  188.3550  176.7090  144.1190 C   0  0  1  0  0  3  0  0  0  0  0  0
  1  6  1  0  0  0  0
  2  8  2  0  0  0  0
  4 20  2  0  0  0  0
  4 22  1  0  0  0  0
  5 27  1  1  0  0  0
  5 17  1  0  0  0  0
  6 23  1  0  0  0  0
  7  8  2  0  0  0  0
  8 10  1  0  0  0  0
  9 18  1  6  0  0  0
  9 13  1  0  0  0  0
 10 26  1  1  0  0  0
 10 28  1  0  0  0  0
 11 15  1  0  0  0  0
 12 25  1  0  0  0  0
 13 26  2  0  0  0  0
 14  8  1  0  0  0  0
 14  9  1  0  0  0  0
 16 28  1  0  0  0  0
 16  1  2  0  0  0  0
 17  3  1  0  0  0  0
 19 15  1  0  0  0  0
 20 16  1  0  0  0  0
 21  1  1  0  0  0  0
 22 21  2  0  0  0  0
 23 15  1  0  0  0  0
 24 12  1  0  0  0  0
 24  5  1  0  0  0  0
 25 19  1  0  0  0  0
 25 17  1  0  0  0  0
 26 24  1  0  0  0  0
 28 12  1  0  0  0  0
M  END
>  <MODEL>
2

>  <REMARK>
 VINA RESULT:      -7.9      2.771      6.561
  Name = 
  0 active torsions:
  status: ('A' for Active; 'I' for Inactive)
                            x       y       z     vdW  Elec       q    Type
                         _______ _______ _______ _____ _____    ______ ____

>  <TORSDO>
F 0

$$$$
=
 OpenBabel11112417343D

 28 32  0  0  1  0  0  0  0  0999 V2000
  190.9570  173.8970  141.6860 C   0  0  0  0  0  0  0  0  0  0  0  0
  188.8710  178.6280  141.9230 O   0  0  0  0  0  0  0  0  0  0  0  0
  191.8260  176.3050  147.3700 C   0  0  0  0  0  1  0  0  0  0  0  0
  188.4480  172.7070  141.3030 C   0  0  0  0  0  3  0  0  0  0  0  0
  189.4850  175.6050  146.8910 C   0  0  1  0  0  3  0  0  0  0  0  0
  192.3220  174.4690  141.9150 C   0  0  0  0  0  2  0  0  0  0  0  0
  187.7800  176.6510  140.9340 O   0  0  0  0  0  0  0  0  0  0  0  0
  188.0080  177.4290  142.1970 S   0  0  0  0  0  0  0  0  0  0  0  0
  186.6190  178.2880  144.3640 C   0  0  1  0  0  3  0  0  0  0  0  0
  188.7350  176.4230  143.4270 C   0  0  0  0  0  0  0  0  0  0  0  0
  191.6510  172.5270  144.2810 O   0  0  0  0  0  1  0  0  0  0  0  0
  190.0760  175.0860  144.7140 C   0  0  2  0  0  3  0  0  0  0  0  0
  187.1530  177.1590  145.1290 N   0  0  0  0  0  2  0  0  0  0  0  0
  186.4430  177.9390  142.8860 C   0  0  0  0  0  2  0  0  0  0  0  0
  192.7740  173.3560  144.1900 C   0  0  2  0  0  3  0  0  0  0  0  0
  189.8280  174.4200  142.3490 C   0  0  0  0  0  0  0  0  0  0  0  0
  190.9620  175.1590  146.8710 C   0  0  1  0  0  3  0  0  0  0  0  0
  185.2920  178.7160  144.9510 C   0  0  0  0  0  1  0  0  0  0  0  0
  192.5920  174.7000  144.9070 C   0  0  0  0  0  2  0  0  0  0  0  0
  188.5790  173.7980  142.1650 C   0  0  0  0  0  3  0  0  0  0  0  0
  190.8140  172.8050  140.8200 C   0  0  0  0  0  3  0  0  0  0  0  0
  189.5650  172.2150  140.6260 C   0  0  0  0  0  3  0  0  0  0  0  0
  193.2130  173.5300  142.7340 C   0  0  0  0  0  2  0  0  0  0  0  0
  189.0900  175.5020  145.4580 C   0  0  2  0  0  3  0  0  0  0  0  0
  191.2530  174.8680  145.4660 N   0  0  2  0  0  0  0  0  0  0  0  0
  188.2600  176.3800  144.6620 C   0  0  0  0  0  0  0  0  0  0  0  0
  188.7330  174.7060  147.6470 O   0  0  0  0  0  1  0  0  0  0  0  0
  189.9780  175.5820  143.3030 C   0  0  1  0  0  3  0  0  0  0  0  0
  1  6  1  0  0  0  0
  1 16  1  0  0  0  0
  2  8  2  0  0  0  0
  4 20  1  0  0  0  0
  5 27  1  1  0  0  0
  6 23  1  0  0  0  0
  7  8  2  0  0  0  0
  8 14  1  0  0  0  0
  8 10  1  0  0  0  0
  9 18  1  1  0  0  0
  9 13  1  0  0  0  0
 10 26  2  0  0  0  0
 12 24  1  0  0  0  0
 12 25  1  0  0  0  0
 14  9  1  0  0  0  0
 15 11  1  0  0  0  0
 15 19  1  0  0  0  0
 16 28  1  0  0  0  0
 17  5  1  0  0  0  0
 17  3  1  0  0  0  0
 19 25  1  0  0  0  0
 20 16  2  0  0  0  0
 21  1  2  0  0  0  0
 22 21  1  0  0  0  0
 22  4  2  0  0  0  0
 23 15  1  0  0  0  0
 24  5  1  0  0  0  0
 25 17  1  0  0  0  0
 26 13  1  0  0  0  0
 26 24  1  0  0  0  0
 28 10  1  0  0  0  0
 28 12  1  0  0  0  0
M  END
>  <MODEL>
3

>  <REMARK>
 VINA RESULT:      -7.9      2.296      6.278
  Name = 
  0 active torsions:
  status: ('A' for Active; 'I' for Inactive)
                            x       y       z     vdW  Elec       q    Type
                         _______ _______ _______ _____ _____    ______ ____

>  <TORSDO>
F 0

$$$$
=
 OpenBabel11112417343D

 28 32  0  0  1  0  0  0  0  0999 V2000
  188.9460  175.6170  145.9040 C   0  0  0  0  0  0  0  0  0  0  0  0
  188.6790  171.9160  142.2950 O   0  0  0  0  0  0  0  0  0  0  0  0
  194.6780  173.5860  144.5350 C   0  0  0  0  0  1  0  0  0  0  0  0
  187.9470  177.5460  144.1330 C   0  0  0  0  0  3  0  0  0  0  0  0
  193.6310  174.9910  142.7670 C   0  0  1  0  0  3  0  0  0  0  0  0
  189.5090  174.6390  146.8890 C   0  0  0  0  0  2  0  0  0  0  0  0
  187.4410  174.0470  142.2270 O   0  0  0  0  0  0  0  0  0  0  0  0
  188.7250  173.3550  141.8700 S   0  0  0  0  0  0  0  0  0  0  0  0
  190.4840  173.2200  139.8080 C   0  0  1  0  0  3  0  0  0  0  0  0
  190.0930  174.1630  142.5990 C   0  0  2  0  0  3  0  0  0  0  0  0
  191.6260  176.9000  146.4160 O   0  0  0  0  0  1  0  0  0  0  0  0
  191.6660  175.0780  143.9880 C   0  0  2  0  0  3  0  0  0  0  0  0
  191.3530  174.1660  140.5120 N   0  0  0  0  0  0  0  0  0  0  0  0
  189.0070  173.4710  140.1110 C   0  0  0  0  0  2  0  0  0  0  0  0
  191.8200  175.7350  147.1650 C   0  0  2  0  0  3  0  0  0  0  0  0
  189.3110  175.5700  144.5420 C   0  0  0  0  0  0  0  0  0  0  0  0
  193.9760  174.9070  144.2690 C   0  0  1  0  0  3  0  0  0  0  0  0
  190.7250  173.3220  138.3170 C   0  0  0  0  0  1  0  0  0  0  0  0
  192.4750  174.6040  146.3620 C   0  0  0  0  0  2  0  0  0  0  0  0
  188.8190  176.5590  143.6710 C   0  0  0  0  0  3  0  0  0  0  0  0
  188.0670  176.6080  146.3580 C   0  0  0  0  0  3  0  0  0  0  0  0
  187.5660  177.5660  145.4760 C   0  0  0  0  0  3  0  0  0  0  0  0
  190.5190  175.2910  147.8380 C   0  0  0  0  0  2  0  0  0  0  0  0
  192.1440  175.0900  142.7750 C   0  0  2  0  0  3  0  0  0  0  0  0
  192.6860  174.9520  144.9590 N   0  0  2  0  0  0  0  0  0  0  0  0
  191.1710  174.4770  141.8980 C   0  0  0  0  0  0  0  0  0  0  0  0
  194.1730  176.1570  142.2260 O   0  0  0  0  0  1  0  0  0  0  0  0
  190.2770  174.5180  144.0510 C   0  0  1  0  0  3  0  0  0  0  0  0
  1 21  1  0  0  0  0
  1  6  1  0  0  0  0
  4 22  1  0  0  0  0
  5 27  1  1  0  0  0
  5 24  1  0  0  0  0
  5 17  1  0  0  0  0
  6 23  1  0  0  0  0
  8  7  2  0  0  0  0
  8  2  2  0  0  0  0
  8 10  1  0  0  0  0
  9 18  1  6  0  0  0
  9 14  1  0  0  0  0
  9 13  1  0  0  0  0
 10 26  1  1  0  0  0
 10 28  1  0  0  0  0
 11 15  1  0  0  0  0
 12 28  1  0  0  0  0
 12 25  1  0  0  0  0
 13 26  2  0  0  0  0
 14  8  1  0  0  0  0
 15 23  1  0  0  0  0
 16  1  2  0  0  0  0
 17  3  1  0  0  0  0
 17 25  1  0  0  0  0
 19 15  1  0  0  0  0
 20  4  2  0  0  0  0
 20 16  1  0  0  0  0
 22 21  2  0  0  0  0
 24 12  1  0  0  0  0
 25 19  1  0  0  0  0
 26 24  1  0  0  0  0
 28 16  1  0  0  0  0
M  END
>  <MODEL>
4

>  <REMARK>
 VINA RESULT:      -7.6      2.044      5.295
  Name = 
  0 active torsions:
  status: ('A' for Active; 'I' for Inactive)
                            x       y       z     vdW  Elec       q    Type
                         _______ _______ _______ _____ _____    ______ ____

>  <TORSDO>
F 0

$$$$
=
 OpenBabel11112417343D

 28 32  0  0  1  0  0  0  0  0999 V2000
  186.3210  178.5990  145.4100 C   0  0  0  0  0  0  0  0  0  0  0  0
  191.2890  179.1160  144.0540 O   0  0  0  0  0  0  0  0  0  0  0  0
  186.9760  177.4540  139.3170 C   0  0  0  0  0  1  0  0  0  0  0  0
  186.9020  176.4150  147.0680 C   0  0  0  0  0  3  0  0  0  0  0  0
  187.8610  175.6660  140.8050 C   0  0  1  0  0  3  0  0  0  0  0  0
  185.9410  179.7420  144.5200 C   0  0  0  0  0  2  0  0  0  0  0  0
  190.4880  177.9160  146.0520 O   0  0  0  0  0  0  0  0  0  0  0  0
  190.8070  177.7980  144.5900 S   0  0  0  0  0  0  0  0  0  0  0  0
  192.0230  176.0770  142.8810 C   0  0  1  0  0  3  0  0  0  0  0  0
  189.4130  177.2470  143.6900 C   0  0  2  0  0  3  0  0  0  0  0  0
  184.4770  177.1660  143.5020 O   0  0  0  0  0  1  0  0  0  0  0  0
  187.3880  176.9640  142.6630 C   0  0  2  0  0  3  0  0  0  0  0  0
  190.7070  175.5640  142.4920 N   0  0  0  0  0  0  0  0  0  0  0  0
  192.0450  176.5380  144.3390 C   0  0  0  0  0  2  0  0  0  0  0  0
  184.4870  178.4110  142.8670 C   0  0  2  0  0  3  0  0  0  0  0  0
  187.3150  177.6760  145.0260 C   0  0  0  0  0  0  0  0  0  0  0  0
  186.6380  176.5520  140.4920 C   0  0  1  0  0  3  0  0  0  0  0  0
  193.0700  175.0050  142.6680 C   0  0  0  0  0  1  0  0  0  0  0  0
  185.5710  178.5290  141.7870 C   0  0  0  0  0  2  0  0  0  0  0  0
  187.5800  176.5730  145.8570 C   0  0  0  0  0  3  0  0  0  0  0  0
  185.6490  178.4350  146.6280 C   0  0  0  0  0  3  0  0  0  0  0  0
  185.9410  177.3500  147.4560 C   0  0  0  0  0  3  0  0  0  0  0  0
  184.5600  179.5490  143.8880 C   0  0  0  0  0  2  0  0  0  0  0  0
  188.2020  176.0560  142.2020 C   0  0  2  0  0  3  0  0  0  0  0  0
  186.4200  177.3430  141.7030 N   0  0  2  0  0  0  0  0  0  0  0  0
  189.4960  176.2540  142.8190 C   0  0  0  0  0  0  0  0  0  0  0  0
  187.4880  174.3220  140.7740 O   0  0  0  0  0  1  0  0  0  0  0  0
  188.0270  177.8340  143.7020 C   0  0  1  0  0  3  0  0  0  0  0  0
  1 21  1  0  0  0  0
  2  8  2  0  0  0  0
  3 17  1  0  0  0  0
  4 22  1  0  0  0  0
  5 27  1  1  0  0  0
  5 24  1  0  0  0  0
  6  1  1  0  0  0  0
  8  7  2  0  0  0  0
  9 18  1  1  0  0  0
  9 14  1  0  0  0  0
 10 26  1  6  0  0  0
 10 28  1  0  0  0  0
 10  8  1  0  0  0  0
 12 28  1  0  0  0  0
 13 26  2  0  0  0  0
 13  9  1  0  0  0  0
 14  8  1  0  0  0  0
 15 11  1  0  0  0  0
 15 23  1  0  0  0  0
 16  1  2  0  0  0  0
 16 20  1  0  0  0  0
 17  5  1  0  0  0  0
 17 25  1  0  0  0  0
 19 15  1  0  0  0  0
 20  4  2  0  0  0  0
 21 22  2  0  0  0  0
 23  6  1  0  0  0  0
 24 12  1  0  0  0  0
 24 26  1  0  0  0  0
 25 19  1  0  0  0  0
 25 12  1  0  0  0  0
 28 16  1  0  0  0  0
M  END
>  <MODEL>
5

>  <REMARK>
 VINA RESULT:      -7.5      2.107      2.633
  Name = 
  0 active torsions:
  status: ('A' for Active; 'I' for Inactive)
                            x       y       z     vdW  Elec       q    Type
                         _______ _______ _______ _____ _____    ______ ____

>  <TORSDO>
F 0

$$$$
=
 OpenBabel11112417343D

 28 32  0  0  1  0  0  0  0  0999 V2000
  192.8360  174.3610  144.6880 C   0  0  0  0  0  0  0  0  0  0  0  0
  188.6030  174.6870  147.6490 O   0  0  0  0  0  0  0  0  0  0  0  0
  187.8170  172.6920  141.3880 C   0  0  0  0  0  1  0  0  0  0  0  0
  193.2620  177.1270  144.8280 C   0  0  0  0  0  3  0  0  0  0  0  0
  187.9840  175.1320  141.8510 C   0  0  1  0  0  3  0  0  0  0  0  0
  192.6470  172.8820  144.5520 C   0  0  0  0  0  2  0  0  0  0  0  0
  190.3750  176.3970  147.5240 O   0  0  0  0  0  0  0  0  0  0  0  0
  189.0880  175.9090  146.9230 S   0  0  0  0  0  0  0  0  0  0  0  0
  186.7450  176.9080  145.9880 C   0  0  1  0  0  3  0  0  0  0  0  0
  189.2850  175.5680  145.2200 C   0  0  2  0  0  3  0  0  0  0  0  0
  192.4600  174.1700  141.7020 O   0  0  0  0  0  1  0  0  0  0  0  0
  189.8620  174.7650  143.1550 C   0  0  2  0  0  3  0  0  0  0  0  0
  187.2630  176.7920  144.6220 N   0  0  0  0  0  0  0  0  0  0  0  0
  187.8580  177.1990  146.9950 C   0  0  0  0  0  2  0  0  0  0  0  0
  192.2090  172.8310  142.0170 C   0  0  2  0  0  3  0  0  0  0  0  0
  191.7320  175.2380  144.6970 C   0  0  0  0  0  0  0  0  0  0  0  0
  188.7350  173.9000  141.3040 C   0  0  1  0  0  3  0  0  0  0  0  0
  185.7030  178.0030  146.0440 C   0  0  0  0  0  1  0  0  0  0  0  0
  190.7240  172.5360  142.2590 C   0  0  0  0  0  2  0  0  0  0  0  0
  191.9620  176.6250  144.7450 C   0  0  0  0  0  3  0  0  0  0  0  0
  194.1360  174.8750  144.7760 C   0  0  0  0  0  3  0  0  0  0  0  0
  194.3490  176.2520  144.8500 C   0  0  0  0  0  3  0  0  0  0  0  0
  193.0900  172.3660  143.1790 C   0  0  0  0  0  2  0  0  0  0  0  0
  188.8260  175.5440  143.0090 C   0  0  2  0  0  3  0  0  0  0  0  0
  189.8880  173.7330  142.1900 N   0  0  2  0  0  0  0  0  0  0  0  0
  188.4320  176.0240  144.3160 C   0  0  0  0  0  0  0  0  0  0  0  0
  187.9830  176.1440  140.8910 O   0  0  0  0  0  1  0  0  0  0  0  0
  190.3270  174.6920  144.5780 C   0  0  1  0  0  3  0  0  0  0  0  0
  1 16  2  0  0  0  0
  1 21  1  0  0  0  0
  4 22  1  0  0  0  0
  5 27  1  6  0  0  0
  5 24  1  0  0  0  0
  6  1  1  0  0  0  0
  8 14  1  0  0  0  0
  8  7  2  0  0  0  0
  8  2  2  0  0  0  0
  9 18  1  6  0  0  0
  9 14  1  0  0  0  0
 10 26  1  1  0  0  0
 10  8  1  0  0  0  0
 11 15  1  0  0  0  0
 12 28  1  0  0  0  0
 13  9  1  0  0  0  0
 15 19  1  0  0  0  0
 15 23  1  0  0  0  0
 16 20  1  0  0  0  0
 17  3  1  0  0  0  0
 17  5  1  0  0  0  0
 17 25  1  0  0  0  0
 20  4  2  0  0  0  0
 21 22  2  0  0  0  0
 23  6  1  0  0  0  0
 24 12  1  0  0  0  0
 24 26  1  0  0  0  0
 25 19  1  0  0  0  0
 25 12  1  0  0  0  0
 26 13  2  0  0  0  0
 28 16  1  0  0  0  0
 28 10  1  0  0  0  0
M  END
>  <MODEL>
6

>  <REMARK>
 VINA RESULT:      -7.4      2.033      5.373
  Name = 
  0 active torsions:
  status: ('A' for Active; 'I' for Inactive)
                            x       y       z     vdW  Elec       q    Type
                         _______ _______ _______ _____ _____    ______ ____

>  <TORSDO>
F 0

$$$$
=
 OpenBabel11112417343D

 28 32  0  0  1  0  0  0  0  0999 V2000
  186.3160  176.6510  143.2420 C   0  0  0  0  0  0  0  0  0  0  0  0
  188.6830  172.2120  142.0270 O   0  0  0  0  0  0  0  0  0  0  0  0
  190.6540  175.3320  147.5200 C   0  0  0  0  0  1  0  0  0  0  0  0
  187.3020  177.9160  140.9440 C   0  0  0  0  0  3  0  0  0  0  0  0
  191.5610  176.0870  145.3280 C   0  0  1  0  0  3  0  0  0  0  0  0
  185.7800  176.0410  144.5000 C   0  0  0  0  0  2  0  0  0  0  0  0
  188.1910  174.0310  140.4380 O   0  0  0  0  0  0  0  0  0  0  0  0
  189.1820  173.4970  141.4320 S   0  0  0  0  0  0  0  0  0  0  0  0
  191.8630  173.1720  141.6940 C   0  0  1  0  0  3  0  0  0  0  0  0
  189.4970  174.6690  142.6900 C   0  0  2  0  0  3  0  0  0  0  0  0
  187.6340  178.4450  145.2770 O   0  0  0  0  0  1  0  0  0  0  0  0
  189.4200  176.1330  144.4480 C   0  0  2  0  0  3  0  0  0  0  0  0
  191.9110  174.3880  142.5100 N   0  0  0  0  0  0  0  0  0  0  0  0
  190.7590  173.2400  140.6380 C   0  0  0  0  0  2  0  0  0  0  0  0
  187.0480  177.5380  146.1650 C   0  0  2  0  0  3  0  0  0  0  0  0
  187.6130  176.3460  142.7800 C   0  0  0  0  0  0  0  0  0  0  0  0
  190.5660  176.4180  146.4610 C   0  0  1  0  0  3  0  0  0  0  0  0
  193.2020  172.9590  141.0220 C   0  0  0  0  0  1  0  0  0  0  0  0
  187.9740  176.3740  146.5390 C   0  0  0  0  0  2  0  0  0  0  0  0
  188.1020  177.0050  141.6380 C   0  0  0  0  0  3  0  0  0  0  0  0
  185.5200  177.5620  142.5370 C   0  0  0  0  0  3  0  0  0  0  0  0
  186.0080  178.1890  141.3900 C   0  0  0  0  0  3  0  0  0  0  0  0
  185.6920  177.0560  145.6440 C   0  0  0  0  0  2  0  0  0  0  0  0
  190.6720  175.9380  144.1420 C   0  0  2  0  0  3  0  0  0  0  0  0
  189.2480  176.4110  145.8240 N   0  0  2  0  0  0  0  0  0  0  0  0
  190.7290  174.9830  143.0570 C   0  0  0  0  0  0  0  0  0  0  0  0
  192.4230  177.1660  145.1320 O   0  0  0  0  0  1  0  0  0  0  0  0
  188.4860  175.3820  143.5490 C   0  0  1  0  0  3  0  0  0  0  0  0
  1  6  1  0  0  0  0
  4 22  2  0  0  0  0
  4 20  1  0  0  0  0
  5 27  1  6  0  0  0
  5 17  1  0  0  0  0
  6 23  1  0  0  0  0
  7  8  2  0  0  0  0
  8  2  2  0  0  0  0
  8 10  1  0  0  0  0
  9 18  1  6  0  0  0
  9 13  1  0  0  0  0
 10 26  1  1  0  0  0
 10 28  1  0  0  0  0
 11 15  1  0  0  0  0
 12 25  1  0  0  0  0
 13 26  2  0  0  0  0
 14  8  1  0  0  0  0
 14  9  1  0  0  0  0
 15 19  1  0  0  0  0
 16  1  1  0  0  0  0
 16 28  1  0  0  0  0
 17  3  1  0  0  0  0
 20 16  2  0  0  0  0
 21  1  2  0  0  0  0
 22 21  1  0  0  0  0
 23 15  1  0  0  0  0
 24 12  1  0  0  0  0
 24  5  1  0  0  0  0
 25 17  1  0  0  0  0
 25 19  1  0  0  0  0
 26 24  1  0  0  0  0
 28 12  1  0  0  0  0
M  END
>  <MODEL>
7

>  <REMARK>
 VINA RESULT:      -7.3      2.247      4.711
  Name = 
  0 active torsions:
  status: ('A' for Active; 'I' for Inactive)
                            x       y       z     vdW  Elec       q    Type
                         _______ _______ _______ _____ _____    ______ ____

>  <TORSDO>
F 0

$$$$
=
 OpenBabel11112417343D

 28 32  0  0  1  0  0  0  0  0999 V2000
  190.4880  177.2810  144.9510 C   0  0  0  0  0  0  0  0  0  0  0  0
  195.5620  176.5120  144.2740 O   0  0  0  0  0  0  0  0  0  0  0  0
  191.3970  172.7380  140.7810 C   0  0  0  0  0  1  0  0  0  0  0  0
  190.6220  176.4460  147.6220 C   0  0  0  0  0  3  0  0  0  0  0  0
  191.9010  172.0970  143.1330 C   0  0  1  0  0  3  0  0  0  0  0  0
  190.3460  177.7120  143.5230 C   0  0  0  0  0  2  0  0  0  0  0  0
  194.4520  176.7790  146.4590 O   0  0  0  0  0  0  0  0  0  0  0  0
  194.8530  175.8020  145.3910 S   0  0  0  0  0  0  0  0  0  0  0  0
  195.9200  173.3170  145.1710 C   0  0  1  0  0  3  0  0  0  0  0  0
  193.4610  174.9400  144.7800 C   0  0  0  0  0  0  0  0  0  0  0  0
  188.5930  175.1530  143.9650 O   0  0  0  0  0  1  0  0  0  0  0  0
  191.4940  174.2690  143.8210 C   0  0  2  0  0  3  0  0  0  0  0  0
  194.5740  172.7790  144.9620 N   0  0  0  0  0  2  0  0  0  0  0  0
  195.9060  174.5410  146.0880 C   0  0  0  0  0  2  0  0  0  0  0  0
  188.8320  175.7850  142.7410 C   0  0  2  0  0  3  0  0  0  0  0  0
  191.3600  176.2340  145.3110 C   0  0  0  0  0  0  0  0  0  0  0  0
  190.8470  172.7240  142.1970 C   0  0  1  0  0  3  0  0  0  0  0  0
  196.8090  172.2450  145.7630 C   0  0  0  0  0  1  0  0  0  0  0  0
  189.9940  175.1620  141.9580 C   0  0  0  0  0  2  0  0  0  0  0  0
  191.4000  175.8100  146.6520 C   0  0  0  0  0  3  0  0  0  0  0  0
  189.7150  177.9150  145.9320 C   0  0  0  0  0  3  0  0  0  0  0  0
  189.7850  177.5030  147.2630 C   0  0  0  0  0  3  0  0  0  0  0  0
  188.9990  177.2950  142.9250 C   0  0  0  0  0  2  0  0  0  0  0  0
  192.1960  173.2030  144.0860 C   0  0  2  0  0  3  0  0  0  0  0  0
  190.6630  174.0900  142.6910 N   0  0  2  0  0  0  0  0  0  0  0  0
  193.4580  173.6220  144.6560 C   0  0  0  0  0  0  0  0  0  0  0  0
  191.3360  171.0250  143.8230 O   0  0  0  0  0  1  0  0  0  0  0  0
  192.1800  175.5300  144.2540 C   0  0  1  0  0  3  0  0  0  0  0  0
  1 16  2  0  0  0  0
  1 21  1  0  0  0  0
  2  8  2  0  0  0  0
  3 17  1  0  0  0  0
  5 27  1  1  0  0  0
  5 24  1  0  0  0  0
  6  1  1  0  0  0  0
  8 14  1  0  0  0  0
  8  7  2  0  0  0  0
  9 18  1  1  0  0  0
  9 14  1  0  0  0  0
 10  8  1  0  0  0  0
 12 24  1  0  0  0  0
 12 28  1  0  0  0  0
 13  9  1  0  0  0  0
 15 23  1  0  0  0  0
 15 11  1  0  0  0  0
 16 20  1  0  0  0  0
 17 25  1  0  0  0  0
 17  5  1  0  0  0  0
 19 25  1  0  0  0  0
 19 15  1  0  0  0  0
 20  4  2  0  0  0  0
 21 22  2  0  0  0  0
 22  4  1  0  0  0  0
 23  6  1  0  0  0  0
 24 26  1  0  0  0  0
 25 12  1  0  0  0  0
 26 10  2  0  0  0  0
 26 13  1  0  0  0  0
 28 10  1  0  0  0  0
 28 16  1  0  0  0  0
M  END
>  <MODEL>
8

>  <REMARK>
 VINA RESULT:      -7.2      2.275      2.907
  Name = 
  0 active torsions:
  status: ('A' for Active; 'I' for Inactive)
                            x       y       z     vdW  Elec       q    Type
                         _______ _______ _______ _____ _____    ______ ____

>  <TORSDO>
F 0

$$$$
=
 OpenBabel11112417343D

 28 32  0  0  1  0  0  0  0  0999 V2000
  190.6990  177.0630  145.4550 C   0  0  0  0  0  0  0  0  0  0  0  0
  195.1330  176.2590  142.9100 O   0  0  0  0  0  0  0  0  0  0  0  0
  189.5900  173.7950  140.2640 C   0  0  0  0  0  1  0  0  0  0  0  0
  191.5600  175.5230  147.6320 C   0  0  0  0  0  3  0  0  0  0  0  0
  190.7230  172.5110  142.0710 C   0  0  1  0  0  3  0  0  0  0  0  0
  190.1710  177.8750  144.3130 C   0  0  0  0  0  2  0  0  0  0  0  0
  194.8270  175.9710  145.3390 O   0  0  0  0  0  0  0  0  0  0  0  0
  194.7270  175.3060  143.9970 S   0  0  0  0  0  0  0  0  0  0  0  0
  195.3110  172.9260  142.8320 C   0  0  1  0  0  3  0  0  0  0  0  0
  193.1070  174.7130  143.7140 C   0  0  2  0  0  3  0  0  0  0  0  0
  188.3120  175.3820  144.7010 O   0  0  0  0  0  1  0  0  0  0  0  0
  190.8630  174.4290  143.3590 C   0  0  2  0  0  3  0  0  0  0  0  0
  193.9070  172.5330  142.9750 N   0  0  0  0  0  0  0  0  0  0  0  0
  195.7600  173.8510  143.9630 C   0  0  0  0  0  2  0  0  0  0  0  0
  188.2340  176.3120  143.6600 C   0  0  2  0  0  3  0  0  0  0  0  0
  191.4860  175.9150  145.2300 C   0  0  0  0  0  0  0  0  0  0  0  0
  189.5240  173.4210  141.7360 C   0  0  1  0  0  3  0  0  0  0  0  0
  196.1840  171.6900  142.8040 C   0  0  0  0  0  1  0  0  0  0  0  0
  188.9880  175.8710  142.3990 C   0  0  0  0  0  2  0  0  0  0  0  0
  191.8910  175.1400  146.3310 C   0  0  0  0  0  3  0  0  0  0  0  0
  190.3750  177.4420  146.7640 C   0  0  0  0  0  3  0  0  0  0  0  0
  190.8070  176.6780  147.8490 C   0  0  0  0  0  3  0  0  0  0  0  0
  188.6590  177.7050  144.1320 C   0  0  0  0  0  2  0  0  0  0  0  0
  191.4570  173.2980  143.1010 C   0  0  2  0  0  3  0  0  0  0  0  0
  189.6990  174.6070  142.5760 N   0  0  2  0  0  0  0  0  0  0  0  0
  192.8810  173.4820  143.2850 C   0  0  0  0  0  0  0  0  0  0  0  0
  190.2640  171.3200  142.6340 O   0  0  0  0  0  1  0  0  0  0  0  0
  191.8190  175.4870  143.8190 C   0  0  1  0  0  3  0  0  0  0  0  0
  1 21  1  0  0  0  0
  2  8  2  0  0  0  0
  3 17  1  0  0  0  0
  4 22  1  0  0  0  0
  5 27  1  1  0  0  0
  5 24  1  0  0  0  0
  6  1  1  0  0  0  0
  8  7  2  0  0  0  0
  9 18  1  1  0  0  0
  9 13  1  0  0  0  0
  9 14  1  0  0  0  0
 10 26  1  6  0  0  0
 10 28  1  0  0  0  0
 10  8  1  0  0  0  0
 12 28  1  0  0  0  0
 13 26  2  0  0  0  0
 14  8  1  0  0  0  0
 15 23  1  0  0  0  0
 15 11  1  0  0  0  0
 16  1  2  0  0  0  0
 16 20  1  0  0  0  0
 17  5  1  0  0  0  0
 17 25  1  0  0  0  0
 19 25  1  0  0  0  0
 19 15  1  0  0  0  0
 20  4  2  0  0  0  0
 21 22  2  0  0  0  0
 23  6  1  0  0  0  0
 24 26  1  0  0  0  0
 24 12  1  0  0  0  0
 25 12  1  0  0  0  0
 28 16  1  0  0  0  0
M  END
>  <MODEL>
9

>  <REMARK>
 VINA RESULT:      -6.9      2.181      2.939
  Name = 
  0 active torsions:
  status: ('A' for Active; 'I' for Inactive)
                            x       y       z     vdW  Elec       q    Type
                         _______ _______ _______ _____ _____    ______ ____

>  <TORSDO>
F 0

$$$$
