=
 OpenBabel11112416543D

 31 35  0  0  1  0  0  0  0  0999 V2000
  194.5040  176.0010  144.8370 C   0  0  0  0  0  0  0  0  0  0  0  0
  191.2130  176.9040  143.1490 C   0  0  2  0  0  3  0  0  0  0  0  0
  190.7060  175.6760  142.4100 C   0  0  0  0  0  0  0  0  0  0  0  0
  188.3060  176.1670  147.5540 O   0  0  0  0  0  0  0  0  0  0  0  0
  187.6270  176.8090  146.7110 C   0  0  0  0  0  0  0  0  0  0  0  0
  191.1160  173.5240  141.3540 C   0  0  0  0  0  0  0  0  0  0  0  0
  192.2320  176.5530  144.2020 C   0  0  0  0  0  0  0  0  0  0  0  0
  194.0770  175.7460  146.1440 C   0  0  0  0  0  3  0  0  0  0  0  0
  191.5830  174.6410  142.0520 C   0  0  0  0  0  3  0  0  0  0  0  0
  189.5850  177.1070  145.0910 C   0  0  0  0  0  0  0  0  0  0  0  0
  195.8090  175.8500  144.5090 F   0  0  0  0  0  0  0  0  0  0  0  0
  188.4660  176.6350  142.3080 O   0  0  0  0  0  0  0  0  0  0  0  0
  192.0520  172.4280  140.9950 C   0  0  0  0  0  1  0  0  0  0  0  0
  190.4340  176.5100  145.8780 N   0  0  0  0  0  0  0  0  0  0  0  0
  190.0600  177.7170  143.7850 C   0  0  2  0  0  3  0  0  0  0  0  0
  188.2250  177.2980  145.5030 N   0  0  0  0  0  2  0  0  0  0  0  0
  193.5810  176.3980  143.8650 C   0  0  0  0  0  3  0  0  0  0  0  0
  189.7690  173.4360  140.9970 C   0  0  0  0  0  3  0  0  0  0  0  0
  191.8080  176.3120  145.5200 C   0  0  0  0  0  0  0  0  0  0  0  0
  192.7300  175.9020  146.4870 C   0  0  0  0  0  3  0  0  0  0  0  0
  188.9240  177.8990  142.7780 C   0  0  0  0  0  2  0  0  0  0  0  0
  189.3550  175.5980  142.0110 C   0  0  0  0  0  0  0  0  0  0  0  0
  188.8900  174.4730  141.3230 C   0  0  0  0  0  3  0  0  0  0  0  0
  184.8900  178.9210  145.1540 N   0  0  0  0  0  0  0  0  0  0  0  0
  185.3130  176.5870  145.7830 C   0  0  0  0  0  2  0  0  0  0  0  0
  186.7040  178.9520  148.3500 O   0  0  0  0  0  1  0  0  0  0  0  0
  184.9640  179.8430  144.0350 C   0  0  0  0  0  1  0  0  0  0  0  0
  185.3580  177.6270  144.6610 C   0  0  0  0  0  2  0  0  0  0  0  0
  185.8240  178.4800  147.3750 C   0  0  2  0  0  3  0  0  0  0  0  0
  186.1650  177.0340  146.9730 C   0  0  2  0  0  3  0  0  0  0  0  0
  185.8340  179.4060  146.1590 C   0  0  0  0  0  2  0  0  0  0  0  0
  1  8  1  0  0  0  0
  2  3  1  1  0  0  0
  2 15  1  0  0  0  0
  2  7  1  0  0  0  0
  5  4  2  0  0  0  0
  6  9  2  0  0  0  0
  7 19  2  0  0  0  0
  8 20  2  0  0  0  0
  9  3  1  0  0  0  0
 10 16  1  0  0  0  0
 10 14  2  0  0  0  0
 11  1  1  0  0  0  0
 12 21  1  0  0  0  0
 13  6  1  0  0  0  0
 15 21  1  6  0  0  0
 15 10  1  0  0  0  0
 16  5  1  0  0  0  0
 17  7  1  0  0  0  0
 17  1  2  0  0  0  0
 18 23  2  0  0  0  0
 18  6  1  0  0  0  0
 19 14  1  0  0  0  0
 19 20  1  0  0  0  0
 22 12  1  0  0  0  0
 22  3  2  0  0  0  0
 23 22  1  0  0  0  0
 24 31  1  0  0  0  0
 25 30  1  0  0  0  0
 27 24  1  0  0  0  0
 28 24  1  0  0  0  0
 28 25  1  0  0  0  0
 29 26  1  1  0  0  0
 30  5  1  6  0  0  0
 30 29  1  0  0  0  0
 31 29  1  0  0  0  0
M  END
>  <MODEL>
1

>  <REMARK>
 VINA RESULT:      -9.0      0.000      0.000
  Name = 
  1 active torsions:
  status: ('A' for Active; 'I' for Inactive)
    1  A    between atoms: C_5  and  C_30
                            x       y       z     vdW  Elec       q    Type
                         _______ _______ _______ _____ _____    ______ ____

>  <TORSDO>
F 1

$$$$
=
 OpenBabel11112416543D

 31 35  0  0  1  0  0  0  0  0999 V2000
  186.4130  177.8940  140.7450 C   0  0  0  0  0  0  0  0  0  0  0  0
  189.0410  177.8510  143.5000 C   0  0  2  0  0  3  0  0  0  0  0  0
  188.3760  177.3760  144.7820 C   0  0  0  0  0  0  0  0  0  0  0  0
  191.0080  173.1060  142.0800 O   0  0  0  0  0  0  0  0  0  0  0  0
  191.8210  173.6790  142.8530 C   0  0  0  0  0  0  0  0  0  0  0  0
  186.3810  177.0410  146.1320 C   0  0  0  0  0  0  0  0  0  0  0  0
  188.2440  177.4790  142.2760 C   0  0  0  0  0  0  0  0  0  0  0  0
  186.6810  176.6850  140.0960 C   0  0  0  0  0  3  0  0  0  0  0  0
  186.9840  177.4590  144.9430 C   0  0  0  0  0  3  0  0  0  0  0  0
  190.5260  175.8860  142.8730 C   0  0  0  0  0  0  0  0  0  0  0  0
  185.3920  178.6770  140.3240 F   0  0  0  0  0  0  0  0  0  0  0  0
  190.5560  176.8620  145.7480 O   0  0  0  0  0  0  0  0  0  0  0  0
  184.9050  177.1210  146.2830 C   0  0  0  0  0  1  0  0  0  0  0  0
  189.6270  175.4610  142.0310 N   0  0  0  0  0  0  0  0  0  0  0  0
  190.4890  177.3210  143.3650 C   0  0  2  0  0  3  0  0  0  0  0  0
  191.6240  175.0430  143.2470 N   0  0  0  0  0  2  0  0  0  0  0  0
  187.1900  178.2880  141.8380 C   0  0  0  0  0  3  0  0  0  0  0  0
  187.1640  176.5470  147.1770 C   0  0  0  0  0  3  0  0  0  0  0  0
  188.5220  176.2720  141.6120 C   0  0  0  0  0  0  0  0  0  0  0  0
  187.7350  175.8740  140.5270 C   0  0  0  0  0  3  0  0  0  0  0  0
  191.2440  177.5070  144.6800 C   0  0  0  0  0  2  0  0  0  0  0  0
  189.1630  176.9120  145.8570 C   0  0  0  0  0  0  0  0  0  0  0  0
  188.5530  176.4840  147.0400 C   0  0  0  0  0  3  0  0  0  0  0  0
  194.6230  174.3480  145.3180 N   0  0  0  0  0  0  0  0  0  0  0  0
  192.8730  172.6810  144.8930 C   0  0  0  0  0  2  0  0  0  0  0  0
  194.4130  173.8730  141.6790 O   0  0  0  0  0  1  0  0  0  0  0  0
  194.9080  175.5480  146.0820 C   0  0  0  0  0  1  0  0  0  0  0  0
  193.2590  173.9480  145.6600 C   0  0  0  0  0  2  0  0  0  0  0  0
  194.3560  173.5190  143.0280 C   0  0  2  0  0  3  0  0  0  0  0  0
  192.9920  172.9020  143.3830 C   0  0  2  0  0  3  0  0  0  0  0  0
  194.6560  174.7330  143.9080 C   0  0  0  0  0  2  0  0  0  0  0  0
  1 17  1  0  0  0  0
  2  7  1  6  0  0  0
  2  3  1  0  0  0  0
  3  9  2  0  0  0  0
  3 22  1  0  0  0  0
  4  5  2  0  0  0  0
  5 16  1  0  0  0  0
  6 13  1  0  0  0  0
  6 18  2  0  0  0  0
  8 20  1  0  0  0  0
  8  1  2  0  0  0  0
  9  6  1  0  0  0  0
 10 16  1  0  0  0  0
 10 15  1  0  0  0  0
 11  1  1  0  0  0  0
 12 22  1  0  0  0  0
 14 10  2  0  0  0  0
 15  2  1  0  0  0  0
 15 21  1  1  0  0  0
 17  7  2  0  0  0  0
 19 14  1  0  0  0  0
 19  7  1  0  0  0  0
 20 19  2  0  0  0  0
 21 12  1  0  0  0  0
 22 23  2  0  0  0  0
 23 18  1  0  0  0  0
 24 28  1  0  0  0  0
 24 27  1  0  0  0  0
 25 28  1  0  0  0  0
 29 26  1  6  0  0  0
 29 30  1  0  0  0  0
 29 31  1  0  0  0  0
 30  5  1  1  0  0  0
 30 25  1  0  0  0  0
 31 24  1  0  0  0  0
M  END
>  <MODEL>
2

>  <REMARK>
 VINA RESULT:      -8.6      3.292      7.549
  Name = 
  1 active torsions:
  status: ('A' for Active; 'I' for Inactive)
    1  A    between atoms: C_5  and  C_30
                            x       y       z     vdW  Elec       q    Type
                         _______ _______ _______ _____ _____    ______ ____

>  <TORSDO>
F 1

$$$$
=
 OpenBabel11112416543D

 31 35  0  0  1  0  0  0  0  0999 V2000
  187.0310  177.3570  140.5140 C   0  0  0  0  0  0  0  0  0  0  0  0
  189.2810  177.7440  143.5610 C   0  0  2  0  0  3  0  0  0  0  0  0
  188.4230  177.5900  144.8060 C   0  0  0  0  0  0  0  0  0  0  0  0
  190.9960  172.7010  143.4140 O   0  0  0  0  0  0  0  0  0  0  0  0
  191.7520  173.3750  144.1620 C   0  0  0  0  0  0  0  0  0  0  0  0
  186.2530  177.6630  145.9030 C   0  0  0  0  0  0  0  0  0  0  0  0
  188.6140  177.1690  142.3380 C   0  0  0  0  0  0  0  0  0  0  0  0
  187.2730  176.0250  140.1650 C   0  0  0  0  0  3  0  0  0  0  0  0
  187.0340  177.7850  144.7510 C   0  0  0  0  0  3  0  0  0  0  0  0
  190.6590  175.6080  143.5560 C   0  0  0  0  0  0  0  0  0  0  0  0
  186.1410  178.0920  139.8050 F   0  0  0  0  0  0  0  0  0  0  0  0
  190.4130  177.1660  146.1510 O   0  0  0  0  0  0  0  0  0  0  0  0
  184.7820  177.8580  145.8270 C   0  0  0  0  0  1  0  0  0  0  0  0
  189.8390  175.0680  142.7000 N   0  0  0  0  0  0  0  0  0  0  0  0
  190.6830  177.1140  143.7390 C   0  0  2  0  0  3  0  0  0  0  0  0
  191.6260  174.8010  144.2420 N   0  0  0  0  0  2  0  0  0  0  0  0
  187.6960  177.9270  141.6030 C   0  0  0  0  0  3  0  0  0  0  0  0
  186.8550  177.3550  147.1260 C   0  0  0  0  0  3  0  0  0  0  0  0
  188.8680  175.8350  141.9760 C   0  0  0  0  0  0  0  0  0  0  0  0
  188.1920  175.2630  140.8940 C   0  0  0  0  0  3  0  0  0  0  0  0
  191.2810  177.5300  145.0830 C   0  0  0  0  0  2  0  0  0  0  0  0
  189.0270  177.3170  146.0520 C   0  0  0  0  0  0  0  0  0  0  0  0
  188.2400  177.1850  147.2000 C   0  0  0  0  0  3  0  0  0  0  0  0
  195.4800  172.7300  143.9070 N   0  0  0  0  0  0  0  0  0  0  0  0
  193.8490  173.6280  145.5060 C   0  0  0  0  0  2  0  0  0  0  0  0
  192.4560  170.6540  143.6780 O   0  0  0  0  0  1  0  0  0  0  0  0
  196.4130  173.1290  142.8700 C   0  0  0  0  0  1  0  0  0  0  0  0
  194.8550  173.9570  144.4010 C   0  0  0  0  0  2  0  0  0  0  0  0
  193.4220  171.4570  144.2870 C   0  0  2  0  0  3  0  0  0  0  0  0
  192.7770  172.6610  144.9960 C   0  0  2  0  0  3  0  0  0  0  0  0
  194.4560  171.9140  143.2570 C   0  0  0  0  0  2  0  0  0  0  0  0
  1 17  1  0  0  0  0
  2  7  1  6  0  0  0
  2 15  1  0  0  0  0
  2  3  1  0  0  0  0
  3 22  1  0  0  0  0
  4  5  2  0  0  0  0
  5 16  1  0  0  0  0
  6 18  2  0  0  0  0
  8  1  2  0  0  0  0
  8 20  1  0  0  0  0
  9  3  2  0  0  0  0
  9  6  1  0  0  0  0
 10 15  1  0  0  0  0
 10 16  1  0  0  0  0
 11  1  1  0  0  0  0
 13  6  1  0  0  0  0
 14 10  2  0  0  0  0
 15 21  1  1  0  0  0
 17  7  2  0  0  0  0
 18 23  1  0  0  0  0
 19  7  1  0  0  0  0
 19 14  1  0  0  0  0
 20 19  2  0  0  0  0
 21 12  1  0  0  0  0
 22 12  1  0  0  0  0
 22 23  2  0  0  0  0
 24 28  1  0  0  0  0
 27 24  1  0  0  0  0
 28 25  1  0  0  0  0
 29 26  1  6  0  0  0
 29 30  1  0  0  0  0
 30  5  1  6  0  0  0
 30 25  1  0  0  0  0
 31 24  1  0  0  0  0
 31 29  1  0  0  0  0
M  END
>  <MODEL>
3

>  <REMARK>
 VINA RESULT:      -7.9      3.465      7.746
  Name = 
  1 active torsions:
  status: ('A' for Active; 'I' for Inactive)
    1  A    between atoms: C_5  and  C_30
                            x       y       z     vdW  Elec       q    Type
                         _______ _______ _______ _____ _____    ______ ____

>  <TORSDO>
F 1

$$$$
=
 OpenBabel11112416543D

 31 35  0  0  1  0  0  0  0  0999 V2000
  185.9430  178.2910  141.0030 C   0  0  0  0  0  0  0  0  0  0  0  0
  188.7190  178.1700  143.6060 C   0  0  2  0  0  3  0  0  0  0  0  0
  188.1560  177.5390  144.8700 C   0  0  0  0  0  0  0  0  0  0  0  0
  190.8860  173.7120  141.6510 O   0  0  0  0  0  0  0  0  0  0  0  0
  191.7050  174.2640  142.4330 C   0  0  0  0  0  0  0  0  0  0  0  0
  186.2640  176.9540  146.2810 C   0  0  0  0  0  0  0  0  0  0  0  0
  187.8790  177.8600  142.3950 C   0  0  0  0  0  0  0  0  0  0  0  0
  186.2470  177.1650  140.2310 C   0  0  0  0  0  3  0  0  0  0  0  0
  186.7730  177.5170  145.1080 C   0  0  0  0  0  3  0  0  0  0  0  0
  190.2820  176.3710  142.7240 C   0  0  0  0  0  0  0  0  0  0  0  0
  184.8550  179.0400  140.7090 F   0  0  0  0  0  0  0  0  0  0  0  0
  190.4140  177.0830  145.6730 O   0  0  0  0  0  0  0  0  0  0  0  0
  184.7960  176.9240  146.5130 C   0  0  0  0  0  1  0  0  0  0  0  0
  189.3650  175.9670  141.8930 N   0  0  0  0  0  0  0  0  0  0  0  0
  190.1860  177.7500  143.3500 C   0  0  2  0  0  3  0  0  0  0  0  0
  191.4490  175.5720  142.9630 N   0  0  0  0  0  2  0  0  0  0  0  0
  186.7550  178.6340  142.0880 C   0  0  0  0  0  3  0  0  0  0  0  0
  187.1320  176.4190  147.2350 C   0  0  0  0  0  3  0  0  0  0  0  0
  188.1910  176.7380  141.6070 C   0  0  0  0  0  0  0  0  0  0  0  0
  187.3710  176.3890  140.5310 C   0  0  0  0  0  3  0  0  0  0  0  0
  191.0010  177.8660  144.6380 C   0  0  0  0  0  2  0  0  0  0  0  0
  189.0290  177.0320  145.8560 C   0  0  0  0  0  0  0  0  0  0  0  0
  188.5130  176.4600  147.0230 C   0  0  0  0  0  3  0  0  0  0  0  0
  192.7210  170.6180  142.6680 N   0  0  0  0  0  0  0  0  0  0  0  0
  193.5070  172.7110  141.6550 C   0  0  0  0  0  2  0  0  0  0  0  0
  192.1090  173.3130  145.0910 O   0  0  0  0  0  1  0  0  0  0  0  0
  191.9410  169.4270  142.3880 C   0  0  0  0  0  1  0  0  0  0  0  0
  192.7030  171.4260  141.4480 C   0  0  0  0  0  2  0  0  0  0  0  0
  192.7670  172.6270  144.0680 C   0  0  2  0  0  3  0  0  0  0  0  0
  192.9480  173.5200  142.8280 C   0  0  2  0  0  3  0  0  0  0  0  0
  192.0110  171.3460  143.7180 C   0  0  0  0  0  2  0  0  0  0  0  0
  1 17  1  0  0  0  0
  2  7  1  6  0  0  0
  2  3  1  0  0  0  0
  3  9  2  0  0  0  0
  3 22  1  0  0  0  0
  4  5  2  0  0  0  0
  5 16  1  0  0  0  0
  6 13  1  0  0  0  0
  6 18  2  0  0  0  0
  8 20  1  0  0  0  0
  8  1  2  0  0  0  0
  9  6  1  0  0  0  0
 10 16  1  0  0  0  0
 10 15  1  0  0  0  0
 11  1  1  0  0  0  0
 12 22  1  0  0  0  0
 14 10  2  0  0  0  0
 15  2  1  0  0  0  0
 15 21  1  1  0  0  0
 17  7  2  0  0  0  0
 19 14  1  0  0  0  0
 19  7  1  0  0  0  0
 20 19  2  0  0  0  0
 21 12  1  0  0  0  0
 22 23  2  0  0  0  0
 23 18  1  0  0  0  0
 24 31  1  0  0  0  0
 25 30  1  0  0  0  0
 27 24  1  0  0  0  0
 28 25  1  0  0  0  0
 28 24  1  0  0  0  0
 29 26  1  1  0  0  0
 30  5  1  6  0  0  0
 30 29  1  0  0  0  0
 31 29  1  0  0  0  0
M  END
>  <MODEL>
4

>  <REMARK>
 VINA RESULT:      -7.8      3.435      7.720
  Name = 
  1 active torsions:
  status: ('A' for Active; 'I' for Inactive)
    1  A    between atoms: C_5  and  C_30
                            x       y       z     vdW  Elec       q    Type
                         _______ _______ _______ _____ _____    ______ ____

>  <TORSDO>
F 1

$$$$
=
 OpenBabel11112416543D

 31 35  0  0  1  0  0  0  0  0999 V2000
  194.6770  170.3000  144.7510 C   0  0  0  0  0  0  0  0  0  0  0  0
  194.9300  174.0030  145.6000 C   0  0  2  0  0  3  0  0  0  0  0  0
  195.6330  174.7060  144.4500 C   0  0  0  0  0  0  0  0  0  0  0  0
  189.9680  175.1040  143.9990 O   0  0  0  0  0  0  0  0  0  0  0  0
  190.4020  176.0600  144.6940 C   0  0  0  0  0  0  0  0  0  0  0  0
  197.1020  174.6420  142.5120 C   0  0  0  0  0  0  0  0  0  0  0  0
  194.3750  172.6630  145.1910 C   0  0  0  0  0  0  0  0  0  0  0  0
  193.3640  170.2190  144.2780 C   0  0  0  0  0  3  0  0  0  0  0  0
  196.4400  173.9870  143.5540 C   0  0  0  0  0  3  0  0  0  0  0  0
  192.5350  174.8260  145.3850 C   0  0  0  0  0  0  0  0  0  0  0  0
  195.4620  169.1970  144.7600 F   0  0  0  0  0  0  0  0  0  0  0  0
  194.7840  176.8590  145.2180 O   0  0  0  0  0  0  0  0  0  0  0  0
  197.9410  173.8670  141.5620 C   0  0  0  0  0  1  0  0  0  0  0  0
  192.2050  173.7340  144.7570 N   0  0  0  0  0  0  0  0  0  0  0  0
  193.8060  174.8720  146.2120 C   0  0  2  0  0  3  0  0  0  0  0  0
  191.6460  175.9520  145.3990 N   0  0  0  0  0  2  0  0  0  0  0  0
  195.1840  171.5220  145.2010 C   0  0  0  0  0  3  0  0  0  0  0  0
  196.9720  176.0250  142.3610 C   0  0  0  0  0  3  0  0  0  0  0  0
  193.0490  172.5760  144.7300 C   0  0  0  0  0  0  0  0  0  0  0  0
  192.5490  171.3560  144.2680 C   0  0  0  0  0  3  0  0  0  0  0  0
  194.3050  176.2990  146.4370 C   0  0  0  0  0  2  0  0  0  0  0  0
  195.5390  176.1070  144.3140 C   0  0  0  0  0  0  0  0  0  0  0  0
  196.1940  176.7560  143.2620 C   0  0  0  0  0  3  0  0  0  0  0  0
  187.8280  177.7560  142.4850 N   0  0  0  0  0  0  0  0  0  0  0  0
  188.1070  177.0510  144.8190 C   0  0  0  0  0  2  0  0  0  0  0  0
  191.3080  178.4560  143.4400 O   0  0  0  0  0  1  0  0  0  0  0  0
  187.2840  177.3260  141.2110 C   0  0  0  0  0  1  0  0  0  0  0  0
  187.5630  176.6790  143.4380 C   0  0  0  0  0  2  0  0  0  0  0  0
  189.9290  178.3160  143.6130 C   0  0  2  0  0  3  0  0  0  0  0  0
  189.6100  177.3350  144.7540 C   0  0  2  0  0  3  0  0  0  0  0  0
  189.2740  177.8720  142.3050 C   0  0  0  0  0  2  0  0  0  0  0  0
  1 11  1  0  0  0  0
  1 17  1  0  0  0  0
  2  3  1  6  0  0  0
  2 15  1  0  0  0  0
  4  5  2  0  0  0  0
  5 16  1  0  0  0  0
  6  9  1  0  0  0  0
  7 17  2  0  0  0  0
  7  2  1  0  0  0  0
  8  1  2  0  0  0  0
  9  3  2  0  0  0  0
 10 16  1  0  0  0  0
 10 15  1  0  0  0  0
 12 21  1  0  0  0  0
 13  6  1  0  0  0  0
 14 10  2  0  0  0  0
 15 21  1  6  0  0  0
 18  6  2  0  0  0  0
 18 23  1  0  0  0  0
 19 14  1  0  0  0  0
 19  7  1  0  0  0  0
 20  8  1  0  0  0  0
 20 19  2  0  0  0  0
 22  3  1  0  0  0  0
 22 12  1  0  0  0  0
 23 22  2  0  0  0  0
 24 28  1  0  0  0  0
 27 24  1  0  0  0  0
 28 25  1  0  0  0  0
 29 26  1  6  0  0  0
 29 30  1  0  0  0  0
 30  5  1  6  0  0  0
 30 25  1  0  0  0  0
 31 24  1  0  0  0  0
 31 29  1  0  0  0  0
M  END
>  <MODEL>
5

>  <REMARK>
 VINA RESULT:      -7.8      3.262      5.368
  Name = 
  1 active torsions:
  status: ('A' for Active; 'I' for Inactive)
    1  A    between atoms: C_5  and  C_30
                            x       y       z     vdW  Elec       q    Type
                         _______ _______ _______ _____ _____    ______ ____

>  <TORSDO>
F 1

$$$$
=
 OpenBabel11112416543D

 31 35  0  0  1  0  0  0  0  0999 V2000
  186.8380  178.4360  147.8020 C   0  0  0  0  0  0  0  0  0  0  0  0
  188.2650  175.5470  145.7740 C   0  0  2  0  0  3  0  0  0  0  0  0
  188.2660  175.9510  144.3090 C   0  0  0  0  0  0  0  0  0  0  0  0
  193.3360  176.8690  146.7410 O   0  0  0  0  0  0  0  0  0  0  0  0
  193.2920  175.6920  146.2940 C   0  0  0  0  0  0  0  0  0  0  0  0
  187.4150  177.3270  142.4930 C   0  0  0  0  0  0  0  0  0  0  0  0
  188.1610  176.7380  146.6920 C   0  0  0  0  0  0  0  0  0  0  0  0
  188.0070  179.0440  148.2680 C   0  0  0  0  0  3  0  0  0  0  0  0
  187.4250  176.9740  143.8450 C   0  0  0  0  0  3  0  0  0  0  0  0
  190.7360  175.5690  146.3680 C   0  0  0  0  0  0  0  0  0  0  0  0
  185.6300  178.9680  148.1070 F   0  0  0  0  0  0  0  0  0  0  0  0
  189.8770  174.1910  143.8020 O   0  0  0  0  0  0  0  0  0  0  0  0
  186.5300  178.4220  142.0190 C   0  0  0  0  0  1  0  0  0  0  0  0
  190.6120  176.7570  146.8860 N   0  0  0  0  0  0  0  0  0  0  0  0
  189.5090  174.7040  146.1460 C   0  0  2  0  0  3  0  0  0  0  0  0
  192.0370  175.0200  146.1150 N   0  0  0  0  0  2  0  0  0  0  0  0
  186.9150  177.2870  147.0090 C   0  0  0  0  0  3  0  0  0  0  0  0
  188.2370  176.6520  141.5880 C   0  0  0  0  0  3  0  0  0  0  0  0
  189.3360  177.3410  147.1750 C   0  0  0  0  0  0  0  0  0  0  0  0
  189.2560  178.4970  147.9560 C   0  0  0  0  0  3  0  0  0  0  0  0
  189.7420  173.6160  145.0980 C   0  0  0  0  0  2  0  0  0  0  0  0
  189.0650  175.2480  143.3820 C   0  0  0  0  0  0  0  0  0  0  0  0
  189.0590  175.6130  142.0320 C   0  0  0  0  0  3  0  0  0  0  0  0
  195.1140  174.9280  143.0580 N   0  0  0  0  0  0  0  0  0  0  0  0
  195.5430  175.9730  145.2370 C   0  0  0  0  0  2  0  0  0  0  0  0
  193.3730  172.9270  145.6020 O   0  0  0  0  0  1  0  0  0  0  0  0
  194.7290  175.2320  141.6920 C   0  0  0  0  0  1  0  0  0  0  0  0
  195.1430  176.2010  143.7770 C   0  0  0  0  0  2  0  0  0  0  0  0
  194.3740  173.7400  145.0680 C   0  0  2  0  0  3  0  0  0  0  0  0
  194.5740  175.0050  145.9220 C   0  0  2  0  0  3  0  0  0  0  0  0
  194.0480  174.1000  143.6190 C   0  0  0  0  0  2  0  0  0  0  0  0
  1 11  1  0  0  0  0
  1  8  1  0  0  0  0
  2  3  1  6  0  0  0
  2 15  1  0  0  0  0
  2  7  1  0  0  0  0
  5  4  2  0  0  0  0
  6  9  2  0  0  0  0
  7 17  1  0  0  0  0
  7 19  2  0  0  0  0
  9  3  1  0  0  0  0
 10 14  2  0  0  0  0
 12 21  1  0  0  0  0
 13  6  1  0  0  0  0
 14 19  1  0  0  0  0
 15 21  1  6  0  0  0
 15 10  1  0  0  0  0
 16  5  1  0  0  0  0
 16 10  1  0  0  0  0
 17  1  2  0  0  0  0
 18 23  2  0  0  0  0
 18  6  1  0  0  0  0
 19 20  1  0  0  0  0
 20  8  2  0  0  0  0
 22 12  1  0  0  0  0
 22  3  2  0  0  0  0
 23 22  1  0  0  0  0
 24 31  1  0  0  0  0
 24 28  1  0  0  0  0
 25 30  1  0  0  0  0
 27 24  1  0  0  0  0
 28 25  1  0  0  0  0
 29 26  1  1  0  0  0
 29 30  1  0  0  0  0
 30  5  1  6  0  0  0
 31 29  1  0  0  0  0
M  END
>  <MODEL>
6

>  <REMARK>
 VINA RESULT:      -7.5      3.396      6.914
  Name = 
  1 active torsions:
  status: ('A' for Active; 'I' for Inactive)
    1  A    between atoms: C_5  and  C_30
                            x       y       z     vdW  Elec       q    Type
                         _______ _______ _______ _____ _____    ______ ____

>  <TORSDO>
F 1

$$$$
=
 OpenBabel11112416543D

 31 35  0  0  1  0  0  0  0  0999 V2000
  185.9200  179.0610  143.0760 C   0  0  0  0  0  0  0  0  0  0  0  0
  189.1680  177.2130  143.8030 C   0  0  2  0  0  3  0  0  0  0  0  0
  188.9750  176.3950  145.0700 C   0  0  0  0  0  0  0  0  0  0  0  0
  188.1270  173.2510  140.3950 O   0  0  0  0  0  0  0  0  0  0  0  0
  189.3480  173.2230  140.7040 C   0  0  0  0  0  0  0  0  0  0  0  0
  187.8050  175.9780  147.1610 C   0  0  0  0  0  0  0  0  0  0  0  0
  187.8560  177.6080  143.1770 C   0  0  0  0  0  0  0  0  0  0  0  0
  185.3460  178.2300  142.1080 C   0  0  0  0  0  3  0  0  0  0  0  0
  187.9640  176.7200  145.9880 C   0  0  0  0  0  3  0  0  0  0  0  0
  189.2580  175.4340  141.9910 C   0  0  0  0  0  0  0  0  0  0  0  0
  185.2570  180.1620  143.5020 F   0  0  0  0  0  0  0  0  0  0  0  0
  190.9100  175.0220  144.5050 O   0  0  0  0  0  0  0  0  0  0  0  0
  186.7210  176.3230  148.1160 C   0  0  0  0  0  1  0  0  0  0  0  0
  188.0020  175.6400  141.7120 N   0  0  0  0  0  0  0  0  0  0  0  0
  190.0450  176.4760  142.7630 C   0  0  2  0  0  3  0  0  0  0  0  0
  189.9370  174.2830  141.4700 N   0  0  0  0  0  2  0  0  0  0  0  0
  187.1710  178.7470  143.6150 C   0  0  0  0  0  3  0  0  0  0  0  0
  188.6630  174.9100  147.4350 C   0  0  0  0  0  3  0  0  0  0  0  0
  187.2850  176.7830  142.1920 C   0  0  0  0  0  0  0  0  0  0  0  0
  186.0280  177.0930  141.6650 C   0  0  0  0  0  3  0  0  0  0  0  0
  191.2840  175.8890  143.4390 C   0  0  0  0  0  2  0  0  0  0  0  0
  189.8620  175.3400  145.3730 C   0  0  0  0  0  0  0  0  0  0  0  0
  189.6900  174.5930  146.5430 C   0  0  0  0  0  3  0  0  0  0  0  0
  192.7840  171.8810  141.5810 N   0  0  0  0  0  0  0  0  0  0  0  0
  190.4560  171.1120  141.4650 C   0  0  0  0  0  2  0  0  0  0  0  0
  191.2660  173.4070  138.6020 O   0  0  0  0  0  1  0  0  0  0  0  0
  193.7740  172.4170  142.4970 C   0  0  0  0  0  1  0  0  0  0  0  0
  191.5620  171.6790  142.3580 C   0  0  0  0  0  2  0  0  0  0  0  0
  191.4890  172.4330  139.5760 C   0  0  2  0  0  3  0  0  0  0  0  0
  190.1790  172.0450  140.2830 C   0  0  2  0  0  3  0  0  0  0  0  0
  192.5340  172.9180  140.5810 C   0  0  0  0  0  2  0  0  0  0  0  0
  1 11  1  0  0  0  0
  1 17  1  0  0  0  0
  2  7  1  6  0  0  0
  2  3  1  0  0  0  0
  3 22  2  0  0  0  0
  3  9  1  0  0  0  0
  4  5  2  0  0  0  0
  5 16  1  0  0  0  0
  6 18  1  0  0  0  0
  6 13  1  0  0  0  0
  7 17  2  0  0  0  0
  8  1  2  0  0  0  0
  9  6  2  0  0  0  0
 10 15  1  0  0  0  0
 12 22  1  0  0  0  0
 14 10  2  0  0  0  0
 14 19  1  0  0  0  0
 15 21  1  1  0  0  0
 15  2  1  0  0  0  0
 16 10  1  0  0  0  0
 19  7  1  0  0  0  0
 20  8  1  0  0  0  0
 20 19  2  0  0  0  0
 21 12  1  0  0  0  0
 22 23  1  0  0  0  0
 23 18  2  0  0  0  0
 24 28  1  0  0  0  0
 24 27  1  0  0  0  0
 25 28  1  0  0  0  0
 29 26  1  6  0  0  0
 29 30  1  0  0  0  0
 29 31  1  0  0  0  0
 30  5  1  1  0  0  0
 30 25  1  0  0  0  0
 31 24  1  0  0  0  0
M  END
>  <MODEL>
7

>  <REMARK>
 VINA RESULT:      -7.5      3.498      7.744
  Name = 
  1 active torsions:
  status: ('A' for Active; 'I' for Inactive)
    1  A    between atoms: C_5  and  C_30
                            x       y       z     vdW  Elec       q    Type
                         _______ _______ _______ _____ _____    ______ ____

>  <TORSDO>
F 1

$$$$
=
 OpenBabel11112416543D

 31 35  0  0  1  0  0  0  0  0999 V2000
  186.5050  178.4020  142.0490 C   0  0  0  0  0  0  0  0  0  0  0  0
  189.6760  177.2470  143.8120 C   0  0  2  0  0  3  0  0  0  0  0  0
  189.2750  176.5550  145.1040 C   0  0  0  0  0  0  0  0  0  0  0  0
  190.1410  172.8090  140.9000 O   0  0  0  0  0  0  0  0  0  0  0  0
  191.2290  173.0310  141.4950 C   0  0  0  0  0  0  0  0  0  0  0  0
  187.6670  176.1730  146.8890 C   0  0  0  0  0  0  0  0  0  0  0  0
  188.5330  177.3330  142.8350 C   0  0  0  0  0  0  0  0  0  0  0  0
  186.3300  177.3800  141.1090 C   0  0  0  0  0  3  0  0  0  0  0  0
  188.0220  176.7960  145.6900 C   0  0  0  0  0  3  0  0  0  0  0  0
  190.4910  175.3210  142.3680 C   0  0  0  0  0  0  0  0  0  0  0  0
  185.6050  179.4090  142.1290 F   0  0  0  0  0  0  0  0  0  0  0  0
  191.4640  175.4890  145.2400 O   0  0  0  0  0  0  0  0  0  0  0  0
  186.3320  176.4270  147.4900 C   0  0  0  0  0  1  0  0  0  0  0  0
  189.3370  175.2700  141.7660 N   0  0  0  0  0  0  0  0  0  0  0  0
  190.8910  176.5650  143.1400 C   0  0  2  0  0  3  0  0  0  0  0  0
  191.4400  174.2570  142.2090 N   0  0  0  0  0  2  0  0  0  0  0  0
  187.6020  178.3740  142.9150 C   0  0  0  0  0  3  0  0  0  0  0  0
  188.5650  175.3110  147.5220 C   0  0  0  0  0  3  0  0  0  0  0  0
  188.3640  176.3160  141.8790 C   0  0  0  0  0  0  0  0  0  0  0  0
  187.2590  176.3380  141.0230 C   0  0  0  0  0  3  0  0  0  0  0  0
  191.9790  176.2840  144.1760 C   0  0  0  0  0  2  0  0  0  0  0  0
  190.1910  175.7120  145.7700 C   0  0  0  0  0  0  0  0  0  0  0  0
  189.8260  175.0830  146.9640 C   0  0  0  0  0  3  0  0  0  0  0  0
  191.4630  169.4310  140.3280 N   0  0  0  0  0  0  0  0  0  0  0  0
  192.6400  171.5650  140.0380 C   0  0  0  0  0  2  0  0  0  0  0  0
  191.5050  171.1190  143.5920 O   0  0  0  0  0  1  0  0  0  0  0  0
  190.4430  168.5900  139.7300 C   0  0  0  0  0  1  0  0  0  0  0  0
  191.5780  170.6160  139.4780 C   0  0  0  0  0  2  0  0  0  0  0  0
  191.9730  170.7440  142.3320 C   0  0  2  0  0  3  0  0  0  0  0  0
  192.3000  171.9780  141.4720 C   0  0  2  0  0  3  0  0  0  0  0  0
  190.9540  169.8420  141.6350 C   0  0  0  0  0  2  0  0  0  0  0  0
  1 11  1  0  0  0  0
  1 17  1  0  0  0  0
  2  7  1  6  0  0  0
  2  3  1  0  0  0  0
  3  9  2  0  0  0  0
  3 22  1  0  0  0  0
  4  5  2  0  0  0  0
  5 16  1  0  0  0  0
  6 13  1  0  0  0  0
  6 18  2  0  0  0  0
  7 17  2  0  0  0  0
  8  1  2  0  0  0  0
  9  6  1  0  0  0  0
 10 15  1  0  0  0  0
 12 22  1  0  0  0  0
 14 19  1  0  0  0  0
 14 10  2  0  0  0  0
 15  2  1  0  0  0  0
 15 21  1  1  0  0  0
 16 10  1  0  0  0  0
 19  7  1  0  0  0  0
 20  8  1  0  0  0  0
 20 19  2  0  0  0  0
 21 12  1  0  0  0  0
 22 23  2  0  0  0  0
 23 18  1  0  0  0  0
 24 31  1  0  0  0  0
 25 30  1  0  0  0  0
 27 24  1  0  0  0  0
 28 25  1  0  0  0  0
 28 24  1  0  0  0  0
 29 26  1  1  0  0  0
 30  5  1  6  0  0  0
 30 29  1  0  0  0  0
 31 29  1  0  0  0  0
M  END
>  <MODEL>
8

>  <REMARK>
 VINA RESULT:      -7.5      3.611      7.910
  Name = 
  1 active torsions:
  status: ('A' for Active; 'I' for Inactive)
    1  A    between atoms: C_5  and  C_30
                            x       y       z     vdW  Elec       q    Type
                         _______ _______ _______ _____ _____    ______ ____

>  <TORSDO>
F 1

$$$$
=
 OpenBabel11112416543D

 31 35  0  0  1  0  0  0  0  0999 V2000
  186.0930  177.0260  142.8550 C   0  0  0  0  0  0  0  0  0  0  0  0
  188.7350  174.2840  142.8450 C   0  0  2  0  0  3  0  0  0  0  0  0
  189.1530  174.0350  141.4050 C   0  0  0  0  0  0  0  0  0  0  0  0
  192.7320  177.5980  144.0420 O   0  0  0  0  0  0  0  0  0  0  0  0
  193.1060  176.4110  144.2330 C   0  0  0  0  0  0  0  0  0  0  0  0
  188.7010  174.1590  139.0180 C   0  0  0  0  0  0  0  0  0  0  0  0
  188.0590  175.6200  143.0170 C   0  0  0  0  0  0  0  0  0  0  0  0
  186.8640  178.1440  143.1890 C   0  0  0  0  0  3  0  0  0  0  0  0
  188.3210  174.4100  140.3390 C   0  0  0  0  0  3  0  0  0  0  0  0
  190.7770  175.4240  143.8380 C   0  0  0  0  0  0  0  0  0  0  0  0
  184.7690  177.1660  142.6080 F   0  0  0  0  0  0  0  0  0  0  0  0
  191.1860  172.9230  142.1660 O   0  0  0  0  0  0  0  0  0  0  0  0
  187.8170  174.5750  137.8990 C   0  0  0  0  0  1  0  0  0  0  0  0
  190.2220  176.5900  143.6680 N   0  0  0  0  0  0  0  0  0  0  0  0
  189.9260  174.1680  143.8260 C   0  0  2  0  0  3  0  0  0  0  0  0
  192.1720  175.3250  144.1570 N   0  0  0  0  0  2  0  0  0  0  0  0
  186.6910  175.7660  142.7630 C   0  0  0  0  0  3  0  0  0  0  0  0
  189.9130  173.5200  138.7500 C   0  0  0  0  0  3  0  0  0  0  0  0
  188.8290  176.7430  143.3680 C   0  0  0  0  0  0  0  0  0  0  0  0
  188.2310  178.0040  143.4460 C   0  0  0  0  0  3  0  0  0  0  0  0
  190.7420  172.9130  143.5190 C   0  0  0  0  0  2  0  0  0  0  0  0
  190.3580  173.3550  141.1260 C   0  0  0  0  0  0  0  0  0  0  0  0
  190.7390  173.1160  139.8020 C   0  0  0  0  0  3  0  0  0  0  0  0
  195.2420  173.3130  144.7010 N   0  0  0  0  0  0  0  0  0  0  0  0
  195.2100  175.3700  143.3630 C   0  0  0  0  0  2  0  0  0  0  0  0
  194.0800  176.0310  146.8860 O   0  0  0  0  0  1  0  0  0  0  0  0
  194.8530  171.9150  144.6710 C   0  0  0  0  0  1  0  0  0  0  0  0
  194.8350  173.8870  143.4190 C   0  0  0  0  0  2  0  0  0  0  0  0
  194.8040  175.4290  145.8560 C   0  0  2  0  0  3  0  0  0  0  0  0
  194.5560  176.1400  144.5140 C   0  0  2  0  0  3  0  0  0  0  0  0
  194.4580  173.9420  145.7630 C   0  0  0  0  0  2  0  0  0  0  0  0
  1  8  1  0  0  0  0
  2  3  1  6  0  0  0
  2  7  1  0  0  0  0
  2 15  1  0  0  0  0
  4  5  2  0  0  0  0
  6  9  1  0  0  0  0
  7 19  2  0  0  0  0
  8 20  2  0  0  0  0
  9  3  2  0  0  0  0
 10 16  1  0  0  0  0
 11  1  1  0  0  0  0
 12 21  1  0  0  0  0
 13  6  1  0  0  0  0
 14 10  2  0  0  0  0
 15 21  1  6  0  0  0
 15 10  1  0  0  0  0
 16  5  1  0  0  0  0
 17  1  2  0  0  0  0
 17  7  1  0  0  0  0
 18  6  2  0  0  0  0
 18 23  1  0  0  0  0
 19 20  1  0  0  0  0
 19 14  1  0  0  0  0
 22  3  1  0  0  0  0
 22 12  1  0  0  0  0
 23 22  2  0  0  0  0
 24 31  1  0  0  0  0
 25 28  1  0  0  0  0
 25 30  1  0  0  0  0
 27 24  1  0  0  0  0
 28 24  1  0  0  0  0
 29 26  1  1  0  0  0
 30  5  1  6  0  0  0
 30 29  1  0  0  0  0
 31 29  1  0  0  0  0
M  END
>  <MODEL>
9

>  <REMARK>
 VINA RESULT:      -7.4      3.598      6.947
  Name = 
  1 active torsions:
  status: ('A' for Active; 'I' for Inactive)
    1  A    between atoms: C_5  and  C_30
                            x       y       z     vdW  Elec       q    Type
                         _______ _______ _______ _____ _____    ______ ____

>  <TORSDO>
F 1

$$$$
