=
 OpenBabel11112417283D

 37 45  0  0  1  0  0  0  0  0999 V2000
  189.6430  173.7080  139.6200 C   0  0  2  0  0  3  0  0  0  0  0  0
  187.4680  177.3280  141.6650 C   0  0  0  0  0  0  0  0  0  0  0  0
  189.3870  174.8280  144.3310 C   0  0  0  0  0  0  0  0  0  0  0  0
  189.4500  172.5490  138.6320 C   0  0  1  0  0  0  0  0  0  0  0  0
  192.6460  173.2270  142.8710 C   0  0  0  0  0  2  0  0  0  0  0  0
  187.6130  176.4090  144.0150 C   0  0  0  0  0  0  0  0  0  0  0  0
  190.3110  173.9810  143.4920 C   0  0  2  0  0  3  0  0  0  0  0  0
  191.8240  172.3740  139.3360 C   0  0  2  0  0  3  0  0  0  0  0  0
  188.4970  175.4640  143.5310 C   0  0  0  0  0  0  0  0  0  0  0  0
  191.8290  174.1810  143.7630 C   0  0  1  0  0  3  0  0  0  0  0  0
  187.5680  176.6330  145.3590 N   0  0  0  0  0  0  0  0  0  0  0  0
  190.7830  173.3240  138.7510 C   0  0  2  0  0  3  0  0  0  0  0  0
  188.7200  175.2350  142.1690 N   0  0  0  0  0  0  0  0  0  0  0  0
  188.6050  178.3300  141.7810 C   0  0  0  0  0  1  0  0  0  0  0  0
  190.3800  174.4560  146.5970 C   0  0  0  0  0  2  0  0  0  0  0  0
  188.4160  175.9770  146.2120 C   0  0  0  0  0  3  0  0  0  0  0  0
  188.0170  175.9870  141.1270 C   0  0  0  0  0  2  0  0  0  0  0  0
  191.8350  172.3390  140.8600 C   0  0  1  0  0  3  0  0  0  0  0  0
  192.4760  173.5140  141.4560 N   0  0  0  0  0  2  0  0  0  0  0  0
  189.3560  175.0540  145.7090 C   0  0  0  0  0  0  0  0  0  0  0  0
  189.9270  174.4230  142.0370 C   0  0  2  0  0  3  0  0  0  0  0  0
  186.7660  177.1690  143.0360 C   0  0  0  0  0  2  0  0  0  0  0  0
  192.2150  173.8970  145.2430 C   0  0  2  0  0  3  0  0  0  0  0  0
  186.4630  177.8670  140.6700 C   0  0  0  0  0  1  0  0  0  0  0  0
  190.5300  172.1260  141.3590 O   0  0  0  0  0  0  0  0  0  0  0  0
  193.1980  172.6670  138.7630 C   0  0  0  0  0  1  0  0  0  0  0  0
  189.6880  173.2350  141.0910 C   0  0  2  0  0  3  0  0  0  0  0  0
  191.6870  174.9070  146.1500 N   0  0  0  0  0  2  0  0  0  0  0  0
  188.1050  173.0000  138.2070 C   0  0  0  0  0  2  0  0  0  0  0  0
  189.1320  172.8610  137.2130 N   0  0  0  0  0  2  0  0  0  0  0  0
  194.4900  174.9530  145.5800 C   0  0  0  0  0  3  0  0  0  0  0  0
  193.7000  173.8000  145.4590 C   0  0  0  0  0  0  0  0  0  0  0  0
  194.2980  172.5380  145.5440 C   0  0  0  0  0  3  0  0  0  0  0  0
  196.2670  171.1730  145.8260 O   0  0  0  0  0  1  0  0  0  0  0  0
  196.4620  173.5780  145.8620 C   0  0  0  0  0  3  0  0  0  0  0  0
  195.6770  172.4270  145.7440 C   0  0  0  0  0  0  0  0  0  0  0  0
  195.8680  174.8400  145.7800 C   0  0  0  0  0  3  0  0  0  0  0  0
  1 27  1  0  0  0  0
  2 14  1  0  0  0  0
  2 22  1  0  0  0  0
  3 20  1  0  0  0  0
  4 12  1  0  0  0  0
  4  1  1  0  0  0  0
  5 10  1  0  0  0  0
  6 11  2  0  0  0  0
  7 10  1  0  0  0  0
  7  3  1  0  0  0  0
  8 18  1  0  0  0  0
  9  6  1  0  0  0  0
  9  3  2  0  0  0  0
 10 23  1  0  0  0  0
 11 16  1  0  0  0  0
 12  8  1  0  0  0  0
 12  1  1  0  0  0  0
 13  9  1  0  0  0  0
 17  2  1  0  0  0  0
 17 13  1  0  0  0  0
 18 25  1  0  0  0  0
 18 19  1  0  0  0  0
 19  5  1  0  0  0  0
 20 16  2  0  0  0  0
 20 15  1  0  0  0  0
 21 13  1  0  0  0  0
 21  7  1  0  0  0  0
 22  6  1  0  0  0  0
 23 32  1  0  0  0  0
 23 28  1  0  0  0  0
 24  2  1  0  0  0  0
 26  8  1  0  0  0  0
 27 25  1  0  0  0  0
 27 21  1  0  0  0  0
 28 15  1  0  0  0  0
 29  4  1  0  0  0  0
 30 29  1  0  0  0  0
 30  4  1  0  0  0  0
 31 37  1  0  0  0  0
 32 33  1  0  0  0  0
 32 31  2  0  0  0  0
 33 36  2  0  0  0  0
 36 34  1  0  0  0  0
 36 35  1  0  0  0  0
 37 35  2  0  0  0  0
M  END
>  <MODEL>
1

>  <REMARK>
 VINA RESULT:      -8.7      0.000      0.000
  Name = 
  1 active torsions:
  status: ('A' for Active; 'I' for Inactive)
    1  A    between atoms: C_23  and  C_30
                            x       y       z     vdW  Elec       q    Type
                         _______ _______ _______ _____ _____    ______ ____

>  <TORSDO>
F 1

$$$$
=
 OpenBabel11112417283D

 37 45  0  0  1  0  0  0  0  0999 V2000
  194.7490  174.2100  144.3290 C   0  0  2  0  0  3  0  0  0  0  0  0
  194.1610  173.2790  139.7680 C   0  0  0  0  0  0  0  0  0  0  0  0
  190.6510  173.2150  141.9380 C   0  0  0  0  0  0  0  0  0  0  0  0
  195.5570  173.8200  145.5750 C   0  0  1  0  0  0  0  0  0  0  0  0
  190.6200  175.7730  144.8980 C   0  0  0  0  0  2  0  0  0  0  0  0
  191.8000  172.4070  139.9950 C   0  0  0  0  0  0  0  0  0  0  0  0
  190.9760  173.8880  143.2470 C   0  0  2  0  0  3  0  0  0  0  0  0
  194.0490  175.6310  146.3560 C   0  0  2  0  0  3  0  0  0  0  0  0
  191.7970  172.9130  141.2810 C   0  0  0  0  0  0  0  0  0  0  0  0
  190.2240  175.2230  143.5150 C   0  0  1  0  0  3  0  0  0  0  0  0
  190.6060  172.1080  139.4080 N   0  0  0  0  0  0  0  0  0  0  0  0
  195.0970  175.2710  145.3050 C   0  0  2  0  0  3  0  0  0  0  0  0
  192.9440  173.3690  141.9380 N   0  0  0  0  0  0  0  0  0  0  0  0
  193.8070  174.6550  139.2280 C   0  0  0  0  0  1  0  0  0  0  0  0
  188.1520  173.3310  141.9890 C   0  0  0  0  0  2  0  0  0  0  0  0
  189.4230  172.3510  140.0540 C   0  0  0  0  0  3  0  0  0  0  0  0
  194.2660  173.3420  141.3090 C   0  0  0  0  0  2  0  0  0  0  0  0
  192.6310  175.2260  145.9710 C   0  0  1  0  0  3  0  0  0  0  0  0
  192.0320  176.1160  144.9720 N   0  0  0  0  0  2  0  0  0  0  0  0
  189.4200  172.9190  141.3440 C   0  0  0  0  0  0  0  0  0  0  0  0
  192.5220  174.1190  143.1200 C   0  0  2  0  0  3  0  0  0  0  0  0
  193.1150  172.2410  139.2910 C   0  0  0  0  0  2  0  0  0  0  0  0
  188.6780  175.0530  143.4950 C   0  0  2  0  0  3  0  0  0  0  0  0
  195.5140  172.8880  139.2130 C   0  0  0  0  0  1  0  0  0  0  0  0
  192.5940  173.8700  145.5750 O   0  0  0  0  0  0  0  0  0  0  0  0
  194.1420  177.1000  146.7240 C   0  0  0  0  0  1  0  0  0  0  0  0
  193.3020  173.6660  144.3630 C   0  0  2  0  0  3  0  0  0  0  0  0
  188.1750  174.7730  142.1570 N   0  0  0  0  0  2  0  0  0  0  0  0
  196.4880  172.9470  144.8250 C   0  0  0  0  0  2  0  0  0  0  0  0
  197.0280  174.0440  145.5770 N   0  0  0  0  0  2  0  0  0  0  0  0
  187.6250  177.3350  143.2050 C   0  0  0  0  0  3  0  0  0  0  0  0
  187.9440  176.2490  144.0340 C   0  0  0  0  0  0  0  0  0  0  0  0
  187.5730  176.2740  145.3820 C   0  0  0  0  0  3  0  0  0  0  0  0
  186.5260  177.4000  147.2410 O   0  0  0  0  0  1  0  0  0  0  0  0
  186.5750  178.4600  145.0740 C   0  0  0  0  0  3  0  0  0  0  0  0
  186.8910  177.3780  145.9030 C   0  0  0  0  0  0  0  0  0  0  0  0
  186.9420  178.4370  143.7260 C   0  0  0  0  0  3  0  0  0  0  0  0
  1 27  1  0  0  0  0
  1 12  1  0  0  0  0
  1  4  1  0  0  0  0
  2 17  1  0  0  0  0
  3  7  1  0  0  0  0
  4 30  1  0  0  0  0
  5 19  1  0  0  0  0
  6  9  1  0  0  0  0
  7 10  1  0  0  0  0
  8 26  1  0  0  0  0
  9 13  1  0  0  0  0
  9  3  2  0  0  0  0
 10  5  1  0  0  0  0
 11  6  2  0  0  0  0
 11 16  1  0  0  0  0
 12  4  1  0  0  0  0
 12  8  1  0  0  0  0
 13 21  1  0  0  0  0
 14  2  1  0  0  0  0
 15 28  1  0  0  0  0
 16 20  2  0  0  0  0
 17 13  1  0  0  0  0
 18  8  1  0  0  0  0
 19 18  1  0  0  0  0
 20  3  1  0  0  0  0
 20 15  1  0  0  0  0
 21  7  1  0  0  0  0
 21 27  1  0  0  0  0
 22  2  1  0  0  0  0
 22  6  1  0  0  0  0
 23 10  1  0  0  0  0
 23 32  1  0  0  0  0
 24  2  1  0  0  0  0
 25 18  1  0  0  0  0
 27 25  1  0  0  0  0
 28 23  1  0  0  0  0
 29  4  1  0  0  0  0
 29 30  1  0  0  0  0
 31 37  2  0  0  0  0
 31 32  1  0  0  0  0
 32 33  2  0  0  0  0
 33 36  1  0  0  0  0
 35 36  2  0  0  0  0
 36 34  1  0  0  0  0
 37 35  1  0  0  0  0
M  END
>  <MODEL>
2

>  <REMARK>
 VINA RESULT:      -8.5      2.344      7.362
  Name = 
  1 active torsions:
  status: ('A' for Active; 'I' for Inactive)
    1  A    between atoms: C_23  and  C_30
                            x       y       z     vdW  Elec       q    Type
                         _______ _______ _______ _____ _____    ______ ____

>  <TORSDO>
F 1

$$$$
=
 OpenBabel11112417283D

 37 45  0  0  1  0  0  0  0  0999 V2000
  189.7070  173.5240  140.5120 C   0  0  2  0  0  3  0  0  0  0  0  0
  188.1160  177.4790  142.4720 C   0  0  0  0  0  0  0  0  0  0  0  0
  190.6780  175.3410  144.9010 C   0  0  0  0  0  0  0  0  0  0  0  0
  189.2710  172.2370  139.7970 C   0  0  1  0  0  0  0  0  0  0  0  0
  193.4550  173.4320  142.9120 C   0  0  0  0  0  2  0  0  0  0  0  0
  188.8730  176.9160  144.8170 C   0  0  0  0  0  0  0  0  0  0  0  0
  191.3570  174.3480  143.9920 C   0  0  2  0  0  3  0  0  0  0  0  0
  191.7470  172.0890  139.8820 C   0  0  2  0  0  3  0  0  0  0  0  0
  189.6070  175.8810  144.2710 C   0  0  0  0  0  0  0  0  0  0  0  0
  192.8920  174.5340  143.8280 C   0  0  1  0  0  3  0  0  0  0  0  0
  189.1780  177.3390  146.0770 N   0  0  0  0  0  0  0  0  0  0  0  0
  190.5830  172.9770  139.4480 C   0  0  2  0  0  3  0  0  0  0  0  0
  189.4690  175.4440  142.9490 N   0  0  0  0  0  0  0  0  0  0  0  0
  189.2380  178.4480  142.1360 C   0  0  0  0  0  1  0  0  0  0  0  0
  192.2290  175.2780  146.8640 C   0  0  0  0  0  2  0  0  0  0  0  0
  190.2220  176.7890  146.7710 C   0  0  0  0  0  3  0  0  0  0  0  0
  188.5140  176.0550  142.0220 C   0  0  0  0  0  2  0  0  0  0  0  0
  192.1540  172.2810  141.3390 C   0  0  1  0  0  3  0  0  0  0  0  0
  192.9210  173.5100  141.5620 N   0  0  0  0  0  2  0  0  0  0  0  0
  191.0050  175.7710  146.1900 C   0  0  0  0  0  0  0  0  0  0  0  0
  190.6050  174.5800  142.6360 C   0  0  2  0  0  3  0  0  0  0  0  0
  187.7960  177.5500  143.9850 C   0  0  0  0  0  2  0  0  0  0  0  0
  193.6520  174.4610  145.1850 C   0  0  2  0  0  3  0  0  0  0  0  0
  186.8830  177.8970  141.7000 C   0  0  0  0  0  1  0  0  0  0  0  0
  191.0260  172.1890  142.1840 O   0  0  0  0  0  0  0  0  0  0  0  0
  192.9230  172.2470  138.9370 C   0  0  0  0  0  1  0  0  0  0  0  0
  190.1360  173.2740  141.9770 C   0  0  2  0  0  3  0  0  0  0  0  0
  193.3710  175.6120  146.0320 N   0  0  0  0  0  2  0  0  0  0  0  0
  187.8590  172.6650  139.6690 C   0  0  0  0  0  2  0  0  0  0  0  0
  188.5920  172.3450  138.4770 N   0  0  0  0  0  2  0  0  0  0  0  0
  195.8730  173.3750  145.7220 C   0  0  0  0  0  3  0  0  0  0  0  0
  195.1420  174.3470  145.0230 C   0  0  0  0  0  0  0  0  0  0  0  0
  195.8060  175.2250  144.1590 C   0  0  0  0  0  3  0  0  0  0  0  0
  197.8470  176.0080  143.1390 O   0  0  0  0  0  1  0  0  0  0  0  0
  197.9170  174.1650  144.6950 C   0  0  0  0  0  3  0  0  0  0  0  0
  197.1910  175.1350  143.9950 C   0  0  0  0  0  0  0  0  0  0  0  0
  197.2580  173.2860  145.5570 C   0  0  0  0  0  3  0  0  0  0  0  0
  1 27  1  0  0  0  0
  2 22  1  0  0  0  0
  3 20  1  0  0  0  0
  4  1  1  0  0  0  0
  5 10  1  0  0  0  0
  6 11  2  0  0  0  0
  7  3  1  0  0  0  0
  8 18  1  0  0  0  0
  9  6  1  0  0  0  0
  9  3  2  0  0  0  0
 10  7  1  0  0  0  0
 10 23  1  0  0  0  0
 11 16  1  0  0  0  0
 12  4  1  0  0  0  0
 12  8  1  0  0  0  0
 12  1  1  0  0  0  0
 13  9  1  0  0  0  0
 14  2  1  0  0  0  0
 17  2  1  0  0  0  0
 17 13  1  0  0  0  0
 18 19  1  0  0  0  0
 18 25  1  0  0  0  0
 19  5  1  0  0  0  0
 20 16  2  0  0  0  0
 20 15  1  0  0  0  0
 21 13  1  0  0  0  0
 21  7  1  0  0  0  0
 22  6  1  0  0  0  0
 23 28  1  0  0  0  0
 24  2  1  0  0  0  0
 26  8  1  0  0  0  0
 27 25  1  0  0  0  0
 27 21  1  0  0  0  0
 28 15  1  0  0  0  0
 29  4  1  0  0  0  0
 30 29  1  0  0  0  0
 30  4  1  0  0  0  0
 32 23  1  0  0  0  0
 32 31  2  0  0  0  0
 33 32  1  0  0  0  0
 34 36  1  0  0  0  0
 35 37  2  0  0  0  0
 36 33  2  0  0  0  0
 36 35  1  0  0  0  0
 37 31  1  0  0  0  0
M  END
>  <MODEL>
3

>  <REMARK>
 VINA RESULT:      -8.4      1.562      1.819
  Name = 
  1 active torsions:
  status: ('A' for Active; 'I' for Inactive)
    1  A    between atoms: C_23  and  C_30
                            x       y       z     vdW  Elec       q    Type
                         _______ _______ _______ _____ _____    ______ ____

>  <TORSDO>
F 1

$$$$
=
 OpenBabel11112417283D

 37 45  0  0  1  0  0  0  0  0999 V2000
  190.0590  177.1160  147.2120 C   0  0  2  0  0  3  0  0  0  0  0  0
  185.4980  178.0870  146.7010 C   0  0  0  0  0  0  0  0  0  0  0  0
  187.5060  177.6360  143.1230 C   0  0  0  0  0  0  0  0  0  0  0  0
  191.3490  177.5740  147.9090 C   0  0  1  0  0  0  0  0  0  0  0  0
  190.4070  175.0150  143.3030 C   0  0  0  0  0  2  0  0  0  0  0  0
  185.6360  178.6380  144.2370 C   0  0  0  0  0  0  0  0  0  0  0  0
  188.8140  176.9750  143.4790 C   0  0  2  0  0  3  0  0  0  0  0  0
  192.0210  175.5610  146.6190 C   0  0  2  0  0  3  0  0  0  0  0  0
  186.9090  178.1010  144.2470 C   0  0  0  0  0  0  0  0  0  0  0  0
  189.0200  175.5470  142.8970 C   0  0  1  0  0  3  0  0  0  0  0  0
  185.0020  178.7960  143.0410 N   0  0  0  0  0  0  0  0  0  0  0  0
  191.0270  176.0830  147.6540 C   0  0  2  0  0  3  0  0  0  0  0  0
  187.6080  177.7800  145.4150 N   0  0  0  0  0  0  0  0  0  0  0  0
  184.9120  176.6920  146.5520 C   0  0  0  0  0  1  0  0  0  0  0  0
  187.4410  177.1950  140.6610 C   0  0  0  0  0  2  0  0  0  0  0  0
  185.5880  178.3840  141.8740 C   0  0  0  0  0  3  0  0  0  0  0  0
  187.0400  177.9960  146.7470 C   0  0  0  0  0  2  0  0  0  0  0  0
  191.5810  175.7890  145.1780 C   0  0  1  0  0  3  0  0  0  0  0  0
  190.5370  174.8570  144.7430 N   0  0  0  0  0  2  0  0  0  0  0  0
  186.8640  177.7850  141.8910 C   0  0  0  0  0  0  0  0  0  0  0  0
  188.7520  176.9500  145.0450 C   0  0  2  0  0  3  0  0  0  0  0  0
  184.9960  178.9930  145.5490 C   0  0  0  0  0  2  0  0  0  0  0  0
  188.9330  175.5150  141.3440 C   0  0  2  0  0  3  0  0  0  0  0  0
  185.0130  178.6650  148.0130 C   0  0  0  0  0  1  0  0  0  0  0  0
  191.2140  177.1400  144.9800 O   0  0  0  0  0  0  0  0  0  0  0  0
  192.3610  174.1070  146.8880 C   0  0  0  0  0  1  0  0  0  0  0  0
  190.0400  177.4660  145.7060 C   0  0  2  0  0  3  0  0  0  0  0  0
  187.5790  175.7640  140.8660 N   0  0  0  0  0  2  0  0  0  0  0  0
  190.6600  178.5800  148.7480 C   0  0  0  0  0  2  0  0  0  0  0  0
  191.4130  177.5420  149.3950 N   0  0  0  0  0  2  0  0  0  0  0  0
  188.5570  173.1110  140.6500 C   0  0  0  0  0  3  0  0  0  0  0  0
  189.4120  174.2200  140.7510 C   0  0  0  0  0  0  0  0  0  0  0  0
  190.7290  174.1230  140.2910 C   0  0  0  0  0  3  0  0  0  0  0  0
  192.5020  172.8340  139.2820 O   0  0  0  0  0  1  0  0  0  0  0  0
  190.3400  171.8230  139.6390 C   0  0  0  0  0  3  0  0  0  0  0  0
  191.1940  172.9270  139.7370 C   0  0  0  0  0  0  0  0  0  0  0  0
  189.0230  171.9160  140.0960 C   0  0  0  0  0  3  0  0  0  0  0  0
  1 12  1  0  0  0  0
  1  4  1  0  0  0  0
  2 17  1  0  0  0  0
  2 24  1  0  0  0  0
  3  7  1  0  0  0  0
  3  9  1  0  0  0  0
  4 29  1  0  0  0  0
  4 30  1  0  0  0  0
  5 19  1  0  0  0  0
  6  9  2  0  0  0  0
  6 22  1  0  0  0  0
  7 21  1  0  0  0  0
  8 26  1  0  0  0  0
  8 12  1  0  0  0  0
  9 13  1  0  0  0  0
 10  5  1  0  0  0  0
 10  7  1  0  0  0  0
 11  6  1  0  0  0  0
 12  4  1  0  0  0  0
 13 17  1  0  0  0  0
 14  2  1  0  0  0  0
 15 28  1  0  0  0  0
 15 20  1  0  0  0  0
 16 20  1  0  0  0  0
 16 11  2  0  0  0  0
 18  8  1  0  0  0  0
 19 18  1  0  0  0  0
 20  3  2  0  0  0  0
 21 13  1  0  0  0  0
 21 27  1  0  0  0  0
 22  2  1  0  0  0  0
 23 10  1  0  0  0  0
 25 18  1  0  0  0  0
 25 27  1  0  0  0  0
 27  1  1  0  0  0  0
 28 23  1  0  0  0  0
 29 30  1  0  0  0  0
 31 32  1  0  0  0  0
 32 23  1  0  0  0  0
 33 32  2  0  0  0  0
 34 36  1  0  0  0  0
 35 36  2  0  0  0  0
 35 37  1  0  0  0  0
 36 33  1  0  0  0  0
 37 31  2  0  0  0  0
M  END
>  <MODEL>
4

>  <REMARK>
 VINA RESULT:      -8.4      2.563      6.891
  Name = 
  1 active torsions:
  status: ('A' for Active; 'I' for Inactive)
    1  A    between atoms: C_23  and  C_30
                            x       y       z     vdW  Elec       q    Type
                         _______ _______ _______ _____ _____    ______ ____

>  <TORSDO>
F 1

$$$$
=
 OpenBabel11112417283D

 37 45  0  0  1  0  0  0  0  0999 V2000
  187.9530  177.0340  144.5290 C   0  0  2  0  0  3  0  0  0  0  0  0
  192.2510  176.1750  146.2040 C   0  0  0  0  0  0  0  0  0  0  0  0
  190.9160  173.3270  143.5310 C   0  0  0  0  0  0  0  0  0  0  0  0
  186.5110  177.3630  144.9390 C   0  0  1  0  0  0  0  0  0  0  0  0
  188.6080  174.7990  140.7350 C   0  0  0  0  0  2  0  0  0  0  0  0
  192.3640  173.7860  145.3850 C   0  0  0  0  0  0  0  0  0  0  0  0
  189.7310  173.9520  142.8400 C   0  0  2  0  0  3  0  0  0  0  0  0
  186.4530  177.3070  142.4570 C   0  0  2  0  0  3  0  0  0  0  0  0
  191.2380  174.0520  144.6310 C   0  0  0  0  0  0  0  0  0  0  0  0
  189.9040  174.2010  141.3140 C   0  0  1  0  0  3  0  0  0  0  0  0
  193.1200  172.6970  145.0710 N   0  0  0  0  0  0  0  0  0  0  0  0
  187.1600  177.9330  143.6560 C   0  0  2  0  0  3  0  0  0  0  0  0
  190.4560  175.2010  144.7800 N   0  0  0  0  0  0  0  0  0  0  0  0
  193.1210  176.7910  145.1200 C   0  0  0  0  0  1  0  0  0  0  0  0
  191.4250  171.4630  141.9430 C   0  0  0  0  0  2  0  0  0  0  0  0
  192.8050  171.9080  143.9960 C   0  0  0  0  0  3  0  0  0  0  0  0
  190.7690  176.2340  145.7710 C   0  0  0  0  0  2  0  0  0  0  0  0
  187.0430  175.9680  142.0290 C   0  0  1  0  0  3  0  0  0  0  0  0
  188.3040  176.1060  141.2970 N   0  0  0  0  0  2  0  0  0  0  0  0
  191.6870  172.2120  143.1930 C   0  0  0  0  0  0  0  0  0  0  0  0
  189.5680  175.3000  143.6240 C   0  0  2  0  0  3  0  0  0  0  0  0
  192.7220  174.7290  146.4980 C   0  0  0  0  0  2  0  0  0  0  0  0
  190.2200  172.8960  140.5270 C   0  0  2  0  0  3  0  0  0  0  0  0
  192.4140  176.9990  147.4640 C   0  0  0  0  0  1  0  0  0  0  0  0
  187.1550  175.0990  143.1380 O   0  0  0  0  0  0  0  0  0  0  0  0
  186.3770  178.2910  141.3050 C   0  0  0  0  0  1  0  0  0  0  0  0
  188.1210  175.5690  144.0650 C   0  0  2  0  0  3  0  0  0  0  0  0
  191.5500  172.3850  140.8270 N   0  0  0  0  0  2  0  0  0  0  0  0
  186.8530  177.5640  146.3650 C   0  0  0  0  0  2  0  0  0  0  0  0
  186.2390  178.6440  145.6450 N   0  0  0  0  0  2  0  0  0  0  0  0
  189.0310  172.4970  138.3300 C   0  0  0  0  0  3  0  0  0  0  0  0
  190.1030  173.0610  139.0370 C   0  0  0  0  0  0  0  0  0  0  0  0
  191.0790  173.7910  138.3510 C   0  0  0  0  0  3  0  0  0  0  0  0
  191.9590  174.6790  136.2880 O   0  0  0  0  0  1  0  0  0  0  0  0
  189.9200  173.3900  136.2620 C   0  0  0  0  0  3  0  0  0  0  0  0
  190.9890  173.9550  136.9660 C   0  0  0  0  0  0  0  0  0  0  0  0
  188.9410  172.6620  136.9440 C   0  0  0  0  0  3  0  0  0  0  0  0
  1  4  1  0  0  0  0
  2 22  1  0  0  0  0
  2 24  1  0  0  0  0
  3  9  1  0  0  0  0
  4 30  1  0  0  0  0
  4 29  1  0  0  0  0
  5 19  1  0  0  0  0
  5 10  1  0  0  0  0
  6 22  1  0  0  0  0
  7  3  1  0  0  0  0
  7 21  1  0  0  0  0
  8 12  1  0  0  0  0
  9 13  1  0  0  0  0
  9  6  2  0  0  0  0
 10  7  1  0  0  0  0
 11  6  1  0  0  0  0
 12  1  1  0  0  0  0
 12  4  1  0  0  0  0
 13 17  1  0  0  0  0
 14  2  1  0  0  0  0
 15 20  1  0  0  0  0
 16 11  2  0  0  0  0
 17  2  1  0  0  0  0
 18  8  1  0  0  0  0
 18 25  1  0  0  0  0
 19 18  1  0  0  0  0
 20  3  2  0  0  0  0
 20 16  1  0  0  0  0
 21 27  1  0  0  0  0
 21 13  1  0  0  0  0
 23 28  1  0  0  0  0
 23 10  1  0  0  0  0
 25 27  1  0  0  0  0
 26  8  1  0  0  0  0
 27  1  1  0  0  0  0
 28 15  1  0  0  0  0
 30 29  1  0  0  0  0
 31 32  1  0  0  0  0
 32 23  1  0  0  0  0
 33 32  2  0  0  0  0
 34 36  1  0  0  0  0
 35 37  1  0  0  0  0
 35 36  2  0  0  0  0
 36 33  1  0  0  0  0
 37 31  2  0  0  0  0
M  END
>  <MODEL>
5

>  <REMARK>
 VINA RESULT:      -8.2      2.616      7.078
  Name = 
  1 active torsions:
  status: ('A' for Active; 'I' for Inactive)
    1  A    between atoms: C_23  and  C_30
                            x       y       z     vdW  Elec       q    Type
                         _______ _______ _______ _____ _____    ______ ____

>  <TORSDO>
F 1

$$$$
=
 OpenBabel11112417283D

 37 45  0  0  1  0  0  0  0  0999 V2000
  189.3680  176.1210  144.0420 C   0  0  2  0  0  3  0  0  0  0  0  0
  193.8780  175.6560  145.2490 C   0  0  0  0  0  0  0  0  0  0  0  0
  192.2980  172.3090  143.4220 C   0  0  0  0  0  0  0  0  0  0  0  0
  187.9820  176.5180  144.5710 C   0  0  1  0  0  0  0  0  0  0  0  0
  189.5880  173.1560  140.7290 C   0  0  0  0  0  2  0  0  0  0  0  0
  193.9640  173.1500  144.9260 C   0  0  0  0  0  0  0  0  0  0  0  0
  191.0100  172.7690  142.7870 C   0  0  2  0  0  3  0  0  0  0  0  0
  187.5950  175.9500  142.1850 C   0  0  2  0  0  3  0  0  0  0  0  0
  192.7380  173.2470  144.2960 C   0  0  0  0  0  0  0  0  0  0  0  0
  190.9690  172.6990  141.2340 C   0  0  1  0  0  3  0  0  0  0  0  0
  194.7090  172.0250  144.7380 N   0  0  0  0  0  0  0  0  0  0  0  0
  188.4340  176.8160  143.1220 C   0  0  2  0  0  3  0  0  0  0  0  0
  191.9440  174.3970  144.3140 N   0  0  0  0  0  0  0  0  0  0  0  0
  194.5730  176.0400  143.9520 C   0  0  0  0  0  1  0  0  0  0  0  0
  192.6560  170.1600  142.1910 C   0  0  0  0  0  2  0  0  0  0  0  0
  194.2810  171.0280  143.9010 C   0  0  0  0  0  3  0  0  0  0  0  0
  192.3500  175.6140  145.0210 C   0  0  0  0  0  2  0  0  0  0  0  0
  188.1690  174.5560  141.9610 C   0  0  1  0  0  3  0  0  0  0  0  0
  189.3160  174.5480  141.0500 N   0  0  0  0  0  2  0  0  0  0  0  0
  193.0560  171.1530  143.2150 C   0  0  0  0  0  0  0  0  0  0  0  0
  190.9060  174.2490  143.2950 C   0  0  2  0  0  3  0  0  0  0  0  0
  194.4340  174.3050  145.7630 C   0  0  0  0  0  2  0  0  0  0  0  0
  191.2230  171.2620  140.6930 C   0  0  2  0  0  3  0  0  0  0  0  0
  194.1780  176.7230  146.2800 C   0  0  0  0  0  1  0  0  0  0  0  0
  188.4590  173.9360  143.1980 O   0  0  0  0  0  0  0  0  0  0  0  0
  187.3320  176.6750  140.8790 C   0  0  0  0  0  1  0  0  0  0  0  0
  189.5230  174.5930  143.8670 C   0  0  2  0  0  3  0  0  0  0  0  0
  192.5990  170.8320  140.9050 N   0  0  0  0  0  2  0  0  0  0  0  0
  188.5040  177.0110  145.8660 C   0  0  0  0  0  2  0  0  0  0  0  0
  187.7630  177.9160  145.0320 N   0  0  0  0  0  2  0  0  0  0  0  0
  189.9750  170.1610  138.7880 C   0  0  0  0  0  3  0  0  0  0  0  0
  190.9030  171.1150  139.2320 C   0  0  0  0  0  0  0  0  0  0  0  0
  191.5410  171.9450  138.3040 C   0  0  0  0  0  3  0  0  0  0  0  0
  191.8920  172.6480  136.0240 O   0  0  0  0  0  1  0  0  0  0  0  0
  190.3320  170.8710  136.5010 C   0  0  0  0  0  3  0  0  0  0  0  0
  191.2570  171.8240  136.9410 C   0  0  0  0  0  0  0  0  0  0  0  0
  189.6910  170.0400  137.4240 C   0  0  0  0  0  3  0  0  0  0  0  0
  1  4  1  0  0  0  0
  2 22  1  0  0  0  0
  2 24  1  0  0  0  0
  3  9  1  0  0  0  0
  4 30  1  0  0  0  0
  4 29  1  0  0  0  0
  5 19  1  0  0  0  0
  5 10  1  0  0  0  0
  6 22  1  0  0  0  0
  7 21  1  0  0  0  0
  7  3  1  0  0  0  0
  8 12  1  0  0  0  0
  9 13  1  0  0  0  0
  9  6  2  0  0  0  0
 10  7  1  0  0  0  0
 11  6  1  0  0  0  0
 12  1  1  0  0  0  0
 12  4  1  0  0  0  0
 13 17  1  0  0  0  0
 14  2  1  0  0  0  0
 15 20  1  0  0  0  0
 16 11  2  0  0  0  0
 17  2  1  0  0  0  0
 18  8  1  0  0  0  0
 18 25  1  0  0  0  0
 19 18  1  0  0  0  0
 20  3  2  0  0  0  0
 20 16  1  0  0  0  0
 21 27  1  0  0  0  0
 21 13  1  0  0  0  0
 23 28  1  0  0  0  0
 23 10  1  0  0  0  0
 25 27  1  0  0  0  0
 26  8  1  0  0  0  0
 27  1  1  0  0  0  0
 28 15  1  0  0  0  0
 30 29  1  0  0  0  0
 31 32  1  0  0  0  0
 32 23  1  0  0  0  0
 33 32  2  0  0  0  0
 34 36  1  0  0  0  0
 35 36  2  0  0  0  0
 35 37  1  0  0  0  0
 36 33  1  0  0  0  0
 37 31  2  0  0  0  0
M  END
>  <MODEL>
6

>  <REMARK>
 VINA RESULT:      -7.9      2.258      7.038
  Name = 
  1 active torsions:
  status: ('A' for Active; 'I' for Inactive)
    1  A    between atoms: C_23  and  C_30
                            x       y       z     vdW  Elec       q    Type
                         _______ _______ _______ _____ _____    ______ ____

>  <TORSDO>
F 1

$$$$
=
 OpenBabel11112417283D

 37 45  0  0  1  0  0  0  0  0999 V2000
  192.0350  172.0730  140.6840 C   0  0  2  0  0  3  0  0  0  0  0  0
  195.0950  171.0720  144.0970 C   0  0  0  0  0  0  0  0  0  0  0  0
  193.4210  174.8310  144.4230 C   0  0  0  0  0  0  0  0  0  0  0  0
  191.8470  172.0930  139.1600 C   0  0  1  0  0  0  0  0  0  0  0  0
  189.7320  174.9940  143.1290 C   0  0  0  0  0  2  0  0  0  0  0  0
  195.3050  173.4440  144.9460 C   0  0  0  0  0  0  0  0  0  0  0  0
  192.2300  174.8210  143.4990 C   0  0  2  0  0  3  0  0  0  0  0  0
  189.6700  172.8730  140.0630 C   0  0  2  0  0  3  0  0  0  0  0  0
  194.2110  173.7600  144.1640 C   0  0  0  0  0  0  0  0  0  0  0  0
  190.8470  174.9790  144.1920 C   0  0  1  0  0  3  0  0  0  0  0  0
  195.6600  174.2960  145.9490 N   0  0  0  0  0  0  0  0  0  0  0  0
  190.6970  171.7460  140.1340 C   0  0  2  0  0  3  0  0  0  0  0  0
  193.6800  172.9090  143.1900 N   0  0  0  0  0  0  0  0  0  0  0  0
  194.1670  170.5610  145.1870 C   0  0  0  0  0  1  0  0  0  0  0  0
  192.8740  176.8270  145.8290 C   0  0  0  0  0  2  0  0  0  0  0  0
  194.9190  175.4170  146.2160 C   0  0  0  0  0  3  0  0  0  0  0  0
  194.2560  171.5920  142.9080 C   0  0  0  0  0  2  0  0  0  0  0  0
  189.9700  174.0340  141.0050 C   0  0  1  0  0  3  0  0  0  0  0  0
  189.6460  173.7370  142.4030 N   0  0  0  0  0  2  0  0  0  0  0  0
  193.7700  175.7090  145.4540 C   0  0  0  0  0  0  0  0  0  0  0  0
  192.3660  173.4200  142.8070 C   0  0  2  0  0  3  0  0  0  0  0  0
  196.0340  172.1600  144.6750 C   0  0  0  0  0  2  0  0  0  0  0  0
  190.7370  176.2950  145.0160 C   0  0  2  0  0  3  0  0  0  0  0  0
  195.9410  169.9140  143.6150 C   0  0  0  0  0  1  0  0  0  0  0  0
  191.3040  174.4720  140.8420 O   0  0  0  0  0  0  0  0  0  0  0  0
  188.2660  172.3320  140.2550 C   0  0  0  0  0  1  0  0  0  0  0  0
  192.2270  173.4870  141.2790 C   0  0  2  0  0  3  0  0  0  0  0  0
  191.5850  176.2720  146.2000 N   0  0  0  0  0  2  0  0  0  0  0  0
  193.1270  171.3980  138.8910 C   0  0  0  0  0  2  0  0  0  0  0  0
  191.9080  170.8080  138.4120 N   0  0  0  0  0  2  0  0  0  0  0  0
  188.7530  175.9600  146.5490 C   0  0  0  0  0  3  0  0  0  0  0  0
  189.3320  176.6080  145.4470 C   0  0  0  0  0  0  0  0  0  0  0  0
  188.5950  177.5620  144.7390 C   0  0  0  0  0  3  0  0  0  0  0  0
  186.5570  178.8130  144.4180 O   0  0  0  0  0  1  0  0  0  0  0  0
  186.7110  177.2180  146.2220 C   0  0  0  0  0  3  0  0  0  0  0  0
  187.2860  177.8660  145.1240 C   0  0  0  0  0  0  0  0  0  0  0  0
  187.4450  176.2650  146.9340 C   0  0  0  0  0  3  0  0  0  0  0  0
  1 27  1  0  0  0  0
  2 22  1  0  0  0  0
  2 14  1  0  0  0  0
  3 20  1  0  0  0  0
  4 12  1  0  0  0  0
  4  1  1  0  0  0  0
  5 10  1  0  0  0  0
  6 11  2  0  0  0  0
  7 10  1  0  0  0  0
  7  3  1  0  0  0  0
  8 12  1  0  0  0  0
  8 26  1  0  0  0  0
  8 18  1  0  0  0  0
  9  3  2  0  0  0  0
  9  6  1  0  0  0  0
 10 23  1  0  0  0  0
 11 16  1  0  0  0  0
 12  1  1  0  0  0  0
 13  9  1  0  0  0  0
 15 28  1  0  0  0  0
 17 13  1  0  0  0  0
 17  2  1  0  0  0  0
 18 19  1  0  0  0  0
 19  5  1  0  0  0  0
 20 15  1  0  0  0  0
 20 16  2  0  0  0  0
 21 13  1  0  0  0  0
 21  7  1  0  0  0  0
 22  6  1  0  0  0  0
 23 32  1  0  0  0  0
 23 28  1  0  0  0  0
 24  2  1  0  0  0  0
 25 18  1  0  0  0  0
 25 27  1  0  0  0  0
 27 21  1  0  0  0  0
 29  4  1  0  0  0  0
 30 29  1  0  0  0  0
 30  4  1  0  0  0  0
 31 37  1  0  0  0  0
 32 31  2  0  0  0  0
 33 36  2  0  0  0  0
 33 32  1  0  0  0  0
 34 36  1  0  0  0  0
 35 37  2  0  0  0  0
 36 35  1  0  0  0  0
M  END
>  <MODEL>
7

>  <REMARK>
 VINA RESULT:      -7.8      2.343      6.486
  Name = 
  1 active torsions:
  status: ('A' for Active; 'I' for Inactive)
    1  A    between atoms: C_23  and  C_30
                            x       y       z     vdW  Elec       q    Type
                         _______ _______ _______ _____ _____    ______ ____

>  <TORSDO>
F 1

$$$$
=
 OpenBabel11112417283D

 37 45  0  0  1  0  0  0  0  0999 V2000
  187.8320  176.8050  144.8670 C   0  0  2  0  0  3  0  0  0  0  0  0
  192.1180  174.9150  145.1290 C   0  0  0  0  0  0  0  0  0  0  0  0
  189.8060  173.3600  142.0840 C   0  0  0  0  0  0  0  0  0  0  0  0
  186.5760  177.1380  145.6850 C   0  0  1  0  0  0  0  0  0  0  0  0
  187.3540  175.9770  140.5190 C   0  0  0  0  0  2  0  0  0  0  0  0
  191.6250  172.9680  143.5950 C   0  0  0  0  0  0  0  0  0  0  0  0
  188.6560  174.3210  141.9230 C   0  0  2  0  0  3  0  0  0  0  0  0
  186.0620  177.9590  143.4000 C   0  0  2  0  0  3  0  0  0  0  0  0
  190.4530  173.6110  143.2490 C   0  0  0  0  0  0  0  0  0  0  0  0
  188.5950  175.0660  140.5590 C   0  0  1  0  0  3  0  0  0  0  0  0
  192.0910  171.9760  142.7840 N   0  0  0  0  0  0  0  0  0  0  0  0
  187.0800  178.0400  144.5340 C   0  0  2  0  0  3  0  0  0  0  0  0
  189.9440  174.7190  143.9320 N   0  0  0  0  0  0  0  0  0  0  0  0
  192.8790  175.7640  144.1230 C   0  0  0  0  0  1  0  0  0  0  0  0
  189.6570  172.1220  139.9150 C   0  0  0  0  0  2  0  0  0  0  0  0
  191.4430  171.6550  141.6210 C   0  0  0  0  0  3  0  0  0  0  0  0
  190.6210  175.2960  145.0960 C   0  0  0  0  0  2  0  0  0  0  0  0
  186.2990  176.7950  142.4440 C   0  0  1  0  0  3  0  0  0  0  0  0
  187.4110  177.0300  141.5190 N   0  0  0  0  0  2  0  0  0  0  0  0
  190.2770  172.3500  141.2410 C   0  0  0  0  0  0  0  0  0  0  0  0
  188.8970  175.3200  143.1090 C   0  0  2  0  0  3  0  0  0  0  0  0
  192.3510  173.4130  144.8320 C   0  0  0  0  0  2  0  0  0  0  0  0
  188.5100  174.0910  139.3490 C   0  0  2  0  0  3  0  0  0  0  0  0
  192.6590  175.2210  146.5100 C   0  0  0  0  0  1  0  0  0  0  0  0
  186.4430  175.5870  143.1630 O   0  0  0  0  0  0  0  0  0  0  0  0
  185.9680  179.2860  142.6690 C   0  0  0  0  0  1  0  0  0  0  0  0
  187.6310  175.5860  143.9380 C   0  0  2  0  0  3  0  0  0  0  0  0
  189.7510  173.3540  139.1520 N   0  0  0  0  0  2  0  0  0  0  0  0
  187.2020  176.7850  146.9800 C   0  0  0  0  0  2  0  0  0  0  0  0
  186.6850  178.1130  146.8030 N   0  0  0  0  0  2  0  0  0  0  0  0
  187.0670  175.6530  137.9800 C   0  0  0  0  0  3  0  0  0  0  0  0
  188.1600  174.7780  138.0590 C   0  0  0  0  0  0  0  0  0  0  0  0
  188.9410  174.5410  136.9230 C   0  0  0  0  0  3  0  0  0  0  0  0
  189.4080  174.9310  134.5880 O   0  0  0  0  0  1  0  0  0  0  0  0
  187.5400  176.0410  135.6370 C   0  0  0  0  0  3  0  0  0  0  0  0
  188.6310  175.1700  135.7140 C   0  0  0  0  0  0  0  0  0  0  0  0
  186.7580  176.2820  136.7700 C   0  0  0  0  0  3  0  0  0  0  0  0
  1  4  1  0  0  0  0
  2 24  1  0  0  0  0
  3  9  1  0  0  0  0
  4 30  1  0  0  0  0
  4 29  1  0  0  0  0
  5 10  1  0  0  0  0
  5 19  1  0  0  0  0
  6 22  1  0  0  0  0
  7  3  1  0  0  0  0
  7 21  1  0  0  0  0
  8 12  1  0  0  0  0
  9  6  2  0  0  0  0
  9 13  1  0  0  0  0
 10  7  1  0  0  0  0
 11  6  1  0  0  0  0
 12  1  1  0  0  0  0
 12  4  1  0  0  0  0
 13 17  1  0  0  0  0
 14  2  1  0  0  0  0
 15 20  1  0  0  0  0
 16 11  2  0  0  0  0
 17  2  1  0  0  0  0
 18 25  1  0  0  0  0
 18  8  1  0  0  0  0
 19 18  1  0  0  0  0
 20 16  1  0  0  0  0
 20  3  2  0  0  0  0
 21 13  1  0  0  0  0
 21 27  1  0  0  0  0
 22  2  1  0  0  0  0
 23 10  1  0  0  0  0
 25 27  1  0  0  0  0
 26  8  1  0  0  0  0
 27  1  1  0  0  0  0
 28 23  1  0  0  0  0
 28 15  1  0  0  0  0
 30 29  1  0  0  0  0
 31 32  1  0  0  0  0
 32 23  1  0  0  0  0
 33 32  2  0  0  0  0
 34 36  1  0  0  0  0
 35 36  2  0  0  0  0
 35 37  1  0  0  0  0
 36 33  1  0  0  0  0
 37 31  2  0  0  0  0
M  END
>  <MODEL>
8

>  <REMARK>
 VINA RESULT:      -7.8      2.830      7.999
  Name = 
  1 active torsions:
  status: ('A' for Active; 'I' for Inactive)
    1  A    between atoms: C_23  and  C_30
                            x       y       z     vdW  Elec       q    Type
                         _______ _______ _______ _____ _____    ______ ____

>  <TORSDO>
F 1

$$$$
=
 OpenBabel11112417283D

 37 45  0  0  1  0  0  0  0  0999 V2000
  194.5570  174.1750  144.2390 C   0  0  2  0  0  3  0  0  0  0  0  0
  194.6660  173.8080  139.5630 C   0  0  0  0  0  0  0  0  0  0  0  0
  190.8960  173.3280  141.1750 C   0  0  0  0  0  0  0  0  0  0  0  0
  195.2040  173.6620  145.5340 C   0  0  1  0  0  0  0  0  0  0  0  0
  190.3050  175.4860  144.3850 C   0  0  0  0  0  2  0  0  0  0  0  0
  192.3500  172.8200  139.3370 C   0  0  0  0  0  0  0  0  0  0  0  0
  190.9970  173.8420  142.5890 C   0  0  2  0  0  3  0  0  0  0  0  0
  193.5000  175.2980  146.2980 C   0  0  2  0  0  3  0  0  0  0  0  0
  192.1390  173.1580  140.6600 C   0  0  0  0  0  0  0  0  0  0  0  0
  190.1390  175.1000  142.9030 C   0  0  1  0  0  3  0  0  0  0  0  0
  191.2690  172.5500  138.5510 N   0  0  0  0  0  0  0  0  0  0  0  0
  194.7030  175.1170  145.3760 C   0  0  2  0  0  3  0  0  0  0  0  0
  193.1540  173.5730  141.5280 N   0  0  0  0  0  0  0  0  0  0  0  0
  194.3110  175.2260  139.1460 C   0  0  0  0  0  1  0  0  0  0  0  0
  188.4130  173.3360  140.8750 C   0  0  0  0  0  2  0  0  0  0  0  0
  189.9960  172.6620  139.0430 C   0  0  0  0  0  3  0  0  0  0  0  0
  194.5500  173.6790  141.0990 C   0  0  0  0  0  2  0  0  0  0  0  0
  192.1750  174.8880  145.6650 C   0  0  1  0  0  3  0  0  0  0  0  0
  191.6700  175.8730  144.7040 N   0  0  0  0  0  2  0  0  0  0  0  0
  189.7800  173.0610  140.3770 C   0  0  0  0  0  0  0  0  0  0  0  0
  192.5290  174.1490  142.7160 C   0  0  2  0  0  3  0  0  0  0  0  0
  193.7580  172.7980  138.8170 C   0  0  0  0  0  2  0  0  0  0  0  0
  188.6220  174.8720  142.6380 C   0  0  2  0  0  3  0  0  0  0  0  0
  196.1030  173.5450  139.1670 C   0  0  0  0  0  1  0  0  0  0  0  0
  192.2720  173.5920  145.1090 O   0  0  0  0  0  0  0  0  0  0  0  0
  193.4550  176.7100  146.8490 C   0  0  0  0  0  1  0  0  0  0  0  0
  193.1530  173.5740  143.9970 C   0  0  2  0  0  3  0  0  0  0  0  0
  188.3280  174.7450  141.2170 N   0  0  0  0  0  2  0  0  0  0  0  0
  196.2800  172.9300  144.8270 C   0  0  0  0  0  2  0  0  0  0  0  0
  196.6450  173.9440  145.7770 N   0  0  0  0  0  2  0  0  0  0  0  0
  187.5980  176.1140  144.5890 C   0  0  0  0  0  3  0  0  0  0  0  0
  187.7520  175.9590  143.2030 C   0  0  0  0  0  0  0  0  0  0  0  0
  187.0900  176.8300  142.3310 C   0  0  0  0  0  3  0  0  0  0  0  0
  185.6200  178.7080  141.9690 O   0  0  0  0  0  1  0  0  0  0  0  0
  186.1230  177.9980  144.2200 C   0  0  0  0  0  3  0  0  0  0  0  0
  186.2760  177.8470  142.8380 C   0  0  0  0  0  0  0  0  0  0  0  0
  186.7840  177.1320  145.0950 C   0  0  0  0  0  3  0  0  0  0  0  0
  1 12  1  0  0  0  0
  1  4  1  0  0  0  0
  2 17  1  0  0  0  0
  3  7  1  0  0  0  0
  4 30  1  0  0  0  0
  5 19  1  0  0  0  0
  6  9  2  0  0  0  0
  7 21  1  0  0  0  0
  7 10  1  0  0  0  0
  8 26  1  0  0  0  0
  9  3  1  0  0  0  0
  9 13  1  0  0  0  0
 10  5  1  0  0  0  0
 11 16  2  0  0  0  0
 11  6  1  0  0  0  0
 12  4  1  0  0  0  0
 12  8  1  0  0  0  0
 13 21  1  0  0  0  0
 14  2  1  0  0  0  0
 15 28  1  0  0  0  0
 16 20  1  0  0  0  0
 17 13  1  0  0  0  0
 18  8  1  0  0  0  0
 19 18  1  0  0  0  0
 20 15  1  0  0  0  0
 20  3  2  0  0  0  0
 21 27  1  0  0  0  0
 22  6  1  0  0  0  0
 22  2  1  0  0  0  0
 23 10  1  0  0  0  0
 23 32  1  0  0  0  0
 24  2  1  0  0  0  0
 25 18  1  0  0  0  0
 27  1  1  0  0  0  0
 27 25  1  0  0  0  0
 28 23  1  0  0  0  0
 29  4  1  0  0  0  0
 29 30  1  0  0  0  0
 31 37  1  0  0  0  0
 32 31  2  0  0  0  0
 33 36  2  0  0  0  0
 33 32  1  0  0  0  0
 34 36  1  0  0  0  0
 35 37  2  0  0  0  0
 36 35  1  0  0  0  0
M  END
>  <MODEL>
9

>  <REMARK>
 VINA RESULT:      -7.6      2.251      7.614
  Name = 
  1 active torsions:
  status: ('A' for Active; 'I' for Inactive)
    1  A    between atoms: C_23  and  C_30
                            x       y       z     vdW  Elec       q    Type
                         _______ _______ _______ _____ _____    ______ ____

>  <TORSDO>
F 1

$$$$
