=
 OpenBabel11112417313D

 37 43  0  0  1  0  0  0  0  0999 V2000
  190.9530  175.6880  144.5990 C   0  0  1  0  0  3  0  0  0  0  0  0
  189.0230  176.2780  141.9730 O   0  0  0  0  0  0  0  0  0  0  0  0
  191.5290  176.4350  147.0220 C   0  0  2  0  0  3  0  0  0  0  0  0
  189.5130  175.6880  144.2400 C   0  0  2  0  0  3  0  0  0  0  0  0
  190.9710  176.8100  145.6270 C   0  0  2  0  0  3  0  0  0  0  0  0
  189.2050  175.1790  142.8290 C   0  0  2  0  0  3  0  0  0  0  0  0
  191.7880  174.9310  147.1940 C   0  0  0  0  0  2  0  0  0  0  0  0
  189.6750  177.3770  145.6650 O   0  0  0  0  0  0  0  0  0  0  0  0
  191.6130  173.4070  143.9410 C   0  0  0  0  0  2  0  0  0  0  0  0
  192.3560  174.3890  146.0300 O   0  0  0  0  0  0  0  0  0  0  0  0
  186.5880  175.9080  142.6620 C   0  0  0  0  0  2  0  0  0  0  0  0
  187.6470  176.6340  141.8350 C   0  0  1  0  0  3  0  0  0  0  0  0
  191.2870  174.3060  145.1330 C   0  0  1  0  0  3  0  0  0  0  0  0
  189.1260  177.0690  144.4490 N   0  0  2  0  0  0  0  0  0  0  0  0
  190.2560  174.1820  142.2950 C   0  0  1  0  0  3  0  0  0  0  0  0
  187.0380  177.2930  143.1000 C   0  0  2  0  0  3  0  0  0  0  0  0
  187.6640  177.1190  144.5030 C   0  0  2  0  0  3  0  0  0  0  0  0
  190.4420  173.1250  143.2100 O   0  0  0  0  0  0  0  0  0  0  0  0
  188.5520  173.1500  140.7870 C   0  0  0  0  0  3  0  0  0  0  0  0
  189.8490  173.6380  140.9620 C   0  0  0  0  0  0  0  0  0  0  0  0
  190.7550  173.5940  139.8950 C   0  0  0  0  0  3  0  0  0  0  0  0
  191.2510  173.0150  137.5760 N   0  0  0  0  0  1  0  0  0  0  0  0
  189.0720  172.5990  138.5220 N   0  0  0  0  0  0  0  0  0  0  0  0
  190.3430  173.0650  138.6690 C   0  0  0  0  0  0  0  0  0  0  0  0
  188.1780  172.6300  139.5460 C   0  0  0  0  0  3  0  0  0  0  0  0
  187.1690  178.2610  145.3890 C   0  0  0  0  0  2  0  0  0  0  0  0
  186.1110  177.7650  146.3660 C   0  0  0  0  0  0  0  0  0  0  0  0
  186.5770  176.6930  147.3210 C   0  0  0  0  0  2  0  0  0  0  0  0
  186.3570  178.1180  147.8130 C   0  0  0  0  0  2  0  0  0  0  0  0
  184.6420  177.6890  145.9640 C   0  0  0  0  0  2  0  0  0  0  0  0
  184.1770  178.9720  145.2920 C   0  0  0  0  0  2  0  0  0  0  0  0
  183.9240  178.7410  143.9390 O   0  0  0  0  0  1  0  0  0  0  0  0
  190.6870  176.8930  148.0510 O   0  0  0  0  0  0  0  0  0  0  0  0
  191.4700  177.6230  148.9690 C   0  0  0  0  0  0  0  0  0  0  0  0
  190.8990  178.8600  149.2300 F   0  0  0  0  0  0  0  0  0  0  0  0
  191.6280  176.9210  150.1540 F   0  0  0  0  0  0  0  0  0  0  0  0
  192.7200  177.8260  148.4140 F   0  0  0  0  0  0  0  0  0  0  0  0
  1 13  1  0  0  0  0
  1  5  1  0  0  0  0
  2  6  1  0  0  0  0
  3  7  1  0  0  0  0
  3 33  1  0  0  0  0
  4 14  1  0  0  0  0
  4  1  1  0  0  0  0
  5  8  1  0  0  0  0
  5  3  1  0  0  0  0
  6  4  1  0  0  0  0
  9 13  1  0  0  0  0
 10  7  1  0  0  0  0
 11 16  1  0  0  0  0
 12  2  1  0  0  0  0
 12 11  1  0  0  0  0
 12 16  1  0  0  0  0
 13 10  1  0  0  0  0
 14 17  1  0  0  0  0
 14  8  1  0  0  0  0
 15  6  1  0  0  0  0
 15 18  1  0  0  0  0
 16 17  1  0  0  0  0
 17 26  1  0  0  0  0
 18  9  1  0  0  0  0
 19 20  1  0  0  0  0
 20 15  1  0  0  0  0
 21 20  2  0  0  0  0
 22 24  1  0  0  0  0
 23 24  2  0  0  0  0
 23 25  1  0  0  0  0
 24 21  1  0  0  0  0
 25 19  2  0  0  0  0
 26 27  1  0  0  0  0
 27 28  1  0  0  0  0
 27 29  1  0  0  0  0
 28 29  1  0  0  0  0
 30 27  1  0  0  0  0
 31 30  1  0  0  0  0
 32 31  1  0  0  0  0
 33 34  1  0  0  0  0
 34 35  1  0  0  0  0
 34 36  1  0  0  0  0
 37 34  1  0  0  0  0
M  END
>  <MODEL>
1

>  <REMARK>
 VINA RESULT:      -7.8      0.000      0.000
  Name = 
  7 active torsions:
  status: ('A' for Active; 'I' for Inactive)
    1  A    between atoms: C_1  and  C_4
    2  A    between atoms: C_1  and  C_27
    3  A    between atoms: C_2  and  O_22
    4  A    between atoms: C_4  and  C_12
    5  A    between atoms: C_6  and  O_22
    6  A    between atoms: C_8  and  C_12
    7  A    between atoms: C_23  and  C_30
                            x       y       z     vdW  Elec       q    Type
                         _______ _______ _______ _____ _____    ______ ____

>  <TORSDO>
F 7

$$$$
=
 OpenBabel11112417313D

 37 43  0  0  1  0  0  0  0  0999 V2000
  190.2970  174.1720  141.4800 C   0  0  1  0  0  3  0  0  0  0  0  0
  189.6080  177.3370  142.1670 O   0  0  0  0  0  0  0  0  0  0  0  0
  192.1370  172.3360  141.5460 C   0  0  2  0  0  3  0  0  0  0  0  0
  190.2370  175.0790  142.6520 C   0  0  2  0  0  3  0  0  0  0  0  0
  191.7820  173.8420  141.4730 C   0  0  2  0  0  3  0  0  0  0  0  0
  189.1000  176.1050  142.6100 C   0  0  2  0  0  3  0  0  0  0  0  0
  190.9250  171.4330  141.8130 C   0  0  0  0  0  2  0  0  0  0  0  0
  192.3980  174.6220  142.4810 O   0  0  0  0  0  0  0  0  0  0  0  0
  187.9570  173.4100  141.3410 C   0  0  0  0  0  2  0  0  0  0  0  0
  189.8100  171.8680  141.0780 O   0  0  0  0  0  0  0  0  0  0  0  0
  189.8640  177.6890  144.6870 C   0  0  0  0  0  2  0  0  0  0  0  0
  189.9590  178.1980  143.2500 C   0  0  1  0  0  3  0  0  0  0  0  0
  189.3680  173.0030  141.7630 C   0  0  1  0  0  3  0  0  0  0  0  0
  191.5540  175.6840  142.6610 N   0  0  2  0  0  0  0  0  0  0  0  0
  187.8830  175.6350  141.7840 C   0  0  1  0  0  3  0  0  0  0  0  0
  191.2290  177.7530  144.0210 C   0  0  2  0  0  3  0  0  0  0  0  0
  191.7530  176.2980  143.9750 C   0  0  2  0  0  3  0  0  0  0  0  0
  187.4420  174.3730  142.2310 O   0  0  0  0  0  0  0  0  0  0  0  0
  186.3530  177.2950  140.7130 C   0  0  0  0  0  3  0  0  0  0  0  0
  186.7650  176.6260  141.8680 C   0  0  0  0  0  0  0  0  0  0  0  0
  186.1410  176.9070  143.0900 C   0  0  0  0  0  3  0  0  0  0  0  0
  184.4670  178.1430  144.3650 N   0  0  0  0  0  1  0  0  0  0  0  0
  184.7240  178.4860  141.9920 N   0  0  0  0  0  0  0  0  0  0  0  0
  185.1110  177.8490  143.1320 C   0  0  0  0  0  0  0  0  0  0  0  0
  185.3180  178.2300  140.7960 C   0  0  0  0  0  3  0  0  0  0  0  0
  193.2270  176.3120  144.3770 C   0  0  0  0  0  2  0  0  0  0  0  0
  193.3980  175.8550  145.8190 C   0  0  0  0  0  0  0  0  0  0  0  0
  194.8270  175.6400  146.2560 C   0  0  0  0  0  2  0  0  0  0  0  0
  194.0500  176.8590  146.7390 C   0  0  0  0  0  2  0  0  0  0  0  0
  192.3680  174.9480  146.4860 C   0  0  0  0  0  2  0  0  0  0  0  0
  191.5670  175.6920  147.5430 C   0  0  0  0  0  2  0  0  0  0  0  0
  190.2390  175.2640  147.5290 O   0  0  0  0  0  1  0  0  0  0  0  0
  193.1340  172.0900  142.5060 O   0  0  0  0  0  0  0  0  0  0  0  0
  194.3410  171.8190  141.8290 C   0  0  0  0  0  0  0  0  0  0  0  0
  195.1770  172.9260  141.8500 F   0  0  0  0  0  0  0  0  0  0  0  0
  194.9910  170.7300  142.3890 F   0  0  0  0  0  0  0  0  0  0  0  0
  194.0470  171.5190  140.5120 F   0  0  0  0  0  0  0  0  0  0  0  0
  1 13  1  0  0  0  0
  1  4  1  0  0  0  0
  2  6  1  0  0  0  0
  2 12  1  0  0  0  0
  3  7  1  0  0  0  0
  3 33  1  0  0  0  0
  4 14  1  0  0  0  0
  5  1  1  0  0  0  0
  5  3  1  0  0  0  0
  5  8  1  0  0  0  0
  6  4  1  0  0  0  0
  8 14  1  0  0  0  0
  9 13  1  0  0  0  0
  9 18  1  0  0  0  0
 10 13  1  0  0  0  0
 10  7  1  0  0  0  0
 12 16  1  0  0  0  0
 12 11  1  0  0  0  0
 14 17  1  0  0  0  0
 15 20  1  0  0  0  0
 15 18  1  0  0  0  0
 15  6  1  0  0  0  0
 16 11  1  0  0  0  0
 17 16  1  0  0  0  0
 17 26  1  0  0  0  0
 19 25  2  0  0  0  0
 19 20  1  0  0  0  0
 20 21  2  0  0  0  0
 21 24  1  0  0  0  0
 23 24  2  0  0  0  0
 24 22  1  0  0  0  0
 25 23  1  0  0  0  0
 26 27  1  0  0  0  0
 27 28  1  0  0  0  0
 27 30  1  0  0  0  0
 27 29  1  0  0  0  0
 28 29  1  0  0  0  0
 30 31  1  0  0  0  0
 32 31  1  0  0  0  0
 34 35  1  0  0  0  0
 34 36  1  0  0  0  0
 34 33  1  0  0  0  0
 37 34  1  0  0  0  0
M  END
>  <MODEL>
2

>  <REMARK>
 VINA RESULT:      -7.5      3.829      6.607
  Name = 
  7 active torsions:
  status: ('A' for Active; 'I' for Inactive)
    1  A    between atoms: C_1  and  C_4
    2  A    between atoms: C_1  and  C_27
    3  A    between atoms: C_2  and  O_22
    4  A    between atoms: C_4  and  C_12
    5  A    between atoms: C_6  and  O_22
    6  A    between atoms: C_8  and  C_12
    7  A    between atoms: C_23  and  C_30
                            x       y       z     vdW  Elec       q    Type
                         _______ _______ _______ _____ _____    ______ ____

>  <TORSDO>
F 7

$$$$
=
 OpenBabel11112417313D

 37 43  0  0  1  0  0  0  0  0999 V2000
  190.5080  174.1800  141.6560 C   0  0  1  0  0  3  0  0  0  0  0  0
  189.7260  177.3590  142.1540 O   0  0  0  0  0  0  0  0  0  0  0  0
  192.3850  172.3940  141.8810 C   0  0  2  0  0  3  0  0  0  0  0  0
  190.3860  175.1440  142.7770 C   0  0  2  0  0  3  0  0  0  0  0  0
  192.0000  173.8850  141.7190 C   0  0  2  0  0  3  0  0  0  0  0  0
  189.2290  176.1390  142.6430 C   0  0  2  0  0  3  0  0  0  0  0  0
  191.1830  171.4770  142.1520 C   0  0  0  0  0  2  0  0  0  0  0  0
  192.5610  174.7290  142.7060 O   0  0  0  0  0  0  0  0  0  0  0  0
  188.1920  173.3570  141.4740 C   0  0  0  0  0  2  0  0  0  0  0  0
  190.0870  171.8480  141.3570 O   0  0  0  0  0  0  0  0  0  0  0  0
  189.8830  177.8450  144.6600 C   0  0  0  0  0  2  0  0  0  0  0  0
  190.0190  178.2820  143.2030 C   0  0  1  0  0  3  0  0  0  0  0  0
  189.5950  173.0060  141.9660 C   0  0  1  0  0  3  0  0  0  0  0  0
  191.6890  175.7800  142.8010 N   0  0  2  0  0  0  0  0  0  0  0  0
  188.0530  175.6000  141.8000 C   0  0  1  0  0  3  0  0  0  0  0  0
  191.2690  177.9060  144.0410 C   0  0  2  0  0  3  0  0  0  0  0  0
  191.8260  176.4640  144.0890 C   0  0  2  0  0  3  0  0  0  0  0  0
  187.6240  174.3510  142.2950 O   0  0  0  0  0  0  0  0  0  0  0  0
  186.5620  177.2070  140.6020 C   0  0  0  0  0  3  0  0  0  0  0  0
  186.9120  176.5670  141.7930 C   0  0  0  0  0  0  0  0  0  0  0  0
  186.2050  176.8550  142.9670 C   0  0  0  0  0  3  0  0  0  0  0  0
  184.4260  178.0760  144.1080 N   0  0  0  0  0  1  0  0  0  0  0  0
  184.8290  178.3830  141.7510 N   0  0  0  0  0  0  0  0  0  0  0  0
  185.1550  177.7750  142.9240 C   0  0  0  0  0  0  0  0  0  0  0  0
  185.5050  178.1200  140.6000 C   0  0  0  0  0  3  0  0  0  0  0  0
  193.2840  176.5320  144.5400 C   0  0  0  0  0  2  0  0  0  0  0  0
  193.4720  175.8100  145.8670 C   0  0  0  0  0  0  0  0  0  0  0  0
  192.5840  176.2940  146.9880 C   0  0  0  0  0  2  0  0  0  0  0  0
  192.3040  174.9600  146.3070 C   0  0  0  0  0  2  0  0  0  0  0  0
  194.8410  175.2920  146.2960 C   0  0  0  0  0  2  0  0  0  0  0  0
  195.4060  174.3020  145.2890 C   0  0  0  0  0  2  0  0  0  0  0  0
  196.5930  174.7950  144.7450 O   0  0  0  0  0  1  0  0  0  0  0  0
  193.3510  172.2200  142.8880 O   0  0  0  0  0  0  0  0  0  0  0  0
  194.5970  171.9940  142.2680 C   0  0  0  0  0  0  0  0  0  0  0  0
  194.4330  171.3290  141.0610 F   0  0  0  0  0  0  0  0  0  0  0  0
  195.2700  173.1870  142.0580 F   0  0  0  0  0  0  0  0  0  0  0  0
  195.3650  171.2030  143.1020 F   0  0  0  0  0  0  0  0  0  0  0  0
  1  5  1  0  0  0  0
  1 13  1  0  0  0  0
  1  4  1  0  0  0  0
  2  6  1  0  0  0  0
  2 12  1  0  0  0  0
  3  7  1  0  0  0  0
  3 33  1  0  0  0  0
  4 14  1  0  0  0  0
  5  3  1  0  0  0  0
  5  8  1  0  0  0  0
  6  4  1  0  0  0  0
  8 14  1  0  0  0  0
  9 13  1  0  0  0  0
  9 18  1  0  0  0  0
 10 13  1  0  0  0  0
 10  7  1  0  0  0  0
 12 16  1  0  0  0  0
 12 11  1  0  0  0  0
 14 17  1  0  0  0  0
 15 18  1  0  0  0  0
 15  6  1  0  0  0  0
 16 17  1  0  0  0  0
 16 11  1  0  0  0  0
 17 26  1  0  0  0  0
 19 20  1  0  0  0  0
 20 15  1  0  0  0  0
 20 21  2  0  0  0  0
 23 24  2  0  0  0  0
 24 21  1  0  0  0  0
 24 22  1  0  0  0  0
 25 19  2  0  0  0  0
 25 23  1  0  0  0  0
 26 27  1  0  0  0  0
 27 30  1  0  0  0  0
 27 29  1  0  0  0  0
 27 28  1  0  0  0  0
 29 28  1  0  0  0  0
 31 30  1  0  0  0  0
 32 31  1  0  0  0  0
 34 33  1  0  0  0  0
 34 37  1  0  0  0  0
 35 34  1  0  0  0  0
 36 34  1  0  0  0  0
M  END
>  <MODEL>
3

>  <REMARK>
 VINA RESULT:      -7.3      3.960      6.850
  Name = 
  7 active torsions:
  status: ('A' for Active; 'I' for Inactive)
    1  A    between atoms: C_1  and  C_4
    2  A    between atoms: C_1  and  C_27
    3  A    between atoms: C_2  and  O_22
    4  A    between atoms: C_4  and  C_12
    5  A    between atoms: C_6  and  O_22
    6  A    between atoms: C_8  and  C_12
    7  A    between atoms: C_23  and  C_30
                            x       y       z     vdW  Elec       q    Type
                         _______ _______ _______ _____ _____    ______ ____

>  <TORSDO>
F 7

$$$$
=
 OpenBabel11112417313D

 37 43  0  0  1  0  0  0  0  0999 V2000
  186.8050  176.1340  142.8610 C   0  0  1  0  0  3  0  0  0  0  0  0
  188.6380  173.3760  142.9220 O   0  0  0  0  0  0  0  0  0  0  0  0
  185.7520  178.0180  144.3120 C   0  0  2  0  0  3  0  0  0  0  0  0
  188.1720  175.7030  143.2420 C   0  0  2  0  0  3  0  0  0  0  0  0
  186.2710  176.5610  144.2200 C   0  0  2  0  0  3  0  0  0  0  0  0
  188.7870  174.6400  142.3250 C   0  0  2  0  0  3  0  0  0  0  0  0
  186.0480  178.8530  143.0580 C   0  0  0  0  0  2  0  0  0  0  0  0
  187.2570  176.2460  145.1850 O   0  0  0  0  0  0  0  0  0  0  0  0
  187.0980  176.6000  140.4590 C   0  0  0  0  0  2  0  0  0  0  0  0
  185.8400  178.0940  141.8960 O   0  0  0  0  0  0  0  0  0  0  0  0
  190.9550  173.9690  143.8270 C   0  0  0  0  0  2  0  0  0  0  0  0
  189.7930  172.9910  143.6670 C   0  0  1  0  0  3  0  0  0  0  0  0
  186.9490  177.2460  141.8350 C   0  0  1  0  0  3  0  0  0  0  0  0
  188.0010  175.2520  144.6090 N   0  0  2  0  0  0  0  0  0  0  0  0
  188.2350  174.6820  140.8840 C   0  0  1  0  0  3  0  0  0  0  0  0
  189.9870  173.7850  144.9850 C   0  0  2  0  0  3  0  0  0  0  0  0
  189.3290  175.1660  145.2190 C   0  0  2  0  0  3  0  0  0  0  0  0
  188.3580  175.9800  140.3470 O   0  0  0  0  0  0  0  0  0  0  0  0
  188.2020  172.7930  139.2490 C   0  0  0  0  0  3  0  0  0  0  0  0
  188.9460  173.6970  140.0100 C   0  0  0  0  0  0  0  0  0  0  0  0
  190.3450  173.6560  139.9620 C   0  0  0  0  0  3  0  0  0  0  0  0
  192.3930  172.6610  139.0840 N   0  0  0  0  0  1  0  0  0  0  0  0
  190.2280  171.8450  138.4090 N   0  0  0  0  0  0  0  0  0  0  0  0
  190.9730  172.7130  139.1450 C   0  0  0  0  0  0  0  0  0  0  0  0
  188.8680  171.8650  138.4440 C   0  0  0  0  0  3  0  0  0  0  0  0
  189.2780  175.4180  146.7250 C   0  0  0  0  0  2  0  0  0  0  0  0
  190.1700  176.5910  147.1060 C   0  0  0  0  0  0  0  0  0  0  0  0
  190.2080  177.7160  146.1000 C   0  0  0  0  0  2  0  0  0  0  0  0
  189.4440  177.8800  147.4070 C   0  0  0  0  0  2  0  0  0  0  0  0
  191.4560  176.3790  147.8970 C   0  0  0  0  0  2  0  0  0  0  0  0
  192.6700  176.2970  146.9830 C   0  0  0  0  0  2  0  0  0  0  0  0
  192.9150  174.9700  146.6290 O   0  0  0  0  0  1  0  0  0  0  0  0
  186.2580  178.6720  145.4500 O   0  0  0  0  0  0  0  0  0  0  0  0
  185.2210  178.7670  146.4000 C   0  0  0  0  0  0  0  0  0  0  0  0
  184.8760  177.5120  146.8800 F   0  0  0  0  0  0  0  0  0  0  0  0
  185.5900  179.5870  147.4550 F   0  0  0  0  0  0  0  0  0  0  0  0
  184.1130  179.3220  145.7860 F   0  0  0  0  0  0  0  0  0  0  0  0
  1  4  1  0  0  0  0
  1  5  1  0  0  0  0
  2 12  1  0  0  0  0
  3 33  1  0  0  0  0
  4 14  1  0  0  0  0
  5  3  1  0  0  0  0
  5  8  1  0  0  0  0
  6  2  1  0  0  0  0
  6  4  1  0  0  0  0
  7  3  1  0  0  0  0
  9 13  1  0  0  0  0
 10  7  1  0  0  0  0
 11 16  1  0  0  0  0
 12 11  1  0  0  0  0
 12 16  1  0  0  0  0
 13 10  1  0  0  0  0
 13  1  1  0  0  0  0
 14  8  1  0  0  0  0
 14 17  1  0  0  0  0
 15  6  1  0  0  0  0
 16 17  1  0  0  0  0
 17 26  1  0  0  0  0
 18  9  1  0  0  0  0
 18 15  1  0  0  0  0
 19 20  1  0  0  0  0
 20 15  1  0  0  0  0
 21 20  2  0  0  0  0
 22 24  1  0  0  0  0
 23 25  1  0  0  0  0
 23 24  2  0  0  0  0
 24 21  1  0  0  0  0
 25 19  2  0  0  0  0
 26 27  1  0  0  0  0
 27 29  1  0  0  0  0
 27 30  1  0  0  0  0
 28 27  1  0  0  0  0
 28 29  1  0  0  0  0
 31 30  1  0  0  0  0
 32 31  1  0  0  0  0
 33 34  1  0  0  0  0
 34 35  1  0  0  0  0
 34 36  1  0  0  0  0
 37 34  1  0  0  0  0
M  END
>  <MODEL>
4

>  <REMARK>
 VINA RESULT:      -7.2      2.475      5.195
  Name = 
  7 active torsions:
  status: ('A' for Active; 'I' for Inactive)
    1  A    between atoms: C_1  and  C_4
    2  A    between atoms: C_1  and  C_27
    3  A    between atoms: C_2  and  O_22
    4  A    between atoms: C_4  and  C_12
    5  A    between atoms: C_6  and  O_22
    6  A    between atoms: C_8  and  C_12
    7  A    between atoms: C_23  and  C_30
                            x       y       z     vdW  Elec       q    Type
                         _______ _______ _______ _____ _____    ______ ____

>  <TORSDO>
F 7

$$$$
=
 OpenBabel11112417313D

 37 43  0  0  1  0  0  0  0  0999 V2000
  190.8060  176.8570  145.0060 C   0  0  1  0  0  3  0  0  0  0  0  0
  192.9700  175.7970  142.7340 O   0  0  0  0  0  0  0  0  0  0  0  0
  188.3070  177.4120  145.4640 C   0  0  2  0  0  3  0  0  0  0  0  0
  191.0680  175.6530  144.1790 C   0  0  2  0  0  3  0  0  0  0  0  0
  189.4610  177.2840  144.4380 C   0  0  2  0  0  3  0  0  0  0  0  0
  192.5500  175.3180  143.9860 C   0  0  2  0  0  3  0  0  0  0  0  0
  188.6710  176.8910  146.8610 C   0  0  0  0  0  2  0  0  0  0  0  0
  189.1650  176.4280  143.3510 O   0  0  0  0  0  0  0  0  0  0  0  0
  192.2350  176.4160  146.9650 C   0  0  0  0  0  2  0  0  0  0  0  0
  189.9780  177.2690  147.2080 O   0  0  0  0  0  0  0  0  0  0  0  0
  192.3210  173.4200  142.0500 C   0  0  0  0  0  2  0  0  0  0  0  0
  192.9070  174.7920  141.7220 C   0  0  1  0  0  3  0  0  0  0  0  0
  190.7930  176.4150  146.4590 C   0  0  1  0  0  3  0  0  0  0  0  0
  190.3820  175.9560  142.9390 N   0  0  2  0  0  0  0  0  0  0  0  0
  193.4460  175.8180  145.1410 C   0  0  1  0  0  3  0  0  0  0  0  0
  191.4630  174.4210  141.2930 C   0  0  2  0  0  3  0  0  0  0  0  0
  190.2380  174.7050  142.1920 C   0  0  2  0  0  3  0  0  0  0  0  0
  192.9550  175.3560  146.3790 O   0  0  0  0  0  0  0  0  0  0  0  0
  195.3740  174.3560  145.7630 C   0  0  0  0  0  3  0  0  0  0  0  0
  194.8610  175.3710  144.9520 C   0  0  0  0  0  0  0  0  0  0  0  0
  195.6830  175.9680  143.9880 C   0  0  0  0  0  3  0  0  0  0  0  0
  197.8490  176.1300  142.8760 N   0  0  0  0  0  1  0  0  0  0  0  0
  197.4800  174.5410  144.6510 N   0  0  0  0  0  0  0  0  0  0  0  0
  197.0030  175.5340  143.8510 C   0  0  0  0  0  0  0  0  0  0  0  0
  196.6990  173.9490  145.5950 C   0  0  0  0  0  3  0  0  0  0  0  0
  188.9910  174.7130  141.3090 C   0  0  0  0  0  2  0  0  0  0  0  0
  188.5000  173.2950  141.0560 C   0  0  0  0  0  0  0  0  0  0  0  0
  188.8740  172.2910  142.1200 C   0  0  0  0  0  2  0  0  0  0  0  0
  187.4420  172.8000  142.0140 C   0  0  0  0  0  2  0  0  0  0  0  0
  188.3940  172.7380  139.6400 C   0  0  0  0  0  2  0  0  0  0  0  0
  188.8960  173.7350  138.6070 C   0  0  0  0  0  2  0  0  0  0  0  0
  187.8170  174.3530  137.9730 O   0  0  0  0  0  1  0  0  0  0  0  0
  187.1410  176.7720  145.0060 O   0  0  0  0  0  0  0  0  0  0  0  0
  186.0770  177.6950  145.0760 C   0  0  0  0  0  0  0  0  0  0  0  0
  185.2070  177.5260  144.0090 F   0  0  0  0  0  0  0  0  0  0  0  0
  185.3850  177.5650  146.2700 F   0  0  0  0  0  0  0  0  0  0  0  0
  186.6010  178.9730  145.0150 F   0  0  0  0  0  0  0  0  0  0  0  0
  1 13  1  0  0  0  0
  2  6  1  0  0  0  0
  3  7  1  0  0  0  0
  4  1  1  0  0  0  0
  5  1  1  0  0  0  0
  5  3  1  0  0  0  0
  6  4  1  0  0  0  0
  6 15  1  0  0  0  0
  7 10  1  0  0  0  0
  8  5  1  0  0  0  0
 12 11  1  0  0  0  0
 12  2  1  0  0  0  0
 13  9  1  0  0  0  0
 13 10  1  0  0  0  0
 14  8  1  0  0  0  0
 14  4  1  0  0  0  0
 15 18  1  0  0  0  0
 16 12  1  0  0  0  0
 16 11  1  0  0  0  0
 16 17  1  0  0  0  0
 17 14  1  0  0  0  0
 18  9  1  0  0  0  0
 20 15  1  0  0  0  0
 20 19  2  0  0  0  0
 21 20  1  0  0  0  0
 22 24  1  0  0  0  0
 23 25  2  0  0  0  0
 24 21  2  0  0  0  0
 24 23  1  0  0  0  0
 25 19  1  0  0  0  0
 26 17  1  0  0  0  0
 27 26  1  0  0  0  0
 27 29  1  0  0  0  0
 27 28  1  0  0  0  0
 29 28  1  0  0  0  0
 30 27  1  0  0  0  0
 31 30  1  0  0  0  0
 32 31  1  0  0  0  0
 33 34  1  0  0  0  0
 33  3  1  0  0  0  0
 34 36  1  0  0  0  0
 35 34  1  0  0  0  0
 37 34  1  0  0  0  0
M  END
>  <MODEL>
5

>  <REMARK>
 VINA RESULT:      -7.2      3.696      6.366
  Name = 
  7 active torsions:
  status: ('A' for Active; 'I' for Inactive)
    1  A    between atoms: C_1  and  C_4
    2  A    between atoms: C_1  and  C_27
    3  A    between atoms: C_2  and  O_22
    4  A    between atoms: C_4  and  C_12
    5  A    between atoms: C_6  and  O_22
    6  A    between atoms: C_8  and  C_12
    7  A    between atoms: C_23  and  C_30
                            x       y       z     vdW  Elec       q    Type
                         _______ _______ _______ _____ _____    ______ ____

>  <TORSDO>
F 7

$$$$
=
 OpenBabel11112417313D

 37 43  0  0  1  0  0  0  0  0999 V2000
  190.5750  176.9080  144.9560 C   0  0  1  0  0  3  0  0  0  0  0  0
  192.7760  175.8720  142.7080 O   0  0  0  0  0  0  0  0  0  0  0  0
  188.0620  177.4180  145.3900 C   0  0  2  0  0  3  0  0  0  0  0  0
  190.8660  175.7030  144.1410 C   0  0  2  0  0  3  0  0  0  0  0  0
  189.2260  177.3050  144.3740 C   0  0  2  0  0  3  0  0  0  0  0  0
  192.3560  175.3950  143.9610 C   0  0  2  0  0  3  0  0  0  0  0  0
  188.4250  176.9150  146.7940 C   0  0  0  0  0  2  0  0  0  0  0  0
  188.9550  176.4350  143.2910 O   0  0  0  0  0  0  0  0  0  0  0  0
  191.9960  176.5080  146.9290 C   0  0  0  0  0  2  0  0  0  0  0  0
  189.7220  177.3210  147.1480 O   0  0  0  0  0  0  0  0  0  0  0  0
  192.1780  173.4780  142.0370 C   0  0  0  0  0  2  0  0  0  0  0  0
  192.7400  174.8580  141.7040 C   0  0  1  0  0  3  0  0  0  0  0  0
  190.5580  176.4770  146.4120 C   0  0  1  0  0  3  0  0  0  0  0  0
  190.1840  175.9840  142.8930 N   0  0  2  0  0  0  0  0  0  0  0  0
  193.2320  175.9200  145.1190 C   0  0  1  0  0  3  0  0  0  0  0  0
  191.3070  174.4570  141.2670 C   0  0  2  0  0  3  0  0  0  0  0  0
  190.0690  174.7240  142.1550 C   0  0  2  0  0  3  0  0  0  0  0  0
  192.7410  175.4580  146.3570 O   0  0  0  0  0  0  0  0  0  0  0  0
  195.4780  176.2020  144.0600 C   0  0  0  0  0  3  0  0  0  0  0  0
  194.6570  175.4980  144.9440 C   0  0  0  0  0  0  0  0  0  0  0  0
  195.1720  174.3970  145.6380 C   0  0  0  0  0  3  0  0  0  0  0  0
  197.0420  172.9090  146.1380 N   0  0  0  0  0  1  0  0  0  0  0  0
  197.2860  174.7280  144.5750 N   0  0  0  0  0  0  0  0  0  0  0  0
  196.5030  174.0240  145.4380 C   0  0  0  0  0  0  0  0  0  0  0  0
  196.8040  175.7990  143.8880 C   0  0  0  0  0  3  0  0  0  0  0  0
  188.8300  174.7020  141.2620 C   0  0  0  0  0  2  0  0  0  0  0  0
  188.3530  173.2740  141.0360 C   0  0  0  0  0  0  0  0  0  0  0  0
  188.7520  172.2910  142.1100 C   0  0  0  0  0  2  0  0  0  0  0  0
  187.3120  172.7810  142.0130 C   0  0  0  0  0  2  0  0  0  0  0  0
  188.2390  172.6940  139.6290 C   0  0  0  0  0  2  0  0  0  0  0  0
  189.4860  171.9150  139.2410 C   0  0  0  0  0  2  0  0  0  0  0  0
  190.2730  172.6710  138.3710 O   0  0  0  0  0  1  0  0  0  0  0  0
  186.9120  176.7530  144.9290 O   0  0  0  0  0  0  0  0  0  0  0  0
  185.8430  177.6730  144.9270 C   0  0  0  0  0  0  0  0  0  0  0  0
  186.3120  178.9740  145.0280 F   0  0  0  0  0  0  0  0  0  0  0  0
  185.0760  177.5390  143.7810 F   0  0  0  0  0  0  0  0  0  0  0  0
  185.0390  177.4120  146.0210 F   0  0  0  0  0  0  0  0  0  0  0  0
  1 13  1  0  0  0  0
  2  6  1  0  0  0  0
  3  7  1  0  0  0  0
  4  1  1  0  0  0  0
  5  1  1  0  0  0  0
  5  3  1  0  0  0  0
  6  4  1  0  0  0  0
  6 15  1  0  0  0  0
  7 10  1  0  0  0  0
  8  5  1  0  0  0  0
 12 11  1  0  0  0  0
 12  2  1  0  0  0  0
 13  9  1  0  0  0  0
 13 10  1  0  0  0  0
 14  8  1  0  0  0  0
 14  4  1  0  0  0  0
 15 18  1  0  0  0  0
 16 12  1  0  0  0  0
 16 11  1  0  0  0  0
 16 17  1  0  0  0  0
 17 14  1  0  0  0  0
 18  9  1  0  0  0  0
 19 20  1  0  0  0  0
 20 15  1  0  0  0  0
 20 21  2  0  0  0  0
 23 24  2  0  0  0  0
 24 21  1  0  0  0  0
 24 22  1  0  0  0  0
 25 19  2  0  0  0  0
 25 23  1  0  0  0  0
 26 17  1  0  0  0  0
 27 26  1  0  0  0  0
 27 29  1  0  0  0  0
 27 28  1  0  0  0  0
 29 28  1  0  0  0  0
 30 27  1  0  0  0  0
 31 30  1  0  0  0  0
 32 31  1  0  0  0  0
 33  3  1  0  0  0  0
 34 33  1  0  0  0  0
 34 35  1  0  0  0  0
 34 37  1  0  0  0  0
 36 34  1  0  0  0  0
M  END
>  <MODEL>
6

>  <REMARK>
 VINA RESULT:      -7.1      3.716      6.578
  Name = 
  7 active torsions:
  status: ('A' for Active; 'I' for Inactive)
    1  A    between atoms: C_1  and  C_4
    2  A    between atoms: C_1  and  C_27
    3  A    between atoms: C_2  and  O_22
    4  A    between atoms: C_4  and  C_12
    5  A    between atoms: C_6  and  O_22
    6  A    between atoms: C_8  and  C_12
    7  A    between atoms: C_23  and  C_30
                            x       y       z     vdW  Elec       q    Type
                         _______ _______ _______ _____ _____    ______ ____

>  <TORSDO>
F 7

$$$$
=
 OpenBabel11112417313D

 37 43  0  0  1  0  0  0  0  0999 V2000
  186.2380  177.0120  143.0200 C   0  0  1  0  0  3  0  0  0  0  0  0
  187.9020  174.4570  141.7270 O   0  0  0  0  0  0  0  0  0  0  0  0
  185.6880  178.2970  145.2130 C   0  0  2  0  0  3  0  0  0  0  0  0
  187.6380  176.5430  142.8720 C   0  0  2  0  0  3  0  0  0  0  0  0
  186.1010  176.9670  144.5360 C   0  0  2  0  0  3  0  0  0  0  0  0
  187.9420  175.8500  141.5400 C   0  0  2  0  0  3  0  0  0  0  0  0
  185.6770  179.4960  144.2540 C   0  0  0  0  0  2  0  0  0  0  0  0
  187.2930  176.4090  145.0560 O   0  0  0  0  0  0  0  0  0  0  0  0
  185.9060  178.2200  140.8990 C   0  0  0  0  0  2  0  0  0  0  0  0
  185.1370  179.1310  143.0100 O   0  0  0  0  0  0  0  0  0  0  0  0
  190.4000  174.8370  142.1270 C   0  0  0  0  0  2  0  0  0  0  0  0
  189.1960  173.9090  141.9800 C   0  0  1  0  0  3  0  0  0  0  0  0
  186.1530  178.3940  142.3960 C   0  0  1  0  0  3  0  0  0  0  0  0
  187.8140  175.6790  144.0220 N   0  0  2  0  0  0  0  0  0  0  0  0
  187.0320  176.3170  140.3840 C   0  0  1  0  0  3  0  0  0  0  0  0
  189.7640  174.2580  143.3810 C   0  0  2  0  0  3  0  0  0  0  0  0
  189.2520  175.4640  144.2010 C   0  0  2  0  0  3  0  0  0  0  0  0
  187.0640  177.7220  140.2690 O   0  0  0  0  0  0  0  0  0  0  0  0
  187.0380  176.2670  137.8860 C   0  0  0  0  0  3  0  0  0  0  0  0
  187.4440  175.6880  139.0910 C   0  0  0  0  0  0  0  0  0  0  0  0
  188.2130  174.5180  139.0720 C   0  0  0  0  0  3  0  0  0  0  0  0
  189.3480  172.7650  137.8090 N   0  0  0  0  0  1  0  0  0  0  0  0
  188.1620  174.5370  136.6830 N   0  0  0  0  0  0  0  0  0  0  0  0
  188.5660  173.9520  137.8450 C   0  0  0  0  0  0  0  0  0  0  0  0
  187.4130  175.6720  136.6800 C   0  0  0  0  0  3  0  0  0  0  0  0
  189.6110  175.2290  145.6670 C   0  0  0  0  0  2  0  0  0  0  0  0
  190.6070  176.2730  146.1530 C   0  0  0  0  0  0  0  0  0  0  0  0
  190.0930  177.1910  147.2360 C   0  0  0  0  0  2  0  0  0  0  0  0
  191.0910  176.0900  147.5710 C   0  0  0  0  0  2  0  0  0  0  0  0
  191.6260  176.8930  145.2010 C   0  0  0  0  0  2  0  0  0  0  0  0
  192.9920  176.2380  145.3400 C   0  0  0  0  0  2  0  0  0  0  0  0
  193.0290  175.0470  144.6130 O   0  0  0  0  0  1  0  0  0  0  0  0
  186.5040  178.5830  146.3220 O   0  0  0  0  0  0  0  0  0  0  0  0
  185.6750  178.7180  147.4550 C   0  0  0  0  0  0  0  0  0  0  0  0
  184.3360  178.6730  147.0950 F   0  0  0  0  0  0  0  0  0  0  0  0
  185.9430  177.7270  148.3870 F   0  0  0  0  0  0  0  0  0  0  0  0
  185.9290  179.9450  148.0400 F   0  0  0  0  0  0  0  0  0  0  0  0
  1  5  1  0  0  0  0
  2 12  1  0  0  0  0
  3 33  1  0  0  0  0
  4  1  1  0  0  0  0
  4 14  1  0  0  0  0
  5  8  1  0  0  0  0
  5  3  1  0  0  0  0
  6  2  1  0  0  0  0
  6  4  1  0  0  0  0
  7  3  1  0  0  0  0
  9 13  1  0  0  0  0
 10  7  1  0  0  0  0
 11 16  1  0  0  0  0
 12 11  1  0  0  0  0
 12 16  1  0  0  0  0
 13 10  1  0  0  0  0
 13  1  1  0  0  0  0
 14 17  1  0  0  0  0
 14  8  1  0  0  0  0
 15  6  1  0  0  0  0
 16 17  1  0  0  0  0
 17 26  1  0  0  0  0
 18 15  1  0  0  0  0
 18  9  1  0  0  0  0
 19 20  1  0  0  0  0
 20 15  1  0  0  0  0
 21 20  2  0  0  0  0
 22 24  1  0  0  0  0
 23 24  2  0  0  0  0
 24 21  1  0  0  0  0
 25 23  1  0  0  0  0
 25 19  2  0  0  0  0
 26 27  1  0  0  0  0
 27 28  1  0  0  0  0
 27 29  1  0  0  0  0
 28 29  1  0  0  0  0
 30 31  1  0  0  0  0
 30 27  1  0  0  0  0
 32 31  1  0  0  0  0
 33 34  1  0  0  0  0
 34 37  1  0  0  0  0
 34 36  1  0  0  0  0
 35 34  1  0  0  0  0
M  END
>  <MODEL>
7

>  <REMARK>
 VINA RESULT:      -7.0      2.548      5.382
  Name = 
  7 active torsions:
  status: ('A' for Active; 'I' for Inactive)
    1  A    between atoms: C_1  and  C_4
    2  A    between atoms: C_1  and  C_27
    3  A    between atoms: C_2  and  O_22
    4  A    between atoms: C_4  and  C_12
    5  A    between atoms: C_6  and  O_22
    6  A    between atoms: C_8  and  C_12
    7  A    between atoms: C_23  and  C_30
                            x       y       z     vdW  Elec       q    Type
                         _______ _______ _______ _____ _____    ______ ____

>  <TORSDO>
F 7

$$$$
=
 OpenBabel11112417313D

 37 43  0  0  1  0  0  0  0  0999 V2000
  191.8410  175.4380  142.4770 C   0  0  1  0  0  3  0  0  0  0  0  0
  191.3060  177.0030  145.3460 O   0  0  0  0  0  0  0  0  0  0  0  0
  193.6310  174.2670  140.9980 C   0  0  2  0  0  3  0  0  0  0  0  0
  191.9210  175.1710  143.9340 C   0  0  2  0  0  3  0  0  0  0  0  0
  193.3100  175.3060  142.1010 C   0  0  2  0  0  3  0  0  0  0  0  0
  190.8120  175.8230  144.7660 C   0  0  2  0  0  3  0  0  0  0  0  0
  192.4270  173.3980  140.6060 C   0  0  0  0  0  2  0  0  0  0  0  0
  194.0420  175.1120  143.2970 O   0  0  0  0  0  0  0  0  0  0  0  0
  189.4810  174.9040  142.0160 C   0  0  0  0  0  2  0  0  0  0  0  0
  191.2580  174.1730  140.5370 O   0  0  0  0  0  0  0  0  0  0  0  0
  191.8160  175.3810  147.2560 C   0  0  0  0  0  2  0  0  0  0  0  0
  191.7840  176.7930  146.6750 C   0  0  1  0  0  3  0  0  0  0  0  0
  190.9150  174.3970  141.8740 C   0  0  1  0  0  3  0  0  0  0  0  0
  193.2480  175.6410  144.2790 N   0  0  2  0  0  0  0  0  0  0  0  0
  189.5080  176.0550  143.9720 C   0  0  1  0  0  3  0  0  0  0  0  0
  193.1110  175.9930  146.7470 C   0  0  2  0  0  3  0  0  0  0  0  0
  193.5900  175.0860  145.5900 C   0  0  2  0  0  3  0  0  0  0  0  0
  189.0800  174.8560  143.3660 O   0  0  0  0  0  0  0  0  0  0  0  0
  188.1770  175.9720  146.0850 C   0  0  0  0  0  3  0  0  0  0  0  0
  188.4300  176.5930  144.8600 C   0  0  0  0  0  0  0  0  0  0  0  0
  187.6590  177.6950  144.4700 C   0  0  0  0  0  3  0  0  0  0  0  0
  185.8610  179.2780  144.9390 N   0  0  0  0  0  1  0  0  0  0  0  0
  186.4260  177.5400  146.5110 N   0  0  0  0  0  0  0  0  0  0  0  0
  186.6520  178.1590  145.3190 C   0  0  0  0  0  0  0  0  0  0  0  0
  187.1620  176.4660  146.9070 C   0  0  0  0  0  3  0  0  0  0  0  0
  195.0960  174.8780  145.7410 C   0  0  0  0  0  2  0  0  0  0  0  0
  195.4530  173.4040  145.6090 C   0  0  0  0  0  0  0  0  0  0  0  0
  196.5660  173.1020  144.6340 C   0  0  0  0  0  2  0  0  0  0  0  0
  196.8170  173.0230  146.1350 C   0  0  0  0  0  2  0  0  0  0  0  0
  194.3890  172.3200  145.7420 C   0  0  0  0  0  2  0  0  0  0  0  0
  194.9270  170.9540  145.3470 C   0  0  0  0  0  2  0  0  0  0  0  0
  194.5800  170.0040  146.3080 O   0  0  0  0  0  1  0  0  0  0  0  0
  194.7110  173.4440  141.3670 O   0  0  0  0  0  0  0  0  0  0  0  0
  195.8480  173.8600  140.6450 C   0  0  0  0  0  0  0  0  0  0  0  0
  196.6380  174.7030  141.4130 F   0  0  0  0  0  0  0  0  0  0  0  0
  196.5950  172.7710  140.2260 F   0  0  0  0  0  0  0  0  0  0  0  0
  195.4270  174.5540  139.5260 F   0  0  0  0  0  0  0  0  0  0  0  0
  1  4  1  0  0  0  0
  2 12  1  0  0  0  0
  3 33  1  0  0  0  0
  3  5  1  0  0  0  0
  4 14  1  0  0  0  0
  4  6  1  0  0  0  0
  5  1  1  0  0  0  0
  5  8  1  0  0  0  0
  6  2  1  0  0  0  0
  7  3  1  0  0  0  0
  8 14  1  0  0  0  0
  9 18  1  0  0  0  0
 10  7  1  0  0  0  0
 10 13  1  0  0  0  0
 12 16  1  0  0  0  0
 12 11  1  0  0  0  0
 13  9  1  0  0  0  0
 13  1  1  0  0  0  0
 14 17  1  0  0  0  0
 15  6  1  0  0  0  0
 15 20  1  0  0  0  0
 16 11  1  0  0  0  0
 17 26  1  0  0  0  0
 17 16  1  0  0  0  0
 18 15  1  0  0  0  0
 19 25  1  0  0  0  0
 20 19  2  0  0  0  0
 21 20  1  0  0  0  0
 21 24  2  0  0  0  0
 22 24  1  0  0  0  0
 23 25  2  0  0  0  0
 24 23  1  0  0  0  0
 27 26  1  0  0  0  0
 27 30  1  0  0  0  0
 27 29  1  0  0  0  0
 28 27  1  0  0  0  0
 28 29  1  0  0  0  0
 31 30  1  0  0  0  0
 31 32  1  0  0  0  0
 34 33  1  0  0  0  0
 34 35  1  0  0  0  0
 36 34  1  0  0  0  0
 37 34  1  0  0  0  0
M  END
>  <MODEL>
8

>  <REMARK>
 VINA RESULT:      -6.8      3.985      8.030
  Name = 
  7 active torsions:
  status: ('A' for Active; 'I' for Inactive)
    1  A    between atoms: C_1  and  C_4
    2  A    between atoms: C_1  and  C_27
    3  A    between atoms: C_2  and  O_22
    4  A    between atoms: C_4  and  C_12
    5  A    between atoms: C_6  and  O_22
    6  A    between atoms: C_8  and  C_12
    7  A    between atoms: C_23  and  C_30
                            x       y       z     vdW  Elec       q    Type
                         _______ _______ _______ _____ _____    ______ ____

>  <TORSDO>
F 7

$$$$
=
 OpenBabel11112417313D

 37 43  0  0  1  0  0  0  0  0999 V2000
  191.4080  175.0700  145.6650 C   0  0  1  0  0  3  0  0  0  0  0  0
  188.6440  174.5760  143.9080 O   0  0  0  0  0  0  0  0  0  0  0  0
  193.9220  174.4450  145.8900 C   0  0  2  0  0  3  0  0  0  0  0  0
  190.9050  175.2680  144.2830 C   0  0  2  0  0  3  0  0  0  0  0  0
  192.5050  174.0480  145.4050 C   0  0  2  0  0  3  0  0  0  0  0  0
  189.4380  175.7000  144.1920 C   0  0  2  0  0  3  0  0  0  0  0  0
  194.0180  175.8970  146.3770 C   0  0  0  0  0  2  0  0  0  0  0  0
  192.4480  173.6980  144.0350 O   0  0  0  0  0  0  0  0  0  0  0  0
  190.6690  177.1550  146.7510 C   0  0  0  0  0  2  0  0  0  0  0  0
  192.8840  176.2440  147.1290 O   0  0  0  0  0  0  0  0  0  0  0  0
  189.0540  175.3830  141.5160 C   0  0  0  0  0  2  0  0  0  0  0  0
  188.3900  174.4330  142.5100 C   0  0  1  0  0  3  0  0  0  0  0  0
  191.8790  176.4210  146.1750 C   0  0  1  0  0  3  0  0  0  0  0  0
  191.1650  173.9870  143.6560 N   0  0  2  0  0  0  0  0  0  0  0  0
  188.9480  176.4700  145.4370 C   0  0  1  0  0  3  0  0  0  0  0  0
  189.6270  173.9860  141.6890 C   0  0  2  0  0  3  0  0  0  0  0  0
  191.0730  174.1740  142.2070 C   0  0  2  0  0  3  0  0  0  0  0  0
  189.8040  177.5570  145.7130 O   0  0  0  0  0  0  0  0  0  0  0  0
  186.5760  176.6500  146.2030 C   0  0  0  0  0  3  0  0  0  0  0  0
  187.5470  176.9590  145.2470 C   0  0  0  0  0  0  0  0  0  0  0  0
  187.1920  177.7050  144.1160 C   0  0  0  0  0  3  0  0  0  0  0  0
  185.4940  178.8910  142.8240 N   0  0  0  0  0  1  0  0  0  0  0  0
  184.9420  177.8210  144.9130 N   0  0  0  0  0  0  0  0  0  0  0  0
  185.8700  178.1310  143.9660 C   0  0  0  0  0  0  0  0  0  0  0  0
  185.2660  177.0950  146.0170 C   0  0  0  0  0  3  0  0  0  0  0  0
  191.9780  173.2030  141.4520 C   0  0  0  0  0  2  0  0  0  0  0  0
  192.9470  173.9570  140.5520 C   0  0  0  0  0  0  0  0  0  0  0  0
  193.5490  175.1990  141.1620 C   0  0  0  0  0  2  0  0  0  0  0  0
  194.3890  173.9380  141.0000 C   0  0  0  0  0  2  0  0  0  0  0  0
  192.7450  174.0040  139.0410 C   0  0  0  0  0  2  0  0  0  0  0  0
  191.6480  173.0500  138.5920 C   0  0  0  0  0  2  0  0  0  0  0  0
  190.5000  173.7650  138.2500 O   0  0  0  0  0  1  0  0  0  0  0  0
  194.8880  174.2120  144.8940 O   0  0  0  0  0  0  0  0  0  0  0  0
  195.8020  173.2560  145.3830 C   0  0  0  0  0  0  0  0  0  0  0  0
  195.1340  172.1700  145.9280 F   0  0  0  0  0  0  0  0  0  0  0  0
  196.6530  172.8260  144.3770 F   0  0  0  0  0  0  0  0  0  0  0  0
  196.5640  173.8450  146.3750 F   0  0  0  0  0  0  0  0  0  0  0  0
  1 13  1  0  0  0  0
  2  6  1  0  0  0  0
  3  7  1  0  0  0  0
  4  1  1  0  0  0  0
  5  1  1  0  0  0  0
  5  3  1  0  0  0  0
  6  4  1  0  0  0  0
  6 15  1  0  0  0  0
  7 10  1  0  0  0  0
  8  5  1  0  0  0  0
 11 16  1  0  0  0  0
 11 12  1  0  0  0  0
 12  2  1  0  0  0  0
 13  9  1  0  0  0  0
 13 10  1  0  0  0  0
 14  8  1  0  0  0  0
 14  4  1  0  0  0  0
 15 18  1  0  0  0  0
 16 17  1  0  0  0  0
 16 12  1  0  0  0  0
 17 14  1  0  0  0  0
 18  9  1  0  0  0  0
 20 15  1  0  0  0  0
 20 19  2  0  0  0  0
 21 20  1  0  0  0  0
 22 24  1  0  0  0  0
 23 25  2  0  0  0  0
 24 21  2  0  0  0  0
 24 23  1  0  0  0  0
 25 19  1  0  0  0  0
 26 17  1  0  0  0  0
 27 29  1  0  0  0  0
 27 28  1  0  0  0  0
 27 26  1  0  0  0  0
 29 28  1  0  0  0  0
 30 27  1  0  0  0  0
 31 30  1  0  0  0  0
 32 31  1  0  0  0  0
 33 34  1  0  0  0  0
 33  3  1  0  0  0  0
 34 35  1  0  0  0  0
 34 37  1  0  0  0  0
 36 34  1  0  0  0  0
M  END
>  <MODEL>
9

>  <REMARK>
 VINA RESULT:      -6.8      3.094      6.728
  Name = 
  7 active torsions:
  status: ('A' for Active; 'I' for Inactive)
    1  A    between atoms: C_1  and  C_4
    2  A    between atoms: C_1  and  C_27
    3  A    between atoms: C_2  and  O_22
    4  A    between atoms: C_4  and  C_12
    5  A    between atoms: C_6  and  O_22
    6  A    between atoms: C_8  and  C_12
    7  A    between atoms: C_23  and  C_30
                            x       y       z     vdW  Elec       q    Type
                         _______ _______ _______ _____ _____    ______ ____

>  <TORSDO>
F 7

$$$$
