=
 OpenBabel11112416433D

 32 36  0  0  1  0  0  0  0  0999 V2000
  190.0670  175.3400  143.8460 C   0  0  1  0  0  3  0  0  0  0  0  0
  191.3030  176.9820  148.3190 C   0  0  0  0  0  3  0  0  0  0  0  0
  190.2160  177.8560  148.2840 C   0  0  0  0  0  3  0  0  0  0  0  0
  187.7970  175.8830  142.8490 C   0  0  2  0  0  3  0  0  0  0  0  0
  186.6230  176.8600  143.0330 C   0  0  2  0  0  3  0  0  0  0  0  0
  191.8110  174.0400  142.6340 C   0  0  2  0  0  3  0  0  0  0  0  0
  192.0870  174.4520  145.0600 O   0  0  0  0  0  0  0  0  0  0  0  0
  185.2710  178.1550  144.3210 C   0  0  2  0  0  3  0  0  0  0  0  0
  191.4810  176.0480  147.2970 C   0  0  0  0  0  3  0  0  0  0  0  0
  190.7460  174.9340  145.1610 C   0  0  1  0  0  3  0  0  0  0  0  0
  190.5790  175.9840  146.2270 C   0  0  0  0  0  0  0  0  0  0  0  0
  188.4840  176.8460  145.0420 C   0  0  2  0  0  3  0  0  0  0  0  0
  186.0670  179.1470  143.4930 C   0  0  0  0  0  2  0  0  0  0  0  0
  192.6640  174.6410  143.7740 C   0  0  2  0  0  3  0  0  0  0  0  0
  186.9580  178.2830  142.6230 C   0  0  0  0  0  2  0  0  0  0  0  0
  189.2980  177.7880  147.2330 C   0  0  0  0  0  3  0  0  0  0  0  0
  189.4480  176.8380  146.2130 C   0  0  0  0  0  0  0  0  0  0  0  0
  187.0270  176.9640  145.4880 C   0  0  0  0  0  2  0  0  0  0  0  0
  190.3050  174.2170  142.8550 C   0  0  0  0  0  2  0  0  0  0  0  0
  187.3110  174.6720  142.3540 O   0  0  0  0  0  1  0  0  0  0  0  0
  184.8410  178.7200  145.6720 C   0  0  0  0  0  1  0  0  0  0  0  0
  188.5960  175.6270  144.1290 C   0  0  2  0  0  3  0  0  0  0  0  0
  186.0340  176.9010  144.3840 N   0  0  2  0  0  0  0  0  0  0  0  0
  193.7930  176.6530  144.7350 C   0  0  0  0  0  1  0  0  0  0  0  0
  193.0410  176.1080  143.5330 C   0  0  1  0  0  3  0  0  0  0  0  0
  193.8430  176.2270  142.3940 O   0  0  0  0  0  0  0  0  0  0  0  0
  195.0610  175.6400  142.7500 C   0  0  0  0  0  2  0  0  0  0  0  0
  196.1900  176.4650  142.2410 C   0  0  0  0  0  0  0  0  0  0  0  0
  196.2630  176.7470  141.0170 O   0  0  0  0  0  0  0  0  0  0  0  0
  197.1480  176.9480  143.1210 O   0  0  0  0  0  1  0  0  0  0  0  0
  191.2700  171.7910  143.2220 O   0  0  0  0  0  1  0  0  0  0  0  0
  192.1430  172.5690  142.4610 C   0  0  0  0  0  2  0  0  0  0  0  0
  1 19  1  6  0  0  0
  1 22  1  0  0  0  0
  1 10  1  0  0  0  0
  3  2  1  0  0  0  0
  4 20  1  1  0  0  0
  4  5  1  0  0  0  0
  4 22  1  0  0  0  0
  5 15  1  1  0  0  0
  5 23  1  0  0  0  0
  6 32  1  1  0  0  0
  6 19  1  0  0  0  0
  6 14  1  0  0  0  0
  8 23  1  0  0  0  0
  8 21  1  1  0  0  0
  9  2  2  0  0  0  0
 10  7  1  6  0  0  0
 10 11  1  0  0  0  0
 11  9  1  0  0  0  0
 12 18  1  1  0  0  0
 12 17  1  0  0  0  0
 13  8  1  0  0  0  0
 14 25  1  6  0  0  0
 14  7  1  0  0  0  0
 15 13  1  0  0  0  0
 16  3  2  0  0  0  0
 17 11  2  0  0  0  0
 17 16  1  0  0  0  0
 22 12  1  0  0  0  0
 23 18  1  0  0  0  0
 25 24  1  0  0  0  0
 26 27  1  0  0  0  0
 26 25  1  0  0  0  0
 28 27  1  0  0  0  0
 28 30  1  0  0  0  0
 29 28  2  0  0  0  0
 32 31  1  0  0  0  0
M  END
>  <MODEL>
1

>  <REMARK>
 VINA RESULT:      -7.3      0.000      0.000
  Name = 
  5 active torsions:
  status: ('A' for Active; 'I' for Inactive)
    1  A    between atoms: C_7  and  C_19
    2  A    between atoms: C_10  and  C_17
    3  A    between atoms: C_10  and  O_20
    4  A    between atoms: O_20  and  C_29
    5  A    between atoms: C_29  and  C_30
                            x       y       z     vdW  Elec       q    Type
                         _______ _______ _______ _____ _____    ______ ____

>  <TORSDO>
F 5

$$$$
=
 OpenBabel11112416433D

 32 36  0  0  1  0  0  0  0  0999 V2000
  189.4130  175.6910  142.8490 C   0  0  1  0  0  3  0  0  0  0  0  0
  193.6390  176.8160  145.1100 C   0  0  0  0  0  3  0  0  0  0  0  0
  194.1260  175.5450  144.8020 C   0  0  0  0  0  3  0  0  0  0  0  0
  189.2490  173.6460  141.3550 C   0  0  2  0  0  3  0  0  0  0  0  0
  189.9890  172.3310  141.0580 C   0  0  2  0  0  3  0  0  0  0  0  0
  187.4810  177.1870  143.3270 C   0  0  2  0  0  3  0  0  0  0  0  0
  189.7600  177.9310  143.9470 O   0  0  0  0  0  0  0  0  0  0  0  0
  191.8820  171.0860  140.8880 C   0  0  2  0  0  3  0  0  0  0  0  0
  192.4060  177.2320  144.6040 C   0  0  0  0  0  3  0  0  0  0  0  0
  190.3450  176.8580  143.2070 C   0  0  1  0  0  3  0  0  0  0  0  0
  191.6440  176.3780  143.7950 C   0  0  0  0  0  0  0  0  0  0  0  0
  191.3380  174.1270  142.6250 C   0  0  2  0  0  3  0  0  0  0  0  0
  191.1470  170.4930  142.0760 C   0  0  0  0  0  2  0  0  0  0  0  0
  188.4570  177.6420  144.4360 C   0  0  2  0  0  3  0  0  0  0  0  0
  189.8770  171.3130  142.1800 C   0  0  0  0  0  2  0  0  0  0  0  0
  193.3860  174.6930  143.9800 C   0  0  0  0  0  3  0  0  0  0  0  0
  192.1580  175.1060  143.4430 C   0  0  0  0  0  0  0  0  0  0  0  0
  192.1820  173.3850  141.5880 C   0  0  0  0  0  2  0  0  0  0  0  0
  188.1450  176.2920  142.2760 C   0  0  0  0  0  2  0  0  0  0  0  0
  188.6160  174.0880  140.1910 O   0  0  0  0  0  1  0  0  0  0  0  0
  193.3970  170.9230  140.9870 C   0  0  0  0  0  1  0  0  0  0  0  0
  190.1520  174.7550  141.8970 C   0  0  2  0  0  3  0  0  0  0  0  0
  191.4140  172.4660  140.7070 N   0  0  2  0  0  0  0  0  0  0  0  0
  189.2640  177.3130  146.7780 C   0  0  0  0  0  1  0  0  0  0  0  0
  188.5010  176.6780  145.6290 C   0  0  1  0  0  3  0  0  0  0  0  0
  187.2060  176.3630  146.0520 O   0  0  0  0  0  0  0  0  0  0  0  0
  186.9440  177.2520  147.0980 C   0  0  0  0  0  2  0  0  0  0  0  0
  185.6350  177.9240  146.8770 C   0  0  0  0  0  0  0  0  0  0  0  0
  184.6650  177.2770  146.4040 O   0  0  0  0  0  0  0  0  0  0  0  0
  185.4750  179.2600  147.2200 O   0  0  0  0  0  1  0  0  0  0  0  0
  186.0710  179.0970  143.5770 O   0  0  0  0  0  1  0  0  0  0  0  0
  186.8580  178.4000  142.6600 C   0  0  0  0  0  2  0  0  0  0  0  0
  1 19  1  6  0  0  0
  1 10  1  0  0  0  0
  3  2  1  0  0  0  0
  4 20  1  6  0  0  0
  4 22  1  0  0  0  0
  5  4  1  0  0  0  0
  5 15  1  1  0  0  0
  6 32  1  6  0  0  0
  6 14  1  0  0  0  0
  7 14  1  0  0  0  0
  8 21  1  1  0  0  0
  8 13  1  0  0  0  0
  9  2  2  0  0  0  0
 10 11  1  1  0  0  0
 10  7  1  0  0  0  0
 11  9  1  0  0  0  0
 12 18  1  6  0  0  0
 12 17  1  0  0  0  0
 13 15  1  0  0  0  0
 14 25  1  1  0  0  0
 16  3  2  0  0  0  0
 17 11  2  0  0  0  0
 17 16  1  0  0  0  0
 19  6  1  0  0  0  0
 22 12  1  0  0  0  0
 22  1  1  0  0  0  0
 23  8  1  0  0  0  0
 23  5  1  0  0  0  0
 23 18  1  0  0  0  0
 25 26  1  0  0  0  0
 25 24  1  0  0  0  0
 26 27  1  0  0  0  0
 28 27  1  0  0  0  0
 28 30  1  0  0  0  0
 29 28  2  0  0  0  0
 32 31  1  0  0  0  0
M  END
>  <MODEL>
2

>  <REMARK>
 VINA RESULT:      -6.9      3.093      7.133
  Name = 
  5 active torsions:
  status: ('A' for Active; 'I' for Inactive)
    1  A    between atoms: C_7  and  C_19
    2  A    between atoms: C_10  and  C_17
    3  A    between atoms: C_10  and  O_20
    4  A    between atoms: O_20  and  C_29
    5  A    between atoms: C_29  and  C_30
                            x       y       z     vdW  Elec       q    Type
                         _______ _______ _______ _____ _____    ______ ____

>  <TORSDO>
F 5

$$$$
=
 OpenBabel11112416433D

 32 36  0  0  1  0  0  0  0  0999 V2000
  190.6890  175.7710  144.9670 C   0  0  1  0  0  3  0  0  0  0  0  0
  190.0970  171.4860  142.6180 C   0  0  0  0  0  3  0  0  0  0  0  0
  191.4830  171.3280  142.5830 C   0  0  0  0  0  3  0  0  0  0  0  0
  192.9350  176.3960  145.9740 C   0  0  2  0  0  3  0  0  0  0  0  0
  194.4200  176.0060  145.8940 C   0  0  2  0  0  3  0  0  0  0  0  0
  188.7050  177.2730  145.0270 C   0  0  2  0  0  3  0  0  0  0  0  0
  188.4010  174.9040  144.3710 O   0  0  0  0  0  0  0  0  0  0  0  0
  196.0850  174.4890  145.5960 C   0  0  2  0  0  3  0  0  0  0  0  0
  189.5330  172.5520  143.3210 C   0  0  0  0  0  3  0  0  0  0  0  0
  189.7290  174.5860  144.7910 C   0  0  1  0  0  3  0  0  0  0  0  0
  190.3490  173.4750  143.9880 C   0  0  0  0  0  0  0  0  0  0  0  0
  192.6760  174.3020  144.6470 C   0  0  2  0  0  3  0  0  0  0  0  0
  196.1790  175.3950  144.3830 C   0  0  0  0  0  2  0  0  0  0  0  0
  188.2430  176.2550  143.9590 C   0  0  2  0  0  3  0  0  0  0  0  0
  195.0790  176.4160  144.5890 C   0  0  0  0  0  2  0  0  0  0  0  0
  192.3060  172.2300  143.2610 C   0  0  0  0  0  3  0  0  0  0  0  0
  191.7540  173.2910  143.9940 C   0  0  0  0  0  0  0  0  0  0  0  0
  193.8260  173.6380  145.4040 C   0  0  0  0  0  2  0  0  0  0  0  0
  189.9590  176.8210  145.7810 C   0  0  0  0  0  2  0  0  0  0  0  0
  192.6490  176.8510  147.2620 O   0  0  0  0  0  1  0  0  0  0  0  0
  196.5770  173.0700  145.3160 C   0  0  0  0  0  1  0  0  0  0  0  0
  191.9760  175.2600  145.6090 C   0  0  2  0  0  3  0  0  0  0  0  0
  194.7190  174.5810  146.1270 N   0  0  2  0  0  0  0  0  0  0  0  0
  188.3960  175.4500  141.5980 C   0  0  0  0  0  1  0  0  0  0  0  0
  188.8720  176.5040  142.5820 C   0  0  1  0  0  3  0  0  0  0  0  0
  188.5220  177.7710  142.1060 O   0  0  0  0  0  0  0  0  0  0  0  0
  187.4680  177.5430  141.2170 C   0  0  0  0  0  2  0  0  0  0  0  0
  186.2620  178.2970  141.6550 C   0  0  0  0  0  0  0  0  0  0  0  0
  186.3170  179.0400  142.6690 O   0  0  0  0  0  1  0  0  0  0  0  0
  185.0830  178.2020  140.9290 O   0  0  0  0  0  0  0  0  0  0  0  0
  186.3490  177.2400  145.4140 O   0  0  0  0  0  1  0  0  0  0  0  0
  187.5770  177.5400  146.0060 C   0  0  0  0  0  2  0  0  0  0  0  0
  1 22  1  0  0  0  0
  1 19  1  1  0  0  0
  2  9  1  0  0  0  0
  3  2  2  0  0  0  0
  3 16  1  0  0  0  0
  4 20  1  1  0  0  0
  5 15  1  6  0  0  0
  5  4  1  0  0  0  0
  5 23  1  0  0  0  0
  6 19  1  0  0  0  0
  6 32  1  1  0  0  0
  7 10  1  0  0  0  0
  8 21  1  6  0  0  0
  8 23  1  0  0  0  0
  9 11  2  0  0  0  0
 10 11  1  6  0  0  0
 10  1  1  0  0  0  0
 11 17  1  0  0  0  0
 12 18  1  1  0  0  0
 12 22  1  0  0  0  0
 13 15  1  0  0  0  0
 13  8  1  0  0  0  0
 14 25  1  6  0  0  0
 14  7  1  0  0  0  0
 14  6  1  0  0  0  0
 16 17  2  0  0  0  0
 17 12  1  0  0  0  0
 18 23  1  0  0  0  0
 22  4  1  0  0  0  0
 24 25  1  0  0  0  0
 26 25  1  0  0  0  0
 27 28  1  0  0  0  0
 27 26  1  0  0  0  0
 28 29  1  0  0  0  0
 30 28  2  0  0  0  0
 31 32  1  0  0  0  0
M  END
>  <MODEL>
3

>  <REMARK>
 VINA RESULT:      -6.8      3.127      7.520
  Name = 
  5 active torsions:
  status: ('A' for Active; 'I' for Inactive)
    1  A    between atoms: C_7  and  C_19
    2  A    between atoms: C_10  and  C_17
    3  A    between atoms: C_10  and  O_20
    4  A    between atoms: O_20  and  C_29
    5  A    between atoms: C_29  and  C_30
                            x       y       z     vdW  Elec       q    Type
                         _______ _______ _______ _____ _____    ______ ____

>  <TORSDO>
F 5

$$$$
=
 OpenBabel11112416433D

 32 36  0  0  1  0  0  0  0  0999 V2000
  190.0920  174.9020  142.5140 C   0  0  1  0  0  3  0  0  0  0  0  0
  189.7540  174.8640  147.4250 C   0  0  0  0  0  3  0  0  0  0  0  0
  188.7220  175.8000  147.3480 C   0  0  0  0  0  3  0  0  0  0  0  0
  188.2660  175.9540  141.0980 C   0  0  2  0  0  3  0  0  0  0  0  0
  187.0780  176.9230  141.2240 C   0  0  2  0  0  3  0  0  0  0  0  0
  192.1620  173.9120  141.5490 C   0  0  2  0  0  3  0  0  0  0  0  0
  191.6170  173.4790  143.9250 O   0  0  0  0  0  0  0  0  0  0  0  0
  185.3520  177.8460  142.3770 C   0  0  2  0  0  3  0  0  0  0  0  0
  190.2770  174.3030  146.2580 C   0  0  0  0  0  3  0  0  0  0  0  0
  190.3080  174.0250  143.7560 C   0  0  1  0  0  3  0  0  0  0  0  0
  189.7780  174.6790  145.0030 C   0  0  0  0  0  0  0  0  0  0  0  0
  188.1740  176.0760  143.5860 C   0  0  2  0  0  3  0  0  0  0  0  0
  186.3560  178.9750  142.2330 C   0  0  0  0  0  2  0  0  0  0  0  0
  192.5800  174.0220  143.0330 C   0  0  2  0  0  3  0  0  0  0  0  0
  187.5010  178.3640  141.4500 C   0  0  0  0  0  2  0  0  0  0  0  0
  188.2030  176.1670  146.1040 C   0  0  0  0  0  3  0  0  0  0  0  0
  188.6990  175.5930  144.9250 C   0  0  0  0  0  0  0  0  0  0  0  0
  186.6490  176.1780  143.5610 C   0  0  0  0  0  2  0  0  0  0  0  0
  190.6650  174.1480  141.3300 C   0  0  0  0  0  2  0  0  0  0  0  0
  187.9940  175.0230  140.0940 O   0  0  0  0  0  1  0  0  0  0  0  0
  184.4900  177.9760  143.6310 C   0  0  0  0  0  1  0  0  0  0  0  0
  188.6040  175.2190  142.3970 C   0  0  2  0  0  3  0  0  0  0  0  0
  186.0760  176.5750  142.2470 N   0  0  2  0  0  0  0  0  0  0  0  0
  193.4770  175.4530  144.8750 C   0  0  0  0  0  1  0  0  0  0  0  0
  192.9870  175.4450  143.4380 C   0  0  1  0  0  3  0  0  0  0  0  0
  194.0010  175.9210  142.6010 O   0  0  0  0  0  0  0  0  0  0  0  0
  195.1240  176.0340  143.4260 C   0  0  0  0  0  2  0  0  0  0  0  0
  196.2500  176.6460  142.6700 C   0  0  0  0  0  0  0  0  0  0  0  0
  197.2370  177.1240  143.2860 O   0  0  0  0  0  1  0  0  0  0  0  0
  196.2240  176.6670  141.2820 O   0  0  0  0  0  0  0  0  0  0  0  0
  191.6830  172.1720  139.9870 O   0  0  0  0  0  1  0  0  0  0  0  0
  192.5610  172.5540  141.0010 C   0  0  0  0  0  2  0  0  0  0  0  0
  1 19  1  6  0  0  0
  1 10  1  0  0  0  0
  3  2  1  0  0  0  0
  4 20  1  6  0  0  0
  4  5  1  0  0  0  0
  4 22  1  0  0  0  0
  5 15  1  1  0  0  0
  5 23  1  0  0  0  0
  6 32  1  1  0  0  0
  6 14  1  0  0  0  0
  8 21  1  1  0  0  0
  9  2  2  0  0  0  0
 10  7  1  1  0  0  0
 10 11  1  0  0  0  0
 11  9  1  0  0  0  0
 12 18  1  1  0  0  0
 12 17  1  0  0  0  0
 13  8  1  0  0  0  0
 14 25  1  1  0  0  0
 14  7  1  0  0  0  0
 15 13  1  0  0  0  0
 16  3  2  0  0  0  0
 17 11  2  0  0  0  0
 17 16  1  0  0  0  0
 19  6  1  0  0  0  0
 22  1  1  0  0  0  0
 22 12  1  0  0  0  0
 23  8  1  0  0  0  0
 23 18  1  0  0  0  0
 25 24  1  0  0  0  0
 26 27  1  0  0  0  0
 26 25  1  0  0  0  0
 28 29  1  0  0  0  0
 28 27  1  0  0  0  0
 30 28  2  0  0  0  0
 31 32  1  0  0  0  0
M  END
>  <MODEL>
4

>  <REMARK>
 VINA RESULT:      -6.7      1.482      1.869
  Name = 
  5 active torsions:
  status: ('A' for Active; 'I' for Inactive)
    1  A    between atoms: C_7  and  C_19
    2  A    between atoms: C_10  and  C_17
    3  A    between atoms: C_10  and  O_20
    4  A    between atoms: O_20  and  C_29
    5  A    between atoms: C_29  and  C_30
                            x       y       z     vdW  Elec       q    Type
                         _______ _______ _______ _____ _____    ______ ____

>  <TORSDO>
F 5

$$$$
=
 OpenBabel11112416433D

 32 36  0  0  1  0  0  0  0  0999 V2000
  190.1050  174.3440  143.6640 C   0  0  1  0  0  3  0  0  0  0  0  0
  191.1910  176.3740  148.0150 C   0  0  0  0  0  3  0  0  0  0  0  0
  190.2840  177.4000  147.7480 C   0  0  0  0  0  3  0  0  0  0  0  0
  188.0700  175.1060  142.3510 C   0  0  2  0  0  3  0  0  0  0  0  0
  187.0770  176.2770  142.2780 C   0  0  2  0  0  3  0  0  0  0  0  0
  191.6950  172.6190  142.8300 C   0  0  2  0  0  3  0  0  0  0  0  0
  191.8140  173.3170  145.2030 O   0  0  0  0  0  0  0  0  0  0  0  0
  185.8620  177.9440  143.2320 C   0  0  2  0  0  3  0  0  0  0  0  0
  191.2950  175.2880  147.1430 C   0  0  0  0  0  3  0  0  0  0  0  0
  190.5760  174.0210  145.0890 C   0  0  1  0  0  3  0  0  0  0  0  0
  190.4990  175.2240  145.9910 C   0  0  0  0  0  0  0  0  0  0  0  0
  188.7100  176.2410  144.4750 C   0  0  2  0  0  3  0  0  0  0  0  0
  186.8940  178.6660  142.3870 C   0  0  0  0  0  2  0  0  0  0  0  0
  192.5320  173.2270  143.9800 C   0  0  2  0  0  3  0  0  0  0  0  0
  187.6950  177.5550  141.7380 C   0  0  0  0  0  2  0  0  0  0  0  0
  189.4710  177.3360  146.6140 C   0  0  0  0  0  3  0  0  0  0  0  0
  189.5440  176.2400  145.7420 C   0  0  0  0  0  0  0  0  0  0  0  0
  187.2620  176.6570  144.7320 C   0  0  0  0  0  2  0  0  0  0  0  0
  190.2310  173.0690  142.8520 C   0  0  0  0  0  2  0  0  0  0  0  0
  187.4250  173.9330  141.9550 O   0  0  0  0  0  1  0  0  0  0  0  0
  185.4150  178.7560  144.4450 C   0  0  0  0  0  1  0  0  0  0  0  0
  188.6880  174.9050  143.7370 C   0  0  2  0  0  3  0  0  0  0  0  0
  186.3800  176.6040  143.5350 N   0  0  2  0  0  0  0  0  0  0  0  0
  194.6960  174.4210  143.6130 C   0  0  0  0  0  1  0  0  0  0  0  0
  193.1840  174.5640  143.6060 C   0  0  1  0  0  3  0  0  0  0  0  0
  192.7660  174.9760  142.3370 O   0  0  0  0  0  0  0  0  0  0  0  0
  193.1270  176.3230  142.2600 C   0  0  0  0  0  2  0  0  0  0  0  0
  192.2660  177.1320  143.1640 C   0  0  0  0  0  0  0  0  0  0  0  0
  191.1500  177.5540  142.7630 O   0  0  0  0  0  0  0  0  0  0  0  0
  192.6800  177.3990  144.4620 O   0  0  0  0  0  1  0  0  0  0  0  0
  190.5940  170.5480  142.3900 O   0  0  0  0  0  1  0  0  0  0  0  0
  191.7760  171.1050  142.8780 C   0  0  0  0  0  2  0  0  0  0  0  0
  1 19  1  6  0  0  0
  1 22  1  0  0  0  0
  1 10  1  0  0  0  0
  3  2  1  0  0  0  0
  4 20  1  1  0  0  0
  4 22  1  0  0  0  0
  5 15  1  1  0  0  0
  5  4  1  0  0  0  0
  5 23  1  0  0  0  0
  6 19  1  0  0  0  0
  6 32  1  1  0  0  0
  6 14  1  0  0  0  0
  8 23  1  0  0  0  0
  8 21  1  1  0  0  0
  9  2  2  0  0  0  0
 10  7  1  6  0  0  0
 10 11  1  0  0  0  0
 11  9  1  0  0  0  0
 12 18  1  1  0  0  0
 12 17  1  0  0  0  0
 13  8  1  0  0  0  0
 14 25  1  6  0  0  0
 14  7  1  0  0  0  0
 15 13  1  0  0  0  0
 16  3  2  0  0  0  0
 17 11  2  0  0  0  0
 17 16  1  0  0  0  0
 22 12  1  0  0  0  0
 23 18  1  0  0  0  0
 25 24  1  0  0  0  0
 26 25  1  0  0  0  0
 27 26  1  0  0  0  0
 27 28  1  0  0  0  0
 28 30  1  0  0  0  0
 29 28  2  0  0  0  0
 31 32  1  0  0  0  0
M  END
>  <MODEL>
5

>  <REMARK>
 VINA RESULT:      -6.6      1.595      1.902
  Name = 
  5 active torsions:
  status: ('A' for Active; 'I' for Inactive)
    1  A    between atoms: C_7  and  C_19
    2  A    between atoms: C_10  and  C_17
    3  A    between atoms: C_10  and  O_20
    4  A    between atoms: O_20  and  C_29
    5  A    between atoms: C_29  and  C_30
                            x       y       z     vdW  Elec       q    Type
                         _______ _______ _______ _____ _____    ______ ____

>  <TORSDO>
F 5

$$$$
=
 OpenBabel11112416433D

 32 36  0  0  1  0  0  0  0  0999 V2000
  191.7540  175.7150  143.4410 C   0  0  1  0  0  3  0  0  0  0  0  0
  189.9580  172.3020  140.3810 C   0  0  0  0  0  3  0  0  0  0  0  0
  188.6650  172.6610  140.7610 C   0  0  0  0  0  3  0  0  0  0  0  0
  190.2360  177.4910  144.4340 C   0  0  2  0  0  3  0  0  0  0  0  0
  188.7430  177.7810  144.6650 C   0  0  2  0  0  3  0  0  0  0  0  0
  194.1750  175.5310  143.9920 C   0  0  2  0  0  3  0  0  0  0  0  0
  193.2750  174.2410  142.0790 O   0  0  0  0  0  0  0  0  0  0  0  0
  186.5540  177.6450  144.0710 C   0  0  2  0  0  3  0  0  0  0  0  0
  191.0510  173.0390  140.8410 C   0  0  0  0  0  3  0  0  0  0  0  0
  192.0410  174.9590  142.1360 C   0  0  1  0  0  3  0  0  0  0  0  0
  190.8610  174.1360  141.6930 C   0  0  0  0  0  0  0  0  0  0  0  0
  189.3000  175.6690  143.0130 C   0  0  2  0  0  3  0  0  0  0  0  0
  186.6600  176.7890  145.3190 C   0  0  0  0  0  2  0  0  0  0  0  0
  193.9410  174.1530  143.3310 C   0  0  2  0  0  3  0  0  0  0  0  0
  188.1170  176.8920  145.7260 C   0  0  0  0  0  2  0  0  0  0  0  0
  188.4610  173.7640  141.5930 C   0  0  0  0  0  3  0  0  0  0  0  0
  189.5460  174.5300  142.0420 C   0  0  0  0  0  0  0  0  0  0  0  0
  188.1280  176.5540  142.5880 C   0  0  0  0  0  2  0  0  0  0  0  0
  193.0040  176.4980  143.7880 C   0  0  0  0  0  2  0  0  0  0  0  0
  190.9150  178.6980  144.2600 O   0  0  0  0  0  1  0  0  0  0  0  0
  185.4440  177.1850  143.1300 C   0  0  0  0  0  1  0  0  0  0  0  0
  190.5090  176.5740  143.2390 C   0  0  2  0  0  3  0  0  0  0  0  0
  187.8890  177.7310  143.4650 N   0  0  2  0  0  0  0  0  0  0  0  0
  193.2600  171.7670  143.6330 C   0  0  0  0  0  1  0  0  0  0  0  0
  193.2570  173.1470  144.2660 C   0  0  1  0  0  3  0  0  0  0  0  0
  193.9200  173.0920  145.4960 O   0  0  0  0  0  0  0  0  0  0  0  0
  194.8260  172.0360  145.3680 C   0  0  0  0  0  2  0  0  0  0  0  0
  196.1890  172.4870  145.7620 C   0  0  0  0  0  0  0  0  0  0  0  0
  197.1540  171.6800  145.7320 O   0  0  0  0  0  0  0  0  0  0  0  0
  196.4020  173.8070  146.1360 O   0  0  0  0  0  1  0  0  0  0  0  0
  196.3570  175.1400  143.1070 O   0  0  0  0  0  1  0  0  0  0  0  0
  195.4570  176.1450  143.4610 C   0  0  0  0  0  2  0  0  0  0  0  0
  1 19  1  6  0  0  0
  2  3  2  0  0  0  0
  2  9  1  0  0  0  0
  3 16  1  0  0  0  0
  4 20  1  6  0  0  0
  4  5  1  0  0  0  0
  5 15  1  1  0  0  0
  6 32  1  6  0  0  0
  7 10  1  0  0  0  0
  7 14  1  0  0  0  0
  8 21  1  6  0  0  0
  8 13  1  0  0  0  0
  9 11  2  0  0  0  0
 10 11  1  1  0  0  0
 10  1  1  0  0  0  0
 11 17  1  0  0  0  0
 12 18  1  6  0  0  0
 12 22  1  0  0  0  0
 13 15  1  0  0  0  0
 14  6  1  0  0  0  0
 14 25  1  1  0  0  0
 16 17  2  0  0  0  0
 17 12  1  0  0  0  0
 18 23  1  0  0  0  0
 19  6  1  0  0  0  0
 22  1  1  0  0  0  0
 22  4  1  0  0  0  0
 23  8  1  0  0  0  0
 23  5  1  0  0  0  0
 24 25  1  0  0  0  0
 25 26  1  0  0  0  0
 27 26  1  0  0  0  0
 27 28  1  0  0  0  0
 28 30  1  0  0  0  0
 29 28  2  0  0  0  0
 31 32  1  0  0  0  0
M  END
>  <MODEL>
6

>  <REMARK>
 VINA RESULT:      -6.5      2.388      4.718
  Name = 
  5 active torsions:
  status: ('A' for Active; 'I' for Inactive)
    1  A    between atoms: C_7  and  C_19
    2  A    between atoms: C_10  and  C_17
    3  A    between atoms: C_10  and  O_20
    4  A    between atoms: O_20  and  C_29
    5  A    between atoms: C_29  and  C_30
                            x       y       z     vdW  Elec       q    Type
                         _______ _______ _______ _____ _____    ______ ____

>  <TORSDO>
F 5

$$$$
=
 OpenBabel11112416433D

 32 36  0  0  1  0  0  0  0  0999 V2000
  191.7070  175.6560  144.2060 C   0  0  1  0  0  3  0  0  0  0  0  0
  189.9090  171.4000  142.5090 C   0  0  0  0  0  3  0  0  0  0  0  0
  191.0200  171.2790  141.6740 C   0  0  0  0  0  3  0  0  0  0  0  0
  194.1140  176.3210  143.7460 C   0  0  2  0  0  3  0  0  0  0  0  0
  195.2820  175.9710  142.8100 C   0  0  2  0  0  3  0  0  0  0  0  0
  190.1090  177.1060  145.4480 C   0  0  2  0  0  3  0  0  0  0  0  0
  189.5060  174.7420  145.0200 O   0  0  0  0  0  0  0  0  0  0  0  0
  196.4830  174.5020  141.5590 C   0  0  2  0  0  3  0  0  0  0  0  0
  189.8450  172.4390  143.4390 C   0  0  0  0  0  3  0  0  0  0  0  0
  190.8350  174.4510  144.5840 C   0  0  1  0  0  3  0  0  0  0  0  0
  190.8870  173.3710  143.5380 C   0  0  0  0  0  0  0  0  0  0  0  0
  193.1560  174.2450  142.7530 C   0  0  2  0  0  3  0  0  0  0  0  0
  195.8480  175.4320  140.5420 C   0  0  0  0  0  2  0  0  0  0  0  0
  189.1240  176.0960  144.8150 C   0  0  2  0  0  3  0  0  0  0  0  0
  195.0590  176.4210  141.3770 C   0  0  0  0  0  2  0  0  0  0  0  0
  192.0740  172.1900  141.7760 C   0  0  0  0  0  3  0  0  0  0  0  0
  192.0370  173.2220  142.7240 C   0  0  0  0  0  0  0  0  0  0  0  0
  194.5390  173.5970  142.6850 C   0  0  0  0  0  2  0  0  0  0  0  0
  191.5730  176.6730  145.3230 C   0  0  0  0  0  2  0  0  0  0  0  0
  194.6220  176.7450  144.9750 O   0  0  0  0  0  1  0  0  0  0  0  0
  196.7370  173.1020  141.0050 C   0  0  0  0  0  1  0  0  0  0  0  0
  193.1330  175.1680  143.9690 C   0  0  2  0  0  3  0  0  0  0  0  0
  195.6760  174.5500  142.7850 N   0  0  2  0  0  0  0  0  0  0  0  0
  187.8200  175.3910  142.8030 C   0  0  0  0  0  1  0  0  0  0  0  0
  188.8360  176.3860  143.3360 C   0  0  1  0  0  3  0  0  0  0  0  0
  188.3390  177.6830  143.1780 O   0  0  0  0  0  0  0  0  0  0  0  0
  187.8350  177.7190  141.8750 C   0  0  0  0  0  2  0  0  0  0  0  0
  186.5230  178.4190  141.8580 C   0  0  0  0  0  0  0  0  0  0  0  0
  186.1610  179.1070  142.8480 O   0  0  0  0  0  1  0  0  0  0  0  0
  185.7080  178.3390  140.7370 O   0  0  0  0  0  0  0  0  0  0  0  0
  190.7580  176.8110  147.7260 O   0  0  0  0  0  1  0  0  0  0  0  0
  189.7530  177.3260  146.9070 C   0  0  0  0  0  2  0  0  0  0  0  0
  1 10  1  0  0  0  0
  1 19  1  1  0  0  0
  2  9  1  0  0  0  0
  3 16  1  0  0  0  0
  3  2  2  0  0  0  0
  4 22  1  0  0  0  0
  4 20  1  1  0  0  0
  5 15  1  6  0  0  0
  5  4  1  0  0  0  0
  6 32  1  1  0  0  0
  8 21  1  6  0  0  0
  8 23  1  0  0  0  0
  9 11  2  0  0  0  0
 10 11  1  6  0  0  0
 10  7  1  0  0  0  0
 12 18  1  1  0  0  0
 12 22  1  0  0  0  0
 13 15  1  0  0  0  0
 13  8  1  0  0  0  0
 14 25  1  6  0  0  0
 14  7  1  0  0  0  0
 14  6  1  0  0  0  0
 16 17  2  0  0  0  0
 17 12  1  0  0  0  0
 17 11  1  0  0  0  0
 18 23  1  0  0  0  0
 19  6  1  0  0  0  0
 22  1  1  0  0  0  0
 23  5  1  0  0  0  0
 24 25  1  0  0  0  0
 26 25  1  0  0  0  0
 27 26  1  0  0  0  0
 28 27  1  0  0  0  0
 28 29  1  0  0  0  0
 30 28  2  0  0  0  0
 32 31  1  0  0  0  0
M  END
>  <MODEL>
7

>  <REMARK>
 VINA RESULT:      -6.2      2.732      7.691
  Name = 
  5 active torsions:
  status: ('A' for Active; 'I' for Inactive)
    1  A    between atoms: C_7  and  C_19
    2  A    between atoms: C_10  and  C_17
    3  A    between atoms: C_10  and  O_20
    4  A    between atoms: O_20  and  C_29
    5  A    between atoms: C_29  and  C_30
                            x       y       z     vdW  Elec       q    Type
                         _______ _______ _______ _____ _____    ______ ____

>  <TORSDO>
F 5

$$$$
=
 OpenBabel11112416433D

 32 36  0  0  1  0  0  0  0  0999 V2000
  193.4580  173.7960  144.4770 C   0  0  1  0  0  3  0  0  0  0  0  0
  190.5640  176.8860  146.9890 C   0  0  0  0  0  3  0  0  0  0  0  0
  189.5580  176.6910  146.0430 C   0  0  0  0  0  3  0  0  0  0  0  0
  192.4940  172.3070  142.6600 C   0  0  2  0  0  3  0  0  0  0  0  0
  191.2450  172.1760  141.7730 C   0  0  2  0  0  3  0  0  0  0  0  0
  195.8810  173.8550  145.0450 C   0  0  2  0  0  3  0  0  0  0  0  0
  194.2610  174.9350  146.5740 O   0  0  0  0  0  0  0  0  0  0  0  0
  189.0160  172.4090  141.3940 C   0  0  2  0  0  3  0  0  0  0  0  0
  191.7380  176.1330  146.9250 C   0  0  0  0  0  3  0  0  0  0  0  0
  193.1630  174.3370  145.8830 C   0  0  1  0  0  3  0  0  0  0  0  0
  191.9200  175.1850  145.9080 C   0  0  0  0  0  0  0  0  0  0  0  0
  191.0620  173.9840  143.8220 C   0  0  2  0  0  3  0  0  0  0  0  0
  189.6640  173.4180  140.4660 C   0  0  0  0  0  2  0  0  0  0  0  0
  195.4040  175.1420  145.7560 C   0  0  2  0  0  3  0  0  0  0  0  0
  191.1510  173.2530  140.7060 C   0  0  0  0  0  2  0  0  0  0  0  0
  189.7190  175.7350  145.0380 C   0  0  0  0  0  3  0  0  0  0  0  0
  190.8800  174.9520  144.9750 C   0  0  0  0  0  0  0  0  0  0  0  0
  189.8090  173.1490  143.5600 C   0  0  0  0  0  2  0  0  0  0  0  0
  194.7240  172.9680  144.5730 C   0  0  0  0  0  2  0  0  0  0  0  0
  193.0140  171.0360  142.9100 O   0  0  0  0  0  1  0  0  0  0  0  0
  187.6140  172.8230  141.8350 C   0  0  0  0  0  1  0  0  0  0  0  0
  192.2360  173.0230  143.9890 C   0  0  2  0  0  3  0  0  0  0  0  0
  189.9560  172.1290  142.4880 N   0  0  2  0  0  0  0  0  0  0  0  0
  194.8900  177.5810  145.5800 C   0  0  0  0  0  1  0  0  0  0  0  0
  195.2070  176.3210  144.7940 C   0  0  1  0  0  3  0  0  0  0  0  0
  196.3600  176.5290  144.0320 O   0  0  0  0  0  0  0  0  0  0  0  0
  195.9060  176.6210  142.7130 C   0  0  0  0  0  2  0  0  0  0  0  0
  196.4800  175.5140  141.9010 C   0  0  0  0  0  0  0  0  0  0  0  0
  195.7580  174.5420  141.5580 O   0  0  0  0  0  1  0  0  0  0  0  0
  197.8070  175.5660  141.4960 O   0  0  0  0  0  0  0  0  0  0  0  0
  196.3850  171.7380  146.0260 O   0  0  0  0  0  1  0  0  0  0  0  0
  196.7990  173.0690  145.9630 C   0  0  0  0  0  2  0  0  0  0  0  0
  1 19  1  1  0  0  0
  1 10  1  0  0  0  0
  3  2  2  0  0  0  0
  4 20  1  1  0  0  0
  4 22  1  0  0  0  0
  5 15  1  6  0  0  0
  5 23  1  0  0  0  0
  5  4  1  0  0  0  0
  6 14  1  0  0  0  0
  6 32  1  1  0  0  0
  8 21  1  1  0  0  0
  8 23  1  0  0  0  0
  9  2  1  0  0  0  0
 10 11  1  6  0  0  0
 10  7  1  0  0  0  0
 11  9  2  0  0  0  0
 12 18  1  1  0  0  0
 12 22  1  0  0  0  0
 12 17  1  0  0  0  0
 13 15  1  0  0  0  0
 13  8  1  0  0  0  0
 14 25  1  6  0  0  0
 14  7  1  0  0  0  0
 16  3  1  0  0  0  0
 17 16  2  0  0  0  0
 17 11  1  0  0  0  0
 19  6  1  0  0  0  0
 22  1  1  0  0  0  0
 23 18  1  0  0  0  0
 25 24  1  0  0  0  0
 26 25  1  0  0  0  0
 27 26  1  0  0  0  0
 28 27  1  0  0  0  0
 29 28  1  0  0  0  0
 30 28  2  0  0  0  0
 32 31  1  0  0  0  0
M  END
>  <MODEL>
8

>  <REMARK>
 VINA RESULT:      -6.2      2.892      4.536
  Name = 
  5 active torsions:
  status: ('A' for Active; 'I' for Inactive)
    1  A    between atoms: C_7  and  C_19
    2  A    between atoms: C_10  and  C_17
    3  A    between atoms: C_10  and  O_20
    4  A    between atoms: O_20  and  C_29
    5  A    between atoms: C_29  and  C_30
                            x       y       z     vdW  Elec       q    Type
                         _______ _______ _______ _____ _____    ______ ____

>  <TORSDO>
F 5

$$$$
=
 OpenBabel11112416433D

 32 36  0  0  1  0  0  0  0  0999 V2000
  193.7600  174.4990  144.6100 C   0  0  1  0  0  3  0  0  0  0  0  0
  191.4090  173.4790  140.4070 C   0  0  0  0  0  3  0  0  0  0  0  0
  190.2020  173.8240  141.0140 C   0  0  0  0  0  3  0  0  0  0  0  0
  192.5940  175.7740  146.4700 C   0  0  2  0  0  3  0  0  0  0  0  0
  191.1820  176.1720  146.9300 C   0  0  2  0  0  3  0  0  0  0  0  0
  196.0850  173.6290  144.8060 C   0  0  2  0  0  3  0  0  0  0  0  0
  194.9980  173.6650  142.5820 O   0  0  0  0  0  0  0  0  0  0  0  0
  189.0230  176.7510  146.5180 C   0  0  2  0  0  3  0  0  0  0  0  0
  192.6130  173.6730  141.0870 C   0  0  0  0  0  3  0  0  0  0  0  0
  193.9260  174.4650  143.0850 C   0  0  1  0  0  3  0  0  0  0  0  0
  192.6200  174.2050  142.3840 C   0  0  0  0  0  0  0  0  0  0  0  0
  191.3560  175.1190  144.4080 C   0  0  2  0  0  3  0  0  0  0  0  0
  188.9300  175.3800  147.1620 C   0  0  0  0  0  2  0  0  0  0  0  0
  195.6030  172.8390  143.5680 C   0  0  2  0  0  3  0  0  0  0  0  0
  190.3680  175.0000  147.4510 C   0  0  0  0  0  2  0  0  0  0  0  0
  190.1970  174.3750  142.2980 C   0  0  0  0  0  3  0  0  0  0  0  0
  191.3990  174.6000  142.9830 C   0  0  0  0  0  0  0  0  0  0  0  0
  190.3890  176.2910  144.5720 C   0  0  0  0  0  2  0  0  0  0  0  0
  195.1310  174.7600  145.2030 C   0  0  0  0  0  2  0  0  0  0  0  0
  193.4990  176.7590  146.8670 O   0  0  0  0  0  1  0  0  0  0  0  0
  187.8670  177.0370  145.5620 C   0  0  0  0  0  1  0  0  0  0  0  0
  192.7120  175.5510  144.9600 C   0  0  2  0  0  3  0  0  0  0  0  0
  190.3630  176.8880  145.9340 N   0  0  2  0  0  0  0  0  0  0  0  0
  194.4690  170.7910  142.6960 C   0  0  0  0  0  1  0  0  0  0  0  0
  194.7130  171.6420  143.9280 C   0  0  1  0  0  3  0  0  0  0  0  0
  195.3200  170.8620  144.9170 O   0  0  0  0  0  0  0  0  0  0  0  0
  194.3170  169.9910  145.3520 C   0  0  0  0  0  2  0  0  0  0  0  0
  194.8030  169.1980  146.5140 C   0  0  0  0  0  0  0  0  0  0  0  0
  195.9060  169.4770  147.0520 O   0  0  0  0  0  1  0  0  0  0  0  0
  194.0260  168.1660  147.0230 O   0  0  0  0  0  0  0  0  0  0  0  0
  197.3860  175.4290  143.9310 O   0  0  0  0  0  1  0  0  0  0  0  0
  197.4750  174.1840  144.5550 C   0  0  0  0  0  2  0  0  0  0  0  0
  1 22  1  0  0  0  0
  1 19  1  1  0  0  0
  2  3  2  0  0  0  0
  2  9  1  0  0  0  0
  3 16  1  0  0  0  0
  4 20  1  6  0  0  0
  4  5  1  0  0  0  0
  5 15  1  6  0  0  0
  6 32  1  6  0  0  0
  6 19  1  0  0  0  0
  7 10  1  0  0  0  0
  7 14  1  0  0  0  0
  8 21  1  6  0  0  0
  8 13  1  0  0  0  0
  9 11  2  0  0  0  0
 10 11  1  6  0  0  0
 10  1  1  0  0  0  0
 11 17  1  0  0  0  0
 12 18  1  6  0  0  0
 12 22  1  0  0  0  0
 13 15  1  0  0  0  0
 14 25  1  1  0  0  0
 14  6  1  0  0  0  0
 16 17  2  0  0  0  0
 17 12  1  0  0  0  0
 18 23  1  0  0  0  0
 22  4  1  0  0  0  0
 23  8  1  0  0  0  0
 23  5  1  0  0  0  0
 24 25  1  0  0  0  0
 25 26  1  0  0  0  0
 26 27  1  0  0  0  0
 27 28  1  0  0  0  0
 28 30  2  0  0  0  0
 28 29  1  0  0  0  0
 31 32  1  0  0  0  0
M  END
>  <MODEL>
9

>  <REMARK>
 VINA RESULT:      -6.1      2.951      6.070
  Name = 
  5 active torsions:
  status: ('A' for Active; 'I' for Inactive)
    1  A    between atoms: C_7  and  C_19
    2  A    between atoms: C_10  and  C_17
    3  A    between atoms: C_10  and  O_20
    4  A    between atoms: O_20  and  C_29
    5  A    between atoms: C_29  and  C_30
                            x       y       z     vdW  Elec       q    Type
                         _______ _______ _______ _____ _____    ______ ____

>  <TORSDO>
F 5

$$$$
