=
 OpenBabel11112416173D

 30 35  0  0  1  0  0  0  0  0999 V2000
  187.5370  176.4460  145.4160 C   0  0  0  0  0  0  0  0  0  0  0  0
  185.7190  177.6970  146.6240 C   0  0  0  0  0  0  0  0  0  0  0  0
  185.8800  177.5160  141.6990 N   0  0  0  0  0  2  0  0  0  0  0  0
  188.1150  176.0270  144.1790 C   0  0  0  0  0  0  0  0  0  0  0  0
  188.1680  176.0630  146.6070 C   0  0  0  0  0  3  0  0  0  0  0  0
  191.0310  174.0800  145.4140 O   0  0  0  0  0  1  0  0  0  0  0  0
  188.8890  173.9260  142.0260 C   0  0  1  0  0  3  0  0  0  0  0  0
  189.8800  174.8630  145.4010 C   0  0  0  0  0  0  0  0  0  0  0  0
  187.9290  174.7460  141.2490 N   0  0  2  0  0  0  0  0  0  0  0  0
  186.8450  176.9210  140.8430 C   0  0  0  0  0  0  0  0  0  0  0  0
  189.3260  175.2810  146.6130 C   0  0  0  0  0  0  0  0  0  0  0  0
  189.2820  175.2210  144.1800 C   0  0  0  0  0  0  0  0  0  0  0  0
  184.5570  178.4710  146.5610 C   0  0  0  0  0  3  0  0  0  0  0  0
  188.3180  174.5620  139.8540 C   0  0  0  0  0  2  0  0  0  0  0  0
  189.6210  173.0000  141.0730 C   0  0  0  0  0  2  0  0  0  0  0  0
  186.2240  177.3990  147.8850 O   0  0  0  0  0  1  0  0  0  0  0  0
  186.3380  177.1820  143.0000 C   0  0  0  0  0  0  0  0  0  0  0  0
  183.9910  178.8090  145.3360 C   0  0  0  0  0  3  0  0  0  0  0  0
  186.3450  177.2390  145.4290 C   0  0  0  0  0  0  0  0  0  0  0  0
  187.4850  176.4190  142.9850 C   0  0  0  0  0  0  0  0  0  0  0  0
  186.7990  177.0500  139.5910 O   0  0  0  0  0  0  0  0  0  0  0  0
  187.9370  176.1830  141.5740 C   0  0  1  0  0  3  0  0  0  0  0  0
  188.9540  173.2000  139.7410 C   0  0  0  0  0  2  0  0  0  0  0  0
  190.7870  175.6830  142.2030 C   0  0  0  0  0  1  0  0  0  0  0  0
  184.5850  178.3790  144.1530 C   0  0  0  0  0  3  0  0  0  0  0  0
  185.7500  177.6050  144.1890 C   0  0  0  0  0  0  0  0  0  0  0  0
  189.8960  174.6750  142.9210 C   0  0  2  0  0  3  0  0  0  0  0  0
  189.9330  174.8940  147.8120 O   0  0  0  0  0  0  0  0  0  0  0  0
  191.2760  176.8490  148.1370 C   0  0  0  0  0  1  0  0  0  0  0  0
  191.2260  175.3370  148.2000 C   0  0  0  0  0  2  0  0  0  0  0  0
  1 19  1  0  0  0  0
  1  5  1  0  0  0  0
  2 16  1  0  0  0  0
  3 17  1  0  0  0  0
  4 12  1  0  0  0  0
  4  1  2  0  0  0  0
  5 11  2  0  0  0  0
  7 15  1  6  0  0  0
  7 27  1  0  0  0  0
  8  6  1  0  0  0  0
  8 11  1  0  0  0  0
  9 14  1  6  0  0  0
  9 22  1  0  0  0  0
  9  7  1  0  0  0  0
 10  3  1  0  0  0  0
 11 28  1  0  0  0  0
 12  8  2  0  0  0  0
 13  2  1  0  0  0  0
 17 26  1  0  0  0  0
 18 13  2  0  0  0  0
 19  2  2  0  0  0  0
 20 17  2  0  0  0  0
 20  4  1  0  0  0  0
 21 10  2  0  0  0  0
 22 10  1  6  0  0  0
 22 20  1  0  0  0  0
 23 14  1  0  0  0  0
 23 15  1  0  0  0  0
 25 26  2  0  0  0  0
 25 18  1  0  0  0  0
 26 19  1  0  0  0  0
 27 24  1  6  0  0  0
 27 12  1  0  0  0  0
 28 30  1  0  0  0  0
 29 30  1  0  0  0  0
M  END
>  <MODEL>
1

>  <REMARK>
 VINA RESULT:      -9.3      0.000      0.000
  Name = 
  2 active torsions:
  status: ('A' for Active; 'I' for Inactive)
    1  A    between atoms: C_11  and  O_28
    2  A    between atoms: O_28  and  C_30
                            x       y       z     vdW  Elec       q    Type
                         _______ _______ _______ _____ _____    ______ ____

>  <TORSDO>
F 2

$$$$
=
 OpenBabel11112416173D

 30 35  0  0  1  0  0  0  0  0999 V2000
  186.3250  177.2620  143.8800 C   0  0  0  0  0  0  0  0  0  0  0  0
  184.6860  178.4440  145.3800 C   0  0  0  0  0  0  0  0  0  0  0  0
  188.5710  176.0270  147.2170 N   0  0  0  0  0  2  0  0  0  0  0  0
  187.5140  176.4820  143.7480 C   0  0  0  0  0  0  0  0  0  0  0  0
  185.6250  177.6110  142.7170 C   0  0  0  0  0  3  0  0  0  0  0  0
  187.6700  176.1020  140.0540 O   0  0  0  0  0  1  0  0  0  0  0  0
  190.4720  176.0130  142.9230 C   0  0  1  0  0  3  0  0  0  0  0  0
  187.2350  176.4760  141.3220 C   0  0  0  0  0  0  0  0  0  0  0  0
  190.5900  175.8630  144.3930 N   0  0  2  0  0  0  0  0  0  0  0  0
  189.5620  175.2580  146.5490 C   0  0  0  0  0  0  0  0  0  0  0  0
  186.0660  177.2280  141.4470 C   0  0  0  0  0  0  0  0  0  0  0  0
  187.9710  176.1040  142.4600 C   0  0  0  0  0  0  0  0  0  0  0  0
  184.2960  178.8070  146.6720 C   0  0  0  0  0  3  0  0  0  0  0  0
  191.7580  175.0110  144.5930 C   0  0  0  0  0  2  0  0  0  0  0  0
  191.7600  175.5350  142.2800 C   0  0  0  0  0  2  0  0  0  0  0  0
  183.8850  178.8680  144.3240 O   0  0  0  0  0  1  0  0  0  0  0  0
  187.7650  176.5220  146.1600 C   0  0  0  0  0  0  0  0  0  0  0  0
  185.0460  178.4200  147.7780 C   0  0  0  0  0  3  0  0  0  0  0  0
  185.8650  177.6720  145.1740 C   0  0  0  0  0  0  0  0  0  0  0  0
  188.2090  176.1270  144.9160 C   0  0  0  0  0  0  0  0  0  0  0  0
  190.4410  174.6100  147.1770 O   0  0  0  0  0  0  0  0  0  0  0  0
  189.4200  175.2510  145.0490 C   0  0  1  0  0  3  0  0  0  0  0  0
  192.6850  175.2400  143.4270 C   0  0  0  0  0  2  0  0  0  0  0  0
  189.1190  173.8520  142.4570 C   0  0  0  0  0  1  0  0  0  0  0  0
  186.2000  177.6620  147.6050 C   0  0  0  0  0  3  0  0  0  0  0  0
  186.6110  177.2840  146.3220 C   0  0  0  0  0  0  0  0  0  0  0  0
  189.2570  175.3550  142.2400 C   0  0  2  0  0  3  0  0  0  0  0  0
  185.3640  177.5980  140.2950 O   0  0  0  0  0  0  0  0  0  0  0  0
  182.9890  177.8950  140.3350 C   0  0  0  0  0  1  0  0  0  0  0  0
  184.3390  178.5810  140.2980 C   0  0  0  0  0  2  0  0  0  0  0  0
  1 19  1  0  0  0  0
  2 13  1  0  0  0  0
  4  1  1  0  0  0  0
  4 20  1  0  0  0  0
  5  1  2  0  0  0  0
  6  8  1  0  0  0  0
  7 15  1  6  0  0  0
  7  9  1  0  0  0  0
  8 11  2  0  0  0  0
  8 12  1  0  0  0  0
  9 14  1  6  0  0  0
  9 22  1  0  0  0  0
 10 21  2  0  0  0  0
 10  3  1  0  0  0  0
 11  5  1  0  0  0  0
 12  4  2  0  0  0  0
 13 18  2  0  0  0  0
 15 23  1  0  0  0  0
 16  2  1  0  0  0  0
 17 26  1  0  0  0  0
 17  3  1  0  0  0  0
 19  2  2  0  0  0  0
 19 26  1  0  0  0  0
 20 17  2  0  0  0  0
 22 20  1  1  0  0  0
 22 10  1  0  0  0  0
 23 14  1  0  0  0  0
 25 18  1  0  0  0  0
 26 25  2  0  0  0  0
 27 24  1  1  0  0  0
 27 12  1  0  0  0  0
 27  7  1  0  0  0  0
 28 30  1  0  0  0  0
 28 11  1  0  0  0  0
 30 29  1  0  0  0  0
M  END
>  <MODEL>
2

>  <REMARK>
 VINA RESULT:      -9.1      2.088      5.282
  Name = 
  2 active torsions:
  status: ('A' for Active; 'I' for Inactive)
    1  A    between atoms: C_11  and  O_28
    2  A    between atoms: O_28  and  C_30
                            x       y       z     vdW  Elec       q    Type
                         _______ _______ _______ _____ _____    ______ ____

>  <TORSDO>
F 2

$$$$
=
 OpenBabel11112416173D

 30 35  0  0  1  0  0  0  0  0999 V2000
  188.4710  177.2890  145.9940 C   0  0  0  0  0  0  0  0  0  0  0  0
  186.3940  178.3160  146.9740 C   0  0  0  0  0  0  0  0  0  0  0  0
  186.5470  176.8010  142.2830 N   0  0  0  0  0  2  0  0  0  0  0  0
  189.1280  176.7020  144.8690 C   0  0  0  0  0  0  0  0  0  0  0  0
  189.1950  177.4340  147.1850 C   0  0  0  0  0  3  0  0  0  0  0  0
  192.4770  176.0040  146.3250 O   0  0  0  0  0  1  0  0  0  0  0  0
  190.4220  174.3530  143.3010 C   0  0  1  0  0  3  0  0  0  0  0  0
  191.1560  176.4270  146.2020 C   0  0  0  0  0  0  0  0  0  0  0  0
  189.2670  174.6440  142.4190 N   0  0  2  0  0  0  0  0  0  0  0  0
  187.6280  176.2590  141.5380 C   0  0  0  0  0  0  0  0  0  0  0  0
  190.5220  177.0120  147.3000 C   0  0  0  0  0  0  0  0  0  0  0  0
  190.4700  176.2590  144.9860 C   0  0  0  0  0  0  0  0  0  0  0  0
  185.0650  178.7130  146.8060 C   0  0  0  0  0  3  0  0  0  0  0  0
  189.6760  174.1810  141.0960 C   0  0  0  0  0  2  0  0  0  0  0  0
  191.3690  173.4180  142.5720 C   0  0  0  0  0  2  0  0  0  0  0  0
  186.9750  178.5270  148.2200 O   0  0  0  0  0  1  0  0  0  0  0  0
  187.0920  176.9780  143.5810 C   0  0  0  0  0  0  0  0  0  0  0  0
  184.4160  178.5340  145.5880 C   0  0  0  0  0  3  0  0  0  0  0  0
  187.1080  177.7170  145.8960 C   0  0  0  0  0  0  0  0  0  0  0  0
  188.4030  176.5650  143.6740 C   0  0  0  0  0  0  0  0  0  0  0  0
  187.5350  176.0140  140.3060 O   0  0  0  0  0  0  0  0  0  0  0  0
  188.8870  176.0660  142.3440 C   0  0  1  0  0  3  0  0  0  0  0  0
  190.6580  173.0550  141.2990 C   0  0  0  0  0  2  0  0  0  0  0  0
  191.7710  176.5170  142.8350 C   0  0  0  0  0  1  0  0  0  0  0  0
  185.0910  177.9560  144.5180 C   0  0  0  0  0  3  0  0  0  0  0  0
  186.4230  177.5520  144.6590 C   0  0  0  0  0  0  0  0  0  0  0  0
  191.1970  175.5580  143.8710 C   0  0  2  0  0  3  0  0  0  0  0  0
  191.2240  177.1500  148.5010 O   0  0  0  0  0  0  0  0  0  0  0  0
  191.5870  177.9830  150.7160 C   0  0  0  0  0  1  0  0  0  0  0  0
  191.1610  178.3210  149.3020 C   0  0  0  0  0  2  0  0  0  0  0  0
  1  5  1  0  0  0  0
  2 16  1  0  0  0  0
  3 17  1  0  0  0  0
  4 12  1  0  0  0  0
  4  1  2  0  0  0  0
  5 11  2  0  0  0  0
  7 15  1  6  0  0  0
  7 27  1  0  0  0  0
  8  6  1  0  0  0  0
  8 11  1  0  0  0  0
  9 14  1  6  0  0  0
  9  7  1  0  0  0  0
 10  3  1  0  0  0  0
 11 28  1  0  0  0  0
 12  8  2  0  0  0  0
 13  2  1  0  0  0  0
 14 23  1  0  0  0  0
 17 20  2  0  0  0  0
 17 26  1  0  0  0  0
 18 13  2  0  0  0  0
 19  1  1  0  0  0  0
 19  2  2  0  0  0  0
 20  4  1  0  0  0  0
 21 10  2  0  0  0  0
 22 10  1  6  0  0  0
 22  9  1  0  0  0  0
 22 20  1  0  0  0  0
 23 15  1  0  0  0  0
 25 26  2  0  0  0  0
 25 18  1  0  0  0  0
 26 19  1  0  0  0  0
 27 24  1  6  0  0  0
 27 12  1  0  0  0  0
 28 30  1  0  0  0  0
 30 29  1  0  0  0  0
M  END
>  <MODEL>
3

>  <REMARK>
 VINA RESULT:      -8.7      1.503      1.767
  Name = 
  2 active torsions:
  status: ('A' for Active; 'I' for Inactive)
    1  A    between atoms: C_11  and  O_28
    2  A    between atoms: O_28  and  C_30
                            x       y       z     vdW  Elec       q    Type
                         _______ _______ _______ _____ _____    ______ ____

>  <TORSDO>
F 2

$$$$
=
 OpenBabel11112416173D

 30 35  0  0  1  0  0  0  0  0999 V2000
  188.2880  176.0820  143.6020 C   0  0  0  0  0  0  0  0  0  0  0  0
  186.0220  177.1450  143.8660 C   0  0  0  0  0  0  0  0  0  0  0  0
  189.4130  177.3990  147.4370 N   0  0  0  0  0  2  0  0  0  0  0  0
  189.5790  175.8100  144.1500 C   0  0  0  0  0  0  0  0  0  0  0  0
  187.9890  175.5850  142.3270 C   0  0  0  0  0  3  0  0  0  0  0  0
  191.1020  173.8700  141.3690 O   0  0  0  0  0  1  0  0  0  0  0  0
  192.6670  176.1070  144.3080 C   0  0  1  0  0  3  0  0  0  0  0  0
  190.1810  174.5980  142.1170 C   0  0  0  0  0  0  0  0  0  0  0  0
  192.2860  176.6970  145.6130 N   0  0  2  0  0  0  0  0  0  0  0  0
  190.7090  176.8220  147.5030 C   0  0  0  0  0  0  0  0  0  0  0  0
  188.9170  174.8510  141.5830 C   0  0  0  0  0  0  0  0  0  0  0  0
  190.5280  175.0770  143.3930 C   0  0  0  0  0  0  0  0  0  0  0  0
  185.1370  177.8900  144.6480 C   0  0  0  0  0  3  0  0  0  0  0  0
  193.4560  176.5120  146.4670 C   0  0  0  0  0  2  0  0  0  0  0  0
  194.1670  175.8830  144.2940 C   0  0  0  0  0  2  0  0  0  0  0  0
  185.5780  176.7230  142.6170 O   0  0  0  0  0  1  0  0  0  0  0  0
  188.9490  177.0330  146.1480 C   0  0  0  0  0  0  0  0  0  0  0  0
  185.5100  178.3480  145.9080 C   0  0  0  0  0  3  0  0  0  0  0  0
  187.3290  176.8420  144.3470 C   0  0  0  0  0  0  0  0  0  0  0  0
  189.8730  176.3020  145.4330 C   0  0  0  0  0  0  0  0  0  0  0  0
  191.4220  176.8940  148.5380 O   0  0  0  0  0  0  0  0  0  0  0  0
  191.1100  176.0800  146.2530 C   0  0  1  0  0  3  0  0  0  0  0  0
  194.6670  176.4960  145.5710 C   0  0  0  0  0  2  0  0  0  0  0  0
  192.0320  173.6500  144.8370 C   0  0  0  0  0  1  0  0  0  0  0  0
  186.7780  178.0630  146.4040 C   0  0  0  0  0  3  0  0  0  0  0  0
  187.6840  177.3170  145.6410 C   0  0  0  0  0  0  0  0  0  0  0  0
  191.9310  174.8250  143.8710 C   0  0  2  0  0  3  0  0  0  0  0  0
  188.6070  174.3760  140.3050 O   0  0  0  0  0  0  0  0  0  0  0  0
  188.5880  172.6510  138.6450 C   0  0  0  0  0  1  0  0  0  0  0  0
  188.1970  173.0390  140.0560 C   0  0  0  0  0  2  0  0  0  0  0  0
  1  4  1  0  0  0  0
  1 19  1  0  0  0  0
  2 19  2  0  0  0  0
  2 13  1  0  0  0  0
  3 10  1  0  0  0  0
  4 20  1  0  0  0  0
  5  1  2  0  0  0  0
  6  8  1  0  0  0  0
  7 15  1  1  0  0  0
  7  9  1  0  0  0  0
  8 12  1  0  0  0  0
  9 22  1  0  0  0  0
  9 14  1  1  0  0  0
 10 21  2  0  0  0  0
 11  8  2  0  0  0  0
 11  5  1  0  0  0  0
 12 27  1  0  0  0  0
 12  4  2  0  0  0  0
 13 18  2  0  0  0  0
 15 23  1  0  0  0  0
 16  2  1  0  0  0  0
 17  3  1  0  0  0  0
 18 25  1  0  0  0  0
 19 26  1  0  0  0  0
 20 17  2  0  0  0  0
 22 20  1  6  0  0  0
 22 10  1  0  0  0  0
 23 14  1  0  0  0  0
 26 17  1  0  0  0  0
 26 25  2  0  0  0  0
 27  7  1  0  0  0  0
 27 24  1  1  0  0  0
 28 11  1  0  0  0  0
 29 30  1  0  0  0  0
 30 28  1  0  0  0  0
M  END
>  <MODEL>
4

>  <REMARK>
 VINA RESULT:      -8.5      2.668      5.589
  Name = 
  2 active torsions:
  status: ('A' for Active; 'I' for Inactive)
    1  A    between atoms: C_11  and  O_28
    2  A    between atoms: O_28  and  C_30
                            x       y       z     vdW  Elec       q    Type
                         _______ _______ _______ _____ _____    ______ ____

>  <TORSDO>
F 2

$$$$
=
 OpenBabel11112416173D

 30 35  0  0  1  0  0  0  0  0999 V2000
  187.4630  176.5530  142.5530 C   0  0  0  0  0  0  0  0  0  0  0  0
  185.8390  178.4380  142.9300 C   0  0  0  0  0  0  0  0  0  0  0  0
  188.4600  176.5180  146.6410 N   0  0  0  0  0  2  0  0  0  0  0  0
  188.4250  175.6450  143.0920 C   0  0  0  0  0  0  0  0  0  0  0  0
  187.1740  176.4800  141.1830 C   0  0  0  0  0  3  0  0  0  0  0  0
  189.3860  173.7740  140.0270 O   0  0  0  0  0  1  0  0  0  0  0  0
  191.2940  174.5170  143.4760 C   0  0  1  0  0  3  0  0  0  0  0  0
  188.7560  174.6840  140.8710 C   0  0  0  0  0  0  0  0  0  0  0  0
  191.0080  174.9660  144.8590 N   0  0  2  0  0  0  0  0  0  0  0  0
  189.3700  175.4270  146.6410 C   0  0  0  0  0  0  0  0  0  0  0  0
  187.8070  175.5610  140.3420 C   0  0  0  0  0  0  0  0  0  0  0  0
  189.0800  174.7210  142.2390 C   0  0  0  0  0  0  0  0  0  0  0  0
  185.2430  179.3410  143.8140 C   0  0  0  0  0  3  0  0  0  0  0  0
  191.8530  174.1320  145.7090 C   0  0  0  0  0  2  0  0  0  0  0  0
  192.5470  173.6610  143.4910 C   0  0  0  0  0  2  0  0  0  0  0  0
  185.4470  178.4900  141.5970 O   0  0  0  0  0  1  0  0  0  0  0  0
  188.0800  176.6340  145.2790 C   0  0  0  0  0  0  0  0  0  0  0  0
  185.5850  179.3500  145.1630 C   0  0  0  0  0  3  0  0  0  0  0  0
  186.8130  177.5090  143.3990 C   0  0  0  0  0  0  0  0  0  0  0  0
  188.7070  175.7150  144.4660 C   0  0  0  0  0  0  0  0  0  0  0  0
  189.8870  174.9880  147.7030 O   0  0  0  0  0  0  0  0  0  0  0  0
  189.6020  174.8260  145.2790 C   0  0  1  0  0  3  0  0  0  0  0  0
  193.0640  173.7480  144.8990 C   0  0  0  0  0  2  0  0  0  0  0  0
  189.6190  172.5400  143.3970 C   0  0  0  0  0  1  0  0  0  0  0  0
  186.5290  178.4500  145.6470 C   0  0  0  0  0  3  0  0  0  0  0  0
  187.1390  177.5340  144.7840 C   0  0  0  0  0  0  0  0  0  0  0  0
  190.1620  173.7930  142.7200 C   0  0  2  0  0  3  0  0  0  0  0  0
  187.5190  175.5120  138.9750 O   0  0  0  0  0  0  0  0  0  0  0  0
  186.5000  176.0520  136.8770 C   0  0  0  0  0  1  0  0  0  0  0  0
  186.6280  176.4190  138.3410 C   0  0  0  0  0  2  0  0  0  0  0  0
  1  4  1  0  0  0  0
  1 19  1  0  0  0  0
  2 19  2  0  0  0  0
  2 13  1  0  0  0  0
  3 10  1  0  0  0  0
  4 20  1  0  0  0  0
  5  1  2  0  0  0  0
  6  8  1  0  0  0  0
  7 15  1  1  0  0  0
  7  9  1  0  0  0  0
  8 12  1  0  0  0  0
  9 22  1  0  0  0  0
  9 14  1  1  0  0  0
 10 21  2  0  0  0  0
 11  8  2  0  0  0  0
 11  5  1  0  0  0  0
 12 27  1  0  0  0  0
 12  4  2  0  0  0  0
 13 18  2  0  0  0  0
 15 23  1  0  0  0  0
 16  2  1  0  0  0  0
 17  3  1  0  0  0  0
 18 25  1  0  0  0  0
 19 26  1  0  0  0  0
 20 17  2  0  0  0  0
 22 20  1  6  0  0  0
 22 10  1  0  0  0  0
 23 14  1  0  0  0  0
 26 17  1  0  0  0  0
 26 25  2  0  0  0  0
 27 24  1  1  0  0  0
 27  7  1  0  0  0  0
 28 11  1  0  0  0  0
 29 30  1  0  0  0  0
 30 28  1  0  0  0  0
M  END
>  <MODEL>
5

>  <REMARK>
 VINA RESULT:      -8.2      2.253      5.503
  Name = 
  2 active torsions:
  status: ('A' for Active; 'I' for Inactive)
    1  A    between atoms: C_11  and  O_28
    2  A    between atoms: O_28  and  C_30
                            x       y       z     vdW  Elec       q    Type
                         _______ _______ _______ _____ _____    ______ ____

>  <TORSDO>
F 2

$$$$
=
 OpenBabel11112416173D

 30 35  0  0  1  0  0  0  0  0999 V2000
  188.0960  175.6770  140.8610 C   0  0  0  0  0  0  0  0  0  0  0  0
  188.1110  174.4270  138.6760 C   0  0  0  0  0  0  0  0  0  0  0  0
  191.0150  173.0820  142.4280 N   0  0  0  0  0  2  0  0  0  0  0  0
  188.5990  175.8150  142.1900 C   0  0  0  0  0  0  0  0  0  0  0  0
  187.1420  176.5990  140.4110 C   0  0  0  0  0  3  0  0  0  0  0  0
  186.6740  178.7790  143.3410 O   0  0  0  0  0  1  0  0  0  0  0  0
  188.3770  175.7130  145.2870 C   0  0  1  0  0  3  0  0  0  0  0  0
  187.1530  177.7530  142.5310 C   0  0  0  0  0  0  0  0  0  0  0  0
  189.3780  174.6420  145.0670 N   0  0  2  0  0  0  0  0  0  0  0  0
  191.1930  173.6870  143.7010 C   0  0  0  0  0  0  0  0  0  0  0  0
  186.6680  177.6290  141.2280 C   0  0  0  0  0  0  0  0  0  0  0  0
  188.1100  176.8510  143.0270 C   0  0  0  0  0  0  0  0  0  0  0  0
  188.6130  173.3750  137.9060 C   0  0  0  0  0  3  0  0  0  0  0  0
  190.1380  174.5750  146.3110 C   0  0  0  0  0  2  0  0  0  0  0  0
  188.3280  176.0380  146.7680 C   0  0  0  0  0  2  0  0  0  0  0  0
  187.1640  175.2590  138.0880 O   0  0  0  0  0  1  0  0  0  0  0  0
  190.0100  173.8780  141.8190 C   0  0  0  0  0  0  0  0  0  0  0  0
  189.5610  172.5000  138.4260 C   0  0  0  0  0  3  0  0  0  0  0  0
  188.5630  174.6200  140.0140 C   0  0  0  0  0  0  0  0  0  0  0  0
  189.5620  174.8940  142.6350 C   0  0  0  0  0  0  0  0  0  0  0  0
  192.0580  173.2780  144.5210 O   0  0  0  0  0  0  0  0  0  0  0  0
  190.3000  174.8770  143.9420 C   0  0  1  0  0  3  0  0  0  0  0  0
  189.2220  175.0220  147.4210 C   0  0  0  0  0  2  0  0  0  0  0  0
  189.8670  177.7270  144.6190 C   0  0  0  0  0  1  0  0  0  0  0  0
  190.0230  172.6690  139.7280 C   0  0  0  0  0  3  0  0  0  0  0  0
  189.5390  173.7150  140.5190 C   0  0  0  0  0  0  0  0  0  0  0  0
  188.5320  177.0060  144.4620 C   0  0  2  0  0  3  0  0  0  0  0  0
  185.7030  178.5320  140.7690 O   0  0  0  0  0  0  0  0  0  0  0  0
  183.5500  178.1790  141.7530 C   0  0  0  0  0  1  0  0  0  0  0  0
  184.3660  178.1520  140.4780 C   0  0  0  0  0  2  0  0  0  0  0  0
  1  4  1  0  0  0  0
  2 19  1  0  0  0  0
  3 10  1  0  0  0  0
  4 20  1  0  0  0  0
  4 12  2  0  0  0  0
  5  1  2  0  0  0  0
  5 11  1  0  0  0  0
  7 15  1  1  0  0  0
  8 12  1  0  0  0  0
  8  6  1  0  0  0  0
  9  7  1  0  0  0  0
  9 14  1  1  0  0  0
 10 22  1  0  0  0  0
 10 21  2  0  0  0  0
 11  8  2  0  0  0  0
 12 27  1  0  0  0  0
 13 18  1  0  0  0  0
 13  2  2  0  0  0  0
 14 23  1  0  0  0  0
 15 23  1  0  0  0  0
 16  2  1  0  0  0  0
 17  3  1  0  0  0  0
 17 20  2  0  0  0  0
 18 25  2  0  0  0  0
 19 26  2  0  0  0  0
 19  1  1  0  0  0  0
 22 20  1  6  0  0  0
 22  9  1  0  0  0  0
 25 26  1  0  0  0  0
 26 17  1  0  0  0  0
 27 24  1  6  0  0  0
 27  7  1  0  0  0  0
 28 11  1  0  0  0  0
 30 28  1  0  0  0  0
 30 29  1  0  0  0  0
M  END
>  <MODEL>
6

>  <REMARK>
 VINA RESULT:      -8.1      2.458      6.976
  Name = 
  2 active torsions:
  status: ('A' for Active; 'I' for Inactive)
    1  A    between atoms: C_11  and  O_28
    2  A    between atoms: O_28  and  C_30
                            x       y       z     vdW  Elec       q    Type
                         _______ _______ _______ _____ _____    ______ ____

>  <TORSDO>
F 2

$$$$
=
 OpenBabel11112416173D

 30 35  0  0  1  0  0  0  0  0999 V2000
  188.2410  175.9180  142.1450 C   0  0  0  0  0  0  0  0  0  0  0  0
  186.6120  177.0120  140.5700 C   0  0  0  0  0  0  0  0  0  0  0  0
  186.6700  178.1060  145.3780 N   0  0  0  0  0  2  0  0  0  0  0  0
  188.7510  175.7830  143.4730 C   0  0  0  0  0  0  0  0  0  0  0  0
  188.8080  175.1330  141.1320 C   0  0  0  0  0  3  0  0  0  0  0  0
  191.4070  173.2400  142.9250 O   0  0  0  0  0  1  0  0  0  0  0  0
  190.9090  176.1100  145.6830 C   0  0  1  0  0  3  0  0  0  0  0  0
  190.3600  174.1250  142.6810 C   0  0  0  0  0  0  0  0  0  0  0  0
  189.8500  176.9920  146.2280 N   0  0  2  0  0  0  0  0  0  0  0  0
  187.4600  177.5600  146.4250 C   0  0  0  0  0  0  0  0  0  0  0  0
  189.8560  174.2440  141.3850 C   0  0  0  0  0  0  0  0  0  0  0  0
  189.8240  174.8920  143.7300 C   0  0  0  0  0  0  0  0  0  0  0  0
  185.5700  177.9220  140.3720 C   0  0  0  0  0  3  0  0  0  0  0  0
  190.0810  177.0140  147.6690 C   0  0  0  0  0  2  0  0  0  0  0  0
  191.9580  175.8890  146.7560 C   0  0  0  0  0  2  0  0  0  0  0  0
  187.0680  176.3070  139.4620 O   0  0  0  0  0  1  0  0  0  0  0  0
  187.1490  177.4440  144.2180 C   0  0  0  0  0  0  0  0  0  0  0  0
  185.0610  178.6650  141.4330 C   0  0  0  0  0  3  0  0  0  0  0  0
  187.1740  176.8320  141.8670 C   0  0  0  0  0  0  0  0  0  0  0  0
  188.1760  176.5650  144.4880 C   0  0  0  0  0  0  0  0  0  0  0  0
  187.2830  177.8750  147.6310 O   0  0  0  0  0  0  0  0  0  0  0  0
  188.4720  176.5440  145.9590 C   0  0  1  0  0  3  0  0  0  0  0  0
  191.5540  176.7870  147.8910 C   0  0  0  0  0  2  0  0  0  0  0  0
  189.6920  173.8470  146.0270 C   0  0  0  0  0  1  0  0  0  0  0  0
  185.5880  178.5050  142.7100 C   0  0  0  0  0  3  0  0  0  0  0  0
  186.6310  177.6000  142.9360 C   0  0  0  0  0  0  0  0  0  0  0  0
  190.4660  174.7600  145.0840 C   0  0  2  0  0  3  0  0  0  0  0  0
  190.4200  173.4800  140.3580 O   0  0  0  0  0  0  0  0  0  0  0  0
  190.7280  171.1140  140.1670 C   0  0  0  0  0  1  0  0  0  0  0  0
  189.8240  172.2900  139.8640 C   0  0  0  0  0  2  0  0  0  0  0  0
  1  4  1  0  0  0  0
  2 19  1  0  0  0  0
  3 10  1  0  0  0  0
  4 12  1  0  0  0  0
  4 20  2  0  0  0  0
  5 11  2  0  0  0  0
  5  1  1  0  0  0  0
  7  9  1  0  0  0  0
  7 15  1  1  0  0  0
  8  6  1  0  0  0  0
  8 12  2  0  0  0  0
  9 14  1  1  0  0  0
 10 21  2  0  0  0  0
 11  8  1  0  0  0  0
 12 27  1  0  0  0  0
 13  2  2  0  0  0  0
 13 18  1  0  0  0  0
 14 23  1  0  0  0  0
 15 23  1  0  0  0  0
 16  2  1  0  0  0  0
 17 20  1  0  0  0  0
 17  3  1  0  0  0  0
 18 25  2  0  0  0  0
 19  1  2  0  0  0  0
 19 26  1  0  0  0  0
 22 20  1  6  0  0  0
 22  9  1  0  0  0  0
 22 10  1  0  0  0  0
 25 26  1  0  0  0  0
 26 17  2  0  0  0  0
 27  7  1  0  0  0  0
 27 24  1  1  0  0  0
 28 11  1  0  0  0  0
 30 29  1  0  0  0  0
 30 28  1  0  0  0  0
M  END
>  <MODEL>
7

>  <REMARK>
 VINA RESULT:      -7.9      2.037      5.562
  Name = 
  2 active torsions:
  status: ('A' for Active; 'I' for Inactive)
    1  A    between atoms: C_11  and  O_28
    2  A    between atoms: O_28  and  C_30
                            x       y       z     vdW  Elec       q    Type
                         _______ _______ _______ _____ _____    ______ ____

>  <TORSDO>
F 2

$$$$
=
 OpenBabel11112416173D

 30 35  0  0  1  0  0  0  0  0999 V2000
  190.3380  174.7210  143.9520 C   0  0  0  0  0  0  0  0  0  0  0  0
  192.5410  173.5200  144.1420 C   0  0  0  0  0  0  0  0  0  0  0  0
  191.1430  176.8740  147.4760 N   0  0  0  0  0  2  0  0  0  0  0  0
  189.4170  175.6730  144.4870 C   0  0  0  0  0  0  0  0  0  0  0  0
  189.9990  174.0650  142.7610 C   0  0  0  0  0  3  0  0  0  0  0  0
  186.6880  175.4670  141.9720 O   0  0  0  0  0  1  0  0  0  0  0  0
  186.7560  176.5330  145.8380 C   0  0  1  0  0  3  0  0  0  0  0  0
  187.8900  175.2320  142.6330 C   0  0  0  0  0  0  0  0  0  0  0  0
  187.7190  176.9410  146.8880 N   0  0  2  0  0  0  0  0  0  0  0  0
  189.9820  177.6910  147.5110 C   0  0  0  0  0  0  0  0  0  0  0  0
  188.7920  174.3090  142.1000 C   0  0  0  0  0  0  0  0  0  0  0  0
  188.1850  175.9130  143.8270 C   0  0  0  0  0  0  0  0  0  0  0  0
  193.7290  173.3080  144.8480 C   0  0  0  0  0  3  0  0  0  0  0  0
  187.0500  178.0120  147.6190 C   0  0  0  0  0  2  0  0  0  0  0  0
  185.3990  177.1280  146.1650 C   0  0  0  0  0  2  0  0  0  0  0  0
  192.3490  172.7900  142.9740 O   0  0  0  0  0  1  0  0  0  0  0  0
  190.9530  176.0740  146.3200 C   0  0  0  0  0  0  0  0  0  0  0  0
  193.9910  174.0010  146.0260 C   0  0  0  0  0  3  0  0  0  0  0  0
  191.5740  174.4510  144.6220 C   0  0  0  0  0  0  0  0  0  0  0  0
  189.7630  176.3350  145.6770 C   0  0  0  0  0  0  0  0  0  0  0  0
  189.8170  178.5820  148.3860 O   0  0  0  0  0  0  0  0  0  0  0  0
  189.0160  177.4270  146.3850 C   0  0  1  0  0  3  0  0  0  0  0  0
  185.5660  177.7700  147.5130 C   0  0  0  0  0  2  0  0  0  0  0  0
  187.4050  178.3050  144.0610 C   0  0  0  0  0  1  0  0  0  0  0  0
  193.0660  174.9180  146.5140 C   0  0  0  0  0  3  0  0  0  0  0  0
  191.8700  175.1500  145.8260 C   0  0  0  0  0  0  0  0  0  0  0  0
  187.1340  176.8380  144.3750 C   0  0  2  0  0  3  0  0  0  0  0  0
  188.4630  173.6350  140.9200 O   0  0  0  0  0  0  0  0  0  0  0  0
  188.1980  173.2480  138.5720 C   0  0  0  0  0  1  0  0  0  0  0  0
  188.9020  174.0620  139.6380 C   0  0  0  0  0  2  0  0  0  0  0  0
  1  4  1  0  0  0  0
  1 19  1  0  0  0  0
  2 19  2  0  0  0  0
  2 13  1  0  0  0  0
  3 10  1  0  0  0  0
  4 20  1  0  0  0  0
  5  1  2  0  0  0  0
  6  8  1  0  0  0  0
  7 15  1  1  0  0  0
  7  9  1  0  0  0  0
  8 12  1  0  0  0  0
  9 14  1  6  0  0  0
 10 21  2  0  0  0  0
 11  8  2  0  0  0  0
 11  5  1  0  0  0  0
 12 27  1  0  0  0  0
 12  4  2  0  0  0  0
 13 18  2  0  0  0  0
 15 23  1  0  0  0  0
 16  2  1  0  0  0  0
 17  3  1  0  0  0  0
 18 25  1  0  0  0  0
 19 26  1  0  0  0  0
 20 17  2  0  0  0  0
 22 20  1  6  0  0  0
 22  9  1  0  0  0  0
 22 10  1  0  0  0  0
 23 14  1  0  0  0  0
 26 17  1  0  0  0  0
 26 25  2  0  0  0  0
 27 24  1  1  0  0  0
 27  7  1  0  0  0  0
 28 11  1  0  0  0  0
 29 30  1  0  0  0  0
 30 28  1  0  0  0  0
M  END
>  <MODEL>
8

>  <REMARK>
 VINA RESULT:      -7.7      2.677      7.107
  Name = 
  2 active torsions:
  status: ('A' for Active; 'I' for Inactive)
    1  A    between atoms: C_11  and  O_28
    2  A    between atoms: O_28  and  C_30
                            x       y       z     vdW  Elec       q    Type
                         _______ _______ _______ _____ _____    ______ ____

>  <TORSDO>
F 2

$$$$
=
 OpenBabel11112416173D

 30 35  0  0  1  0  0  0  0  0999 V2000
  189.0250  175.4380  143.2610 C   0  0  0  0  0  0  0  0  0  0  0  0
  186.9120  176.4160  144.2140 C   0  0  0  0  0  0  0  0  0  0  0  0
  191.2210  176.8050  146.5800 N   0  0  0  0  0  2  0  0  0  0  0  0
  190.4310  175.2150  143.3850 C   0  0  0  0  0  0  0  0  0  0  0  0
  188.3690  174.9280  142.1330 C   0  0  0  0  0  3  0  0  0  0  0  0
  191.1000  173.3280  140.2530 O   0  0  0  0  0  1  0  0  0  0  0  0
  193.4060  175.6290  142.5930 C   0  0  1  0  0  3  0  0  0  0  0  0
  190.4260  174.0230  141.2540 C   0  0  0  0  0  0  0  0  0  0  0  0
  193.4220  176.2070  143.9580 N   0  0  2  0  0  0  0  0  0  0  0  0
  192.4950  176.2770  146.2400 C   0  0  0  0  0  0  0  0  0  0  0  0
  189.0500  174.2270  141.1340 C   0  0  0  0  0  0  0  0  0  0  0  0
  191.1290  174.5170  142.3670 C   0  0  0  0  0  0  0  0  0  0  0  0
  186.2820  177.1290  145.2370 C   0  0  0  0  0  3  0  0  0  0  0  0
  194.8030  176.0670  144.4120 C   0  0  0  0  0  2  0  0  0  0  0  0
  194.8370  175.4610  142.1190 C   0  0  0  0  0  2  0  0  0  0  0  0
  186.1220  175.9750  143.1580 O   0  0  0  0  0  1  0  0  0  0  0  0
  190.3980  176.4180  145.4900 C   0  0  0  0  0  0  0  0  0  0  0  0
  187.0060  177.6030  146.3260 C   0  0  0  0  0  3  0  0  0  0  0  0
  188.3130  176.1630  144.2700 C   0  0  0  0  0  0  0  0  0  0  0  0
  191.0850  175.7210  144.5200 C   0  0  0  0  0  0  0  0  0  0  0  0
  193.4880  176.3780  147.0090 O   0  0  0  0  0  0  0  0  0  0  0  0
  192.5210  175.5480  144.9210 C   0  0  1  0  0  3  0  0  0  0  0  0
  195.6820  176.0960  143.1880 C   0  0  0  0  0  2  0  0  0  0  0  0
  193.0540  173.1510  143.2680 C   0  0  0  0  0  1  0  0  0  0  0  0
  188.3740  177.3670  146.4080 C   0  0  0  0  0  3  0  0  0  0  0  0
  189.0290  176.6540  145.3980 C   0  0  0  0  0  0  0  0  0  0  0  0
  192.6200  174.3190  142.3900 C   0  0  2  0  0  3  0  0  0  0  0  0
  188.3820  173.7380  140.0070 O   0  0  0  0  0  0  0  0  0  0  0  0
  188.8000  173.7930  137.6510 C   0  0  0  0  0  1  0  0  0  0  0  0
  188.1820  174.5110  138.8330 C   0  0  0  0  0  2  0  0  0  0  0  0
  1  4  1  0  0  0  0
  1 19  1  0  0  0  0
  2 19  2  0  0  0  0
  2 13  1  0  0  0  0
  4 20  1  0  0  0  0
  5  1  2  0  0  0  0
  6  8  1  0  0  0  0
  7 15  1  1  0  0  0
  7  9  1  0  0  0  0
  8 12  1  0  0  0  0
  9 14  1  1  0  0  0
  9 22  1  0  0  0  0
 10  3  1  0  0  0  0
 10 21  2  0  0  0  0
 11  8  2  0  0  0  0
 11  5  1  0  0  0  0
 12 27  1  0  0  0  0
 12  4  2  0  0  0  0
 13 18  2  0  0  0  0
 15 23  1  0  0  0  0
 16  2  1  0  0  0  0
 17  3  1  0  0  0  0
 18 25  1  0  0  0  0
 19 26  1  0  0  0  0
 20 17  2  0  0  0  0
 22 20  1  6  0  0  0
 22 10  1  0  0  0  0
 23 14  1  0  0  0  0
 26 17  1  0  0  0  0
 26 25  2  0  0  0  0
 27  7  1  0  0  0  0
 27 24  1  1  0  0  0
 28 11  1  0  0  0  0
 29 30  1  0  0  0  0
 30 28  1  0  0  0  0
M  END
>  <MODEL>
9

>  <REMARK>
 VINA RESULT:      -7.7      3.047      5.870
  Name = 
  2 active torsions:
  status: ('A' for Active; 'I' for Inactive)
    1  A    between atoms: C_11  and  O_28
    2  A    between atoms: O_28  and  C_30
                            x       y       z     vdW  Elec       q    Type
                         _______ _______ _______ _____ _____    ______ ____

>  <TORSDO>
F 2

$$$$
