=
 OpenBabel11112417193D

 37 44  0  0  1  0  0  0  0  0999 V2000
  190.2610  174.2210  140.7230 C   0  0  0  0  0  2  0  0  0  0  0  0
  187.1120  176.9720  143.1300 C   0  0  0  0  0  0  0  0  0  0  0  0
  190.5040  175.5010  145.1670 C   0  0  0  0  0  0  0  0  0  0  0  0
  189.8740  173.3700  139.5990 N   0  0  0  0  0  0  0  0  0  0  0  0
  192.4820  172.4950  143.7980 C   0  0  0  0  0  2  0  0  0  0  0  0
  188.5210  176.9280  145.2540 C   0  0  0  0  0  0  0  0  0  0  0  0
  190.9660  174.5100  144.2980 C   0  0  0  0  0  0  0  0  0  0  0  0
  191.9680  172.0910  139.9750 C   0  0  1  0  0  3  0  0  0  0  0  0
  189.2660  175.9520  144.6450 C   0  0  0  0  0  0  0  0  0  0  0  0
  192.2040  173.7590  144.4950 N   0  0  0  0  0  0  0  0  0  0  0  0
  188.9940  177.4600  146.4200 N   0  0  0  0  0  2  0  0  0  0  0  0
  190.6230  172.1610  139.2550 C   0  0  0  0  0  2  0  0  0  0  0  0
  188.9750  175.3130  143.4920 C   0  0  0  0  0  0  0  0  0  0  0  0
  187.8540  178.0420  142.3470 C   0  0  0  0  0  1  0  0  0  0  0  0
  192.3280  175.7150  146.9240 C   0  0  0  0  0  2  0  0  0  0  0  0
  190.1920  177.0610  146.9650 C   0  0  0  0  0  3  0  0  0  0  0  0
  187.6900  175.5770  142.7610 C   0  0  0  0  0  2  0  0  0  0  0  0
  191.8590  171.5700  141.4090 C   0  0  1  0  0  3  0  0  0  0  0  0
  192.2190  172.7040  142.3410 C   0  0  1  0  0  3  0  0  0  0  0  0
  190.9830  176.0570  146.3580 C   0  0  0  0  0  0  0  0  0  0  0  0
  189.9970  174.3990  143.2420 C   0  0  0  0  0  0  0  0  0  0  0  0
  187.1920  177.3000  144.6500 C   0  0  0  0  0  2  0  0  0  0  0  0
  193.1890  174.2960  145.4500 C   0  0  1  0  0  3  0  0  0  0  0  0
  185.6580  177.0090  142.7100 C   0  0  0  0  0  1  0  0  0  0  0  0
  190.7870  172.2220  142.2830 C   0  0  1  0  0  3  0  0  0  0  0  0
  192.8330  171.2690  139.2550 O   0  0  0  0  0  1  0  0  0  0  0  0
  189.9800  173.4890  142.0320 C   0  0  2  0  0  3  0  0  0  0  0  0
  192.6290  174.3620  146.7320 O   0  0  0  0  0  0  0  0  0  0  0  0
  187.9240  174.6490  139.1580 N   0  0  0  0  0  2  0  0  0  0  0  0
  188.6670  173.6280  138.8780 C   0  0  0  0  0  3  0  0  0  0  0  0
  195.6780  174.2460  145.1690 C   0  0  0  0  0  3  0  0  0  0  0  0
  194.4980  173.5580  145.4700 C   0  0  0  0  0  0  0  0  0  0  0  0
  194.5480  172.1830  145.7450 C   0  0  0  0  0  3  0  0  0  0  0  0
  195.8310  169.7950  146.0760 Cl  0  0  0  0  0  0  0  0  0  0  0  0
  196.9500  172.2040  145.4360 C   0  0  0  0  0  3  0  0  0  0  0  0
  195.7730  171.5100  145.7300 C   0  0  0  0  0  0  0  0  0  0  0  0
  196.9020  173.5720  145.1550 C   0  0  0  0  0  3  0  0  0  0  0  0
  1 27  1  0  0  0  0
  2 22  1  0  0  0  0
  3 20  1  0  0  0  0
  4  1  1  0  0  0  0
  5 10  1  0  0  0  0
  6 11  1  0  0  0  0
  7 10  1  0  0  0  0
  7  3  2  0  0  0  0
  8 26  1  6  0  0  0
  8 18  1  0  0  0  0
  9  3  1  0  0  0  0
  9  6  2  0  0  0  0
 10 23  1  0  0  0  0
 11 16  1  0  0  0  0
 12  4  1  0  0  0  0
 12  8  1  0  0  0  0
 13  9  1  0  0  0  0
 14  2  1  0  0  0  0
 17  2  1  0  0  0  0
 17 13  1  0  0  0  0
 18 25  1  0  0  0  0
 18 19  1  0  0  0  0
 19  5  1  0  0  0  0
 20 15  1  0  0  0  0
 20 16  2  0  0  0  0
 21 13  2  0  0  0  0
 21  7  1  0  0  0  0
 22  6  1  0  0  0  0
 23 32  1  0  0  0  0
 23 28  1  0  0  0  0
 24  2  1  0  0  0  0
 25 19  1  0  0  0  0
 27 25  1  0  0  0  0
 27 21  1  0  0  0  0
 28 15  1  0  0  0  0
 30 29  2  0  0  0  0
 30  4  1  0  0  0  0
 31 32  1  0  0  0  0
 32 33  2  0  0  0  0
 35 36  2  0  0  0  0
 36 33  1  0  0  0  0
 36 34  1  0  0  0  0
 37 31  2  0  0  0  0
 37 35  1  0  0  0  0
M  END
>  <MODEL>
1

>  <REMARK>
 VINA RESULT:      -8.8      0.000      0.000
  Name = 
  1 active torsions:
  status: ('A' for Active; 'I' for Inactive)
    1  A    between atoms: C_23  and  C_30
                            x       y       z     vdW  Elec       q    Type
                         _______ _______ _______ _____ _____    ______ ____

>  <TORSDO>
F 1

$$$$
=
 OpenBabel11112417193D

 37 44  0  0  1  0  0  0  0  0999 V2000
  191.1550  172.3650  142.1930 C   0  0  0  0  0  2  0  0  0  0  0  0
  195.4840  173.1300  144.1800 C   0  0  0  0  0  0  0  0  0  0  0  0
  192.2900  175.6910  145.2080 C   0  0  0  0  0  0  0  0  0  0  0  0
  190.9830  171.7650  140.8710 N   0  0  0  0  0  0  0  0  0  0  0  0
  189.1580  175.9370  142.9830 C   0  0  0  0  0  2  0  0  0  0  0  0
  194.6160  175.0550  145.6080 C   0  0  0  0  0  0  0  0  0  0  0  0
  191.3450  175.3990  144.2220 C   0  0  0  0  0  0  0  0  0  0  0  0
  188.7020  172.7420  140.8320 C   0  0  1  0  0  3  0  0  0  0  0  0
  193.4720  174.9920  144.8570 C   0  0  0  0  0  0  0  0  0  0  0  0
  189.9940  175.9530  144.1930 N   0  0  0  0  0  0  0  0  0  0  0  0
  194.6070  175.8440  146.7230 N   0  0  0  0  0  2  0  0  0  0  0  0
  189.8090  172.0450  140.0440 C   0  0  0  0  0  2  0  0  0  0  0  0
  193.2800  174.2680  143.7340 C   0  0  0  0  0  0  0  0  0  0  0  0
  195.0130  171.9520  145.0160 C   0  0  0  0  0  1  0  0  0  0  0  0
  191.0560  177.1800  146.8580 C   0  0  0  0  0  2  0  0  0  0  0  0
  193.4850  176.5380  147.1110 C   0  0  0  0  0  3  0  0  0  0  0  0
  194.3960  173.4720  143.1230 C   0  0  0  0  0  2  0  0  0  0  0  0
  188.9170  174.2500  140.9710 C   0  0  1  0  0  3  0  0  0  0  0  0
  189.1710  174.5480  142.4300 C   0  0  1  0  0  3  0  0  0  0  0  0
  192.2890  176.4910  146.3560 C   0  0  0  0  0  0  0  0  0  0  0  0
  191.9770  174.4990  143.2950 C   0  0  0  0  0  0  0  0  0  0  0  0
  195.8370  174.3190  145.1210 C   0  0  0  0  0  2  0  0  0  0  0  0
  189.4730  176.5650  145.4280 C   0  0  1  0  0  3  0  0  0  0  0  0
  196.7420  172.7110  143.4480 C   0  0  0  0  0  1  0  0  0  0  0  0
  190.3040  174.6920  141.4390 C   0  0  1  0  0  3  0  0  0  0  0  0
  187.4770  172.5110  140.2070 O   0  0  0  0  0  1  0  0  0  0  0  0
  191.4290  173.8580  142.0380 C   0  0  2  0  0  3  0  0  0  0  0  0
  190.2730  177.6520  145.7990 O   0  0  0  0  0  0  0  0  0  0  0  0
  193.1190  170.7330  140.9400 N   0  0  0  0  0  2  0  0  0  0  0  0
  192.0290  170.9820  140.2900 C   0  0  0  0  0  3  0  0  0  0  0  0
  187.0960  176.2850  146.1650 C   0  0  0  0  0  3  0  0  0  0  0  0
  188.0240  176.9570  145.3620 C   0  0  0  0  0  0  0  0  0  0  0  0
  187.5850  177.9550  144.4800 C   0  0  0  0  0  3  0  0  0  0  0  0
  185.6850  179.5330  143.3140 Cl  0  0  0  0  0  0  0  0  0  0  0  0
  185.3050  177.6160  145.2240 C   0  0  0  0  0  3  0  0  0  0  0  0
  186.2290  178.2850  144.4140 C   0  0  0  0  0  0  0  0  0  0  0  0
  185.7390  176.6160  146.0980 C   0  0  0  0  0  3  0  0  0  0  0  0
  2 14  1  0  0  0  0
  2 22  1  0  0  0  0
  3 20  1  0  0  0  0
  4  1  1  0  0  0  0
  5 10  1  0  0  0  0
  6 11  1  0  0  0  0
  7  3  2  0  0  0  0
  8 26  1  6  0  0  0
  8 18  1  0  0  0  0
  9  3  1  0  0  0  0
  9  6  2  0  0  0  0
 10  7  1  0  0  0  0
 10 23  1  0  0  0  0
 11 16  1  0  0  0  0
 12  8  1  0  0  0  0
 12  4  1  0  0  0  0
 13  9  1  0  0  0  0
 17 13  1  0  0  0  0
 17  2  1  0  0  0  0
 18 25  1  0  0  0  0
 18 19  1  0  0  0  0
 19  5  1  0  0  0  0
 20 15  1  0  0  0  0
 20 16  2  0  0  0  0
 21 13  2  0  0  0  0
 21  7  1  0  0  0  0
 22  6  1  0  0  0  0
 23 28  1  0  0  0  0
 24  2  1  0  0  0  0
 25 27  1  0  0  0  0
 25 19  1  0  0  0  0
 27  1  1  0  0  0  0
 27 21  1  0  0  0  0
 28 15  1  0  0  0  0
 30  4  1  0  0  0  0
 30 29  2  0  0  0  0
 32 23  1  0  0  0  0
 32 31  2  0  0  0  0
 33 32  1  0  0  0  0
 34 36  1  0  0  0  0
 35 37  2  0  0  0  0
 36 33  2  0  0  0  0
 36 35  1  0  0  0  0
 37 31  1  0  0  0  0
M  END
>  <MODEL>
2

>  <REMARK>
 VINA RESULT:      -8.7      3.110      6.746
  Name = 
  1 active torsions:
  status: ('A' for Active; 'I' for Inactive)
    1  A    between atoms: C_23  and  C_30
                            x       y       z     vdW  Elec       q    Type
                         _______ _______ _______ _____ _____    ______ ____

>  <TORSDO>
F 1

$$$$
=
 OpenBabel11112417193D

 37 44  0  0  1  0  0  0  0  0999 V2000
  194.1800  175.8810  143.1100 C   0  0  0  0  0  2  0  0  0  0  0  0
  193.6850  173.2490  139.0970 C   0  0  0  0  0  0  0  0  0  0  0  0
  190.2270  174.3270  141.2660 C   0  0  0  0  0  0  0  0  0  0  0  0
  195.3710  175.8240  143.9560 N   0  0  0  0  0  0  0  0  0  0  0  0
  190.4660  175.4300  144.9460 C   0  0  0  0  0  2  0  0  0  0  0  0
  191.1410  173.2700  139.2600 C   0  0  0  0  0  0  0  0  0  0  0  0
  190.7610  174.7510  142.4850 C   0  0  1  0  0  3  0  0  0  0  0  0
  194.0000  176.7910  145.7850 C   0  0  1  0  0  3  0  0  0  0  0  0
  191.3040  173.7910  140.5170 C   0  0  0  0  0  0  0  0  0  0  0  0
  189.9710  175.3370  143.5650 N   0  0  1  0  0  0  0  0  0  0  0  0
  189.8810  173.2550  138.7320 N   0  0  0  0  0  0  0  0  0  0  0  0
  195.3170  176.1270  145.3860 C   0  0  0  0  0  2  0  0  0  0  0  0
  192.4620  173.9020  141.2030 C   0  0  0  0  0  0  0  0  0  0  0  0
  193.9190  174.6210  138.4870 C   0  0  0  0  0  1  0  0  0  0  0  0
  187.7660  174.9510  141.3900 C   0  0  0  0  0  2  0  0  0  0  0  0
  188.8030  173.7680  139.4150 C   0  0  0  0  0  3  0  0  0  0  0  0
  193.7480  173.3630  140.6470 C   0  0  0  0  0  2  0  0  0  0  0  0
  192.8590  175.7930  145.9910 C   0  0  1  0  0  3  0  0  0  0  0  0
  191.8340  176.0320  144.9070 C   0  0  1  0  0  3  0  0  0  0  0  0
  188.9410  174.3130  140.7140 C   0  0  0  0  0  0  0  0  0  0  0  0
  192.1720  174.4810  142.4370 C   0  0  0  0  0  0  0  0  0  0  0  0
  192.3390  172.6740  138.5670 C   0  0  0  0  0  2  0  0  0  0  0  0
  188.6200  175.8300  143.2420 C   0  0  1  0  0  3  0  0  0  0  0  0
  194.8050  172.3380  138.6420 C   0  0  0  0  0  1  0  0  0  0  0  0
  192.6560  174.7620  144.8790 C   0  0  1  0  0  3  0  0  0  0  0  0
  194.1890  177.5180  146.9580 O   0  0  0  0  0  1  0  0  0  0  0  0
  193.2440  174.7330  143.4760 C   0  0  2  0  0  3  0  0  0  0  0  0
  187.8240  174.7760  142.7770 O   0  0  0  0  0  0  0  0  0  0  0  0
  196.7220  175.0010  142.1860 N   0  0  0  0  0  2  0  0  0  0  0  0
  196.6090  175.3380  143.4300 C   0  0  0  0  0  3  0  0  0  0  0  0
  188.0530  176.0730  145.6690 C   0  0  0  0  0  3  0  0  0  0  0  0
  187.9440  176.5650  144.3640 C   0  0  0  0  0  0  0  0  0  0  0  0
  187.1710  177.7090  144.1160 C   0  0  0  0  0  3  0  0  0  0  0  0
  185.5660  179.7910  144.8580 Cl  0  0  0  0  0  0  0  0  0  0  0  0
  186.6450  177.8710  146.4750 C   0  0  0  0  0  3  0  0  0  0  0  0
  186.5270  178.3620  145.1710 C   0  0  0  0  0  0  0  0  0  0  0  0
  187.4080  176.7270  146.7230 C   0  0  0  0  0  3  0  0  0  0  0  0
  1 27  1  0  0  0  0
  1  4  1  0  0  0  0
  2 17  1  0  0  0  0
  4 12  1  0  0  0  0
  6  9  1  0  0  0  0
  7  3  1  1  0  0  0
  7 10  1  0  0  0  0
  8 18  1  0  0  0  0
  8 26  1  1  0  0  0
  9 13  1  0  0  0  0
  9  3  2  0  0  0  0
 10  5  1  1  0  0  0
 11  6  2  0  0  0  0
 11 16  1  0  0  0  0
 12  8  1  0  0  0  0
 13 21  2  0  0  0  0
 14  2  1  0  0  0  0
 15 28  1  0  0  0  0
 16 20  2  0  0  0  0
 17 13  1  0  0  0  0
 19  5  1  0  0  0  0
 19 18  1  0  0  0  0
 20  3  1  0  0  0  0
 20 15  1  0  0  0  0
 21  7  1  0  0  0  0
 21 27  1  0  0  0  0
 22  2  1  0  0  0  0
 22  6  1  0  0  0  0
 23 10  1  0  0  0  0
 23 32  1  0  0  0  0
 24  2  1  0  0  0  0
 25 19  1  0  0  0  0
 25 18  1  0  0  0  0
 27 25  1  0  0  0  0
 28 23  1  0  0  0  0
 29 30  2  0  0  0  0
 30  4  1  0  0  0  0
 31 37  1  0  0  0  0
 32 31  2  0  0  0  0
 33 32  1  0  0  0  0
 33 36  2  0  0  0  0
 34 36  1  0  0  0  0
 35 37  2  0  0  0  0
 36 35  1  0  0  0  0
M  END
>  <MODEL>
3

>  <REMARK>
 VINA RESULT:      -8.4      3.344      7.720
  Name = 
  1 active torsions:
  status: ('A' for Active; 'I' for Inactive)
    1  A    between atoms: C_23  and  C_30
                            x       y       z     vdW  Elec       q    Type
                         _______ _______ _______ _____ _____    ______ ____

>  <TORSDO>
F 1

$$$$
=
 OpenBabel11112417193D

 37 44  0  0  1  0  0  0  0  0999 V2000
  193.2910  175.4530  144.0420 C   0  0  0  0  0  2  0  0  0  0  0  0
  193.2430  172.8350  139.9900 C   0  0  0  0  0  0  0  0  0  0  0  0
  189.6290  174.5280  141.3630 C   0  0  0  0  0  0  0  0  0  0  0  0
  194.2430  175.2200  145.1260 N   0  0  0  0  0  0  0  0  0  0  0  0
  189.2460  175.6740  145.0190 C   0  0  0  0  0  2  0  0  0  0  0  0
  190.7650  173.2820  139.5940 C   0  0  0  0  0  0  0  0  0  0  0  0
  189.9490  174.8900  142.6740 C   0  0  1  0  0  3  0  0  0  0  0  0
  192.6900  176.4500  146.6220 C   0  0  1  0  0  3  0  0  0  0  0  0
  190.7370  173.8010  140.8610 C   0  0  0  0  0  0  0  0  0  0  0  0
  189.0530  175.6280  143.5620 N   0  0  1  0  0  0  0  0  0  0  0  0
  189.6650  173.4630  138.8040 N   0  0  0  0  0  0  0  0  0  0  0  0
  193.9320  175.5670  146.5130 C   0  0  0  0  0  2  0  0  0  0  0  0
  191.7200  173.7360  141.7850 C   0  0  0  0  0  0  0  0  0  0  0  0
  193.8300  174.1320  139.4600 C   0  0  0  0  0  1  0  0  0  0  0  0
  187.3400  175.5560  140.9540 C   0  0  0  0  0  2  0  0  0  0  0  0
  188.5660  174.1660  139.2400 C   0  0  0  0  0  3  0  0  0  0  0  0
  192.9870  172.9770  141.5170 C   0  0  0  0  0  2  0  0  0  0  0  0
  191.3810  175.6610  146.5640 C   0  0  1  0  0  3  0  0  0  0  0  0
  190.6710  176.0380  145.2860 C   0  0  1  0  0  3  0  0  0  0  0  0
  188.5100  174.7140  140.5440 C   0  0  0  0  0  0  0  0  0  0  0  0
  191.2710  174.3880  142.9320 C   0  0  0  0  0  0  0  0  0  0  0  0
  191.9670  172.4780  139.1730 C   0  0  0  0  0  2  0  0  0  0  0  0
  187.9070  176.3290  142.9570 C   0  0  1  0  0  3  0  0  0  0  0  0
  194.2660  171.7380  139.7800 C   0  0  0  0  0  1  0  0  0  0  0  0
  191.2530  174.6500  145.4240 C   0  0  1  0  0  3  0  0  0  0  0  0
  192.7400  177.1670  147.8160 O   0  0  0  0  0  1  0  0  0  0  0  0
  192.1190  174.4860  144.1820 C   0  0  2  0  0  3  0  0  0  0  0  0
  187.0650  175.4110  142.3180 O   0  0  0  0  0  0  0  0  0  0  0  0
  195.7880  174.1380  143.6850 N   0  0  0  0  0  2  0  0  0  0  0  0
  195.4660  174.5220  144.8780 C   0  0  0  0  0  3  0  0  0  0  0  0
  186.6720  178.4430  143.4830 C   0  0  0  0  0  3  0  0  0  0  0  0
  187.1360  177.1960  143.9120 C   0  0  0  0  0  0  0  0  0  0  0  0
  186.9140  176.7910  145.2360 C   0  0  0  0  0  3  0  0  0  0  0  0
  185.9410  177.1140  147.7680 Cl  0  0  0  0  0  0  0  0  0  0  0  0
  185.7500  178.8670  145.6810 C   0  0  0  0  0  3  0  0  0  0  0  0
  186.2190  177.6240  146.1170 C   0  0  0  0  0  0  0  0  0  0  0  0
  185.9770  179.2760  144.3640 C   0  0  0  0  0  3  0  0  0  0  0  0
  1 27  1  0  0  0  0
  1  4  1  0  0  0  0
  2 17  1  0  0  0  0
  4 12  1  0  0  0  0
  5 19  1  0  0  0  0
  6  9  1  0  0  0  0
  7  3  1  1  0  0  0
  7 21  1  0  0  0  0
  7 10  1  0  0  0  0
  8 26  1  1  0  0  0
  9  3  2  0  0  0  0
  9 13  1  0  0  0  0
 10  5  1  1  0  0  0
 11 16  1  0  0  0  0
 11  6  2  0  0  0  0
 12  8  1  0  0  0  0
 13 21  2  0  0  0  0
 14  2  1  0  0  0  0
 15 28  1  0  0  0  0
 16 20  2  0  0  0  0
 17 13  1  0  0  0  0
 18  8  1  0  0  0  0
 19 25  1  0  0  0  0
 19 18  1  0  0  0  0
 20 15  1  0  0  0  0
 20  3  1  0  0  0  0
 21 27  1  0  0  0  0
 22  6  1  0  0  0  0
 22  2  1  0  0  0  0
 23 10  1  0  0  0  0
 23 32  1  0  0  0  0
 24  2  1  0  0  0  0
 25 18  1  0  0  0  0
 27 25  1  0  0  0  0
 28 23  1  0  0  0  0
 29 30  2  0  0  0  0
 30  4  1  0  0  0  0
 31 32  2  0  0  0  0
 31 37  1  0  0  0  0
 32 33  1  0  0  0  0
 33 36  2  0  0  0  0
 35 36  1  0  0  0  0
 36 34  1  0  0  0  0
 37 35  2  0  0  0  0
M  END
>  <MODEL>
4

>  <REMARK>
 VINA RESULT:      -8.3      2.923      7.820
  Name = 
  1 active torsions:
  status: ('A' for Active; 'I' for Inactive)
    1  A    between atoms: C_23  and  C_30
                            x       y       z     vdW  Elec       q    Type
                         _______ _______ _______ _____ _____    ______ ____

>  <TORSDO>
F 1

$$$$
=
 OpenBabel11112417193D

 37 44  0  0  1  0  0  0  0  0999 V2000
  187.2740  175.3820  140.2270 C   0  0  0  0  0  2  0  0  0  0  0  0
  191.1960  172.6100  140.6840 C   0  0  0  0  0  0  0  0  0  0  0  0
  189.7410  174.6550  144.0780 C   0  0  0  0  0  0  0  0  0  0  0  0
  186.9170  176.0530  138.9780 N   0  0  0  0  0  0  0  0  0  0  0  0
  187.3820  177.6750  143.7060 C   0  0  0  0  0  2  0  0  0  0  0  0
  191.3530  173.0460  143.1910 C   0  0  0  0  0  0  0  0  0  0  0  0
  188.8630  175.5830  143.5130 C   0  0  0  0  0  0  0  0  0  0  0  0
  185.4930  177.5810  140.3200 C   0  0  1  0  0  3  0  0  0  0  0  0
  190.4070  174.0180  143.0010 C   0  0  0  0  0  0  0  0  0  0  0  0
  188.0060  176.4770  144.2870 N   0  0  0  0  0  0  0  0  0  0  0  0
  191.6710  172.7040  144.4740 N   0  0  0  0  0  2  0  0  0  0  0  0
  186.1310  177.2870  138.9640 C   0  0  0  0  0  2  0  0  0  0  0  0
  189.9520  174.4860  141.8180 C   0  0  0  0  0  0  0  0  0  0  0  0
  190.1160  171.5410  140.6720 C   0  0  0  0  0  1  0  0  0  0  0  0
  189.3420  174.8370  146.5820 C   0  0  0  0  0  2  0  0  0  0  0  0
  191.0500  173.2870  145.5550 C   0  0  0  0  0  3  0  0  0  0  0  0
  190.5330  174.0070  140.5200 C   0  0  0  0  0  2  0  0  0  0  0  0
  186.4520  178.2480  141.3070 C   0  0  1  0  0  3  0  0  0  0  0  0
  186.7110  177.2740  142.4320 C   0  0  1  0  0  3  0  0  0  0  0  0
  190.0680  174.2930  145.3900 C   0  0  0  0  0  0  0  0  0  0  0  0
  189.0010  175.4690  142.0860 C   0  0  0  0  0  0  0  0  0  0  0  0
  192.0430  172.4690  141.9820 C   0  0  0  0  0  2  0  0  0  0  0  0
  187.7880  176.1610  145.7100 C   0  0  1  0  0  3  0  0  0  0  0  0
  192.1020  172.3720  139.4950 C   0  0  0  0  0  1  0  0  0  0  0  0
  187.8250  177.5920  141.4610 C   0  0  1  0  0  3  0  0  0  0  0  0
  184.3810  178.4010  140.1380 O   0  0  0  0  0  1  0  0  0  0  0  0
  188.2980  176.2270  140.9800 C   0  0  2  0  0  3  0  0  0  0  0  0
  189.0060  176.1830  146.3990 O   0  0  0  0  0  0  0  0  0  0  0  0
  188.1870  174.5340  137.6700 N   0  0  0  0  0  2  0  0  0  0  0  0
  187.4410  175.5890  137.7320 C   0  0  0  0  0  3  0  0  0  0  0  0
  185.4070  176.7690  146.1940 C   0  0  0  0  0  3  0  0  0  0  0  0
  186.7670  177.0300  146.3880 C   0  0  0  0  0  0  0  0  0  0  0  0
  187.1580  178.1220  147.1770 C   0  0  0  0  0  3  0  0  0  0  0  0
  186.6840  180.2950  148.7630 Cl  0  0  0  0  0  0  0  0  0  0  0  0
  184.8330  178.6660  147.5850 C   0  0  0  0  0  3  0  0  0  0  0  0
  186.1920  178.9350  147.7770 C   0  0  0  0  0  0  0  0  0  0  0  0
  184.4410  177.5830  146.7930 C   0  0  0  0  0  3  0  0  0  0  0  0
  1 27  1  0  0  0  0
  2 22  1  0  0  0  0
  3 20  1  0  0  0  0
  4  1  1  0  0  0  0
  5 10  1  0  0  0  0
  6 11  1  0  0  0  0
  7  3  2  0  0  0  0
  7 10  1  0  0  0  0
  8 26  1  6  0  0  0
  8 18  1  0  0  0  0
  9  6  2  0  0  0  0
  9  3  1  0  0  0  0
 10 23  1  0  0  0  0
 11 16  1  0  0  0  0
 12  4  1  0  0  0  0
 12  8  1  0  0  0  0
 13 21  2  0  0  0  0
 13  9  1  0  0  0  0
 14  2  1  0  0  0  0
 17  2  1  0  0  0  0
 17 13  1  0  0  0  0
 18 25  1  0  0  0  0
 18 19  1  0  0  0  0
 19  5  1  0  0  0  0
 20 16  2  0  0  0  0
 20 15  1  0  0  0  0
 21  7  1  0  0  0  0
 22  6  1  0  0  0  0
 23 32  1  0  0  0  0
 23 28  1  0  0  0  0
 24  2  1  0  0  0  0
 25 19  1  0  0  0  0
 27 25  1  0  0  0  0
 27 21  1  0  0  0  0
 28 15  1  0  0  0  0
 29 30  2  0  0  0  0
 30  4  1  0  0  0  0
 31 32  2  0  0  0  0
 31 37  1  0  0  0  0
 32 33  1  0  0  0  0
 33 36  2  0  0  0  0
 35 36  1  0  0  0  0
 36 34  1  0  0  0  0
 37 35  2  0  0  0  0
M  END
>  <MODEL>
5

>  <REMARK>
 VINA RESULT:      -8.3      3.758      7.219
  Name = 
  1 active torsions:
  status: ('A' for Active; 'I' for Inactive)
    1  A    between atoms: C_23  and  C_30
                            x       y       z     vdW  Elec       q    Type
                         _______ _______ _______ _____ _____    ______ ____

>  <TORSDO>
F 1

$$$$
=
 OpenBabel11112417193D

 37 44  0  0  1  0  0  0  0  0999 V2000
  187.9110  176.3260  140.9070 C   0  0  0  0  0  2  0  0  0  0  0  0
  185.0740  178.6950  144.0070 C   0  0  0  0  0  0  0  0  0  0  0  0
  188.2550  176.3710  145.5240 C   0  0  0  0  0  0  0  0  0  0  0  0
  187.4410  175.8450  139.6080 N   0  0  0  0  0  0  0  0  0  0  0  0
  189.8900  173.6210  143.3830 C   0  0  0  0  0  2  0  0  0  0  0  0
  186.4490  177.9410  146.0180 C   0  0  0  0  0  0  0  0  0  0  0  0
  188.6100  175.5940  144.4190 C   0  0  0  0  0  0  0  0  0  0  0  0
  189.3710  174.2840  139.5980 C   0  0  1  0  0  3  0  0  0  0  0  0
  187.0820  177.0800  145.1620 C   0  0  0  0  0  0  0  0  0  0  0  0
  189.7510  174.6830  144.3900 N   0  0  0  0  0  0  0  0  0  0  0  0
  186.9670  178.0950  147.2720 N   0  0  0  0  0  2  0  0  0  0  0  0
  188.0500  174.6910  138.9480 C   0  0  0  0  0  2  0  0  0  0  0  0
  186.7320  176.7990  143.8890 C   0  0  0  0  0  0  0  0  0  0  0  0
  185.9410  179.8400  143.5130 C   0  0  0  0  0  1  0  0  0  0  0  0
  190.0740  175.9140  147.2400 C   0  0  0  0  0  2  0  0  0  0  0  0
  188.1070  177.4360  147.6710 C   0  0  0  0  0  3  0  0  0  0  0  0
  185.4930  177.3870  143.2770 C   0  0  0  0  0  2  0  0  0  0  0  0
  189.1890  173.4240  140.8490 C   0  0  1  0  0  3  0  0  0  0  0  0
  189.6670  174.2290  142.0360 C   0  0  1  0  0  3  0  0  0  0  0  0
  188.7840  176.5410  146.8090 C   0  0  0  0  0  0  0  0  0  0  0  0
  187.6440  175.8710  143.3900 C   0  0  0  0  0  0  0  0  0  0  0  0
  185.1770  178.6050  145.5580 C   0  0  0  0  0  2  0  0  0  0  0  0
  190.7820  174.8380  145.4310 C   0  0  1  0  0  3  0  0  0  0  0  0
  183.6380  179.0030  143.6410 C   0  0  0  0  0  1  0  0  0  0  0  0
  188.1900  173.9440  141.8840 C   0  0  1  0  0  3  0  0  0  0  0  0
  190.1440  173.5850  138.6720 O   0  0  0  0  0  1  0  0  0  0  0  0
  187.5360  175.3150  141.9860 C   0  0  2  0  0  3  0  0  0  0  0  0
  190.2210  174.6330  146.6970 O   0  0  0  0  0  0  0  0  0  0  0  0
  185.6550  177.4060  139.5530 N   0  0  0  0  0  2  0  0  0  0  0  0
  186.2790  176.4160  139.0030 C   0  0  0  0  0  3  0  0  0  0  0  0
  191.8400  172.6660  144.7720 C   0  0  0  0  0  3  0  0  0  0  0  0
  191.9980  173.9770  145.2330 C   0  0  0  0  0  0  0  0  0  0  0  0
  193.2800  174.4540  145.5430 C   0  0  0  0  0  3  0  0  0  0  0  0
  195.9920  174.2280  145.7630 Cl  0  0  0  0  0  0  0  0  0  0  0  0
  194.2330  172.3200  144.9090 C   0  0  0  0  0  3  0  0  0  0  0  0
  194.3940  173.6270  145.3780 C   0  0  0  0  0  0  0  0  0  0  0  0
  192.9560  171.8390  144.6070 C   0  0  0  0  0  3  0  0  0  0  0  0
  1 27  1  0  0  0  0
  2 22  1  0  0  0  0
  3 20  1  0  0  0  0
  4  1  1  0  0  0  0
  5 10  1  0  0  0  0
  6 11  1  0  0  0  0
  7  3  2  0  0  0  0
  8 26  1  6  0  0  0
  8 18  1  0  0  0  0
  9  3  1  0  0  0  0
  9  6  2  0  0  0  0
 10  7  1  0  0  0  0
 10 23  1  0  0  0  0
 11 16  1  0  0  0  0
 12  8  1  0  0  0  0
 12  4  1  0  0  0  0
 13  9  1  0  0  0  0
 14  2  1  0  0  0  0
 17 13  1  0  0  0  0
 17  2  1  0  0  0  0
 18 25  1  0  0  0  0
 18 19  1  0  0  0  0
 19  5  1  0  0  0  0
 20 15  1  0  0  0  0
 20 16  2  0  0  0  0
 21 13  2  0  0  0  0
 21  7  1  0  0  0  0
 22  6  1  0  0  0  0
 23 28  1  0  0  0  0
 24  2  1  0  0  0  0
 25 27  1  0  0  0  0
 25 19  1  0  0  0  0
 27 21  1  0  0  0  0
 28 15  1  0  0  0  0
 30 29  2  0  0  0  0
 30  4  1  0  0  0  0
 31 32  1  0  0  0  0
 32 23  1  0  0  0  0
 32 33  2  0  0  0  0
 35 36  2  0  0  0  0
 36 33  1  0  0  0  0
 36 34  1  0  0  0  0
 37 31  2  0  0  0  0
 37 35  1  0  0  0  0
M  END
>  <MODEL>
6

>  <REMARK>
 VINA RESULT:      -8.2      1.994      3.015
  Name = 
  1 active torsions:
  status: ('A' for Active; 'I' for Inactive)
    1  A    between atoms: C_23  and  C_30
                            x       y       z     vdW  Elec       q    Type
                         _______ _______ _______ _____ _____    ______ ____

>  <TORSDO>
F 1

$$$$
=
 OpenBabel11112417193D

 37 44  0  0  1  0  0  0  0  0999 V2000
  194.8990  175.5020  139.9980 C   0  0  0  0  0  2  0  0  0  0  0  0
  192.8700  172.9500  136.4410 C   0  0  0  0  0  0  0  0  0  0  0  0
  190.6450  173.6730  139.9540 C   0  0  0  0  0  0  0  0  0  0  0  0
  196.3410  175.5200  140.2390 N   0  0  0  0  0  0  0  0  0  0  0  0
  192.3950  174.6900  143.2290 C   0  0  0  0  0  2  0  0  0  0  0  0
  190.6560  172.7530  137.6900 C   0  0  0  0  0  0  0  0  0  0  0  0
  191.6280  174.1070  140.8460 C   0  0  1  0  0  3  0  0  0  0  0  0
  195.8460  176.3180  142.5370 C   0  0  1  0  0  3  0  0  0  0  0  0
  191.3180  173.2510  138.7810 C   0  0  0  0  0  0  0  0  0  0  0  0
  191.3540  174.5950  142.1950 N   0  0  1  0  0  0  0  0  0  0  0  0
  189.2960  172.6470  137.7590 N   0  0  0  0  0  0  0  0  0  0  0  0
  196.8960  175.7790  141.5670 C   0  0  0  0  0  2  0  0  0  0  0  0
  192.6500  173.4390  138.9040 C   0  0  0  0  0  0  0  0  0  0  0  0
  192.7270  174.3530  135.8760 C   0  0  0  0  0  1  0  0  0  0  0  0
  188.4500  174.0860  141.1700 C   0  0  0  0  0  2  0  0  0  0  0  0
  188.5940  173.0490  138.8720 C   0  0  0  0  0  3  0  0  0  0  0  0
  193.5960  173.0250  137.8140 C   0  0  0  0  0  2  0  0  0  0  0  0
  194.9760  175.2230  143.1550 C   0  0  1  0  0  3  0  0  0  0  0  0
  193.5680  175.4050  142.6390 C   0  0  1  0  0  3  0  0  0  0  0  0
  189.2500  173.5680  140.0140 C   0  0  0  0  0  0  0  0  0  0  0  0
  192.8910  173.9580  140.1750 C   0  0  0  0  0  0  0  0  0  0  0  0
  191.4670  172.2790  136.5120 C   0  0  0  0  0  2  0  0  0  0  0  0
  189.9690  174.9810  142.5190 C   0  0  1  0  0  3  0  0  0  0  0  0
  193.7350  172.1490  135.4910 C   0  0  0  0  0  1  0  0  0  0  0  0
  194.3730  174.2100  142.1800 C   0  0  1  0  0  3  0  0  0  0  0  0
  196.4820  177.0260  143.5560 O   0  0  0  0  0  1  0  0  0  0  0  0
  194.2910  174.2690  140.6610 C   0  0  2  0  0  3  0  0  0  0  0  0
  189.1180  173.8780  142.3810 O   0  0  0  0  0  0  0  0  0  0  0  0
  196.8330  174.8630  138.0120 N   0  0  0  0  0  2  0  0  0  0  0  0
  197.2530  175.1550  139.2000 C   0  0  0  0  0  3  0  0  0  0  0  0
  190.0410  176.9970  144.0030 C   0  0  0  0  0  3  0  0  0  0  0  0
  189.8050  175.6250  143.8670 C   0  0  0  0  0  0  0  0  0  0  0  0
  189.4610  174.8650  144.9940 C   0  0  0  0  0  3  0  0  0  0  0  0
  188.9080  174.5270  147.6470 Cl  0  0  0  0  0  0  0  0  0  0  0  0
  189.5700  176.8520  146.3740 C   0  0  0  0  0  3  0  0  0  0  0  0
  189.3410  175.4790  146.2440 C   0  0  0  0  0  0  0  0  0  0  0  0
  189.9210  177.6110  145.2540 C   0  0  0  0  0  3  0  0  0  0  0  0
  1  4  1  0  0  0  0
  1 27  1  0  0  0  0
  2 22  1  0  0  0  0
  2 17  1  0  0  0  0
  3 20  1  0  0  0  0
  4 12  1  0  0  0  0
  6 11  2  0  0  0  0
  6  9  1  0  0  0  0
  7  3  1  1  0  0  0
  7 10  1  0  0  0  0
  8 18  1  0  0  0  0
  8 26  1  1  0  0  0
  9 13  1  0  0  0  0
  9  3  2  0  0  0  0
 10 23  1  0  0  0  0
 10  5  1  1  0  0  0
 11 16  1  0  0  0  0
 12  8  1  0  0  0  0
 13 21  2  0  0  0  0
 14  2  1  0  0  0  0
 15 28  1  0  0  0  0
 16 20  2  0  0  0  0
 17 13  1  0  0  0  0
 19 18  1  0  0  0  0
 19  5  1  0  0  0  0
 20 15  1  0  0  0  0
 21 27  1  0  0  0  0
 21  7  1  0  0  0  0
 22  6  1  0  0  0  0
 23 32  1  0  0  0  0
 24  2  1  0  0  0  0
 25 19  1  0  0  0  0
 25 18  1  0  0  0  0
 27 25  1  0  0  0  0
 28 23  1  0  0  0  0
 29 30  2  0  0  0  0
 30  4  1  0  0  0  0
 31 37  1  0  0  0  0
 32 31  2  0  0  0  0
 32 33  1  0  0  0  0
 33 36  2  0  0  0  0
 36 35  1  0  0  0  0
 36 34  1  0  0  0  0
 37 35  2  0  0  0  0
M  END
>  <MODEL>
7

>  <REMARK>
 VINA RESULT:      -8.1      3.541      7.162
  Name = 
  1 active torsions:
  status: ('A' for Active; 'I' for Inactive)
    1  A    between atoms: C_23  and  C_30
                            x       y       z     vdW  Elec       q    Type
                         _______ _______ _______ _____ _____    ______ ____

>  <TORSDO>
F 1

$$$$
=
 OpenBabel11112417193D

 37 44  0  0  1  0  0  0  0  0999 V2000
  189.7390  175.3670  145.3220 C   0  0  0  0  0  2  0  0  0  0  0  0
  186.7230  178.3410  147.6330 C   0  0  0  0  0  0  0  0  0  0  0  0
  186.3470  177.9040  143.4510 C   0  0  0  0  0  0  0  0  0  0  0  0
  191.0960  175.0920  145.7900 N   0  0  0  0  0  0  0  0  0  0  0  0
  189.2440  176.4980  141.3420 C   0  0  0  0  0  2  0  0  0  0  0  0
  185.4350  178.8780  145.4990 C   0  0  0  0  0  0  0  0  0  0  0  0
  187.5480  177.2790  143.1080 C   0  0  0  0  0  0  0  0  0  0  0  0
  191.6270  174.3210  143.4910 C   0  0  1  0  0  3  0  0  0  0  0  0
  186.4430  178.2400  144.8250 C   0  0  1  0  0  3  0  0  0  0  0  0
  187.8700  176.8050  141.7640 N   0  0  0  0  0  0  0  0  0  0  0  0
  184.3110  179.2150  144.8010 N   0  0  0  0  0  0  0  0  0  0  0  0
  192.1640  174.7000  144.8700 C   0  0  0  0  0  2  0  0  0  0  0  0
  187.6200  177.8210  145.3350 C   0  0  0  0  0  0  0  0  0  0  0  0
  186.0970  177.0020  147.9850 C   0  0  0  0  0  1  0  0  0  0  0  0
  184.9590  177.8390  141.3220 C   0  0  0  0  0  2  0  0  0  0  0  0
  184.1650  178.9060  143.4680 C   0  0  0  0  0  3  0  0  0  0  0  0
  187.9900  178.0980  146.7640 C   0  0  0  0  0  2  0  0  0  0  0  0
  191.3510  175.5300  142.5970 C   0  0  1  0  0  3  0  0  0  0  0  0
  189.8590  175.6100  142.3760 C   0  0  1  0  0  3  0  0  0  0  0  0
  185.1880  178.2470  142.7460 C   0  0  0  0  0  0  0  0  0  0  0  0
  188.3460  177.2290  144.3030 C   0  0  0  0  0  0  0  0  0  0  0  0
  185.6560  179.2410  146.9450 C   0  0  0  0  0  2  0  0  0  0  0  0
  186.7630  176.6530  140.8040 C   0  0  1  0  0  3  0  0  0  0  0  0
  187.1530  179.0090  148.9210 C   0  0  0  0  0  1  0  0  0  0  0  0
  190.5360  176.6620  143.2260 C   0  0  1  0  0  3  0  0  0  0  0  0
  192.5420  173.4820  142.8570 O   0  0  0  0  0  1  0  0  0  0  0  0
  189.7340  176.6650  144.5200 C   0  0  2  0  0  3  0  0  0  0  0  0
  186.1460  177.8910  140.5840 O   0  0  0  0  0  0  0  0  0  0  0  0
  190.5750  175.7230  148.0180 N   0  0  0  0  0  2  0  0  0  0  0  0
  191.4520  175.3260  147.1550 C   0  0  0  0  0  3  0  0  0  0  0  0
  186.7510  176.5910  138.3000 C   0  0  0  0  0  3  0  0  0  0  0  0
  187.1530  176.0060  139.5050 C   0  0  0  0  0  0  0  0  0  0  0  0
  187.8750  174.8040  139.4860 C   0  0  0  0  0  3  0  0  0  0  0  0
  189.1080  172.7040  138.2480 Cl  0  0  0  0  0  0  0  0  0  0  0  0
  187.8070  174.7950  137.0650 C   0  0  0  0  0  3  0  0  0  0  0  0
  188.2040  174.2030  138.2670 C   0  0  0  0  0  0  0  0  0  0  0  0
  187.0800  175.9890  137.0820 C   0  0  0  0  0  3  0  0  0  0  0  0
  1  4  1  0  0  0  0
  2 14  1  0  0  0  0
  2 24  1  0  0  0  0
  4 30  1  0  0  0  0
  5 10  1  0  0  0  0
  5 19  1  0  0  0  0
  6 22  1  0  0  0  0
  7  3  2  0  0  0  0
  7 21  1  0  0  0  0
  8 26  1  6  0  0  0
  8 12  1  0  0  0  0
  9  3  1  1  0  0  0
  9 13  1  0  0  0  0
  9  6  1  0  0  0  0
 10  7  1  0  0  0  0
 11  6  2  0  0  0  0
 12  4  1  0  0  0  0
 13 17  1  0  0  0  0
 15 20  1  0  0  0  0
 16 11  1  0  0  0  0
 17  2  1  0  0  0  0
 18 25  1  0  0  0  0
 18  8  1  0  0  0  0
 19 18  1  0  0  0  0
 19 25  1  0  0  0  0
 20  3  1  0  0  0  0
 20 16  2  0  0  0  0
 21 27  1  0  0  0  0
 21 13  2  0  0  0  0
 22  2  1  0  0  0  0
 23 10  1  0  0  0  0
 25 27  1  0  0  0  0
 27  1  1  0  0  0  0
 28 23  1  0  0  0  0
 28 15  1  0  0  0  0
 30 29  2  0  0  0  0
 31 32  1  0  0  0  0
 32 23  1  0  0  0  0
 33 32  2  0  0  0  0
 34 36  1  0  0  0  0
 35 37  1  0  0  0  0
 35 36  2  0  0  0  0
 36 33  1  0  0  0  0
 37 31  2  0  0  0  0
M  END
>  <MODEL>
8

>  <REMARK>
 VINA RESULT:      -8.1      3.356      7.242
  Name = 
  1 active torsions:
  status: ('A' for Active; 'I' for Inactive)
    1  A    between atoms: C_23  and  C_30
                            x       y       z     vdW  Elec       q    Type
                         _______ _______ _______ _____ _____    ______ ____

>  <TORSDO>
F 1

$$$$
=
 OpenBabel11112417193D

 37 44  0  0  1  0  0  0  0  0999 V2000
  189.8760  174.6580  141.6130 C   0  0  0  0  0  2  0  0  0  0  0  0
  189.6510  176.2890  146.1470 C   0  0  0  0  0  0  0  0  0  0  0  0
  193.4290  175.4020  144.4870 C   0  0  0  0  0  0  0  0  0  0  0  0
  188.8010  173.8860  140.9920 N   0  0  0  0  0  0  0  0  0  0  0  0
  193.7460  173.1270  141.3970 C   0  0  0  0  0  2  0  0  0  0  0  0
  192.1890  176.3110  146.3870 C   0  0  0  0  0  0  0  0  0  0  0  0
  193.0900  174.6600  143.3540 C   0  0  0  0  0  0  0  0  0  0  0  0
  190.4640  173.0890  139.3310 C   0  0  1  0  0  3  0  0  0  0  0  0
  192.2270  175.6160  145.2070 C   0  0  0  0  0  0  0  0  0  0  0  0
  194.0530  174.1970  142.3580 N   0  0  0  0  0  0  0  0  0  0  0  0
  193.3670  176.7900  146.8870 N   0  0  0  0  0  2  0  0  0  0  0  0
  189.0600  172.9350  139.9110 C   0  0  0  0  0  2  0  0  0  0  0  0
  191.1780  175.0740  144.5520 C   0  0  0  0  0  0  0  0  0  0  0  0
  189.4500  177.5900  145.3880 C   0  0  0  0  0  1  0  0  0  0  0  0
  195.9280  175.8140  144.2590 C   0  0  0  0  0  2  0  0  0  0  0  0
  194.5600  176.6150  146.2240 C   0  0  0  0  0  3  0  0  0  0  0  0
  189.7940  175.1220  145.1300 C   0  0  0  0  0  2  0  0  0  0  0  0
  191.5410  172.3850  140.1580 C   0  0  1  0  0  3  0  0  0  0  0  0
  192.4350  173.4470  140.7530 C   0  0  1  0  0  3  0  0  0  0  0  0
  194.6300  175.9030  145.0030 C   0  0  0  0  0  0  0  0  0  0  0  0
  191.6670  174.4580  143.4010 C   0  0  0  0  0  0  0  0  0  0  0  0
  190.8700  176.4370  147.1040 C   0  0  0  0  0  2  0  0  0  0  0  0
  195.3860  174.8250  142.3460 C   0  0  1  0  0  3  0  0  0  0  0  0
  188.4150  176.0410  146.9850 C   0  0  0  0  0  1  0  0  0  0  0  0
  191.5200  172.6580  141.6630 C   0  0  1  0  0  3  0  0  0  0  0  0
  190.4830  172.5840  138.0320 O   0  0  0  0  0  1  0  0  0  0  0  0
  190.7580  173.7250  142.4370 C   0  0  2  0  0  3  0  0  0  0  0  0
  196.0330  174.6020  143.5680 O   0  0  0  0  0  0  0  0  0  0  0  0
  187.1760  174.7240  142.5060 N   0  0  0  0  0  2  0  0  0  0  0  0
  187.4720  173.9440  141.5170 C   0  0  0  0  0  3  0  0  0  0  0  0
  197.1050  173.3100  141.3330 C   0  0  0  0  0  3  0  0  0  0  0  0
  196.2550  174.4120  141.1920 C   0  0  0  0  0  0  0  0  0  0  0  0
  196.2570  175.1400  139.9930 C   0  0  0  0  0  3  0  0  0  0  0  0
  197.0920  175.6660  137.4460 Cl  0  0  0  0  0  0  0  0  0  0  0  0
  197.9360  173.6490  139.0850 C   0  0  0  0  0  3  0  0  0  0  0  0
  197.0940  174.7560  138.9410 C   0  0  0  0  0  0  0  0  0  0  0  0
  197.9410  172.9270  140.2810 C   0  0  0  0  0  3  0  0  0  0  0  0
  1 27  1  0  0  0  0
  2 24  1  0  0  0  0
  2 22  1  0  0  0  0
  3 20  1  0  0  0  0
  3  9  1  0  0  0  0
  4 30  1  0  0  0  0
  4  1  1  0  0  0  0
  5 10  1  0  0  0  0
  6 11  1  0  0  0  0
  6 22  1  0  0  0  0
  7 21  1  0  0  0  0
  7  3  2  0  0  0  0
  8 26  1  6  0  0  0
  8 12  1  0  0  0  0
  8 18  1  0  0  0  0
  9  6  2  0  0  0  0
 10  7  1  0  0  0  0
 12  4  1  0  0  0  0
 13 17  1  0  0  0  0
 13  9  1  0  0  0  0
 14  2  1  0  0  0  0
 15 20  1  0  0  0  0
 16 11  1  0  0  0  0
 17  2  1  0  0  0  0
 18 19  1  0  0  0  0
 18 25  1  0  0  0  0
 19  5  1  0  0  0  0
 19 25  1  0  0  0  0
 20 16  2  0  0  0  0
 21 13  2  0  0  0  0
 23 10  1  0  0  0  0
 23 28  1  0  0  0  0
 25 27  1  0  0  0  0
 27 21  1  0  0  0  0
 28 15  1  0  0  0  0
 30 29  2  0  0  0  0
 32 31  1  0  0  0  0
 32 23  1  0  0  0  0
 33 32  2  0  0  0  0
 34 36  1  0  0  0  0
 35 37  1  0  0  0  0
 36 35  2  0  0  0  0
 36 33  1  0  0  0  0
 37 31  2  0  0  0  0
M  END
>  <MODEL>
9

>  <REMARK>
 VINA RESULT:      -8.1      3.266      4.127
  Name = 
  1 active torsions:
  status: ('A' for Active; 'I' for Inactive)
    1  A    between atoms: C_23  and  C_30
                            x       y       z     vdW  Elec       q    Type
                         _______ _______ _______ _____ _____    ______ ____

>  <TORSDO>
F 1

$$$$
