=
 OpenBabel11112416293D

 32 37  0  0  1  0  0  0  0  0999 V2000
  194.4850  173.4170  139.9210 N   0  0  0  0  0  2  0  0  0  0  0  0
  190.5490  175.4620  143.1190 C   0  0  1  0  0  3  0  0  0  0  0  0
  191.3020  176.1250  147.9870 C   0  0  0  0  0  3  0  0  0  0  0  0
  190.4370  177.2190  147.9580 C   0  0  0  0  0  3  0  0  0  0  0  0
  188.4830  176.4930  141.9890 C   0  0  2  0  0  3  0  0  0  0  0  0
  187.2570  177.3100  142.2950 C   0  0  0  0  0  0  0  0  0  0  0  0
  191.9680  174.3380  141.7800 C   0  0  1  0  0  3  0  0  0  0  0  0
  192.5110  174.4130  144.2360 C   0  0  0  0  0  2  0  0  0  0  0  0
  185.8240  178.6520  143.4200 C   0  0  0  0  0  0  0  0  0  0  0  0
  194.0950  173.3180  142.6960 N   0  0  0  0  0  2  0  0  0  0  0  0
  191.4980  175.3630  146.8340 C   0  0  0  0  0  3  0  0  0  0  0  0
  191.0430  174.8110  144.4230 C   0  0  1  0  0  3  0  0  0  0  0  0
  190.8440  175.6890  145.6360 C   0  0  0  0  0  0  0  0  0  0  0  0
  189.2110  177.1640  144.3470 C   0  0  2  0  0  3  0  0  0  0  0  0
  185.1630  177.9020  142.5540 C   0  0  0  0  0  3  0  0  0  0  0  0
  193.2550  174.1600  139.6510 C   0  0  0  0  0  2  0  0  0  0  0  0
  192.6790  173.6090  142.9450 C   0  0  2  0  0  3  0  0  0  0  0  0
  186.0640  177.0420  141.8690 N   0  0  0  0  0  0  0  0  0  0  0  0
  192.1020  173.5870  140.4640 C   0  0  0  0  0  2  0  0  0  0  0  0
  194.7820  174.4930  142.1660 C   0  0  0  0  0  2  0  0  0  0  0  0
  189.7570  177.5380  146.7820 C   0  0  0  0  0  3  0  0  0  0  0  0
  189.9190  176.7620  145.6230 C   0  0  0  0  0  0  0  0  0  0  0  0
  187.8200  177.7560  144.6180 C   0  0  0  0  0  2  0  0  0  0  0  0
  190.6070  174.5060  142.0880 O   0  0  0  0  0  0  0  0  0  0  0  0
  188.1330  175.3190  141.0800 C   0  0  0  0  0  1  0  0  0  0  0  0
  185.1920  179.6800  144.2910 C   0  0  0  0  0  1  0  0  0  0  0  0
  189.1290  176.0120  143.3140 C   0  0  2  0  0  3  0  0  0  0  0  0
  187.2830  178.3730  143.3350 C   0  0  1  0  0  3  0  0  0  0  0  0
  195.3920  174.1670  140.8020 C   0  0  2  0  0  3  0  0  0  0  0  0
  195.9530  175.3810  140.1320 C   0  0  0  0  0  0  0  0  0  0  0  0
  196.4520  175.3080  138.8360 O   0  0  0  0  0  0  0  0  0  0  0  0
  196.0000  176.4720  140.7580 O   0  0  0  0  0  1  0  0  0  0  0  0
  1 29  1  0  0  0  0
  2 24  1  6  0  0  0
  2 27  1  0  0  0  0
  2 12  1  0  0  0  0
  4  3  1  0  0  0  0
  5 25  1  6  0  0  0
  5  6  1  0  0  0  0
  5 27  1  0  0  0  0
  6 28  1  0  0  0  0
  7 19  1  6  0  0  0
  7 24  1  0  0  0  0
  7 17  1  0  0  0  0
  9 26  1  0  0  0  0
 10 17  1  0  0  0  0
 11  3  2  0  0  0  0
 12  8  1  6  0  0  0
 12 13  1  0  0  0  0
 13 11  1  0  0  0  0
 14 23  1  1  0  0  0
 14 22  1  0  0  0  0
 15  9  2  0  0  0  0
 16  1  1  0  0  0  0
 16 19  1  0  0  0  0
 17  8  1  1  0  0  0
 18  6  2  0  0  0  0
 18 15  1  0  0  0  0
 20 10  1  0  0  0  0
 21  4  2  0  0  0  0
 22 13  2  0  0  0  0
 22 21  1  0  0  0  0
 27 14  1  0  0  0  0
 28  9  1  0  0  0  0
 28 23  1  0  0  0  0
 29 20  1  0  0  0  0
 30 32  1  0  0  0  0
 30 29  1  0  0  0  0
 31 30  2  0  0  0  0
M  END
>  <MODEL>
1

>  <REMARK>
 VINA RESULT:      -8.4      0.000      0.000
  Name = 
  1 active torsions:
  status: ('A' for Active; 'I' for Inactive)
    1  A    between atoms: CA_29  and  C_30
                            x       y       z     vdW  Elec       q    Type
                         _______ _______ _______ _____ _____    ______ ____

>  <TORSDO>
F 1

$$$$
=
 OpenBabel11112416293D

 32 37  0  0  1  0  0  0  0  0999 V2000
  185.8050  177.5270  143.3630 N   0  0  0  0  0  2  0  0  0  0  0  0
  190.4930  174.7200  143.5640 C   0  0  1  0  0  3  0  0  0  0  0  0
  194.5380  176.6580  145.7040 C   0  0  0  0  0  3  0  0  0  0  0  0
  194.9370  175.3750  146.0800 C   0  0  0  0  0  3  0  0  0  0  0  0
  190.4380  172.2250  142.9490 C   0  0  2  0  0  3  0  0  0  0  0  0
  191.2880  170.9830  142.9850 C   0  0  0  0  0  0  0  0  0  0  0  0
  188.6210  175.8980  143.1400 C   0  0  1  0  0  3  0  0  0  0  0  0
  190.5810  177.1490  144.1040 C   0  0  0  0  0  2  0  0  0  0  0  0
  192.9820  169.5820  143.5220 C   0  0  0  0  0  0  0  0  0  0  0  0
  188.4580  178.3500  143.7460 N   0  0  0  0  0  2  0  0  0  0  0  0
  193.3910  176.8300  144.9280 C   0  0  0  0  0  3  0  0  0  0  0  0
  191.4160  175.9490  143.6450 C   0  0  1  0  0  3  0  0  0  0  0  0
  192.6230  175.7260  144.5260 C   0  0  0  0  0  0  0  0  0  0  0  0
  192.2500  173.2050  144.4650 C   0  0  2  0  0  3  0  0  0  0  0  0
  192.4730  169.2540  142.3460 C   0  0  0  0  0  3  0  0  0  0  0  0
  186.1370  176.1140  143.1960 C   0  0  0  0  0  2  0  0  0  0  0  0
  189.3210  177.2750  143.2460 C   0  0  2  0  0  3  0  0  0  0  0  0
  191.4270  170.1530  142.0010 N   0  0  0  0  0  0  0  0  0  0  0  0
  187.3560  175.9590  142.2970 C   0  0  0  0  0  2  0  0  0  0  0  0
  187.7210  177.9170  144.9310 C   0  0  0  0  0  2  0  0  0  0  0  0
  194.2000  174.2660  145.6640 C   0  0  0  0  0  3  0  0  0  0  0  0
  193.0610  174.4210  144.8550 C   0  0  0  0  0  0  0  0  0  0  0  0
  193.1330  171.9710  144.2230 C   0  0  0  0  0  2  0  0  0  0  0  0
  189.5080  174.9590  142.5870 O   0  0  0  0  0  0  0  0  0  0  0  0
  189.7370  172.3570  141.6000 C   0  0  0  0  0  1  0  0  0  0  0  0
  194.0800  168.8380  144.1960 C   0  0  0  0  0  1  0  0  0  0  0  0
  191.3190  173.4640  143.2530 C   0  0  2  0  0  3  0  0  0  0  0  0
  192.2460  170.7410  144.0960 C   0  0  1  0  0  3  0  0  0  0  0  0
  186.2170  178.0340  144.6790 C   0  0  2  0  0  3  0  0  0  0  0  0
  185.4130  177.4360  145.7900 C   0  0  0  0  0  0  0  0  0  0  0  0
  184.1270  177.8910  146.0580 O   0  0  0  0  0  0  0  0  0  0  0  0
  185.9170  176.5330  146.5070 O   0  0  0  0  0  1  0  0  0  0  0  0
  1 29  1  0  0  0  0
  2 24  1  6  0  0  0
  2 12  1  0  0  0  0
  3  4  1  0  0  0  0
  5 25  1  6  0  0  0
  5  6  1  0  0  0  0
  5 27  1  0  0  0  0
  6 28  1  0  0  0  0
  7 19  1  6  0  0  0
  7 17  1  0  0  0  0
  9 28  1  0  0  0  0
  9 26  1  0  0  0  0
 10 20  1  0  0  0  0
 11  3  2  0  0  0  0
 12  8  1  1  0  0  0
 12 13  1  0  0  0  0
 13 22  2  0  0  0  0
 13 11  1  0  0  0  0
 14 23  1  6  0  0  0
 14 22  1  0  0  0  0
 15  9  2  0  0  0  0
 16  1  1  0  0  0  0
 17 10  1  0  0  0  0
 17  8  1  1  0  0  0
 18 15  1  0  0  0  0
 18  6  2  0  0  0  0
 19 16  1  0  0  0  0
 21  4  2  0  0  0  0
 22 21  1  0  0  0  0
 24  7  1  0  0  0  0
 27  2  1  0  0  0  0
 27 14  1  0  0  0  0
 28 23  1  0  0  0  0
 29 20  1  0  0  0  0
 29 30  1  0  0  0  0
 30 31  2  0  0  0  0
 30 32  1  0  0  0  0
M  END
>  <MODEL>
2

>  <REMARK>
 VINA RESULT:      -7.8      3.181      7.716
  Name = 
  1 active torsions:
  status: ('A' for Active; 'I' for Inactive)
    1  A    between atoms: CA_29  and  C_30
                            x       y       z     vdW  Elec       q    Type
                         _______ _______ _______ _____ _____    ______ ____

>  <TORSDO>
F 1

$$$$
=
 OpenBabel11112416293D

 32 37  0  0  1  0  0  0  0  0999 V2000
  190.8980  173.4310  135.6870 N   0  0  0  0  0  2  0  0  0  0  0  0
  188.6730  174.7190  140.5120 C   0  0  1  0  0  3  0  0  0  0  0  0
  189.9690  172.2910  144.6500 C   0  0  0  0  0  3  0  0  0  0  0  0
  189.7460  173.4540  145.3870 C   0  0  0  0  0  3  0  0  0  0  0  0
  187.3020  176.8870  140.6740 C   0  0  2  0  0  3  0  0  0  0  0  0
  186.6510  177.7980  141.6800 C   0  0  0  0  0  0  0  0  0  0  0  0
  189.2750  174.0660  138.4430 C   0  0  1  0  0  3  0  0  0  0  0  0
  189.9440  172.5840  140.3640 C   0  0  0  0  0  2  0  0  0  0  0  0
  186.1290  178.7360  143.6720 C   0  0  0  0  0  0  0  0  0  0  0  0
  190.6910  171.9990  138.0880 N   0  0  0  0  0  2  0  0  0  0  0  0
  189.6940  172.2700  143.2820 C   0  0  0  0  0  3  0  0  0  0  0  0
  188.8720  173.3360  141.1580 C   0  0  1  0  0  3  0  0  0  0  0  0
  189.2040  173.4120  142.6300 C   0  0  0  0  0  0  0  0  0  0  0  0
  188.4160  175.8350  142.7220 C   0  0  2  0  0  3  0  0  0  0  0  0
  185.1320  178.8930  142.8170 C   0  0  0  0  0  3  0  0  0  0  0  0
  190.1700  174.6000  136.1780 C   0  0  0  0  0  2  0  0  0  0  0  0
  189.6160  172.6180  138.8700 C   0  0  2  0  0  3  0  0  0  0  0  0
  185.4530  178.2790  141.5760 N   0  0  0  0  0  0  0  0  0  0  0  0
  188.9410  174.1660  136.9620 C   0  0  0  0  0  2  0  0  0  0  0  0
  191.8270  172.9080  137.9550 C   0  0  0  0  0  2  0  0  0  0  0  0
  189.2320  174.5890  144.7580 C   0  0  0  0  0  3  0  0  0  0  0  0
  188.9200  174.5740  143.3880 C   0  0  0  0  0  0  0  0  0  0  0  0
  187.5100  176.6590  143.6500 C   0  0  0  0  0  2  0  0  0  0  0  0
  188.1910  174.5400  139.2020 O   0  0  0  0  0  0  0  0  0  0  0  0
  186.3660  176.6320  139.4970 C   0  0  0  0  0  1  0  0  0  0  0  0
  186.1350  179.2740  145.0590 C   0  0  0  0  0  1  0  0  0  0  0  0
  187.7160  175.5630  141.3660 C   0  0  2  0  0  3  0  0  0  0  0  0
  187.2580  178.0210  143.0190 C   0  0  1  0  0  3  0  0  0  0  0  0
  192.1110  173.1720  136.4760 C   0  0  2  0  0  3  0  0  0  0  0  0
  193.1460  174.2340  136.2830 C   0  0  0  0  0  0  0  0  0  0  0  0
  193.4690  175.1060  137.3160 O   0  0  0  0  0  1  0  0  0  0  0  0
  193.7100  174.3570  135.1640 O   0  0  0  0  0  0  0  0  0  0  0  0
  1 16  1  0  0  0  0
  1 29  1  0  0  0  0
  2 24  1  6  0  0  0
  2 12  1  0  0  0  0
  2 27  1  0  0  0  0
  3  4  1  0  0  0  0
  5 25  1  6  0  0  0
  5 27  1  0  0  0  0
  5  6  1  0  0  0  0
  6 28  1  0  0  0  0
  7 19  1  6  0  0  0
  7 17  1  0  0  0  0
  7 24  1  0  0  0  0
  9 26  1  0  0  0  0
 10 17  1  0  0  0  0
 11  3  2  0  0  0  0
 12  8  1  6  0  0  0
 12 13  1  0  0  0  0
 13 11  1  0  0  0  0
 13 22  2  0  0  0  0
 14 22  1  0  0  0  0
 14 23  1  1  0  0  0
 15  9  2  0  0  0  0
 16 19  1  0  0  0  0
 17  8  1  1  0  0  0
 18  6  2  0  0  0  0
 18 15  1  0  0  0  0
 20 10  1  0  0  0  0
 21  4  2  0  0  0  0
 22 21  1  0  0  0  0
 27 14  1  0  0  0  0
 28 23  1  0  0  0  0
 28  9  1  0  0  0  0
 29 20  1  0  0  0  0
 30 29  1  0  0  0  0
 30 31  1  0  0  0  0
 32 30  2  0  0  0  0
M  END
>  <MODEL>
3

>  <REMARK>
 VINA RESULT:      -7.4      3.091      3.966
  Name = 
  1 active torsions:
  status: ('A' for Active; 'I' for Inactive)
    1  A    between atoms: CA_29  and  C_30
                            x       y       z     vdW  Elec       q    Type
                         _______ _______ _______ _____ _____    ______ ____

>  <TORSDO>
F 1

$$$$
=
 OpenBabel11112416293D

 32 37  0  0  1  0  0  0  0  0999 V2000
  197.4500  172.5050  145.2340 N   0  0  0  0  0  2  0  0  0  0  0  0
  192.4990  174.6030  144.2450 C   0  0  1  0  0  3  0  0  0  0  0  0
  190.0920  173.5830  140.0190 C   0  0  0  0  0  3  0  0  0  0  0  0
  188.8790  173.6860  140.7000 C   0  0  0  0  0  3  0  0  0  0  0  0
  191.2570  175.7430  146.1860 C   0  0  2  0  0  3  0  0  0  0  0  0
  189.9080  176.2990  146.5570 C   0  0  0  0  0  0  0  0  0  0  0  0
  194.6540  174.0640  144.6140 C   0  0  1  0  0  3  0  0  0  0  0  0
  193.7100  173.5600  142.3360 C   0  0  0  0  0  2  0  0  0  0  0  0
  187.6880  176.7290  146.4660 C   0  0  0  0  0  0  0  0  0  0  0  0
  196.0200  172.8690  142.8500 N   0  0  0  0  0  2  0  0  0  0  0  0
  191.2890  173.8530  140.6830 C   0  0  0  0  0  3  0  0  0  0  0  0
  192.6030  174.5510  142.7100 C   0  0  1  0  0  3  0  0  0  0  0  0
  191.2920  174.2190  142.0380 C   0  0  0  0  0  0  0  0  0  0  0  0
  190.0150  174.7510  144.1810 C   0  0  2  0  0  3  0  0  0  0  0  0
  188.3170  177.7010  147.1070 C   0  0  0  0  0  3  0  0  0  0  0  0
  196.4270  173.1090  146.0850 C   0  0  0  0  0  2  0  0  0  0  0  0
  194.9880  173.8770  143.1140 C   0  0  2  0  0  3  0  0  0  0  0  0
  189.7140  177.4400  147.1380 N   0  0  0  0  0  0  0  0  0  0  0  0
  195.8890  174.3800  145.4430 C   0  0  0  0  0  2  0  0  0  0  0  0
  195.7550  171.6440  143.6010 C   0  0  0  0  0  2  0  0  0  0  0  0
  188.8640  174.0770  142.0390 C   0  0  0  0  0  3  0  0  0  0  0  0
  190.0580  174.3840  142.7130 C   0  0  0  0  0  0  0  0  0  0  0  0
  188.7660  175.5710  144.5380 C   0  0  0  0  0  2  0  0  0  0  0  0
  193.7120  175.0960  144.7630 O   0  0  0  0  0  0  0  0  0  0  0  0
  192.3680  176.6950  146.6160 C   0  0  0  0  0  1  0  0  0  0  0  0
  186.2150  176.6720  146.2680 C   0  0  0  0  0  1  0  0  0  0  0  0
  191.3030  175.4700  144.6600 C   0  0  2  0  0  3  0  0  0  0  0  0
  188.6560  175.6770  146.0520 C   0  0  1  0  0  3  0  0  0  0  0  0
  196.9380  171.3290  144.5160 C   0  0  2  0  0  3  0  0  0  0  0  0
  196.6480  170.1880  145.4390 C   0  0  0  0  0  0  0  0  0  0  0  0
  195.3400  169.7810  145.6740 O   0  0  0  0  0  0  0  0  0  0  0  0
  197.5960  169.6090  146.0300 O   0  0  0  0  0  1  0  0  0  0  0  0
  1 16  1  0  0  0  0
  2 27  1  0  0  0  0
  2 24  1  1  0  0  0
  3 11  2  0  0  0  0
  3  4  1  0  0  0  0
  4 21  2  0  0  0  0
  5  6  1  0  0  0  0
  5 25  1  6  0  0  0
  6 18  2  0  0  0  0
  7 24  1  0  0  0  0
  7 19  1  1  0  0  0
  9 15  2  0  0  0  0
 10 17  1  0  0  0  0
 10 20  1  0  0  0  0
 11 13  1  0  0  0  0
 12  8  1  1  0  0  0
 12  2  1  0  0  0  0
 13 12  1  0  0  0  0
 13 22  2  0  0  0  0
 14 23  1  6  0  0  0
 14 27  1  0  0  0  0
 15 18  1  0  0  0  0
 17  8  1  6  0  0  0
 17  7  1  0  0  0  0
 19 16  1  0  0  0  0
 20 29  1  0  0  0  0
 21 22  1  0  0  0  0
 22 14  1  0  0  0  0
 23 28  1  0  0  0  0
 26  9  1  0  0  0  0
 27  5  1  0  0  0  0
 28  9  1  0  0  0  0
 28  6  1  0  0  0  0
 29  1  1  0  0  0  0
 29 30  1  0  0  0  0
 30 31  2  0  0  0  0
 30 32  1  0  0  0  0
M  END
>  <MODEL>
4

>  <REMARK>
 VINA RESULT:      -7.4      3.343      5.363
  Name = 
  1 active torsions:
  status: ('A' for Active; 'I' for Inactive)
    1  A    between atoms: CA_29  and  C_30
                            x       y       z     vdW  Elec       q    Type
                         _______ _______ _______ _____ _____    ______ ____

>  <TORSDO>
F 1

$$$$
=
 OpenBabel11112416293D

 32 37  0  0  1  0  0  0  0  0999 V2000
  186.2310  178.4760  143.3060 N   0  0  0  0  0  2  0  0  0  0  0  0
  190.0360  174.6000  142.6770 C   0  0  1  0  0  3  0  0  0  0  0  0
  193.9210  174.3130  145.7630 C   0  0  0  0  0  3  0  0  0  0  0  0
  193.9410  172.9290  145.5880 C   0  0  0  0  0  3  0  0  0  0  0  0
  189.5410  172.6690  141.0550 C   0  0  2  0  0  3  0  0  0  0  0  0
  190.0660  171.3240  140.6280 C   0  0  0  0  0  0  0  0  0  0  0  0
  188.5970  176.3320  142.6430 C   0  0  1  0  0  3  0  0  0  0  0  0
  190.5630  176.4930  144.2060 C   0  0  0  0  0  2  0  0  0  0  0  0
  191.2640  169.4040  140.6540 C   0  0  0  0  0  0  0  0  0  0  0  0
  188.8750  178.2910  144.2200 N   0  0  0  0  0  2  0  0  0  0  0  0
  193.0160  175.0920  145.0420 C   0  0  0  0  0  3  0  0  0  0  0  0
  191.1790  175.3820  143.3490 C   0  0  1  0  0  3  0  0  0  0  0  0
  192.1110  174.5010  144.1470 C   0  0  0  0  0  0  0  0  0  0  0  0
  191.1990  172.4210  142.9870 C   0  0  2  0  0  3  0  0  0  0  0  0
  190.9320  169.7190  139.4130 C   0  0  0  0  0  3  0  0  0  0  0  0
  186.2630  177.2070  142.5810 C   0  0  0  0  0  2  0  0  0  0  0  0
  189.5540  177.2960  143.3820 C   0  0  2  0  0  3  0  0  0  0  0  0
  190.2030  170.9390  139.3990 N   0  0  0  0  0  0  0  0  0  0  0  0
  187.5660  177.0730  141.8060 C   0  0  0  0  0  2  0  0  0  0  0  0
  187.8450  177.6610  145.0420 C   0  0  0  0  0  2  0  0  0  0  0  0
  193.0680  172.3290  144.6800 C   0  0  0  0  0  3  0  0  0  0  0  0
  192.1720  173.1040  143.9240 C   0  0  0  0  0  0  0  0  0  0  0  0
  191.8110  171.1830  142.3160 C   0  0  0  0  0  2  0  0  0  0  0  0
  189.3390  175.4700  141.8170 O   0  0  0  0  0  0  0  0  0  0  0  0
  189.1630  173.5080  139.8380 C   0  0  0  0  0  1  0  0  0  0  0  0
  192.0150  168.1770  141.0350 C   0  0  0  0  0  1  0  0  0  0  0  0
  190.6030  173.3850  141.9300 C   0  0  2  0  0  3  0  0  0  0  0  0
  190.7120  170.4070  141.6040 C   0  0  1  0  0  3  0  0  0  0  0  0
  186.4840  178.2910  144.7420 C   0  0  2  0  0  3  0  0  0  0  0  0
  185.3660  177.5650  145.4220 C   0  0  0  0  0  0  0  0  0  0  0  0
  184.1190  178.1610  145.5660 O   0  0  0  0  0  0  0  0  0  0  0  0
  185.5660  176.4160  145.8940 O   0  0  0  0  0  1  0  0  0  0  0  0
  1 29  1  0  0  0  0
  2 24  1  6  0  0  0
  2 12  1  0  0  0  0
  4  3  1  0  0  0  0
  5 25  1  6  0  0  0
  5 27  1  0  0  0  0
  6  5  1  0  0  0  0
  6 28  1  0  0  0  0
  7 19  1  6  0  0  0
  7 17  1  0  0  0  0
  9 26  1  0  0  0  0
  9 28  1  0  0  0  0
 10 20  1  0  0  0  0
 11  3  2  0  0  0  0
 12 13  1  0  0  0  0
 12  8  1  1  0  0  0
 13 11  1  0  0  0  0
 14 23  1  6  0  0  0
 14 22  1  0  0  0  0
 15  9  2  0  0  0  0
 16  1  1  0  0  0  0
 17  8  1  1  0  0  0
 17 10  1  0  0  0  0
 18 15  1  0  0  0  0
 18  6  2  0  0  0  0
 19 16  1  0  0  0  0
 21  4  2  0  0  0  0
 22 13  2  0  0  0  0
 22 21  1  0  0  0  0
 24  7  1  0  0  0  0
 27  2  1  0  0  0  0
 27 14  1  0  0  0  0
 28 23  1  0  0  0  0
 29 20  1  0  0  0  0
 29 30  1  0  0  0  0
 30 31  2  0  0  0  0
 30 32  1  0  0  0  0
M  END
>  <MODEL>
5

>  <REMARK>
 VINA RESULT:      -7.3      3.155      7.578
  Name = 
  1 active torsions:
  status: ('A' for Active; 'I' for Inactive)
    1  A    between atoms: CA_29  and  C_30
                            x       y       z     vdW  Elec       q    Type
                         _______ _______ _______ _____ _____    ______ ____

>  <TORSDO>
F 1

$$$$
=
 OpenBabel11112416293D

 32 37  0  0  1  0  0  0  0  0999 V2000
  189.2180  173.1590  136.8010 N   0  0  0  0  0  2  0  0  0  0  0  0
  189.8260  174.0610  142.1600 C   0  0  1  0  0  3  0  0  0  0  0  0
  193.5920  172.0190  144.6800 C   0  0  0  0  0  3  0  0  0  0  0  0
  193.6080  173.1270  145.5270 C   0  0  0  0  0  3  0  0  0  0  0  0
  188.4100  175.9110  143.2450 C   0  0  2  0  0  3  0  0  0  0  0  0
  188.2700  176.6900  144.5250 C   0  0  0  0  0  0  0  0  0  0  0  0
  189.2960  173.5040  140.0420 C   0  0  1  0  0  3  0  0  0  0  0  0
  191.1620  172.2220  141.1420 C   0  0  0  0  0  2  0  0  0  0  0  0
  188.7730  177.5410  146.5610 C   0  0  0  0  0  0  0  0  0  0  0  0
  190.6240  171.7580  138.7810 N   0  0  0  0  0  2  0  0  0  0  0  0
  192.6190  171.9180  143.6850 C   0  0  0  0  0  3  0  0  0  0  0  0
  190.5900  172.7580  142.4590 C   0  0  1  0  0  3  0  0  0  0  0  0
  191.6570  172.9260  143.5150 C   0  0  0  0  0  0  0  0  0  0  0  0
  190.6330  175.1430  144.2510 C   0  0  2  0  0  3  0  0  0  0  0  0
  187.4610  177.4780  146.4020 C   0  0  0  0  0  3  0  0  0  0  0  0
  188.6860  174.1660  137.7170 C   0  0  0  0  0  2  0  0  0  0  0  0
  190.0670  172.1630  140.0760 C   0  0  2  0  0  3  0  0  0  0  0  0
  187.1500  176.9180  145.1330 N   0  0  0  0  0  0  0  0  0  0  0  0
  188.1910  173.5070  138.9970 C   0  0  0  0  0  2  0  0  0  0  0  0
  191.3160  172.8750  138.1420 C   0  0  0  0  0  2  0  0  0  0  0  0
  192.6410  174.1230  145.3890 C   0  0  0  0  0  3  0  0  0  0  0  0
  191.6360  174.0200  144.4130 C   0  0  0  0  0  0  0  0  0  0  0  0
  190.2570  175.7840  145.5950 C   0  0  0  0  0  2  0  0  0  0  0  0
  188.7450  173.7640  141.3090 O   0  0  0  0  0  0  0  0  0  0  0  0
  187.0450  175.4510  142.7450 C   0  0  0  0  0  1  0  0  0  0  0  0
  189.4450  178.0940  147.7670 C   0  0  0  0  0  1  0  0  0  0  0  0
  189.3650  174.7100  143.4710 C   0  0  2  0  0  3  0  0  0  0  0  0
  189.4630  177.0560  145.3350 C   0  0  1  0  0  3  0  0  0  0  0  0
  190.6880  173.1630  136.7780 C   0  0  2  0  0  3  0  0  0  0  0  0
  191.2380  174.4090  136.1580 C   0  0  0  0  0  0  0  0  0  0  0  0
  190.8000  174.8300  134.9070 O   0  0  0  0  0  0  0  0  0  0  0  0
  192.1260  175.0650  136.7610 O   0  0  0  0  0  1  0  0  0  0  0  0
  1 16  1  0  0  0  0
  2 24  1  6  0  0  0
  2 12  1  0  0  0  0
  2 27  1  0  0  0  0
  3  4  1  0  0  0  0
  5 25  1  1  0  0  0
  5 27  1  0  0  0  0
  5  6  1  0  0  0  0
  6 18  2  0  0  0  0
  6 28  1  0  0  0  0
  7 19  1  6  0  0  0
  7 17  1  0  0  0  0
  7 24  1  0  0  0  0
  9 26  1  0  0  0  0
 10 17  1  0  0  0  0
 11  3  2  0  0  0  0
 12  8  1  6  0  0  0
 12 13  1  0  0  0  0
 13 11  1  0  0  0  0
 13 22  2  0  0  0  0
 14 22  1  0  0  0  0
 14 23  1  1  0  0  0
 15  9  2  0  0  0  0
 16 19  1  0  0  0  0
 17  8  1  1  0  0  0
 18 15  1  0  0  0  0
 20 10  1  0  0  0  0
 21  4  2  0  0  0  0
 22 21  1  0  0  0  0
 27 14  1  0  0  0  0
 28 23  1  0  0  0  0
 28  9  1  0  0  0  0
 29  1  1  0  0  0  0
 29 20  1  0  0  0  0
 30 32  1  0  0  0  0
 30 29  1  0  0  0  0
 31 30  2  0  0  0  0
M  END
>  <MODEL>
6

>  <REMARK>
 VINA RESULT:      -7.1      2.929      4.406
  Name = 
  1 active torsions:
  status: ('A' for Active; 'I' for Inactive)
    1  A    between atoms: CA_29  and  C_30
                            x       y       z     vdW  Elec       q    Type
                         _______ _______ _______ _____ _____    ______ ____

>  <TORSDO>
F 1

$$$$
=
 OpenBabel11112416293D

 32 37  0  0  1  0  0  0  0  0999 V2000
  186.2910  176.8290  144.7430 N   0  0  0  0  0  2  0  0  0  0  0  0
  191.0860  175.0270  142.8280 C   0  0  1  0  0  3  0  0  0  0  0  0
  191.3920  172.8170  138.3870 C   0  0  0  0  0  3  0  0  0  0  0  0
  192.6820  173.3270  138.2370 C   0  0  0  0  0  3  0  0  0  0  0  0
  193.2270  175.7490  144.0520 C   0  0  2  0  0  3  0  0  0  0  0  0
  194.7260  175.7340  143.9130 C   0  0  0  0  0  0  0  0  0  0  0  0
  189.1370  175.5110  143.8480 C   0  0  1  0  0  3  0  0  0  0  0  0
  189.0210  174.2640  141.6650 C   0  0  0  0  0  2  0  0  0  0  0  0
  196.7710  175.5320  142.9640 C   0  0  0  0  0  0  0  0  0  0  0  0
  186.9220  174.9470  142.7630 N   0  0  0  0  0  2  0  0  0  0  0  0
  190.6930  173.0320  139.5750 C   0  0  0  0  0  3  0  0  0  0  0  0
  190.4970  173.9380  141.9130 C   0  0  1  0  0  3  0  0  0  0  0  0
  191.2660  173.7680  140.6240 C   0  0  0  0  0  0  0  0  0  0  0  0
  193.2450  175.0540  141.5900 C   0  0  2  0  0  3  0  0  0  0  0  0
  196.8430  175.2910  144.2630 C   0  0  0  0  0  3  0  0  0  0  0  0
  187.6830  177.1080  145.0940 C   0  0  0  0  0  2  0  0  0  0  0  0
  188.3070  174.5240  142.9930 C   0  0  2  0  0  3  0  0  0  0  0  0
  195.5520  175.3930  144.8500 N   0  0  0  0  0  0  0  0  0  0  0  0
  188.4760  175.8120  145.1840 C   0  0  0  0  0  2  0  0  0  0  0  0
  186.8670  176.3470  142.3510 C   0  0  0  0  0  2  0  0  0  0  0  0
  193.2760  174.0360  139.2820 C   0  0  0  0  0  3  0  0  0  0  0  0
  192.5970  174.2340  140.4960 C   0  0  0  0  0  0  0  0  0  0  0  0
  194.7650  174.8420  141.6510 C   0  0  0  0  0  2  0  0  0  0  0  0
  190.4200  174.9820  144.0680 O   0  0  0  0  0  0  0  0  0  0  0  0
  192.8150  175.3340  145.4610 C   0  0  0  0  0  1  0  0  0  0  0  0
  197.9410  175.5300  142.0460 C   0  0  0  0  0  1  0  0  0  0  0  0
  192.5990  174.8210  142.9800 C   0  0  2  0  0  3  0  0  0  0  0  0
  195.3750  175.8790  142.5830 C   0  0  1  0  0  3  0  0  0  0  0  0
  186.0100  177.1450  143.3350 C   0  0  2  0  0  3  0  0  0  0  0  0
  186.0660  178.6150  143.0660 C   0  0  0  0  0  0  0  0  0  0  0  0
  185.4060  179.5140  143.8960 O   0  0  0  0  0  1  0  0  0  0  0  0
  186.6920  179.0410  142.0600 O   0  0  0  0  0  0  0  0  0  0  0  0
  1 16  1  0  0  0  0
  2 27  1  0  0  0  0
  2 24  1  1  0  0  0
  3 11  1  0  0  0  0
  4  3  2  0  0  0  0
  4 21  1  0  0  0  0
  5 25  1  1  0  0  0
  6  5  1  0  0  0  0
  6 18  2  0  0  0  0
  7 24  1  0  0  0  0
  7 19  1  1  0  0  0
  9 15  2  0  0  0  0
 10 17  1  0  0  0  0
 11 13  2  0  0  0  0
 12  8  1  6  0  0  0
 12  2  1  0  0  0  0
 13 12  1  0  0  0  0
 14 23  1  1  0  0  0
 14 27  1  0  0  0  0
 15 18  1  0  0  0  0
 16 19  1  0  0  0  0
 17  8  1  6  0  0  0
 17  7  1  0  0  0  0
 20 10  1  0  0  0  0
 20 29  1  0  0  0  0
 21 22  2  0  0  0  0
 22 13  1  0  0  0  0
 22 14  1  0  0  0  0
 23 28  1  0  0  0  0
 26  9  1  0  0  0  0
 27  5  1  0  0  0  0
 28  9  1  0  0  0  0
 28  6  1  0  0  0  0
 29  1  1  0  0  0  0
 30 29  1  0  0  0  0
 30 31  1  0  0  0  0
 32 30  2  0  0  0  0
M  END
>  <MODEL>
7

>  <REMARK>
 VINA RESULT:      -7.0      2.691      8.244
  Name = 
  1 active torsions:
  status: ('A' for Active; 'I' for Inactive)
    1  A    between atoms: CA_29  and  C_30
                            x       y       z     vdW  Elec       q    Type
                         _______ _______ _______ _____ _____    ______ ____

>  <TORSDO>
F 1

$$$$
=
 OpenBabel11112416293D

 32 37  0  0  1  0  0  0  0  0999 V2000
  191.5860  173.0280  137.6010 N   0  0  0  0  0  2  0  0  0  0  0  0
  190.2160  174.7280  142.6140 C   0  0  1  0  0  3  0  0  0  0  0  0
  193.5870  174.8960  146.2620 C   0  0  0  0  0  3  0  0  0  0  0  0
  192.9140  175.9850  146.8160 C   0  0  0  0  0  3  0  0  0  0  0  0
  187.9310  175.8630  142.9260 C   0  0  2  0  0  3  0  0  0  0  0  0
  187.1290  176.6410  143.9340 C   0  0  0  0  0  0  0  0  0  0  0  0
  190.5860  173.7490  140.6190 C   0  0  1  0  0  3  0  0  0  0  0  0
  192.4070  173.5760  142.3480 C   0  0  0  0  0  2  0  0  0  0  0  0
  186.6420  177.8590  145.7780 C   0  0  0  0  0  0  0  0  0  0  0  0
  192.8020  172.6470  140.0980 N   0  0  0  0  0  2  0  0  0  0  0  0
  193.0660  174.2550  145.1370 C   0  0  0  0  0  3  0  0  0  0  0  0
  191.3170  173.9500  143.3570 C   0  0  1  0  0  3  0  0  0  0  0  0
  191.8740  174.6990  144.5440 C   0  0  0  0  0  0  0  0  0  0  0  0
  189.8840  176.2930  144.5200 C   0  0  2  0  0  3  0  0  0  0  0  0
  185.5710  177.1980  145.3700 C   0  0  0  0  0  3  0  0  0  0  0  0
  190.4570  173.7900  138.1300 C   0  0  0  0  0  2  0  0  0  0  0  0
  191.7840  172.9080  141.1200 C   0  0  2  0  0  3  0  0  0  0  0  0
  185.8890  176.4140  144.2270 N   0  0  0  0  0  0  0  0  0  0  0  0
  189.9230  173.1360  139.3960 C   0  0  0  0  0  2  0  0  0  0  0  0
  193.1410  173.8710  139.3770 C   0  0  0  0  0  2  0  0  0  0  0  0
  191.7130  176.4200  146.2540 C   0  0  0  0  0  3  0  0  0  0  0  0
  191.1590  175.7650  145.1420 C   0  0  0  0  0  0  0  0  0  0  0  0
  188.9140  176.8510  145.5730 C   0  0  0  0  0  2  0  0  0  0  0  0
  189.6380  173.8810  141.6490 O   0  0  0  0  0  0  0  0  0  0  0  0
  187.0710  174.7860  142.2730 C   0  0  0  0  0  1  0  0  0  0  0  0
  186.6590  178.7920  146.9370 C   0  0  0  0  0  1  0  0  0  0  0  0
  189.1780  175.2510  143.6160 C   0  0  2  0  0  3  0  0  0  0  0  0
  187.7880  177.5930  144.8680 C   0  0  1  0  0  3  0  0  0  0  0  0
  192.8700  173.6860  137.8840 C   0  0  2  0  0  3  0  0  0  0  0  0
  193.0270  174.9630  137.1210 C   0  0  0  0  0  0  0  0  0  0  0  0
  192.3600  175.1570  135.9170 O   0  0  0  0  0  0  0  0  0  0  0  0
  193.7950  175.8590  137.5590 O   0  0  0  0  0  1  0  0  0  0  0  0
  1 29  1  0  0  0  0
  1 16  1  0  0  0  0
  2 24  1  6  0  0  0
  2 12  1  0  0  0  0
  2 27  1  0  0  0  0
  3  4  1  0  0  0  0
  5 25  1  1  0  0  0
  5 27  1  0  0  0  0
  5  6  1  0  0  0  0
  6 18  2  0  0  0  0
  6 28  1  0  0  0  0
  7 19  1  6  0  0  0
  7 17  1  0  0  0  0
  7 24  1  0  0  0  0
  9 26  1  0  0  0  0
 10 17  1  0  0  0  0
 11  3  2  0  0  0  0
 12  8  1  6  0  0  0
 12 13  1  0  0  0  0
 13 11  1  0  0  0  0
 13 22  2  0  0  0  0
 14 22  1  0  0  0  0
 14 23  1  1  0  0  0
 15  9  2  0  0  0  0
 16 19  1  0  0  0  0
 17  8  1  1  0  0  0
 18 15  1  0  0  0  0
 20 10  1  0  0  0  0
 21  4  2  0  0  0  0
 22 21  1  0  0  0  0
 27 14  1  0  0  0  0
 28 23  1  0  0  0  0
 28  9  1  0  0  0  0
 29 20  1  0  0  0  0
 30 32  1  0  0  0  0
 30 29  1  0  0  0  0
 31 30  2  0  0  0  0
M  END
>  <MODEL>
8

>  <REMARK>
 VINA RESULT:      -7.0      1.999      2.647
  Name = 
  1 active torsions:
  status: ('A' for Active; 'I' for Inactive)
    1  A    between atoms: CA_29  and  C_30
                            x       y       z     vdW  Elec       q    Type
                         _______ _______ _______ _____ _____    ______ ____

>  <TORSDO>
F 1

$$$$
=
 OpenBabel11112416293D

 32 37  0  0  1  0  0  0  0  0999 V2000
  193.0290  172.0070  143.0110 N   0  0  0  0  0  2  0  0  0  0  0  0
  189.0650  175.7220  143.6310 C   0  0  1  0  0  3  0  0  0  0  0  0
  186.5120  177.4080  139.7140 C   0  0  0  0  0  3  0  0  0  0  0  0
  185.3930  177.5710  140.5310 C   0  0  0  0  0  3  0  0  0  0  0  0
  188.2440  176.2310  146.0130 C   0  0  2  0  0  3  0  0  0  0  0  0
  187.1510  176.9550  146.7540 C   0  0  0  0  0  0  0  0  0  0  0  0
  190.9150  174.4490  143.4590 C   0  0  1  0  0  3  0  0  0  0  0  0
  189.8870  175.2900  141.3210 C   0  0  0  0  0  2  0  0  0  0  0  0
  185.2000  178.0330  147.1400 C   0  0  0  0  0  0  0  0  0  0  0  0
  191.8320  173.7790  141.1980 N   0  0  0  0  0  2  0  0  0  0  0  0
  187.7220  176.9870  140.2680 C   0  0  0  0  0  3  0  0  0  0  0  0
  189.1660  176.3070  142.2110 C   0  0  1  0  0  3  0  0  0  0  0  0
  187.8280  176.7130  141.6400 C   0  0  0  0  0  0  0  0  0  0  0  0
  186.7710  176.6310  143.9600 C   0  0  2  0  0  3  0  0  0  0  0  0
  186.1060  178.3920  148.0340 C   0  0  0  0  0  3  0  0  0  0  0  0
  192.2530  172.4650  144.1620 C   0  0  0  0  0  2  0  0  0  0  0  0
  191.1880  174.8350  141.9860 C   0  0  2  0  0  3  0  0  0  0  0  0
  187.3380  177.7320  147.7710 N   0  0  0  0  0  0  0  0  0  0  0  0
  192.1740  173.9850  144.1750 C   0  0  0  0  0  2  0  0  0  0  0  0
  191.1660  172.4950  141.4070 C   0  0  0  0  0  2  0  0  0  0  0  0
  185.4900  177.3310  141.9020 C   0  0  0  0  0  3  0  0  0  0  0  0
  186.7090  176.9380  142.4790 C   0  0  0  0  0  0  0  0  0  0  0  0
  185.8590  177.5530  144.7830 C   0  0  0  0  0  2  0  0  0  0  0  0
  190.3650  175.5480  144.1410 O   0  0  0  0  0  0  0  0  0  0  0  0
  189.6020  176.5180  146.6460 C   0  0  0  0  0  1  0  0  0  0  0  0
  183.7940  178.5190  147.1310 C   0  0  0  0  0  1  0  0  0  0  0  0
  188.2180  176.6440  144.5180 C   0  0  2  0  0  3  0  0  0  0  0  0
  185.7700  177.0250  146.2070 C   0  0  1  0  0  3  0  0  0  0  0  0
  192.1670  171.4730  141.9480 C   0  0  2  0  0  3  0  0  0  0  0  0
  191.5030  170.1940  142.3500 C   0  0  0  0  0  0  0  0  0  0  0  0
  192.2060  169.2190  143.0480 O   0  0  0  0  0  1  0  0  0  0  0  0
  190.3040  169.9870  142.0280 O   0  0  0  0  0  0  0  0  0  0  0  0
  1 16  1  0  0  0  0
  2 24  1  1  0  0  0
  2 27  1  0  0  0  0
  3 11  2  0  0  0  0
  3  4  1  0  0  0  0
  4 21  2  0  0  0  0
  5 25  1  1  0  0  0
  5  6  1  0  0  0  0
  6 18  2  0  0  0  0
  7 24  1  0  0  0  0
  7 19  1  1  0  0  0
  9 15  2  0  0  0  0
 10 20  1  0  0  0  0
 10 17  1  0  0  0  0
 11 13  1  0  0  0  0
 12  8  1  6  0  0  0
 12  2  1  0  0  0  0
 13 12  1  0  0  0  0
 13 22  2  0  0  0  0
 14 27  1  0  0  0  0
 14 23  1  1  0  0  0
 16 19  1  0  0  0  0
 17  8  1  6  0  0  0
 17  7  1  0  0  0  0
 18 15  1  0  0  0  0
 20 29  1  0  0  0  0
 21 22  1  0  0  0  0
 22 14  1  0  0  0  0
 23 28  1  0  0  0  0
 26  9  1  0  0  0  0
 27  5  1  0  0  0  0
 28  6  1  0  0  0  0
 28  9  1  0  0  0  0
 29 30  1  0  0  0  0
 29  1  1  0  0  0  0
 30 31  1  0  0  0  0
 32 30  2  0  0  0  0
M  END
>  <MODEL>
9

>  <REMARK>
 VINA RESULT:      -7.0      2.933      5.161
  Name = 
  1 active torsions:
  status: ('A' for Active; 'I' for Inactive)
    1  A    between atoms: CA_29  and  C_30
                            x       y       z     vdW  Elec       q    Type
                         _______ _______ _______ _____ _____    ______ ____

>  <TORSDO>
F 1

$$$$
