=
 OpenBabel11112416443D

 32 37  0  0  1  0  0  0  0  0999 V2000
  191.0620  174.9210  144.6300 C   0  0  0  0  0  2  0  0  0  0  0  0
  187.5300  177.3190  143.2770 C   0  0  2  0  0  3  0  0  0  0  0  0
  186.0910  177.9570  147.9490 C   0  0  0  0  0  3  0  0  0  0  0  0
  184.7630  178.0730  147.5350 C   0  0  0  0  0  3  0  0  0  0  0  0
  185.8130  177.6010  141.4190 C   0  0  0  0  0  0  0  0  0  0  0  0
  184.5990  178.3220  140.9140 C   0  0  1  0  0  3  0  0  0  0  0  0
  190.0220  177.3070  142.8390 C   0  0  1  0  0  3  0  0  0  0  0  0
  189.0850  177.3460  145.1120 O   0  0  0  0  0  0  0  0  0  0  0  0
  182.2950  178.0940  141.4710 C   0  0  2  0  0  3  0  0  0  0  0  0
  191.4930  177.4300  144.9900 C   0  0  0  0  0  2  0  0  0  0  0  0
  187.1130  177.8950  147.0000 C   0  0  0  0  0  3  0  0  0  0  0  0
  187.9260  177.9720  144.6160 C   0  0  2  0  0  3  0  0  0  0  0  0
  186.8170  177.9280  145.6290 C   0  0  0  0  0  0  0  0  0  0  0  0
  185.1780  178.1150  143.7630 C   0  0  0  0  0  0  0  0  0  0  0  0
  182.4370  177.7190  140.0650 N   0  0  0  0  0  2  0  0  0  0  0  0
  189.9550  175.1130  143.5890 C   0  0  0  0  0  2  0  0  0  0  0  0
  190.1620  177.7880  144.3160 C   0  0  1  0  0  3  0  0  0  0  0  0
  183.8720  177.5740  139.8150 C   0  0  0  0  0  2  0  0  0  0  0  0
  190.3810  175.9630  142.5510 O   0  0  0  0  0  0  0  0  0  0  0  0
  192.0850  176.0650  144.6200 C   0  0  1  0  0  3  0  0  0  0  0  0
  184.4600  178.1320  146.1730 C   0  0  0  0  0  3  0  0  0  0  0  0
  185.4820  178.0670  145.2100 C   0  0  0  0  0  0  0  0  0  0  0  0
  183.9360  178.4030  143.3520 C   0  0  0  0  0  3  0  0  0  0  0  0
  188.6420  177.6580  142.2760 C   0  0  0  0  0  2  0  0  0  0  0  0
  186.5030  176.8980  140.6300 O   0  0  0  0  0  0  0  0  0  0  0  0
  181.3660  179.2880  141.5880 C   0  0  0  0  0  1  0  0  0  0  0  0
  186.2050  177.7710  142.8010 N   0  0  0  0  0  0  0  0  0  0  0  0
  183.6110  178.4390  141.9590 N   0  0  0  0  0  0  0  0  0  0  0  0
  193.2430  175.7510  145.5540 C   0  0  0  0  0  2  0  0  0  0  0  0
  194.4300  176.6090  145.2530 C   0  0  0  0  0  0  0  0  0  0  0  0
  195.2420  176.3480  144.0330 C   0  0  0  0  0  1  0  0  0  0  0  0
  194.7460  177.5110  146.0120 O   0  0  0  0  0  0  0  0  0  0  0  0
  2 24  1  6  0  0  0
  2 12  1  0  0  0  0
  4  3  1  0  0  0  0
  5 27  1  0  0  0  0
  6 18  1  6  0  0  0
  6  5  1  0  0  0  0
  6 28  1  0  0  0  0
  7 24  1  1  0  0  0
  7 17  1  0  0  0  0
  9 26  1  6  0  0  0
  9 28  1  0  0  0  0
 11  3  2  0  0  0  0
 12  8  1  1  0  0  0
 12 13  1  0  0  0  0
 13 11  1  0  0  0  0
 14 22  1  0  0  0  0
 15  9  1  0  0  0  0
 16  1  1  0  0  0  0
 17 10  1  1  0  0  0
 17  8  1  0  0  0  0
 18 15  1  0  0  0  0
 19  7  1  0  0  0  0
 19 16  1  0  0  0  0
 20  1  1  0  0  0  0
 20 10  1  0  0  0  0
 20 29  1  1  0  0  0
 21  4  2  0  0  0  0
 22 13  2  0  0  0  0
 22 21  1  0  0  0  0
 23 14  2  0  0  0  0
 25  5  2  0  0  0  0
 27  2  1  0  0  0  0
 27 14  1  0  0  0  0
 28 23  1  0  0  0  0
 30 29  1  0  0  0  0
 30 32  2  0  0  0  0
 31 30  1  0  0  0  0
M  END
>  <MODEL>
1

>  <REMARK>
 VINA RESULT:      -9.3      0.000      0.000
  Name = 
  2 active torsions:
  status: ('A' for Active; 'I' for Inactive)
    1  A    between atoms: C_20  and  C_29
    2  A    between atoms: C_29  and  C_30
                            x       y       z     vdW  Elec       q    Type
                         _______ _______ _______ _____ _____    ______ ____

>  <TORSDO>
F 2

$$$$
=
 OpenBabel11112416443D

 32 37  0  0  1  0  0  0  0  0999 V2000
  194.9040  176.2340  144.7160 C   0  0  0  0  0  2  0  0  0  0  0  0
  190.5460  176.3080  145.7450 C   0  0  2  0  0  3  0  0  0  0  0  0
  189.3950  174.5560  141.2840 C   0  0  0  0  0  3  0  0  0  0  0  0
  188.1520  175.1880  141.3450 C   0  0  0  0  0  3  0  0  0  0  0  0
  188.7580  177.5390  147.0750 C   0  0  0  0  0  0  0  0  0  0  0  0
  187.3070  177.6650  147.4340 C   0  0  1  0  0  3  0  0  0  0  0  0
  192.6720  175.4350  146.8050 C   0  0  1  0  0  3  0  0  0  0  0  0
  192.0400  174.9040  144.4890 O   0  0  0  0  0  0  0  0  0  0  0  0
  185.4730  178.6080  146.2430 C   0  0  2  0  0  3  0  0  0  0  0  0
  194.0740  173.8630  145.2650 C   0  0  0  0  0  2  0  0  0  0  0  0
  190.2280  174.5470  142.4040 C   0  0  0  0  0  3  0  0  0  0  0  0
  190.6840  175.0800  144.8240 C   0  0  2  0  0  3  0  0  0  0  0  0
  189.8350  175.1870  143.5900 C   0  0  0  0  0  0  0  0  0  0  0  0
  188.1600  176.4650  144.9180 C   0  0  0  0  0  0  0  0  0  0  0  0
  185.6580  179.4080  147.4530 N   0  0  0  0  0  2  0  0  0  0  0  0
  193.7600  176.9570  145.4330 C   0  0  0  0  0  2  0  0  0  0  0  0
  192.6850  174.4010  145.6370 C   0  0  1  0  0  3  0  0  0  0  0  0
  186.9500  179.0160  148.0180 C   0  0  0  0  0  2  0  0  0  0  0  0
  193.6200  176.4920  146.7540 O   0  0  0  0  0  0  0  0  0  0  0  0
  195.2260  174.8710  145.3450 C   0  0  1  0  0  3  0  0  0  0  0  0
  187.7410  175.8050  142.5280 C   0  0  0  0  0  3  0  0  0  0  0  0
  188.5740  175.8040  143.6610 C   0  0  0  0  0  0  0  0  0  0  0  0
  186.9070  176.9180  145.0530 C   0  0  0  0  0  3  0  0  0  0  0  0
  191.2550  175.9560  147.0590 C   0  0  0  0  0  2  0  0  0  0  0  0
  189.6320  178.1310  147.7660 O   0  0  0  0  0  0  0  0  0  0  0  0
  184.0910  177.9810  146.2530 C   0  0  0  0  0  1  0  0  0  0  0  0
  189.1350  176.6890  145.9670 N   0  0  0  0  0  0  0  0  0  0  0  0
  186.4860  177.5770  146.2510 N   0  0  0  0  0  0  0  0  0  0  0  0
  196.4650  174.2680  144.7020 C   0  0  0  0  0  2  0  0  0  0  0  0
  197.0630  173.2070  145.5700 C   0  0  0  0  0  0  0  0  0  0  0  0
  197.4580  171.9000  144.9760 C   0  0  0  0  0  1  0  0  0  0  0  0
  197.2110  173.4010  146.7660 O   0  0  0  0  0  0  0  0  0  0  0  0
  1 20  1  0  0  0  0
  1 16  1  0  0  0  0
  2 27  1  0  0  0  0
  2 24  1  1  0  0  0
  3  4  2  0  0  0  0
  3 11  1  0  0  0  0
  4 21  1  0  0  0  0
  5  6  1  0  0  0  0
  5 25  2  0  0  0  0
  6 18  1  6  0  0  0
  7 24  1  6  0  0  0
  8 12  1  0  0  0  0
  8 17  1  0  0  0  0
  9 28  1  0  0  0  0
  9 26  1  1  0  0  0
  9 15  1  0  0  0  0
 10 20  1  0  0  0  0
 11 13  2  0  0  0  0
 12 13  1  6  0  0  0
 12  2  1  0  0  0  0
 13 22  1  0  0  0  0
 14 23  2  0  0  0  0
 14 27  1  0  0  0  0
 15 18  1  0  0  0  0
 16 19  1  0  0  0  0
 17 10  1  6  0  0  0
 17  7  1  0  0  0  0
 19  7  1  0  0  0  0
 20 29  1  6  0  0  0
 21 22  2  0  0  0  0
 22 14  1  0  0  0  0
 23 28  1  0  0  0  0
 27  5  1  0  0  0  0
 28  6  1  0  0  0  0
 29 30  1  0  0  0  0
 30 32  2  0  0  0  0
 31 30  1  0  0  0  0
M  END
>  <MODEL>
2

>  <REMARK>
 VINA RESULT:      -8.7      3.168      5.524
  Name = 
  2 active torsions:
  status: ('A' for Active; 'I' for Inactive)
    1  A    between atoms: C_20  and  C_29
    2  A    between atoms: C_29  and  C_30
                            x       y       z     vdW  Elec       q    Type
                         _______ _______ _______ _____ _____    ______ ____

>  <TORSDO>
F 2

$$$$
=
 OpenBabel11112416443D

 32 37  0  0  1  0  0  0  0  0999 V2000
  188.0930  175.8180  146.9100 C   0  0  0  0  0  2  0  0  0  0  0  0
  191.1220  175.9260  143.6130 C   0  0  2  0  0  3  0  0  0  0  0  0
  188.3550  172.8940  140.8830 C   0  0  0  0  0  3  0  0  0  0  0  0
  189.4970  172.4140  140.2390 C   0  0  0  0  0  3  0  0  0  0  0  0
  193.6070  176.1120  143.0960 C   0  0  0  0  0  0  0  0  0  0  0  0
  194.6900  176.1090  142.0580 C   0  0  1  0  0  3  0  0  0  0  0  0
  189.8980  177.6180  145.0420 C   0  0  1  0  0  3  0  0  0  0  0  0
  188.7270  175.8430  143.8080 O   0  0  0  0  0  0  0  0  0  0  0  0
  195.7280  174.3190  140.8790 C   0  0  2  0  0  3  0  0  0  0  0  0
  187.3010  177.3680  145.0180 C   0  0  0  0  0  2  0  0  0  0  0  0
  188.4520  173.9780  141.7580 C   0  0  0  0  0  3  0  0  0  0  0  0
  189.7760  175.8100  142.8710 C   0  0  2  0  0  3  0  0  0  0  0  0
  189.6940  174.5780  142.0150 C   0  0  0  0  0  0  0  0  0  0  0  0
  192.1460  174.7570  141.6160 C   0  0  0  0  0  0  0  0  0  0  0  0
  196.7610  174.9530  141.6980 N   0  0  0  0  0  2  0  0  0  0  0  0
  189.5740  175.8580  146.5190 C   0  0  0  0  0  2  0  0  0  0  0  0
  188.6230  177.1730  144.2620 C   0  0  1  0  0  3  0  0  0  0  0  0
  196.0680  175.8430  142.6290 C   0  0  0  0  0  2  0  0  0  0  0  0
  190.0250  177.1850  146.3890 O   0  0  0  0  0  0  0  0  0  0  0  0
  187.3470  177.1040  146.5270 C   0  0  1  0  0  3  0  0  0  0  0  0
  190.7340  173.0210  140.4690 C   0  0  0  0  0  3  0  0  0  0  0  0
  190.8420  174.1110  141.3510 C   0  0  0  0  0  0  0  0  0  0  0  0
  193.2150  174.4290  140.8790 C   0  0  0  0  0  3  0  0  0  0  0  0
  191.1640  177.3290  144.2320 C   0  0  0  0  0  2  0  0  0  0  0  0
  193.8530  176.5300  144.2610 O   0  0  0  0  0  0  0  0  0  0  0  0
  196.1050  174.4240  139.4130 C   0  0  0  0  0  1  0  0  0  0  0  0
  192.2780  175.6830  142.7230 N   0  0  0  0  0  0  0  0  0  0  0  0
  194.4920  175.0260  141.1260 N   0  0  0  0  0  0  0  0  0  0  0  0
  185.9300  177.0800  147.0760 C   0  0  0  0  0  2  0  0  0  0  0  0
  185.2840  178.4250  146.9650 C   0  0  0  0  0  0  0  0  0  0  0  0
  184.0290  178.5810  146.1790 C   0  0  0  0  0  1  0  0  0  0  0  0
  185.7910  179.3970  147.5000 O   0  0  0  0  0  0  0  0  0  0  0  0
  2 24  1  6  0  0  0
  3 11  1  0  0  0  0
  4 21  1  0  0  0  0
  4  3  2  0  0  0  0
  5 25  2  0  0  0  0
  6 18  1  1  0  0  0
  6  5  1  0  0  0  0
  7 24  1  6  0  0  0
  7 19  1  0  0  0  0
  8 17  1  0  0  0  0
  9 26  1  6  0  0  0
  9 28  1  0  0  0  0
  9 15  1  0  0  0  0
 10 20  1  0  0  0  0
 11 13  2  0  0  0  0
 12 13  1  1  0  0  0
 12  2  1  0  0  0  0
 12  8  1  0  0  0  0
 14 27  1  0  0  0  0
 15 18  1  0  0  0  0
 16  1  1  0  0  0  0
 17 10  1  1  0  0  0
 17  7  1  0  0  0  0
 19 16  1  0  0  0  0
 20  1  1  0  0  0  0
 20 29  1  6  0  0  0
 21 22  2  0  0  0  0
 22 14  1  0  0  0  0
 22 13  1  0  0  0  0
 23 28  1  0  0  0  0
 23 14  2  0  0  0  0
 27  5  1  0  0  0  0
 27  2  1  0  0  0  0
 28  6  1  0  0  0  0
 30 29  1  0  0  0  0
 30 32  2  0  0  0  0
 31 30  1  0  0  0  0
M  END
>  <MODEL>
3

>  <REMARK>
 VINA RESULT:      -8.6      3.732      8.526
  Name = 
  2 active torsions:
  status: ('A' for Active; 'I' for Inactive)
    1  A    between atoms: C_20  and  C_29
    2  A    between atoms: C_29  and  C_30
                            x       y       z     vdW  Elec       q    Type
                         _______ _______ _______ _____ _____    ______ ____

>  <TORSDO>
F 2

$$$$
=
 OpenBabel11112416443D

 32 37  0  0  1  0  0  0  0  0999 V2000
  189.7340  171.5600  141.4780 C   0  0  0  0  0  2  0  0  0  0  0  0
  188.5880  175.3370  143.5940 C   0  0  2  0  0  3  0  0  0  0  0  0
  192.4160  174.8570  146.6630 C   0  0  0  0  0  3  0  0  0  0  0  0
  191.7230  175.5560  147.6530 C   0  0  0  0  0  3  0  0  0  0  0  0
  186.6250  176.7930  144.3050 C   0  0  0  0  0  0  0  0  0  0  0  0
  186.1520  178.0140  145.0370 C   0  0  1  0  0  3  0  0  0  0  0  0
  188.9440  174.6070  141.1970 C   0  0  1  0  0  3  0  0  0  0  0  0
  190.6180  174.2170  142.9550 O   0  0  0  0  0  0  0  0  0  0  0  0
  185.8470  178.4290  147.3620 C   0  0  2  0  0  3  0  0  0  0  0  0
  191.2610  173.4950  140.7450 C   0  0  0  0  0  2  0  0  0  0  0  0
  191.8830  174.7610  145.3760 C   0  0  0  0  0  3  0  0  0  0  0  0
  190.1280  175.3320  143.6610 C   0  0  2  0  0  3  0  0  0  0  0  0
  190.6440  175.3440  145.0720 C   0  0  0  0  0  0  0  0  0  0  0  0
  188.6560  176.6920  145.7300 C   0  0  0  0  0  0  0  0  0  0  0  0
  184.5300  178.5130  146.7330 N   0  0  0  0  0  2  0  0  0  0  0  0
  188.6060  172.4560  141.9990 C   0  0  0  0  0  2  0  0  0  0  0  0
  190.4510  174.4930  141.5830 C   0  0  1  0  0  3  0  0  0  0  0  0
  184.6770  177.9710  145.3820 C   0  0  0  0  0  2  0  0  0  0  0  0
  188.2200  173.3960  141.0260 O   0  0  0  0  0  0  0  0  0  0  0  0
  190.5260  172.2130  140.3360 C   0  0  1  0  0  3  0  0  0  0  0  0
  190.5010  176.1610  147.3530 C   0  0  0  0  0  3  0  0  0  0  0  0
  189.9550  176.0680  146.0610 C   0  0  0  0  0  0  0  0  0  0  0  0
  188.0650  177.5120  146.6100 C   0  0  0  0  0  3  0  0  0  0  0  0
  188.2120  175.5790  142.1260 C   0  0  0  0  0  2  0  0  0  0  0  0
  185.8510  176.1960  143.5070 O   0  0  0  0  0  0  0  0  0  0  0  0
  186.1930  179.7610  148.0000 C   0  0  0  0  0  1  0  0  0  0  0  0
  187.9900  176.3510  144.4880 N   0  0  0  0  0  0  0  0  0  0  0  0
  186.8000  178.1140  146.3210 N   0  0  0  0  0  0  0  0  0  0  0  0
  191.5250  171.2280  139.7500 C   0  0  0  0  0  2  0  0  0  0  0  0
  190.8300  170.0620  139.1220 C   0  0  0  0  0  0  0  0  0  0  0  0
  189.8600  170.2870  138.0140 C   0  0  0  0  0  1  0  0  0  0  0  0
  191.0400  168.9300  139.5240 O   0  0  0  0  0  0  0  0  0  0  0  0
  1 16  1  0  0  0  0
  2 24  1  6  0  0  0
  2 12  1  0  0  0  0
  2 27  1  0  0  0  0
  3  4  1  0  0  0  0
  5 27  1  0  0  0  0
  5  6  1  0  0  0  0
  6 18  1  1  0  0  0
  6 28  1  0  0  0  0
  7 17  1  0  0  0  0
  7 24  1  1  0  0  0
  9 26  1  6  0  0  0
 11  3  2  0  0  0  0
 12  8  1  1  0  0  0
 12 13  1  0  0  0  0
 13 11  1  0  0  0  0
 13 22  2  0  0  0  0
 14 22  1  0  0  0  0
 14 23  2  0  0  0  0
 15  9  1  0  0  0  0
 17 10  1  6  0  0  0
 17  8  1  0  0  0  0
 18 15  1  0  0  0  0
 19  7  1  0  0  0  0
 19 16  1  0  0  0  0
 20 29  1  1  0  0  0
 20 10  1  0  0  0  0
 20  1  1  0  0  0  0
 21  4  2  0  0  0  0
 22 21  1  0  0  0  0
 25  5  2  0  0  0  0
 27 14  1  0  0  0  0
 28 23  1  0  0  0  0
 28  9  1  0  0  0  0
 30 32  2  0  0  0  0
 30 29  1  0  0  0  0
 31 30  1  0  0  0  0
M  END
>  <MODEL>
4

>  <REMARK>
 VINA RESULT:      -8.3      3.410      5.897
  Name = 
  2 active torsions:
  status: ('A' for Active; 'I' for Inactive)
    1  A    between atoms: C_20  and  C_29
    2  A    between atoms: C_29  and  C_30
                            x       y       z     vdW  Elec       q    Type
                         _______ _______ _______ _____ _____    ______ ____

>  <TORSDO>
F 2

$$$$
=
 OpenBabel11112416443D

 32 37  0  0  1  0  0  0  0  0999 V2000
  186.9080  178.4840  142.0510 C   0  0  0  0  0  2  0  0  0  0  0  0
  190.1060  175.6250  143.3370 C   0  0  2  0  0  3  0  0  0  0  0  0
  190.0670  177.5260  147.8850 C   0  0  0  0  0  3  0  0  0  0  0  0
  191.4050  177.1660  148.0590 C   0  0  0  0  0  3  0  0  0  0  0  0
  192.1650  174.3440  142.5640 C   0  0  0  0  0  0  0  0  0  0  0  0
  193.2970  173.4270  142.9230 C   0  0  1  0  0  3  0  0  0  0  0  0
  187.8820  175.4790  142.1380 C   0  0  1  0  0  3  0  0  0  0  0  0
  188.1410  176.6260  144.2980 O   0  0  0  0  0  0  0  0  0  0  0  0
  195.3610  173.8450  144.0350 C   0  0  2  0  0  3  0  0  0  0  0  0
  185.8920  176.5660  143.4290 C   0  0  0  0  0  2  0  0  0  0  0  0
  189.3750  177.1050  146.7490 C   0  0  0  0  0  3  0  0  0  0  0  0
  189.2380  175.7970  144.6000 C   0  0  2  0  0  3  0  0  0  0  0  0
  190.0170  176.3380  145.7640 C   0  0  0  0  0  0  0  0  0  0  0  0
  192.0240  175.1360  144.9120 C   0  0  0  0  0  0  0  0  0  0  0  0
  195.6830  173.4190  142.6740 N   0  0  0  0  0  2  0  0  0  0  0  0
  188.1910  177.7330  141.6830 C   0  0  0  0  0  2  0  0  0  0  0  0
  187.2530  175.8630  143.5130 C   0  0  1  0  0  3  0  0  0  0  0  0
  194.4300  173.4530  141.9180 C   0  0  0  0  0  2  0  0  0  0  0  0
  187.8970  176.4750  141.1250 O   0  0  0  0  0  0  0  0  0  0  0  0
  185.7140  177.5430  142.2600 C   0  0  1  0  0  3  0  0  0  0  0  0
  192.0460  176.3820  147.0970 C   0  0  0  0  0  3  0  0  0  0  0  0
  191.3570  175.9560  145.9470 C   0  0  0  0  0  0  0  0  0  0  0  0
  193.2450  174.6350  145.1430 C   0  0  0  0  0  3  0  0  0  0  0  0
  189.2600  174.8400  142.3250 C   0  0  0  0  0  2  0  0  0  0  0  0
  191.8730  174.5410  141.3520 O   0  0  0  0  0  0  0  0  0  0  0  0
  195.9580  172.8670  145.0300 C   0  0  0  0  0  1  0  0  0  0  0  0
  191.3880  174.9470  143.6240 N   0  0  0  0  0  0  0  0  0  0  0  0
  193.9200  173.8530  144.1520 N   0  0  0  0  0  0  0  0  0  0  0  0
  184.4370  178.3420  142.4650 C   0  0  0  0  0  2  0  0  0  0  0  0
  183.5660  178.2910  141.2500 C   0  0  0  0  0  0  0  0  0  0  0  0
  182.0840  178.2910  141.4000 C   0  0  0  0  0  1  0  0  0  0  0  0
  184.0640  178.2300  140.1380 O   0  0  0  0  0  0  0  0  0  0  0  0
  1 20  1  0  0  0  0
  2 24  1  6  0  0  0
  2 27  1  0  0  0  0
  2 12  1  0  0  0  0
  3  4  1  0  0  0  0
  5  6  1  0  0  0  0
  5 27  1  0  0  0  0
  6 18  1  6  0  0  0
  6 28  1  0  0  0  0
  7 24  1  1  0  0  0
  7 17  1  0  0  0  0
  9 28  1  0  0  0  0
  9 26  1  1  0  0  0
 11  3  2  0  0  0  0
 12  8  1  6  0  0  0
 12 13  1  0  0  0  0
 13 22  2  0  0  0  0
 13 11  1  0  0  0  0
 14 23  2  0  0  0  0
 14 22  1  0  0  0  0
 15  9  1  0  0  0  0
 16  1  1  0  0  0  0
 17 10  1  6  0  0  0
 17  8  1  0  0  0  0
 18 15  1  0  0  0  0
 19 16  1  0  0  0  0
 19  7  1  0  0  0  0
 20 29  1  1  0  0  0
 20 10  1  0  0  0  0
 21  4  2  0  0  0  0
 22 21  1  0  0  0  0
 25  5  2  0  0  0  0
 27 14  1  0  0  0  0
 28 23  1  0  0  0  0
 30 31  1  0  0  0  0
 30 29  1  0  0  0  0
 32 30  2  0  0  0  0
M  END
>  <MODEL>
5

>  <REMARK>
 VINA RESULT:      -8.0      3.395      8.382
  Name = 
  2 active torsions:
  status: ('A' for Active; 'I' for Inactive)
    1  A    between atoms: C_20  and  C_29
    2  A    between atoms: C_29  and  C_30
                            x       y       z     vdW  Elec       q    Type
                         _______ _______ _______ _____ _____    ______ ____

>  <TORSDO>
F 2

$$$$
=
 OpenBabel11112416443D

 32 37  0  0  1  0  0  0  0  0999 V2000
  186.8160  176.4480  146.5330 C   0  0  0  0  0  2  0  0  0  0  0  0
  190.8750  175.5280  144.8790 C   0  0  2  0  0  3  0  0  0  0  0  0
  188.9250  172.2870  141.7190 C   0  0  0  0  0  3  0  0  0  0  0  0
  190.1190  171.5630  141.7080 C   0  0  0  0  0  3  0  0  0  0  0  0
  193.3470  175.3380  145.4570 C   0  0  0  0  0  0  0  0  0  0  0  0
  194.7340  174.9990  144.9970 C   0  0  1  0  0  3  0  0  0  0  0  0
  189.5170  177.6060  145.3720 C   0  0  1  0  0  3  0  0  0  0  0  0
  188.6320  175.7400  144.0380 O   0  0  0  0  0  0  0  0  0  0  0  0
  195.8060  172.8990  144.6640 C   0  0  2  0  0  3  0  0  0  0  0  0
  187.1510  177.6290  144.2730 C   0  0  0  0  0  2  0  0  0  0  0  0
  188.8630  173.5160  142.3770 C   0  0  0  0  0  3  0  0  0  0  0  0
  189.9440  175.3970  143.6580 C   0  0  2  0  0  3  0  0  0  0  0  0
  189.9850  174.0250  143.0470 C   0  0  0  0  0  0  0  0  0  0  0  0
  192.3780  173.8570  143.7160 C   0  0  0  0  0  0  0  0  0  0  0  0
  196.5220  173.5820  145.7400 N   0  0  0  0  0  2  0  0  0  0  0  0
  188.3090  176.2490  146.8130 C   0  0  0  0  0  2  0  0  0  0  0  0
  188.6030  177.1400  144.1970 C   0  0  1  0  0  3  0  0  0  0  0  0
  195.6910  174.7200  146.1380 C   0  0  0  0  0  2  0  0  0  0  0  0
  189.0110  177.4620  146.6910 O   0  0  0  0  0  0  0  0  0  0  0  0
  186.5380  177.6930  145.6770 C   0  0  1  0  0  3  0  0  0  0  0  0
  191.2490  172.0730  142.3510 C   0  0  0  0  0  3  0  0  0  0  0  0
  191.1940  173.3090  143.0190 C   0  0  0  0  0  0  0  0  0  0  0  0
  193.5720  173.2680  143.5680 C   0  0  0  0  0  3  0  0  0  0  0  0
  190.9250  177.0200  145.2370 C   0  0  0  0  0  2  0  0  0  0  0  0
  193.1770  175.9690  146.5370 O   0  0  0  0  0  0  0  0  0  0  0  0
  196.7510  172.6470  143.5040 C   0  0  0  0  0  1  0  0  0  0  0  0
  192.2240  174.9800  144.6200 N   0  0  0  0  0  0  0  0  0  0  0  0
  194.7290  173.7680  144.2460 N   0  0  0  0  0  0  0  0  0  0  0  0
  185.0420  177.9350  145.5610 C   0  0  0  0  0  2  0  0  0  0  0  0
  184.7200  178.7560  144.3530 C   0  0  0  0  0  0  0  0  0  0  0  0
  185.1910  180.1660  144.2680 C   0  0  0  0  0  1  0  0  0  0  0  0
  184.0550  178.2810  143.4460 O   0  0  0  0  0  0  0  0  0  0  0  0
  1 16  1  0  0  0  0
  2 24  1  6  0  0  0
  3 11  1  0  0  0  0
  4  3  2  0  0  0  0
  4 21  1  0  0  0  0
  5 25  2  0  0  0  0
  6  5  1  0  0  0  0
  6 18  1  1  0  0  0
  7 24  1  1  0  0  0
  7 19  1  0  0  0  0
  8 17  1  0  0  0  0
  9 26  1  6  0  0  0
  9 15  1  0  0  0  0
 10 20  1  0  0  0  0
 11 13  2  0  0  0  0
 12 13  1  1  0  0  0
 12  8  1  0  0  0  0
 12  2  1  0  0  0  0
 14 27  1  0  0  0  0
 15 18  1  0  0  0  0
 17 10  1  1  0  0  0
 17  7  1  0  0  0  0
 19 16  1  0  0  0  0
 20 29  1  6  0  0  0
 20  1  1  0  0  0  0
 21 22  2  0  0  0  0
 22 13  1  0  0  0  0
 22 14  1  0  0  0  0
 23 14  2  0  0  0  0
 23 28  1  0  0  0  0
 27  2  1  0  0  0  0
 27  5  1  0  0  0  0
 28  9  1  0  0  0  0
 28  6  1  0  0  0  0
 30 29  1  0  0  0  0
 31 30  1  0  0  0  0
 32 30  2  0  0  0  0
M  END
>  <MODEL>
6

>  <REMARK>
 VINA RESULT:      -7.9      3.623      9.034
  Name = 
  2 active torsions:
  status: ('A' for Active; 'I' for Inactive)
    1  A    between atoms: C_20  and  C_29
    2  A    between atoms: C_29  and  C_30
                            x       y       z     vdW  Elec       q    Type
                         _______ _______ _______ _____ _____    ______ ____

>  <TORSDO>
F 2

$$$$
=
 OpenBabel11112416443D

 32 37  0  0  1  0  0  0  0  0999 V2000
  186.9570  178.4740  142.1610 C   0  0  0  0  0  2  0  0  0  0  0  0
  190.0200  175.3050  142.9550 C   0  0  2  0  0  3  0  0  0  0  0  0
  190.5860  176.9180  147.5790 C   0  0  0  0  0  3  0  0  0  0  0  0
  191.9000  176.4480  147.5940 C   0  0  0  0  0  3  0  0  0  0  0  0
  191.8810  173.9220  141.9060 C   0  0  0  0  0  0  0  0  0  0  0  0
  192.9640  172.9010  142.0970 C   0  0  1  0  0  3  0  0  0  0  0  0
  187.6850  175.4040  141.9860 C   0  0  1  0  0  3  0  0  0  0  0  0
  188.2490  176.3920  144.1660 O   0  0  0  0  0  0  0  0  0  0  0  0
  195.1550  173.0910  143.0110 C   0  0  2  0  0  3  0  0  0  0  0  0
  185.9270  176.5580  143.5310 C   0  0  0  0  0  2  0  0  0  0  0  0
  189.7520  176.6230  146.4990 C   0  0  0  0  0  3  0  0  0  0  0  0
  189.2980  175.4650  144.3080 C   0  0  2  0  0  3  0  0  0  0  0  0
  190.2300  175.8720  145.4140 C   0  0  0  0  0  0  0  0  0  0  0  0
  192.0380  174.5760  144.2960 C   0  0  0  0  0  0  0  0  0  0  0  0
  195.3050  172.7260  141.6030 N   0  0  0  0  0  2  0  0  0  0  0  0
  188.1320  177.6520  141.6230 C   0  0  0  0  0  2  0  0  0  0  0  0
  187.2280  175.7490  143.4370 C   0  0  1  0  0  3  0  0  0  0  0  0
  193.9910  172.9030  140.9830 C   0  0  0  0  0  2  0  0  0  0  0  0
  187.6810  176.4570  141.0310 O   0  0  0  0  0  0  0  0  0  0  0  0
  185.7160  177.6160  142.4420 C   0  0  1  0  0  3  0  0  0  0  0  0
  192.3770  175.6780  146.5300 C   0  0  0  0  0  3  0  0  0  0  0  0
  191.5460  175.3780  145.4370 C   0  0  0  0  0  0  0  0  0  0  0  0
  193.2310  173.9690  144.3720 C   0  0  0  0  0  3  0  0  0  0  0  0
  189.0180  174.6520  141.9950 C   0  0  0  0  0  2  0  0  0  0  0  0
  191.4890  174.2150  140.7430 O   0  0  0  0  0  0  0  0  0  0  0  0
  195.7650  172.0110  143.8850 C   0  0  0  0  0  1  0  0  0  0  0  0
  191.2650  174.5160  143.0720 N   0  0  0  0  0  0  0  0  0  0  0  0
  193.7380  173.2020  143.2760 N   0  0  0  0  0  0  0  0  0  0  0  0
  184.5350  178.4950  142.8200 C   0  0  0  0  0  2  0  0  0  0  0  0
  184.7950  179.2320  144.0950 C   0  0  0  0  0  0  0  0  0  0  0  0
  184.1540  178.7770  145.3590 C   0  0  0  0  0  1  0  0  0  0  0  0
  185.5160  180.2170  144.1000 O   0  0  0  0  0  0  0  0  0  0  0  0
  1 20  1  0  0  0  0
  2 24  1  6  0  0  0
  2 27  1  0  0  0  0
  2 12  1  0  0  0  0
  3  4  1  0  0  0  0
  5  6  1  0  0  0  0
  5 27  1  0  0  0  0
  6 18  1  6  0  0  0
  6 28  1  0  0  0  0
  7 24  1  1  0  0  0
  7 17  1  0  0  0  0
  9 28  1  0  0  0  0
  9 26  1  1  0  0  0
 11  3  2  0  0  0  0
 12  8  1  6  0  0  0
 12 13  1  0  0  0  0
 13 22  2  0  0  0  0
 13 11  1  0  0  0  0
 14 23  2  0  0  0  0
 14 22  1  0  0  0  0
 15  9  1  0  0  0  0
 16  1  1  0  0  0  0
 17 10  1  6  0  0  0
 17  8  1  0  0  0  0
 18 15  1  0  0  0  0
 19 16  1  0  0  0  0
 19  7  1  0  0  0  0
 20 29  1  1  0  0  0
 20 10  1  0  0  0  0
 21  4  2  0  0  0  0
 22 21  1  0  0  0  0
 25  5  2  0  0  0  0
 27 14  1  0  0  0  0
 28 23  1  0  0  0  0
 29 30  1  0  0  0  0
 30 32  2  0  0  0  0
 30 31  1  0  0  0  0
M  END
>  <MODEL>
7

>  <REMARK>
 VINA RESULT:      -7.9      3.482      8.141
  Name = 
  2 active torsions:
  status: ('A' for Active; 'I' for Inactive)
    1  A    between atoms: C_20  and  C_29
    2  A    between atoms: C_29  and  C_30
                            x       y       z     vdW  Elec       q    Type
                         _______ _______ _______ _____ _____    ______ ____

>  <TORSDO>
F 2

$$$$
=
 OpenBabel11112416443D

 32 37  0  0  1  0  0  0  0  0999 V2000
  186.7340  178.9540  142.8490 C   0  0  0  0  0  2  0  0  0  0  0  0
  188.9550  175.1980  141.8430 C   0  0  2  0  0  3  0  0  0  0  0  0
  192.9110  176.7990  144.3100 C   0  0  0  0  0  3  0  0  0  0  0  0
  193.7450  176.0410  143.4860 C   0  0  0  0  0  3  0  0  0  0  0  0
  189.2630  173.3900  140.0780 C   0  0  0  0  0  0  0  0  0  0  0  0
  189.9960  172.1560  139.6420 C   0  0  1  0  0  3  0  0  0  0  0  0
  186.6900  175.7950  142.8000 C   0  0  1  0  0  3  0  0  0  0  0  0
  188.7850  176.7030  143.7110 O   0  0  0  0  0  0  0  0  0  0  0  0
  192.1610  171.8710  138.6930 C   0  0  2  0  0  3  0  0  0  0  0  0
  186.7820  177.3730  144.8760 C   0  0  0  0  0  2  0  0  0  0  0  0
  191.5250  176.6640  144.2110 C   0  0  0  0  0  3  0  0  0  0  0  0
  189.4730  175.5650  143.2470 C   0  0  2  0  0  3  0  0  0  0  0  0
  190.9580  175.7870  143.2740 C   0  0  0  0  0  0  0  0  0  0  0  0
  191.1930  174.0730  141.4830 C   0  0  0  0  0  0  0  0  0  0  0  0
  191.1910  171.4330  137.6910 N   0  0  0  0  0  2  0  0  0  0  0  0
  187.0250  177.8670  141.8110 C   0  0  0  0  0  2  0  0  0  0  0  0
  187.4830  176.2860  144.0510 C   0  0  1  0  0  3  0  0  0  0  0  0
  189.8790  171.8840  138.1560 C   0  0  0  0  0  2  0  0  0  0  0  0
  186.1330  176.7870  141.9480 O   0  0  0  0  0  0  0  0  0  0  0  0
  185.9880  178.4130  144.0770 C   0  0  1  0  0  3  0  0  0  0  0  0
  193.1910  175.1460  142.5680 C   0  0  0  0  0  3  0  0  0  0  0  0
  191.7960  175.0060  142.4590 C   0  0  0  0  0  0  0  0  0  0  0  0
  191.9710  173.2130  140.8120 C   0  0  0  0  0  3  0  0  0  0  0  0
  187.4950  174.7590  142.0120 C   0  0  0  0  0  2  0  0  0  0  0  0
  188.1920  173.7250  139.5010 O   0  0  0  0  0  0  0  0  0  0  0  0
  193.0650  170.7110  139.0690 C   0  0  0  0  0  1  0  0  0  0  0  0
  189.7740  174.1490  141.1980 N   0  0  0  0  0  0  0  0  0  0  0  0
  191.4140  172.3120  139.8500 N   0  0  0  0  0  0  0  0  0  0  0  0
  185.5830  179.5520  144.9990 C   0  0  0  0  0  2  0  0  0  0  0  0
  184.8730  179.0410  146.2110 C   0  0  0  0  0  0  0  0  0  0  0  0
  185.5640  179.0410  147.5300 C   0  0  0  0  0  1  0  0  0  0  0  0
  183.7360  178.6060  146.1210 O   0  0  0  0  0  0  0  0  0  0  0  0
  1 20  1  0  0  0  0
  2 24  1  1  0  0  0
  2 12  1  0  0  0  0
  4  3  2  0  0  0  0
  5 27  1  0  0  0  0
  6 18  1  6  0  0  0
  6 28  1  0  0  0  0
  6  5  1  0  0  0  0
  7 24  1  6  0  0  0
  7 17  1  0  0  0  0
  8 17  1  0  0  0  0
  9 26  1  1  0  0  0
  9 28  1  0  0  0  0
 11  3  1  0  0  0  0
 12 13  1  6  0  0  0
 12  8  1  0  0  0  0
 13 11  2  0  0  0  0
 14 22  1  0  0  0  0
 15 18  1  0  0  0  0
 15  9  1  0  0  0  0
 16 19  1  0  0  0  0
 16  1  1  0  0  0  0
 17 10  1  6  0  0  0
 19  7  1  0  0  0  0
 20 10  1  0  0  0  0
 20 29  1  1  0  0  0
 21  4  1  0  0  0  0
 22 21  2  0  0  0  0
 22 13  1  0  0  0  0
 23 14  2  0  0  0  0
 25  5  2  0  0  0  0
 27 14  1  0  0  0  0
 27  2  1  0  0  0  0
 28 23  1  0  0  0  0
 29 30  1  0  0  0  0
 30 31  1  0  0  0  0
 32 30  2  0  0  0  0
M  END
>  <MODEL>
8

>  <REMARK>
 VINA RESULT:      -7.8      3.845      7.768
  Name = 
  2 active torsions:
  status: ('A' for Active; 'I' for Inactive)
    1  A    between atoms: C_20  and  C_29
    2  A    between atoms: C_29  and  C_30
                            x       y       z     vdW  Elec       q    Type
                         _______ _______ _______ _____ _____    ______ ____

>  <TORSDO>
F 2

$$$$
=
 OpenBabel11112416443D

 32 37  0  0  1  0  0  0  0  0999 V2000
  194.3380  174.8760  144.2420 C   0  0  0  0  0  2  0  0  0  0  0  0
  189.9260  175.5700  143.9150 C   0  0  2  0  0  3  0  0  0  0  0  0
  189.8280  173.3060  139.5370 C   0  0  0  0  0  3  0  0  0  0  0  0
  188.7230  174.0690  139.1550 C   0  0  0  0  0  3  0  0  0  0  0  0
  188.0370  177.1700  144.5080 C   0  0  0  0  0  0  0  0  0  0  0  0
  186.5780  177.5030  144.4030 C   0  0  1  0  0  3  0  0  0  0  0  0
  191.5190  174.6420  145.6490 C   0  0  1  0  0  3  0  0  0  0  0  0
  191.4910  173.8420  143.3240 O   0  0  0  0  0  0  0  0  0  0  0  0
  185.3100  178.4490  142.6230 C   0  0  2  0  0  3  0  0  0  0  0  0
  193.0510  172.7160  144.7800 C   0  0  0  0  0  2  0  0  0  0  0  0
  190.3020  173.3750  140.8480 C   0  0  0  0  0  3  0  0  0  0  0  0
  190.1360  174.2100  143.2200 C   0  0  2  0  0  3  0  0  0  0  0  0
  189.6910  174.2220  141.7850 C   0  0  0  0  0  0  0  0  0  0  0  0
  187.9170  175.8560  142.4040 C   0  0  0  0  0  0  0  0  0  0  0  0
  185.2630  179.3960  143.7370 N   0  0  0  0  0  2  0  0  0  0  0  0
  193.1580  175.8160  144.5010 C   0  0  0  0  0  2  0  0  0  0  0  0
  191.7080  173.4500  144.6600 C   0  0  1  0  0  3  0  0  0  0  0  0
  186.2730  178.9570  144.7000 C   0  0  0  0  0  2  0  0  0  0  0  0
  192.5870  175.5720  145.7640 O   0  0  0  0  0  0  0  0  0  0  0  0
  194.2690  173.5950  145.0860 C   0  0  1  0  0  3  0  0  0  0  0  0
  188.0920  174.8960  140.0870 C   0  0  0  0  0  3  0  0  0  0  0  0
  188.5650  174.9750  141.4080 C   0  0  0  0  0  0  0  0  0  0  0  0
  186.7560  176.4570  142.1090 C   0  0  0  0  0  3  0  0  0  0  0  0
  190.1790  175.3430  145.4110 C   0  0  0  0  0  2  0  0  0  0  0  0
  188.7600  177.7610  145.3560 O   0  0  0  0  0  0  0  0  0  0  0  0
  183.9040  177.9830  142.2930 C   0  0  0  0  0  1  0  0  0  0  0  0
  188.5810  176.1290  143.6630 N   0  0  0  0  0  0  0  0  0  0  0  0
  186.1170  177.3280  143.0470 N   0  0  0  0  0  0  0  0  0  0  0  0
  195.5360  172.7740  144.9110 C   0  0  0  0  0  2  0  0  0  0  0  0
  196.7310  173.5030  145.4380 C   0  0  0  0  0  0  0  0  0  0  0  0
  197.8030  173.9420  144.5030 C   0  0  0  0  0  1  0  0  0  0  0  0
  196.8390  173.7240  146.6340 O   0  0  0  0  0  0  0  0  0  0  0  0
  1 16  1  0  0  0  0
  1 20  1  0  0  0  0
  2 24  1  1  0  0  0
  3 11  1  0  0  0  0
  4  3  2  0  0  0  0
  4 21  1  0  0  0  0
  5 25  2  0  0  0  0
  6  5  1  0  0  0  0
  6 18  1  6  0  0  0
  7 24  1  6  0  0  0
  7 19  1  0  0  0  0
  8 17  1  0  0  0  0
  9 26  1  1  0  0  0
  9 28  1  0  0  0  0
  9 15  1  0  0  0  0
 10 20  1  0  0  0  0
 11 13  2  0  0  0  0
 12 13  1  6  0  0  0
 12  8  1  0  0  0  0
 12  2  1  0  0  0  0
 14 27  1  0  0  0  0
 15 18  1  0  0  0  0
 16 19  1  0  0  0  0
 17 10  1  6  0  0  0
 17  7  1  0  0  0  0
 20 29  1  6  0  0  0
 21 22  2  0  0  0  0
 22 13  1  0  0  0  0
 22 14  1  0  0  0  0
 23 14  2  0  0  0  0
 23 28  1  0  0  0  0
 27  2  1  0  0  0  0
 27  5  1  0  0  0  0
 28  6  1  0  0  0  0
 29 30  1  0  0  0  0
 30 32  2  0  0  0  0
 31 30  1  0  0  0  0
M  END
>  <MODEL>
9

>  <REMARK>
 VINA RESULT:      -7.8      2.505      5.094
  Name = 
  2 active torsions:
  status: ('A' for Active; 'I' for Inactive)
    1  A    between atoms: C_20  and  C_29
    2  A    between atoms: C_29  and  C_30
                            x       y       z     vdW  Elec       q    Type
                         _______ _______ _______ _____ _____    ______ ____

>  <TORSDO>
F 2

$$$$
