=
 OpenBabel11112416203D

 30 35  0  0  1  0  0  0  0  0999 V2000
  188.0940  176.8820  146.1400 C   0  0  0  0  0  0  0  0  0  0  0  0
  186.4010  177.9550  147.6340 C   0  0  0  0  0  0  0  0  0  0  0  0
  185.7650  177.0930  142.6070 C   0  0  0  0  0  2  0  0  0  0  0  0
  188.5540  176.3660  144.8160 C   0  0  0  0  0  0  0  0  0  0  0  0
  188.9740  176.8140  147.2230 O   0  0  0  0  0  0  0  0  0  0  0  0
  191.8050  175.1420  145.8960 O   0  0  0  0  0  0  0  0  0  0  0  0
  189.2210  174.0040  143.0350 C   0  0  1  0  0  3  0  0  0  0  0  0
  190.7180  175.7840  145.8900 C   0  0  0  0  0  0  0  0  0  0  0  0
  188.1440  174.6130  142.2260 N   0  0  2  0  0  0  0  0  0  0  0  0
  186.7790  176.5730  141.5810 C   0  0  1  0  0  3  0  0  0  0  0  0
  190.3830  176.6830  147.0500 C   0  0  2  0  0  3  0  0  0  0  0  0
  189.8490  175.7250  144.7430 N   0  0  0  0  0  0  0  0  0  0  0  0
  184.9200  178.2320  147.6630 C   0  0  0  0  0  3  0  0  0  0  0  0
  188.4730  174.2800  140.8450 C   0  0  0  0  0  2  0  0  0  0  0  0
  189.8680  172.9060  142.2100 C   0  0  0  0  0  2  0  0  0  0  0  0
  187.1420  179.2460  147.9380 C   0  0  0  0  0  1  0  0  0  0  0  0
  186.4540  177.0550  143.8760 N   0  0  0  0  0  0  0  0  0  0  0  0
  184.1630  178.2020  146.5620 C   0  0  0  0  0  3  0  0  0  0  0  0
  186.8560  177.3940  146.3070 C   0  0  0  0  0  0  0  0  0  0  0  0
  187.7340  176.4760  143.7520 C   0  0  0  0  0  0  0  0  0  0  0  0
  187.1790  177.7030  140.6520 C   0  0  0  0  0  1  0  0  0  0  0  0
  188.0230  176.0740  142.3480 C   0  0  1  0  0  3  0  0  0  0  0  0
  189.1840  172.9500  140.8670 C   0  0  0  0  0  2  0  0  0  0  0  0
  190.9770  175.8470  142.5360 C   0  0  0  0  0  1  0  0  0  0  0  0
  184.7130  177.8470  145.2840 N   0  0  0  0  0  0  0  0  0  0  0  0
  185.9470  177.4670  145.1440 C   0  0  2  0  0  3  0  0  0  0  0  0
  190.3030  174.9600  143.5780 C   0  0  2  0  0  3  0  0  0  0  0  0
  190.9530  176.2010  148.2300 O   0  0  0  0  0  0  0  0  0  0  0  0
  191.2840  178.1290  149.5810 C   0  0  0  0  0  1  0  0  0  0  0  0
  191.8980  177.1630  148.5880 C   0  0  0  0  0  2  0  0  0  0  0  0
  1 19  2  0  0  0  0
  1  5  1  0  0  0  0
  2 13  2  0  0  0  0
  2 16  1  0  0  0  0
  3 17  1  0  0  0  0
  4  1  1  0  0  0  0
  7 15  1  6  0  0  0
  7 27  1  0  0  0  0
  8  6  2  0  0  0  0
  8 11  1  0  0  0  0
  9 14  1  6  0  0  0
  9 22  1  0  0  0  0
  9  7  1  0  0  0  0
 10 21  1  6  0  0  0
 10 22  1  0  0  0  0
 10  3  1  0  0  0  0
 11  5  1  0  0  0  0
 11 28  1  1  0  0  0
 12  4  1  0  0  0  0
 12  8  1  0  0  0  0
 14 23  1  0  0  0  0
 17 26  1  0  0  0  0
 18 13  1  0  0  0  0
 19  2  1  0  0  0  0
 20 17  1  0  0  0  0
 20  4  2  0  0  0  0
 22 20  1  1  0  0  0
 23 15  1  0  0  0  0
 25 18  2  0  0  0  0
 26 25  1  1  0  0  0
 26 19  1  0  0  0  0
 27 24  1  6  0  0  0
 27 12  1  0  0  0  0
 28 30  1  0  0  0  0
 30 29  1  0  0  0  0
M  END
>  <MODEL>
1

>  <REMARK>
 VINA RESULT:      -8.2      0.000      0.000
  Name = 
  2 active torsions:
  status: ('A' for Active; 'I' for Inactive)
    1  A    between atoms: C_11  and  O_28
    2  A    between atoms: O_28  and  C_30
                            x       y       z     vdW  Elec       q    Type
                         _______ _______ _______ _____ _____    ______ ____

>  <TORSDO>
F 2

$$$$
=
 OpenBabel11112416203D

 30 35  0  0  1  0  0  0  0  0999 V2000
  187.8500  175.4060  141.5240 C   0  0  0  0  0  0  0  0  0  0  0  0
  189.0750  173.3480  140.8080 C   0  0  2  0  0  3  0  0  0  0  0  0
  189.1190  175.2940  145.5650 C   0  0  0  0  0  2  0  0  0  0  0  0
  187.4330  176.4100  142.5480 C   0  0  0  0  0  0  0  0  0  0  0  0
  187.4190  175.5800  140.2070 O   0  0  0  0  0  0  0  0  0  0  0  0
  185.3200  178.4320  140.3860 O   0  0  0  0  0  0  0  0  0  0  0  0
  185.2590  177.5740  144.3120 C   0  0  1  0  0  3  0  0  0  0  0  0
  186.1990  177.6040  140.7520 C   0  0  0  0  0  0  0  0  0  0  0  0
  186.2190  177.1650  145.3600 N   0  0  2  0  0  0  0  0  0  0  0  0
  188.5210  176.6110  146.0740 C   0  0  1  0  0  3  0  0  0  0  0  0
  186.9770  176.8430  139.7130 C   0  0  2  0  0  3  0  0  0  0  0  0
  186.5160  177.4550  142.1500 N   0  0  0  0  0  0  0  0  0  0  0  0
  189.6940  172.1190  141.4210 C   0  0  0  0  0  3  0  0  0  0  0  0
  186.0170  178.1120  146.4500 C   0  0  0  0  0  2  0  0  0  0  0  0
  184.1660  178.3990  144.9690 C   0  0  0  0  0  2  0  0  0  0  0  0
  190.0920  173.9920  139.8810 C   0  0  0  0  0  1  0  0  0  0  0  0
  188.7350  175.2140  144.1750 N   0  0  0  0  0  0  0  0  0  0  0  0
  190.0050  172.0450  142.7190 C   0  0  0  0  0  3  0  0  0  0  0  0
  188.6160  174.3430  141.8480 C   0  0  0  0  0  0  0  0  0  0  0  0
  187.8880  176.2820  143.8100 C   0  0  0  0  0  0  0  0  0  0  0  0
  189.6420  177.5830  146.3910 C   0  0  0  0  0  1  0  0  0  0  0  0
  187.6330  177.1970  144.9560 C   0  0  1  0  0  3  0  0  0  0  0  0
  184.5650  178.5210  146.4180 C   0  0  0  0  0  2  0  0  0  0  0  0
  186.6750  179.5660  143.4440 C   0  0  0  0  0  1  0  0  0  0  0  0
  189.7140  173.1220  143.6230 N   0  0  0  0  0  0  0  0  0  0  0  0
  189.0720  174.1860  143.2450 C   0  0  0  0  0  0  0  0  0  0  0  0
  185.8380  178.3370  143.1040 C   0  0  2  0  0  3  0  0  0  0  0  0
  186.2090  176.6490  138.5630 O   0  0  0  0  0  0  0  0  0  0  0  0
  186.6530  176.1520  136.2810 C   0  0  0  0  0  1  0  0  0  0  0  0
  187.0100  175.8720  137.7260 C   0  0  0  0  0  2  0  0  0  0  0  0
  1 19  2  0  0  0  0
  1  4  1  0  0  0  0
  2 16  1  6  0  0  0
  2 13  1  0  0  0  0
  2 19  1  0  0  0  0
  3 10  1  0  0  0  0
  4 20  2  0  0  0  0
  5  1  1  0  0  0  0
  6  8  2  0  0  0  0
  7 15  1  1  0  0  0
  7  9  1  0  0  0  0
  8 12  1  0  0  0  0
  9 14  1  1  0  0  0
 10 21  1  6  0  0  0
 11 28  1  6  0  0  0
 11  5  1  0  0  0  0
 11  8  1  0  0  0  0
 12  4  1  0  0  0  0
 12 27  1  0  0  0  0
 13 18  2  0  0  0  0
 15 23  1  0  0  0  0
 17  3  1  0  0  0  0
 18 25  1  0  0  0  0
 19 26  1  0  0  0  0
 20 17  1  0  0  0  0
 22 20  1  6  0  0  0
 22  9  1  0  0  0  0
 22 10  1  0  0  0  0
 23 14  1  0  0  0  0
 26 25  2  0  0  0  0
 26 17  1  0  0  0  0
 27 24  1  1  0  0  0
 27  7  1  0  0  0  0
 29 30  1  0  0  0  0
 30 28  1  0  0  0  0
M  END
>  <MODEL>
2

>  <REMARK>
 VINA RESULT:      -7.5      3.033      7.430
  Name = 
  2 active torsions:
  status: ('A' for Active; 'I' for Inactive)
    1  A    between atoms: C_11  and  O_28
    2  A    between atoms: O_28  and  C_30
                            x       y       z     vdW  Elec       q    Type
                         _______ _______ _______ _____ _____    ______ ____

>  <TORSDO>
F 2

$$$$
=
 OpenBabel11112416203D

 30 35  0  0  1  0  0  0  0  0999 V2000
  187.4920  177.2640  144.7850 C   0  0  0  0  0  0  0  0  0  0  0  0
  185.8140  178.4730  146.1880 C   0  0  2  0  0  3  0  0  0  0  0  0
  190.4750  177.0080  147.7840 C   0  0  0  0  0  2  0  0  0  0  0  0
  188.8270  176.6280  144.5700 C   0  0  0  0  0  0  0  0  0  0  0  0
  186.5640  177.2340  143.7410 O   0  0  0  0  0  0  0  0  0  0  0  0
  188.3430  175.6950  141.0880 O   0  0  0  0  0  0  0  0  0  0  0  0
  191.5640  176.7080  143.2670 C   0  0  1  0  0  3  0  0  0  0  0  0
  188.0820  176.0410  142.2730 C   0  0  0  0  0  0  0  0  0  0  0  0
  191.9790  176.6860  144.6870 N   0  0  2  0  0  0  0  0  0  0  0  0
  191.5180  176.1500  147.0570 C   0  0  1  0  0  3  0  0  0  0  0  0
  186.6530  176.2930  142.6730 C   0  0  2  0  0  3  0  0  0  0  0  0
  189.1330  176.1060  143.2560 N   0  0  0  0  0  0  0  0  0  0  0  0
  185.7660  179.3090  147.4410 C   0  0  0  0  0  3  0  0  0  0  0  0
  193.2680  176.0050  144.6940 C   0  0  0  0  0  2  0  0  0  0  0  0
  192.8040  176.5240  142.4100 C   0  0  0  0  0  2  0  0  0  0  0  0
  184.7650  177.3790  146.2940 C   0  0  0  0  0  1  0  0  0  0  0  0
  189.3950  177.1760  146.8380 N   0  0  0  0  0  0  0  0  0  0  0  0
  186.7530  179.3050  148.3420 C   0  0  0  0  0  3  0  0  0  0  0  0
  187.1770  177.8670  145.9500 C   0  0  0  0  0  0  0  0  0  0  0  0
  189.7090  176.6030  145.5880 C   0  0  0  0  0  0  0  0  0  0  0  0
  191.6010  174.7900  147.7220 C   0  0  0  0  0  1  0  0  0  0  0  0
  191.0600  175.9780  145.5930 C   0  0  1  0  0  3  0  0  0  0  0  0
  193.9400  176.3150  143.3790 C   0  0  0  0  0  2  0  0  0  0  0  0
  190.7680  174.2410  143.2030 C   0  0  0  0  0  1  0  0  0  0  0  0
  187.9510  178.5400  148.1400 N   0  0  0  0  0  0  0  0  0  0  0  0
  188.1690  177.8750  147.0460 C   0  0  0  0  0  0  0  0  0  0  0  0
  190.4800  175.6960  142.8480 C   0  0  2  0  0  3  0  0  0  0  0  0
  185.9090  176.7540  141.5850 O   0  0  0  0  0  0  0  0  0  0  0  0
  184.1370  178.2470  141.0520 C   0  0  0  0  0  1  0  0  0  0  0  0
  185.1320  177.7930  142.1000 C   0  0  0  0  0  2  0  0  0  0  0  0
  1 19  2  0  0  0  0
  2 16  1  1  0  0  0
  2 13  1  0  0  0  0
  4  1  1  0  0  0  0
  4 20  2  0  0  0  0
  5  1  1  0  0  0  0
  6  8  2  0  0  0  0
  7 15  1  6  0  0  0
  7  9  1  0  0  0  0
  8 11  1  0  0  0  0
  8 12  1  0  0  0  0
  9 14  1  6  0  0  0
  9 22  1  0  0  0  0
 10 21  1  1  0  0  0
 10  3  1  0  0  0  0
 11 28  1  6  0  0  0
 11  5  1  0  0  0  0
 12  4  1  0  0  0  0
 13 18  2  0  0  0  0
 15 23  1  0  0  0  0
 17 26  1  0  0  0  0
 17  3  1  0  0  0  0
 19  2  1  0  0  0  0
 19 26  1  0  0  0  0
 20 17  1  0  0  0  0
 22 20  1  1  0  0  0
 22 10  1  0  0  0  0
 23 14  1  0  0  0  0
 25 18  1  0  0  0  0
 26 25  2  0  0  0  0
 27 24  1  1  0  0  0
 27 12  1  0  0  0  0
 27  7  1  0  0  0  0
 28 30  1  0  0  0  0
 29 30  1  0  0  0  0
M  END
>  <MODEL>
3

>  <REMARK>
 VINA RESULT:      -7.4      2.457      5.225
  Name = 
  2 active torsions:
  status: ('A' for Active; 'I' for Inactive)
    1  A    between atoms: C_11  and  O_28
    2  A    between atoms: O_28  and  C_30
                            x       y       z     vdW  Elec       q    Type
                         _______ _______ _______ _____ _____    ______ ____

>  <TORSDO>
F 2

$$$$
=
 OpenBabel11112416203D

 30 35  0  0  1  0  0  0  0  0999 V2000
  188.7360  175.1920  141.4380 C   0  0  0  0  0  0  0  0  0  0  0  0
  188.2430  173.5680  139.6020 C   0  0  2  0  0  3  0  0  0  0  0  0
  192.6450  173.7730  142.2490 C   0  0  0  0  0  2  0  0  0  0  0  0
  189.6170  175.7630  142.4990 C   0  0  0  0  0  0  0  0  0  0  0  0
  187.4890  175.7830  141.2190 O   0  0  0  0  0  0  0  0  0  0  0  0
  187.3030  178.2910  143.7180 O   0  0  0  0  0  0  0  0  0  0  0  0
  190.2280  176.1430  145.4450 C   0  0  1  0  0  3  0  0  0  0  0  0
  187.8360  177.4330  142.9610 C   0  0  0  0  0  0  0  0  0  0  0  0
  191.4690  175.4500  145.0340 N   0  0  2  0  0  0  0  0  0  0  0  0
  193.0980  174.8050  143.2890 C   0  0  1  0  0  3  0  0  0  0  0  0
  187.1950  177.1140  141.6380 C   0  0  2  0  0  3  0  0  0  0  0  0
  189.0950  176.8330  143.3210 N   0  0  0  0  0  0  0  0  0  0  0  0
  188.7360  172.2370  139.0970 C   0  0  0  0  0  3  0  0  0  0  0  0
  192.5010  175.9570  145.9310 C   0  0  0  0  0  2  0  0  0  0  0  0
  190.4130  176.6370  146.8690 C   0  0  0  0  0  2  0  0  0  0  0  0
  188.1910  174.5410  138.4370 C   0  0  0  0  0  1  0  0  0  0  0  0
  191.2950  174.1530  141.8990 N   0  0  0  0  0  0  0  0  0  0  0  0
  189.9310  171.7400  139.4310 C   0  0  0  0  0  3  0  0  0  0  0  0
  189.1130  174.1230  140.7050 C   0  0  0  0  0  0  0  0  0  0  0  0
  190.8440  175.2360  142.6820 C   0  0  0  0  0  0  0  0  0  0  0  0
  194.1970  175.6670  142.6970 C   0  0  0  0  0  1  0  0  0  0  0  0
  191.8850  175.6910  143.6440 C   0  0  1  0  0  3  0  0  0  0  0  0
  191.8280  176.2780  147.2430 C   0  0  0  0  0  2  0  0  0  0  0  0
  190.7910  178.3820  144.2620 C   0  0  0  0  0  1  0  0  0  0  0  0
  190.7990  172.4280  140.3430 N   0  0  0  0  0  0  0  0  0  0  0  0
  190.4420  173.5220  140.9450 C   0  0  0  0  0  0  0  0  0  0  0  0
  189.7520  177.3010  144.5450 C   0  0  2  0  0  3  0  0  0  0  0  0
  185.8100  177.2840  141.7050 O   0  0  0  0  0  0  0  0  0  0  0  0
  184.0030  178.2910  140.5320 C   0  0  0  0  0  1  0  0  0  0  0  0
  185.4720  177.9200  140.5090 C   0  0  0  0  0  2  0  0  0  0  0  0
  1  4  1  0  0  0  0
  2 16  1  6  0  0  0
  2 19  1  0  0  0  0
  3 10  1  0  0  0  0
  4 20  2  0  0  0  0
  4 12  1  0  0  0  0
  5  1  1  0  0  0  0
  5 11  1  0  0  0  0
  7 15  1  1  0  0  0
  8 12  1  0  0  0  0
  8  6  2  0  0  0  0
  9  7  1  0  0  0  0
  9 14  1  1  0  0  0
 10 21  1  6  0  0  0
 10 22  1  0  0  0  0
 11 28  1  1  0  0  0
 11  8  1  0  0  0  0
 12 27  1  0  0  0  0
 13 18  2  0  0  0  0
 13  2  1  0  0  0  0
 14 23  1  0  0  0  0
 15 23  1  0  0  0  0
 17  3  1  0  0  0  0
 17 20  1  0  0  0  0
 18 25  1  0  0  0  0
 19 26  1  0  0  0  0
 19  1  2  0  0  0  0
 22 20  1  6  0  0  0
 22  9  1  0  0  0  0
 25 26  2  0  0  0  0
 26 17  1  0  0  0  0
 27 24  1  6  0  0  0
 27  7  1  0  0  0  0
 30 29  1  0  0  0  0
 30 28  1  0  0  0  0
M  END
>  <MODEL>
4

>  <REMARK>
 VINA RESULT:      -7.3      3.080      7.158
  Name = 
  2 active torsions:
  status: ('A' for Active; 'I' for Inactive)
    1  A    between atoms: C_11  and  O_28
    2  A    between atoms: O_28  and  C_30
                            x       y       z     vdW  Elec       q    Type
                         _______ _______ _______ _____ _____    ______ ____

>  <TORSDO>
F 2

$$$$
=
 OpenBabel11112416203D

 30 35  0  0  1  0  0  0  0  0999 V2000
  187.6720  176.6040  142.5920 C   0  0  0  0  0  0  0  0  0  0  0  0
  185.9100  178.3780  142.6150 C   0  0  2  0  0  3  0  0  0  0  0  0
  188.5240  176.7720  146.7390 C   0  0  0  0  0  2  0  0  0  0  0  0
  188.7030  175.7540  143.2580 C   0  0  0  0  0  0  0  0  0  0  0  0
  187.4330  176.4170  141.2280 O   0  0  0  0  0  0  0  0  0  0  0  0
  189.8230  173.9720  140.2910 O   0  0  0  0  0  0  0  0  0  0  0  0
  191.6270  175.0860  143.7050 C   0  0  1  0  0  3  0  0  0  0  0  0
  189.1010  174.6650  141.0590 C   0  0  0  0  0  0  0  0  0  0  0  0
  191.2410  175.3990  145.0980 N   0  0  2  0  0  0  0  0  0  0  0  0
  189.5170  175.6080  146.8600 C   0  0  1  0  0  3  0  0  0  0  0  0
  187.7960  175.2150  140.5520 C   0  0  2  0  0  3  0  0  0  0  0  0
  189.4810  174.8510  142.4360 N   0  0  0  0  0  0  0  0  0  0  0  0
  185.4600  179.5250  143.4820 C   0  0  0  0  0  3  0  0  0  0  0  0
  192.1100  174.5730  145.9280 C   0  0  0  0  0  2  0  0  0  0  0  0
  193.0280  174.4990  143.7240 C   0  0  0  0  0  2  0  0  0  0  0  0
  184.7040  177.5140  142.2880 C   0  0  0  0  0  1  0  0  0  0  0  0
  188.1650  176.8220  145.3400 N   0  0  0  0  0  0  0  0  0  0  0  0
  185.8100  179.6320  144.7680 C   0  0  0  0  0  3  0  0  0  0  0  0
  186.9840  177.5440  143.2740 C   0  0  0  0  0  0  0  0  0  0  0  0
  188.9030  175.8870  144.5840 C   0  0  0  0  0  0  0  0  0  0  0  0
  188.8830  174.4870  147.6600 C   0  0  0  0  0  1  0  0  0  0  0  0
  189.8390  175.1050  145.4360 C   0  0  1  0  0  3  0  0  0  0  0  0
  193.4100  174.4090  145.1800 C   0  0  0  0  0  2  0  0  0  0  0  0
  190.3460  172.8330  143.5930 C   0  0  0  0  0  1  0  0  0  0  0  0
  186.6880  178.6810  145.3880 N   0  0  0  0  0  0  0  0  0  0  0  0
  187.2430  177.7160  144.7190 C   0  0  0  0  0  0  0  0  0  0  0  0
  190.6800  174.1590  142.9160 C   0  0  2  0  0  3  0  0  0  0  0  0
  187.8620  175.4580  139.1780 O   0  0  0  0  0  0  0  0  0  0  0  0
  186.3750  176.2350  137.4930 C   0  0  0  0  0  1  0  0  0  0  0  0
  186.8390  176.3740  138.9280 C   0  0  0  0  0  2  0  0  0  0  0  0
  1  4  1  0  0  0  0
  1 19  2  0  0  0  0
  2 16  1  1  0  0  0
  2 19  1  0  0  0  0
  2 13  1  0  0  0  0
  3 10  1  0  0  0  0
  4 20  2  0  0  0  0
  5  1  1  0  0  0  0
  6  8  2  0  0  0  0
  7 15  1  1  0  0  0
  7  9  1  0  0  0  0
  8 12  1  0  0  0  0
  9 22  1  0  0  0  0
  9 14  1  1  0  0  0
 10 21  1  1  0  0  0
 11 28  1  6  0  0  0
 11  8  1  0  0  0  0
 11  5  1  0  0  0  0
 12 27  1  0  0  0  0
 12  4  1  0  0  0  0
 13 18  2  0  0  0  0
 15 23  1  0  0  0  0
 17  3  1  0  0  0  0
 18 25  1  0  0  0  0
 19 26  1  0  0  0  0
 20 17  1  0  0  0  0
 22 20  1  6  0  0  0
 22 10  1  0  0  0  0
 23 14  1  0  0  0  0
 26 17  1  0  0  0  0
 26 25  2  0  0  0  0
 27 24  1  1  0  0  0
 27  7  1  0  0  0  0
 29 30  1  0  0  0  0
 30 28  1  0  0  0  0
M  END
>  <MODEL>
5

>  <REMARK>
 VINA RESULT:      -7.2      2.852      5.614
  Name = 
  2 active torsions:
  status: ('A' for Active; 'I' for Inactive)
    1  A    between atoms: C_11  and  O_28
    2  A    between atoms: O_28  and  C_30
                            x       y       z     vdW  Elec       q    Type
                         _______ _______ _______ _____ _____    ______ ____

>  <TORSDO>
F 2

$$$$
=
 OpenBabel11112416203D

 30 35  0  0  1  0  0  0  0  0999 V2000
  190.4370  175.5860  144.6660 C   0  0  0  0  0  0  0  0  0  0  0  0
  192.0980  176.4270  146.3340 C   0  0  0  0  0  0  0  0  0  0  0  0
  192.9130  172.5370  143.0750 C   0  0  0  0  0  2  0  0  0  0  0  0
  190.0170  174.6740  143.5600 C   0  0  0  0  0  0  0  0  0  0  0  0
  189.5130  176.5140  145.1520 O   0  0  0  0  0  0  0  0  0  0  0  0
  186.6920  176.0590  143.0530 O   0  0  0  0  0  0  0  0  0  0  0  0
  189.3560  174.2770  140.6270 C   0  0  1  0  0  3  0  0  0  0  0  0
  187.7960  175.7880  143.6010 C   0  0  0  0  0  0  0  0  0  0  0  0
  190.4820  173.3260  140.7460 N   0  0  2  0  0  0  0  0  0  0  0  0
  191.9260  171.8580  142.1170 C   0  0  1  0  0  3  0  0  0  0  0  0
  188.1090  176.3590  144.9570 C   0  0  2  0  0  3  0  0  0  0  0  0
  188.7080  174.8660  142.9740 N   0  0  0  0  0  0  0  0  0  0  0  0
  193.5840  176.3880  146.5830 C   0  0  0  0  0  3  0  0  0  0  0  0
  190.2000  172.2800  139.7700 C   0  0  0  0  0  2  0  0  0  0  0  0
  188.7120  174.0780  139.2660 C   0  0  0  0  0  2  0  0  0  0  0  0
  191.3820  176.0110  147.6080 C   0  0  0  0  0  1  0  0  0  0  0  0
  192.1720  173.6210  143.6790 N   0  0  0  0  0  0  0  0  0  0  0  0
  194.3830  175.4870  146.0030 C   0  0  0  0  0  3  0  0  0  0  0  0
  191.6810  175.5370  145.1880 C   0  0  0  0  0  0  0  0  0  0  0  0
  190.8820  173.7380  143.1210 C   0  0  0  0  0  0  0  0  0  0  0  0
  191.5970  170.4710  142.6330 C   0  0  0  0  0  1  0  0  0  0  0  0
  190.6390  172.7100  142.0730 C   0  0  1  0  0  3  0  0  0  0  0  0
  189.4510  172.9280  138.6320 C   0  0  0  0  0  2  0  0  0  0  0  0
  187.6740  172.8400  141.9820 C   0  0  0  0  0  1  0  0  0  0  0  0
  193.8770  174.5310  145.0610 N   0  0  0  0  0  0  0  0  0  0  0  0
  192.6390  174.5380  144.6670 C   0  0  2  0  0  3  0  0  0  0  0  0
  188.2810  174.2170  141.7310 C   0  0  2  0  0  3  0  0  0  0  0  0
  187.4780  177.5930  145.1320 O   0  0  0  0  0  0  0  0  0  0  0  0
  185.4850  177.0120  146.2900 C   0  0  0  0  0  1  0  0  0  0  0  0
  186.9060  177.5240  146.4020 C   0  0  0  0  0  2  0  0  0  0  0  0
  1  5  1  0  0  0  0
  1 19  2  0  0  0  0
  2 13  2  0  0  0  0
  2 16  1  0  0  0  0
  3 17  1  0  0  0  0
  4  1  1  0  0  0  0
  6  8  2  0  0  0  0
  7 15  1  6  0  0  0
  7  9  1  0  0  0  0
  7 27  1  0  0  0  0
  8 11  1  0  0  0  0
  9 14  1  6  0  0  0
  9 22  1  0  0  0  0
 10 21  1  1  0  0  0
 10  3  1  0  0  0  0
 11 28  1  6  0  0  0
 11  5  1  0  0  0  0
 12  4  1  0  0  0  0
 12  8  1  0  0  0  0
 17 26  1  0  0  0  0
 18 13  1  0  0  0  0
 19  2  1  0  0  0  0
 20  4  2  0  0  0  0
 20 17  1  0  0  0  0
 22 10  1  0  0  0  0
 22 20  1  1  0  0  0
 23 15  1  0  0  0  0
 23 14  1  0  0  0  0
 25 18  2  0  0  0  0
 26 25  1  6  0  0  0
 26 19  1  0  0  0  0
 27 24  1  1  0  0  0
 27 12  1  0  0  0  0
 28 30  1  0  0  0  0
 29 30  1  0  0  0  0
M  END
>  <MODEL>
6

>  <REMARK>
 VINA RESULT:      -7.2      2.270      5.664
  Name = 
  2 active torsions:
  status: ('A' for Active; 'I' for Inactive)
    1  A    between atoms: C_11  and  O_28
    2  A    between atoms: O_28  and  C_30
                            x       y       z     vdW  Elec       q    Type
                         _______ _______ _______ _____ _____    ______ ____

>  <TORSDO>
F 2

$$$$
=
 OpenBabel11112416203D

 30 35  0  0  1  0  0  0  0  0999 V2000
  190.5910  175.2130  144.0190 C   0  0  0  0  0  0  0  0  0  0  0  0
  188.5570  174.5550  142.7230 C   0  0  0  0  0  0  0  0  0  0  0  0
  193.3590  174.5070  140.8890 C   0  0  0  0  0  2  0  0  0  0  0  0
  192.0650  175.4130  144.1590 C   0  0  0  0  0  0  0  0  0  0  0  0
  189.7690  175.5380  145.1000 O   0  0  0  0  0  0  0  0  0  0  0  0
  192.0600  176.4940  147.6320 O   0  0  0  0  0  0  0  0  0  0  0  0
  194.7090  174.5180  145.3440 C   0  0  1  0  0  3  0  0  0  0  0  0
  191.6480  176.2290  146.4690 C   0  0  0  0  0  0  0  0  0  0  0  0
  195.0400  174.3940  143.9080 N   0  0  2  0  0  0  0  0  0  0  0  0
  194.6480  175.0150  141.5460 C   0  0  1  0  0  3  0  0  0  0  0  0
  190.1930  176.4200  146.1380 C   0  0  2  0  0  3  0  0  0  0  0  0
  192.5800  175.8330  145.4440 N   0  0  0  0  0  0  0  0  0  0  0  0
  188.1970  173.7580  141.4960 C   0  0  0  0  0  3  0  0  0  0  0  0
  196.4740  174.6480  143.8270 C   0  0  0  0  0  2  0  0  0  0  0  0
  195.9860  174.3260  146.1420 C   0  0  0  0  0  2  0  0  0  0  0  0
  187.8880  175.9160  142.6320 C   0  0  0  0  0  1  0  0  0  0  0  0
  192.3280  174.6890  141.8840 N   0  0  0  0  0  0  0  0  0  0  0  0
  189.0920  173.4490  140.5530 C   0  0  0  0  0  3  0  0  0  0  0  0
  190.0500  174.7190  142.8850 C   0  0  0  0  0  0  0  0  0  0  0  0
  192.8620  175.1540  143.1040 C   0  0  0  0  0  0  0  0  0  0  0  0
  195.1090  176.2760  140.8420 C   0  0  0  0  0  1  0  0  0  0  0  0
  194.3370  175.3370  143.0240 C   0  0  1  0  0  3  0  0  0  0  0  0
  197.0830  174.1660  145.1200 C   0  0  0  0  0  2  0  0  0  0  0  0
  194.7060  177.1110  145.3760 C   0  0  0  0  0  1  0  0  0  0  0  0
  190.4740  173.8140  140.6830 N   0  0  0  0  0  0  0  0  0  0  0  0
  190.9380  174.3950  141.7480 C   0  0  2  0  0  3  0  0  0  0  0  0
  194.0060  175.8180  145.7830 C   0  0  2  0  0  3  0  0  0  0  0  0
  189.3980  176.2220  147.2690 O   0  0  0  0  0  0  0  0  0  0  0  0
  187.1210  176.7910  146.8880 C   0  0  0  0  0  1  0  0  0  0  0  0
  188.1910  175.7250  146.7730 C   0  0  0  0  0  2  0  0  0  0  0  0
  1  4  1  0  0  0  0
  1  5  1  0  0  0  0
  2 19  1  0  0  0  0
  3 10  1  0  0  0  0
  3 17  1  0  0  0  0
  4 12  1  0  0  0  0
  5 11  1  0  0  0  0
  7 27  1  0  0  0  0
  7 15  1  1  0  0  0
  8  6  2  0  0  0  0
  9 14  1  1  0  0  0
  9  7  1  0  0  0  0
 10 21  1  6  0  0  0
 10 22  1  0  0  0  0
 11  8  1  0  0  0  0
 11 28  1  1  0  0  0
 12 27  1  0  0  0  0
 12  8  1  0  0  0  0
 13  2  2  0  0  0  0
 14 23  1  0  0  0  0
 16  2  1  0  0  0  0
 17 20  1  0  0  0  0
 18 25  2  0  0  0  0
 18 13  1  0  0  0  0
 19  1  2  0  0  0  0
 20  4  2  0  0  0  0
 22 20  1  6  0  0  0
 22  9  1  0  0  0  0
 23 15  1  0  0  0  0
 26 25  1  1  0  0  0
 26 17  1  0  0  0  0
 26 19  1  0  0  0  0
 27 24  1  6  0  0  0
 30 29  1  0  0  0  0
 30 28  1  0  0  0  0
M  END
>  <MODEL>
7

>  <REMARK>
 VINA RESULT:      -7.1      3.149      6.122
  Name = 
  2 active torsions:
  status: ('A' for Active; 'I' for Inactive)
    1  A    between atoms: C_11  and  O_28
    2  A    between atoms: O_28  and  C_30
                            x       y       z     vdW  Elec       q    Type
                         _______ _______ _______ _____ _____    ______ ____

>  <TORSDO>
F 2

$$$$
=
 OpenBabel11112416203D

 30 35  0  0  1  0  0  0  0  0999 V2000
  190.9470  176.2140  145.0760 C   0  0  0  0  0  0  0  0  0  0  0  0
  193.3500  175.5710  145.3160 C   0  0  0  0  0  0  0  0  0  0  0  0
  190.4010  174.4750  141.2520 C   0  0  0  0  0  2  0  0  0  0  0  0
  189.6580  176.2640  144.3230 C   0  0  0  0  0  0  0  0  0  0  0  0
  190.9910  176.7690  146.3580 O   0  0  0  0  0  0  0  0  0  0  0  0
  187.7550  178.1560  146.7800 O   0  0  0  0  0  0  0  0  0  0  0  0
  187.6140  177.8790  142.7720 C   0  0  1  0  0  3  0  0  0  0  0  0
  188.6610  177.4370  146.2740 C   0  0  0  0  0  0  0  0  0  0  0  0
  187.9830  176.9010  141.7270 N   0  0  2  0  0  0  0  0  0  0  0  0
  188.8950  174.6990  141.0640 C   0  0  1  0  0  3  0  0  0  0  0  0
  189.8130  176.9880  147.1320 C   0  0  2  0  0  3  0  0  0  0  0  0
  188.5460  176.9770  144.9140 N   0  0  0  0  0  0  0  0  0  0  0  0
  194.5110  175.1570  144.4480 C   0  0  0  0  0  3  0  0  0  0  0  0
  186.7840  176.7460  140.9110 C   0  0  0  0  0  2  0  0  0  0  0  0
  186.4160  178.6700  142.2760 C   0  0  0  0  0  2  0  0  0  0  0  0
  193.2130  174.5710  146.4520 C   0  0  0  0  0  1  0  0  0  0  0  0
  190.7120  175.0480  142.5410 N   0  0  0  0  0  0  0  0  0  0  0  0
  194.3480  174.7000  143.2030 C   0  0  0  0  0  3  0  0  0  0  0  0
  192.0560  175.6610  144.5420 C   0  0  0  0  0  0  0  0  0  0  0  0
  189.5880  175.6830  143.1090 C   0  0  0  0  0  0  0  0  0  0  0  0
  188.1790  173.3630  141.0960 C   0  0  0  0  0  1  0  0  0  0  0  0
  188.3940  175.5790  142.2280 C   0  0  1  0  0  3  0  0  0  0  0  0
  186.0540  178.0650  140.9430 C   0  0  0  0  0  2  0  0  0  0  0  0
  186.2920  176.1930  144.2340 C   0  0  0  0  0  1  0  0  0  0  0  0
  193.0500  174.6280  142.5950 N   0  0  0  0  0  0  0  0  0  0  0  0
  191.9820  175.0680  143.1900 C   0  0  2  0  0  3  0  0  0  0  0  0
  187.3250  177.3150  144.1770 C   0  0  2  0  0  3  0  0  0  0  0  0
  190.0820  177.9260  148.1310 O   0  0  0  0  0  0  0  0  0  0  0  0
  191.5660  178.2890  149.9520 C   0  0  0  0  0  1  0  0  0  0  0  0
  191.3130  177.5370  148.6620 C   0  0  0  0  0  2  0  0  0  0  0  0
  1  5  1  0  0  0  0
  2 16  1  0  0  0  0
  3 17  1  0  0  0  0
  4 12  1  0  0  0  0
  4  1  1  0  0  0  0
  5 11  1  0  0  0  0
  7 15  1  6  0  0  0
  7 27  1  0  0  0  0
  8  6  2  0  0  0  0
  8 11  1  0  0  0  0
  9 14  1  6  0  0  0
  9 22  1  0  0  0  0
  9  7  1  0  0  0  0
 10 21  1  1  0  0  0
 10  3  1  0  0  0  0
 10 22  1  0  0  0  0
 11 28  1  1  0  0  0
 12  8  1  0  0  0  0
 13  2  2  0  0  0  0
 14 23  1  0  0  0  0
 17 20  1  0  0  0  0
 17 26  1  0  0  0  0
 18 13  1  0  0  0  0
 19  1  2  0  0  0  0
 19  2  1  0  0  0  0
 20  4  2  0  0  0  0
 22 20  1  1  0  0  0
 23 15  1  0  0  0  0
 25 18  2  0  0  0  0
 26 25  1  6  0  0  0
 26 19  1  0  0  0  0
 27 24  1  6  0  0  0
 27 12  1  0  0  0  0
 28 30  1  0  0  0  0
 30 29  1  0  0  0  0
M  END
>  <MODEL>
8

>  <REMARK>
 VINA RESULT:      -7.0      1.951      5.239
  Name = 
  2 active torsions:
  status: ('A' for Active; 'I' for Inactive)
    1  A    between atoms: C_11  and  O_28
    2  A    between atoms: O_28  and  C_30
                            x       y       z     vdW  Elec       q    Type
                         _______ _______ _______ _____ _____    ______ ____

>  <TORSDO>
F 2

$$$$
=
 OpenBabel11112416203D

 30 35  0  0  1  0  0  0  0  0999 V2000
  189.0960  175.9170  143.0220 C   0  0  0  0  0  0  0  0  0  0  0  0
  186.8940  177.1000  142.9820 C   0  0  2  0  0  3  0  0  0  0  0  0
  190.1920  177.1510  146.9240 C   0  0  0  0  0  2  0  0  0  0  0  0
  190.3840  175.5380  143.6760 C   0  0  0  0  0  0  0  0  0  0  0  0
  188.8140  175.3980  141.7550 O   0  0  0  0  0  0  0  0  0  0  0  0
  191.7390  173.5720  140.9330 O   0  0  0  0  0  0  0  0  0  0  0  0
  193.4000  175.8100  143.8290 C   0  0  1  0  0  3  0  0  0  0  0  0
  190.9090  174.1790  141.6630 C   0  0  0  0  0  0  0  0  0  0  0  0
  193.0520  176.2790  145.1880 N   0  0  2  0  0  0  0  0  0  0  0  0
  191.4910  176.3570  147.1050 C   0  0  1  0  0  3  0  0  0  0  0  0
  189.4620  174.2330  141.2510 C   0  0  2  0  0  3  0  0  0  0  0  0
  191.3260  174.7380  142.9230 N   0  0  0  0  0  0  0  0  0  0  0  0
  186.1950  178.2290  143.6940 C   0  0  0  0  0  3  0  0  0  0  0  0
  194.1920  175.9120  146.0200 C   0  0  0  0  0  2  0  0  0  0  0  0
  194.9090  175.6500  143.7570 C   0  0  0  0  0  2  0  0  0  0  0  0
  185.9770  175.8890  142.9750 C   0  0  0  0  0  1  0  0  0  0  0  0
  189.7220  176.8150  145.6000 N   0  0  0  0  0  0  0  0  0  0  0  0
  186.5990  178.6880  144.8820 C   0  0  0  0  0  3  0  0  0  0  0  0
  188.2170  176.7480  143.6210 C   0  0  0  0  0  0  0  0  0  0  0  0
  190.6410  175.9870  144.9200 C   0  0  0  0  0  0  0  0  0  0  0  0
  191.2870  175.2910  148.1640 C   0  0  0  0  0  1  0  0  0  0  0  0
  191.8330  175.6840  145.7580 C   0  0  1  0  0  3  0  0  0  0  0  0
  195.4170  175.9660  145.1410 C   0  0  0  0  0  2  0  0  0  0  0  0
  192.8420  173.3170  144.2780 C   0  0  0  0  0  1  0  0  0  0  0  0
  187.7670  178.1620  145.5300 N   0  0  0  0  0  0  0  0  0  0  0  0
  188.5290  177.2730  144.9660 C   0  0  0  0  0  0  0  0  0  0  0  0
  192.7110  174.5180  143.3460 C   0  0  2  0  0  3  0  0  0  0  0  0
  189.3420  174.2000  139.8600 O   0  0  0  0  0  0  0  0  0  0  0  0
  189.1100  172.0600  138.8500 C   0  0  0  0  0  1  0  0  0  0  0  0
  188.4250  173.1800  139.6060 C   0  0  0  0  0  2  0  0  0  0  0  0
  1 19  2  0  0  0  0
  1  4  1  0  0  0  0
  2 16  1  1  0  0  0
  2 19  1  0  0  0  0
  2 13  1  0  0  0  0
  3 10  1  0  0  0  0
  4 20  2  0  0  0  0
  5  1  1  0  0  0  0
  6  8  2  0  0  0  0
  7 15  1  1  0  0  0
  7  9  1  0  0  0  0
  8 12  1  0  0  0  0
  9 22  1  0  0  0  0
  9 14  1  1  0  0  0
 10 21  1  1  0  0  0
 11 28  1  6  0  0  0
 11  8  1  0  0  0  0
 11  5  1  0  0  0  0
 12 27  1  0  0  0  0
 12  4  1  0  0  0  0
 13 18  2  0  0  0  0
 15 23  1  0  0  0  0
 17  3  1  0  0  0  0
 18 25  1  0  0  0  0
 19 26  1  0  0  0  0
 20 17  1  0  0  0  0
 22 20  1  6  0  0  0
 22 10  1  0  0  0  0
 23 14  1  0  0  0  0
 26 25  2  0  0  0  0
 26 17  1  0  0  0  0
 27  7  1  0  0  0  0
 27 24  1  1  0  0  0
 29 30  1  0  0  0  0
 30 28  1  0  0  0  0
M  END
>  <MODEL>
9

>  <REMARK>
 VINA RESULT:      -6.9      2.744      5.936
  Name = 
  2 active torsions:
  status: ('A' for Active; 'I' for Inactive)
    1  A    between atoms: C_11  and  O_28
    2  A    between atoms: O_28  and  C_30
                            x       y       z     vdW  Elec       q    Type
                         _______ _______ _______ _____ _____    ______ ____

>  <TORSDO>
F 2

$$$$
