=
 OpenBabel11112416553D

 31 35  0  0  1  0  0  0  0  0999 V2000
  184.8120  178.3090  146.7580 C   0  0  0  0  0  0  0  0  0  0  0  0
  187.4000  175.9090  145.3350 C   0  0  2  0  0  3  0  0  0  0  0  0
  187.5160  176.2350  143.8500 C   0  0  0  0  0  0  0  0  0  0  0  0
  186.5270  177.1630  141.8250 C   0  0  0  0  0  0  0  0  0  0  0  0
  186.7840  177.0260  146.1500 C   0  0  0  0  0  0  0  0  0  0  0  0
  185.5940  179.1340  147.5700 C   0  0  0  0  0  3  0  0  0  0  0  0
  186.4790  176.9260  143.2000 C   0  0  0  0  0  3  0  0  0  0  0  0
  189.6510  176.6350  146.2190 C   0  0  2  0  0  3  0  0  0  0  0  0
  183.4800  178.5300  146.6520 F   0  0  0  0  0  0  0  0  0  0  0  0
  189.7390  174.9930  143.6870 C   0  0  0  0  0  2  0  0  0  0  0  0
  185.4280  177.9100  141.1620 C   0  0  0  0  0  1  0  0  0  0  0  0
  189.0180  177.5650  147.2520 C   0  0  0  0  0  2  0  0  0  0  0  0
  188.7300  175.4370  145.9500 C   0  0  2  0  0  3  0  0  0  0  0  0
  185.4050  177.2580  146.0550 C   0  0  0  0  0  3  0  0  0  0  0  0
  187.6040  176.6920  141.0740 C   0  0  0  0  0  3  0  0  0  0  0  0
  187.5710  177.8580  146.9790 C   0  0  0  0  0  0  0  0  0  0  0  0
  186.9660  178.9010  147.6860 C   0  0  0  0  0  3  0  0  0  0  0  0
  189.3800  174.3910  145.0430 C   0  0  0  0  0  2  0  0  0  0  0  0
  188.5860  175.7280  143.0720 C   0  0  0  0  0  0  0  0  0  0  0  0
  188.6290  175.9790  141.6970 C   0  0  0  0  0  3  0  0  0  0  0  0
  192.1640  177.0530  144.9220 O   0  0  0  0  0  0  0  0  0  0  0  0
  192.1680  176.4190  146.0100 C   0  0  0  0  0  0  0  0  0  0  0  0
  190.9450  176.1790  146.7090 N   0  0  0  0  0  2  0  0  0  0  0  0
  195.2440  176.4600  144.3330 C   0  0  0  0  0  0  0  0  0  0  0  0
  194.5210  176.9820  146.6880 C   0  0  0  0  0  2  0  0  0  0  0  0
  193.0600  173.5970  145.4860 C   0  0  0  0  0  1  0  0  0  0  0  0
  195.9370  176.7190  143.3160 O   0  0  0  0  0  0  0  0  0  0  0  0
  194.9710  177.5430  145.3360 C   0  0  0  0  0  2  0  0  0  0  0  0
  194.0570  174.7180  145.7250 C   0  0  2  0  0  3  0  0  0  0  0  0
  193.4680  175.8800  146.5390 C   0  0  2  0  0  3  0  0  0  0  0  0
  194.6340  175.1720  144.4640 N   0  0  0  0  0  2  0  0  0  0  0  0
  1  6  1  0  0  0  0
  2  3  1  6  0  0  0
  2 13  1  0  0  0  0
  2  5  1  0  0  0  0
  4  7  2  0  0  0  0
  5 16  2  0  0  0  0
  6 17  2  0  0  0  0
  7  3  1  0  0  0  0
  8 23  1  1  0  0  0
  8 12  1  0  0  0  0
  9  1  1  0  0  0  0
 10 18  1  0  0  0  0
 11  4  1  0  0  0  0
 13 18  1  6  0  0  0
 13  8  1  0  0  0  0
 14  5  1  0  0  0  0
 14  1  2  0  0  0  0
 15 20  2  0  0  0  0
 15  4  1  0  0  0  0
 16 12  1  0  0  0  0
 16 17  1  0  0  0  0
 19 10  1  0  0  0  0
 19  3  2  0  0  0  0
 20 19  1  0  0  0  0
 21 22  2  0  0  0  0
 22 23  1  0  0  0  0
 24 31  1  0  0  0  0
 24 28  1  0  0  0  0
 27 24  2  0  0  0  0
 28 25  1  0  0  0  0
 29 26  1  6  0  0  0
 29 30  1  0  0  0  0
 30 22  1  6  0  0  0
 30 25  1  0  0  0  0
 31 29  1  0  0  0  0
M  END
>  <MODEL>
1

>  <REMARK>
 VINA RESULT:      -9.3      0.000      0.000
  Name = 
  2 active torsions:
  status: ('A' for Active; 'I' for Inactive)
    1  A    between atoms: C_5  and  C_30
    2  A    between atoms: C_10  and  N_16
                            x       y       z     vdW  Elec       q    Type
                         _______ _______ _______ _____ _____    ______ ____

>  <TORSDO>
F 2

$$$$
=
 OpenBabel11112416553D

 31 35  0  0  1  0  0  0  0  0999 V2000
  184.7970  177.8380  146.7130 C   0  0  0  0  0  0  0  0  0  0  0  0
  187.1590  175.9800  144.3770 C   0  0  2  0  0  3  0  0  0  0  0  0
  186.9250  176.5550  142.9850 C   0  0  0  0  0  0  0  0  0  0  0  0
  185.4600  177.6990  141.4090 C   0  0  0  0  0  0  0  0  0  0  0  0
  186.6650  176.8790  145.4900 C   0  0  0  0  0  0  0  0  0  0  0  0
  185.6830  178.5930  147.4840 C   0  0  0  0  0  3  0  0  0  0  0  0
  185.7300  177.2350  142.6980 C   0  0  0  0  0  3  0  0  0  0  0  0
  189.4980  176.7740  144.9000 C   0  0  2  0  0  3  0  0  0  0  0  0
  183.4630  177.9370  146.9230 F   0  0  0  0  0  0  0  0  0  0  0  0
  189.1330  175.5880  142.1480 C   0  0  0  0  0  2  0  0  0  0  0  0
  184.1970  178.4300  141.1320 C   0  0  0  0  0  1  0  0  0  0  0  0
  189.0480  177.4520  146.1920 C   0  0  0  0  0  2  0  0  0  0  0  0
  188.6180  175.5500  144.6110 C   0  0  2  0  0  3  0  0  0  0  0  0
  185.2870  176.9830  145.7230 C   0  0  0  0  0  3  0  0  0  0  0  0
  186.3740  177.4700  140.3800 C   0  0  0  0  0  3  0  0  0  0  0  0
  187.5600  177.6380  146.2790 C   0  0  0  0  0  0  0  0  0  0  0  0
  187.0600  178.4850  147.2730 C   0  0  0  0  0  3  0  0  0  0  0  0
  189.1190  174.7380  143.4150 C   0  0  0  0  0  2  0  0  0  0  0  0
  187.8290  176.2940  141.9250 C   0  0  0  0  0  0  0  0  0  0  0  0
  187.5540  176.7710  140.6400 C   0  0  0  0  0  3  0  0  0  0  0  0
  191.6740  177.8470  143.3880 O   0  0  0  0  0  0  0  0  0  0  0  0
  191.9370  176.9520  144.2350 C   0  0  0  0  0  0  0  0  0  0  0  0
  190.8930  176.3770  145.0240 N   0  0  0  0  0  2  0  0  0  0  0  0
  192.9460  173.6100  144.5270 C   0  0  0  0  0  0  0  0  0  0  0  0
  193.7660  175.5810  143.1920 C   0  0  0  0  0  2  0  0  0  0  0  0
  193.2320  176.5290  146.9130 C   0  0  0  0  0  1  0  0  0  0  0  0
  192.6760  172.3850  144.6200 O   0  0  0  0  0  0  0  0  0  0  0  0
  193.0080  174.2510  143.1710 C   0  0  0  0  0  2  0  0  0  0  0  0
  193.6570  175.7380  145.6880 C   0  0  2  0  0  3  0  0  0  0  0  0
  193.3530  176.4670  144.3700 C   0  0  2  0  0  3  0  0  0  0  0  0
  193.0820  174.3970  145.7140 N   0  0  0  0  0  2  0  0  0  0  0  0
  1  9  1  0  0  0  0
  1  6  1  0  0  0  0
  2  3  1  6  0  0  0
  2 13  1  0  0  0  0
  2  5  1  0  0  0  0
  4  7  2  0  0  0  0
  5 14  1  0  0  0  0
  5 16  2  0  0  0  0
  7  3  1  0  0  0  0
  8 23  1  1  0  0  0
  8 12  1  0  0  0  0
 10 18  1  0  0  0  0
 11  4  1  0  0  0  0
 12 16  1  0  0  0  0
 13 18  1  6  0  0  0
 13  8  1  0  0  0  0
 14  1  2  0  0  0  0
 15 20  2  0  0  0  0
 15  4  1  0  0  0  0
 16 17  1  0  0  0  0
 17  6  2  0  0  0  0
 19 10  1  0  0  0  0
 19  3  2  0  0  0  0
 20 19  1  0  0  0  0
 21 22  2  0  0  0  0
 22 23  1  0  0  0  0
 24 27  2  0  0  0  0
 24 31  1  0  0  0  0
 25 30  1  0  0  0  0
 28 25  1  0  0  0  0
 28 24  1  0  0  0  0
 29 31  1  0  0  0  0
 29 26  1  1  0  0  0
 30 22  1  6  0  0  0
 30 29  1  0  0  0  0
M  END
>  <MODEL>
2

>  <REMARK>
 VINA RESULT:      -9.1      1.469      2.103
  Name = 
  2 active torsions:
  status: ('A' for Active; 'I' for Inactive)
    1  A    between atoms: C_5  and  C_30
    2  A    between atoms: C_10  and  N_16
                            x       y       z     vdW  Elec       q    Type
                         _______ _______ _______ _____ _____    ______ ____

>  <TORSDO>
F 2

$$$$
=
 OpenBabel11112416553D

 31 35  0  0  1  0  0  0  0  0999 V2000
  185.9690  178.2590  140.8540 C   0  0  0  0  0  0  0  0  0  0  0  0
  188.4360  178.1180  143.7480 C   0  0  2  0  0  3  0  0  0  0  0  0
  187.6150  177.8190  144.9970 C   0  0  0  0  0  0  0  0  0  0  0  0
  185.4770  177.8840  146.1650 C   0  0  0  0  0  0  0  0  0  0  0  0
  187.7230  177.7650  142.4600 C   0  0  0  0  0  0  0  0  0  0  0  0
  186.3070  177.1170  140.1250 C   0  0  0  0  0  3  0  0  0  0  0  0
  186.2330  178.0740  145.0070 C   0  0  0  0  0  3  0  0  0  0  0  0
  189.7840  176.0010  143.4720 C   0  0  2  0  0  3  0  0  0  0  0  0
  184.9520  179.0510  140.4370 F   0  0  0  0  0  0  0  0  0  0  0  0
  189.7070  177.1130  146.2780 C   0  0  0  0  0  2  0  0  0  0  0  0
  184.0150  178.1440  146.1480 C   0  0  0  0  0  1  0  0  0  0  0  0
  189.2800  175.7900  142.0460 C   0  0  0  0  0  2  0  0  0  0  0  0
  189.8450  177.5010  143.7950 C   0  0  2  0  0  3  0  0  0  0  0  0
  186.6760  178.5820  142.0140 C   0  0  0  0  0  3  0  0  0  0  0  0
  186.0960  177.4550  147.3400 C   0  0  0  0  0  3  0  0  0  0  0  0
  188.0700  176.6140  141.7150 C   0  0  0  0  0  0  0  0  0  0  0  0
  187.3610  176.3050  140.5500 C   0  0  0  0  0  3  0  0  0  0  0  0
  190.4920  177.7810  145.1530 C   0  0  0  0  0  2  0  0  0  0  0  0
  188.2400  177.4210  146.2050 C   0  0  0  0  0  0  0  0  0  0  0  0
  187.4730  177.2230  147.3570 C   0  0  0  0  0  3  0  0  0  0  0  0
  190.4350  173.7970  145.1720 O   0  0  0  0  0  0  0  0  0  0  0  0
  191.3640  174.2970  144.4840 C   0  0  0  0  0  0  0  0  0  0  0  0
  191.1030  175.3990  143.6120 N   0  0  0  0  0  2  0  0  0  0  0  0
  194.2530  176.1660  145.1410 C   0  0  0  0  0  0  0  0  0  0  0  0
  193.3260  173.9990  146.0250 C   0  0  0  0  0  2  0  0  0  0  0  0
  193.2440  174.0860  142.1500 C   0  0  0  0  0  1  0  0  0  0  0  0
  194.8300  177.2690  145.3260 O   0  0  0  0  0  0  0  0  0  0  0  0
  193.5740  175.4850  146.2940 C   0  0  0  0  0  2  0  0  0  0  0  0
  193.7530  174.2520  143.5710 C   0  0  2  0  0  3  0  0  0  0  0  0
  192.7560  173.7480  144.6260 C   0  0  2  0  0  3  0  0  0  0  0  0
  194.1570  175.6320  143.8170 N   0  0  0  0  0  2  0  0  0  0  0  0
  1 14  1  0  0  0  0
  2  5  1  6  0  0  0
  2 13  1  0  0  0  0
  2  3  1  0  0  0  0
  3  7  2  0  0  0  0
  3 19  1  0  0  0  0
  4 15  2  0  0  0  0
  6 17  1  0  0  0  0
  6  1  2  0  0  0  0
  7  4  1  0  0  0  0
  8 23  1  6  0  0  0
  8 13  1  0  0  0  0
  9  1  1  0  0  0  0
 11  4  1  0  0  0  0
 12  8  1  0  0  0  0
 13 18  1  1  0  0  0
 14  5  2  0  0  0  0
 15 20  1  0  0  0  0
 16 12  1  0  0  0  0
 16  5  1  0  0  0  0
 17 16  2  0  0  0  0
 18 10  1  0  0  0  0
 19 10  1  0  0  0  0
 19 20  2  0  0  0  0
 22 21  2  0  0  0  0
 23 22  1  0  0  0  0
 24 27  2  0  0  0  0
 24 28  1  0  0  0  0
 25 28  1  0  0  0  0
 29 26  1  6  0  0  0
 29 31  1  0  0  0  0
 29 30  1  0  0  0  0
 30 22  1  1  0  0  0
 30 25  1  0  0  0  0
 31 24  1  0  0  0  0
M  END
>  <MODEL>
3

>  <REMARK>
 VINA RESULT:      -9.1      2.031      4.282
  Name = 
  2 active torsions:
  status: ('A' for Active; 'I' for Inactive)
    1  A    between atoms: C_5  and  C_30
    2  A    between atoms: C_10  and  N_16
                            x       y       z     vdW  Elec       q    Type
                         _______ _______ _______ _____ _____    ______ ____

>  <TORSDO>
F 2

$$$$
=
 OpenBabel11112416553D

 31 35  0  0  1  0  0  0  0  0999 V2000
  194.3370  176.3940  145.1190 C   0  0  0  0  0  0  0  0  0  0  0  0
  190.9190  177.0790  143.5930 C   0  0  2  0  0  3  0  0  0  0  0  0
  190.5650  175.8490  142.7630 C   0  0  0  0  0  0  0  0  0  0  0  0
  191.2880  173.8880  141.5110 C   0  0  0  0  0  0  0  0  0  0  0  0
  191.9970  176.8210  144.6230 C   0  0  0  0  0  0  0  0  0  0  0  0
  194.0300  176.2560  146.4740 C   0  0  0  0  0  3  0  0  0  0  0  0
  191.5790  174.9740  142.3390 C   0  0  0  0  0  3  0  0  0  0  0  0
  189.2320  176.9640  145.4680 C   0  0  2  0  0  3  0  0  0  0  0  0
  195.6160  176.2490  144.6970 F   0  0  0  0  0  0  0  0  0  0  0  0
  188.1050  176.5220  142.7020 C   0  0  0  0  0  2  0  0  0  0  0  0
  192.3730  172.9660  141.0880 C   0  0  0  0  0  1  0  0  0  0  0  0
  190.3220  176.9900  146.5370 C   0  0  0  0  0  2  0  0  0  0  0  0
  189.6860  177.7470  144.2280 C   0  0  2  0  0  3  0  0  0  0  0  0
  193.3260  176.6780  144.1990 C   0  0  0  0  0  3  0  0  0  0  0  0
  189.9800  173.6720  141.0770 C   0  0  0  0  0  3  0  0  0  0  0  0
  191.6910  176.6900  145.9970 C   0  0  0  0  0  0  0  0  0  0  0  0
  192.7130  176.4140  146.9110 C   0  0  0  0  0  3  0  0  0  0  0  0
  188.5760  177.8900  143.1860 C   0  0  0  0  0  2  0  0  0  0  0  0
  189.2470  175.6440  142.2860 C   0  0  0  0  0  0  0  0  0  0  0  0
  188.9640  174.5470  141.4660 C   0  0  0  0  0  3  0  0  0  0  0  0
  187.4410  175.6660  147.2790 O   0  0  0  0  0  0  0  0  0  0  0  0
  187.1530  176.8370  146.9130 C   0  0  0  0  0  0  0  0  0  0  0  0
  188.0100  177.5410  146.0110 N   0  0  0  0  0  2  0  0  0  0  0  0
  185.2380  179.2110  145.1920 C   0  0  0  0  0  0  0  0  0  0  0  0
  184.6930  177.1250  146.4930 C   0  0  0  0  0  2  0  0  0  0  0  0
  187.1290  179.4130  148.4590 C   0  0  0  0  0  1  0  0  0  0  0  0
  185.0530  179.9650  144.2020 O   0  0  0  0  0  0  0  0  0  0  0  0
  184.8190  177.7720  145.1100 C   0  0  0  0  0  2  0  0  0  0  0  0
  185.9480  178.9840  147.6040 C   0  0  2  0  0  3  0  0  0  0  0  0
  185.8780  177.4630  147.4020 C   0  0  2  0  0  3  0  0  0  0  0  0
  185.9420  179.7040  146.3350 N   0  0  0  0  0  2  0  0  0  0  0  0
  1  6  1  0  0  0  0
  2  3  1  1  0  0  0
  2 13  1  0  0  0  0
  2  5  1  0  0  0  0
  4  7  2  0  0  0  0
  5 16  2  0  0  0  0
  6 17  2  0  0  0  0
  7  3  1  0  0  0  0
  8 23  1  1  0  0  0
  8 12  1  0  0  0  0
  9  1  1  0  0  0  0
 10 18  1  0  0  0  0
 11  4  1  0  0  0  0
 13 18  1  6  0  0  0
 13  8  1  0  0  0  0
 14  5  1  0  0  0  0
 14  1  2  0  0  0  0
 15 20  2  0  0  0  0
 15  4  1  0  0  0  0
 16 12  1  0  0  0  0
 16 17  1  0  0  0  0
 19 10  1  0  0  0  0
 19  3  2  0  0  0  0
 20 19  1  0  0  0  0
 22 21  2  0  0  0  0
 23 22  1  0  0  0  0
 24 31  1  0  0  0  0
 25 30  1  0  0  0  0
 27 24  2  0  0  0  0
 28 24  1  0  0  0  0
 28 25  1  0  0  0  0
 29 26  1  6  0  0  0
 30 22  1  6  0  0  0
 30 29  1  0  0  0  0
 31 29  1  0  0  0  0
M  END
>  <MODEL>
4

>  <REMARK>
 VINA RESULT:      -9.0      3.606      7.041
  Name = 
  2 active torsions:
  status: ('A' for Active; 'I' for Inactive)
    1  A    between atoms: C_5  and  C_30
    2  A    between atoms: C_10  and  N_16
                            x       y       z     vdW  Elec       q    Type
                         _______ _______ _______ _____ _____    ______ ____

>  <TORSDO>
F 2

$$$$
=
 OpenBabel11112416553D

 31 35  0  0  1  0  0  0  0  0999 V2000
  191.8650  173.1950  141.5410 C   0  0  0  0  0  0  0  0  0  0  0  0
  191.0810  174.0690  145.1610 C   0  0  2  0  0  3  0  0  0  0  0  0
  192.1610  175.0480  145.6090 C   0  0  0  0  0  0  0  0  0  0  0  0
  194.4120  175.9450  145.3540 C   0  0  0  0  0  0  0  0  0  0  0  0
  190.9510  173.9640  143.6570 C   0  0  0  0  0  0  0  0  0  0  0  0
  190.8110  173.8060  140.8580 C   0  0  0  0  0  3  0  0  0  0  0  0
  193.3790  175.1160  144.9130 C   0  0  0  0  0  3  0  0  0  0  0  0
  189.0150  175.5210  145.1430 C   0  0  2  0  0  3  0  0  0  0  0  0
  192.8240  172.5310  140.8520 F   0  0  0  0  0  0  0  0  0  0  0  0
  190.7490  175.7890  147.6010 C   0  0  0  0  0  2  0  0  0  0  0  0
  195.6860  176.0140  144.5930 C   0  0  0  0  0  1  0  0  0  0  0  0
  188.7160  175.1880  143.6840 C   0  0  0  0  0  2  0  0  0  0  0  0
  189.7170  174.3370  145.8230 C   0  0  2  0  0  3  0  0  0  0  0  0
  191.9320  173.2710  142.9340 C   0  0  0  0  0  3  0  0  0  0  0  0
  194.2500  176.7050  146.5130 C   0  0  0  0  0  3  0  0  0  0  0  0
  189.8810  174.5740  142.9630 C   0  0  0  0  0  0  0  0  0  0  0  0
  189.8180  174.4830  141.5690 C   0  0  0  0  0  3  0  0  0  0  0  0
  189.9020  174.5500  147.3270 C   0  0  0  0  0  2  0  0  0  0  0  0
  192.0200  175.7930  146.8060 C   0  0  0  0  0  0  0  0  0  0  0  0
  193.0570  176.6290  147.2340 C   0  0  0  0  0  3  0  0  0  0  0  0
  188.4800  177.9220  146.6000 O   0  0  0  0  0  0  0  0  0  0  0  0
  187.5670  177.0560  146.5470 C   0  0  0  0  0  0  0  0  0  0  0  0
  187.7710  175.8350  145.8320 N   0  0  0  0  0  2  0  0  0  0  0  0
  184.8990  179.0230  145.4140 C   0  0  0  0  0  0  0  0  0  0  0  0
  185.0720  176.7640  146.5120 C   0  0  0  0  0  2  0  0  0  0  0  0
  187.2050  179.4050  148.3860 C   0  0  0  0  0  1  0  0  0  0  0  0
  184.3850  179.7900  144.5600 O   0  0  0  0  0  0  0  0  0  0  0  0
  184.8160  177.5370  145.2160 C   0  0  0  0  0  2  0  0  0  0  0  0
  186.0300  178.7730  147.6580 C   0  0  2  0  0  3  0  0  0  0  0  0
  186.2800  177.3040  147.2820 C   0  0  2  0  0  3  0  0  0  0  0  0
  185.6490  179.5750  146.5010 N   0  0  0  0  0  2  0  0  0  0  0  0
  1 14  1  0  0  0  0
  2  5  1  6  0  0  0
  2  3  1  0  0  0  0
  2 13  1  0  0  0  0
  3 19  1  0  0  0  0
  4 15  2  0  0  0  0
  6  1  2  0  0  0  0
  6 17  1  0  0  0  0
  7  4  1  0  0  0  0
  7  3  2  0  0  0  0
  8 13  1  0  0  0  0
  8 23  1  1  0  0  0
  9  1  1  0  0  0  0
 11  4  1  0  0  0  0
 12  8  1  0  0  0  0
 13 18  1  1  0  0  0
 14  5  2  0  0  0  0
 15 20  1  0  0  0  0
 16  5  1  0  0  0  0
 16 12  1  0  0  0  0
 17 16  2  0  0  0  0
 18 10  1  0  0  0  0
 19 20  2  0  0  0  0
 19 10  1  0  0  0  0
 22 21  2  0  0  0  0
 23 22  1  0  0  0  0
 24 31  1  0  0  0  0
 25 30  1  0  0  0  0
 27 24  2  0  0  0  0
 28 24  1  0  0  0  0
 28 25  1  0  0  0  0
 29 26  1  6  0  0  0
 30 22  1  6  0  0  0
 30 29  1  0  0  0  0
 31 29  1  0  0  0  0
M  END
>  <MODEL>
5

>  <REMARK>
 VINA RESULT:      -8.2      3.507      7.767
  Name = 
  2 active torsions:
  status: ('A' for Active; 'I' for Inactive)
    1  A    between atoms: C_5  and  C_30
    2  A    between atoms: C_10  and  N_16
                            x       y       z     vdW  Elec       q    Type
                         _______ _______ _______ _____ _____    ______ ____

>  <TORSDO>
F 2

$$$$
=
 OpenBabel11112416553D

 31 35  0  0  1  0  0  0  0  0999 V2000
  186.3350  178.4450  147.7140 C   0  0  0  0  0  0  0  0  0  0  0  0
  187.9900  175.8620  145.4620 C   0  0  2  0  0  3  0  0  0  0  0  0
  187.7720  176.3400  144.0300 C   0  0  0  0  0  0  0  0  0  0  0  0
  186.4770  177.6430  142.4300 C   0  0  0  0  0  0  0  0  0  0  0  0
  187.8170  176.9560  146.4940 C   0  0  0  0  0  0  0  0  0  0  0  0
  187.4350  179.0380  148.3370 C   0  0  0  0  0  3  0  0  0  0  0  0
  186.7450  177.2550  143.7440 C   0  0  0  0  0  3  0  0  0  0  0  0
  190.4850  176.1230  145.7420 C   0  0  2  0  0  3  0  0  0  0  0  0
  185.0830  178.8790  147.9960 F   0  0  0  0  0  0  0  0  0  0  0  0
  189.6160  174.8000  143.1710 C   0  0  0  0  0  2  0  0  0  0  0  0
  185.3960  178.6240  142.1520 C   0  0  0  0  0  1  0  0  0  0  0  0
  190.3190  177.0100  146.9740 C   0  0  0  0  0  2  0  0  0  0  0  0
  189.3260  175.1220  145.6500 C   0  0  2  0  0  3  0  0  0  0  0  0
  186.5250  177.4070  146.8000 C   0  0  0  0  0  3  0  0  0  0  0  0
  187.2190  177.1050  141.3780 C   0  0  0  0  0  3  0  0  0  0  0  0
  188.9280  177.5520  147.1330 C   0  0  0  0  0  0  0  0  0  0  0  0
  188.7250  178.5850  148.0530 C   0  0  0  0  0  3  0  0  0  0  0  0
  189.5190  174.1030  144.5250 C   0  0  0  0  0  2  0  0  0  0  0  0
  188.4950  175.7710  142.9520 C   0  0  0  0  0  0  0  0  0  0  0  0
  188.2250  176.1740  141.6410 C   0  0  0  0  0  3  0  0  0  0  0  0
  192.7370  176.5550  144.0340 O   0  0  0  0  0  0  0  0  0  0  0  0
  192.8470  175.6800  144.9340 C   0  0  0  0  0  0  0  0  0  0  0  0
  191.7580  175.4190  145.8220 N   0  0  0  0  0  2  0  0  0  0  0  0
  195.7160  176.1490  142.9800 C   0  0  0  0  0  0  0  0  0  0  0  0
  195.3070  175.7640  145.4340 C   0  0  0  0  0  2  0  0  0  0  0  0
  193.3320  173.2290  143.2650 C   0  0  0  0  0  1  0  0  0  0  0  0
  196.3280  176.7340  142.0490 O   0  0  0  0  0  0  0  0  0  0  0  0
  195.6810  176.7730  144.3450 C   0  0  0  0  0  2  0  0  0  0  0  0
  194.4770  174.0930  143.7650 C   0  0  2  0  0  3  0  0  0  0  0  0
  194.1190  174.8870  145.0310 C   0  0  2  0  0  3  0  0  0  0  0  0
  194.9730  174.9600  142.7010 N   0  0  0  0  0  2  0  0  0  0  0  0
  1  9  1  0  0  0  0
  1  6  1  0  0  0  0
  2  3  1  6  0  0  0
  2 13  1  0  0  0  0
  2  5  1  0  0  0  0
  4  7  2  0  0  0  0
  5 14  1  0  0  0  0
  5 16  2  0  0  0  0
  7  3  1  0  0  0  0
  8 23  1  1  0  0  0
  8 12  1  0  0  0  0
 10 18  1  0  0  0  0
 11  4  1  0  0  0  0
 12 16  1  0  0  0  0
 13 18  1  6  0  0  0
 13  8  1  0  0  0  0
 14  1  2  0  0  0  0
 15 20  2  0  0  0  0
 15  4  1  0  0  0  0
 16 17  1  0  0  0  0
 17  6  2  0  0  0  0
 19 10  1  0  0  0  0
 19  3  2  0  0  0  0
 20 19  1  0  0  0  0
 21 22  2  0  0  0  0
 22 23  1  0  0  0  0
 24 28  1  0  0  0  0
 27 24  2  0  0  0  0
 28 25  1  0  0  0  0
 29 26  1  6  0  0  0
 29 30  1  0  0  0  0
 30 22  1  6  0  0  0
 30 25  1  0  0  0  0
 31 24  1  0  0  0  0
 31 29  1  0  0  0  0
M  END
>  <MODEL>
6

>  <REMARK>
 VINA RESULT:      -8.1      1.167      1.391
  Name = 
  2 active torsions:
  status: ('A' for Active; 'I' for Inactive)
    1  A    between atoms: C_5  and  C_30
    2  A    between atoms: C_10  and  N_16
                            x       y       z     vdW  Elec       q    Type
                         _______ _______ _______ _____ _____    ______ ____

>  <TORSDO>
F 2

$$$$
=
 OpenBabel11112416553D

 31 35  0  0  1  0  0  0  0  0999 V2000
  186.4150  177.9670  140.7820 C   0  0  0  0  0  0  0  0  0  0  0  0
  188.6610  177.8270  143.8520 C   0  0  2  0  0  3  0  0  0  0  0  0
  187.7370  177.6440  145.0510 C   0  0  0  0  0  0  0  0  0  0  0  0
  185.5320  177.9010  146.0550 C   0  0  0  0  0  0  0  0  0  0  0  0
  188.0190  177.4520  142.5340 C   0  0  0  0  0  0  0  0  0  0  0  0
  186.7300  176.7700  140.1350 C   0  0  0  0  0  3  0  0  0  0  0  0
  186.3770  177.9830  144.9480 C   0  0  0  0  0  3  0  0  0  0  0  0
  189.8850  175.6210  143.7760 C   0  0  2  0  0  3  0  0  0  0  0  0
  185.4840  178.7970  140.2550 F   0  0  0  0  0  0  0  0  0  0  0  0
  189.6840  176.8810  146.5130 C   0  0  0  0  0  2  0  0  0  0  0  0
  184.0940  178.2490  145.9190 C   0  0  0  0  0  1  0  0  0  0  0  0
  189.4690  175.3660  142.3290 C   0  0  0  0  0  2  0  0  0  0  0  0
  190.0210  177.1280  144.0310 C   0  0  2  0  0  3  0  0  0  0  0  0
  187.0600  178.3070  141.9740 C   0  0  0  0  0  3  0  0  0  0  0  0
  186.0380  177.4970  147.2910 C   0  0  0  0  0  3  0  0  0  0  0  0
  188.3410  176.2450  141.8720 C   0  0  0  0  0  0  0  0  0  0  0  0
  187.6960  175.9180  140.6750 C   0  0  0  0  0  3  0  0  0  0  0  0
  190.5870  177.4400  145.4170 C   0  0  0  0  0  2  0  0  0  0  0  0
  188.2490  177.2720  146.3180 C   0  0  0  0  0  0  0  0  0  0  0  0
  187.3920  177.1830  147.4190 C   0  0  0  0  0  3  0  0  0  0  0  0
  192.3370  176.0720  142.3760 O   0  0  0  0  0  0  0  0  0  0  0  0
  192.3420  175.2170  143.3010 C   0  0  0  0  0  0  0  0  0  0  0  0
  191.1490  174.9470  144.0410 N   0  0  0  0  0  2  0  0  0  0  0  0
  192.5980  171.7510  143.7430 C   0  0  0  0  0  0  0  0  0  0  0  0
  193.9340  173.4620  142.4670 C   0  0  0  0  0  2  0  0  0  0  0  0
  193.2600  174.6310  146.1020 C   0  0  0  0  0  1  0  0  0  0  0  0
  192.0700  170.6130  143.8270 O   0  0  0  0  0  0  0  0  0  0  0  0
  192.9210  172.3170  142.3900 C   0  0  0  0  0  2  0  0  0  0  0  0
  193.6240  173.7260  144.9370 C   0  0  2  0  0  3  0  0  0  0  0  0
  193.6060  174.4550  143.5850 C   0  0  2  0  0  3  0  0  0  0  0  0
  192.7810  172.5350  144.9260 N   0  0  0  0  0  2  0  0  0  0  0  0
  1 14  1  0  0  0  0
  2  5  1  6  0  0  0
  2 13  1  0  0  0  0
  2  3  1  0  0  0  0
  3 19  1  0  0  0  0
  4 15  2  0  0  0  0
  6 17  1  0  0  0  0
  6  1  2  0  0  0  0
  7  3  2  0  0  0  0
  7  4  1  0  0  0  0
  8 13  1  0  0  0  0
  8 23  1  6  0  0  0
  9  1  1  0  0  0  0
 11  4  1  0  0  0  0
 12  8  1  0  0  0  0
 13 18  1  1  0  0  0
 14  5  2  0  0  0  0
 15 20  1  0  0  0  0
 16 12  1  0  0  0  0
 16  5  1  0  0  0  0
 17 16  2  0  0  0  0
 18 10  1  0  0  0  0
 19 10  1  0  0  0  0
 19 20  2  0  0  0  0
 21 22  2  0  0  0  0
 22 23  1  0  0  0  0
 24 27  2  0  0  0  0
 24 31  1  0  0  0  0
 25 30  1  0  0  0  0
 28 25  1  0  0  0  0
 28 24  1  0  0  0  0
 29 26  1  1  0  0  0
 30 22  1  6  0  0  0
 30 29  1  0  0  0  0
 31 29  1  0  0  0  0
M  END
>  <MODEL>
7

>  <REMARK>
 VINA RESULT:      -8.0      2.455      4.710
  Name = 
  2 active torsions:
  status: ('A' for Active; 'I' for Inactive)
    1  A    between atoms: C_5  and  C_30
    2  A    between atoms: C_10  and  N_16
                            x       y       z     vdW  Elec       q    Type
                         _______ _______ _______ _____ _____    ______ ____

>  <TORSDO>
F 2

$$$$
=
 OpenBabel11112416553D

 31 35  0  0  1  0  0  0  0  0999 V2000
  191.6140  171.1850  143.0640 C   0  0  0  0  0  0  0  0  0  0  0  0
  190.6070  173.8650  145.5720 C   0  0  2  0  0  3  0  0  0  0  0  0
  191.8610  174.6870  145.8470 C   0  0  0  0  0  0  0  0  0  0  0  0
  194.2920  174.8510  145.8890 C   0  0  0  0  0  0  0  0  0  0  0  0
  190.6820  173.0650  144.2890 C   0  0  0  0  0  0  0  0  0  0  0  0
  190.9280  171.5870  141.9160 C   0  0  0  0  0  3  0  0  0  0  0  0
  193.1290  174.1490  145.5690 C   0  0  0  0  0  3  0  0  0  0  0  0
  189.1420  175.5160  144.3460 C   0  0  2  0  0  3  0  0  0  0  0  0
  192.4030  170.0850  143.0310 F   0  0  0  0  0  0  0  0  0  0  0  0
  190.4730  176.5870  146.8350 C   0  0  0  0  0  2  0  0  0  0  0  0
  195.6220  174.2690  145.5710 C   0  0  0  0  0  1  0  0  0  0  0  0
  188.9780  174.5810  143.1500 C   0  0  0  0  0  2  0  0  0  0  0  0
  189.3160  174.7020  145.6350 C   0  0  2  0  0  3  0  0  0  0  0  0
  191.4880  171.9200  144.2450 C   0  0  0  0  0  3  0  0  0  0  0  0
  194.2060  176.0960  146.5130 C   0  0  0  0  0  3  0  0  0  0  0  0
  189.9820  173.4640  143.1270 C   0  0  0  0  0  0  0  0  0  0  0  0
  190.1080  172.7160  141.9520 C   0  0  0  0  0  3  0  0  0  0  0  0
  189.3270  175.5810  146.8870 C   0  0  0  0  0  2  0  0  0  0  0  0
  191.7850  175.9350  146.5150 C   0  0  0  0  0  0  0  0  0  0  0  0
  192.9560  176.6350  146.8220 C   0  0  0  0  0  3  0  0  0  0  0  0
  189.0530  178.2850  143.6380 O   0  0  0  0  0  0  0  0  0  0  0  0
  187.9950  177.7610  144.0780 C   0  0  0  0  0  0  0  0  0  0  0  0
  187.9740  176.3800  144.4470 N   0  0  0  0  0  2  0  0  0  0  0  0
  185.2380  177.0200  146.1070 C   0  0  0  0  0  0  0  0  0  0  0  0
  186.6100  179.0910  145.6970 C   0  0  0  0  0  2  0  0  0  0  0  0
  185.5530  177.4230  142.3610 C   0  0  0  0  0  1  0  0  0  0  0  0
  184.6240  176.2480  146.8880 O   0  0  0  0  0  0  0  0  0  0  0  0
  186.2910  177.9390  146.6540 C   0  0  0  0  0  2  0  0  0  0  0  0
  185.4640  177.9670  143.7760 C   0  0  2  0  0  3  0  0  0  0  0  0
  186.7720  178.6170  144.2510 C   0  0  2  0  0  3  0  0  0  0  0  0
  185.0030  176.9350  144.6980 N   0  0  0  0  0  2  0  0  0  0  0  0
  1 14  1  0  0  0  0
  2  5  1  6  0  0  0
  2 13  1  0  0  0  0
  2  3  1  0  0  0  0
  3 19  1  0  0  0  0
  4 15  2  0  0  0  0
  6 17  1  0  0  0  0
  6  1  2  0  0  0  0
  7  3  2  0  0  0  0
  7  4  1  0  0  0  0
  8 23  1  1  0  0  0
  8 13  1  0  0  0  0
  9  1  1  0  0  0  0
 10 18  1  0  0  0  0
 11  4  1  0  0  0  0
 12  8  1  0  0  0  0
 13 18  1  1  0  0  0
 14  5  2  0  0  0  0
 15 20  1  0  0  0  0
 16 12  1  0  0  0  0
 16  5  1  0  0  0  0
 17 16  2  0  0  0  0
 19 20  2  0  0  0  0
 19 10  1  0  0  0  0
 21 22  2  0  0  0  0
 22 23  1  0  0  0  0
 24 28  1  0  0  0  0
 24 27  2  0  0  0  0
 25 28  1  0  0  0  0
 29 26  1  6  0  0  0
 29 30  1  0  0  0  0
 29 31  1  0  0  0  0
 30 22  1  1  0  0  0
 30 25  1  0  0  0  0
 31 24  1  0  0  0  0
M  END
>  <MODEL>
8

>  <REMARK>
 VINA RESULT:      -8.0      3.477      7.798
  Name = 
  2 active torsions:
  status: ('A' for Active; 'I' for Inactive)
    1  A    between atoms: C_5  and  C_30
    2  A    between atoms: C_10  and  N_16
                            x       y       z     vdW  Elec       q    Type
                         _______ _______ _______ _____ _____    ______ ____

>  <TORSDO>
F 2

$$$$
=
 OpenBabel11112416553D

 31 35  0  0  1  0  0  0  0  0999 V2000
  185.9260  179.0390  142.9350 C   0  0  0  0  0  0  0  0  0  0  0  0
  189.0510  176.9230  143.4250 C   0  0  2  0  0  3  0  0  0  0  0  0
  188.8630  176.1800  144.7430 C   0  0  0  0  0  0  0  0  0  0  0  0
  187.8150  176.0410  146.9390 C   0  0  0  0  0  0  0  0  0  0  0  0
  187.7560  177.4440  142.8380 C   0  0  0  0  0  0  0  0  0  0  0  0
  185.3130  178.4080  141.8500 C   0  0  0  0  0  3  0  0  0  0  0  0
  187.9440  176.6570  145.6930 C   0  0  0  0  0  3  0  0  0  0  0  0
  188.9500  175.0490  141.7350 C   0  0  2  0  0  3  0  0  0  0  0  0
  185.3380  180.1140  143.5130 F   0  0  0  0  0  0  0  0  0  0  0  0
  190.6990  174.5150  144.1380 C   0  0  0  0  0  2  0  0  0  0  0  0
  186.8250  176.5520  147.9210 C   0  0  0  0  0  1  0  0  0  0  0  0
  187.8170  175.7200  140.9630 C   0  0  0  0  0  2  0  0  0  0  0  0
  189.8470  176.1100  142.3880 C   0  0  2  0  0  3  0  0  0  0  0  0
  187.1430  178.5610  143.4230 C   0  0  0  0  0  3  0  0  0  0  0  0
  188.6200  174.9490  147.2630 C   0  0  0  0  0  3  0  0  0  0  0  0
  187.1370  176.8130  141.7350 C   0  0  0  0  0  0  0  0  0  0  0  0
  185.9230  177.3060  141.2480 C   0  0  0  0  0  3  0  0  0  0  0  0
  191.0890  175.5050  143.0440 C   0  0  0  0  0  2  0  0  0  0  0  0
  189.7030  175.0950  145.0970 C   0  0  0  0  0  0  0  0  0  0  0  0
  189.5590  174.4780  146.3430 C   0  0  0  0  0  3  0  0  0  0  0  0
  189.1210  172.1970  141.8230 O   0  0  0  0  0  0  0  0  0  0  0  0
  189.7740  172.7930  140.9250 C   0  0  0  0  0  0  0  0  0  0  0  0
  189.7280  174.2180  140.8270 N   0  0  0  0  0  2  0  0  0  0  0  0
  192.8570  173.7940  139.5970 C   0  0  0  0  0  0  0  0  0  0  0  0
  191.9940  171.6580  140.6130 C   0  0  0  0  0  2  0  0  0  0  0  0
  189.5470  173.0330  137.9390 C   0  0  0  0  0  1  0  0  0  0  0  0
  193.7660  174.6530  139.4570 O   0  0  0  0  0  0  0  0  0  0  0  0
  192.8640  172.9030  140.8060 C   0  0  0  0  0  2  0  0  0  0  0  0
  190.8480  172.6270  138.6090 C   0  0  2  0  0  3  0  0  0  0  0  0
  190.6350  171.9900  139.9910 C   0  0  2  0  0  3  0  0  0  0  0  0
  191.7730  173.7540  138.6650 N   0  0  0  0  0  2  0  0  0  0  0  0
  1 14  1  0  0  0  0
  1  9  1  0  0  0  0
  2  5  1  6  0  0  0
  2  3  1  0  0  0  0
  3 19  2  0  0  0  0
  3  7  1  0  0  0  0
  4 15  1  0  0  0  0
  4 11  1  0  0  0  0
  5 14  2  0  0  0  0
  6  1  2  0  0  0  0
  7  4  2  0  0  0  0
  8 23  1  6  0  0  0
  8 13  1  0  0  0  0
 10 19  1  0  0  0  0
 12 16  1  0  0  0  0
 12  8  1  0  0  0  0
 13 18  1  1  0  0  0
 13  2  1  0  0  0  0
 16  5  1  0  0  0  0
 17 16  2  0  0  0  0
 17  6  1  0  0  0  0
 18 10  1  0  0  0  0
 19 20  1  0  0  0  0
 20 15  2  0  0  0  0
 22 21  2  0  0  0  0
 23 22  1  0  0  0  0
 24 28  1  0  0  0  0
 25 28  1  0  0  0  0
 27 24  2  0  0  0  0
 29 26  1  1  0  0  0
 29 31  1  0  0  0  0
 29 30  1  0  0  0  0
 30 25  1  0  0  0  0
 30 22  1  1  0  0  0
 31 24  1  0  0  0  0
M  END
>  <MODEL>
9

>  <REMARK>
 VINA RESULT:      -7.8      3.396      5.604
  Name = 
  2 active torsions:
  status: ('A' for Active; 'I' for Inactive)
    1  A    between atoms: C_5  and  C_30
    2  A    between atoms: C_10  and  N_16
                            x       y       z     vdW  Elec       q    Type
                         _______ _______ _______ _____ _____    ______ ____

>  <TORSDO>
F 2

$$$$
