=
 OpenBabel11112417433D

 28 32  0  0  1  0  0  0  0  0999 V2000
  186.1330  178.3550  144.5600 C   0  0  0  0  0  0  0  0  0  0  0  0
  189.4270  178.2360  145.4860 F   0  0  0  0  0  0  0  0  0  0  0  0
  187.9630  173.2990  141.3380 C   0  0  0  0  0  1  0  0  0  0  0  0
  184.4830  177.5890  146.7000 C   0  0  0  0  0  3  0  0  0  0  0  0
  189.5640  174.6020  142.7290 C   0  0  2  0  0  3  0  0  0  0  0  0
  186.9410  178.8380  143.3910 C   0  0  0  0  0  2  0  0  0  0  0  0
  188.2000  177.7960  147.3340 O   0  0  0  0  0  1  0  0  0  0  0  0
  189.1620  177.2890  146.4610 C   0  0  1  0  0  0  0  0  0  0  0  0
  191.2370  175.8290  146.8030 C   0  0  2  0  0  3  0  0  0  0  0  0
  188.6540  175.9730  145.8060 C   0  0  2  0  0  3  0  0  0  0  0  0
  187.6030  177.6520  140.4030 O   0  0  0  0  0  0  0  0  0  0  0  0
  188.0810  176.2230  143.5320 C   0  0  1  0  0  3  0  0  0  0  0  0
  191.0640  175.6430  145.3050 C   0  0  0  0  0  2  0  0  0  0  0  0
  190.4420  177.0460  147.2690 C   0  0  0  0  0  2  0  0  0  0  0  0
  186.7750  177.4570  141.3300 C   0  0  0  0  0  0  0  0  0  0  0  0
  186.3680  177.1190  145.2310 C   0  0  0  0  0  0  0  0  0  0  0  0
  188.4120  174.6880  141.7450 C   0  0  2  0  0  3  0  0  0  0  0  0
  192.6410  176.0190  147.1160 N   0  0  0  0  0  1  0  0  0  0  0  0
  186.4590  176.1540  141.7260 O   0  0  0  0  0  0  0  0  0  0  0  0
  185.5240  176.7560  146.2890 C   0  0  0  0  0  3  0  0  0  0  0  0
  185.0840  179.1800  144.9870 C   0  0  0  0  0  3  0  0  0  0  0  0
  184.2650  178.8020  146.0510 C   0  0  0  0  0  3  0  0  0  0  0  0
  186.1980  178.6170  142.0730 C   0  0  0  0  0  2  0  0  0  0  0  0
  189.4620  175.7520  143.6290 N   0  0  1  0  0  0  0  0  0  0  0  0
  187.3300  175.3650  142.5390 C   0  0  2  0  0  3  0  0  0  0  0  0
  189.6740  175.3100  144.9570 N   0  0  2  0  0  0  0  0  0  0  0  0
  190.8840  174.6470  141.9840 C   0  0  0  0  0  1  0  0  0  0  0  0
  187.4580  176.1230  144.8870 C   0  0  2  0  0  3  0  0  0  0  0  0
  1 21  2  0  0  0  0
  1 16  1  0  0  0  0
  3 17  1  0  0  0  0
  5 27  1  6  0  0  0
  5 24  1  0  0  0  0
  6  1  1  0  0  0  0
  8  2  1  6  0  0  0
  8 14  1  0  0  0  0
  8  7  1  0  0  0  0
  9 18  1  6  0  0  0
  9 14  1  0  0  0  0
 10  8  1  0  0  0  0
 11 15  2  0  0  0  0
 12 24  1  0  0  0  0
 12 28  1  0  0  0  0
 13  9  1  0  0  0  0
 15 19  1  0  0  0  0
 15 23  1  0  0  0  0
 16 20  2  0  0  0  0
 17 25  1  0  0  0  0
 17  5  1  0  0  0  0
 19 25  1  0  0  0  0
 20  4  1  0  0  0  0
 21 22  1  0  0  0  0
 22  4  2  0  0  0  0
 23  6  1  0  0  0  0
 24 26  1  0  0  0  0
 25 12  1  0  0  0  0
 26 13  1  0  0  0  0
 26 10  1  0  0  0  0
 28 16  1  0  0  0  0
 28 10  1  0  0  0  0
M  END
>  <MODEL>
1

>  <REMARK>
 VINA RESULT:      -9.4      0.000      0.000
  Name = 
  0 active torsions:
  status: ('A' for Active; 'I' for Inactive)
                            x       y       z     vdW  Elec       q    Type
                         _______ _______ _______ _____ _____    ______ ____

>  <TORSDO>
F 0

$$$$
=
 OpenBabel11112417433D

 28 32  0  0  1  0  0  0  0  0999 V2000
  187.0150  177.9600  145.0140 C   0  0  0  0  0  0  0  0  0  0  0  0
  190.4360  177.9070  145.1230 F   0  0  0  0  0  0  0  0  0  0  0  0
  188.1110  172.8150  141.6060 C   0  0  0  0  0  1  0  0  0  0  0  0
  185.9410  177.2510  147.5110 C   0  0  0  0  0  3  0  0  0  0  0  0
  189.9750  174.1820  142.5290 C   0  0  2  0  0  3  0  0  0  0  0  0
  187.5090  178.4110  143.6700 C   0  0  0  0  0  2  0  0  0  0  0  0
  189.6970  177.5190  147.2250 O   0  0  0  0  0  1  0  0  0  0  0  0
  190.4310  176.9930  146.1630 C   0  0  1  0  0  0  0  0  0  0  0  0
  192.5540  175.5670  146.0410 C   0  0  2  0  0  3  0  0  0  0  0  0
  189.8050  175.6490  145.6900 C   0  0  2  0  0  3  0  0  0  0  0  0
  187.4560  177.1290  140.6490 O   0  0  0  0  0  0  0  0  0  0  0  0
  188.6980  175.8140  143.6140 C   0  0  1  0  0  3  0  0  0  0  0  0
  192.0300  175.3270  144.6340 C   0  0  0  0  0  2  0  0  0  0  0  0
  191.8720  176.7910  146.6460 C   0  0  0  0  0  2  0  0  0  0  0  0
  186.8790  176.9570  141.7540 C   0  0  0  0  0  0  0  0  0  0  0  0
  187.4270  176.7510  145.6460 C   0  0  0  0  0  0  0  0  0  0  0  0
  188.6190  174.2210  141.8480 C   0  0  2  0  0  3  0  0  0  0  0  0
  193.9880  175.7820  146.0000 N   0  0  0  0  0  1  0  0  0  0  0  0
  186.6910  175.6660  142.2540 O   0  0  0  0  0  0  0  0  0  0  0  0
  186.8680  176.4160  146.8880 C   0  0  0  0  0  3  0  0  0  0  0  0
  186.0840  178.7880  145.6550 C   0  0  0  0  0  3  0  0  0  0  0  0
  185.5520  178.4390  146.8960 C   0  0  0  0  0  3  0  0  0  0  0  0
  186.4760  178.1360  142.5770 C   0  0  0  0  0  2  0  0  0  0  0  0
  190.0710  175.3610  143.3910 N   0  0  1  0  0  0  0  0  0  0  0  0
  187.7470  174.9150  142.8580 C   0  0  2  0  0  3  0  0  0  0  0  0
  190.6030  174.9680  144.6410 N   0  0  2  0  0  0  0  0  0  0  0  0
  191.0760  174.2150  141.4880 C   0  0  0  0  0  1  0  0  0  0  0  0
  188.4210  175.7550  145.0820 C   0  0  2  0  0  3  0  0  0  0  0  0
  1 16  2  0  0  0  0
  1 21  1  0  0  0  0
  3 17  1  0  0  0  0
  5 27  1  6  0  0  0
  5 24  1  0  0  0  0
  6  1  1  0  0  0  0
  8  2  1  6  0  0  0
  8 14  1  0  0  0  0
  8  7  1  0  0  0  0
  9 18  1  6  0  0  0
  9 14  1  0  0  0  0
 10  8  1  0  0  0  0
 11 15  2  0  0  0  0
 12 28  1  0  0  0  0
 13 26  1  0  0  0  0
 13  9  1  0  0  0  0
 15 19  1  0  0  0  0
 15 23  1  0  0  0  0
 16 20  1  0  0  0  0
 17  5  1  0  0  0  0
 17 25  1  0  0  0  0
 19 25  1  0  0  0  0
 20  4  2  0  0  0  0
 21 22  2  0  0  0  0
 22  4  1  0  0  0  0
 23  6  1  0  0  0  0
 24 12  1  0  0  0  0
 24 26  1  0  0  0  0
 25 12  1  0  0  0  0
 26 10  1  0  0  0  0
 28 16  1  0  0  0  0
 28 10  1  0  0  0  0
M  END
>  <MODEL>
2

>  <REMARK>
 VINA RESULT:      -8.9      1.060      1.132
  Name = 
  0 active torsions:
  status: ('A' for Active; 'I' for Inactive)
                            x       y       z     vdW  Elec       q    Type
                         _______ _______ _______ _____ _____    ______ ____

>  <TORSDO>
F 0

$$$$
=
 OpenBabel11112417433D

 28 32  0  0  1  0  0  0  0  0999 V2000
  188.6480  176.1740  144.6700 C   0  0  0  0  0  0  0  0  0  0  0  0
  191.7900  177.2750  143.8690 F   0  0  0  0  0  0  0  0  0  0  0  0
  190.4870  171.5060  140.9130 C   0  0  0  0  0  1  0  0  0  0  0  0
  188.5660  175.2910  147.3350 C   0  0  0  0  0  3  0  0  0  0  0  0
  191.9530  173.4680  141.3590 C   0  0  2  0  0  3  0  0  0  0  0  0
  188.5930  176.6870  143.2610 C   0  0  0  0  0  2  0  0  0  0  0  0
  191.8000  176.7820  146.0770 O   0  0  0  0  0  1  0  0  0  0  0  0
  192.3640  176.4710  144.8410 C   0  0  1  0  0  0  0  0  0  0  0  0
  194.7330  175.8330  144.1110 C   0  0  2  0  0  3  0  0  0  0  0  0
  192.1280  174.9720  144.5030 C   0  0  2  0  0  3  0  0  0  0  0  0
  188.1910  175.2910  140.3170 O   0  0  0  0  0  0  0  0  0  0  0  0
  190.5300  174.6390  142.8000 C   0  0  1  0  0  3  0  0  0  0  0  0
  193.9740  175.3520  142.8850 C   0  0  0  0  0  2  0  0  0  0  0  0
  193.8610  176.7910  144.9180 C   0  0  0  0  0  2  0  0  0  0  0  0
  188.0140  175.0000  141.5290 C   0  0  0  0  0  0  0  0  0  0  0  0
  189.5940  175.2100  145.1280 C   0  0  0  0  0  0  0  0  0  0  0  0
  190.5360  173.0130  141.0620 C   0  0  2  0  0  3  0  0  0  0  0  0
  195.9480  176.5120  143.7010 N   0  0  0  0  0  1  0  0  0  0  0  0
  188.4100  173.7510  142.0140 O   0  0  0  0  0  0  0  0  0  0  0  0
  189.5250  174.7790  146.4600 C   0  0  0  0  0  3  0  0  0  0  0  0
  187.6940  176.6790  145.5640 C   0  0  0  0  0  3  0  0  0  0  0  0
  187.6530  176.2430  146.8880 C   0  0  0  0  0  3  0  0  0  0  0  0
  187.4670  176.0210  142.4710 C   0  0  0  0  0  2  0  0  0  0  0  0
  191.8670  174.6590  142.2060 N   0  0  1  0  0  0  0  0  0  0  0  0
  189.7760  173.4310  142.2910 C   0  0  2  0  0  3  0  0  0  0  0  0
  192.8070  174.5380  143.2570 N   0  0  2  0  0  0  0  0  0  0  0  0
  192.6670  173.8080  140.0650 C   0  0  0  0  0  1  0  0  0  0  0  0
  190.6810  174.5740  144.2860 C   0  0  2  0  0  3  0  0  0  0  0  0
  1 16  2  0  0  0  0
  1 21  1  0  0  0  0
  3 17  1  0  0  0  0
  5 27  1  6  0  0  0
  5 24  1  0  0  0  0
  6  1  1  0  0  0  0
  8  2  1  6  0  0  0
  8 14  1  0  0  0  0
  8  7  1  0  0  0  0
  9 18  1  6  0  0  0
  9 14  1  0  0  0  0
 10  8  1  0  0  0  0
 11 15  2  0  0  0  0
 12 28  1  0  0  0  0
 13 26  1  0  0  0  0
 13  9  1  0  0  0  0
 15 19  1  0  0  0  0
 15 23  1  0  0  0  0
 16 20  1  0  0  0  0
 17  5  1  0  0  0  0
 17 25  1  0  0  0  0
 19 25  1  0  0  0  0
 20  4  2  0  0  0  0
 21 22  2  0  0  0  0
 22  4  1  0  0  0  0
 23  6  1  0  0  0  0
 24 12  1  0  0  0  0
 24 26  1  0  0  0  0
 25 12  1  0  0  0  0
 26 10  1  0  0  0  0
 28 10  1  0  0  0  0
 28 16  1  0  0  0  0
M  END
>  <MODEL>
3

>  <REMARK>
 VINA RESULT:      -7.9      2.498      3.555
  Name = 
  0 active torsions:
  status: ('A' for Active; 'I' for Inactive)
                            x       y       z     vdW  Elec       q    Type
                         _______ _______ _______ _____ _____    ______ ____

>  <TORSDO>
F 0

$$$$
=
 OpenBabel11112417433D

 28 32  0  0  1  0  0  0  0  0999 V2000
  188.2640  176.2720  145.5530 C   0  0  0  0  0  0  0  0  0  0  0  0
  188.7340  173.5530  143.5270 F   0  0  0  0  0  0  0  0  0  0  0  0
  194.4180  176.7910  144.4830 C   0  0  0  0  0  1  0  0  0  0  0  0
  186.8740  178.2910  144.1820 C   0  0  0  0  0  3  0  0  0  0  0  0
  193.0910  174.9080  143.5400 C   0  0  2  0  0  3  0  0  0  0  0  0
  188.9510  175.2190  146.3740 C   0  0  0  0  0  2  0  0  0  0  0  0
  187.4400  175.0170  142.3860 O   0  0  0  0  0  1  0  0  0  0  0  0
  188.6570  174.3360  142.3870 C   0  0  1  0  0  0  0  0  0  0  0  0
  190.0620  173.2660  140.5340 C   0  0  2  0  0  3  0  0  0  0  0  0
  189.8390  175.3470  142.3530 C   0  0  2  0  0  3  0  0  0  0  0  0
  191.9410  174.9160  147.6920 O   0  0  0  0  0  0  0  0  0  0  0  0
  190.9970  175.4990  144.4020 C   0  0  1  0  0  3  0  0  0  0  0  0
  191.1290  173.3570  141.6130 C   0  0  0  0  0  2  0  0  0  0  0  0
  188.6780  173.4190  141.1590 C   0  0  0  0  0  2  0  0  0  0  0  0
  191.2110  175.8230  147.2170 C   0  0  0  0  0  0  0  0  0  0  0  0
  188.7400  176.7290  144.2900 C   0  0  0  0  0  0  0  0  0  0  0  0
  193.3330  175.7710  144.7640 C   0  0  2  0  0  3  0  0  0  0  0  0
  190.1520  171.9830  139.8630 N   0  0  0  0  0  1  0  0  0  0  0  0
  191.7470  176.7650  146.3340 O   0  0  0  0  0  0  0  0  0  0  0  0
  188.0320  177.7440  143.6310 C   0  0  0  0  0  3  0  0  0  0  0  0
  187.0970  176.8310  146.0910 C   0  0  0  0  0  3  0  0  0  0  0  0
  186.4040  177.8320  145.4110 C   0  0  0  0  0  3  0  0  0  0  0  0
  189.7490  175.8420  147.5200 C   0  0  0  0  0  2  0  0  0  0  0  0
  191.6760  174.5320  143.5380 N   0  0  1  0  0  0  0  0  0  0  0  0
  192.0150  176.4670  144.9620 C   0  0  2  0  0  3  0  0  0  0  0  0
  191.1650  174.6930  142.2280 N   0  0  2  0  0  0  0  0  0  0  0  0
  193.9530  173.6620  143.6090 C   0  0  0  0  0  1  0  0  0  0  0  0
  189.9810  176.2240  143.5800 C   0  0  2  0  0  3  0  0  0  0  0  0
  1 21  1  0  0  0  0
  1  6  1  0  0  0  0
  3 17  1  0  0  0  0
  4 22  1  0  0  0  0
  5 27  1  1  0  0  0
  5 17  1  0  0  0  0
  6 23  1  0  0  0  0
  8  7  1  1  0  0  0
  8  2  1  0  0  0  0
  9 18  1  1  0  0  0
  9 14  1  0  0  0  0
  9 13  1  0  0  0  0
 10  8  1  0  0  0  0
 10 28  1  0  0  0  0
 12 25  1  0  0  0  0
 13 26  1  0  0  0  0
 14  8  1  0  0  0  0
 15 23  1  0  0  0  0
 15 11  2  0  0  0  0
 16  1  2  0  0  0  0
 17 25  1  0  0  0  0
 19 15  1  0  0  0  0
 20  4  2  0  0  0  0
 20 16  1  0  0  0  0
 22 21  2  0  0  0  0
 24  5  1  0  0  0  0
 24 12  1  0  0  0  0
 25 19  1  0  0  0  0
 26 10  1  0  0  0  0
 26 24  1  0  0  0  0
 28 16  1  0  0  0  0
 28 12  1  0  0  0  0
M  END
>  <MODEL>
4

>  <REMARK>
 VINA RESULT:      -7.9      2.468      5.356
  Name = 
  0 active torsions:
  status: ('A' for Active; 'I' for Inactive)
                            x       y       z     vdW  Elec       q    Type
                         _______ _______ _______ _____ _____    ______ ____

>  <TORSDO>
F 0

$$$$
=
 OpenBabel11112417433D

 28 32  0  0  1  0  0  0  0  0999 V2000
  188.7990  176.0060  144.8460 C   0  0  0  0  0  0  0  0  0  0  0  0
  189.2070  172.7140  143.9980 F   0  0  0  0  0  0  0  0  0  0  0  0
  194.9920  175.4600  145.6450 C   0  0  0  0  0  1  0  0  0  0  0  0
  188.2540  177.5480  142.5630 C   0  0  0  0  0  3  0  0  0  0  0  0
  193.5950  173.5180  144.9560 C   0  0  2  0  0  3  0  0  0  0  0  0
  189.0200  175.2430  146.1200 C   0  0  0  0  0  2  0  0  0  0  0  0
  188.5800  173.8120  142.1220 O   0  0  0  0  0  1  0  0  0  0  0  0
  189.5890  173.0500  142.7100 C   0  0  1  0  0  0  0  0  0  0  0  0
  191.1740  171.2540  141.8080 C   0  0  2  0  0  3  0  0  0  0  0  0
  190.9210  173.8520  142.7400 C   0  0  2  0  0  3  0  0  0  0  0  0
  191.4420  175.1080  148.3320 O   0  0  0  0  0  0  0  0  0  0  0  0
  191.5180  174.5920  144.8980 C   0  0  1  0  0  3  0  0  0  0  0  0
  191.9220  171.6050  143.0840 C   0  0  0  0  0  2  0  0  0  0  0  0
  189.7380  171.7630  141.8910 C   0  0  0  0  0  2  0  0  0  0  0  0
  191.0600  175.8620  147.3990 C   0  0  0  0  0  0  0  0  0  0  0  0
  189.6680  175.9350  143.7180 C   0  0  0  0  0  0  0  0  0  0  0  0
  193.6860  174.7250  145.8700 C   0  0  2  0  0  3  0  0  0  0  0  0
  191.1690  169.8150  141.6220 N   0  0  0  0  0  1  0  0  0  0  0  0
  191.9880  176.3700  146.4850 O   0  0  0  0  0  0  0  0  0  0  0  0
  189.3780  176.7230  142.5950 C   0  0  0  0  0  3  0  0  0  0  0  0
  187.6730  176.8380  144.7960 C   0  0  0  0  0  3  0  0  0  0  0  0
  187.4000  177.6030  143.6630 C   0  0  0  0  0  3  0  0  0  0  0  0
  189.6060  176.1400  147.2100 C   0  0  0  0  0  2  0  0  0  0  0  0
  192.1830  173.3170  144.6270 N   0  0  1  0  0  0  0  0  0  0  0  0
  192.5330  175.5810  145.4250 C   0  0  2  0  0  3  0  0  0  0  0  0
  192.0710  173.0600  143.2410 N   0  0  2  0  0  0  0  0  0  0  0  0
  194.1360  172.2920  145.6670 C   0  0  0  0  0  1  0  0  0  0  0  0
  190.9190  175.0860  143.6210 C   0  0  2  0  0  3  0  0  0  0  0  0
  1  6  1  0  0  0  0
  3 17  1  0  0  0  0
  4 20  2  0  0  0  0
  4 22  1  0  0  0  0
  5 27  1  1  0  0  0
  5 17  1  0  0  0  0
  6 23  1  0  0  0  0
  8  7  1  6  0  0  0
  8 10  1  0  0  0  0
  8  2  1  0  0  0  0
  9 18  1  1  0  0  0
  9 14  1  0  0  0  0
  9 13  1  0  0  0  0
 10 26  1  0  0  0  0
 10 28  1  0  0  0  0
 12 25  1  0  0  0  0
 13 26  1  0  0  0  0
 14  8  1  0  0  0  0
 15 11  2  0  0  0  0
 16  1  2  0  0  0  0
 19 15  1  0  0  0  0
 20 16  1  0  0  0  0
 21  1  1  0  0  0  0
 22 21  2  0  0  0  0
 23 15  1  0  0  0  0
 24 12  1  0  0  0  0
 24  5  1  0  0  0  0
 25 17  1  0  0  0  0
 25 19  1  0  0  0  0
 26 24  1  0  0  0  0
 28 16  1  0  0  0  0
 28 12  1  0  0  0  0
M  END
>  <MODEL>
5

>  <REMARK>
 VINA RESULT:      -7.7      3.011      5.878
  Name = 
  0 active torsions:
  status: ('A' for Active; 'I' for Inactive)
                            x       y       z     vdW  Elec       q    Type
                         _______ _______ _______ _____ _____    ______ ____

>  <TORSDO>
F 0

$$$$
=
 OpenBabel11112417433D

 28 32  0  0  1  0  0  0  0  0999 V2000
  190.8010  175.0770  144.2570 C   0  0  0  0  0  0  0  0  0  0  0  0
  189.1500  177.2220  142.1600 F   0  0  0  0  0  0  0  0  0  0  0  0
  185.9370  176.6010  147.9050 C   0  0  0  0  0  1  0  0  0  0  0  0
  190.5400  172.4290  143.3580 C   0  0  0  0  0  3  0  0  0  0  0  0
  186.2210  177.5920  145.6390 C   0  0  2  0  0  3  0  0  0  0  0  0
  191.0420  176.4690  144.7650 C   0  0  0  0  0  2  0  0  0  0  0  0
  189.0360  175.1620  141.2300 O   0  0  0  0  0  1  0  0  0  0  0  0
  188.2880  176.2200  141.7460 C   0  0  1  0  0  0  0  0  0  0  0  0
  186.0450  177.2600  141.0830 C   0  0  2  0  0  3  0  0  0  0  0  0
  187.4210  175.7320  142.9420 C   0  0  2  0  0  3  0  0  0  0  0  0
  190.1020  178.1430  147.4270 O   0  0  0  0  0  0  0  0  0  0  0  0
  188.1990  176.4990  145.0320 C   0  0  1  0  0  3  0  0  0  0  0  0
  186.1550  177.8210  142.4920 C   0  0  0  0  0  2  0  0  0  0  0  0
  187.4100  176.7650  140.6140 C   0  0  0  0  0  2  0  0  0  0  0  0
  190.1600  176.9470  147.0400 C   0  0  0  0  0  0  0  0  0  0  0  0
  189.5070  174.5420  143.9930 C   0  0  0  0  0  0  0  0  0  0  0  0
  186.9280  177.1910  146.9210 C   0  0  2  0  0  3  0  0  0  0  0  0
  185.5660  178.2910  140.1810 N   0  0  0  0  0  1  0  0  0  0  0  0
  189.0800  176.0870  147.2570 O   0  0  0  0  0  0  0  0  0  0  0  0
  189.4040  173.2140  143.5540 C   0  0  0  0  0  3  0  0  0  0  0  0
  191.9320  174.2760  144.0520 C   0  0  0  0  0  3  0  0  0  0  0  0
  191.8040  172.9610  143.6040 C   0  0  0  0  0  3  0  0  0  0  0  0
  191.3430  176.4690  146.2630 C   0  0  0  0  0  2  0  0  0  0  0  0
  187.1690  177.4140  144.5380 N   0  0  1  0  0  0  0  0  0  0  0  0
  187.8910  176.1300  146.4660 C   0  0  2  0  0  3  0  0  0  0  0  0
  186.5050  176.7750  143.4650 N   0  0  2  0  0  0  0  0  0  0  0  0
  185.7930  179.0440  145.7200 C   0  0  0  0  0  1  0  0  0  0  0  0
  188.1950  175.2820  144.1650 C   0  0  2  0  0  3  0  0  0  0  0  0
  1  6  1  0  0  0  0
  4 20  2  0  0  0  0
  4 22  1  0  0  0  0
  5 27  1  1  0  0  0
  5 17  1  0  0  0  0
  6 23  1  0  0  0  0
  8  7  1  6  0  0  0
  8  2  1  0  0  0  0
  8 10  1  0  0  0  0
  9 18  1  6  0  0  0
  9 13  1  0  0  0  0
 10 26  1  0  0  0  0
 10 28  1  0  0  0  0
 12 25  1  0  0  0  0
 13 26  1  0  0  0  0
 14  9  1  0  0  0  0
 14  8  1  0  0  0  0
 15 19  1  0  0  0  0
 15 11  2  0  0  0  0
 16 28  1  0  0  0  0
 16  1  2  0  0  0  0
 17  3  1  0  0  0  0
 20 16  1  0  0  0  0
 21  1  1  0  0  0  0
 22 21  2  0  0  0  0
 23 15  1  0  0  0  0
 24 12  1  0  0  0  0
 24  5  1  0  0  0  0
 25 17  1  0  0  0  0
 25 19  1  0  0  0  0
 26 24  1  0  0  0  0
 28 12  1  0  0  0  0
M  END
>  <MODEL>
6

>  <REMARK>
 VINA RESULT:      -7.6      2.146      6.298
  Name = 
  0 active torsions:
  status: ('A' for Active; 'I' for Inactive)
                            x       y       z     vdW  Elec       q    Type
                         _______ _______ _______ _____ _____    ______ ____

>  <TORSDO>
F 0

$$$$
=
 OpenBabel11112417433D

 28 32  0  0  1  0  0  0  0  0999 V2000
  190.5700  174.8020  144.8670 C   0  0  0  0  0  0  0  0  0  0  0  0
  187.7820  175.8360  146.5640 F   0  0  0  0  0  0  0  0  0  0  0  0
  187.4370  177.5570  140.1890 C   0  0  0  0  0  1  0  0  0  0  0  0
  192.7930  176.3600  145.5880 C   0  0  0  0  0  3  0  0  0  0  0  0
  186.4880  177.4230  142.4870 C   0  0  2  0  0  3  0  0  0  0  0  0
  189.4480  173.8830  144.4790 C   0  0  0  0  0  2  0  0  0  0  0  0
  189.5300  177.0230  147.3700 O   0  0  0  0  0  1  0  0  0  0  0  0
  188.3000  177.1110  146.7210 C   0  0  1  0  0  0  0  0  0  0  0  0
  186.3720  178.7910  146.8470 C   0  0  2  0  0  3  0  0  0  0  0  0
  188.4700  177.7930  145.3340 C   0  0  2  0  0  3  0  0  0  0  0  0
  187.7400  173.3720  141.7230 O   0  0  0  0  0  0  0  0  0  0  0  0
  188.2560  176.2970  143.5240 C   0  0  1  0  0  3  0  0  0  0  0  0
  186.0160  178.1260  145.5280 C   0  0  0  0  0  2  0  0  0  0  0  0
  187.3550  177.9160  147.6210 C   0  0  0  0  0  2  0  0  0  0  0  0
  188.8190  173.9180  142.0740 C   0  0  0  0  0  0  0  0  0  0  0  0
  190.4960  176.2230  144.7880 C   0  0  0  0  0  0  0  0  0  0  0  0
  187.2420  176.6730  141.4050 C   0  0  2  0  0  3  0  0  0  0  0  0
  185.1720  178.9870  147.6380 N   0  0  0  0  0  1  0  0  0  0  0  0
  189.1640  175.1750  141.5710 O   0  0  0  0  0  0  0  0  0  0  0  0
  191.6230  176.9770  145.1450 C   0  0  0  0  0  3  0  0  0  0  0  0
  191.7520  174.1990  145.3170 C   0  0  0  0  0  3  0  0  0  0  0  0
  192.8560  174.9710  145.6770 C   0  0  0  0  0  3  0  0  0  0  0  0
  189.6860  173.2670  143.1000 C   0  0  0  0  0  2  0  0  0  0  0  0
  186.9610  176.9280  143.7800 N   0  0  1  0  0  0  0  0  0  0  0  0
  188.5700  176.3840  142.0480 C   0  0  2  0  0  3  0  0  0  0  0  0
  187.1820  178.0320  144.6370 N   0  0  2  0  0  0  0  0  0  0  0  0
  185.0000  177.1660  142.3510 C   0  0  0  0  0  1  0  0  0  0  0  0
  189.2920  177.0180  144.3240 C   0  0  2  0  0  3  0  0  0  0  0  0
  1 21  1  0  0  0  0
  3 17  1  0  0  0  0
  4 22  1  0  0  0  0
  5 27  1  6  0  0  0
  5 24  1  0  0  0  0
  6  1  1  0  0  0  0
  8  2  1  6  0  0  0
  8  7  1  0  0  0  0
  8 14  1  0  0  0  0
  9 14  1  0  0  0  0
  9 18  1  1  0  0  0
 10  8  1  0  0  0  0
 11 15  2  0  0  0  0
 12 24  1  0  0  0  0
 12 28  1  0  0  0  0
 13  9  1  0  0  0  0
 15 23  1  0  0  0  0
 16  1  2  0  0  0  0
 16 20  1  0  0  0  0
 17 25  1  0  0  0  0
 17  5  1  0  0  0  0
 19 25  1  0  0  0  0
 19 15  1  0  0  0  0
 20  4  2  0  0  0  0
 21 22  2  0  0  0  0
 23  6  1  0  0  0  0
 24 26  1  0  0  0  0
 25 12  1  0  0  0  0
 26 10  1  0  0  0  0
 26 13  1  0  0  0  0
 28 16  1  0  0  0  0
 28 10  1  0  0  0  0
M  END
>  <MODEL>
7

>  <REMARK>
 VINA RESULT:      -7.5      2.212      5.023
  Name = 
  0 active torsions:
  status: ('A' for Active; 'I' for Inactive)
                            x       y       z     vdW  Elec       q    Type
                         _______ _______ _______ _____ _____    ______ ____

>  <TORSDO>
F 0

$$$$
=
 OpenBabel11112417433D

 28 32  0  0  1  0  0  0  0  0999 V2000
  186.5480  177.2320  144.4280 C   0  0  0  0  0  0  0  0  0  0  0  0
  187.3010  174.4970  142.5110 F   0  0  0  0  0  0  0  0  0  0  0  0
  192.5630  176.4460  146.0090 C   0  0  0  0  0  1  0  0  0  0  0  0
  186.2650  179.5140  142.8160 C   0  0  0  0  0  3  0  0  0  0  0  0
  191.4230  174.8980  144.4280 C   0  0  2  0  0  3  0  0  0  0  0  0
  186.6170  176.0490  145.3500 C   0  0  0  0  0  2  0  0  0  0  0  0
  186.9040  176.2140  141.0940 O   0  0  0  0  0  1  0  0  0  0  0  0
  187.8570  175.2910  141.5220 C   0  0  1  0  0  0  0  0  0  0  0  0
  189.6790  173.9670  140.3060 C   0  0  2  0  0  3  0  0  0  0  0  0
  189.1120  176.0280  142.0710 C   0  0  2  0  0  3  0  0  0  0  0  0
  188.6670  175.1040  147.7330 O   0  0  0  0  0  0  0  0  0  0  0  0
  189.3130  175.9100  144.4180 C   0  0  1  0  0  3  0  0  0  0  0  0
  190.1930  173.8190  141.7280 C   0  0  0  0  0  2  0  0  0  0  0  0
  188.2170  174.4030  140.3250 C   0  0  0  0  0  2  0  0  0  0  0  0
  188.3870  176.1510  147.0940 C   0  0  0  0  0  0  0  0  0  0  0  0
  187.5850  177.5910  143.5190 C   0  0  0  0  0  0  0  0  0  0  0  0
  191.2890  175.6770  145.7240 C   0  0  2  0  0  3  0  0  0  0  0  0
  189.7990  172.7020  139.6060 N   0  0  0  0  0  1  0  0  0  0  0  0
  189.4100  176.9670  146.6020 O   0  0  0  0  0  0  0  0  0  0  0  0
  187.4230  178.7400  142.7320 C   0  0  0  0  0  3  0  0  0  0  0  0
  185.3910  178.0190  144.4970 C   0  0  0  0  0  3  0  0  0  0  0  0
  185.2480  179.1510  143.6960 C   0  0  0  0  0  3  0  0  0  0  0  0
  186.9640  176.4750  146.7760 C   0  0  0  0  0  2  0  0  0  0  0  0
  190.0960  174.8310  143.8140 N   0  0  1  0  0  0  0  0  0  0  0  0
  190.1650  176.6340  145.4350 C   0  0  2  0  0  3  0  0  0  0  0  0
  190.2200  175.1100  142.4320 N   0  0  2  0  0  0  0  0  0  0  0  0
  191.9260  173.4970  144.7190 C   0  0  0  0  0  1  0  0  0  0  0  0
  188.8900  176.8430  143.3300 C   0  0  2  0  0  3  0  0  0  0  0  0
  1 21  1  0  0  0  0
  1  6  1  0  0  0  0
  4 22  1  0  0  0  0
  5 27  1  1  0  0  0
  5 17  1  0  0  0  0
  6 23  1  0  0  0  0
  8  7  1  6  0  0  0
  8 10  1  0  0  0  0
  8  2  1  0  0  0  0
  9 18  1  1  0  0  0
  9 14  1  0  0  0  0
  9 13  1  0  0  0  0
 10 26  1  0  0  0  0
 10 28  1  0  0  0  0
 12 25  1  0  0  0  0
 13 26  1  0  0  0  0
 14  8  1  0  0  0  0
 15 11  2  0  0  0  0
 16  1  2  0  0  0  0
 17  3  1  0  0  0  0
 19 15  1  0  0  0  0
 20  4  2  0  0  0  0
 20 16  1  0  0  0  0
 22 21  2  0  0  0  0
 23 15  1  0  0  0  0
 24 12  1  0  0  0  0
 24  5  1  0  0  0  0
 25 17  1  0  0  0  0
 25 19  1  0  0  0  0
 26 24  1  0  0  0  0
 28 16  1  0  0  0  0
 28 12  1  0  0  0  0
M  END
>  <MODEL>
8

>  <REMARK>
 VINA RESULT:      -7.3      1.943      4.894
  Name = 
  0 active torsions:
  status: ('A' for Active; 'I' for Inactive)
                            x       y       z     vdW  Elec       q    Type
                         _______ _______ _______ _____ _____    ______ ____

>  <TORSDO>
F 0

$$$$
=
 OpenBabel11112417433D

 28 32  0  0  1  0  0  0  0  0999 V2000
  191.7560  174.7610  141.9930 C   0  0  0  0  0  0  0  0  0  0  0  0
  189.1880  177.0200  142.1540 F   0  0  0  0  0  0  0  0  0  0  0  0
  191.1830  175.2820  148.2130 C   0  0  0  0  0  1  0  0  0  0  0  0
  190.8090  172.2570  141.1440 C   0  0  0  0  0  3  0  0  0  0  0  0
  189.7590  176.6100  146.6620 C   0  0  2  0  0  3  0  0  0  0  0  0
  192.3500  176.0820  142.3880 C   0  0  0  0  0  2  0  0  0  0  0  0
  188.3440  175.1140  141.2750 O   0  0  0  0  0  1  0  0  0  0  0  0
  188.2570  176.0120  142.3380 C   0  0  1  0  0  0  0  0  0  0  0  0
  186.2900  176.9220  143.7010 C   0  0  2  0  0  3  0  0  0  0  0  0
  188.5220  175.2780  143.6840 C   0  0  2  0  0  3  0  0  0  0  0  0
  193.7300  177.2600  145.1230 O   0  0  0  0  0  0  0  0  0  0  0  0
  190.6130  175.8060  144.6380 C   0  0  1  0  0  3  0  0  0  0  0  0
  187.4200  177.2820  144.6520 C   0  0  0  0  0  2  0  0  0  0  0  0
  186.8540  176.6290  142.3140 C   0  0  0  0  0  2  0  0  0  0  0  0
  193.4350  176.1430  144.6240 C   0  0  0  0  0  0  0  0  0  0  0  0
  190.6600  174.1500  142.6700 C   0  0  0  0  0  0  0  0  0  0  0  0
  191.1610  176.0970  146.9360 C   0  0  2  0  0  3  0  0  0  0  0  0
  185.3470  178.0220  143.6200 N   0  0  0  0  0  1  0  0  0  0  0  0
  192.8240  175.1630  145.4110 O   0  0  0  0  0  0  0  0  0  0  0  0
  190.2130  172.8950  142.2320 C   0  0  0  0  0  3  0  0  0  0  0  0
  192.3410  174.1060  140.9010 C   0  0  0  0  0  3  0  0  0  0  0  0
  191.8710  172.8640  140.4770 C   0  0  0  0  0  3  0  0  0  0  0  0
  193.6510  175.8950  143.1670 C   0  0  0  0  0  2  0  0  0  0  0  0
  189.5900  176.6820  145.2100 N   0  0  1  0  0  0  0  0  0  0  0  0
  191.4380  175.2080  145.7560 C   0  0  2  0  0  3  0  0  0  0  0  0
  188.3260  176.1450  144.8720 N   0  0  2  0  0  0  0  0  0  0  0  0
  189.5880  177.9890  147.2690 C   0  0  0  0  0  1  0  0  0  0  0  0
  189.9250  174.7310  143.8610 C   0  0  2  0  0  3  0  0  0  0  0  0
  1  6  1  0  0  0  0
  1 16  1  0  0  0  0
  2  8  1  0  0  0  0
  4 20  1  0  0  0  0
  5 17  1  0  0  0  0
  5 27  1  1  0  0  0
  6 23  1  0  0  0  0
  8  7  1  6  0  0  0
  8 10  1  0  0  0  0
  9 18  1  6  0  0  0
  9 13  1  0  0  0  0
 10 28  1  0  0  0  0
 10 26  1  0  0  0  0
 12 24  1  0  0  0  0
 12 25  1  0  0  0  0
 13 26  1  0  0  0  0
 14  8  1  0  0  0  0
 14  9  1  0  0  0  0
 15 11  2  0  0  0  0
 15 19  1  0  0  0  0
 16 28  1  0  0  0  0
 17  3  1  0  0  0  0
 19 25  1  0  0  0  0
 20 16  2  0  0  0  0
 21  1  2  0  0  0  0
 22 21  1  0  0  0  0
 22  4  2  0  0  0  0
 23 15  1  0  0  0  0
 24  5  1  0  0  0  0
 25 17  1  0  0  0  0
 26 24  1  0  0  0  0
 28 12  1  0  0  0  0
M  END
>  <MODEL>
9

>  <REMARK>
 VINA RESULT:      -7.1      2.462      6.489
  Name = 
  0 active torsions:
  status: ('A' for Active; 'I' for Inactive)
                            x       y       z     vdW  Elec       q    Type
                         _______ _______ _______ _____ _____    ______ ____

>  <TORSDO>
F 0

$$$$
