=
 OpenBabel11112417213D

 37 42  0  0  1  0  0  0  0  0999 V2000
  189.3960  172.8040  138.9840 C   0  0  0  0  0  0  0  0  0  0  0  0
  187.9550  176.0730  141.1650 C   0  0  0  0  0  0  0  0  0  0  0  0
  188.0800  175.7250  144.9370 O   0  0  0  0  0  0  0  0  0  0  0  0
  187.8900  174.8660  139.0810 C   0  0  0  0  0  0  0  0  0  0  0  0
  188.5500  175.9110  142.5240 C   0  0  1  0  0  3  0  0  0  0  0  0
  188.3350  175.0310  140.3830 C   0  0  0  0  0  0  0  0  0  0  0  0
  187.5430  176.1010  143.6770 C   0  0  2  0  0  3  0  0  0  0  0  0
  187.0340  175.8460  138.5490 C   0  0  0  0  0  3  0  0  0  0  0  0
  189.1230  174.0950  141.0700 N   0  0  0  0  0  0  0  0  0  0  0  0
  190.7090  173.4380  138.5610 C   0  0  0  0  0  1  0  0  0  0  0  0
  186.6700  178.1850  141.5550 C   0  0  0  0  0  2  0  0  0  0  0  0
  186.6550  176.9550  139.3400 C   0  0  0  0  0  3  0  0  0  0  0  0
  189.3190  172.7540  140.5270 C   0  0  0  0  0  2  0  0  0  0  0  0
  190.4290  175.4360  145.4430 C   0  0  1  0  0  3  0  0  0  0  0  0
  189.2910  176.4130  145.1410 C   0  0  0  0  0  2  0  0  0  0  0  0
  187.1190  177.0730  140.6660 C   0  0  0  0  0  0  0  0  0  0  0  0
  189.1180  174.4690  142.4830 C   0  0  1  0  0  3  0  0  0  0  0  0
  188.2160  173.5880  138.3550 C   0  0  0  0  0  2  0  0  0  0  0  0
  186.9170  177.5180  143.6870 C   0  0  1  0  0  3  0  0  0  0  0  0
  189.3630  171.3860  138.4560 C   0  0  0  0  0  1  0  0  0  0  0  0
  190.4550  174.1720  144.5690 C   0  0  0  0  0  2  0  0  0  0  0  0
  190.5230  174.4380  143.0670 C   0  0  0  0  0  2  0  0  0  0  0  0
  185.9780  177.6480  142.6490 O   0  0  0  0  0  0  0  0  0  0  0  0
  184.8750  177.6320  145.1290 C   0  0  0  0  0  3  0  0  0  0  0  0
  186.2530  177.8390  144.9920 C   0  0  0  0  0  0  0  0  0  0  0  0
  186.9890  178.3490  146.0710 C   0  0  0  0  0  3  0  0  0  0  0  0
  187.1340  179.1880  148.4180 C   0  0  0  0  0  1  0  0  0  0  0  0
  184.9740  178.4410  147.4090 C   0  0  0  0  0  3  0  0  0  0  0  0
  186.3500  178.6480  147.2770 C   0  0  0  0  0  0  0  0  0  0  0  0
  184.2370  177.9330  146.3350 C   0  0  0  0  0  3  0  0  0  0  0  0
  194.4700  177.1400  145.6000 O   0  0  0  0  0  0  0  0  0  0  0  0
  194.2380  175.9560  145.9610 C   0  0  0  0  0  0  0  0  0  0  0  0
  191.7500  176.1330  145.4500 C   0  0  0  0  0  0  0  0  0  0  0  0
  192.9070  175.4220  145.9030 N   0  0  0  0  0  2  0  0  0  0  0  0
  191.8390  177.3260  145.0480 O   0  0  0  0  0  0  0  0  0  0  0  0
  196.1230  174.4370  145.5330 C   0  0  0  0  0  1  0  0  0  0  0  0
  195.2930  175.1700  146.4210 O   0  0  0  0  0  0  0  0  0  0  0  0
  1 13  1  0  0  0  0
  3 15  1  0  0  0  0
  4  6  1  0  0  0  0
  5  2  1  6  0  0  0
  5  7  1  0  0  0  0
  6  9  1  0  0  0  0
  6  2  2  0  0  0  0
  7 19  1  0  0  0  0
  7  3  1  1  0  0  0
  8  4  2  0  0  0  0
  8 12  1  0  0  0  0
  9 17  1  0  0  0  0
 10  1  1  0  0  0  0
 11 23  1  0  0  0  0
 12 16  2  0  0  0  0
 13  9  1  0  0  0  0
 14 33  1  6  0  0  0
 15 14  1  0  0  0  0
 16  2  1  0  0  0  0
 16 11  1  0  0  0  0
 17  5  1  0  0  0  0
 17 22  1  6  0  0  0
 18  1  1  0  0  0  0
 18  4  1  0  0  0  0
 19 25  1  1  0  0  0
 20  1  1  0  0  0  0
 21 14  1  0  0  0  0
 22 21  1  0  0  0  0
 23 19  1  0  0  0  0
 24 30  1  0  0  0  0
 25 24  2  0  0  0  0
 25 26  1  0  0  0  0
 26 29  2  0  0  0  0
 29 28  1  0  0  0  0
 29 27  1  0  0  0  0
 30 28  2  0  0  0  0
 31 32  2  0  0  0  0
 32 37  1  0  0  0  0
 33 34  1  0  0  0  0
 34 32  1  0  0  0  0
 35 33  2  0  0  0  0
 36 37  1  0  0  0  0
M  END
>  <MODEL>
1

>  <REMARK>
 VINA RESULT:      -8.9      0.000      0.000
  Name = 
  3 active torsions:
  status: ('A' for Active; 'I' for Inactive)
    1  A    between atoms: C_4  and  O_37
    2  A    between atoms: C_8  and  C_18
    3  A    between atoms: C_23  and  C_30
                            x       y       z     vdW  Elec       q    Type
                         _______ _______ _______ _____ _____    ______ ____

>  <TORSDO>
F 3

$$$$
=
 OpenBabel11112417213D

 37 42  0  0  1  0  0  0  0  0999 V2000
  196.9210  169.0530  145.7600 C   0  0  0  0  0  0  0  0  0  0  0  0
  193.4650  171.0120  144.4420 C   0  0  0  0  0  0  0  0  0  0  0  0
  192.9530  174.5260  145.7670 O   0  0  0  0  0  0  0  0  0  0  0  0
  194.5390  168.8940  144.8510 C   0  0  0  0  0  0  0  0  0  0  0  0
  193.7410  172.4600  144.6760 C   0  0  1  0  0  3  0  0  0  0  0  0
  194.5220  170.2800  144.8760 C   0  0  0  0  0  0  0  0  0  0  0  0
  192.5820  173.2170  145.3580 C   0  0  2  0  0  3  0  0  0  0  0  0
  193.4180  168.2330  144.3200 C   0  0  0  0  0  3  0  0  0  0  0  0
  195.5310  171.0680  145.4500 N   0  0  0  0  0  0  0  0  0  0  0  0
  197.7050  169.1850  144.4660 C   0  0  0  0  0  1  0  0  0  0  0  0
  191.1690  171.2080  143.4680 C   0  0  0  0  0  2  0  0  0  0  0  0
  192.3220  168.9830  143.8320 C   0  0  0  0  0  3  0  0  0  0  0  0
  196.5570  170.4580  146.2910 C   0  0  0  0  0  2  0  0  0  0  0  0
  194.8830  175.7580  144.9850 C   0  0  1  0  0  3  0  0  0  0  0  0
  193.4900  175.2140  144.6630 C   0  0  0  0  0  2  0  0  0  0  0  0
  192.3420  170.3900  143.8930 C   0  0  0  0  0  0  0  0  0  0  0  0
  195.0140  172.4320  145.5610 C   0  0  1  0  0  3  0  0  0  0  0  0
  195.6730  168.1660  145.5210 C   0  0  0  0  0  2  0  0  0  0  0  0
  191.2830  173.1940  144.5130 C   0  0  1  0  0  3  0  0  0  0  0  0
  197.8050  168.3690  146.7810 C   0  0  0  0  0  1  0  0  0  0  0  0
  195.8020  174.7910  145.7500 C   0  0  0  0  0  2  0  0  0  0  0  0
  196.0280  173.4490  145.0600 C   0  0  0  0  0  2  0  0  0  0  0  0
  190.6830  171.9250  144.5700 O   0  0  0  0  0  0  0  0  0  0  0  0
  189.7770  174.1600  146.2620 C   0  0  0  0  0  3  0  0  0  0  0  0
  190.2930  174.2250  144.9630 C   0  0  0  0  0  0  0  0  0  0  0  0
  189.8730  175.2470  144.0990 C   0  0  0  0  0  3  0  0  0  0  0  0
  188.5000  177.2760  143.6170 C   0  0  0  0  0  1  0  0  0  0  0  0
  188.4290  176.1250  145.8330 C   0  0  0  0  0  3  0  0  0  0  0  0
  188.9430  176.1950  144.5350 C   0  0  0  0  0  0  0  0  0  0  0  0
  188.8460  175.1080  146.6960 C   0  0  0  0  0  3  0  0  0  0  0  0
  196.5660  177.1390  141.1750 O   0  0  0  0  0  0  0  0  0  0  0  0
  195.6070  176.3220  141.2170 C   0  0  0  0  0  0  0  0  0  0  0  0
  195.5460  176.3020  143.7610 C   0  0  0  0  0  0  0  0  0  0  0  0
  195.0760  175.8840  142.4760 N   0  0  0  0  0  2  0  0  0  0  0  0
  196.4940  177.1260  143.8680 O   0  0  0  0  0  0  0  0  0  0  0  0
  194.2110  174.7190  139.9820 C   0  0  0  0  0  1  0  0  0  0  0  0
  195.0690  175.8490  140.0210 O   0  0  0  0  0  0  0  0  0  0  0  0
  1 13  1  0  0  0  0
  1 20  1  0  0  0  0
  2  6  1  0  0  0  0
  4  6  2  0  0  0  0
  4 18  1  0  0  0  0
  5  2  1  1  0  0  0
  5  7  1  0  0  0  0
  5 17  1  0  0  0  0
  6  9  1  0  0  0  0
  7  3  1  6  0  0  0
  8  4  1  0  0  0  0
  9 17  1  0  0  0  0
  9 13  1  0  0  0  0
 10  1  1  0  0  0  0
 11 16  1  0  0  0  0
 11 23  1  0  0  0  0
 12 16  1  0  0  0  0
 12  8  2  0  0  0  0
 14 33  1  6  0  0  0
 14 21  1  0  0  0  0
 15 14  1  0  0  0  0
 15  3  1  0  0  0  0
 16  2  2  0  0  0  0
 17 22  1  6  0  0  0
 18  1  1  0  0  0  0
 19 23  1  0  0  0  0
 19 25  1  1  0  0  0
 19  7  1  0  0  0  0
 22 21  1  0  0  0  0
 24 30  1  0  0  0  0
 25 24  2  0  0  0  0
 26 29  2  0  0  0  0
 26 25  1  0  0  0  0
 27 29  1  0  0  0  0
 28 30  2  0  0  0  0
 29 28  1  0  0  0  0
 31 32  2  0  0  0  0
 32 34  1  0  0  0  0
 33 35  2  0  0  0  0
 34 33  1  0  0  0  0
 36 37  1  0  0  0  0
 37 32  1  0  0  0  0
M  END
>  <MODEL>
2

>  <REMARK>
 VINA RESULT:      -8.2      3.879      7.449
  Name = 
  3 active torsions:
  status: ('A' for Active; 'I' for Inactive)
    1  A    between atoms: C_4  and  O_37
    2  A    between atoms: C_8  and  C_18
    3  A    between atoms: C_23  and  C_30
                            x       y       z     vdW  Elec       q    Type
                         _______ _______ _______ _____ _____    ______ ____

>  <TORSDO>
F 3

$$$$
=
 OpenBabel11112417213D

 37 42  0  0  1  0  0  0  0  0999 V2000
  189.4720  175.9500  146.0770 C   0  0  0  0  0  0  0  0  0  0  0  0
  193.3660  174.5790  145.3900 C   0  0  0  0  0  0  0  0  0  0  0  0
  193.6920  170.9060  144.5080 O   0  0  0  0  0  0  0  0  0  0  0  0
  191.9810  176.2240  146.4750 C   0  0  0  0  0  0  0  0  0  0  0  0
  193.1900  173.3180  144.6100 C   0  0  1  0  0  3  0  0  0  0  0  0
  192.1480  175.0870  145.6990 C   0  0  0  0  0  0  0  0  0  0  0  0
  194.0430  172.1380  145.1220 C   0  0  2  0  0  3  0  0  0  0  0  0
  193.1360  176.8860  146.9270 C   0  0  0  0  0  3  0  0  0  0  0  0
  191.0910  174.2810  145.2490 N   0  0  0  0  0  0  0  0  0  0  0  0
  189.3150  176.7010  144.7660 C   0  0  0  0  0  1  0  0  0  0  0  0
  195.8660  174.6160  145.5020 C   0  0  0  0  0  2  0  0  0  0  0  0
  194.4140  176.3860  146.5860 C   0  0  0  0  0  3  0  0  0  0  0  0
  189.7460  174.4560  145.7890 C   0  0  0  0  0  2  0  0  0  0  0  0
  192.4150  170.6550  142.4680 C   0  0  1  0  0  3  0  0  0  0  0  0
  193.7430  171.0610  143.1100 C   0  0  0  0  0  2  0  0  0  0  0  0
  194.5350  175.2170  145.8080 C   0  0  0  0  0  0  0  0  0  0  0  0
  191.6710  173.0360  144.7470 C   0  0  1  0  0  3  0  0  0  0  0  0
  190.5950  176.6080  146.9190 C   0  0  0  0  0  2  0  0  0  0  0  0
  195.5620  172.4350  145.0540 C   0  0  1  0  0  3  0  0  0  0  0  0
  188.1720  176.0600  146.8450 C   0  0  0  0  0  1  0  0  0  0  0  0
  191.1560  171.1450  143.2040 C   0  0  0  0  0  2  0  0  0  0  0  0
  191.0810  172.6580  143.3970 C   0  0  0  0  0  2  0  0  0  0  0  0
  195.9330  173.3350  146.0670 O   0  0  0  0  0  0  0  0  0  0  0  0
  197.1670  170.7780  144.0860 C   0  0  0  0  0  3  0  0  0  0  0  0
  196.3910  171.1920  145.1740 C   0  0  0  0  0  0  0  0  0  0  0  0
  196.3930  170.4370  146.3550 C   0  0  0  0  0  3  0  0  0  0  0  0
  197.1670  168.4790  147.6980 C   0  0  0  0  0  1  0  0  0  0  0  0
  197.9410  168.8670  145.3550 C   0  0  0  0  0  3  0  0  0  0  0  0
  197.1680  169.2770  146.4450 C   0  0  0  0  0  0  0  0  0  0  0  0
  197.9410  169.6180  144.1760 C   0  0  0  0  0  3  0  0  0  0  0  0
  191.9270  171.7010  138.2340 O   0  0  0  0  0  0  0  0  0  0  0  0
  190.9350  171.4810  138.9790 C   0  0  0  0  0  0  0  0  0  0  0  0
  192.3860  171.0150  141.0180 C   0  0  0  0  0  0  0  0  0  0  0  0
  191.1210  171.1390  140.3600 N   0  0  0  0  0  2  0  0  0  0  0  0
  193.4630  171.2180  140.3950 O   0  0  0  0  0  0  0  0  0  0  0  0
  188.6590  172.4100  139.0170 C   0  0  0  0  0  1  0  0  0  0  0  0
  189.6520  171.5750  138.4420 O   0  0  0  0  0  0  0  0  0  0  0  0
  1 20  1  0  0  0  0
  1 18  1  0  0  0  0
  2  6  2  0  0  0  0
  2 16  1  0  0  0  0
  4 18  1  0  0  0  0
  4  8  2  0  0  0  0
  5 17  1  0  0  0  0
  5  7  1  0  0  0  0
  5  2  1  1  0  0  0
  6  4  1  0  0  0  0
  7  3  1  6  0  0  0
  9  6  1  0  0  0  0
  9 13  1  0  0  0  0
 10  1  1  0  0  0  0
 11 16  1  0  0  0  0
 11 23  1  0  0  0  0
 12  8  1  0  0  0  0
 13  1  1  0  0  0  0
 14 33  1  6  0  0  0
 14 15  1  0  0  0  0
 14 21  1  0  0  0  0
 15  3  1  0  0  0  0
 16 12  2  0  0  0  0
 17 22  1  6  0  0  0
 17  9  1  0  0  0  0
 19  7  1  0  0  0  0
 19 25  1  1  0  0  0
 19 23  1  0  0  0  0
 21 22  1  0  0  0  0
 24 30  2  0  0  0  0
 24 25  1  0  0  0  0
 25 26  2  0  0  0  0
 26 29  1  0  0  0  0
 28 29  2  0  0  0  0
 29 27  1  0  0  0  0
 30 28  1  0  0  0  0
 31 32  2  0  0  0  0
 32 34  1  0  0  0  0
 34 33  1  0  0  0  0
 35 33  2  0  0  0  0
 37 32  1  0  0  0  0
 37 36  1  0  0  0  0
M  END
>  <MODEL>
3

>  <REMARK>
 VINA RESULT:      -8.2      3.794      9.602
  Name = 
  3 active torsions:
  status: ('A' for Active; 'I' for Inactive)
    1  A    between atoms: C_4  and  O_37
    2  A    between atoms: C_8  and  C_18
    3  A    between atoms: C_23  and  C_30
                            x       y       z     vdW  Elec       q    Type
                         _______ _______ _______ _____ _____    ______ ____

>  <TORSDO>
F 3

$$$$
=
 OpenBabel11112417213D

 37 42  0  0  1  0  0  0  0  0999 V2000
  187.7780  176.4650  143.2500 C   0  0  0  0  0  0  0  0  0  0  0  0
  191.5960  175.5390  144.6920 C   0  0  0  0  0  0  0  0  0  0  0  0
  193.1840  172.4060  143.2660 O   0  0  0  0  0  0  0  0  0  0  0  0
  189.5100  176.6650  145.1180 C   0  0  0  0  0  0  0  0  0  0  0  0
  192.1730  174.6180  143.6680 C   0  0  1  0  0  3  0  0  0  0  0  0
  190.3310  175.8710  144.3330 C   0  0  0  0  0  0  0  0  0  0  0  0
  192.8460  173.3620  144.2600 C   0  0  2  0  0  3  0  0  0  0  0  0
  190.0350  177.1670  146.3210 C   0  0  0  0  0  3  0  0  0  0  0  0
  189.9150  175.2350  143.1530 N   0  0  0  0  0  0  0  0  0  0  0  0
  188.2010  177.6150  142.3530 C   0  0  0  0  0  1  0  0  0  0  0  0
  193.5320  175.6150  146.2760 C   0  0  0  0  0  2  0  0  0  0  0  0
  191.3640  176.8570  146.6930 C   0  0  0  0  0  3  0  0  0  0  0  0
  188.4990  175.1710  142.8070 C   0  0  0  0  0  2  0  0  0  0  0  0
  193.3400  172.8320  140.8890 C   0  0  1  0  0  3  0  0  0  0  0  0
  193.9600  173.0340  142.2730 C   0  0  0  0  0  2  0  0  0  0  0  0
  192.1570  176.0320  145.8720 C   0  0  0  0  0  0  0  0  0  0  0  0
  190.9430  174.2580  142.7950 C   0  0  1  0  0  3  0  0  0  0  0  0
  188.0640  176.8290  144.7290 C   0  0  0  0  0  2  0  0  0  0  0  0
  194.0350  173.7130  145.1900 C   0  0  1  0  0  3  0  0  0  0  0  0
  186.2870  176.2620  143.0880 C   0  0  0  0  0  1  0  0  0  0  0  0
  191.8130  172.9980  140.8250 C   0  0  0  0  0  2  0  0  0  0  0  0
  191.2990  174.3490  141.3180 C   0  0  0  0  0  2  0  0  0  0  0  0
  193.5680  174.2210  146.4140 O   0  0  0  0  0  0  0  0  0  0  0  0
  196.3000  172.6520  145.2610 C   0  0  0  0  0  3  0  0  0  0  0  0
  194.9190  172.5320  145.4540 C   0  0  0  0  0  0  0  0  0  0  0  0
  194.3820  171.3090  145.8830 C   0  0  0  0  0  3  0  0  0  0  0  0
  194.6500  168.9240  146.5700 C   0  0  0  0  0  1  0  0  0  0  0  0
  196.6010  170.3420  145.9210 C   0  0  0  0  0  3  0  0  0  0  0  0
  195.2230  170.2170  146.1160 C   0  0  0  0  0  0  0  0  0  0  0  0
  197.1400  171.5600  145.4940 C   0  0  0  0  0  3  0  0  0  0  0  0
  195.6560  175.3610  138.1510 O   0  0  0  0  0  0  0  0  0  0  0  0
  196.0180  175.1740  139.3430 C   0  0  0  0  0  0  0  0  0  0  0  0
  194.0330  173.6670  139.8620 C   0  0  0  0  0  0  0  0  0  0  0  0
  195.2420  174.3440  140.2200 N   0  0  0  0  0  2  0  0  0  0  0  0
  193.5600  173.7580  138.6960 O   0  0  0  0  0  0  0  0  0  0  0  0
  197.9400  175.2480  140.8730 C   0  0  0  0  0  1  0  0  0  0  0  0
  197.1850  175.7850  139.8000 O   0  0  0  0  0  0  0  0  0  0  0  0
  1 18  1  0  0  0  0
  2 16  1  0  0  0  0
  4  8  2  0  0  0  0
  5  7  1  0  0  0  0
  5  2  1  1  0  0  0
  6  2  2  0  0  0  0
  6  4  1  0  0  0  0
  7  3  1  6  0  0  0
  7 19  1  0  0  0  0
  8 12  1  0  0  0  0
  9  6  1  0  0  0  0
 10  1  1  0  0  0  0
 11 23  1  0  0  0  0
 13  9  1  0  0  0  0
 13  1  1  0  0  0  0
 14 33  1  6  0  0  0
 14 15  1  0  0  0  0
 15  3  1  0  0  0  0
 16 11  1  0  0  0  0
 16 12  2  0  0  0  0
 17 22  1  6  0  0  0
 17  9  1  0  0  0  0
 17  5  1  0  0  0  0
 18  4  1  0  0  0  0
 19 25  1  1  0  0  0
 19 23  1  0  0  0  0
 20  1  1  0  0  0  0
 21 14  1  0  0  0  0
 21 22  1  0  0  0  0
 24 25  2  0  0  0  0
 24 30  1  0  0  0  0
 25 26  1  0  0  0  0
 26 29  2  0  0  0  0
 28 29  1  0  0  0  0
 29 27  1  0  0  0  0
 30 28  2  0  0  0  0
 31 32  2  0  0  0  0
 32 37  1  0  0  0  0
 32 34  1  0  0  0  0
 33 34  1  0  0  0  0
 35 33  2  0  0  0  0
 37 36  1  0  0  0  0
M  END
>  <MODEL>
4

>  <REMARK>
 VINA RESULT:      -8.1      3.557      7.910
  Name = 
  3 active torsions:
  status: ('A' for Active; 'I' for Inactive)
    1  A    between atoms: C_4  and  O_37
    2  A    between atoms: C_8  and  C_18
    3  A    between atoms: C_23  and  C_30
                            x       y       z     vdW  Elec       q    Type
                         _______ _______ _______ _____ _____    ______ ____

>  <TORSDO>
F 3

$$$$
=
 OpenBabel11112417213D

 37 42  0  0  1  0  0  0  0  0999 V2000
  186.3180  177.5770  143.4620 C   0  0  0  0  0  0  0  0  0  0  0  0
  190.0820  175.7490  143.5220 C   0  0  0  0  0  0  0  0  0  0  0  0
  190.3180  172.3980  141.7660 O   0  0  0  0  0  0  0  0  0  0  0  0
  188.5890  177.3030  144.5990 C   0  0  0  0  0  0  0  0  0  0  0  0
  190.0410  174.7640  142.4000 C   0  0  1  0  0  3  0  0  0  0  0  0
  188.8820  176.3750  143.6120 C   0  0  0  0  0  0  0  0  0  0  0  0
  190.5740  173.3650  142.7740 C   0  0  2  0  0  3  0  0  0  0  0  0
  189.6010  177.6230  145.5210 C   0  0  0  0  0  3  0  0  0  0  0  0
  187.9490  175.8990  142.6780 N   0  0  0  0  0  0  0  0  0  0  0  0
  186.6520  178.6370  142.4260 C   0  0  0  0  0  1  0  0  0  0  0  0
  192.4120  175.3180  144.3270 C   0  0  0  0  0  2  0  0  0  0  0  0
  190.8690  177.0030  145.4200 C   0  0  0  0  0  3  0  0  0  0  0  0
  186.5250  176.1730  142.8510 C   0  0  0  0  0  2  0  0  0  0  0  0
  189.7280  172.8730  139.4670 C   0  0  1  0  0  3  0  0  0  0  0  0
  190.8200  172.8730  140.5390 C   0  0  0  0  0  2  0  0  0  0  0  0
  191.1160  176.0530  144.4090 C   0  0  0  0  0  0  0  0  0  0  0  0
  188.5360  174.7290  142.0260 C   0  0  1  0  0  3  0  0  0  0  0  0
  187.1770  177.8060  144.7320 C   0  0  0  0  0  2  0  0  0  0  0  0
  192.0590  173.3980  143.2150 C   0  0  1  0  0  3  0  0  0  0  0  0
  184.8590  177.7260  143.8380 C   0  0  0  0  0  1  0  0  0  0  0  0
  188.3550  173.3850  139.9330 C   0  0  0  0  0  2  0  0  0  0  0  0
  188.3660  174.7960  140.5160 C   0  0  0  0  0  2  0  0  0  0  0  0
  192.1770  173.9480  144.5030 O   0  0  0  0  0  0  0  0  0  0  0  0
  192.2440  171.0710  144.1160 C   0  0  0  0  0  3  0  0  0  0  0  0
  192.6860  172.0370  143.2050 C   0  0  0  0  0  0  0  0  0  0  0  0
  193.7120  171.7220  142.3020 C   0  0  0  0  0  3  0  0  0  0  0  0
  195.3760  170.1190  141.3550 C   0  0  0  0  0  1  0  0  0  0  0  0
  193.8460  169.4880  143.2250 C   0  0  0  0  0  3  0  0  0  0  0  0
  194.2900  170.4490  142.3130 C   0  0  0  0  0  0  0  0  0  0  0  0
  192.8230  169.7980  144.1260 C   0  0  0  0  0  3  0  0  0  0  0  0
  190.6960  174.9530  135.7260 O   0  0  0  0  0  0  0  0  0  0  0  0
  189.5070  174.6850  136.0440 C   0  0  0  0  0  0  0  0  0  0  0  0
  190.1900  173.5700  138.2290 C   0  0  0  0  0  0  0  0  0  0  0  0
  189.2160  174.0010  137.2730 N   0  0  0  0  0  2  0  0  0  0  0  0
  191.4190  173.7830  138.0430 O   0  0  0  0  0  0  0  0  0  0  0  0
  187.5760  176.1090  135.5090 C   0  0  0  0  0  1  0  0  0  0  0  0
  188.4760  175.0600  135.1850 O   0  0  0  0  0  0  0  0  0  0  0  0
  1 20  1  0  0  0  0
  1 18  1  0  0  0  0
  2  6  2  0  0  0  0
  2 16  1  0  0  0  0
  4 18  1  0  0  0  0
  4  8  2  0  0  0  0
  5  7  1  0  0  0  0
  5  2  1  1  0  0  0
  6  4  1  0  0  0  0
  7  3  1  6  0  0  0
  7 19  1  0  0  0  0
  9 13  1  0  0  0  0
  9  6  1  0  0  0  0
 10  1  1  0  0  0  0
 11 16  1  0  0  0  0
 11 23  1  0  0  0  0
 12  8  1  0  0  0  0
 13  1  1  0  0  0  0
 14 33  1  6  0  0  0
 14 21  1  0  0  0  0
 14 15  1  0  0  0  0
 15  3  1  0  0  0  0
 16 12  2  0  0  0  0
 17 22  1  6  0  0  0
 17  5  1  0  0  0  0
 17  9  1  0  0  0  0
 19 25  1  1  0  0  0
 19 23  1  0  0  0  0
 21 22  1  0  0  0  0
 24 30  1  0  0  0  0
 25 24  2  0  0  0  0
 26 29  2  0  0  0  0
 26 25  1  0  0  0  0
 27 29  1  0  0  0  0
 28 30  2  0  0  0  0
 29 28  1  0  0  0  0
 31 32  2  0  0  0  0
 32 34  1  0  0  0  0
 34 33  1  0  0  0  0
 35 33  2  0  0  0  0
 37 36  1  0  0  0  0
 37 32  1  0  0  0  0
M  END
>  <MODEL>
5

>  <REMARK>
 VINA RESULT:      -8.0      3.609      8.326
  Name = 
  3 active torsions:
  status: ('A' for Active; 'I' for Inactive)
    1  A    between atoms: C_4  and  O_37
    2  A    between atoms: C_8  and  C_18
    3  A    between atoms: C_23  and  C_30
                            x       y       z     vdW  Elec       q    Type
                         _______ _______ _______ _____ _____    ______ ____

>  <TORSDO>
F 3

$$$$
=
 OpenBabel11112417213D

 37 42  0  0  1  0  0  0  0  0999 V2000
  190.8640  170.5030  139.5060 C   0  0  0  0  0  0  0  0  0  0  0  0
  189.5200  174.1050  141.1580 C   0  0  0  0  0  0  0  0  0  0  0  0
  189.9920  174.4830  144.9000 O   0  0  0  0  0  0  0  0  0  0  0  0
  189.3080  172.5230  139.3540 C   0  0  0  0  0  0  0  0  0  0  0  0
  190.2390  174.2140  142.4620 C   0  0  1  0  0  3  0  0  0  0  0  0
  189.8620  172.9400  140.5550 C   0  0  0  0  0  0  0  0  0  0  0  0
  189.3330  174.6040  143.6480 C   0  0  2  0  0  3  0  0  0  0  0  0
  188.3770  173.3720  138.7300 C   0  0  0  0  0  3  0  0  0  0  0  0
  190.7380  172.1620  141.3280 N   0  0  0  0  0  0  0  0  0  0  0  0
  192.1140  171.0640  138.8500 C   0  0  0  0  0  1  0  0  0  0  0  0
  188.2080  176.2340  141.2630 C   0  0  0  0  0  2  0  0  0  0  0  0
  188.0350  174.6060  139.3310 C   0  0  0  0  0  3  0  0  0  0  0  0
  190.9270  170.7460  141.0310 C   0  0  0  0  0  2  0  0  0  0  0  0
  192.3840  174.3290  145.2300 C   0  0  1  0  0  3  0  0  0  0  0  0
  191.1940  175.2140  144.8570 C   0  0  0  0  0  2  0  0  0  0  0  0
  188.6110  174.9810  140.5610 C   0  0  0  0  0  0  0  0  0  0  0  0
  190.8470  172.7980  142.6400 C   0  0  1  0  0  3  0  0  0  0  0  0
  189.6080  171.1360  138.8540 C   0  0  0  0  0  2  0  0  0  0  0  0
  188.6650  175.9890  143.4500 C   0  0  1  0  0  3  0  0  0  0  0  0
  190.8300  169.0100  139.2590 C   0  0  0  0  0  1  0  0  0  0  0  0
  192.3730  172.9220  144.6100 C   0  0  0  0  0  2  0  0  0  0  0  0
  192.2980  172.8990  143.0850 C   0  0  0  0  0  2  0  0  0  0  0  0
  187.6340  175.9060  142.4990 O   0  0  0  0  0  0  0  0  0  0  0  0
  188.9740  177.1560  145.6410 C   0  0  0  0  0  3  0  0  0  0  0  0
  188.1100  176.5420  144.7270 C   0  0  0  0  0  0  0  0  0  0  0  0
  186.7430  176.4460  145.0220 C   0  0  0  0  0  3  0  0  0  0  0  0
  184.7960  176.8580  146.5310 C   0  0  0  0  0  1  0  0  0  0  0  0
  187.1130  177.5730  147.1330 C   0  0  0  0  0  3  0  0  0  0  0  0
  186.2460  176.9620  146.2220 C   0  0  0  0  0  0  0  0  0  0  0  0
  188.4770  177.6700  146.8420 C   0  0  0  0  0  3  0  0  0  0  0  0
  196.0780  176.4190  144.1130 O   0  0  0  0  0  0  0  0  0  0  0  0
  195.2080  176.1120  143.2550 C   0  0  0  0  0  0  0  0  0  0  0  0
  193.6780  175.0340  144.9820 C   0  0  0  0  0  0  0  0  0  0  0  0
  194.0090  175.4260  143.6450 N   0  0  0  0  0  2  0  0  0  0  0  0
  194.4550  175.2880  145.9430 O   0  0  0  0  0  0  0  0  0  0  0  0
  194.9210  175.6530  140.8570 C   0  0  0  0  0  1  0  0  0  0  0  0
  195.4260  176.4460  141.9200 O   0  0  0  0  0  0  0  0  0  0  0  0
  1 13  1  0  0  0  0
  4  6  1  0  0  0  0
  5  2  1  6  0  0  0
  5 17  1  0  0  0  0
  5  7  1  0  0  0  0
  6  2  2  0  0  0  0
  6  9  1  0  0  0  0
  7  3  1  1  0  0  0
  8 12  1  0  0  0  0
  8  4  2  0  0  0  0
  9 17  1  0  0  0  0
 10  1  1  0  0  0  0
 11 23  1  0  0  0  0
 12 16  2  0  0  0  0
 13  9  1  0  0  0  0
 14 33  1  6  0  0  0
 15  3  1  0  0  0  0
 15 14  1  0  0  0  0
 16  2  1  0  0  0  0
 16 11  1  0  0  0  0
 17 22  1  6  0  0  0
 18  4  1  0  0  0  0
 18  1  1  0  0  0  0
 19  7  1  0  0  0  0
 19 25  1  1  0  0  0
 20  1  1  0  0  0  0
 21 14  1  0  0  0  0
 22 21  1  0  0  0  0
 23 19  1  0  0  0  0
 24 30  1  0  0  0  0
 25 26  1  0  0  0  0
 25 24  2  0  0  0  0
 26 29  2  0  0  0  0
 29 27  1  0  0  0  0
 29 28  1  0  0  0  0
 30 28  2  0  0  0  0
 32 34  1  0  0  0  0
 32 31  2  0  0  0  0
 33 35  2  0  0  0  0
 34 33  1  0  0  0  0
 36 37  1  0  0  0  0
 37 32  1  0  0  0  0
M  END
>  <MODEL>
6

>  <REMARK>
 VINA RESULT:      -7.8      1.982      2.855
  Name = 
  3 active torsions:
  status: ('A' for Active; 'I' for Inactive)
    1  A    between atoms: C_4  and  O_37
    2  A    between atoms: C_8  and  C_18
    3  A    between atoms: C_23  and  C_30
                            x       y       z     vdW  Elec       q    Type
                         _______ _______ _______ _____ _____    ______ ____

>  <TORSDO>
F 3

$$$$
=
 OpenBabel11112417213D

 37 42  0  0  1  0  0  0  0  0999 V2000
  197.1560  174.8270  138.5600 C   0  0  0  0  0  0  0  0  0  0  0  0
  195.2400  174.9620  142.2780 C   0  0  0  0  0  0  0  0  0  0  0  0
  191.4520  175.0350  142.1810 O   0  0  0  0  0  0  0  0  0  0  0  0
  197.2480  175.4450  141.0370 C   0  0  0  0  0  0  0  0  0  0  0  0
  193.8500  174.4930  142.0030 C   0  0  1  0  0  3  0  0  0  0  0  0
  195.9400  174.9910  141.1170 C   0  0  0  0  0  0  0  0  0  0  0  0
  192.7530  175.3720  142.6390 C   0  0  2  0  0  3  0  0  0  0  0  0
  197.8730  175.8600  142.2250 C   0  0  0  0  0  3  0  0  0  0  0  0
  195.1660  174.6250  140.0050 N   0  0  0  0  0  0  0  0  0  0  0  0
  197.5630  173.3650  138.6220 C   0  0  0  0  0  1  0  0  0  0  0  0
  195.0320  175.3610  144.7400 C   0  0  0  0  0  2  0  0  0  0  0  0
  197.1670  175.8050  143.4500 C   0  0  0  0  0  3  0  0  0  0  0  0
  195.6180  174.9410  138.6530 C   0  0  0  0  0  2  0  0  0  0  0  0
  190.8320  172.9770  141.0680 C   0  0  1  0  0  3  0  0  0  0  0  0
  191.2400  173.6580  142.3770 C   0  0  0  0  0  2  0  0  0  0  0  0
  195.8330  175.3510  143.4800 C   0  0  0  0  0  0  0  0  0  0  0  0
  193.7790  174.5100  140.4540 C   0  0  1  0  0  3  0  0  0  0  0  0
  197.8800  175.6140  139.6810 C   0  0  0  0  0  2  0  0  0  0  0  0
  192.8550  175.4170  144.1840 C   0  0  1  0  0  3  0  0  0  0  0  0
  197.5980  175.3840  137.2230 C   0  0  0  0  0  1  0  0  0  0  0  0
  191.6260  173.4170  139.8270 C   0  0  0  0  0  2  0  0  0  0  0  0
  193.1370  173.2300  139.9400 C   0  0  0  0  0  2  0  0  0  0  0  0
  193.9370  176.2210  144.5820 O   0  0  0  0  0  0  0  0  0  0  0  0
  191.1480  177.2170  144.5080 C   0  0  0  0  0  3  0  0  0  0  0  0
  191.6010  175.9310  144.8240 C   0  0  0  0  0  0  0  0  0  0  0  0
  190.8820  175.1470  145.7370 C   0  0  0  0  0  3  0  0  0  0  0  0
  188.9600  174.8130  147.2950 C   0  0  0  0  0  1  0  0  0  0  0  0
  189.2700  176.9330  146.0100 C   0  0  0  0  0  3  0  0  0  0  0  0
  189.7190  175.6470  146.3280 C   0  0  0  0  0  0  0  0  0  0  0  0
  189.9850  177.7170  145.1000 C   0  0  0  0  0  3  0  0  0  0  0  0
  190.7330  168.5900  141.1060 O   0  0  0  0  0  0  0  0  0  0  0  0
  190.6100  169.2450  140.0370 C   0  0  0  0  0  0  0  0  0  0  0  0
  190.8130  171.4910  141.2170 C   0  0  0  0  0  0  0  0  0  0  0  0
  190.6440  170.6790  140.0510 N   0  0  0  0  0  2  0  0  0  0  0  0
  190.9580  170.9670  142.3560 O   0  0  0  0  0  0  0  0  0  0  0  0
  190.1680  169.2290  137.6190 C   0  0  0  0  0  1  0  0  0  0  0  0
  190.4400  168.5550  138.8380 O   0  0  0  0  0  0  0  0  0  0  0  0
  1 10  1  0  0  0  0
  1 13  1  0  0  0  0
  1 18  1  0  0  0  0
  2 16  1  0  0  0  0
  3 15  1  0  0  0  0
  4  6  1  0  0  0  0
  4  8  2  0  0  0  0
  5  2  1  6  0  0  0
  5  7  1  0  0  0  0
  6  2  2  0  0  0  0
  7  3  1  1  0  0  0
  7 19  1  0  0  0  0
  8 12  1  0  0  0  0
  9 17  1  0  0  0  0
  9  6  1  0  0  0  0
 12 16  2  0  0  0  0
 13  9  1  0  0  0  0
 14 33  1  1  0  0  0
 14 15  1  0  0  0  0
 16 11  1  0  0  0  0
 17 22  1  6  0  0  0
 17  5  1  0  0  0  0
 18  4  1  0  0  0  0
 19 23  1  0  0  0  0
 19 25  1  1  0  0  0
 20  1  1  0  0  0  0
 21 22  1  0  0  0  0
 21 14  1  0  0  0  0
 23 11  1  0  0  0  0
 24 25  2  0  0  0  0
 24 30  1  0  0  0  0
 25 26  1  0  0  0  0
 26 29  2  0  0  0  0
 28 29  1  0  0  0  0
 29 27  1  0  0  0  0
 30 28  2  0  0  0  0
 32 34  1  0  0  0  0
 32 31  2  0  0  0  0
 33 35  2  0  0  0  0
 34 33  1  0  0  0  0
 36 37  1  0  0  0  0
 37 32  1  0  0  0  0
M  END
>  <MODEL>
7

>  <REMARK>
 VINA RESULT:      -7.8      4.190      7.576
  Name = 
  3 active torsions:
  status: ('A' for Active; 'I' for Inactive)
    1  A    between atoms: C_4  and  O_37
    2  A    between atoms: C_8  and  C_18
    3  A    between atoms: C_23  and  C_30
                            x       y       z     vdW  Elec       q    Type
                         _______ _______ _______ _____ _____    ______ ____

>  <TORSDO>
F 3

$$$$
=
 OpenBabel11112417213D

 37 42  0  0  1  0  0  0  0  0999 V2000
  196.7850  175.5700  141.4370 C   0  0  0  0  0  0  0  0  0  0  0  0
  193.4260  175.8270  143.9200 C   0  0  0  0  0  0  0  0  0  0  0  0
  190.0730  175.3630  142.2140 O   0  0  0  0  0  0  0  0  0  0  0  0
  195.7290  176.4510  143.5900 C   0  0  0  0  0  0  0  0  0  0  0  0
  192.3400  175.1430  143.1570 C   0  0  1  0  0  3  0  0  0  0  0  0
  194.5600  175.8310  143.1760 C   0  0  0  0  0  0  0  0  0  0  0  0
  191.0090  175.9230  143.1230 C   0  0  2  0  0  3  0  0  0  0  0  0
  195.7330  177.0710  144.8520 C   0  0  0  0  0  3  0  0  0  0  0  0
  194.3850  175.2460  141.9130 N   0  0  0  0  0  0  0  0  0  0  0  0
  197.2370  174.1940  141.8910 C   0  0  0  0  0  1  0  0  0  0  0  0
  192.1270  176.4480  145.9660 C   0  0  0  0  0  2  0  0  0  0  0  0
  194.5680  177.0460  145.6530 C   0  0  0  0  0  3  0  0  0  0  0  0
  195.3580  175.4790  140.8490 C   0  0  0  0  0  2  0  0  0  0  0  0
  190.1710  173.1340  141.2770 C   0  0  1  0  0  3  0  0  0  0  0  0
  189.9070  173.9970  142.5120 C   0  0  0  0  0  2  0  0  0  0  0  0
  193.3970  176.4180  145.1840 C   0  0  0  0  0  0  0  0  0  0  0  0
  192.9560  174.9880  141.7420 C   0  0  1  0  0  3  0  0  0  0  0  0
  196.8780  176.5640  142.6230 C   0  0  0  0  0  2  0  0  0  0  0  0
  190.4180  176.1440  144.5390 C   0  0  1  0  0  3  0  0  0  0  0  0
  197.7230  176.0410  140.3460 C   0  0  0  0  0  1  0  0  0  0  0  0
  191.3920  173.5470  140.4390 C   0  0  0  0  0  2  0  0  0  0  0  0
  192.7090  173.5850  141.2090 C   0  0  0  0  0  2  0  0  0  0  0  0
  191.1480  177.1270  145.2280 O   0  0  0  0  0  0  0  0  0  0  0  0
  188.1020  176.0610  145.4790 C   0  0  0  0  0  3  0  0  0  0  0  0
  188.9740  176.5430  144.4970 C   0  0  0  0  0  0  0  0  0  0  0  0
  188.4860  177.3830  143.4870 C   0  0  0  0  0  3  0  0  0  0  0  0
  186.6210  178.6290  142.3890 C   0  0  0  0  0  1  0  0  0  0  0  0
  186.2660  177.2540  144.4440 C   0  0  0  0  0  3  0  0  0  0  0  0
  187.1350  177.7380  143.4610 C   0  0  0  0  0  0  0  0  0  0  0  0
  186.7500  176.4160  145.4530 C   0  0  0  0  0  3  0  0  0  0  0  0
  190.4410  168.8070  141.9570 O   0  0  0  0  0  0  0  0  0  0  0  0
  190.8190  169.3310  140.8760 C   0  0  0  0  0  0  0  0  0  0  0  0
  190.2060  171.6830  141.6310 C   0  0  0  0  0  0  0  0  0  0  0  0
  190.7180  170.7480  140.6760 N   0  0  0  0  0  2  0  0  0  0  0  0
  189.8020  171.2980  142.7630 O   0  0  0  0  0  0  0  0  0  0  0  0
  190.7990  168.5080  138.5600 C   0  0  0  0  0  1  0  0  0  0  0  0
  191.3360  168.5130  139.8730 O   0  0  0  0  0  0  0  0  0  0  0  0
  1 10  1  0  0  0  0
  1 18  1  0  0  0  0
  2 16  1  0  0  0  0
  3 15  1  0  0  0  0
  4  8  2  0  0  0  0
  5  2  1  1  0  0  0
  6  4  1  0  0  0  0
  6  2  2  0  0  0  0
  7  3  1  6  0  0  0
  7  5  1  0  0  0  0
  7 19  1  0  0  0  0
  8 12  1  0  0  0  0
  9  6  1  0  0  0  0
 13  1  1  0  0  0  0
 13  9  1  0  0  0  0
 14 33  1  1  0  0  0
 14 15  1  0  0  0  0
 16 12  2  0  0  0  0
 16 11  1  0  0  0  0
 17 22  1  1  0  0  0
 17  9  1  0  0  0  0
 17  5  1  0  0  0  0
 18  4  1  0  0  0  0
 19 25  1  6  0  0  0
 19 23  1  0  0  0  0
 20  1  1  0  0  0  0
 21 22  1  0  0  0  0
 21 14  1  0  0  0  0
 23 11  1  0  0  0  0
 25 24  2  0  0  0  0
 26 25  1  0  0  0  0
 27 29  1  0  0  0  0
 28 30  2  0  0  0  0
 29 26  2  0  0  0  0
 29 28  1  0  0  0  0
 30 24  1  0  0  0  0
 32 31  2  0  0  0  0
 33 35  2  0  0  0  0
 34 32  1  0  0  0  0
 34 33  1  0  0  0  0
 36 37  1  0  0  0  0
 37 32  1  0  0  0  0
M  END
>  <MODEL>
8

>  <REMARK>
 VINA RESULT:      -7.8      3.363      6.776
  Name = 
  3 active torsions:
  status: ('A' for Active; 'I' for Inactive)
    1  A    between atoms: C_4  and  O_37
    2  A    between atoms: C_8  and  C_18
    3  A    between atoms: C_23  and  C_30
                            x       y       z     vdW  Elec       q    Type
                         _______ _______ _______ _____ _____    ______ ____

>  <TORSDO>
F 3

$$$$
=
 OpenBabel11112417213D

 37 42  0  0  1  0  0  0  0  0999 V2000
  188.9380  176.7090  146.0930 C   0  0  0  0  0  0  0  0  0  0  0  0
  192.4640  174.6550  145.1600 C   0  0  0  0  0  0  0  0  0  0  0  0
  192.0220  171.1160  143.8760 O   0  0  0  0  0  0  0  0  0  0  0  0
  191.4510  176.4170  146.4530 C   0  0  0  0  0  0  0  0  0  0  0  0
  192.0280  173.5520  144.2520 C   0  0  1  0  0  3  0  0  0  0  0  0
  191.3770  175.3640  145.5540 C   0  0  0  0  0  0  0  0  0  0  0  0
  192.6210  172.1730  144.6110 C   0  0  2  0  0  3  0  0  0  0  0  0
  192.7190  176.7740  146.9440 C   0  0  0  0  0  3  0  0  0  0  0  0
  190.1750  174.8470  145.0470 N   0  0  0  0  0  0  0  0  0  0  0  0
  188.9350  177.6170  144.8760 C   0  0  0  0  0  1  0  0  0  0  0  0
  194.9180  174.1670  145.2100 C   0  0  0  0  0  2  0  0  0  0  0  0
  193.8650  176.0650  146.5170 C   0  0  0  0  0  3  0  0  0  0  0  0
  188.8970  175.2330  145.6370 C   0  0  0  0  0  2  0  0  0  0  0  0
  190.7140  171.3610  141.8550 C   0  0  1  0  0  3  0  0  0  0  0  0
  192.0990  171.4120  142.5020 C   0  0  0  0  0  2  0  0  0  0  0  0
  193.7400  174.9900  145.6140 C   0  0  0  0  0  0  0  0  0  0  0  0
  190.4840  173.5740  144.3970 C   0  0  1  0  0  3  0  0  0  0  0  0
  190.1750  177.0250  146.9720 C   0  0  0  0  0  2  0  0  0  0  0  0
  194.1690  172.1580  144.5350 C   0  0  1  0  0  3  0  0  0  0  0  0
  187.6910  176.9960  146.9020 C   0  0  0  0  0  1  0  0  0  0  0  0
  189.5860  172.0130  142.6710 C   0  0  0  0  0  2  0  0  0  0  0  0
  189.8250  173.4770  143.0300 C   0  0  0  0  0  2  0  0  0  0  0  0
  194.7210  172.8450  145.6310 O   0  0  0  0  0  0  0  0  0  0  0  0
  194.5710  169.9380  145.6150 C   0  0  0  0  0  3  0  0  0  0  0  0
  194.7240  170.7670  144.4980 C   0  0  0  0  0  0  0  0  0  0  0  0
  195.3990  170.2890  143.3660 C   0  0  0  0  0  3  0  0  0  0  0  0
  196.6300  168.4870  142.1520 C   0  0  0  0  0  1  0  0  0  0  0  0
  195.7620  168.1660  144.4720 C   0  0  0  0  0  3  0  0  0  0  0  0
  195.9150  168.9900  143.3540 C   0  0  0  0  0  0  0  0  0  0  0  0
  195.0890  168.6400  145.6020 C   0  0  0  0  0  3  0  0  0  0  0  0
  191.1840  173.0590  137.8350 O   0  0  0  0  0  0  0  0  0  0  0  0
  192.0260  173.2760  138.7470 C   0  0  0  0  0  0  0  0  0  0  0  0
  190.7550  171.8790  140.4540 C   0  0  0  0  0  0  0  0  0  0  0  0
  191.8490  172.7110  140.0540 N   0  0  0  0  0  2  0  0  0  0  0  0
  189.8430  171.5710  139.6380 O   0  0  0  0  0  0  0  0  0  0  0  0
  193.9140  174.6580  139.4990 C   0  0  0  0  0  1  0  0  0  0  0  0
  193.1340  174.0750  138.4680 O   0  0  0  0  0  0  0  0  0  0  0  0
  1 20  1  0  0  0  0
  1 18  1  0  0  0  0
  2  6  2  0  0  0  0
  2 16  1  0  0  0  0
  4  8  2  0  0  0  0
  4 18  1  0  0  0  0
  5 17  1  0  0  0  0
  5  7  1  0  0  0  0
  5  2  1  1  0  0  0
  6  4  1  0  0  0  0
  7  3  1  6  0  0  0
  9  6  1  0  0  0  0
  9 13  1  0  0  0  0
 10  1  1  0  0  0  0
 11 16  1  0  0  0  0
 11 23  1  0  0  0  0
 12  8  1  0  0  0  0
 13  1  1  0  0  0  0
 14 33  1  6  0  0  0
 14 15  1  0  0  0  0
 14 21  1  0  0  0  0
 15  3  1  0  0  0  0
 16 12  2  0  0  0  0
 17 22  1  6  0  0  0
 17  9  1  0  0  0  0
 19 25  1  1  0  0  0
 19  7  1  0  0  0  0
 19 23  1  0  0  0  0
 21 22  1  0  0  0  0
 25 24  2  0  0  0  0
 26 25  1  0  0  0  0
 27 29  1  0  0  0  0
 28 30  2  0  0  0  0
 29 26  2  0  0  0  0
 29 28  1  0  0  0  0
 30 24  1  0  0  0  0
 31 32  2  0  0  0  0
 32 34  1  0  0  0  0
 34 33  1  0  0  0  0
 35 33  2  0  0  0  0
 37 32  1  0  0  0  0
 37 36  1  0  0  0  0
M  END
>  <MODEL>
9

>  <REMARK>
 VINA RESULT:      -7.7      3.805      8.981
  Name = 
  3 active torsions:
  status: ('A' for Active; 'I' for Inactive)
    1  A    between atoms: C_4  and  O_37
    2  A    between atoms: C_8  and  C_18
    3  A    between atoms: C_23  and  C_30
                            x       y       z     vdW  Elec       q    Type
                         _______ _______ _______ _____ _____    ______ ____

>  <TORSDO>
F 3

$$$$
