=
 OpenBabel11112416583D

 31 35  0  0  1  0  0  0  0  0999 V2000
  185.4350  177.9160  140.9120 C   0  0  0  0  0  0  0  0  0  0  0  0
  187.0810  176.9480  144.2350 C   0  0  0  0  0  0  0  0  0  0  0  0
  186.2670  177.4210  145.3020 C   0  0  0  0  0  0  0  0  0  0  0  0
  191.2670  174.8160  141.6970 O   0  0  0  0  0  0  0  0  0  0  0  0
  191.5310  174.9380  142.9230 C   0  0  0  0  0  0  0  0  0  0  0  0
  184.2370  178.4650  146.1610 C   0  0  0  0  0  0  0  0  0  0  0  0
  186.7320  177.0550  142.7870 C   0  0  0  0  0  0  0  0  0  0  0  0
  186.2320  177.2210  140.0030 O   0  0  0  0  0  0  0  0  0  0  0  0
  185.0130  178.0170  145.0880 C   0  0  0  0  0  3  0  0  0  0  0  0
  189.2000  175.8320  143.4910 C   0  0  0  0  0  0  0  0  0  0  0  0
  184.4310  178.5590  140.5130 O   0  0  0  0  0  0  0  0  0  0  0  0
  187.9450  176.6670  146.8850 C   0  0  0  0  0  3  0  0  0  0  0  0
  183.0330  179.0410  145.9300 F   0  0  0  0  0  0  0  0  0  0  0  0
  188.7970  175.7980  142.2530 N   0  0  0  0  0  0  0  0  0  0  0  0
  188.3070  176.3270  144.5580 C   0  0  0  0  0  0  0  0  0  0  0  0
  190.5340  175.4320  143.8320 N   0  0  0  0  0  2  0  0  0  0  0  0
  185.7630  177.8660  142.3410 C   0  0  0  0  0  3  0  0  0  0  0  0
  184.7020  178.3200  147.4680 C   0  0  0  0  0  3  0  0  0  0  0  0
  187.4430  176.1300  141.8120 C   0  0  2  0  0  3  0  0  0  0  0  0
  187.5060  176.7180  140.4000 C   0  0  0  0  0  2  0  0  0  0  0  0
  188.7020  176.2150  145.8560 N   0  0  0  0  0  0  0  0  0  0  0  0
  186.7190  177.2720  146.6350 C   0  0  0  0  0  0  0  0  0  0  0  0
  185.9410  177.7230  147.7050 C   0  0  0  0  0  3  0  0  0  0  0  0
  195.3430  174.0930  144.6680 N   0  0  0  0  0  0  0  0  0  0  0  0
  192.9990  173.5070  144.2300 C   0  0  0  0  0  3  0  0  0  0  0  0
  193.9950  176.4160  142.2180 F   0  0  0  0  0  0  0  0  0  0  0  0
  196.5970  173.9170  145.3750 C   0  0  0  0  0  1  0  0  0  0  0  0
  194.3320  173.0400  144.7490 C   0  0  0  0  0  2  0  0  0  0  0  0
  194.0670  175.3930  143.1060 C   0  0  0  0  0  0  0  0  0  0  0  0
  192.8720  174.5750  143.4310 C   0  0  0  0  0  0  0  0  0  0  0  0
  195.2260  175.1620  143.7220 C   0  0  0  0  0  3  0  0  0  0  0  0
  1 17  1  0  0  0  0
  2 15  2  0  0  0  0
  2  3  1  0  0  0  0
  3 22  1  0  0  0  0
  4  5  2  0  0  0  0
  5 30  1  0  0  0  0
  5 16  1  0  0  0  0
  6 18  2  0  0  0  0
  7  2  1  0  0  0  0
  8 20  1  0  0  0  0
  8  1  1  0  0  0  0
  9  3  2  0  0  0  0
  9  6  1  0  0  0  0
 10 16  1  0  0  0  0
 10 15  1  0  0  0  0
 11  1  2  0  0  0  0
 13  6  1  0  0  0  0
 14 10  2  0  0  0  0
 15 21  1  0  0  0  0
 17  7  2  0  0  0  0
 18 23  1  0  0  0  0
 19 20  1  6  0  0  0
 19 14  1  0  0  0  0
 19  7  1  0  0  0  0
 21 12  2  0  0  0  0
 22 12  1  0  0  0  0
 22 23  2  0  0  0  0
 24 28  1  0  0  0  0
 24 27  1  0  0  0  0
 25 28  1  0  0  0  0
 26 29  1  0  0  0  0
 29 30  1  0  0  0  0
 29 31  2  0  0  0  0
 30 25  2  0  0  0  0
 31 24  1  0  0  0  0
M  END
>  <MODEL>
1

>  <REMARK>
 VINA RESULT:      -9.4      0.000      0.000
  Name = 
  1 active torsions:
  status: ('A' for Active; 'I' for Inactive)
    1  A    between atoms: C_5  and  C_30
                            x       y       z     vdW  Elec       q    Type
                         _______ _______ _______ _____ _____    ______ ____

>  <TORSDO>
F 1

$$$$
=
 OpenBabel11112416583D

 31 35  0  0  1  0  0  0  0  0999 V2000
  184.6990  178.0580  146.7320 C   0  0  0  0  0  0  0  0  0  0  0  0
  187.1540  177.4890  143.8440 C   0  0  0  0  0  0  0  0  0  0  0  0
  186.4570  177.6500  142.6150 C   0  0  0  0  0  0  0  0  0  0  0  0
  191.0950  176.3110  147.2490 O   0  0  0  0  0  0  0  0  0  0  0  0
  191.4330  175.9850  146.0790 C   0  0  0  0  0  0  0  0  0  0  0  0
  184.4690  178.2310  141.3280 C   0  0  0  0  0  0  0  0  0  0  0  0
  186.5590  177.7160  145.1960 C   0  0  0  0  0  0  0  0  0  0  0  0
  185.5640  178.0640  147.8250 O   0  0  0  0  0  0  0  0  0  0  0  0
  185.1210  178.0790  142.5550 C   0  0  0  0  0  3  0  0  0  0  0  0
  189.2770  176.8950  145.0410 C   0  0  0  0  0  0  0  0  0  0  0  0
  183.4730  178.2910  146.8910 O   0  0  0  0  0  0  0  0  0  0  0  0
  188.4610  176.9840  141.4190 C   0  0  0  0  0  3  0  0  0  0  0  0
  183.1780  178.6420  141.2950 F   0  0  0  0  0  0  0  0  0  0  0  0
  188.7780  177.2510  146.1900 N   0  0  0  0  0  0  0  0  0  0  0  0
  188.5080  177.0920  143.7960 C   0  0  0  0  0  0  0  0  0  0  0  0
  190.5610  176.2620  144.9710 N   0  0  0  0  0  2  0  0  0  0  0  0
  185.2370  177.8050  145.3900 C   0  0  0  0  0  3  0  0  0  0  0  0
  185.1450  177.9600  140.1380 C   0  0  0  0  0  3  0  0  0  0  0  0
  187.5070  177.9520  146.3610 C   0  0  2  0  0  3  0  0  0  0  0  0
  186.8860  177.5440  147.7000 C   0  0  0  0  0  2  0  0  0  0  0  0
  189.1110  176.8450  142.6010 N   0  0  0  0  0  0  0  0  0  0  0  0
  187.1320  177.3890  141.3980 C   0  0  0  0  0  0  0  0  0  0  0  0
  186.4760  177.5410  140.1730 C   0  0  0  0  0  3  0  0  0  0  0  0
  195.1610  173.9190  145.7260 N   0  0  0  0  0  0  0  0  0  0  0  0
  192.7380  174.0660  145.3530 C   0  0  0  0  0  3  0  0  0  0  0  0
  194.0480  177.2740  146.5760 F   0  0  0  0  0  0  0  0  0  0  0  0
  196.4080  173.1810  145.7650 C   0  0  0  0  0  1  0  0  0  0  0  0
  194.0120  173.3310  145.0390 C   0  0  0  0  0  2  0  0  0  0  0  0
  194.0140  175.9770  146.1790 C   0  0  0  0  0  0  0  0  0  0  0  0
  192.7290  175.3130  145.8440 C   0  0  0  0  0  0  0  0  0  0  0  0
  195.1550  175.2910  146.1380 C   0  0  0  0  0  3  0  0  0  0  0  0
  1 11  2  0  0  0  0
  1  8  1  0  0  0  0
  2  7  1  0  0  0  0
  3  2  2  0  0  0  0
  5  4  2  0  0  0  0
  6  9  2  0  0  0  0
  7 17  2  0  0  0  0
  7 19  1  0  0  0  0
  9  3  1  0  0  0  0
 10 14  2  0  0  0  0
 12 21  1  0  0  0  0
 13  6  1  0  0  0  0
 14 19  1  0  0  0  0
 15  2  1  0  0  0  0
 15 10  1  0  0  0  0
 16 10  1  0  0  0  0
 16  5  1  0  0  0  0
 17  1  1  0  0  0  0
 18 23  2  0  0  0  0
 18  6  1  0  0  0  0
 19 20  1  1  0  0  0
 20  8  1  0  0  0  0
 21 15  2  0  0  0  0
 22 12  2  0  0  0  0
 22  3  1  0  0  0  0
 23 22  1  0  0  0  0
 24 27  1  0  0  0  0
 24 31  1  0  0  0  0
 25 30  2  0  0  0  0
 28 25  1  0  0  0  0
 28 24  1  0  0  0  0
 29 26  1  0  0  0  0
 30  5  1  0  0  0  0
 30 29  1  0  0  0  0
 31 29  2  0  0  0  0
M  END
>  <MODEL>
2

>  <REMARK>
 VINA RESULT:      -9.0      2.685      4.348
  Name = 
  1 active torsions:
  status: ('A' for Active; 'I' for Inactive)
    1  A    between atoms: C_5  and  C_30
                            x       y       z     vdW  Elec       q    Type
                         _______ _______ _______ _____ _____    ______ ____

>  <TORSDO>
F 1

$$$$
=
 OpenBabel11112416583D

 31 35  0  0  1  0  0  0  0  0999 V2000
  184.9070  177.8280  146.8980 C   0  0  0  0  0  0  0  0  0  0  0  0
  186.7990  177.7170  143.5670 C   0  0  0  0  0  0  0  0  0  0  0  0
  185.8640  177.8730  142.5060 C   0  0  0  0  0  0  0  0  0  0  0  0
  191.4220  176.7830  146.0690 O   0  0  0  0  0  0  0  0  0  0  0  0
  191.5570  176.5690  144.8340 C   0  0  0  0  0  0  0  0  0  0  0  0
  183.6160  178.3040  141.6640 C   0  0  0  0  0  0  0  0  0  0  0  0
  186.4580  177.7920  145.0190 C   0  0  0  0  0  0  0  0  0  0  0  0
  185.9630  177.8650  147.8070 O   0  0  0  0  0  0  0  0  0  0  0  0
  184.5060  178.1520  142.7310 C   0  0  0  0  0  3  0  0  0  0  0  0
  189.1610  177.2930  144.2940 C   0  0  0  0  0  0  0  0  0  0  0  0
  183.7180  177.9120  147.3010 O   0  0  0  0  0  0  0  0  0  0  0  0
  187.6530  177.5110  140.9070 C   0  0  0  0  0  3  0  0  0  0  0  0
  182.3100  178.5690  141.9050 F   0  0  0  0  0  0  0  0  0  0  0  0
  188.8630  177.5200  145.5410 N   0  0  0  0  0  0  0  0  0  0  0  0
  188.1500  177.4780  143.2340 C   0  0  0  0  0  0  0  0  0  0  0  0
  190.4640  176.8140  143.9340 N   0  0  0  0  0  2  0  0  0  0  0  0
  185.1960  177.7200  145.4640 C   0  0  0  0  0  3  0  0  0  0  0  0
  184.0720  178.1840  140.3510 C   0  0  0  0  0  3  0  0  0  0  0  0
  187.5860  178.0620  146.0020 C   0  0  2  0  0  3  0  0  0  0  0  0
  187.2800  177.5060  147.3960 C   0  0  0  0  0  2  0  0  0  0  0  0
  188.5310  177.3740  141.9310 N   0  0  0  0  0  0  0  0  0  0  0  0
  186.3120  177.7640  141.1680 C   0  0  0  0  0  0  0  0  0  0  0  0
  185.4200  177.9160  140.1030 C   0  0  0  0  0  3  0  0  0  0  0  0
  195.2680  174.8650  143.5650 N   0  0  0  0  0  0  0  0  0  0  0  0
  192.8320  175.1040  143.3710 C   0  0  0  0  0  3  0  0  0  0  0  0
  194.1910  177.6090  145.6910 F   0  0  0  0  0  0  0  0  0  0  0  0
  196.5170  174.1900  143.2660 C   0  0  0  0  0  1  0  0  0  0  0  0
  194.0920  174.5690  142.7480 C   0  0  0  0  0  2  0  0  0  0  0  0
  194.1400  176.5670  144.8240 C   0  0  0  0  0  0  0  0  0  0  0  0
  192.8430  176.0630  144.3070 C   0  0  0  0  0  0  0  0  0  0  0  0
  195.2790  175.9690  144.4760 C   0  0  0  0  0  3  0  0  0  0  0  0
  1 11  2  0  0  0  0
  1  8  1  0  0  0  0
  2  7  1  0  0  0  0
  3  9  1  0  0  0  0
  3  2  2  0  0  0  0
  5  4  2  0  0  0  0
  6 13  1  0  0  0  0
  6  9  2  0  0  0  0
  7 17  2  0  0  0  0
  7 19  1  0  0  0  0
 10 14  2  0  0  0  0
 12 22  2  0  0  0  0
 12 21  1  0  0  0  0
 14 19  1  0  0  0  0
 15  2  1  0  0  0  0
 15 10  1  0  0  0  0
 16 10  1  0  0  0  0
 16  5  1  0  0  0  0
 17  1  1  0  0  0  0
 18  6  1  0  0  0  0
 19 20  1  1  0  0  0
 20  8  1  0  0  0  0
 21 15  2  0  0  0  0
 22  3  1  0  0  0  0
 23 18  2  0  0  0  0
 23 22  1  0  0  0  0
 24 31  1  0  0  0  0
 25 30  2  0  0  0  0
 27 24  1  0  0  0  0
 28 25  1  0  0  0  0
 28 24  1  0  0  0  0
 29 26  1  0  0  0  0
 30 29  1  0  0  0  0
 30  5  1  0  0  0  0
 31 29  2  0  0  0  0
M  END
>  <MODEL>
3

>  <REMARK>
 VINA RESULT:      -8.8      2.571      4.272
  Name = 
  1 active torsions:
  status: ('A' for Active; 'I' for Inactive)
    1  A    between atoms: C_5  and  C_30
                            x       y       z     vdW  Elec       q    Type
                         _______ _______ _______ _____ _____    ______ ____

>  <TORSDO>
F 1

$$$$
=
 OpenBabel11112416583D

 31 35  0  0  1  0  0  0  0  0999 V2000
  191.1160  176.7690  147.4570 C   0  0  0  0  0  0  0  0  0  0  0  0
  188.3550  176.6230  144.8040 C   0  0  0  0  0  0  0  0  0  0  0  0
  187.1790  177.2210  145.3360 C   0  0  0  0  0  0  0  0  0  0  0  0
  191.5320  173.9460  141.4500 O   0  0  0  0  0  0  0  0  0  0  0  0
  190.3420  173.9020  141.0340 C   0  0  0  0  0  0  0  0  0  0  0  0
  185.9840  178.4420  147.0770 C   0  0  0  0  0  0  0  0  0  0  0  0
  189.6720  176.5650  145.5050 C   0  0  0  0  0  0  0  0  0  0  0  0
  192.2200  176.3380  146.7220 O   0  0  0  0  0  0  0  0  0  0  0  0
  187.1570  177.8590  146.5870 C   0  0  0  0  0  3  0  0  0  0  0  0
  189.4690  175.3930  142.9230 C   0  0  0  0  0  0  0  0  0  0  0  0
  191.2550  177.1420  148.6500 O   0  0  0  0  0  0  0  0  0  0  0  0
  185.9770  176.5950  143.3230 C   0  0  0  0  0  3  0  0  0  0  0  0
  185.9850  179.0470  148.2890 F   0  0  0  0  0  0  0  0  0  0  0  0
  190.6360  175.4980  143.4900 N   0  0  0  0  0  0  0  0  0  0  0  0
  188.2840  176.0430  143.5190 C   0  0  0  0  0  0  0  0  0  0  0  0
  189.3050  174.6060  141.7360 N   0  0  0  0  0  2  0  0  0  0  0  0
  189.7970  176.8080  146.8170 C   0  0  0  0  0  3  0  0  0  0  0  0
  184.8140  178.4010  146.3190 C   0  0  0  0  0  3  0  0  0  0  0  0
  190.9160  176.3200  144.6660 C   0  0  2  0  0  3  0  0  0  0  0  0
  192.0390  175.6670  145.4770 C   0  0  0  0  0  2  0  0  0  0  0  0
  187.1100  176.0370  142.8290 N   0  0  0  0  0  0  0  0  0  0  0  0
  185.9860  177.1970  144.5750 C   0  0  0  0  0  0  0  0  0  0  0  0
  184.8150  177.7800  145.0680 C   0  0  0  0  0  3  0  0  0  0  0  0
  189.6400  171.8180  137.3660 N   0  0  0  0  0  0  0  0  0  0  0  0
  190.6320  171.9530  139.6090 C   0  0  0  0  0  3  0  0  0  0  0  0
  188.3120  174.7490  139.0570 F   0  0  0  0  0  0  0  0  0  0  0  0
  189.5140  171.2100  136.0560 C   0  0  0  0  0  1  0  0  0  0  0  0
  190.3170  171.0750  138.4280 C   0  0  0  0  0  2  0  0  0  0  0  0
  189.0360  173.6260  138.8230 C   0  0  0  0  0  0  0  0  0  0  0  0
  190.0100  173.1210  139.8230 C   0  0  0  0  0  0  0  0  0  0  0  0
  188.8910  173.0050  137.6530 C   0  0  0  0  0  3  0  0  0  0  0  0
  1 11  2  0  0  0  0
  2  3  1  0  0  0  0
  2  7  1  0  0  0  0
  3  9  1  0  0  0  0
  5  4  2  0  0  0  0
  5 16  1  0  0  0  0
  6 13  1  0  0  0  0
  7 17  2  0  0  0  0
  8  1  1  0  0  0  0
  9  6  2  0  0  0  0
 10 14  2  0  0  0  0
 10 15  1  0  0  0  0
 12 22  1  0  0  0  0
 14 19  1  0  0  0  0
 15  2  2  0  0  0  0
 16 10  1  0  0  0  0
 17  1  1  0  0  0  0
 18  6  1  0  0  0  0
 19 20  1  1  0  0  0
 19  7  1  0  0  0  0
 20  8  1  0  0  0  0
 21 12  2  0  0  0  0
 21 15  1  0  0  0  0
 22 23  1  0  0  0  0
 22  3  2  0  0  0  0
 23 18  2  0  0  0  0
 24 31  1  0  0  0  0
 24 28  1  0  0  0  0
 25 30  2  0  0  0  0
 27 24  1  0  0  0  0
 28 25  1  0  0  0  0
 29 26  1  0  0  0  0
 29 30  1  0  0  0  0
 30  5  1  0  0  0  0
 31 29  2  0  0  0  0
M  END
>  <MODEL>
4

>  <REMARK>
 VINA RESULT:      -8.7      3.552      5.699
  Name = 
  1 active torsions:
  status: ('A' for Active; 'I' for Inactive)
    1  A    between atoms: C_5  and  C_30
                            x       y       z     vdW  Elec       q    Type
                         _______ _______ _______ _____ _____    ______ ____

>  <TORSDO>
F 1

$$$$
=
 OpenBabel11112416583D

 31 35  0  0  1  0  0  0  0  0999 V2000
  185.0330  177.7070  146.7910 C   0  0  0  0  0  0  0  0  0  0  0  0
  187.2580  176.9490  143.7640 C   0  0  0  0  0  0  0  0  0  0  0  0
  186.5380  177.2620  142.5790 C   0  0  0  0  0  0  0  0  0  0  0  0
  191.1420  175.0810  146.9160 O   0  0  0  0  0  0  0  0  0  0  0  0
  191.3810  174.7700  145.7180 C   0  0  0  0  0  0  0  0  0  0  0  0
  184.5950  178.1710  141.4180 C   0  0  0  0  0  0  0  0  0  0  0  0
  186.7600  177.1890  145.1510 C   0  0  0  0  0  0  0  0  0  0  0  0
  185.9380  177.5420  147.8390 O   0  0  0  0  0  0  0  0  0  0  0  0
  185.2720  177.8720  142.6030 C   0  0  0  0  0  3  0  0  0  0  0  0
  189.3280  176.0140  144.8280 C   0  0  0  0  0  0  0  0  0  0  0  0
  183.8600  178.0970  147.0210 O   0  0  0  0  0  0  0  0  0  0  0  0
  188.3760  176.3880  141.2570 C   0  0  0  0  0  3  0  0  0  0  0  0
  183.3730  178.7550  141.4650 F   0  0  0  0  0  0  0  0  0  0  0  0
  188.9340  176.3790  146.0140 N   0  0  0  0  0  0  0  0  0  0  0  0
  188.5410  176.3740  143.6310 C   0  0  0  0  0  0  0  0  0  0  0  0
  190.5080  175.2160  144.6670 N   0  0  0  0  0  2  0  0  0  0  0  0
  185.4720  177.4480  145.4150 C   0  0  0  0  0  3  0  0  0  0  0  0
  185.1740  177.8680  140.1850 C   0  0  0  0  0  3  0  0  0  0  0  0
  187.7810  177.2370  146.2770 C   0  0  2  0  0  3  0  0  0  0  0  0
  187.1680  176.8540  147.6270 C   0  0  0  0  0  2  0  0  0  0  0  0
  189.0510  176.1050  142.3980 N   0  0  0  0  0  0  0  0  0  0  0  0
  187.1160  176.9710  141.3200 C   0  0  0  0  0  0  0  0  0  0  0  0
  186.4350  177.2700  140.1360 C   0  0  0  0  0  3  0  0  0  0  0  0
  194.7900  172.5190  144.4520 N   0  0  0  0  0  0  0  0  0  0  0  0
  193.7860  174.4230  145.6360 C   0  0  0  0  0  3  0  0  0  0  0  0
  191.1900  172.0410  144.5920 F   0  0  0  0  0  0  0  0  0  0  0  0
  195.9240  171.8240  143.8750 C   0  0  0  0  0  1  0  0  0  0  0  0
  195.0350  173.6240  145.3780 C   0  0  0  0  0  2  0  0  0  0  0  0
  192.4120  172.6050  144.7580 C   0  0  0  0  0  0  0  0  0  0  0  0
  192.5600  173.9400  145.3900 C   0  0  0  0  0  0  0  0  0  0  0  0
  193.4820  171.9570  144.2990 C   0  0  0  0  0  3  0  0  0  0  0  0
  1 11  2  0  0  0  0
  1  8  1  0  0  0  0
  2  7  1  0  0  0  0
  3  9  1  0  0  0  0
  3  2  2  0  0  0  0
  5  4  2  0  0  0  0
  6 13  1  0  0  0  0
  6  9  2  0  0  0  0
  7 17  2  0  0  0  0
  7 19  1  0  0  0  0
 10 14  2  0  0  0  0
 12 22  2  0  0  0  0
 12 21  1  0  0  0  0
 14 19  1  0  0  0  0
 15  2  1  0  0  0  0
 15 10  1  0  0  0  0
 16 10  1  0  0  0  0
 16  5  1  0  0  0  0
 17  1  1  0  0  0  0
 18  6  1  0  0  0  0
 19 20  1  1  0  0  0
 20  8  1  0  0  0  0
 21 15  2  0  0  0  0
 22  3  1  0  0  0  0
 23 18  2  0  0  0  0
 23 22  1  0  0  0  0
 24 28  1  0  0  0  0
 26 29  1  0  0  0  0
 27 24  1  0  0  0  0
 28 25  1  0  0  0  0
 29 30  1  0  0  0  0
 30 25  2  0  0  0  0
 30  5  1  0  0  0  0
 31 24  1  0  0  0  0
 31 29  2  0  0  0  0
M  END
>  <MODEL>
5

>  <REMARK>
 VINA RESULT:      -8.4      2.692      4.401
  Name = 
  1 active torsions:
  status: ('A' for Active; 'I' for Inactive)
    1  A    between atoms: C_5  and  C_30
                            x       y       z     vdW  Elec       q    Type
                         _______ _______ _______ _____ _____    ______ ____

>  <TORSDO>
F 1

$$$$
=
 OpenBabel11112416583D

 31 35  0  0  1  0  0  0  0  0999 V2000
  186.1980  178.8030  143.3340 C   0  0  0  0  0  0  0  0  0  0  0  0
  188.9820  176.2160  143.8260 C   0  0  0  0  0  0  0  0  0  0  0  0
  189.5820  176.4280  145.0970 C   0  0  0  0  0  0  0  0  0  0  0  0
  188.1900  174.2330  138.9320 O   0  0  0  0  0  0  0  0  0  0  0  0
  189.2740  173.7910  139.3990 C   0  0  0  0  0  0  0  0  0  0  0  0
  189.7000  177.5450  147.2630 C   0  0  0  0  0  0  0  0  0  0  0  0
  187.8020  176.9690  143.3050 C   0  0  0  0  0  0  0  0  0  0  0  0
  185.6000  178.3370  142.1640 O   0  0  0  0  0  0  0  0  0  0  0  0
  189.0880  177.3670  146.0190 C   0  0  0  0  0  3  0  0  0  0  0  0
  188.9580  174.9670  141.6510 C   0  0  0  0  0  0  0  0  0  0  0  0
  185.7130  179.7900  143.9450 O   0  0  0  0  0  0  0  0  0  0  0  0
  191.2120  174.7040  144.5910 C   0  0  0  0  0  3  0  0  0  0  0  0
  189.2080  178.4590  148.1330 F   0  0  0  0  0  0  0  0  0  0  0  0
  187.8390  175.5290  141.2930 N   0  0  0  0  0  0  0  0  0  0  0  0
  189.5310  175.2200  142.9880 C   0  0  0  0  0  0  0  0  0  0  0  0
  189.6780  174.1320  140.7350 N   0  0  0  0  0  2  0  0  0  0  0  0
  187.3800  178.1130  143.8610 C   0  0  0  0  0  3  0  0  0  0  0  0
  190.8160  176.7830  147.6080 C   0  0  0  0  0  3  0  0  0  0  0  0
  187.0050  176.3490  142.1690 C   0  0  2  0  0  3  0  0  0  0  0  0
  186.2820  177.4040  141.3280 C   0  0  0  0  0  2  0  0  0  0  0  0
  190.6210  174.5100  143.3860 N   0  0  0  0  0  0  0  0  0  0  0  0
  190.7100  175.6570  145.4680 C   0  0  0  0  0  0  0  0  0  0  0  0
  191.3200  175.8380  146.7120 C   0  0  0  0  0  3  0  0  0  0  0  0
  191.4730  171.1590  136.8440 N   0  0  0  0  0  0  0  0  0  0  0  0
  190.6130  173.3890  137.4100 C   0  0  0  0  0  3  0  0  0  0  0  0
  190.0660  171.0540  140.1940 F   0  0  0  0  0  0  0  0  0  0  0  0
  192.0740  170.2140  135.9220 C   0  0  0  0  0  1  0  0  0  0  0  0
  191.5350  172.5870  136.5320 C   0  0  0  0  0  2  0  0  0  0  0  0
  190.4440  171.5260  138.9790 C   0  0  0  0  0  0  0  0  0  0  0  0
  190.1350  172.9200  138.5710 C   0  0  0  0  0  0  0  0  0  0  0  0
  191.0610  170.7000  138.1360 C   0  0  0  0  0  3  0  0  0  0  0  0
  1 17  1  0  0  0  0
  1 11  2  0  0  0  0
  2  3  1  0  0  0  0
  3 22  2  0  0  0  0
  3  9  1  0  0  0  0
  4  5  2  0  0  0  0
  5 16  1  0  0  0  0
  6 18  1  0  0  0  0
  6 13  1  0  0  0  0
  7  2  1  0  0  0  0
  7 17  2  0  0  0  0
  8  1  1  0  0  0  0
  9  6  2  0  0  0  0
 10 15  1  0  0  0  0
 12 22  1  0  0  0  0
 14 10  2  0  0  0  0
 14 19  1  0  0  0  0
 15 21  1  0  0  0  0
 15  2  2  0  0  0  0
 16 10  1  0  0  0  0
 19 20  1  6  0  0  0
 19  7  1  0  0  0  0
 20  8  1  0  0  0  0
 21 12  2  0  0  0  0
 22 23  1  0  0  0  0
 23 18  2  0  0  0  0
 24 31  1  0  0  0  0
 25 30  2  0  0  0  0
 27 24  1  0  0  0  0
 28 24  1  0  0  0  0
 28 25  1  0  0  0  0
 29 26  1  0  0  0  0
 30 29  1  0  0  0  0
 30  5  1  0  0  0  0
 31 29  2  0  0  0  0
M  END
>  <MODEL>
6

>  <REMARK>
 VINA RESULT:      -8.1      3.999      5.281
  Name = 
  1 active torsions:
  status: ('A' for Active; 'I' for Inactive)
    1  A    between atoms: C_5  and  C_30
                            x       y       z     vdW  Elec       q    Type
                         _______ _______ _______ _____ _____    ______ ____

>  <TORSDO>
F 1

$$$$
=
 OpenBabel11112416583D

 31 35  0  0  1  0  0  0  0  0999 V2000
  186.2310  178.8120  143.3180 C   0  0  0  0  0  0  0  0  0  0  0  0
  188.9820  176.1930  143.8360 C   0  0  0  0  0  0  0  0  0  0  0  0
  189.5820  176.4080  145.1070 C   0  0  0  0  0  0  0  0  0  0  0  0
  188.1720  174.1800  138.9570 O   0  0  0  0  0  0  0  0  0  0  0  0
  189.2490  173.7280  139.4290 C   0  0  0  0  0  0  0  0  0  0  0  0
  189.7110  177.5410  147.2630 C   0  0  0  0  0  0  0  0  0  0  0  0
  187.8120  176.9570  143.3070 C   0  0  0  0  0  0  0  0  0  0  0  0
  185.6290  178.3440  142.1500 O   0  0  0  0  0  0  0  0  0  0  0  0
  189.0990  177.3600  146.0190 C   0  0  0  0  0  3  0  0  0  0  0  0
  188.9450  174.9270  141.6710 C   0  0  0  0  0  0  0  0  0  0  0  0
  185.7590  179.8100  143.9190 O   0  0  0  0  0  0  0  0  0  0  0  0
  191.1910  174.6580  144.6170 C   0  0  0  0  0  3  0  0  0  0  0  0
  189.2290  178.4680  148.1250 F   0  0  0  0  0  0  0  0  0  0  0  0
  187.8340  175.5000  141.3060 N   0  0  0  0  0  0  0  0  0  0  0  0
  189.5190  175.1840  143.0070 C   0  0  0  0  0  0  0  0  0  0  0  0
  189.6560  174.0750  140.7630 N   0  0  0  0  0  2  0  0  0  0  0  0
  187.4040  178.1110  143.8530 C   0  0  0  0  0  3  0  0  0  0  0  0
  190.8160  176.7670  147.6170 C   0  0  0  0  0  3  0  0  0  0  0  0
  187.0090  176.3370  142.1740 C   0  0  2  0  0  3  0  0  0  0  0  0
  186.3010  177.3960  141.3240 C   0  0  0  0  0  2  0  0  0  0  0  0
  190.5990  174.4620  143.4130 N   0  0  0  0  0  0  0  0  0  0  0  0
  190.6990  175.6250  145.4850 C   0  0  0  0  0  0  0  0  0  0  0  0
  191.3100  175.8090  146.7290 C   0  0  0  0  0  3  0  0  0  0  0  0
  191.9870  171.2760  137.2420 N   0  0  0  0  0  0  0  0  0  0  0  0
  190.3330  171.5880  139.0310 C   0  0  0  0  0  3  0  0  0  0  0  0
  190.4380  174.5410  136.8450 F   0  0  0  0  0  0  0  0  0  0  0  0
  193.0350  170.5200  136.5850 C   0  0  0  0  0  1  0  0  0  0  0  0
  191.1470  170.6050  138.2330 C   0  0  0  0  0  2  0  0  0  0  0  0
  190.7350  173.3190  137.3560 C   0  0  0  0  0  0  0  0  0  0  0  0
  190.1010  172.8390  138.6100 C   0  0  0  0  0  0  0  0  0  0  0  0
  191.6450  172.5710  136.7340 C   0  0  0  0  0  3  0  0  0  0  0  0
  1 17  1  0  0  0  0
  1 11  2  0  0  0  0
  2  3  1  0  0  0  0
  3 22  2  0  0  0  0
  3  9  1  0  0  0  0
  4  5  2  0  0  0  0
  5 16  1  0  0  0  0
  6 18  1  0  0  0  0
  6 13  1  0  0  0  0
  7  2  1  0  0  0  0
  7 17  2  0  0  0  0
  8  1  1  0  0  0  0
  9  6  2  0  0  0  0
 10 15  1  0  0  0  0
 12 22  1  0  0  0  0
 14 10  2  0  0  0  0
 14 19  1  0  0  0  0
 15 21  1  0  0  0  0
 15  2  2  0  0  0  0
 16 10  1  0  0  0  0
 19 20  1  6  0  0  0
 19  7  1  0  0  0  0
 20  8  1  0  0  0  0
 21 12  2  0  0  0  0
 22 23  1  0  0  0  0
 23 18  2  0  0  0  0
 24 28  1  0  0  0  0
 26 29  1  0  0  0  0
 27 24  1  0  0  0  0
 28 25  1  0  0  0  0
 29 30  1  0  0  0  0
 30 25  2  0  0  0  0
 30  5  1  0  0  0  0
 31 24  1  0  0  0  0
 31 29  2  0  0  0  0
M  END
>  <MODEL>
7

>  <REMARK>
 VINA RESULT:      -8.1      3.936      5.084
  Name = 
  1 active torsions:
  status: ('A' for Active; 'I' for Inactive)
    1  A    between atoms: C_5  and  C_30
                            x       y       z     vdW  Elec       q    Type
                         _______ _______ _______ _____ _____    ______ ____

>  <TORSDO>
F 1

$$$$
=
 OpenBabel11112416583D

 31 35  0  0  1  0  0  0  0  0999 V2000
  193.8820  175.0490  145.7570 C   0  0  0  0  0  0  0  0  0  0  0  0
  190.9510  173.5020  143.8330 C   0  0  0  0  0  0  0  0  0  0  0  0
  191.3310  172.2060  143.3880 C   0  0  0  0  0  0  0  0  0  0  0  0
  188.0570  177.9540  144.3930 O   0  0  0  0  0  0  0  0  0  0  0  0
  187.5170  177.2010  143.5380 C   0  0  0  0  0  0  0  0  0  0  0  0
  192.8880  170.3300  143.3020 C   0  0  0  0  0  0  0  0  0  0  0  0
  191.7930  174.3880  144.6910 C   0  0  0  0  0  0  0  0  0  0  0  0
  193.2860  176.1970  146.2790 O   0  0  0  0  0  0  0  0  0  0  0  0
  192.5490  171.6100  143.7530 C   0  0  0  0  0  3  0  0  0  0  0  0
  189.2460  175.3420  143.8620 C   0  0  0  0  0  0  0  0  0  0  0  0
  195.0690  174.7590  146.0550 O   0  0  0  0  0  0  0  0  0  0  0  0
  189.2230  172.0200  142.2010 C   0  0  0  0  0  3  0  0  0  0  0  0
  194.0710  169.7770  143.6630 F   0  0  0  0  0  0  0  0  0  0  0  0
  189.9330  176.0210  144.7350 N   0  0  0  0  0  0  0  0  0  0  0  0
  189.6870  173.9960  143.4440 C   0  0  0  0  0  0  0  0  0  0  0  0
  188.0760  175.9080  143.2570 N   0  0  0  0  0  2  0  0  0  0  0  0
  193.1010  174.1690  144.8810 C   0  0  0  0  0  3  0  0  0  0  0  0
  192.0090  169.6230  142.4810 C   0  0  0  0  0  3  0  0  0  0  0  0
  191.1020  175.5110  145.4480 C   0  0  2  0  0  3  0  0  0  0  0  0
  192.0530  176.6740  145.7470 C   0  0  0  0  0  2  0  0  0  0  0  0
  188.8740  173.2540  142.6420 N   0  0  0  0  0  0  0  0  0  0  0  0
  190.4470  171.4700  142.5630 C   0  0  0  0  0  0  0  0  0  0  0  0
  190.7880  170.1920  142.1130 C   0  0  0  0  0  3  0  0  0  0  0  0
  183.9380  178.1570  141.4000 N   0  0  0  0  0  0  0  0  0  0  0  0
  185.1590  177.7960  143.5000 C   0  0  0  0  0  3  0  0  0  0  0  0
  187.4830  177.8590  140.6540 F   0  0  0  0  0  0  0  0  0  0  0  0
  182.7120  178.3200  140.6430 C   0  0  0  0  0  1  0  0  0  0  0  0
  183.8940  178.2940  142.8550 C   0  0  0  0  0  2  0  0  0  0  0  0
  186.3230  177.8950  141.3550 C   0  0  0  0  0  0  0  0  0  0  0  0
  186.3040  177.6490  142.8190 C   0  0  0  0  0  0  0  0  0  0  0  0
  185.1850  178.1130  140.6960 C   0  0  0  0  0  3  0  0  0  0  0  0
  1 11  2  0  0  0  0
  1  8  1  0  0  0  0
  2  7  1  0  0  0  0
  3  9  1  0  0  0  0
  3  2  2  0  0  0  0
  5  4  2  0  0  0  0
  6 13  1  0  0  0  0
  6  9  2  0  0  0  0
  7 17  2  0  0  0  0
  7 19  1  0  0  0  0
 10 14  2  0  0  0  0
 12 22  2  0  0  0  0
 12 21  1  0  0  0  0
 14 19  1  0  0  0  0
 15  2  1  0  0  0  0
 15 10  1  0  0  0  0
 16  5  1  0  0  0  0
 16 10  1  0  0  0  0
 17  1  1  0  0  0  0
 18  6  1  0  0  0  0
 19 20  1  6  0  0  0
 20  8  1  0  0  0  0
 21 15  2  0  0  0  0
 22  3  1  0  0  0  0
 23 18  2  0  0  0  0
 23 22  1  0  0  0  0
 24 28  1  0  0  0  0
 26 29  1  0  0  0  0
 27 24  1  0  0  0  0
 28 25  1  0  0  0  0
 29 30  1  0  0  0  0
 30 25  2  0  0  0  0
 30  5  1  0  0  0  0
 31 29  2  0  0  0  0
 31 24  1  0  0  0  0
M  END
>  <MODEL>
8

>  <REMARK>
 VINA RESULT:      -7.9      3.372      8.889
  Name = 
  1 active torsions:
  status: ('A' for Active; 'I' for Inactive)
    1  A    between atoms: C_5  and  C_30
                            x       y       z     vdW  Elec       q    Type
                         _______ _______ _______ _____ _____    ______ ____

>  <TORSDO>
F 1

$$$$
=
 OpenBabel11112416583D

 31 35  0  0  1  0  0  0  0  0999 V2000
  195.6460  174.4790  145.6470 C   0  0  0  0  0  0  0  0  0  0  0  0
  192.2560  173.0990  144.5100 C   0  0  0  0  0  0  0  0  0  0  0  0
  192.4750  171.8990  143.7780 C   0  0  0  0  0  0  0  0  0  0  0  0
  189.6940  177.2870  146.6090 O   0  0  0  0  0  0  0  0  0  0  0  0
  188.9120  176.6430  145.8590 C   0  0  0  0  0  0  0  0  0  0  0  0
  193.9220  170.1290  142.9300 C   0  0  0  0  0  0  0  0  0  0  0  0
  193.3270  173.8870  145.1910 C   0  0  0  0  0  0  0  0  0  0  0  0
  195.2470  175.5110  146.4960 O   0  0  0  0  0  0  0  0  0  0  0  0
  193.7450  171.3120  143.6530 C   0  0  0  0  0  3  0  0  0  0  0  0
  190.6510  174.8360  145.3450 C   0  0  0  0  0  0  0  0  0  0  0  0
  196.8660  174.2020  145.5150 O   0  0  0  0  0  0  0  0  0  0  0  0
  190.1010  171.7940  143.2870 C   0  0  0  0  0  3  0  0  0  0  0  0
  195.1570  169.5830  142.8190 F   0  0  0  0  0  0  0  0  0  0  0  0
  191.5780  175.4110  146.0560 N   0  0  0  0  0  0  0  0  0  0  0  0
  190.9350  173.5860  144.6110 C   0  0  0  0  0  0  0  0  0  0  0  0
  189.3530  175.4320  145.2250 N   0  0  0  0  0  2  0  0  0  0  0  0
  194.6280  173.7020  144.9320 C   0  0  0  0  0  3  0  0  0  0  0  0
  192.8290  169.5100  142.3230 C   0  0  0  0  0  3  0  0  0  0  0  0
  192.9110  174.8560  146.2860 C   0  0  2  0  0  3  0  0  0  0  0  0
  193.9100  176.0050  146.4500 C   0  0  0  0  0  2  0  0  0  0  0  0
  189.9110  172.9330  143.9960 N   0  0  0  0  0  0  0  0  0  0  0  0
  191.3750  171.2530  143.1650 C   0  0  0  0  0  0  0  0  0  0  0  0
  191.5560  170.0710  142.4420 C   0  0  0  0  0  3  0  0  0  0  0  0
  185.0280  178.3610  145.3570 N   0  0  0  0  0  0  0  0  0  0  0  0
  187.2750  177.8370  144.5150 C   0  0  0  0  0  3  0  0  0  0  0  0
  186.6600  176.1110  147.7010 F   0  0  0  0  0  0  0  0  0  0  0  0
  183.7640  179.0670  145.2810 C   0  0  0  0  0  1  0  0  0  0  0  0
  185.8940  178.3320  144.1800 C   0  0  0  0  0  2  0  0  0  0  0  0
  186.4570  176.9040  146.6190 C   0  0  0  0  0  0  0  0  0  0  0  0
  187.5370  177.1360  145.6270 C   0  0  0  0  0  0  0  0  0  0  0  0
  185.2800  177.5130  146.4840 C   0  0  0  0  0  3  0  0  0  0  0  0
  1  8  1  0  0  0  0
  2 15  1  0  0  0  0
  2  7  1  0  0  0  0
  3  2  2  0  0  0  0
  5  4  2  0  0  0  0
  6  9  2  0  0  0  0
  7 19  1  0  0  0  0
  9  3  1  0  0  0  0
 10 14  2  0  0  0  0
 11  1  2  0  0  0  0
 12 21  1  0  0  0  0
 13  6  1  0  0  0  0
 14 19  1  0  0  0  0
 15 10  1  0  0  0  0
 16 10  1  0  0  0  0
 16  5  1  0  0  0  0
 17  7  2  0  0  0  0
 17  1  1  0  0  0  0
 18 23  2  0  0  0  0
 18  6  1  0  0  0  0
 19 20  1  6  0  0  0
 20  8  1  0  0  0  0
 21 15  2  0  0  0  0
 22 12  2  0  0  0  0
 22  3  1  0  0  0  0
 23 22  1  0  0  0  0
 24 31  1  0  0  0  0
 25 30  2  0  0  0  0
 27 24  1  0  0  0  0
 28 25  1  0  0  0  0
 28 24  1  0  0  0  0
 29 26  1  0  0  0  0
 30  5  1  0  0  0  0
 30 29  1  0  0  0  0
 31 29  2  0  0  0  0
M  END
>  <MODEL>
9

>  <REMARK>
 VINA RESULT:      -7.8      3.357      9.332
  Name = 
  1 active torsions:
  status: ('A' for Active; 'I' for Inactive)
    1  A    between atoms: C_5  and  C_30
                            x       y       z     vdW  Elec       q    Type
                         _______ _______ _______ _____ _____    ______ ____

>  <TORSDO>
F 1

$$$$
