=
 OpenBabel11112416373D

 32 37  0  0  1  0  0  0  0  0999 V2000
  192.1630  173.5690  143.2750 C   0  0  0  0  0  2  0  0  0  0  0  0
  187.3880  176.7380  143.6020 C   0  0  0  0  0  0  0  0  0  0  0  0
  186.0850  177.9080  148.1550 C   0  0  0  0  0  3  0  0  0  0  0  0
  184.8820  178.4300  147.6820 C   0  0  0  0  0  3  0  0  0  0  0  0
  185.8170  177.2640  141.7210 C   0  0  0  0  0  0  0  0  0  0  0  0
  184.5920  177.8100  141.3540 C   0  0  0  0  0  0  0  0  0  0  0  0
  189.2790  175.1940  143.2750 N   0  0  2  0  0  0  0  0  0  0  0  0
  188.9350  176.1460  145.5180 C   0  0  0  0  0  2  0  0  0  0  0  0
  182.5390  178.8310  141.5700 C   0  0  1  0  0  3  0  0  0  0  0  0
  190.9290  174.7990  145.1060 C   0  0  0  0  0  2  0  0  0  0  0  0
  187.0080  177.3610  147.2610 C   0  0  0  0  0  3  0  0  0  0  0  0
  187.6720  176.7800  144.9820 C   0  0  0  0  0  0  0  0  0  0  0  0
  186.7390  177.3290  145.8820 C   0  0  0  0  0  0  0  0  0  0  0  0
  185.2270  177.8290  144.0320 C   0  0  0  0  0  0  0  0  0  0  0  0
  182.7710  178.5470  140.1340 N   0  0  0  0  0  2  0  0  0  0  0  0
  190.8480  173.4850  142.4970 C   0  0  0  0  0  2  0  0  0  0  0  0
  189.9600  175.7800  144.4440 C   0  0  1  0  0  3  0  0  0  0  0  0
  184.0370  177.9260  140.0660 N   0  0  0  0  0  0  0  0  0  0  0  0
  190.2490  174.8590  142.2340 C   0  0  0  0  0  2  0  0  0  0  0  0
  192.2240  174.6940  144.3110 C   0  0  1  0  0  3  0  0  0  0  0  0
  184.6010  178.4050  146.3160 C   0  0  0  0  0  3  0  0  0  0  0  0
  185.5180  177.8580  145.4040 C   0  0  0  0  0  0  0  0  0  0  0  0
  184.0390  178.3470  143.5820 N   0  0  0  0  0  0  0  0  0  0  0  0
  188.4620  176.2430  142.6710 C   0  0  0  0  0  2  0  0  0  0  0  0
  186.5710  176.7850  140.8330 O   0  0  0  0  0  0  0  0  0  0  0  0
  181.3690  178.1010  142.0240 N   0  0  0  0  0  1  0  0  0  0  0  0
  186.1650  177.2670  143.1070 C   0  0  0  0  0  0  0  0  0  0  0  0
  183.7480  178.3230  142.2610 C   0  0  0  0  0  0  0  0  0  0  0  0
  193.3430  174.4550  145.2100 N   0  0  0  0  0  2  0  0  0  0  0  0
  194.6310  175.0410  145.0090 C   0  0  0  0  0  0  0  0  0  0  0  0
  194.8520  175.7800  144.0130 O   0  0  0  0  0  0  0  0  0  0  0  0
  195.7200  174.7710  145.9810 C   0  0  0  0  0  1  0  0  0  0  0  0
  1 20  1  0  0  0  0
  2 12  1  0  0  0  0
  4  3  1  0  0  0  0
  5 27  1  0  0  0  0
  6  5  1  0  0  0  0
  6 28  1  0  0  0  0
  7 19  1  6  0  0  0
  7 17  1  0  0  0  0
  9 26  1  1  0  0  0
  9 28  1  0  0  0  0
 11  3  2  0  0  0  0
 12  8  1  0  0  0  0
 12 13  2  0  0  0  0
 13 11  1  0  0  0  0
 14 22  2  0  0  0  0
 15  9  1  0  0  0  0
 16  1  1  0  0  0  0
 17 10  1  1  0  0  0
 17  8  1  0  0  0  0
 18 15  1  0  0  0  0
 18  6  2  0  0  0  0
 19 16  1  0  0  0  0
 20 10  1  0  0  0  0
 20 29  1  1  0  0  0
 21  4  2  0  0  0  0
 22 13  1  0  0  0  0
 22 21  1  0  0  0  0
 23 14  1  0  0  0  0
 24  7  1  0  0  0  0
 24  2  1  0  0  0  0
 25  5  2  0  0  0  0
 27  2  2  0  0  0  0
 27 14  1  0  0  0  0
 28 23  2  0  0  0  0
 30 29  1  0  0  0  0
 30 32  1  0  0  0  0
 31 30  2  0  0  0  0
M  END
>  <MODEL>
1

>  <REMARK>
 VINA RESULT:      -9.0      0.000      0.000
  Name = 
  1 active torsions:
  status: ('A' for Active; 'I' for Inactive)
    1  A    between atoms: C_20  and  N_29
                            x       y       z     vdW  Elec       q    Type
                         _______ _______ _______ _____ _____    ______ ____

>  <TORSDO>
F 1

$$$$
=
 OpenBabel11112416373D

 32 37  0  0  1  0  0  0  0  0999 V2000
  189.5730  172.3230  138.5850 C   0  0  0  0  0  2  0  0  0  0  0  0
  188.5080  175.6770  143.1200 C   0  0  0  0  0  0  0  0  0  0  0  0
  191.7430  175.2100  146.7420 C   0  0  0  0  0  3  0  0  0  0  0  0
  190.9470  176.0080  147.5630 C   0  0  0  0  0  3  0  0  0  0  0  0
  186.4450  177.0450  143.5100 C   0  0  0  0  0  0  0  0  0  0  0  0
  185.7270  177.8280  144.4070 C   0  0  0  0  0  0  0  0  0  0  0  0
  188.6700  174.1560  141.1890 N   0  0  2  0  0  0  0  0  0  0  0  0
  190.5610  174.2380  142.7630 C   0  0  0  0  0  2  0  0  0  0  0  0
  185.1980  178.9270  146.3600 C   0  0  1  0  0  3  0  0  0  0  0  0
  190.7870  172.9170  140.7220 C   0  0  0  0  0  2  0  0  0  0  0  0
  191.3380  174.9320  145.4350 C   0  0  0  0  0  3  0  0  0  0  0  0
  189.7270  175.1680  143.6130 C   0  0  0  0  0  0  0  0  0  0  0  0
  190.1310  175.4470  144.9310 C   0  0  0  0  0  0  0  0  0  0  0  0
  188.1130  176.7740  145.2850 C   0  0  0  0  0  0  0  0  0  0  0  0
  184.1160  179.1730  145.3790 N   0  0  0  0  0  2  0  0  0  0  0  0
  188.2570  172.6890  139.2750 C   0  0  0  0  0  2  0  0  0  0  0  0
  190.1410  174.1800  141.2940 C   0  0  1  0  0  3  0  0  0  0  0  0
  184.4960  178.4790  144.2090 N   0  0  0  0  0  0  0  0  0  0  0  0
  188.2590  174.1210  139.7880 C   0  0  0  0  0  2  0  0  0  0  0  0
  190.8190  172.9650  139.2000 C   0  0  1  0  0  3  0  0  0  0  0  0
  189.7460  176.5270  147.0780 C   0  0  0  0  0  3  0  0  0  0  0  0
  189.3250  176.2550  145.7660 C   0  0  0  0  0  0  0  0  0  0  0  0
  187.3410  177.5560  146.1040 N   0  0  0  0  0  0  0  0  0  0  0  0
  188.1750  175.4420  141.6720 C   0  0  0  0  0  2  0  0  0  0  0  0
  185.9820  176.8460  142.3550 O   0  0  0  0  0  0  0  0  0  0  0  0
  184.6570  178.2230  147.5090 N   0  0  0  0  0  1  0  0  0  0  0  0
  187.6870  176.4910  143.9470 C   0  0  0  0  0  0  0  0  0  0  0  0
  186.1700  178.0610  145.6510 C   0  0  0  0  0  0  0  0  0  0  0  0
  192.0030  172.2800  138.7040 N   0  0  0  0  0  2  0  0  0  0  0  0
  193.2140  172.9680  138.3840 C   0  0  0  0  0  0  0  0  0  0  0  0
  193.2920  174.2200  138.5010 O   0  0  0  0  0  0  0  0  0  0  0  0
  194.3910  172.1990  137.9050 C   0  0  0  0  0  1  0  0  0  0  0  0
  1 20  1  0  0  0  0
  1 16  1  0  0  0  0
  2 12  2  0  0  0  0
  2 27  1  0  0  0  0
  3  4  1  0  0  0  0
  5 27  1  0  0  0  0
  5  6  1  0  0  0  0
  6 28  1  0  0  0  0
  7 19  1  6  0  0  0
  7 17  1  0  0  0  0
  7 24  1  0  0  0  0
  8 12  1  0  0  0  0
  9 26  1  1  0  0  0
 11  3  2  0  0  0  0
 12 13  1  0  0  0  0
 13 11  1  0  0  0  0
 13 22  2  0  0  0  0
 14 22  1  0  0  0  0
 14 23  1  0  0  0  0
 15  9  1  0  0  0  0
 16 19  1  0  0  0  0
 17 10  1  1  0  0  0
 17  8  1  0  0  0  0
 18  6  2  0  0  0  0
 18 15  1  0  0  0  0
 20 29  1  6  0  0  0
 20 10  1  0  0  0  0
 21  4  2  0  0  0  0
 22 21  1  0  0  0  0
 24  2  1  0  0  0  0
 25  5  2  0  0  0  0
 27 14  2  0  0  0  0
 28 23  2  0  0  0  0
 28  9  1  0  0  0  0
 30 31  2  0  0  0  0
 30 29  1  0  0  0  0
 32 30  1  0  0  0  0
M  END
>  <MODEL>
2

>  <REMARK>
 VINA RESULT:      -8.6      2.851      4.764
  Name = 
  1 active torsions:
  status: ('A' for Active; 'I' for Inactive)
    1  A    between atoms: C_20  and  N_29
                            x       y       z     vdW  Elec       q    Type
                         _______ _______ _______ _____ _____    ______ ____

>  <TORSDO>
F 1

$$$$
=
 OpenBabel11112416373D

 32 37  0  0  1  0  0  0  0  0999 V2000
  185.1300  178.1140  144.8190 C   0  0  0  0  0  2  0  0  0  0  0  0
  190.0920  175.4340  143.7460 C   0  0  0  0  0  0  0  0  0  0  0  0
  189.7650  171.9170  140.3800 C   0  0  0  0  0  3  0  0  0  0  0  0
  191.0720  171.5200  140.6610 C   0  0  0  0  0  3  0  0  0  0  0  0
  192.2280  175.6820  145.0320 C   0  0  0  0  0  0  0  0  0  0  0  0
  193.5190  175.2090  145.2350 C   0  0  0  0  0  0  0  0  0  0  0  0
  188.0240  176.5390  144.5030 N   0  0  2  0  0  0  0  0  0  0  0  0
  187.9140  175.1260  142.4910 C   0  0  0  0  0  2  0  0  0  0  0  0
  195.4020  173.9100  144.9690 C   0  0  1  0  0  3  0  0  0  0  0  0
  185.9410  176.4150  143.1320 C   0  0  0  0  0  2  0  0  0  0  0  0
  189.1980  172.9890  141.0730 C   0  0  0  0  0  3  0  0  0  0  0  0
  189.3560  174.7590  142.7510 C   0  0  0  0  0  0  0  0  0  0  0  0
  189.9290  173.6770  142.0560 C   0  0  0  0  0  0  0  0  0  0  0  0
  191.9990  173.9400  143.3240 C   0  0  0  0  0  0  0  0  0  0  0  0
  195.6740  174.9160  146.0220 N   0  0  0  0  0  0  0  0  0  0  0  0
  186.2480  177.6580  145.7590 C   0  0  0  0  0  2  0  0  0  0  0  0
  187.4710  176.4380  143.1390 C   0  0  1  0  0  3  0  0  0  0  0  0
  194.4910  175.6780  146.1380 N   0  0  0  0  0  0  0  0  0  0  0  0
  187.6230  177.7990  145.1240 C   0  0  0  0  0  2  0  0  0  0  0  0
  185.3760  177.8140  143.3380 C   0  0  1  0  0  3  0  0  0  0  0  0
  191.8110  172.1930  141.6350 C   0  0  0  0  0  3  0  0  0  0  0  0
  191.2530  173.2720  142.3410 C   0  0  0  0  0  0  0  0  0  0  0  0
  193.2820  173.5380  143.5890 N   0  0  0  0  0  2  0  0  0  0  0  0
  189.4750  176.6510  144.3800 C   0  0  0  0  0  2  0  0  0  0  0  0
  191.8090  176.6510  145.7220 O   0  0  0  0  0  0  0  0  0  0  0  0
  195.4950  172.5770  145.5380 N   0  0  0  0  0  1  0  0  0  0  0  0
  191.4240  175.0390  144.0430 C   0  0  0  0  0  0  0  0  0  0  0  0
  194.0090  174.1750  144.5350 C   0  0  0  0  0  0  0  0  0  0  0  0
  184.1260  177.9600  142.6070 N   0  0  0  0  0  2  0  0  0  0  0  0
  184.0810  178.1850  141.1970 C   0  0  0  0  0  0  0  0  0  0  0  0
  185.1440  178.2910  140.5280 O   0  0  0  0  0  0  0  0  0  0  0  0
  182.7670  178.3010  140.5140 C   0  0  0  0  0  1  0  0  0  0  0  0
  1 16  1  0  0  0  0
  2 27  1  0  0  0  0
  2 24  1  0  0  0  0
  3  4  2  0  0  0  0
  3 11  1  0  0  0  0
  4 21  1  0  0  0  0
  5  6  1  0  0  0  0
  5 25  2  0  0  0  0
  6 18  1  0  0  0  0
  7 24  1  6  0  0  0
  7 19  1  0  0  0  0
  8 12  1  0  0  0  0
  9 26  1  1  0  0  0
  9 15  1  0  0  0  0
 10 17  1  0  0  0  0
 10 20  1  0  0  0  0
 11 13  2  0  0  0  0
 12  2  2  0  0  0  0
 13 22  1  0  0  0  0
 13 12  1  0  0  0  0
 14 23  1  0  0  0  0
 14 27  2  0  0  0  0
 15 18  2  0  0  0  0
 17  8  1  1  0  0  0
 17  7  1  0  0  0  0
 19 16  1  0  0  0  0
 20 29  1  6  0  0  0
 20  1  1  0  0  0  0
 21 22  2  0  0  0  0
 22 14  1  0  0  0  0
 23 28  1  0  0  0  0
 27  5  1  0  0  0  0
 28  9  1  0  0  0  0
 28  6  2  0  0  0  0
 30 29  1  0  0  0  0
 31 30  2  0  0  0  0
 32 30  1  0  0  0  0
M  END
>  <MODEL>
3

>  <REMARK>
 VINA RESULT:      -8.6      1.650      9.213
  Name = 
  1 active torsions:
  status: ('A' for Active; 'I' for Inactive)
    1  A    between atoms: C_20  and  N_29
                            x       y       z     vdW  Elec       q    Type
                         _______ _______ _______ _____ _____    ______ ____

>  <TORSDO>
F 1

$$$$
=
 OpenBabel11112416373D

 32 37  0  0  1  0  0  0  0  0999 V2000
  194.9410  175.6650  146.4300 C   0  0  0  0  0  2  0  0  0  0  0  0
  189.8740  175.7460  143.7350 C   0  0  0  0  0  0  0  0  0  0  0  0
  189.8600  173.4040  139.4560 C   0  0  0  0  0  3  0  0  0  0  0  0
  188.5790  173.8870  139.1900 C   0  0  0  0  0  3  0  0  0  0  0  0
  187.8630  177.0950  144.3820 C   0  0  0  0  0  0  0  0  0  0  0  0
  186.5900  177.5210  144.0220 C   0  0  0  0  0  0  0  0  0  0  0  0
  192.0130  176.0140  144.9270 N   0  0  2  0  0  0  0  0  0  0  0  0
  191.9280  174.4400  143.0370 C   0  0  0  0  0  2  0  0  0  0  0  0
  184.6760  177.7620  142.7640 C   0  0  1  0  0  3  0  0  0  0  0  0
  193.9640  174.5550  144.3800 C   0  0  0  0  0  2  0  0  0  0  0  0
  190.4990  173.7420  140.6500 C   0  0  0  0  0  3  0  0  0  0  0  0
  190.5110  174.9050  142.8000 C   0  0  0  0  0  0  0  0  0  0  0  0
  189.8660  174.5680  141.5950 C   0  0  0  0  0  0  0  0  0  0  0  0
  187.9200  175.8900  142.2490 C   0  0  0  0  0  0  0  0  0  0  0  0
  184.5100  178.5330  144.0180 N   0  0  0  0  0  0  0  0  0  0  0  0
  193.9070  176.7810  146.2730 C   0  0  0  0  0  2  0  0  0  0  0  0
  192.4410  174.6830  144.4570 C   0  0  1  0  0  3  0  0  0  0  0  0
  185.7080  178.3470  144.7430 N   0  0  0  0  0  0  0  0  0  0  0  0
  192.4810  176.2480  146.2910 C   0  0  0  0  0  2  0  0  0  0  0  0
  194.5610  174.3400  145.7650 C   0  0  1  0  0  3  0  0  0  0  0  0
  187.9370  174.7080  140.1170 C   0  0  0  0  0  3  0  0  0  0  0  0
  188.5670  175.0580  141.3230 C   0  0  0  0  0  0  0  0  0  0  0  0
  186.6610  176.3570  141.9740 N   0  0  0  0  0  2  0  0  0  0  0  0
  190.5590  175.9860  145.0540 C   0  0  0  0  0  2  0  0  0  0  0  0
  188.3520  177.4700  145.4820 O   0  0  0  0  0  0  0  0  0  0  0  0
  184.6190  178.6660  141.6290 N   0  0  0  0  0  1  0  0  0  0  0  0
  188.5690  176.2460  143.4760 C   0  0  0  0  0  0  0  0  0  0  0  0
  186.0280  177.1600  142.8590 C   0  0  0  0  0  0  0  0  0  0  0  0
  195.7420  173.4960  145.6730 N   0  0  0  0  0  2  0  0  0  0  0  0
  195.6700  172.0680  145.6650 C   0  0  0  0  0  0  0  0  0  0  0  0
  194.5600  171.4810  145.7620 O   0  0  0  0  0  0  0  0  0  0  0  0
  196.9170  171.2710  145.5450 C   0  0  0  0  0  1  0  0  0  0  0  0
  2 24  1  0  0  0  0
  3 11  1  0  0  0  0
  4  3  2  0  0  0  0
  4 21  1  0  0  0  0
  5 25  2  0  0  0  0
  6  5  1  0  0  0  0
  6 18  1  0  0  0  0
  7 24  1  1  0  0  0
  7 19  1  0  0  0  0
  9 26  1  6  0  0  0
  9 28  1  0  0  0  0
  9 15  1  0  0  0  0
 10 17  1  0  0  0  0
 10 20  1  0  0  0  0
 11 13  2  0  0  0  0
 12  8  1  0  0  0  0
 12  2  2  0  0  0  0
 13 12  1  0  0  0  0
 14 27  2  0  0  0  0
 15 18  2  0  0  0  0
 16 19  1  0  0  0  0
 16  1  1  0  0  0  0
 17  8  1  6  0  0  0
 17  7  1  0  0  0  0
 20 29  1  6  0  0  0
 20  1  1  0  0  0  0
 21 22  2  0  0  0  0
 22 13  1  0  0  0  0
 22 14  1  0  0  0  0
 23 14  1  0  0  0  0
 23 28  1  0  0  0  0
 27  2  1  0  0  0  0
 27  5  1  0  0  0  0
 28  6  2  0  0  0  0
 30 29  1  0  0  0  0
 30 31  2  0  0  0  0
 32 30  1  0  0  0  0
M  END
>  <MODEL>
4

>  <REMARK>
 VINA RESULT:      -8.4      2.299      4.965
  Name = 
  1 active torsions:
  status: ('A' for Active; 'I' for Inactive)
    1  A    between atoms: C_20  and  N_29
                            x       y       z     vdW  Elec       q    Type
                         _______ _______ _______ _____ _____    ______ ____

>  <TORSDO>
F 1

$$$$
=
 OpenBabel11112416373D

 32 37  0  0  1  0  0  0  0  0999 V2000
  191.0430  172.1420  139.3820 C   0  0  0  0  0  2  0  0  0  0  0  0
  188.9910  175.8470  143.2570 C   0  0  0  0  0  0  0  0  0  0  0  0
  191.7750  176.3070  147.2370 C   0  0  0  0  0  3  0  0  0  0  0  0
  190.7850  177.0780  147.8460 C   0  0  0  0  0  3  0  0  0  0  0  0
  186.7370  176.9410  143.2250 C   0  0  0  0  0  0  0  0  0  0  0  0
  185.8170  177.7180  143.9200 C   0  0  0  0  0  0  0  0  0  0  0  0
  189.5900  174.1360  141.5890 N   0  0  2  0  0  0  0  0  0  0  0  0
  191.2400  174.6850  143.3300 C   0  0  0  0  0  2  0  0  0  0  0  0
  184.9080  178.9640  145.6300 C   0  0  1  0  0  3  0  0  0  0  0  0
  191.8900  173.1670  141.5320 C   0  0  0  0  0  2  0  0  0  0  0  0
  191.5780  175.8120  145.9470 C   0  0  0  0  0  3  0  0  0  0  0  0
  190.1930  175.5840  143.9450 C   0  0  0  0  0  0  0  0  0  0  0  0
  190.3880  176.0810  145.2470 C   0  0  0  0  0  0  0  0  0  0  0  0
  188.1880  177.1370  145.1910 C   0  0  0  0  0  0  0  0  0  0  0  0
  183.9360  178.9270  144.5120 N   0  0  0  0  0  2  0  0  0  0  0  0
  189.6150  172.3980  139.8670 C   0  0  0  0  0  2  0  0  0  0  0  0
  191.0210  174.3860  141.8470 C   0  0  1  0  0  3  0  0  0  0  0  0
  184.5470  178.1550  143.5000 N   0  0  0  0  0  0  0  0  0  0  0  0
  189.3670  173.8690  140.1700 C   0  0  0  0  0  2  0  0  0  0  0  0
  192.1080  173.0290  140.0300 C   0  0  1  0  0  3  0  0  0  0  0  0
  189.5990  177.3530  147.1660 C   0  0  0  0  0  3  0  0  0  0  0  0
  189.3860  176.8620  145.8670 C   0  0  0  0  0  0  0  0  0  0  0  0
  187.2240  177.8960  145.8030 N   0  0  0  0  0  0  0  0  0  0  0  0
  188.8770  175.3880  141.8290 C   0  0  0  0  0  2  0  0  0  0  0  0
  186.4530  176.5350  142.0660 O   0  0  0  0  0  0  0  0  0  0  0  0
  184.3210  178.3370  146.8010 N   0  0  0  0  0  1  0  0  0  0  0  0
  187.9740  176.6310  143.8670 C   0  0  0  0  0  0  0  0  0  0  0  0
  186.0650  178.1650  145.1600 C   0  0  0  0  0  0  0  0  0  0  0  0
  193.4240  172.4660  139.7670 N   0  0  0  0  0  2  0  0  0  0  0  0
  194.5800  173.2770  139.5490 C   0  0  0  0  0  0  0  0  0  0  0  0
  194.4930  174.5340  139.5550 O   0  0  0  0  0  0  0  0  0  0  0  0
  195.8960  172.6310  139.3100 C   0  0  0  0  0  1  0  0  0  0  0  0
  1 16  1  0  0  0  0
  1 20  1  0  0  0  0
  2 27  2  0  0  0  0
  2 12  1  0  0  0  0
  3  4  1  0  0  0  0
  5 27  1  0  0  0  0
  5  6  1  0  0  0  0
  6 28  1  0  0  0  0
  7 19  1  6  0  0  0
  7 24  1  0  0  0  0
  7 17  1  0  0  0  0
  8 12  1  0  0  0  0
  9 26  1  1  0  0  0
 11  3  2  0  0  0  0
 12 13  2  0  0  0  0
 13 22  1  0  0  0  0
 13 11  1  0  0  0  0
 14 23  1  0  0  0  0
 14 22  2  0  0  0  0
 15  9  1  0  0  0  0
 16 19  1  0  0  0  0
 17 10  1  1  0  0  0
 17  8  1  0  0  0  0
 18  6  2  0  0  0  0
 18 15  1  0  0  0  0
 20 29  1  1  0  0  0
 20 10  1  0  0  0  0
 21  4  2  0  0  0  0
 22 21  1  0  0  0  0
 24  2  1  0  0  0  0
 25  5  2  0  0  0  0
 27 14  1  0  0  0  0
 28  9  1  0  0  0  0
 28 23  2  0  0  0  0
 30 31  2  0  0  0  0
 30 29  1  0  0  0  0
 32 30  1  0  0  0  0
M  END
>  <MODEL>
5

>  <REMARK>
 VINA RESULT:      -8.3      2.562      4.138
  Name = 
  1 active torsions:
  status: ('A' for Active; 'I' for Inactive)
    1  A    between atoms: C_20  and  N_29
                            x       y       z     vdW  Elec       q    Type
                         _______ _______ _______ _____ _____    ______ ____

>  <TORSDO>
F 1

$$$$
=
 OpenBabel11112416373D

 32 37  0  0  1  0  0  0  0  0999 V2000
  195.4460  175.0570  146.1800 C   0  0  0  0  0  2  0  0  0  0  0  0
  189.9170  175.8990  144.8850 C   0  0  0  0  0  0  0  0  0  0  0  0
  188.7050  174.5420  140.3580 C   0  0  0  0  0  3  0  0  0  0  0  0
  187.4450  175.1150  140.5180 C   0  0  0  0  0  3  0  0  0  0  0  0
  188.2370  177.1450  146.2640 C   0  0  0  0  0  0  0  0  0  0  0  0
  186.9560  177.6830  146.3210 C   0  0  0  0  0  0  0  0  0  0  0  0
  192.2900  175.8250  145.5440 N   0  0  2  0  0  0  0  0  0  0  0  0
  191.6310  174.7030  143.4550 C   0  0  0  0  0  2  0  0  0  0  0  0
  184.8310  178.2580  145.6470 C   0  0  1  0  0  3  0  0  0  0  0  0
  193.9260  174.4530  144.2520 C   0  0  0  0  0  2  0  0  0  0  0  0
  189.6310  174.5900  141.4020 C   0  0  0  0  0  3  0  0  0  0  0  0
  190.2440  175.2580  143.6720 C   0  0  0  0  0  0  0  0  0  0  0  0
  189.3090  175.2130  142.6200 C   0  0  0  0  0  0  0  0  0  0  0  0
  187.6910  176.4290  143.9850 C   0  0  0  0  0  0  0  0  0  0  0  0
  185.0280  178.7450  147.0320 N   0  0  0  0  0  0  0  0  0  0  0  0
  194.5030  176.2160  146.5100 C   0  0  0  0  0  2  0  0  0  0  0  0
  192.4800  174.6140  144.7240 C   0  0  1  0  0  3  0  0  0  0  0  0
  186.3410  178.3640  147.3880 N   0  0  0  0  0  0  0  0  0  0  0  0
  193.0810  175.7420  146.7690 C   0  0  0  0  0  2  0  0  0  0  0  0
  194.8080  173.9220  145.3750 C   0  0  1  0  0  3  0  0  0  0  0  0
  187.1100  175.7380  141.7210 C   0  0  0  0  0  3  0  0  0  0  0  0
  188.0310  175.7960  142.7800 C   0  0  0  0  0  0  0  0  0  0  0  0
  186.4480  176.9890  144.1270 N   0  0  0  0  0  2  0  0  0  0  0  0
  190.9070  175.8230  146.0150 C   0  0  0  0  0  2  0  0  0  0  0  0
  188.9980  177.2550  147.2620 O   0  0  0  0  0  0  0  0  0  0  0  0
  184.5900  179.3890  144.7670 N   0  0  0  0  0  1  0  0  0  0  0  0
  188.6360  176.4880  145.0610 C   0  0  0  0  0  0  0  0  0  0  0  0
  186.1100  177.6030  145.2840 C   0  0  0  0  0  0  0  0  0  0  0  0
  195.8570  173.0760  144.8270 N   0  0  0  0  0  2  0  0  0  0  0  0
  195.9480  171.6780  145.1110 C   0  0  0  0  0  0  0  0  0  0  0  0
  195.1180  171.1240  145.8800 O   0  0  0  0  0  0  0  0  0  0  0  0
  197.0340  170.8730  144.4970 C   0  0  0  0  0  1  0  0  0  0  0  0
  1 16  1  0  0  0  0
  2 27  1  0  0  0  0
  2 24  1  0  0  0  0
  3  4  2  0  0  0  0
  3 11  1  0  0  0  0
  4 21  1  0  0  0  0
  5  6  1  0  0  0  0
  5 25  2  0  0  0  0
  6 18  1  0  0  0  0
  7 24  1  1  0  0  0
  7 19  1  0  0  0  0
  8 12  1  0  0  0  0
  9 26  1  6  0  0  0
  9 15  1  0  0  0  0
 10 17  1  0  0  0  0
 10 20  1  0  0  0  0
 11 13  2  0  0  0  0
 12  2  2  0  0  0  0
 13 22  1  0  0  0  0
 13 12  1  0  0  0  0
 14 23  1  0  0  0  0
 14 27  2  0  0  0  0
 15 18  2  0  0  0  0
 16 19  1  0  0  0  0
 17  8  1  6  0  0  0
 17  7  1  0  0  0  0
 20 29  1  6  0  0  0
 20  1  1  0  0  0  0
 21 22  2  0  0  0  0
 22 14  1  0  0  0  0
 23 28  1  0  0  0  0
 27  5  1  0  0  0  0
 28  9  1  0  0  0  0
 28  6  2  0  0  0  0
 29 30  1  0  0  0  0
 30 31  2  0  0  0  0
 32 30  1  0  0  0  0
M  END
>  <MODEL>
6

>  <REMARK>
 VINA RESULT:      -8.0      2.722      5.045
  Name = 
  1 active torsions:
  status: ('A' for Active; 'I' for Inactive)
    1  A    between atoms: C_20  and  N_29
                            x       y       z     vdW  Elec       q    Type
                         _______ _______ _______ _____ _____    ______ ____

>  <TORSDO>
F 1

$$$$
=
 OpenBabel11112416373D

 32 37  0  0  1  0  0  0  0  0999 V2000
  186.0120  178.1130  142.0410 C   0  0  0  0  0  2  0  0  0  0  0  0
  190.9310  175.2510  142.7920 C   0  0  0  0  0  0  0  0  0  0  0  0
  193.3100  176.4250  146.8860 C   0  0  0  0  0  3  0  0  0  0  0  0
  194.4050  175.6670  146.4740 C   0  0  0  0  0  3  0  0  0  0  0  0
  192.0630  173.7680  141.1180 C   0  0  0  0  0  0  0  0  0  0  0  0
  193.2050  173.0410  140.8010 C   0  0  0  0  0  0  0  0  0  0  0  0
  188.9190  176.5360  142.1860 N   0  0  2  0  0  0  0  0  0  0  0  0
  189.8270  176.8070  144.4570 C   0  0  0  0  0  2  0  0  0  0  0  0
  195.3150  172.1440  141.0170 C   0  0  1  0  0  3  0  0  0  0  0  0
  187.7080  177.8860  143.9020 C   0  0  0  0  0  2  0  0  0  0  0  0
  192.1750  176.5080  146.0780 C   0  0  0  0  0  3  0  0  0  0  0  0
  190.9730  175.9180  144.0340 C   0  0  0  0  0  0  0  0  0  0  0  0
  192.1190  175.8350  144.8450 C   0  0  0  0  0  0  0  0  0  0  0  0
  193.2000  174.3930  143.1980 C   0  0  0  0  0  0  0  0  0  0  0  0
  194.7440  171.6890  139.7270 N   0  0  0  0  0  2  0  0  0  0  0  0
  187.1070  177.7210  141.0470 C   0  0  0  0  0  2  0  0  0  0  0  0
  188.5620  176.6500  143.6130 C   0  0  1  0  0  3  0  0  0  0  0  0
  193.4580  172.2680  139.6530 N   0  0  0  0  0  0  0  0  0  0  0  0
  187.7190  176.3660  141.3710 C   0  0  0  0  0  2  0  0  0  0  0  0
  186.2620  177.6580  143.4810 C   0  0  1  0  0  3  0  0  0  0  0  0
  194.3660  174.9930  145.2530 C   0  0  0  0  0  3  0  0  0  0  0  0
  193.2310  175.0670  144.4280 C   0  0  0  0  0  0  0  0  0  0  0  0
  194.2840  173.6520  142.8060 N   0  0  0  0  0  0  0  0  0  0  0  0
  189.6430  175.2800  142.0140 C   0  0  0  0  0  2  0  0  0  0  0  0
  191.0970  173.7860  140.3100 O   0  0  0  0  0  0  0  0  0  0  0  0
  196.5080  172.9330  140.7670 N   0  0  0  0  0  1  0  0  0  0  0  0
  192.0410  174.4750  142.3590 C   0  0  0  0  0  0  0  0  0  0  0  0
  194.2650  172.9980  141.6220 C   0  0  0  0  0  0  0  0  0  0  0  0
  185.3640  178.3770  144.3720 N   0  0  0  0  0  2  0  0  0  0  0  0
  184.9680  177.8640  145.6460 C   0  0  0  0  0  0  0  0  0  0  0  0
  185.3740  176.7370  146.0380 O   0  0  0  0  0  0  0  0  0  0  0  0
  184.0670  178.6650  146.5120 C   0  0  0  0  0  1  0  0  0  0  0  0
  1 20  1  0  0  0  0
  2 12  1  0  0  0  0
  4  3  1  0  0  0  0
  5 27  1  0  0  0  0
  6  5  1  0  0  0  0
  6 28  1  0  0  0  0
  7 19  1  6  0  0  0
  7 17  1  0  0  0  0
  9 26  1  6  0  0  0
  9 28  1  0  0  0  0
 11  3  2  0  0  0  0
 12  8  1  0  0  0  0
 12 13  2  0  0  0  0
 13 11  1  0  0  0  0
 14 22  2  0  0  0  0
 15  9  1  0  0  0  0
 16 19  1  0  0  0  0
 16  1  1  0  0  0  0
 17 10  1  6  0  0  0
 17  8  1  0  0  0  0
 18 15  1  0  0  0  0
 18  6  2  0  0  0  0
 20 10  1  0  0  0  0
 20 29  1  1  0  0  0
 21  4  2  0  0  0  0
 22 13  1  0  0  0  0
 22 21  1  0  0  0  0
 23 14  1  0  0  0  0
 24  7  1  0  0  0  0
 24  2  1  0  0  0  0
 25  5  2  0  0  0  0
 27  2  2  0  0  0  0
 27 14  1  0  0  0  0
 28 23  2  0  0  0  0
 29 30  1  0  0  0  0
 30 31  2  0  0  0  0
 30 32  1  0  0  0  0
M  END
>  <MODEL>
7

>  <REMARK>
 VINA RESULT:      -8.0      2.786      8.609
  Name = 
  1 active torsions:
  status: ('A' for Active; 'I' for Inactive)
    1  A    between atoms: C_20  and  N_29
                            x       y       z     vdW  Elec       q    Type
                         _______ _______ _______ _____ _____    ______ ____

>  <TORSDO>
F 1

$$$$
=
 OpenBabel11112416373D

 32 37  0  0  1  0  0  0  0  0999 V2000
  192.1640  169.5020  140.9220 C   0  0  0  0  0  2  0  0  0  0  0  0
  189.3080  174.2380  142.4620 C   0  0  0  0  0  0  0  0  0  0  0  0
  189.3150  175.0910  147.2650 C   0  0  0  0  0  3  0  0  0  0  0  0
  188.3960  176.1250  147.0880 C   0  0  0  0  0  3  0  0  0  0  0  0
  187.8560  175.6480  140.9850 C   0  0  0  0  0  0  0  0  0  0  0  0
  186.9440  176.6950  140.9180 C   0  0  0  0  0  0  0  0  0  0  0  0
  190.2870  172.1330  141.6350 N   0  0  2  0  0  0  0  0  0  0  0  0
  190.7160  172.7720  143.9730 C   0  0  0  0  0  2  0  0  0  0  0  0
  185.5810  178.4120  141.6240 C   0  0  1  0  0  3  0  0  0  0  0  0
  191.8580  170.8160  143.0600 C   0  0  0  0  0  2  0  0  0  0  0  0
  189.7730  174.3680  146.1620 C   0  0  0  0  0  3  0  0  0  0  0  0
  189.7820  173.9390  143.7560 C   0  0  0  0  0  0  0  0  0  0  0  0
  189.3170  174.6680  144.8670 C   0  0  0  0  0  0  0  0  0  0  0  0
  187.9110  176.0280  143.4060 C   0  0  0  0  0  0  0  0  0  0  0  0
  185.4550  178.2920  140.1530 N   0  0  0  0  0  2  0  0  0  0  0  0
  190.8410  170.0840  140.4200 C   0  0  0  0  0  2  0  0  0  0  0  0
  191.3160  172.1990  142.6890 C   0  0  1  0  0  3  0  0  0  0  0  0
  186.3090  177.2300  139.7810 N   0  0  0  0  0  0  0  0  0  0  0  0
  190.8560  171.6050  140.3980 C   0  0  0  0  0  2  0  0  0  0  0  0
  192.8510  170.3240  142.0150 C   0  0  1  0  0  3  0  0  0  0  0  0
  187.9340  176.4350  145.8090 C   0  0  0  0  0  3  0  0  0  0  0  0
  188.3840  175.7160  144.6890 C   0  0  0  0  0  0  0  0  0  0  0  0
  187.0070  177.0460  143.2480 N   0  0  0  0  0  0  0  0  0  0  0  0
  189.9180  173.5050  141.2970 C   0  0  0  0  0  2  0  0  0  0  0  0
  188.1930  175.0530  139.9260 O   0  0  0  0  0  0  0  0  0  0  0  0
  184.2910  178.1560  142.2420 N   0  0  0  0  0  1  0  0  0  0  0  0
  188.3710  175.2890  142.2680 C   0  0  0  0  0  0  0  0  0  0  0  0
  186.5430  177.3540  142.0150 C   0  0  0  0  0  0  0  0  0  0  0  0
  193.8790  169.5120  142.6490 N   0  0  0  0  0  2  0  0  0  0  0  0
  195.0840  170.0690  143.1780 C   0  0  0  0  0  0  0  0  0  0  0  0
  195.3120  171.3060  143.0920 O   0  0  0  0  0  0  0  0  0  0  0  0
  196.0790  169.1820  143.8320 C   0  0  0  0  0  1  0  0  0  0  0  0
  1 20  1  0  0  0  0
  2 12  1  0  0  0  0
  4  3  1  0  0  0  0
  5 27  1  0  0  0  0
  6  5  1  0  0  0  0
  6 28  1  0  0  0  0
  7 19  1  6  0  0  0
  7 17  1  0  0  0  0
  9 28  1  0  0  0  0
  9 26  1  1  0  0  0
 11  3  2  0  0  0  0
 12  8  1  0  0  0  0
 12 13  2  0  0  0  0
 13 11  1  0  0  0  0
 14 22  2  0  0  0  0
 15  9  1  0  0  0  0
 16  1  1  0  0  0  0
 17 10  1  1  0  0  0
 17  8  1  0  0  0  0
 18 15  1  0  0  0  0
 18  6  2  0  0  0  0
 19 16  1  0  0  0  0
 20 29  1  1  0  0  0
 20 10  1  0  0  0  0
 21  4  2  0  0  0  0
 22 13  1  0  0  0  0
 22 21  1  0  0  0  0
 23 14  1  0  0  0  0
 24  7  1  0  0  0  0
 24  2  1  0  0  0  0
 25  5  2  0  0  0  0
 27  2  2  0  0  0  0
 27 14  1  0  0  0  0
 28 23  2  0  0  0  0
 29 30  1  0  0  0  0
 30 32  1  0  0  0  0
 31 30  2  0  0  0  0
M  END
>  <MODEL>
8

>  <REMARK>
 VINA RESULT:      -7.9      2.765      3.909
  Name = 
  1 active torsions:
  status: ('A' for Active; 'I' for Inactive)
    1  A    between atoms: C_20  and  N_29
                            x       y       z     vdW  Elec       q    Type
                         _______ _______ _______ _____ _____    ______ ____

>  <TORSDO>
F 1

$$$$
=
 OpenBabel11112416373D

 32 37  0  0  1  0  0  0  0  0999 V2000
  191.9020  170.3440  141.9050 C   0  0  0  0  0  2  0  0  0  0  0  0
  189.4120  175.0690  144.0080 C   0  0  0  0  0  0  0  0  0  0  0  0
  191.4980  176.7740  148.0750 C   0  0  0  0  0  3  0  0  0  0  0  0
  190.4600  177.6920  148.2290 C   0  0  0  0  0  3  0  0  0  0  0  0
  187.2550  176.0850  143.2380 C   0  0  0  0  0  0  0  0  0  0  0  0
  186.2710  177.0360  143.4820 C   0  0  0  0  0  0  0  0  0  0  0  0
  190.1990  172.9230  143.0880 N   0  0  2  0  0  0  0  0  0  0  0  0
  191.5540  174.0020  144.8360 C   0  0  0  0  0  2  0  0  0  0  0  0
  185.1490  178.7530  144.5300 C   0  0  1  0  0  3  0  0  0  0  0  0
  192.4220  171.9980  143.7440 C   0  0  0  0  0  2  0  0  0  0  0  0
  191.4980  175.8970  146.9890 C   0  0  0  0  0  3  0  0  0  0  0  0
  190.4650  175.0430  144.9450 C   0  0  0  0  0  0  0  0  0  0  0  0
  190.4610  175.9260  146.0410 C   0  0  0  0  0  0  0  0  0  0  0  0
  188.3580  176.8980  145.2700 C   0  0  0  0  0  0  0  0  0  0  0  0
  184.3810  178.3610  143.3250 N   0  0  0  0  0  2  0  0  0  0  0  0
  190.4270  170.7320  142.0250 C   0  0  0  0  0  2  0  0  0  0  0  0
  191.5750  173.2490  143.5060 C   0  0  1  0  0  3  0  0  0  0  0  0
  185.1150  177.3120  142.7280 N   0  0  0  0  0  0  0  0  0  0  0  0
  190.2060  172.2210  141.8070 C   0  0  0  0  0  2  0  0  0  0  0  0
  192.8850  171.3960  142.4240 C   0  0  1  0  0  3  0  0  0  0  0  0
  189.4220  177.7330  147.2970 C   0  0  0  0  0  3  0  0  0  0  0  0
  189.4080  176.8570  146.1990 C   0  0  0  0  0  0  0  0  0  0  0  0
  187.3440  177.8060  145.4340 N   0  0  0  0  0  0  0  0  0  0  0  0
  189.5200  174.1830  142.7960 C   0  0  0  0  0  2  0  0  0  0  0  0
  187.1520  175.3340  142.2310 O   0  0  0  0  0  0  0  0  0  0  0  0
  184.3400  178.5240  145.7140 N   0  0  0  0  0  1  0  0  0  0  0  0
  188.3470  175.9990  144.1530 C   0  0  0  0  0  0  0  0  0  0  0  0
  186.3270  177.8530  144.5440 C   0  0  0  0  0  0  0  0  0  0  0  0
  194.1960  170.7850  142.5870 N   0  0  0  0  0  2  0  0  0  0  0  0
  195.4130  171.5120  142.4050 C   0  0  0  0  0  0  0  0  0  0  0  0
  195.3920  172.7260  142.0680 O   0  0  0  0  0  0  0  0  0  0  0  0
  196.7150  170.8280  142.6120 C   0  0  0  0  0  1  0  0  0  0  0  0
  1 16  1  0  0  0  0
  1 20  1  0  0  0  0
  2 27  2  0  0  0  0
  2 12  1  0  0  0  0
  3  4  1  0  0  0  0
  5  6  1  0  0  0  0
  5 27  1  0  0  0  0
  6 28  1  0  0  0  0
  7 19  1  6  0  0  0
  7 17  1  0  0  0  0
  8 12  1  0  0  0  0
  9 28  1  0  0  0  0
  9 26  1  1  0  0  0
 11  3  2  0  0  0  0
 12 13  2  0  0  0  0
 13 22  1  0  0  0  0
 13 11  1  0  0  0  0
 14 23  1  0  0  0  0
 14 22  2  0  0  0  0
 15  9  1  0  0  0  0
 17 10  1  1  0  0  0
 17  8  1  0  0  0  0
 18 15  1  0  0  0  0
 18  6  2  0  0  0  0
 19 16  1  0  0  0  0
 20 29  1  1  0  0  0
 20 10  1  0  0  0  0
 21  4  2  0  0  0  0
 22 21  1  0  0  0  0
 24  7  1  0  0  0  0
 24  2  1  0  0  0  0
 25  5  2  0  0  0  0
 27 14  1  0  0  0  0
 28 23  2  0  0  0  0
 30 29  1  0  0  0  0
 30 32  1  0  0  0  0
 31 30  2  0  0  0  0
M  END
>  <MODEL>
9

>  <REMARK>
 VINA RESULT:      -7.8      2.441      3.766
  Name = 
  1 active torsions:
  status: ('A' for Active; 'I' for Inactive)
    1  A    between atoms: C_20  and  N_29
                            x       y       z     vdW  Elec       q    Type
                         _______ _______ _______ _____ _____    ______ ____

>  <TORSDO>
F 1

$$$$
