=
 OpenBabel11112416263D

 30 35  0  0  1  0  0  0  0  0999 V2000
  188.0030  177.2420  145.3340 C   0  0  2  0  0  3  0  0  0  0  0  0
  185.7840  177.6830  146.5510 C   0  0  0  0  0  0  0  0  0  0  0  0
  186.1020  178.5020  141.8190 O   0  0  0  0  0  0  0  0  0  0  0  0
  188.3450  176.7150  143.9300 C   0  0  2  0  0  3  0  0  0  0  0  0
  188.2030  176.2030  146.2730 O   0  0  0  0  0  0  0  0  0  0  0  0
  189.4160  174.0730  144.8790 O   0  0  0  0  0  1  0  0  0  0  0  0
  189.2270  174.8430  141.8360 C   0  0  1  0  0  3  0  0  0  0  0  0
  190.0820  175.2880  145.0730 C   0  0  2  0  0  3  0  0  0  0  0  0
  187.9600  175.5550  141.3650 C   0  0  2  0  0  3  0  0  0  0  0  0
  186.7330  177.7000  140.8970 C   0  0  0  0  0  0  0  0  0  0  0  0
  189.5910  175.9690  146.3540 C   0  0  2  0  0  3  0  0  0  0  0  0
  189.8060  176.2440  143.9070 C   0  0  1  0  0  3  0  0  0  0  0  0
  184.4780  178.1760  146.5540 C   0  0  0  0  0  3  0  0  0  0  0  0
  187.7930  175.0460  139.9430 C   0  0  0  0  0  2  0  0  0  0  0  0
  189.7690  174.2320  140.5670 C   0  0  0  0  0  2  0  0  0  0  0  0
  186.2820  177.1440  147.7310 O   0  0  0  0  0  1  0  0  0  0  0  0
  186.8650  178.6410  143.0030 C   0  0  2  0  0  3  0  0  0  0  0  0
  183.9460  178.7700  145.4120 C   0  0  0  0  0  3  0  0  0  0  0  0
  186.5720  177.7450  145.3740 C   0  0  0  0  0  0  0  0  0  0  0  0
  188.1060  177.7390  142.8140 C   0  0  2  0  0  3  0  0  0  0  0  0
  186.2850  177.5370  139.7320 O   0  0  0  0  0  0  0  0  0  0  0  0
  188.0040  177.1100  141.3940 C   0  0  1  0  0  3  0  0  0  0  0  0
  188.6850  173.9860  139.7180 O   0  0  0  0  0  0  0  0  0  0  0  0
  191.5010  175.0710  142.6430 O   0  0  0  0  0  1  0  0  0  0  0  0
  184.7230  178.8810  144.2630 C   0  0  0  0  0  3  0  0  0  0  0  0
  186.0280  178.3740  144.2280 C   0  0  0  0  0  0  0  0  0  0  0  0
  190.2720  175.7290  142.5320 C   0  0  1  0  0  3  0  0  0  0  0  0
  189.9190  175.1130  147.5690 C   0  0  0  0  0  2  0  0  0  0  0  0
  191.5540  176.7950  148.0280 O   0  0  0  0  0  1  0  0  0  0  0  0
  191.3090  175.4240  148.0930 C   0  0  0  0  0  2  0  0  0  0  0  0
  1 19  1  6  0  0  0
  1  5  1  0  0  0  0
  2 13  1  0  0  0  0
  2 16  1  0  0  0  0
  3 17  1  0  0  0  0
  4  1  1  0  0  0  0
  5 11  1  0  0  0  0
  6  8  1  0  0  0  0
  7 27  1  0  0  0  0
  8 11  1  0  0  0  0
  9 22  1  0  0  0  0
  9  7  1  0  0  0  0
 10 22  1  0  0  0  0
 10  3  1  0  0  0  0
 11 28  1  0  0  0  0
 12  4  1  0  0  0  0
 12  8  1  0  0  0  0
 14  9  1  0  0  0  0
 15  7  1  0  0  0  0
 17 26  1  0  0  0  0
 18 13  2  0  0  0  0
 19  2  2  0  0  0  0
 20 17  1  0  0  0  0
 20  4  1  0  0  0  0
 21 10  2  0  0  0  0
 22 20  1  0  0  0  0
 23 14  1  0  0  0  0
 23 15  1  0  0  0  0
 25 18  1  0  0  0  0
 26 25  2  0  0  0  0
 26 19  1  0  0  0  0
 27 24  1  0  0  0  0
 27 12  1  0  0  0  0
 28 30  1  0  0  0  0
 29 30  1  0  0  0  0
M  END
>  <MODEL>
1

>  <REMARK>
 VINA RESULT:      -9.1      0.000      0.000
  Name = 
  2 active torsions:
  status: ('A' for Active; 'I' for Inactive)
    1  A    between atoms: C_11  and  C_28
    2  A    between atoms: C_28  and  C_30
                            x       y       z     vdW  Elec       q    Type
                         _______ _______ _______ _____ _____    ______ ____

>  <TORSDO>
F 2

$$$$
=
 OpenBabel11112416263D

 30 35  0  0  1  0  0  0  0  0999 V2000
  188.2240  176.1450  141.9000 C   0  0  2  0  0  3  0  0  0  0  0  0
  188.8540  173.7500  141.2200 C   0  0  0  0  0  0  0  0  0  0  0  0
  189.1330  175.0590  145.8440 O   0  0  0  0  0  0  0  0  0  0  0  0
  187.5340  176.7380  143.1410 C   0  0  2  0  0  3  0  0  0  0  0  0
  187.2910  176.1010  140.8380 O   0  0  0  0  0  0  0  0  0  0  0  0
  184.9880  177.4660  141.7220 O   0  0  0  0  0  1  0  0  0  0  0  0
  185.4180  177.9350  144.8020 C   0  0  1  0  0  3  0  0  0  0  0  0
  186.1990  178.1370  141.5210 C   0  0  2  0  0  3  0  0  0  0  0  0
  186.1060  176.8260  145.5950 C   0  0  2  0  0  3  0  0  0  0  0  0
  188.2170  175.8240  146.5270 C   0  0  0  0  0  0  0  0  0  0  0  0
  187.0300  177.4300  140.4480 C   0  0  2  0  0  3  0  0  0  0  0  0
  187.0260  178.1500  142.8120 C   0  0  1  0  0  3  0  0  0  0  0  0
  189.3790  172.4960  141.5390 C   0  0  0  0  0  3  0  0  0  0  0  0
  185.4460  176.9260  146.9610 C   0  0  0  0  0  2  0  0  0  0  0  0
  184.6560  178.6930  145.8600 C   0  0  0  0  0  2  0  0  0  0  0  0
  188.4380  173.9710  139.9130 O   0  0  0  0  0  1  0  0  0  0  0  0
  189.3830  175.5720  144.5480 C   0  0  2  0  0  3  0  0  0  0  0  0
  189.8560  172.2350  142.8210 C   0  0  0  0  0  3  0  0  0  0  0  0
  188.7650  174.7610  142.2090 C   0  0  0  0  0  0  0  0  0  0  0  0
  188.4330  176.7810  144.3820 C   0  0  2  0  0  3  0  0  0  0  0  0
  187.9370  175.6150  147.7360 O   0  0  0  0  0  0  0  0  0  0  0  0
  187.6530  176.9380  145.7190 C   0  0  1  0  0  3  0  0  0  0  0  0
  184.3450  177.7930  146.8850 O   0  0  0  0  0  0  0  0  0  0  0  0
  185.6760  180.0060  143.5700 O   0  0  0  0  0  1  0  0  0  0  0  0
  189.8180  173.2340  143.7900 C   0  0  0  0  0  3  0  0  0  0  0  0
  189.2760  174.4930  143.5010 C   0  0  0  0  0  0  0  0  0  0  0  0
  186.3490  178.8590  144.0000 C   0  0  1  0  0  3  0  0  0  0  0  0
  186.3080  177.4630  139.1090 C   0  0  0  0  0  2  0  0  0  0  0  0
  185.8540  176.0380  137.2450 O   0  0  0  0  0  1  0  0  0  0  0  0
  186.8280  176.3790  138.1830 C   0  0  0  0  0  2  0  0  0  0  0  0
  1  5  1  6  0  0  0
  1 19  1  0  0  0  0
  1  4  1  0  0  0  0
  2 13  2  0  0  0  0
  2 19  1  0  0  0  0
  3 10  1  0  0  0  0
  4 20  1  0  0  0  0
  7  9  1  0  0  0  0
  7 15  1  0  0  0  0
  8  6  1  0  0  0  0
  8 12  1  0  0  0  0
  9 22  1  0  0  0  0
  9 14  1  0  0  0  0
 10 21  2  0  0  0  0
 11  5  1  0  0  0  0
 11  8  1  0  0  0  0
 12  4  1  0  0  0  0
 12 27  1  0  0  0  0
 13 18  1  0  0  0  0
 15 23  1  0  0  0  0
 16  2  1  0  0  0  0
 17  3  1  0  0  0  0
 18 25  2  0  0  0  0
 19 26  2  0  0  0  0
 20 17  1  0  0  0  0
 20 22  1  0  0  0  0
 22 10  1  0  0  0  0
 23 14  1  0  0  0  0
 24 27  1  0  0  0  0
 26 25  1  0  0  0  0
 26 17  1  0  0  0  0
 27  7  1  0  0  0  0
 28 11  1  0  0  0  0
 29 30  1  0  0  0  0
 30 28  1  0  0  0  0
M  END
>  <MODEL>
2

>  <REMARK>
 VINA RESULT:      -8.6      1.689      7.034
  Name = 
  2 active torsions:
  status: ('A' for Active; 'I' for Inactive)
    1  A    between atoms: C_11  and  C_28
    2  A    between atoms: C_28  and  C_30
                            x       y       z     vdW  Elec       q    Type
                         _______ _______ _______ _____ _____    ______ ____

>  <TORSDO>
F 2

$$$$
=
 OpenBabel11112416263D

 30 35  0  0  1  0  0  0  0  0999 V2000
  186.5610  176.7760  143.9460 C   0  0  2  0  0  3  0  0  0  0  0  0
  184.9820  178.3230  145.2530 C   0  0  0  0  0  0  0  0  0  0  0  0
  188.6500  176.1970  147.5310 O   0  0  0  0  0  0  0  0  0  0  0  0
  188.0720  176.5010  144.0310 C   0  0  2  0  0  3  0  0  0  0  0  0
  186.3120  177.6160  142.8350 O   0  0  0  0  0  0  0  0  0  0  0  0
  188.7450  177.8460  141.4290 O   0  0  0  0  0  1  0  0  0  0  0  0
  190.9250  176.5790  143.3090 C   0  0  1  0  0  3  0  0  0  0  0  0
  188.0660  176.6260  141.5110 C   0  0  2  0  0  3  0  0  0  0  0  0
  190.7860  176.8150  144.8110 C   0  0  2  0  0  3  0  0  0  0  0  0
  189.9300  176.0520  147.0490 C   0  0  0  0  0  0  0  0  0  0  0  0
  186.5610  176.8610  141.6700 C   0  0  2  0  0  3  0  0  0  0  0  0
  188.5390  175.8280  142.7320 C   0  0  1  0  0  3  0  0  0  0  0  0
  184.5430  178.8710  146.4610 C   0  0  0  0  0  3  0  0  0  0  0  0
  192.2310  176.8670  145.2810 C   0  0  0  0  0  2  0  0  0  0  0  0
  192.3920  176.2640  143.1440 C   0  0  0  0  0  2  0  0  0  0  0  0
  184.3190  178.6920  144.0900 O   0  0  0  0  0  1  0  0  0  0  0  0
  187.6810  175.9270  146.5360 C   0  0  2  0  0  3  0  0  0  0  0  0
  185.1410  178.5000  147.6620 C   0  0  0  0  0  3  0  0  0  0  0  0
  186.0670  177.4120  145.2320 C   0  0  0  0  0  0  0  0  0  0  0  0
  188.4750  175.6470  145.2380 C   0  0  2  0  0  3  0  0  0  0  0  0
  190.9410  176.1310  147.7950 O   0  0  0  0  0  0  0  0  0  0  0  0
  189.9860  175.7370  145.5970 C   0  0  1  0  0  3  0  0  0  0  0  0
  193.0840  176.9200  144.1680 O   0  0  0  0  0  0  0  0  0  0  0  0
  190.4500  175.1190  141.4320 O   0  0  0  0  0  1  0  0  0  0  0  0
  186.1780  177.5700  147.6620 C   0  0  0  0  0  3  0  0  0  0  0  0
  186.6500  177.0240  146.4620 C   0  0  0  0  0  0  0  0  0  0  0  0
  190.0380  175.4700  142.7210 C   0  0  1  0  0  3  0  0  0  0  0  0
  186.0020  177.5690  140.4440 C   0  0  0  0  0  2  0  0  0  0  0  0
  183.6720  177.9770  140.1040 O   0  0  0  0  0  1  0  0  0  0  0  0
  184.7940  178.4130  140.8070 C   0  0  0  0  0  2  0  0  0  0  0  0
  1  5  1  6  0  0  0
  1  4  1  0  0  0  0
  1 19  1  0  0  0  0
  2 13  1  0  0  0  0
  4 20  1  0  0  0  0
  6  8  1  0  0  0  0
  7  9  1  0  0  0  0
  8 11  1  0  0  0  0
  8 12  1  0  0  0  0
  9 14  1  0  0  0  0
  9 22  1  0  0  0  0
 10  3  1  0  0  0  0
 10 21  2  0  0  0  0
 11  5  1  0  0  0  0
 12  4  1  0  0  0  0
 13 18  2  0  0  0  0
 15  7  1  0  0  0  0
 15 23  1  0  0  0  0
 16  2  1  0  0  0  0
 17  3  1  0  0  0  0
 18 25  1  0  0  0  0
 19  2  2  0  0  0  0
 19 26  1  0  0  0  0
 20 22  1  0  0  0  0
 20 17  1  0  0  0  0
 22 10  1  0  0  0  0
 23 14  1  0  0  0  0
 24 27  1  0  0  0  0
 26 17  1  0  0  0  0
 26 25  2  0  0  0  0
 27 12  1  0  0  0  0
 27  7  1  0  0  0  0
 28 30  1  0  0  0  0
 28 11  1  0  0  0  0
 29 30  1  0  0  0  0
M  END
>  <MODEL>
3

>  <REMARK>
 VINA RESULT:      -8.6      1.634      5.306
  Name = 
  2 active torsions:
  status: ('A' for Active; 'I' for Inactive)
    1  A    between atoms: C_11  and  C_28
    2  A    between atoms: C_28  and  C_30
                            x       y       z     vdW  Elec       q    Type
                         _______ _______ _______ _____ _____    ______ ____

>  <TORSDO>
F 2

$$$$
=
 OpenBabel11112416263D

 30 35  0  0  1  0  0  0  0  0999 V2000
  187.8090  175.6350  143.0520 C   0  0  2  0  0  3  0  0  0  0  0  0
  186.3800  177.6910  142.4830 C   0  0  0  0  0  0  0  0  0  0  0  0
  188.4690  177.3720  146.8070 O   0  0  0  0  0  0  0  0  0  0  0  0
  189.0910  175.4420  143.8800 C   0  0  2  0  0  3  0  0  0  0  0  0
  188.1440  175.6050  141.6780 O   0  0  0  0  0  0  0  0  0  0  0  0
  190.8590  174.8600  141.5220 O   0  0  0  0  0  1  0  0  0  0  0  0
  191.9400  174.9940  144.4720 C   0  0  1  0  0  3  0  0  0  0  0  0
  189.8870  173.9700  141.9920 C   0  0  2  0  0  3  0  0  0  0  0  0
  191.4170  176.1180  145.3640 C   0  0  2  0  0  3  0  0  0  0  0  0
  189.7480  176.9320  147.0600 C   0  0  0  0  0  0  0  0  0  0  0  0
  188.5260  174.2840  141.3650 C   0  0  2  0  0  3  0  0  0  0  0  0
  189.7350  174.0970  143.5120 C   0  0  1  0  0  3  0  0  0  0  0  0
  185.7560  178.8800  142.8670 C   0  0  0  0  0  3  0  0  0  0  0  0
  192.6080  176.4220  146.2590 C   0  0  0  0  0  2  0  0  0  0  0  0
  193.2470  174.6170  145.1250 C   0  0  0  0  0  2  0  0  0  0  0  0
  186.2270  177.2680  141.1690 O   0  0  0  0  0  1  0  0  0  0  0  0
  187.8150  176.5610  145.8500 C   0  0  2  0  0  3  0  0  0  0  0  0
  185.8370  179.3270  144.1840 C   0  0  0  0  0  3  0  0  0  0  0  0
  187.1350  176.9430  143.4210 C   0  0  0  0  0  0  0  0  0  0  0  0
  188.8630  175.5180  145.3940 C   0  0  2  0  0  3  0  0  0  0  0  0
  190.4650  177.4390  147.9620 O   0  0  0  0  0  0  0  0  0  0  0  0
  190.1580  175.7810  146.2140 C   0  0  1  0  0  3  0  0  0  0  0  0
  193.7420  175.7530  145.7730 O   0  0  0  0  0  0  0  0  0  0  0  0
  191.6890  172.6940  143.7490 O   0  0  0  0  0  1  0  0  0  0  0  0
  186.5360  178.5780  145.1270 C   0  0  0  0  0  3  0  0  0  0  0  0
  187.1880  177.3940  144.7610 C   0  0  0  0  0  0  0  0  0  0  0  0
  191.0120  173.7800  144.3130 C   0  0  1  0  0  3  0  0  0  0  0  0
  188.5790  174.0860  139.8570 C   0  0  0  0  0  2  0  0  0  0  0  0
  189.3230  171.9470  139.0920 O   0  0  0  0  0  1  0  0  0  0  0  0
  188.1930  172.6670  139.4810 C   0  0  0  0  0  2  0  0  0  0  0  0
  1  5  1  6  0  0  0
  1 19  1  0  0  0  0
  1  4  1  0  0  0  0
  2 13  2  0  0  0  0
  2 19  1  0  0  0  0
  3 10  1  0  0  0  0
  4 20  1  0  0  0  0
  6  8  1  0  0  0  0
  7 15  1  0  0  0  0
  7  9  1  0  0  0  0
  8 12  1  0  0  0  0
  9 22  1  0  0  0  0
  9 14  1  0  0  0  0
 10 21  2  0  0  0  0
 11  5  1  0  0  0  0
 11  8  1  0  0  0  0
 12  4  1  0  0  0  0
 12 27  1  0  0  0  0
 13 18  1  0  0  0  0
 15 23  1  0  0  0  0
 16  2  1  0  0  0  0
 17  3  1  0  0  0  0
 18 25  2  0  0  0  0
 19 26  2  0  0  0  0
 20 17  1  0  0  0  0
 20 22  1  0  0  0  0
 22 10  1  0  0  0  0
 23 14  1  0  0  0  0
 24 27  1  0  0  0  0
 26 25  1  0  0  0  0
 26 17  1  0  0  0  0
 27  7  1  0  0  0  0
 28 11  1  0  0  0  0
 29 30  1  0  0  0  0
 30 28  1  0  0  0  0
M  END
>  <MODEL>
4

>  <REMARK>
 VINA RESULT:      -8.1      1.745      5.432
  Name = 
  2 active torsions:
  status: ('A' for Active; 'I' for Inactive)
    1  A    between atoms: C_11  and  C_28
    2  A    between atoms: C_28  and  C_30
                            x       y       z     vdW  Elec       q    Type
                         _______ _______ _______ _____ _____    ______ ____

>  <TORSDO>
F 2

$$$$
=
 OpenBabel11112416263D

 30 35  0  0  1  0  0  0  0  0999 V2000
  188.9980  174.9590  143.4390 C   0  0  2  0  0  3  0  0  0  0  0  0
  187.3100  176.8230  142.9180 C   0  0  0  0  0  0  0  0  0  0  0  0
  189.4220  176.6700  147.2410 O   0  0  0  0  0  0  0  0  0  0  0  0
  190.2940  174.9150  144.2670 C   0  0  2  0  0  3  0  0  0  0  0  0
  189.3350  175.0080  142.0670 O   0  0  0  0  0  0  0  0  0  0  0  0
  192.1250  174.6320  141.9010 O   0  0  0  0  0  1  0  0  0  0  0  0
  193.1770  174.8320  144.8580 C   0  0  1  0  0  3  0  0  0  0  0  0
  191.2790  173.6110  142.3460 C   0  0  2  0  0  3  0  0  0  0  0  0
  192.5100  175.8530  145.7770 C   0  0  2  0  0  3  0  0  0  0  0  0
  190.7480  176.3970  147.4870 C   0  0  0  0  0  0  0  0  0  0  0  0
  189.8880  173.7590  141.7210 C   0  0  2  0  0  3  0  0  0  0  0  0
  191.1100  173.6770  143.8680 C   0  0  1  0  0  3  0  0  0  0  0  0
  186.5350  177.9090  143.3300 C   0  0  0  0  0  3  0  0  0  0  0  0
  193.6500  176.2890  146.6840 C   0  0  0  0  0  2  0  0  0  0  0  0
  194.5230  174.6140  145.5060 C   0  0  0  0  0  2  0  0  0  0  0  0
  187.2150  176.4170  141.5930 O   0  0  0  0  0  1  0  0  0  0  0  0
  188.8820  175.8050  146.2600 C   0  0  2  0  0  3  0  0  0  0  0  0
  186.5560  178.3270  144.6580 C   0  0  0  0  0  3  0  0  0  0  0  0
  188.1570  176.1570  143.8390 C   0  0  0  0  0  0  0  0  0  0  0  0
  190.0570  174.9210  145.7820 C   0  0  2  0  0  3  0  0  0  0  0  0
  191.3910  176.9700  148.4040 O   0  0  0  0  0  0  0  0  0  0  0  0
  191.3070  175.3320  146.6130 C   0  0  1  0  0  3  0  0  0  0  0  0
  194.8630  175.7880  146.1850 O   0  0  0  0  0  0  0  0  0  0  0  0
  193.2330  172.5390  144.0760 O   0  0  0  0  0  1  0  0  0  0  0  0
  187.3470  177.6540  145.5840 C   0  0  0  0  0  3  0  0  0  0  0  0
  188.1500  176.5750  145.1910 C   0  0  0  0  0  0  0  0  0  0  0  0
  192.4180  173.5110  144.6650 C   0  0  1  0  0  3  0  0  0  0  0  0
  189.9670  173.6080  140.2090 C   0  0  0  0  0  2  0  0  0  0  0  0
  187.9700  172.5950  139.3730 O   0  0  0  0  0  1  0  0  0  0  0  0
  188.6070  173.8200  139.5700 C   0  0  0  0  0  2  0  0  0  0  0  0
  1  5  1  6  0  0  0
  1 19  1  0  0  0  0
  1  4  1  0  0  0  0
  2 13  2  0  0  0  0
  2 19  1  0  0  0  0
  3 10  1  0  0  0  0
  4 20  1  0  0  0  0
  6  8  1  0  0  0  0
  7 15  1  0  0  0  0
  7  9  1  0  0  0  0
  8 12  1  0  0  0  0
  9 22  1  0  0  0  0
  9 14  1  0  0  0  0
 10 21  2  0  0  0  0
 11  5  1  0  0  0  0
 11  8  1  0  0  0  0
 12  4  1  0  0  0  0
 12 27  1  0  0  0  0
 13 18  1  0  0  0  0
 15 23  1  0  0  0  0
 16  2  1  0  0  0  0
 17  3  1  0  0  0  0
 18 25  2  0  0  0  0
 19 26  2  0  0  0  0
 20 17  1  0  0  0  0
 20 22  1  0  0  0  0
 22 10  1  0  0  0  0
 23 14  1  0  0  0  0
 24 27  1  0  0  0  0
 26 25  1  0  0  0  0
 26 17  1  0  0  0  0
 27  7  1  0  0  0  0
 28 11  1  0  0  0  0
 29 30  1  0  0  0  0
 30 28  1  0  0  0  0
M  END
>  <MODEL>
5

>  <REMARK>
 VINA RESULT:      -8.0      2.023      5.893
  Name = 
  2 active torsions:
  status: ('A' for Active; 'I' for Inactive)
    1  A    between atoms: C_11  and  C_28
    2  A    between atoms: C_28  and  C_30
                            x       y       z     vdW  Elec       q    Type
                         _______ _______ _______ _____ _____    ______ ____

>  <TORSDO>
F 2

$$$$
=
 OpenBabel11112416263D

 30 35  0  0  1  0  0  0  0  0999 V2000
  186.9560  177.9940  144.0150 C   0  0  2  0  0  3  0  0  0  0  0  0
  184.5480  178.5900  143.3510 C   0  0  0  0  0  0  0  0  0  0  0  0
  187.3800  176.2940  140.2080 O   0  0  0  0  0  0  0  0  0  0  0  0
  187.8670  176.7950  143.7000 C   0  0  2  0  0  3  0  0  0  0  0  0
  186.4590  177.8560  145.3320 O   0  0  0  0  0  0  0  0  0  0  0  0
  187.8100  175.6660  146.4840 O   0  0  0  0  0  1  0  0  0  0  0  0
  189.3440  174.2820  144.1130 C   0  0  1  0  0  3  0  0  0  0  0  0
  188.4880  176.8410  146.1440 C   0  0  2  0  0  3  0  0  0  0  0  0
  188.6480  174.2320  142.7550 C   0  0  2  0  0  3  0  0  0  0  0  0
  188.2380  175.2580  140.4960 C   0  0  0  0  0  0  0  0  0  0  0  0
  187.5420  178.0440  146.2140 C   0  0  2  0  0  3  0  0  0  0  0  0
  189.0230  176.7580  144.7100 C   0  0  1  0  0  3  0  0  0  0  0  0
  183.5360  178.6660  142.3910 C   0  0  0  0  0  3  0  0  0  0  0  0
  189.1430  172.9200  142.1670 C   0  0  0  0  0  2  0  0  0  0  0  0
  190.3400  173.1510  144.0300 C   0  0  0  0  0  2  0  0  0  0  0  0
  184.2660  179.0430  144.6330 O   0  0  0  0  0  1  0  0  0  0  0  0
  187.4400  177.3130  141.1890 C   0  0  2  0  0  3  0  0  0  0  0  0
  183.7780  178.2700  141.0780 C   0  0  0  0  0  3  0  0  0  0  0  0
  185.8220  178.0730  143.0090 C   0  0  0  0  0  0  0  0  0  0  0  0
  188.4200  176.8010  142.2700 C   0  0  2  0  0  3  0  0  0  0  0  0
  188.4280  174.3040  139.6980 O   0  0  0  0  0  0  0  0  0  0  0  0
  188.9470  175.4170  141.7930 C   0  0  1  0  0  3  0  0  0  0  0  0
  189.8190  172.1900  143.1570 O   0  0  0  0  0  0  0  0  0  0  0  0
  190.8840  175.4700  145.5600 O   0  0  0  0  0  1  0  0  0  0  0  0
  185.0390  177.8040  140.7160 C   0  0  0  0  0  3  0  0  0  0  0  0
  186.0630  177.6970  141.6660 C   0  0  0  0  0  0  0  0  0  0  0  0
  190.0250  175.6130  144.4660 C   0  0  1  0  0  3  0  0  0  0  0  0
  187.0440  178.2450  147.6380 C   0  0  0  0  0  2  0  0  0  0  0  0
  184.6960  178.6660  147.7830 O   0  0  0  0  0  1  0  0  0  0  0  0
  185.9410  179.2860  147.6860 C   0  0  0  0  0  2  0  0  0  0  0  0
  1 19  1  6  0  0  0
  1  5  1  0  0  0  0
  2 16  1  0  0  0  0
  3 10  1  0  0  0  0
  3 17  1  0  0  0  0
  4  1  1  0  0  0  0
  4 12  1  0  0  0  0
  5 11  1  0  0  0  0
  7 27  1  0  0  0  0
  8 11  1  0  0  0  0
  8  6  1  0  0  0  0
  9  7  1  0  0  0  0
 10 22  1  0  0  0  0
 11 28  1  0  0  0  0
 12  8  1  0  0  0  0
 13  2  2  0  0  0  0
 14  9  1  0  0  0  0
 14 23  1  0  0  0  0
 15  7  1  0  0  0  0
 17 26  1  0  0  0  0
 17 20  1  0  0  0  0
 18 13  1  0  0  0  0
 19  2  1  0  0  0  0
 20  4  1  0  0  0  0
 21 10  2  0  0  0  0
 22 20  1  0  0  0  0
 22  9  1  0  0  0  0
 23 15  1  0  0  0  0
 25 18  2  0  0  0  0
 25 26  1  0  0  0  0
 26 19  2  0  0  0  0
 27 12  1  0  0  0  0
 27 24  1  0  0  0  0
 28 30  1  0  0  0  0
 30 29  1  0  0  0  0
M  END
>  <MODEL>
6

>  <REMARK>
 VINA RESULT:      -7.9      1.756      3.406
  Name = 
  2 active torsions:
  status: ('A' for Active; 'I' for Inactive)
    1  A    between atoms: C_11  and  C_28
    2  A    between atoms: C_28  and  C_30
                            x       y       z     vdW  Elec       q    Type
                         _______ _______ _______ _____ _____    ______ ____

>  <TORSDO>
F 2

$$$$
=
 OpenBabel11112416263D

 30 35  0  0  1  0  0  0  0  0999 V2000
  188.6250  177.5230  144.8500 C   0  0  2  0  0  3  0  0  0  0  0  0
  186.1910  178.3050  145.0930 C   0  0  0  0  0  0  0  0  0  0  0  0
  187.5470  175.9620  141.1140 O   0  0  0  0  0  0  0  0  0  0  0  0
  189.2710  176.2800  144.2130 C   0  0  2  0  0  3  0  0  0  0  0  0
  188.6150  177.3620  146.2550 O   0  0  0  0  0  0  0  0  0  0  0  0
  190.1130  175.0400  146.8170 O   0  0  0  0  0  1  0  0  0  0  0  0
  190.6010  173.6600  144.0340 C   0  0  1  0  0  3  0  0  0  0  0  0
  190.7160  176.1820  146.2790 C   0  0  2  0  0  3  0  0  0  0  0  0
  189.4680  173.7140  143.0110 C   0  0  2  0  0  3  0  0  0  0  0  0
  188.3690  174.8600  141.0610 C   0  0  0  0  0  0  0  0  0  0  0  0
  189.9510  177.4400  146.6990 C   0  0  2  0  0  3  0  0  0  0  0  0
  190.7030  176.1240  144.7470 C   0  0  1  0  0  3  0  0  0  0  0  0
  184.9150  178.4880  144.5560 C   0  0  0  0  0  3  0  0  0  0  0  0
  189.6220  172.3980  142.2650 C   0  0  0  0  0  2  0  0  0  0  0  0
  191.4130  172.4690  143.5860 C   0  0  0  0  0  2  0  0  0  0  0  0
  186.4150  178.7200  146.4000 O   0  0  0  0  0  1  0  0  0  0  0  0
  188.0280  176.9320  142.0250 C   0  0  2  0  0  3  0  0  0  0  0  0
  184.6470  178.1340  143.2360 C   0  0  0  0  0  3  0  0  0  0  0  0
  187.2190  177.7190  144.3140 C   0  0  0  0  0  0  0  0  0  0  0  0
  189.2830  176.3100  142.6800 C   0  0  2  0  0  3  0  0  0  0  0  0
  188.1920  173.9300  140.2320 O   0  0  0  0  0  0  0  0  0  0  0  0
  189.5000  174.9160  142.0250 C   0  0  1  0  0  3  0  0  0  0  0  0
  190.5450  171.5830  142.9390 O   0  0  0  0  0  0  0  0  0  0  0  0
  192.6380  174.6800  144.8600 O   0  0  0  0  0  1  0  0  0  0  0  0
  185.6600  177.6010  142.4430 C   0  0  0  0  0  3  0  0  0  0  0  0
  186.9420  177.3860  142.9660 C   0  0  0  0  0  0  0  0  0  0  0  0
  191.4630  174.9270  144.1440 C   0  0  1  0  0  3  0  0  0  0  0  0
  190.0040  177.6130  148.2100 C   0  0  0  0  0  2  0  0  0  0  0  0
  191.5660  178.2900  149.8870 O   0  0  0  0  0  1  0  0  0  0  0  0
  191.4330  177.5450  148.7150 C   0  0  0  0  0  2  0  0  0  0  0  0
  1 19  1  6  0  0  0
  1  5  1  0  0  0  0
  2 16  1  0  0  0  0
  3 17  1  0  0  0  0
  4 12  1  0  0  0  0
  4  1  1  0  0  0  0
  5 11  1  0  0  0  0
  7 27  1  0  0  0  0
  8 11  1  0  0  0  0
  8  6  1  0  0  0  0
  9  7  1  0  0  0  0
 10  3  1  0  0  0  0
 10 22  1  0  0  0  0
 11 28  1  0  0  0  0
 12  8  1  0  0  0  0
 13  2  1  0  0  0  0
 14 23  1  0  0  0  0
 14  9  1  0  0  0  0
 15  7  1  0  0  0  0
 17 20  1  0  0  0  0
 17 26  1  0  0  0  0
 18 13  2  0  0  0  0
 19  2  2  0  0  0  0
 20  4  1  0  0  0  0
 21 10  2  0  0  0  0
 22 20  1  0  0  0  0
 22  9  1  0  0  0  0
 23 15  1  0  0  0  0
 25 26  2  0  0  0  0
 25 18  1  0  0  0  0
 26 19  1  0  0  0  0
 27 12  1  0  0  0  0
 27 24  1  0  0  0  0
 28 30  1  0  0  0  0
 30 29  1  0  0  0  0
M  END
>  <MODEL>
7

>  <REMARK>
 VINA RESULT:      -7.7      1.796      2.521
  Name = 
  2 active torsions:
  status: ('A' for Active; 'I' for Inactive)
    1  A    between atoms: C_11  and  C_28
    2  A    between atoms: C_28  and  C_30
                            x       y       z     vdW  Elec       q    Type
                         _______ _______ _______ _____ _____    ______ ____

>  <TORSDO>
F 2

$$$$
=
 OpenBabel11112416263D

 30 35  0  0  1  0  0  0  0  0999 V2000
  187.7040  175.7350  143.1180 C   0  0  2  0  0  3  0  0  0  0  0  0
  186.4100  177.1650  141.4230 C   0  0  0  0  0  0  0  0  0  0  0  0
  185.7460  177.8840  146.1350 O   0  0  0  0  0  0  0  0  0  0  0  0
  188.3110  176.0340  144.5000 C   0  0  2  0  0  3  0  0  0  0  0  0
  188.7430  175.7060  142.1590 O   0  0  0  0  0  0  0  0  0  0  0  0
  191.1690  175.8710  143.5860 O   0  0  0  0  0  1  0  0  0  0  0  0
  190.3600  176.5820  146.5410 C   0  0  1  0  0  3  0  0  0  0  0  0
  190.3330  174.7550  143.7000 C   0  0  2  0  0  3  0  0  0  0  0  0
  189.1900  177.5420  146.7410 C   0  0  2  0  0  3  0  0  0  0  0  0
  186.7270  177.9040  147.0990 C   0  0  0  0  0  0  0  0  0  0  0  0
  189.5230  174.5600  142.4150 C   0  0  2  0  0  3  0  0  0  0  0  0
  189.3360  174.9450  144.8490 C   0  0  1  0  0  3  0  0  0  0  0  0
  185.4270  178.1150  141.1350 C   0  0  0  0  0  3  0  0  0  0  0  0
  189.5740  178.2860  148.0100 C   0  0  0  0  0  2  0  0  0  0  0  0
  191.1280  176.7010  147.8350 C   0  0  0  0  0  2  0  0  0  0  0  0
  187.1150  176.6130  140.3610 O   0  0  0  0  0  1  0  0  0  0  0  0
  185.9410  176.8310  145.2100 C   0  0  2  0  0  3  0  0  0  0  0  0
  184.6570  178.6660  142.1560 C   0  0  0  0  0  3  0  0  0  0  0  0
  186.6620  176.7790  142.7630 C   0  0  0  0  0  0  0  0  0  0  0  0
  187.2690  176.1520  145.6170 C   0  0  2  0  0  3  0  0  0  0  0  0
  186.6830  178.6850  148.0850 O   0  0  0  0  0  0  0  0  0  0  0  0
  187.7880  176.8850  146.8880 C   0  0  1  0  0  3  0  0  0  0  0  0
  190.9030  177.9840  148.3450 O   0  0  0  0  0  0  0  0  0  0  0  0
  191.0860  174.2750  146.3770 O   0  0  0  0  0  1  0  0  0  0  0  0
  184.8610  178.2610  143.4720 C   0  0  0  0  0  3  0  0  0  0  0  0
  185.8560  177.3270  143.7890 C   0  0  0  0  0  0  0  0  0  0  0  0
  189.9840  175.1240  146.2360 C   0  0  1  0  0  3  0  0  0  0  0  0
  190.4500  174.2710  141.2430 C   0  0  0  0  0  2  0  0  0  0  0  0
  188.6600  172.7790  140.7100 O   0  0  0  0  0  1  0  0  0  0  0  0
  189.7290  173.4860  140.1620 C   0  0  0  0  0  2  0  0  0  0  0  0
  1  5  1  6  0  0  0
  1  4  1  0  0  0  0
  2 19  1  0  0  0  0
  3 10  1  0  0  0  0
  4 12  1  0  0  0  0
  4 20  1  0  0  0  0
  5 11  1  0  0  0  0
  6  8  1  0  0  0  0
  7  9  1  0  0  0  0
  7 15  1  0  0  0  0
  8 12  1  0  0  0  0
  9 22  1  0  0  0  0
  9 14  1  0  0  0  0
 10 21  2  0  0  0  0
 11  8  1  0  0  0  0
 12 27  1  0  0  0  0
 13  2  2  0  0  0  0
 13 18  1  0  0  0  0
 14 23  1  0  0  0  0
 15 23  1  0  0  0  0
 16  2  1  0  0  0  0
 17 20  1  0  0  0  0
 17  3  1  0  0  0  0
 18 25  2  0  0  0  0
 19  1  1  0  0  0  0
 19 26  2  0  0  0  0
 20 22  1  0  0  0  0
 22 10  1  0  0  0  0
 25 26  1  0  0  0  0
 26 17  1  0  0  0  0
 27 24  1  0  0  0  0
 27  7  1  0  0  0  0
 28 11  1  0  0  0  0
 30 29  1  0  0  0  0
 30 28  1  0  0  0  0
M  END
>  <MODEL>
8

>  <REMARK>
 VINA RESULT:      -7.7      1.621      5.422
  Name = 
  2 active torsions:
  status: ('A' for Active; 'I' for Inactive)
    1  A    between atoms: C_11  and  C_28
    2  A    between atoms: C_28  and  C_30
                            x       y       z     vdW  Elec       q    Type
                         _______ _______ _______ _____ _____    ______ ____

>  <TORSDO>
F 2

$$$$
=
 OpenBabel11112416263D

 30 35  0  0  1  0  0  0  0  0999 V2000
  190.7590  174.7080  142.6620 C   0  0  2  0  0  3  0  0  0  0  0  0
  192.4270  172.9970  143.6030 C   0  0  0  0  0  0  0  0  0  0  0  0
  191.2010  176.8240  146.2520 O   0  0  0  0  0  0  0  0  0  0  0  0
  189.6510  175.5600  143.3060 C   0  0  2  0  0  3  0  0  0  0  0  0
  190.1620  173.6170  141.9890 O   0  0  0  0  0  0  0  0  0  0  0  0
  187.3770  174.0480  142.0530 O   0  0  0  0  0  1  0  0  0  0  0  0
  186.9420  176.4410  144.0470 C   0  0  1  0  0  3  0  0  0  0  0  0
  188.2270  174.8950  141.3330 C   0  0  2  0  0  3  0  0  0  0  0  0
  187.8400  176.5040  145.2800 C   0  0  2  0  0  3  0  0  0  0  0  0
  189.9350  177.3450  146.3880 C   0  0  0  0  0  0  0  0  0  0  0  0
  189.4740  174.1340  140.8730 C   0  0  2  0  0  3  0  0  0  0  0  0
  188.6960  176.0590  142.2120 C   0  0  1  0  0  3  0  0  0  0  0  0
  193.3350  172.6010  144.5870 C   0  0  0  0  0  3  0  0  0  0  0  0
  186.9310  177.1220  146.3300 C   0  0  0  0  0  2  0  0  0  0  0  0
  185.7390  177.2560  144.4550 C   0  0  0  0  0  2  0  0  0  0  0  0
  192.2330  172.1540  142.5150 O   0  0  0  0  0  1  0  0  0  0  0  0
  191.4820  176.4710  144.9110 C   0  0  2  0  0  3  0  0  0  0  0  0
  193.6030  173.4280  145.6750 C   0  0  0  0  0  3  0  0  0  0  0  0
  191.7370  174.2290  143.7190 C   0  0  0  0  0  0  0  0  0  0  0  0
  190.1810  176.7460  144.1200 C   0  0  2  0  0  3  0  0  0  0  0  0
  189.5220  177.8300  147.4730 O   0  0  0  0  0  0  0  0  0  0  0  0
  189.1490  177.3310  145.1260 C   0  0  1  0  0  3  0  0  0  0  0  0
  185.6140  177.1620  145.8450 O   0  0  0  0  0  0  0  0  0  0  0  0
  186.5880  177.1520  141.7570 O   0  0  0  0  0  1  0  0  0  0  0  0
  192.9680  174.6630  145.7780 C   0  0  0  0  0  3  0  0  0  0  0  0
  192.0360  175.0730  144.8160 C   0  0  0  0  0  0  0  0  0  0  0  0
  187.5630  176.9600  142.7400 C   0  0  1  0  0  3  0  0  0  0  0  0
  189.0900  173.0150  139.9160 C   0  0  0  0  0  2  0  0  0  0  0  0
  189.2450  174.1050  137.7950 O   0  0  0  0  0  1  0  0  0  0  0  0
  188.3460  173.5610  138.7110 C   0  0  0  0  0  2  0  0  0  0  0  0
  1  5  1  1  0  0  0
  1  4  1  0  0  0  0
  1 19  1  0  0  0  0
  2 19  2  0  0  0  0
  2 13  1  0  0  0  0
  3 10  1  0  0  0  0
  4 20  1  0  0  0  0
  7 15  1  0  0  0  0
  7  9  1  0  0  0  0
  8  6  1  0  0  0  0
  8 12  1  0  0  0  0
  9 14  1  0  0  0  0
 10 21  2  0  0  0  0
 11  8  1  0  0  0  0
 11  5  1  0  0  0  0
 12 27  1  0  0  0  0
 12  4  1  0  0  0  0
 13 18  2  0  0  0  0
 15 23  1  0  0  0  0
 16  2  1  0  0  0  0
 17  3  1  0  0  0  0
 18 25  1  0  0  0  0
 19 26  1  0  0  0  0
 20 17  1  0  0  0  0
 20 22  1  0  0  0  0
 22  9  1  0  0  0  0
 22 10  1  0  0  0  0
 23 14  1  0  0  0  0
 24 27  1  0  0  0  0
 26 17  1  0  0  0  0
 26 25  2  0  0  0  0
 27  7  1  0  0  0  0
 28 11  1  0  0  0  0
 29 30  1  0  0  0  0
 30 28  1  0  0  0  0
M  END
>  <MODEL>
9

>  <REMARK>
 VINA RESULT:      -7.6      2.066      6.828
  Name = 
  2 active torsions:
  status: ('A' for Active; 'I' for Inactive)
    1  A    between atoms: C_11  and  C_28
    2  A    between atoms: C_28  and  C_30
                            x       y       z     vdW  Elec       q    Type
                         _______ _______ _______ _____ _____    ______ ____

>  <TORSDO>
F 2

$$$$
