=
 OpenBabel11112416143D

 30 35  0  0  1  0  0  0  0  0999 V2000
  187.1070  177.0940  144.0110 C   0  0  1  0  0  3  0  0  0  0  0  0
  185.2050  178.2250  145.2990 C   0  0  0  0  0  0  0  0  0  0  0  0
  189.5720  177.2600  147.5770 C   0  0  0  0  0  2  0  0  0  0  0  0
  188.4060  176.2820  144.2170 C   0  0  1  0  0  3  0  0  0  0  0  0
  186.2130  176.3470  143.2210 O   0  0  0  0  0  0  0  0  0  0  0  0
  188.5700  175.5120  140.6560 O   0  0  0  0  0  0  0  0  0  0  0  0
  191.4270  176.5080  143.0700 C   0  0  1  0  0  3  0  0  0  0  0  0
  188.1360  175.9210  141.7680 C   0  0  0  0  0  0  0  0  0  0  0  0
  191.7430  176.7720  144.5410 C   0  0  2  0  0  3  0  0  0  0  0  0
  190.7920  176.7900  146.8740 C   0  0  0  0  0  0  0  0  0  0  0  0
  186.6910  176.3520  141.8840 C   0  0  2  0  0  3  0  0  0  0  0  0
  189.0110  176.0080  142.9090 N   0  0  0  0  0  0  0  0  0  0  0  0
  184.7010  178.7850  146.4730 C   0  0  0  0  0  3  0  0  0  0  0  0
  192.9130  175.8640  144.8620 C   0  0  0  0  0  2  0  0  0  0  0  0
  192.7410  176.0710  142.4430 C   0  0  0  0  0  2  0  0  0  0  0  0
  184.4410  178.2850  144.1390 O   0  0  0  0  0  1  0  0  0  0  0  0
  188.5500  176.9510  146.5130 C   0  0  2  0  0  3  0  0  0  0  0  0
  185.4700  178.7550  147.6380 C   0  0  0  0  0  3  0  0  0  0  0  0
  186.4730  177.6180  145.2980 C   0  0  0  0  0  0  0  0  0  0  0  0
  189.2750  177.0800  145.1870 C   0  0  1  0  0  3  0  0  0  0  0  0
  191.8970  176.6450  147.4600 O   0  0  0  0  0  0  0  0  0  0  0  0
  190.6180  176.5820  145.4660 N   0  0  0  0  0  0  0  0  0  0  0  0
  193.7130  175.7940  143.5800 C   0  0  0  0  0  2  0  0  0  0  0  0
  190.5040  174.1430  143.5640 C   0  0  0  0  0  1  0  0  0  0  0  0
  186.7060  178.1930  147.6250 N   0  0  0  0  0  0  0  0  0  0  0  0
  187.2330  177.6590  146.4900 C   0  0  0  0  0  0  0  0  0  0  0  0
  190.3540  175.4500  142.7910 C   0  0  2  0  0  3  0  0  0  0  0  0
  186.4580  177.6960  141.2000 C   0  0  0  0  0  2  0  0  0  0  0  0
  184.4490  178.2910  140.5130 C   0  0  0  0  0  1  0  0  0  0  0  0
  185.5640  177.5410  140.1420 O   0  0  0  0  0  0  0  0  0  0  0  0
  1  5  1  1  0  0  0
  1  4  1  0  0  0  0
  1 19  1  0  0  0  0
  2 13  1  0  0  0  0
  4 12  1  6  0  0  0
  4 20  1  0  0  0  0
  6  8  2  0  0  0  0
  7 15  1  6  0  0  0
  7  9  1  0  0  0  0
  8 11  1  0  0  0  0
  8 12  1  0  0  0  0
  9 14  1  1  0  0  0
  9 22  1  0  0  0  0
 10 21  2  0  0  0  0
 10  3  1  0  0  0  0
 11 28  1  1  0  0  0
 11  5  1  0  0  0  0
 13 18  2  0  0  0  0
 15 23  1  0  0  0  0
 16  2  1  0  0  0  0
 17  3  1  1  0  0  0
 19  2  2  0  0  0  0
 19 26  1  0  0  0  0
 20 22  1  1  0  0  0
 20 17  1  0  0  0  0
 22 10  1  0  0  0  0
 23 14  1  0  0  0  0
 25 18  1  0  0  0  0
 26 17  1  0  0  0  0
 26 25  2  0  0  0  0
 27 12  1  0  0  0  0
 27  7  1  0  0  0  0
 27 24  1  1  0  0  0
 30 29  1  0  0  0  0
 30 28  1  0  0  0  0
M  END
>  <MODEL>
1

>  <REMARK>
 VINA RESULT:      -8.4      0.000      0.000
  Name = 
  2 active torsions:
  status: ('A' for Active; 'I' for Inactive)
    1  A    between atoms: C_11  and  C_28
    2  A    between atoms: C_28  and  O_30
                            x       y       z     vdW  Elec       q    Type
                         _______ _______ _______ _____ _____    ______ ____

>  <TORSDO>
F 2

$$$$
=
 OpenBabel11112416143D

 30 35  0  0  1  0  0  0  0  0999 V2000
  187.0800  176.8900  143.8710 C   0  0  1  0  0  3  0  0  0  0  0  0
  185.1790  178.2580  142.8380 C   0  0  0  0  0  0  0  0  0  0  0  0
  187.9800  175.2510  139.9560 C   0  0  0  0  0  2  0  0  0  0  0  0
  188.3900  176.1550  143.5080 C   0  0  1  0  0  3  0  0  0  0  0  0
  187.3540  177.8800  144.8340 O   0  0  0  0  0  0  0  0  0  0  0  0
  189.2270  175.7660  147.0370 O   0  0  0  0  0  0  0  0  0  0  0  0
  189.5920  173.2150  144.1480 C   0  0  1  0  0  3  0  0  0  0  0  0
  188.6410  176.1460  145.9860 C   0  0  0  0  0  0  0  0  0  0  0  0
  189.4700  173.0640  142.6330 C   0  0  2  0  0  3  0  0  0  0  0  0
  188.9700  174.2780  140.4830 C   0  0  0  0  0  0  0  0  0  0  0  0
  187.5970  177.2350  146.0760 C   0  0  2  0  0  3  0  0  0  0  0  0
  188.9380  175.5310  144.7180 N   0  0  0  0  0  0  0  0  0  0  0  0
  184.4260  178.6420  141.7270 C   0  0  0  0  0  3  0  0  0  0  0  0
  190.8040  172.5040  142.1840 C   0  0  0  0  0  2  0  0  0  0  0  0
  190.5930  172.1570  144.5830 C   0  0  0  0  0  2  0  0  0  0  0  0
  184.8020  178.7070  144.0980 O   0  0  0  0  0  1  0  0  0  0  0  0
  187.8120  176.1090  141.1850 C   0  0  2  0  0  3  0  0  0  0  0  0
  184.7780  178.1770  140.4600 C   0  0  0  0  0  3  0  0  0  0  0  0
  186.2970  177.4230  142.6720 C   0  0  0  0  0  0  0  0  0  0  0  0
  188.0560  175.1940  142.3690 C   0  0  1  0  0  3  0  0  0  0  0  0
  189.5900  173.4740  139.7390 O   0  0  0  0  0  0  0  0  0  0  0  0
  189.1050  174.2900  141.9110 N   0  0  0  0  0  0  0  0  0  0  0  0
  191.2590  171.6210  143.3250 C   0  0  0  0  0  2  0  0  0  0  0  0
  191.2650  175.1770  143.9430 C   0  0  0  0  0  1  0  0  0  0  0  0
  185.8420  177.3460  140.3080 N   0  0  0  0  0  0  0  0  0  0  0  0
  186.5820  176.9370  141.3740 C   0  0  0  0  0  0  0  0  0  0  0  0
  190.0500  174.5870  144.6540 C   0  0  2  0  0  3  0  0  0  0  0  0
  186.3090  176.7160  146.7100 C   0  0  0  0  0  2  0  0  0  0  0  0
  185.3100  178.4960  147.5440 C   0  0  0  0  0  1  0  0  0  0  0  0
  186.0690  177.3850  147.9090 O   0  0  0  0  0  0  0  0  0  0  0  0
  1 19  1  6  0  0  0
  1  5  1  0  0  0  0
  2 16  1  0  0  0  0
  3 10  1  0  0  0  0
  4  1  1  0  0  0  0
  4 12  1  1  0  0  0
  5 11  1  0  0  0  0
  7 15  1  6  0  0  0
  7 27  1  0  0  0  0
  8 11  1  0  0  0  0
  8  6  2  0  0  0  0
  9 14  1  6  0  0  0
  9  7  1  0  0  0  0
 10 22  1  0  0  0  0
 11 28  1  6  0  0  0
 12  8  1  0  0  0  0
 13  2  2  0  0  0  0
 14 23  1  0  0  0  0
 17  3  1  6  0  0  0
 17 26  1  0  0  0  0
 17 20  1  0  0  0  0
 18 13  1  0  0  0  0
 19  2  1  0  0  0  0
 20 22  1  6  0  0  0
 20  4  1  0  0  0  0
 21 10  2  0  0  0  0
 22  9  1  0  0  0  0
 23 15  1  0  0  0  0
 25 18  2  0  0  0  0
 25 26  1  0  0  0  0
 26 19  2  0  0  0  0
 27 24  1  6  0  0  0
 27 12  1  0  0  0  0
 28 30  1  0  0  0  0
 29 30  1  0  0  0  0
M  END
>  <MODEL>
2

>  <REMARK>
 VINA RESULT:      -7.6      1.976      5.064
  Name = 
  2 active torsions:
  status: ('A' for Active; 'I' for Inactive)
    1  A    between atoms: C_11  and  C_28
    2  A    between atoms: C_28  and  O_30
                            x       y       z     vdW  Elec       q    Type
                         _______ _______ _______ _____ _____    ______ ____

>  <TORSDO>
F 2

$$$$
=
 OpenBabel11112416143D

 30 35  0  0  1  0  0  0  0  0999 V2000
  187.7170  176.2300  143.1500 C   0  0  1  0  0  3  0  0  0  0  0  0
  185.7610  177.8800  143.0770 C   0  0  0  0  0  0  0  0  0  0  0  0
  188.8280  177.7770  147.0480 C   0  0  0  0  0  2  0  0  0  0  0  0
  188.6820  175.5260  144.1300 C   0  0  1  0  0  3  0  0  0  0  0  0
  187.0080  175.2600  142.4170 O   0  0  0  0  0  0  0  0  0  0  0  0
  189.8700  173.3200  141.4800 O   0  0  0  0  0  0  0  0  0  0  0  0
  191.8930  175.1150  144.2480 C   0  0  1  0  0  3  0  0  0  0  0  0
  189.1800  174.1780  142.0960 C   0  0  0  0  0  0  0  0  0  0  0  0
  191.7460  175.9600  145.5120 C   0  0  2  0  0  3  0  0  0  0  0  0
  190.0940  177.0010  147.1040 C   0  0  0  0  0  0  0  0  0  0  0  0
  187.8970  174.6800  141.4740 C   0  0  2  0  0  3  0  0  0  0  0  0
  189.6220  174.6990  143.3640 N   0  0  0  0  0  0  0  0  0  0  0  0
  185.0160  178.9040  143.6630 C   0  0  0  0  0  3  0  0  0  0  0  0
  192.5350  175.2220  146.5750 C   0  0  0  0  0  2  0  0  0  0  0  0
  193.2260  174.3980  144.3920 C   0  0  0  0  0  2  0  0  0  0  0  0
  185.4570  177.4790  141.7820 O   0  0  0  0  0  1  0  0  0  0  0  0
  188.1810  177.0920  145.8710 C   0  0  2  0  0  3  0  0  0  0  0  0
  185.3280  179.3350  144.9530 C   0  0  0  0  0  3  0  0  0  0  0  0
  186.8070  177.2750  143.7940 C   0  0  0  0  0  0  0  0  0  0  0  0
  189.3180  176.6190  144.9860 C   0  0  1  0  0  3  0  0  0  0  0  0
  190.8870  177.0690  148.0790 O   0  0  0  0  0  0  0  0  0  0  0  0
  190.3620  176.2270  145.9270 N   0  0  0  0  0  0  0  0  0  0  0  0
  193.6860  174.5840  145.8300 C   0  0  0  0  0  2  0  0  0  0  0  0
  190.4060  173.2210  145.1910 C   0  0  0  0  0  1  0  0  0  0  0  0
  186.3600  178.7670  145.6320 N   0  0  0  0  0  0  0  0  0  0  0  0
  187.1180  177.7820  145.0780 C   0  0  0  0  0  0  0  0  0  0  0  0
  190.7870  174.0860  143.9930 C   0  0  2  0  0  3  0  0  0  0  0  0
  188.1800  175.6190  140.3040 C   0  0  0  0  0  2  0  0  0  0  0  0
  188.2250  174.2640  138.5660 C   0  0  0  0  0  1  0  0  0  0  0  0
  187.4360  175.2280  139.1920 O   0  0  0  0  0  0  0  0  0  0  0  0
  1  5  1  1  0  0  0
  1 19  1  0  0  0  0
  1  4  1  0  0  0  0
  2 13  2  0  0  0  0
  2 19  1  0  0  0  0
  3 10  1  0  0  0  0
  4 12  1  6  0  0  0
  4 20  1  0  0  0  0
  6  8  2  0  0  0  0
  7 15  1  1  0  0  0
  7  9  1  0  0  0  0
  8 12  1  0  0  0  0
  9 22  1  0  0  0  0
  9 14  1  1  0  0  0
 10 21  2  0  0  0  0
 11 28  1  6  0  0  0
 11  8  1  0  0  0  0
 11  5  1  0  0  0  0
 12 27  1  0  0  0  0
 13 18  1  0  0  0  0
 15 23  1  0  0  0  0
 16  2  1  0  0  0  0
 17  3  1  1  0  0  0
 18 25  2  0  0  0  0
 19 26  2  0  0  0  0
 20 17  1  0  0  0  0
 20 22  1  1  0  0  0
 22 10  1  0  0  0  0
 23 14  1  0  0  0  0
 26 25  1  0  0  0  0
 26 17  1  0  0  0  0
 27  7  1  0  0  0  0
 27 24  1  1  0  0  0
 29 30  1  0  0  0  0
 30 28  1  0  0  0  0
M  END
>  <MODEL>
3

>  <REMARK>
 VINA RESULT:      -7.3      1.599      2.205
  Name = 
  2 active torsions:
  status: ('A' for Active; 'I' for Inactive)
    1  A    between atoms: C_11  and  C_28
    2  A    between atoms: C_28  and  O_30
                            x       y       z     vdW  Elec       q    Type
                         _______ _______ _______ _____ _____    ______ ____

>  <TORSDO>
F 2

$$$$
=
 OpenBabel11112416143D

 30 35  0  0  1  0  0  0  0  0999 V2000
  189.5610  174.9170  144.2170 C   0  0  1  0  0  3  0  0  0  0  0  0
  191.2830  173.5270  142.9290 C   0  0  0  0  0  0  0  0  0  0  0  0
  187.6720  175.9900  140.4610 C   0  0  0  0  0  2  0  0  0  0  0  0
  188.1480  175.5310  144.0900 C   0  0  1  0  0  3  0  0  0  0  0  0
  189.5920  174.0460  145.3220 O   0  0  0  0  0  0  0  0  0  0  0  0
  188.1020  176.3260  147.6490 O   0  0  0  0  0  0  0  0  0  0  0  0
  186.8920  178.4620  144.6570 C   0  0  1  0  0  3  0  0  0  0  0  0
  188.4640  175.8450  146.5400 C   0  0  0  0  0  0  0  0  0  0  0  0
  186.6550  178.4230  143.1480 C   0  0  2  0  0  3  0  0  0  0  0  0
  186.7520  176.9710  141.0920 C   0  0  0  0  0  0  0  0  0  0  0  0
  189.5850  174.8320  146.5060 C   0  0  2  0  0  3  0  0  0  0  0  0
  187.8400  176.2760  145.3160 N   0  0  0  0  0  0  0  0  0  0  0  0
  191.7940  173.0430  141.7240 C   0  0  0  0  0  3  0  0  0  0  0  0
  185.2140  178.8520  142.9630 C   0  0  0  0  0  2  0  0  0  0  0  0
  185.9330  179.5140  145.1920 C   0  0  0  0  0  2  0  0  0  0  0  0
  191.9690  173.2640  144.1080 O   0  0  0  0  0  1  0  0  0  0  0  0
  188.1810  175.3080  141.7060 C   0  0  2  0  0  3  0  0  0  0  0  0
  191.1280  173.3230  140.5290 C   0  0  0  0  0  3  0  0  0  0  0  0
  190.0930  174.2750  142.9360 C   0  0  0  0  0  0  0  0  0  0  0  0
  188.1390  176.3530  142.8030 C   0  0  1  0  0  3  0  0  0  0  0  0
  185.9180  177.6400  140.4280 O   0  0  0  0  0  0  0  0  0  0  0  0
  186.9440  177.1350  142.5040 N   0  0  0  0  0  0  0  0  0  0  0  0
  184.9600  179.8490  144.0720 C   0  0  0  0  0  2  0  0  0  0  0  0
  185.3780  176.4060  145.0720 C   0  0  0  0  0  1  0  0  0  0  0  0
  189.9950  174.0710  140.5380 N   0  0  0  0  0  0  0  0  0  0  0  0
  189.4850  174.5750  141.6950 C   0  0  0  0  0  0  0  0  0  0  0  0
  186.6710  177.1450  145.4070 C   0  0  2  0  0  3  0  0  0  0  0  0
  190.9370  175.4940  146.7580 C   0  0  0  0  0  2  0  0  0  0  0  0
  191.5110  176.8450  148.4030 C   0  0  0  0  0  1  0  0  0  0  0  0
  191.2070  175.5130  148.1260 O   0  0  0  0  0  0  0  0  0  0  0  0
  1 19  1  6  0  0  0
  1  5  1  0  0  0  0
  2 19  1  0  0  0  0
  2 16  1  0  0  0  0
  3 10  1  0  0  0  0
  4  1  1  0  0  0  0
  4 12  1  1  0  0  0
  5 11  1  0  0  0  0
  7 15  1  1  0  0  0
  7 27  1  0  0  0  0
  8  6  2  0  0  0  0
  9 14  1  1  0  0  0
  9  7  1  0  0  0  0
 10 22  1  0  0  0  0
 11  8  1  0  0  0  0
 11 28  1  6  0  0  0
 12 27  1  0  0  0  0
 12  8  1  0  0  0  0
 13  2  2  0  0  0  0
 14 23  1  0  0  0  0
 17  3  1  6  0  0  0
 17 20  1  0  0  0  0
 18 25  2  0  0  0  0
 18 13  1  0  0  0  0
 20 22  1  6  0  0  0
 20  4  1  0  0  0  0
 21 10  2  0  0  0  0
 22  9  1  0  0  0  0
 23 15  1  0  0  0  0
 25 26  1  0  0  0  0
 26 17  1  0  0  0  0
 26 19  2  0  0  0  0
 27 24  1  6  0  0  0
 28 30  1  0  0  0  0
 30 29  1  0  0  0  0
M  END
>  <MODEL>
4

>  <REMARK>
 VINA RESULT:      -7.2      2.202      7.112
  Name = 
  2 active torsions:
  status: ('A' for Active; 'I' for Inactive)
    1  A    between atoms: C_11  and  C_28
    2  A    between atoms: C_28  and  O_30
                            x       y       z     vdW  Elec       q    Type
                         _______ _______ _______ _____ _____    ______ ____

>  <TORSDO>
F 2

$$$$
=
 OpenBabel11112416143D

 30 35  0  0  1  0  0  0  0  0999 V2000
  189.1080  175.9100  143.9550 C   0  0  1  0  0  3  0  0  0  0  0  0
  190.9140  174.7990  145.3900 C   0  0  0  0  0  0  0  0  0  0  0  0
  187.6070  177.9420  147.4830 C   0  0  0  0  0  2  0  0  0  0  0  0
  188.1440  177.1180  143.9280 C   0  0  1  0  0  3  0  0  0  0  0  0
  189.9460  175.9580  142.8250 O   0  0  0  0  0  0  0  0  0  0  0  0
  187.3340  176.4760  140.4300 O   0  0  0  0  0  0  0  0  0  0  0  0
  184.9800  177.4800  143.3350 C   0  0  1  0  0  3  0  0  0  0  0  0
  187.9030  176.4050  141.5540 C   0  0  0  0  0  0  0  0  0  0  0  0
  184.9690  177.9190  144.7980 C   0  0  2  0  0  3  0  0  0  0  0  0
  186.4130  178.4810  146.7840 C   0  0  0  0  0  0  0  0  0  0  0  0
  189.1770  175.6010  141.6860 C   0  0  2  0  0  3  0  0  0  0  0  0
  187.3340  177.0540  142.7060 N   0  0  0  0  0  0  0  0  0  0  0  0
  191.5260  174.5980  146.6280 C   0  0  0  0  0  3  0  0  0  0  0  0
  184.1770  179.2100  144.8160 C   0  0  0  0  0  2  0  0  0  0  0  0
  183.7080  178.0510  142.7290 C   0  0  0  0  0  2  0  0  0  0  0  0
  191.3390  174.0520  144.2970 O   0  0  0  0  0  1  0  0  0  0  0  0
  188.3890  177.4650  146.2850 C   0  0  2  0  0  3  0  0  0  0  0  0
  191.0920  175.3220  147.7390 C   0  0  0  0  0  3  0  0  0  0  0  0
  189.8790  175.7410  145.2640 C   0  0  0  0  0  0  0  0  0  0  0  0
  187.3600  177.0860  145.2380 C   0  0  1  0  0  3  0  0  0  0  0  0
  185.5540  179.1940  147.3650 O   0  0  0  0  0  0  0  0  0  0  0  0
  186.2930  178.0650  145.4170 N   0  0  0  0  0  0  0  0  0  0  0  0
  183.1380  179.0440  143.7290 C   0  0  0  0  0  2  0  0  0  0  0  0
  186.5600  179.4070  142.6400 C   0  0  0  0  0  1  0  0  0  0  0  0
  190.0700  176.2100  147.6180 N   0  0  0  0  0  0  0  0  0  0  0  0
  189.4400  176.4110  146.4300 C   0  0  0  0  0  0  0  0  0  0  0  0
  186.1860  177.9330  142.5050 C   0  0  2  0  0  3  0  0  0  0  0  0
  188.8930  174.1020  141.6380 C   0  0  0  0  0  2  0  0  0  0  0  0
  188.5940  172.9520  139.7810 C   0  0  0  0  0  1  0  0  0  0  0  0
  189.5860  173.5230  140.5760 O   0  0  0  0  0  0  0  0  0  0  0  0
  1  5  1  6  0  0  0
  1 19  1  0  0  0  0
  2 13  1  0  0  0  0
  4 12  1  6  0  0  0
  4  1  1  0  0  0  0
  4 20  1  0  0  0  0
  6  8  2  0  0  0  0
  7 15  1  6  0  0  0
  7  9  1  0  0  0  0
  8 11  1  0  0  0  0
  8 12  1  0  0  0  0
  9 14  1  6  0  0  0
  9 22  1  0  0  0  0
 10 21  2  0  0  0  0
 10  3  1  0  0  0  0
 11 28  1  1  0  0  0
 11  5  1  0  0  0  0
 13 18  2  0  0  0  0
 15 23  1  0  0  0  0
 16  2  1  0  0  0  0
 17 26  1  0  0  0  0
 17  3  1  1  0  0  0
 19  2  2  0  0  0  0
 19 26  1  0  0  0  0
 20 22  1  6  0  0  0
 20 17  1  0  0  0  0
 22 10  1  0  0  0  0
 23 14  1  0  0  0  0
 25 18  1  0  0  0  0
 26 25  2  0  0  0  0
 27 24  1  1  0  0  0
 27 12  1  0  0  0  0
 27  7  1  0  0  0  0
 29 30  1  0  0  0  0
 30 28  1  0  0  0  0
M  END
>  <MODEL>
5

>  <REMARK>
 VINA RESULT:      -7.1      2.112      5.589
  Name = 
  2 active torsions:
  status: ('A' for Active; 'I' for Inactive)
    1  A    between atoms: C_11  and  C_28
    2  A    between atoms: C_28  and  O_30
                            x       y       z     vdW  Elec       q    Type
                         _______ _______ _______ _____ _____    ______ ____

>  <TORSDO>
F 2

$$$$
=
 OpenBabel11112416143D

 30 35  0  0  1  0  0  0  0  0999 V2000
  191.0550  173.8900  142.9880 C   0  0  1  0  0  3  0  0  0  0  0  0
  193.0240  172.2540  142.9630 C   0  0  0  0  0  0  0  0  0  0  0  0
  192.3160  175.2910  146.8960 C   0  0  0  0  0  2  0  0  0  0  0  0
  190.5640  175.1970  143.6520 C   0  0  1  0  0  3  0  0  0  0  0  0
  191.1030  174.0670  141.5920 O   0  0  0  0  0  0  0  0  0  0  0  0
  187.8160  175.4530  141.2670 O   0  0  0  0  0  0  0  0  0  0  0  0
  187.8060  176.1150  145.0810 C   0  0  1  0  0  3  0  0  0  0  0  0
  188.8780  175.0600  141.8240 C   0  0  0  0  0  0  0  0  0  0  0  0
  188.7170  176.2210  146.3020 C   0  0  2  0  0  3  0  0  0  0  0  0
  191.1070  176.1300  147.0940 C   0  0  0  0  0  0  0  0  0  0  0  0
  189.7710  174.0780  141.1000 C   0  0  2  0  0  3  0  0  0  0  0  0
  189.2240  175.5140  143.1460 N   0  0  0  0  0  0  0  0  0  0  0  0
  194.1520  171.7040  143.5740 C   0  0  0  0  0  3  0  0  0  0  0  0
  188.4090  177.5750  146.9090 C   0  0  0  0  0  2  0  0  0  0  0  0
  186.5940  176.9750  145.4020 C   0  0  0  0  0  2  0  0  0  0  0  0
  192.5730  171.7120  141.7650 O   0  0  0  0  0  1  0  0  0  0  0  0
  192.1560  174.9840  145.4290 C   0  0  2  0  0  3  0  0  0  0  0  0
  194.6000  172.2210  144.7910 C   0  0  0  0  0  3  0  0  0  0  0  0
  192.3560  173.3350  143.5650 C   0  0  0  0  0  0  0  0  0  0  0  0
  190.6630  174.9890  145.1610 C   0  0  1  0  0  3  0  0  0  0  0  0
  190.9190  176.8110  148.1350 O   0  0  0  0  0  0  0  0  0  0  0  0
  190.1500  176.0430  146.0290 N   0  0  0  0  0  0  0  0  0  0  0  0
  186.9370  177.7960  146.6360 C   0  0  0  0  0  2  0  0  0  0  0  0
  189.1370  177.9090  143.7760 C   0  0  0  0  0  1  0  0  0  0  0  0
  193.9340  173.2470  145.3830 N   0  0  0  0  0  0  0  0  0  0  0  0
  192.8180  173.7880  144.8230 C   0  0  0  0  0  0  0  0  0  0  0  0
  188.4110  176.5670  143.7480 C   0  0  2  0  0  3  0  0  0  0  0  0
  189.1590  172.6800  141.0850 C   0  0  0  0  0  2  0  0  0  0  0  0
  188.3800  172.6660  139.0220 C   0  0  0  0  0  1  0  0  0  0  0  0
  189.3540  172.0910  139.8370 O   0  0  0  0  0  0  0  0  0  0  0  0
  1  5  1  6  0  0  0
  1 19  1  0  0  0  0
  1  4  1  0  0  0  0
  2 19  2  0  0  0  0
  2 13  1  0  0  0  0
  3 10  1  0  0  0  0
  4 12  1  1  0  0  0
  4 20  1  0  0  0  0
  6  8  2  0  0  0  0
  7 15  1  1  0  0  0
  7  9  1  0  0  0  0
  8 12  1  0  0  0  0
  9 14  1  6  0  0  0
 10 21  2  0  0  0  0
 11 28  1  1  0  0  0
 11  5  1  0  0  0  0
 11  8  1  0  0  0  0
 12 27  1  0  0  0  0
 13 18  2  0  0  0  0
 15 23  1  0  0  0  0
 16  2  1  0  0  0  0
 17  3  1  1  0  0  0
 18 25  1  0  0  0  0
 19 26  1  0  0  0  0
 20 17  1  0  0  0  0
 20 22  1  1  0  0  0
 22  9  1  0  0  0  0
 22 10  1  0  0  0  0
 23 14  1  0  0  0  0
 26 25  2  0  0  0  0
 26 17  1  0  0  0  0
 27 24  1  1  0  0  0
 27  7  1  0  0  0  0
 29 30  1  0  0  0  0
 30 28  1  0  0  0  0
M  END
>  <MODEL>
6

>  <REMARK>
 VINA RESULT:      -7.1      2.467      6.109
  Name = 
  2 active torsions:
  status: ('A' for Active; 'I' for Inactive)
    1  A    between atoms: C_11  and  C_28
    2  A    between atoms: C_28  and  O_30
                            x       y       z     vdW  Elec       q    Type
                         _______ _______ _______ _____ _____    ______ ____

>  <TORSDO>
F 2

$$$$
=
 OpenBabel11112416143D

 30 35  0  0  1  0  0  0  0  0999 V2000
  188.7870  176.0180  143.9480 C   0  0  1  0  0  3  0  0  0  0  0  0
  187.2220  177.8780  144.7550 C   0  0  0  0  0  0  0  0  0  0  0  0
  187.1120  176.3900  139.9630 C   0  0  0  0  0  2  0  0  0  0  0  0
  189.4290  175.4350  142.6690 C   0  0  1  0  0  3  0  0  0  0  0  0
  189.8020  176.3950  144.8470 O   0  0  0  0  0  0  0  0  0  0  0  0
  191.6400  173.3270  144.6610 O   0  0  0  0  0  0  0  0  0  0  0  0
  189.7020  172.4560  141.4250 C   0  0  1  0  0  3  0  0  0  0  0  0
  190.7980  174.2150  144.3540 C   0  0  0  0  0  0  0  0  0  0  0  0
  188.8370  173.0630  140.3220 C   0  0  2  0  0  3  0  0  0  0  0  0
  187.8320  175.1990  139.4430 C   0  0  0  0  0  0  0  0  0  0  0  0
  190.3640  175.2150  145.4010 C   0  0  2  0  0  3  0  0  0  0  0  0
  190.2320  174.2610  143.0300 N   0  0  0  0  0  0  0  0  0  0  0  0
  186.2180  178.8120  144.5010 C   0  0  0  0  0  3  0  0  0  0  0  0
  189.5180  172.6720  139.0260 C   0  0  0  0  0  2  0  0  0  0  0  0
  190.3590  171.2360  140.8010 C   0  0  0  0  0  2  0  0  0  0  0  0
  187.6630  177.6970  146.0600 O   0  0  0  0  0  1  0  0  0  0  0  0
  187.8480  176.5630  141.2670 C   0  0  2  0  0  3  0  0  0  0  0  0
  185.7470  178.9840  143.1990 C   0  0  0  0  0  3  0  0  0  0  0  0
  187.7680  177.1290  143.6970 C   0  0  0  0  0  0  0  0  0  0  0  0
  188.2920  175.1740  141.6840 C   0  0  1  0  0  3  0  0  0  0  0  0
  187.7100  174.8000  138.2560 O   0  0  0  0  0  0  0  0  0  0  0  0
  188.6190  174.5120  140.4250 N   0  0  0  0  0  0  0  0  0  0  0  0
  190.1240  171.3130  139.3010 C   0  0  0  0  0  2  0  0  0  0  0  0
  191.6370  174.1190  140.9940 C   0  0  0  0  0  1  0  0  0  0  0  0
  186.2560  178.2380  142.1840 N   0  0  0  0  0  0  0  0  0  0  0  0
  187.2210  177.3030  142.4040 C   0  0  0  0  0  0  0  0  0  0  0  0
  190.7820  173.3700  142.0140 C   0  0  2  0  0  3  0  0  0  0  0  0
  189.4390  174.5710  146.4310 C   0  0  0  0  0  2  0  0  0  0  0  0
  190.9290  175.3470  147.8590 C   0  0  0  0  0  1  0  0  0  0  0  0
  189.5550  175.2340  147.6520 O   0  0  0  0  0  0  0  0  0  0  0  0
  1 19  1  6  0  0  0
  1  5  1  0  0  0  0
  2 16  1  0  0  0  0
  4 12  1  1  0  0  0
  4  1  1  0  0  0  0
  5 11  1  0  0  0  0
  7 15  1  6  0  0  0
  7 27  1  0  0  0  0
  8  6  2  0  0  0  0
  8 11  1  0  0  0  0
  9 14  1  6  0  0  0
  9 22  1  0  0  0  0
  9  7  1  0  0  0  0
 10  3  1  0  0  0  0
 10 22  1  0  0  0  0
 11 28  1  1  0  0  0
 12  8  1  0  0  0  0
 13  2  1  0  0  0  0
 14 23  1  0  0  0  0
 17  3  1  6  0  0  0
 17 20  1  0  0  0  0
 17 26  1  0  0  0  0
 18 13  2  0  0  0  0
 19  2  2  0  0  0  0
 20 22  1  6  0  0  0
 20  4  1  0  0  0  0
 21 10  2  0  0  0  0
 23 15  1  0  0  0  0
 25 26  2  0  0  0  0
 25 18  1  0  0  0  0
 26 19  1  0  0  0  0
 27 24  1  6  0  0  0
 27 12  1  0  0  0  0
 28 30  1  0  0  0  0
 30 29  1  0  0  0  0
M  END
>  <MODEL>
7

>  <REMARK>
 VINA RESULT:      -7.0      2.652      5.646
  Name = 
  2 active torsions:
  status: ('A' for Active; 'I' for Inactive)
    1  A    between atoms: C_11  and  C_28
    2  A    between atoms: C_28  and  O_30
                            x       y       z     vdW  Elec       q    Type
                         _______ _______ _______ _____ _____    ______ ____

>  <TORSDO>
F 2

$$$$
=
 OpenBabel11112416143D

 30 35  0  0  1  0  0  0  0  0999 V2000
  192.3420  174.7680  143.2910 C   0  0  1  0  0  3  0  0  0  0  0  0
  193.2930  173.9790  141.0480 C   0  0  0  0  0  0  0  0  0  0  0  0
  188.3570  174.7220  141.5750 C   0  0  0  0  0  2  0  0  0  0  0  0
  191.0330  174.8140  144.1120 C   0  0  1  0  0  3  0  0  0  0  0  0
  193.3260  174.0770  144.0230 O   0  0  0  0  0  0  0  0  0  0  0  0
  192.8580  175.8730  147.0870 O   0  0  0  0  0  0  0  0  0  0  0  0
  189.4560  177.1310  145.7350 C   0  0  1  0  0  3  0  0  0  0  0  0
  192.6210  175.4510  145.9210 C   0  0  0  0  0  0  0  0  0  0  0  0
  188.3950  176.8660  144.6690 C   0  0  2  0  0  3  0  0  0  0  0  0
  187.7330  175.3590  142.7620 C   0  0  0  0  0  0  0  0  0  0  0  0
  193.7600  174.9150  145.0840 C   0  0  2  0  0  3  0  0  0  0  0  0
  191.2880  175.5090  145.3780 N   0  0  0  0  0  0  0  0  0  0  0  0
  193.1070  173.6010  139.7180 C   0  0  0  0  0  3  0  0  0  0  0  0
  187.0940  176.7240  145.4330 C   0  0  0  0  0  2  0  0  0  0  0  0
  188.7210  177.8100  146.8800 C   0  0  0  0  0  2  0  0  0  0  0  0
  194.5870  174.0960  141.5440 O   0  0  0  0  0  1  0  0  0  0  0  0
  189.7050  174.3920  142.1630 C   0  0  2  0  0  3  0  0  0  0  0  0
  191.8150  173.5060  139.2010 C   0  0  0  0  0  3  0  0  0  0  0  0
  192.1800  174.2430  141.8650 C   0  0  0  0  0  0  0  0  0  0  0  0
  189.9730  175.4500  143.2160 C   0  0  1  0  0  3  0  0  0  0  0  0
  186.5020  175.6140  142.8240 O   0  0  0  0  0  0  0  0  0  0  0  0
  188.6610  175.7150  143.7960 N   0  0  0  0  0  0  0  0  0  0  0  0
  187.2310  177.6620  146.6120 C   0  0  0  0  0  2  0  0  0  0  0  0
  189.3160  174.7160  146.6520 C   0  0  0  0  0  1  0  0  0  0  0  0
  190.7430  173.7910  139.9860 N   0  0  0  0  0  0  0  0  0  0  0  0
  190.8930  174.1830  141.2800 C   0  0  0  0  0  0  0  0  0  0  0  0
  190.1980  175.9010  146.2670 C   0  0  2  0  0  3  0  0  0  0  0  0
  194.6610  176.0420  144.5880 C   0  0  0  0  0  2  0  0  0  0  0  0
  196.4880  176.5260  143.4530 C   0  0  0  0  0  1  0  0  0  0  0  0
  195.9100  175.5310  144.2390 O   0  0  0  0  0  0  0  0  0  0  0  0
  1 19  1  6  0  0  0
  1  5  1  0  0  0  0
  1  4  1  0  0  0  0
  2 16  1  0  0  0  0
  2 19  1  0  0  0  0
  3 10  1  0  0  0  0
  4 12  1  1  0  0  0
  5 11  1  0  0  0  0
  7 27  1  0  0  0  0
  7 15  1  1  0  0  0
  8  6  2  0  0  0  0
  9 14  1  1  0  0  0
  9  7  1  0  0  0  0
 10 21  2  0  0  0  0
 10 22  1  0  0  0  0
 11 28  1  6  0  0  0
 11  8  1  0  0  0  0
 12  8  1  0  0  0  0
 12 27  1  0  0  0  0
 13  2  2  0  0  0  0
 14 23  1  0  0  0  0
 17  3  1  6  0  0  0
 17 20  1  0  0  0  0
 18 13  1  0  0  0  0
 18 25  2  0  0  0  0
 20 22  1  1  0  0  0
 20  4  1  0  0  0  0
 22  9  1  0  0  0  0
 23 15  1  0  0  0  0
 25 26  1  0  0  0  0
 26 19  2  0  0  0  0
 26 17  1  0  0  0  0
 27 24  1  6  0  0  0
 29 30  1  0  0  0  0
 30 28  1  0  0  0  0
M  END
>  <MODEL>
8

>  <REMARK>
 VINA RESULT:      -7.0      2.499      7.504
  Name = 
  2 active torsions:
  status: ('A' for Active; 'I' for Inactive)
    1  A    between atoms: C_11  and  C_28
    2  A    between atoms: C_28  and  O_30
                            x       y       z     vdW  Elec       q    Type
                         _______ _______ _______ _____ _____    ______ ____

>  <TORSDO>
F 2

$$$$
=
 OpenBabel11112416143D

 30 35  0  0  1  0  0  0  0  0999 V2000
  190.0250  175.2700  144.0000 C   0  0  1  0  0  3  0  0  0  0  0  0
  192.3710  174.2540  144.1220 C   0  0  0  0  0  0  0  0  0  0  0  0
  190.8160  177.4480  147.6680 C   0  0  0  0  0  2  0  0  0  0  0  0
  189.1840  176.4620  144.5100 C   0  0  1  0  0  3  0  0  0  0  0  0
  190.0320  175.2760  142.5920 O   0  0  0  0  0  0  0  0  0  0  0  0
  186.4910  175.6430  142.1910 O   0  0  0  0  0  0  0  0  0  0  0  0
  186.2690  176.7530  145.8920 C   0  0  1  0  0  3  0  0  0  0  0  0
  187.6170  175.6340  142.7610 C   0  0  0  0  0  0  0  0  0  0  0  0
  187.1050  177.2610  147.0640 C   0  0  2  0  0  3  0  0  0  0  0  0
  189.4200  177.9370  147.7940 C   0  0  0  0  0  0  0  0  0  0  0  0
  188.7530  174.8540  142.1400 C   0  0  2  0  0  3  0  0  0  0  0  0
  187.8120  176.3290  144.0070 N   0  0  0  0  0  0  0  0  0  0  0  0
  193.6030  174.1210  144.7640 C   0  0  0  0  0  3  0  0  0  0  0  0
  186.4270  178.5420  147.5080 C   0  0  0  0  0  2  0  0  0  0  0  0
  184.8630  177.2770  146.1380 C   0  0  0  0  0  2  0  0  0  0  0  0
  192.0980  173.4620  143.0140 O   0  0  0  0  0  1  0  0  0  0  0  0
  190.7590  176.9260  146.2550 C   0  0  2  0  0  3  0  0  0  0  0  0
  193.8800  174.8920  145.8940 C   0  0  0  0  0  3  0  0  0  0  0  0
  191.4250  175.1750  144.6040 C   0  0  0  0  0  0  0  0  0  0  0  0
  189.3260  176.4830  146.0310 C   0  0  1  0  0  3  0  0  0  0  0  0
  189.0410  178.6660  148.7480 O   0  0  0  0  0  0  0  0  0  0  0  0
  188.5320  177.4550  146.7760 N   0  0  0  0  0  0  0  0  0  0  0  0
  184.9540  178.3100  147.2510 C   0  0  0  0  0  2  0  0  0  0  0  0
  187.0570  178.6660  144.3390 C   0  0  0  0  0  1  0  0  0  0  0  0
  192.9510  175.7590  146.3740 N   0  0  0  0  0  0  0  0  0  0  0  0
  191.7330  175.8940  145.7830 C   0  0  0  0  0  0  0  0  0  0  0  0
  186.7330  177.1820  144.4970 C   0  0  2  0  0  3  0  0  0  0  0  0
  188.5540  173.3510  142.3150 C   0  0  0  0  0  2  0  0  0  0  0  0
  189.6070  172.3210  140.6740 C   0  0  0  0  0  1  0  0  0  0  0  0
  188.3440  172.7540  141.0730 O   0  0  0  0  0  0  0  0  0  0  0  0
  1  5  1  6  0  0  0
  1  4  1  0  0  0  0
  1 19  1  0  0  0  0
  2 19  2  0  0  0  0
  2 13  1  0  0  0  0
  3 10  1  0  0  0  0
  4 12  1  1  0  0  0
  4 20  1  0  0  0  0
  6  8  2  0  0  0  0
  7 15  1  1  0  0  0
  7  9  1  0  0  0  0
  8 12  1  0  0  0  0
  9 14  1  6  0  0  0
 10 21  2  0  0  0  0
 11 28  1  1  0  0  0
 11  5  1  0  0  0  0
 11  8  1  0  0  0  0
 12 27  1  0  0  0  0
 13 18  2  0  0  0  0
 15 23  1  0  0  0  0
 16  2  1  0  0  0  0
 17  3  1  1  0  0  0
 18 25  1  0  0  0  0
 19 26  1  0  0  0  0
 20 17  1  0  0  0  0
 20 22  1  1  0  0  0
 22  9  1  0  0  0  0
 22 10  1  0  0  0  0
 23 14  1  0  0  0  0
 26 17  1  0  0  0  0
 26 25  2  0  0  0  0
 27 24  1  1  0  0  0
 27  7  1  0  0  0  0
 29 30  1  0  0  0  0
 30 28  1  0  0  0  0
M  END
>  <MODEL>
9

>  <REMARK>
 VINA RESULT:      -7.0      2.028      5.736
  Name = 
  2 active torsions:
  status: ('A' for Active; 'I' for Inactive)
    1  A    between atoms: C_11  and  C_28
    2  A    between atoms: C_28  and  O_30
                            x       y       z     vdW  Elec       q    Type
                         _______ _______ _______ _____ _____    ______ ____

>  <TORSDO>
F 2

$$$$
