=
 OpenBabel11112417363D

 28 32  0  0  1  0  0  0  0  0999 V2000
  186.3700  178.5190  144.5250 C   0  0  0  0  0  0  0  0  0  0  0  0
  188.5010  176.8280  147.5650 O   0  0  0  0  0  1  0  0  0  0  0  0
  188.0190  173.8090  140.9090 O   0  0  0  0  0  1  0  0  0  0  0  0
  184.9000  177.4250  146.6490 C   0  0  0  0  0  3  0  0  0  0  0  0
  189.7380  174.9770  142.1510 C   0  0  1  0  0  3  0  0  0  0  0  0
  187.0190  179.1110  143.3130 C   0  0  0  0  0  2  0  0  0  0  0  0
  189.0680  174.6410  146.8450 C   0  0  0  0  0  1  0  0  0  0  0  0
  189.3560  176.1310  146.7110 C   0  0  1  0  0  0  0  0  0  0  0  0
  191.8530  176.4070  146.0580 C   0  0  0  0  0  0  0  0  0  0  0  0
  189.1540  176.6220  145.2680 C   0  0  1  0  0  3  0  0  0  0  0  0
  184.5990  177.5390  141.0870 N   0  0  0  0  0  1  0  0  0  0  0  0
  188.3130  176.5890  143.0940 C   0  0  1  0  0  3  0  0  0  0  0  0
  191.4710  176.3600  144.6770 N   0  0  0  0  0  2  0  0  0  0  0  0
  190.8090  176.4140  147.1600 C   0  0  0  0  0  2  0  0  0  0  0  0
  185.7350  177.5250  141.9060 N   0  0  0  0  0  0  0  0  0  0  0  0
  186.7050  177.2310  145.0230 C   0  0  0  0  0  0  0  0  0  0  0  0
  188.5090  175.0700  141.2600 C   0  0  2  0  0  3  0  0  0  0  0  0
  193.1160  176.6520  146.3710 C   0  0  0  0  0  2  0  0  0  0  0  0
  186.7720  176.8200  141.1660 C   0  0  0  0  0  2  0  0  0  0  0  0
  185.9490  176.7020  146.0780 C   0  0  0  0  0  3  0  0  0  0  0  0
  185.3150  179.2350  145.1060 C   0  0  0  0  0  3  0  0  0  0  0  0
  184.5880  178.6950  146.1670 C   0  0  0  0  0  3  0  0  0  0  0  0
  186.1500  178.9170  142.0650 C   0  0  0  0  0  2  0  0  0  0  0  0
  189.7250  176.1880  142.9920 N   0  0  1  0  0  0  0  0  0  0  0  0
  187.4900  175.8290  142.0730 C   0  0  2  0  0  3  0  0  0  0  0  0
  190.1260  175.9130  144.3710 C   0  0  2  0  0  3  0  0  0  0  0  0
  189.6940  173.7980  142.9150 O   0  0  0  0  0  1  0  0  0  0  0  0
  187.8570  176.3710  144.5380 C   0  0  2  0  0  3  0  0  0  0  0  0
  1 16  2  0  0  0  0
  1 21  1  0  0  0  0
  3 17  1  0  0  0  0
  5 27  1  1  0  0  0
  5 24  1  0  0  0  0
  6  1  1  0  0  0  0
  8  7  1  1  0  0  0
  8 14  1  0  0  0  0
  8  2  1  0  0  0  0
  9 18  2  0  0  0  0
  9 14  1  0  0  0  0
 10  8  1  0  0  0  0
 11 15  1  0  0  0  0
 12 28  1  0  0  0  0
 13  9  1  0  0  0  0
 15 23  1  0  0  0  0
 16 20  1  0  0  0  0
 17 25  1  0  0  0  0
 17  5  1  0  0  0  0
 19 15  1  0  0  0  0
 19 25  1  0  0  0  0
 20  4  2  0  0  0  0
 21 22  2  0  0  0  0
 22  4  1  0  0  0  0
 23  6  1  0  0  0  0
 24 12  1  0  0  0  0
 24 26  1  0  0  0  0
 25 12  1  0  0  0  0
 26 13  1  0  0  0  0
 26 10  1  0  0  0  0
 28 16  1  0  0  0  0
 28 10  1  0  0  0  0
M  END
>  <MODEL>
1

>  <REMARK>
 VINA RESULT:      -9.1      0.000      0.000
  Name = 
  0 active torsions:
  status: ('A' for Active; 'I' for Inactive)
                            x       y       z     vdW  Elec       q    Type
                         _______ _______ _______ _____ _____    ______ ____

>  <TORSDO>
F 0

$$$$
=
 OpenBabel11112417363D

 28 32  0  0  1  0  0  0  0  0999 V2000
  185.8500  177.1110  144.1590 C   0  0  0  0  0  0  0  0  0  0  0  0
  188.3570  175.5120  141.3670 O   0  0  0  0  0  1  0  0  0  0  0  0
  190.6540  177.6680  147.9790 O   0  0  0  0  0  1  0  0  0  0  0  0
  186.4220  178.6920  141.9140 C   0  0  0  0  0  3  0  0  0  0  0  0
  190.2710  175.5360  146.8990 C   0  0  1  0  0  3  0  0  0  0  0  0
  185.4840  176.3960  145.4220 C   0  0  0  0  0  2  0  0  0  0  0  0
  190.5610  175.8700  142.1660 C   0  0  0  0  0  1  0  0  0  0  0  0
  189.2800  175.0580  142.3090 C   0  0  1  0  0  0  0  0  0  0  0  0
  189.9200  172.7060  143.2030 C   0  0  0  0  0  0  0  0  0  0  0  0
  188.6800  175.1870  143.7190 C   0  0  1  0  0  3  0  0  0  0  0  0
  185.9340  179.4120  147.4170 N   0  0  0  0  0  1  0  0  0  0  0  0
  188.2920  176.1640  145.7990 C   0  0  1  0  0  3  0  0  0  0  0  0
  189.7550  173.1970  144.5400 N   0  0  0  0  0  2  0  0  0  0  0  0
  189.5790  173.5710  142.0030 C   0  0  0  0  0  2  0  0  0  0  0  0
  186.4080  178.2980  146.7150 N   0  0  0  0  0  0  0  0  0  0  0  0
  187.1930  177.2410  143.7130 C   0  0  0  0  0  0  0  0  0  0  0  0
  189.6850  176.7120  147.6630 C   0  0  2  0  0  3  0  0  0  0  0  0
  190.1780  171.4220  143.0130 C   0  0  0  0  0  2  0  0  0  0  0  0
  187.4120  177.6690  147.5630 C   0  0  0  0  0  2  0  0  0  0  0  0
  187.4540  178.0440  142.5940 C   0  0  0  0  0  3  0  0  0  0  0  0
  184.8230  177.7650  143.4680 C   0  0  0  0  0  3  0  0  0  0  0  0
  185.1050  178.5460  142.3470 C   0  0  0  0  0  3  0  0  0  0  0  0
  185.2800  177.3790  146.5800 C   0  0  0  0  0  2  0  0  0  0  0  0
  189.1840  175.0210  146.0450 N   0  0  1  0  0  0  0  0  0  0  0  0
  188.6420  177.2980  146.7430 C   0  0  2  0  0  3  0  0  0  0  0  0
  189.6550  174.6320  144.7170 C   0  0  2  0  0  3  0  0  0  0  0  0
  191.3850  175.9510  146.1490 O   0  0  0  0  0  1  0  0  0  0  0  0
  188.3950  176.5410  144.3200 C   0  0  2  0  0  3  0  0  0  0  0  0
  1  6  1  0  0  0  0
  2  8  1  0  0  0  0
  4 22  2  0  0  0  0
  4 20  1  0  0  0  0
  5 27  1  6  0  0  0
  5 17  1  0  0  0  0
  6 23  1  0  0  0  0
  8  7  1  6  0  0  0
  8 10  1  0  0  0  0
  9 13  1  0  0  0  0
 10 28  1  0  0  0  0
 10 26  1  0  0  0  0
 12 24  1  0  0  0  0
 12 25  1  0  0  0  0
 13 26  1  0  0  0  0
 14  8  1  0  0  0  0
 14  9  1  0  0  0  0
 15 11  1  0  0  0  0
 15 19  1  0  0  0  0
 16  1  1  0  0  0  0
 16 28  1  0  0  0  0
 17  3  1  0  0  0  0
 18  9  2  0  0  0  0
 20 16  2  0  0  0  0
 21  1  2  0  0  0  0
 22 21  1  0  0  0  0
 23 15  1  0  0  0  0
 24  5  1  0  0  0  0
 25 19  1  0  0  0  0
 25 17  1  0  0  0  0
 26 24  1  0  0  0  0
 28 12  1  0  0  0  0
M  END
>  <MODEL>
2

>  <REMARK>
 VINA RESULT:      -7.8      2.308      4.756
  Name = 
  0 active torsions:
  status: ('A' for Active; 'I' for Inactive)
                            x       y       z     vdW  Elec       q    Type
                         _______ _______ _______ _____ _____    ______ ____

>  <TORSDO>
F 0

$$$$
=
 OpenBabel11112417363D

 28 32  0  0  1  0  0  0  0  0999 V2000
  188.2500  175.9360  146.4910 C   0  0  0  0  0  0  0  0  0  0  0  0
  186.8210  176.6080  142.7300 O   0  0  0  0  0  1  0  0  0  0  0  0
  193.8920  177.3800  144.4760 O   0  0  0  0  0  1  0  0  0  0  0  0
  186.6590  178.2170  146.1280 C   0  0  0  0  0  3  0  0  0  0  0  0
  192.5920  175.7640  143.2280 C   0  0  1  0  0  3  0  0  0  0  0  0
  189.1380  174.7780  146.8250 C   0  0  0  0  0  2  0  0  0  0  0  0
  188.5760  177.6550  141.5270 C   0  0  0  0  0  1  0  0  0  0  0  0
  188.0440  176.3520  142.1110 C   0  0  1  0  0  0  0  0  0  0  0  0
  188.9430  174.3980  140.6570 C   0  0  0  0  0  0  0  0  0  0  0  0
  189.0200  175.7470  143.1340 C   0  0  1  0  0  3  0  0  0  0  0  0
  191.3470  176.8770  148.8240 N   0  0  0  0  0  1  0  0  0  0  0  0
  190.7540  175.7380  144.6910 C   0  0  1  0  0  3  0  0  0  0  0  0
  190.0850  174.3160  141.5200 N   0  0  0  0  0  2  0  0  0  0  0  0
  187.7940  175.3420  140.9660 C   0  0  0  0  0  2  0  0  0  0  0  0
  190.8590  176.3810  147.6100 N   0  0  0  0  0  0  0  0  0  0  0  0
  188.4890  176.7920  145.3820 C   0  0  0  0  0  0  0  0  0  0  0  0
  193.0880  176.2430  144.5830 C   0  0  2  0  0  3  0  0  0  0  0  0
  188.7930  173.5010  139.6950 C   0  0  0  0  0  2  0  0  0  0  0  0
  192.0220  176.0440  146.8000 C   0  0  0  0  0  2  0  0  0  0  0  0
  187.6870  177.9310  145.2280 C   0  0  0  0  0  3  0  0  0  0  0  0
  187.2160  176.2340  147.3870 C   0  0  0  0  0  3  0  0  0  0  0  0
  186.4190  177.3640  147.2040 C   0  0  0  0  0  3  0  0  0  0  0  0
  190.1440  175.1450  147.9210 C   0  0  0  0  0  2  0  0  0  0  0  0
  191.2940  175.1090  143.4760 N   0  0  1  0  0  0  0  0  0  0  0  0
  191.8400  176.5470  145.3740 C   0  0  2  0  0  3  0  0  0  0  0  0
  190.3090  175.4140  142.4390 C   0  0  2  0  0  3  0  0  0  0  0  0
  192.4800  176.8490  142.3420 O   0  0  0  0  0  1  0  0  0  0  0  0
  189.5260  176.5620  144.2990 C   0  0  2  0  0  3  0  0  0  0  0  0
  1  6  1  0  0  0  0
  1 21  1  0  0  0  0
  3 17  1  0  0  0  0
  4 22  1  0  0  0  0
  5 27  1  6  0  0  0
  5 24  1  0  0  0  0
  5 17  1  0  0  0  0
  6 23  1  0  0  0  0
  8  7  1  6  0  0  0
  8  2  1  0  0  0  0
  8 10  1  0  0  0  0
  9 14  1  0  0  0  0
  9 13  1  0  0  0  0
 10 28  1  0  0  0  0
 12 25  1  0  0  0  0
 13 26  1  0  0  0  0
 14  8  1  0  0  0  0
 15 23  1  0  0  0  0
 15 11  1  0  0  0  0
 16  1  2  0  0  0  0
 17 25  1  0  0  0  0
 18  9  2  0  0  0  0
 19 15  1  0  0  0  0
 20 16  1  0  0  0  0
 20  4  2  0  0  0  0
 22 21  2  0  0  0  0
 24 12  1  0  0  0  0
 25 19  1  0  0  0  0
 26 10  1  0  0  0  0
 26 24  1  0  0  0  0
 28 12  1  0  0  0  0
 28 16  1  0  0  0  0
M  END
>  <MODEL>
3

>  <REMARK>
 VINA RESULT:      -7.7      2.504      5.410
  Name = 
  0 active torsions:
  status: ('A' for Active; 'I' for Inactive)
                            x       y       z     vdW  Elec       q    Type
                         _______ _______ _______ _____ _____    ______ ____

>  <TORSDO>
F 0

$$$$
=
 OpenBabel11112417363D

 28 32  0  0  1  0  0  0  0  0999 V2000
  189.4540  176.9990  144.7000 C   0  0  0  0  0  0  0  0  0  0  0  0
  192.9810  176.1400  146.5610 O   0  0  0  0  0  1  0  0  0  0  0  0
  190.5240  172.3560  140.7910 O   0  0  0  0  0  1  0  0  0  0  0  0
  189.2940  175.8710  147.2630 C   0  0  0  0  0  3  0  0  0  0  0  0
  192.2740  173.9860  141.1640 C   0  0  1  0  0  3  0  0  0  0  0  0
  189.3860  177.5720  143.3190 C   0  0  0  0  0  2  0  0  0  0  0  0
  193.6980  174.0510  145.6990 C   0  0  0  0  0  1  0  0  0  0  0  0
  193.5460  175.5440  145.4340 C   0  0  1  0  0  0  0  0  0  0  0  0
  195.4090  176.2560  143.7720 C   0  0  0  0  0  0  0  0  0  0  0  0
  192.6570  175.8160  144.2090 C   0  0  1  0  0  3  0  0  0  0  0  0
  186.7090  175.2920  142.3620 N   0  0  0  0  0  1  0  0  0  0  0  0
  191.0290  175.3650  142.6030 C   0  0  1  0  0  3  0  0  0  0  0  0
  194.5150  175.9740  142.6880 N   0  0  0  0  0  2  0  0  0  0  0  0
  194.9430  176.1710  145.2150 C   0  0  0  0  0  2  0  0  0  0  0  0
  188.0490  175.6060  142.6170 N   0  0  0  0  0  0  0  0  0  0  0  0
  190.2570  175.8720  145.0250 C   0  0  0  0  0  0  0  0  0  0  0  0
  190.8030  173.7210  140.8820 C   0  0  2  0  0  3  0  0  0  0  0  0
  196.5920  176.7900  143.5120 C   0  0  0  0  0  2  0  0  0  0  0  0
  188.8230  175.0520  141.5150 C   0  0  0  0  0  2  0  0  0  0  0  0
  190.1520  175.3210  146.3090 C   0  0  0  0  0  3  0  0  0  0  0  0
  188.5970  177.5410  145.6660 C   0  0  0  0  0  3  0  0  0  0  0  0
  188.5210  176.9860  146.9430 C   0  0  0  0  0  3  0  0  0  0  0  0
  188.1530  177.0620  142.5640 C   0  0  0  0  0  2  0  0  0  0  0  0
  192.3230  175.2560  141.9130 N   0  0  1  0  0  0  0  0  0  0  0  0
  190.0620  174.3400  142.0420 C   0  0  2  0  0  3  0  0  0  0  0  0
  193.3100  175.2270  142.9920 C   0  0  2  0  0  3  0  0  0  0  0  0
  192.8280  172.9180  141.8890 O   0  0  0  0  0  1  0  0  0  0  0  0
  191.2740  175.2210  144.1060 C   0  0  2  0  0  3  0  0  0  0  0  0
  1 16  2  0  0  0  0
  1 21  1  0  0  0  0
  3 17  1  0  0  0  0
  5 27  1  1  0  0  0
  5 24  1  0  0  0  0
  6  1  1  0  0  0  0
  8  7  1  1  0  0  0
  8  2  1  0  0  0  0
  9 14  1  0  0  0  0
 10  8  1  0  0  0  0
 11 15  1  0  0  0  0
 12 28  1  0  0  0  0
 13 26  1  0  0  0  0
 13  9  1  0  0  0  0
 14  8  1  0  0  0  0
 16 20  1  0  0  0  0
 17  5  1  0  0  0  0
 17 25  1  0  0  0  0
 18  9  2  0  0  0  0
 19 25  1  0  0  0  0
 19 15  1  0  0  0  0
 20  4  2  0  0  0  0
 21 22  2  0  0  0  0
 22  4  1  0  0  0  0
 23 15  1  0  0  0  0
 23  6  1  0  0  0  0
 24 12  1  0  0  0  0
 24 26  1  0  0  0  0
 25 12  1  0  0  0  0
 26 10  1  0  0  0  0
 28 10  1  0  0  0  0
 28 16  1  0  0  0  0
M  END
>  <MODEL>
4

>  <REMARK>
 VINA RESULT:      -7.5      2.441      3.701
  Name = 
  0 active torsions:
  status: ('A' for Active; 'I' for Inactive)
                            x       y       z     vdW  Elec       q    Type
                         _______ _______ _______ _____ _____    ______ ____

>  <TORSDO>
F 0

$$$$
=
 OpenBabel11112417363D

 28 32  0  0  1  0  0  0  0  0999 V2000
  187.5250  178.1490  144.8130 C   0  0  0  0  0  0  0  0  0  0  0  0
  190.3110  176.6770  147.4040 O   0  0  0  0  0  1  0  0  0  0  0  0
  188.6650  173.3890  141.0700 O   0  0  0  0  0  1  0  0  0  0  0  0
  186.5730  177.0690  147.2200 C   0  0  0  0  0  3  0  0  0  0  0  0
  190.5330  174.6820  141.9050 C   0  0  1  0  0  3  0  0  0  0  0  0
  187.8840  178.7250  143.4790 C   0  0  0  0  0  2  0  0  0  0  0  0
  190.8390  174.4940  146.6450 C   0  0  0  0  0  1  0  0  0  0  0  0
  191.0130  175.9890  146.4150 C   0  0  1  0  0  0  0  0  0  0  0  0
  193.3100  176.3580  145.2610 C   0  0  0  0  0  0  0  0  0  0  0  0
  190.4990  176.4150  145.0290 C   0  0  1  0  0  3  0  0  0  0  0  0
  185.1560  176.9580  141.8330 N   0  0  0  0  0  1  0  0  0  0  0  0
  189.2430  176.2600  143.0730 C   0  0  1  0  0  3  0  0  0  0  0  0
  192.6610  176.2400  143.9890 N   0  0  0  0  0  2  0  0  0  0  0  0
  192.5100  176.3570  146.5520 C   0  0  0  0  0  2  0  0  0  0  0  0
  186.4310  177.0280  142.4050 N   0  0  0  0  0  0  0  0  0  0  0  0
  188.0220  176.8980  145.2680 C   0  0  0  0  0  0  0  0  0  0  0  0
  189.1480  174.6830  141.2790 C   0  0  2  0  0  3  0  0  0  0  0  0
  194.5950  176.6730  145.3060 C   0  0  0  0  0  2  0  0  0  0  0  0
  187.3350  176.3450  141.4900 C   0  0  0  0  0  2  0  0  0  0  0  0
  187.5230  176.3750  146.4690 C   0  0  0  0  0  3  0  0  0  0  0  0
  186.5720  178.8360  145.5760 C   0  0  0  0  0  3  0  0  0  0  0  0
  186.1030  178.3040  146.7760 C   0  0  0  0  0  3  0  0  0  0  0  0
  186.7950  178.4430  142.4390 C   0  0  0  0  0  2  0  0  0  0  0  0
  190.6240  175.9230  142.6980 N   0  0  1  0  0  0  0  0  0  0  0  0
  188.2730  175.4240  142.2600 C   0  0  2  0  0  3  0  0  0  0  0  0
  191.3090  175.7190  143.9740 C   0  0  2  0  0  3  0  0  0  0  0  0
  190.7070  173.5320  142.6940 O   0  0  0  0  0  1  0  0  0  0  0  0
  189.0980  176.0760  144.5850 C   0  0  2  0  0  3  0  0  0  0  0  0
  1 16  2  0  0  0  0
  1 21  1  0  0  0  0
  3 17  1  0  0  0  0
  5 27  1  1  0  0  0
  5 24  1  0  0  0  0
  6  1  1  0  0  0  0
  8 14  1  0  0  0  0
  8  7  1  1  0  0  0
  8  2  1  0  0  0  0
  9 18  2  0  0  0  0
  9 14  1  0  0  0  0
 10  8  1  0  0  0  0
 11 15  1  0  0  0  0
 12 28  1  0  0  0  0
 13  9  1  0  0  0  0
 15 23  1  0  0  0  0
 16 20  1  0  0  0  0
 17  5  1  0  0  0  0
 17 25  1  0  0  0  0
 19 25  1  0  0  0  0
 19 15  1  0  0  0  0
 20  4  2  0  0  0  0
 21 22  2  0  0  0  0
 22  4  1  0  0  0  0
 23  6  1  0  0  0  0
 24 12  1  0  0  0  0
 24 26  1  0  0  0  0
 25 12  1  0  0  0  0
 26 13  1  0  0  0  0
 26 10  1  0  0  0  0
 28 10  1  0  0  0  0
 28 16  1  0  0  0  0
M  END
>  <MODEL>
5

>  <REMARK>
 VINA RESULT:      -7.5      1.162      1.341
  Name = 
  0 active torsions:
  status: ('A' for Active; 'I' for Inactive)
                            x       y       z     vdW  Elec       q    Type
                         _______ _______ _______ _____ _____    ______ ____

>  <TORSDO>
F 0

$$$$
=
 OpenBabel11112417363D

 28 32  0  0  1  0  0  0  0  0999 V2000
  189.9570  173.3470  142.7960 C   0  0  0  0  0  0  0  0  0  0  0  0
  190.3050  175.8380  146.0070 O   0  0  0  0  0  1  0  0  0  0  0  0
  187.1240  177.8830  139.7350 O   0  0  0  0  0  1  0  0  0  0  0  0
  192.5320  174.2760  143.4070 C   0  0  0  0  0  3  0  0  0  0  0  0
  186.3470  177.3210  141.9570 C   0  0  1  0  0  3  0  0  0  0  0  0
  188.6420  172.8010  142.3330 C   0  0  0  0  0  2  0  0  0  0  0  0
  189.7190  178.0030  145.2380 C   0  0  0  0  0  1  0  0  0  0  0  0
  189.2130  176.6240  145.6420 C   0  0  1  0  0  0  0  0  0  0  0  0
  186.8080  176.9000  146.5830 C   0  0  0  0  0  0  0  0  0  0  0  0
  188.4480  175.9410  144.4970 C   0  0  1  0  0  3  0  0  0  0  0  0
  189.4420  173.4710  138.8420 N   0  0  0  0  0  1  0  0  0  0  0  0
  187.8230  175.5230  142.2910 C   0  0  1  0  0  3  0  0  0  0  0  0
  186.2950  176.6970  145.2600 N   0  0  0  0  0  2  0  0  0  0  0  0
  188.2920  176.7590  146.8780 C   0  0  0  0  0  2  0  0  0  0  0  0
  189.0320  173.8550  140.1240 N   0  0  0  0  0  0  0  0  0  0  0  0
  190.1600  174.7250  143.0770 C   0  0  0  0  0  0  0  0  0  0  0  0
  186.7770  176.8300  140.5840 C   0  0  2  0  0  3  0  0  0  0  0  0
  185.9630  177.0100  147.5950 C   0  0  0  0  0  2  0  0  0  0  0  0
  187.8640  174.7060  139.9500 C   0  0  0  0  0  2  0  0  0  0  0  0
  191.4580  175.1660  143.3690 C   0  0  0  0  0  3  0  0  0  0  0  0
  191.0430  172.4630  142.8370 C   0  0  0  0  0  3  0  0  0  0  0  0
  192.3230  172.9220  143.1480 C   0  0  0  0  0  3  0  0  0  0  0  0
  188.6130  172.6350  140.8100 C   0  0  0  0  0  2  0  0  0  0  0  0
  186.6970  176.2450  142.9040 N   0  0  1  0  0  0  0  0  0  0  0  0
  187.9670  175.9390  140.8390 C   0  0  2  0  0  3  0  0  0  0  0  0
  187.2370  176.7620  144.1600 C   0  0  2  0  0  3  0  0  0  0  0  0
  186.9940  178.5310  142.2630 O   0  0  0  0  0  1  0  0  0  0  0  0
  189.0730  175.7820  143.1330 C   0  0  2  0  0  3  0  0  0  0  0  0
  1 21  2  0  0  0  0
  1 16  1  0  0  0  0
  3 17  1  0  0  0  0
  5 27  1  1  0  0  0
  5 24  1  0  0  0  0
  6  1  1  0  0  0  0
  8  7  1  6  0  0  0
  8  2  1  0  0  0  0
  8 14  1  0  0  0  0
  9 14  1  0  0  0  0
  9 18  2  0  0  0  0
 10  8  1  0  0  0  0
 11 15  1  0  0  0  0
 12 24  1  0  0  0  0
 12 28  1  0  0  0  0
 13  9  1  0  0  0  0
 15 23  1  0  0  0  0
 16 28  1  0  0  0  0
 16 20  2  0  0  0  0
 17 25  1  0  0  0  0
 17  5  1  0  0  0  0
 19 15  1  0  0  0  0
 19 25  1  0  0  0  0
 20  4  1  0  0  0  0
 21 22  1  0  0  0  0
 22  4  2  0  0  0  0
 23  6  1  0  0  0  0
 24 26  1  0  0  0  0
 25 12  1  0  0  0  0
 26 10  1  0  0  0  0
 26 13  1  0  0  0  0
 28 10  1  0  0  0  0
M  END
>  <MODEL>
6

>  <REMARK>
 VINA RESULT:      -7.4      2.460      5.259
  Name = 
  0 active torsions:
  status: ('A' for Active; 'I' for Inactive)
                            x       y       z     vdW  Elec       q    Type
                         _______ _______ _______ _____ _____    ______ ____

>  <TORSDO>
F 0

$$$$
=
 OpenBabel11112417363D

 28 32  0  0  1  0  0  0  0  0999 V2000
  189.3710  176.5920  144.9180 C   0  0  0  0  0  0  0  0  0  0  0  0
  192.5530  174.2510  145.9370 O   0  0  0  0  0  1  0  0  0  0  0  0
  188.2460  172.7980  140.1940 O   0  0  0  0  0  1  0  0  0  0  0  0
  189.1220  175.0600  147.2550 C   0  0  0  0  0  3  0  0  0  0  0  0
  190.4930  173.6470  140.4910 C   0  0  1  0  0  3  0  0  0  0  0  0
  189.3490  177.4350  143.6820 C   0  0  0  0  0  2  0  0  0  0  0  0
  192.3700  172.2760  144.6380 C   0  0  0  0  0  1  0  0  0  0  0  0
  192.7300  173.7560  144.6450 C   0  0  1  0  0  0  0  0  0  0  0  0
  194.5160  174.1550  142.8030 C   0  0  0  0  0  0  0  0  0  0  0  0
  191.8600  174.5580  143.6640 C   0  0  1  0  0  3  0  0  0  0  0  0
  185.9430  176.4160  142.8860 N   0  0  0  0  0  1  0  0  0  0  0  0
  190.0010  175.0170  142.3350 C   0  0  1  0  0  3  0  0  0  0  0  0
  193.4590  174.4200  141.8720 N   0  0  0  0  0  2  0  0  0  0  0  0
  194.2230  173.9230  144.2750 C   0  0  0  0  0  2  0  0  0  0  0  0
  187.3270  176.2120  142.9360 N   0  0  0  0  0  0  0  0  0  0  0  0
  189.7520  175.2230  144.9070 C   0  0  0  0  0  0  0  0  0  0  0  0
  189.0020  173.9450  140.4470 C   0  0  2  0  0  3  0  0  0  0  0  0
  195.7720  174.3150  142.4180 C   0  0  0  0  0  2  0  0  0  0  0  0
  187.7170  175.6830  141.6360 C   0  0  0  0  0  2  0  0  0  0  0  0
  189.6090  174.4760  146.0850 C   0  0  0  0  0  3  0  0  0  0  0  0
  188.8840  177.1660  146.0990 C   0  0  0  0  0  3  0  0  0  0  0  0
  188.7660  176.4080  147.2640 C   0  0  0  0  0  3  0  0  0  0  0  0
  187.9360  177.5300  143.0970 C   0  0  0  0  0  2  0  0  0  0  0  0
  191.0800  174.6400  141.4100 N   0  0  1  0  0  0  0  0  0  0  0  0
  188.6730  174.5100  141.8060 C   0  0  2  0  0  3  0  0  0  0  0  0
  192.1120  174.0620  142.2700 C   0  0  2  0  0  3  0  0  0  0  0  0
  190.7110  172.3270  140.9230 O   0  0  0  0  0  1  0  0  0  0  0  0
  190.3540  174.4850  143.7250 C   0  0  2  0  0  3  0  0  0  0  0  0
  1 21  1  0  0  0  0
  3 17  1  0  0  0  0
  4 22  1  0  0  0  0
  5 27  1  1  0  0  0
  5 24  1  0  0  0  0
  6  1  1  0  0  0  0
  8  7  1  6  0  0  0
  8  2  1  0  0  0  0
  9 14  1  0  0  0  0
 10 28  1  0  0  0  0
 10  8  1  0  0  0  0
 11 15  1  0  0  0  0
 12 28  1  0  0  0  0
 13 26  1  0  0  0  0
 13  9  1  0  0  0  0
 14  8  1  0  0  0  0
 15 23  1  0  0  0  0
 16  1  2  0  0  0  0
 16 20  1  0  0  0  0
 17  5  1  0  0  0  0
 17 25  1  0  0  0  0
 18  9  2  0  0  0  0
 19 25  1  0  0  0  0
 19 15  1  0  0  0  0
 20  4  2  0  0  0  0
 21 22  2  0  0  0  0
 23  6  1  0  0  0  0
 24 26  1  0  0  0  0
 24 12  1  0  0  0  0
 25 12  1  0  0  0  0
 26 10  1  0  0  0  0
 28 16  1  0  0  0  0
M  END
>  <MODEL>
7

>  <REMARK>
 VINA RESULT:      -7.4      2.509      3.626
  Name = 
  0 active torsions:
  status: ('A' for Active; 'I' for Inactive)
                            x       y       z     vdW  Elec       q    Type
                         _______ _______ _______ _____ _____    ______ ____

>  <TORSDO>
F 0

$$$$
=
 OpenBabel11112417363D

 28 32  0  0  1  0  0  0  0  0999 V2000
  191.3410  174.3180  144.9560 C   0  0  0  0  0  0  0  0  0  0  0  0
  189.6170  177.9830  144.4700 O   0  0  0  0  0  1  0  0  0  0  0  0
  189.7640  172.9410  139.1600 O   0  0  0  0  0  1  0  0  0  0  0  0
  193.0680  176.5240  144.8160 C   0  0  0  0  0  3  0  0  0  0  0  0
  188.0720  173.8330  140.6430 C   0  0  1  0  0  3  0  0  0  0  0  0
  190.5470  173.0510  145.0130 C   0  0  0  0  0  2  0  0  0  0  0  0
  189.1650  178.2050  142.1530 C   0  0  0  0  0  1  0  0  0  0  0  0
  188.7500  177.5530  143.4660 C   0  0  1  0  0  0  0  0  0  0  0  0
  186.1920  177.1200  143.3710 C   0  0  0  0  0  0  0  0  0  0  0  0
  188.7890  176.0190  143.3760 C   0  0  1  0  0  3  0  0  0  0  0  0
  192.8830  171.3300  142.8090 N   0  0  0  0  0  1  0  0  0  0  0  0
  189.4400  173.9390  142.5490 C   0  0  1  0  0  3  0  0  0  0  0  0
  186.4570  175.8260  142.8150 N   0  0  0  0  0  2  0  0  0  0  0  0
  187.3230  178.0190  143.8410 C   0  0  0  0  0  2  0  0  0  0  0  0
  191.8260  172.2120  143.0630 N   0  0  0  0  0  0  0  0  0  0  0  0
  191.1520  175.2970  143.9430 C   0  0  0  0  0  0  0  0  0  0  0  0
  189.2080  172.8440  140.4380 C   0  0  2  0  0  3  0  0  0  0  0  0
  184.9450  177.4540  143.6660 C   0  0  0  0  0  2  0  0  0  0  0  0
  190.7880  171.9100  142.0880 C   0  0  0  0  0  2  0  0  0  0  0  0
  192.0350  176.3850  143.8890 C   0  0  0  0  0  3  0  0  0  0  0  0
  192.3820  174.4690  145.8810 C   0  0  0  0  0  3  0  0  0  0  0  0
  193.2370  175.5690  145.8180 C   0  0  0  0  0  3  0  0  0  0  0  0
  191.3180  171.8810  144.3930 C   0  0  0  0  0  2  0  0  0  0  0  0
  188.0610  174.1500  142.0830 N   0  0  1  0  0  0  0  0  0  0  0  0
  190.2300  173.1950  141.4900 C   0  0  2  0  0  3  0  0  0  0  0  0
  187.8020  175.5660  142.3400 C   0  0  2  0  0  3  0  0  0  0  0  0
  188.2730  174.9740  139.8480 O   0  0  0  0  0  1  0  0  0  0  0  0
  190.0340  175.3000  142.9180 C   0  0  2  0  0  3  0  0  0  0  0  0
  1  6  1  0  0  0  0
  1 21  1  0  0  0  0
  3 17  1  0  0  0  0
  4 22  1  0  0  0  0
  5 27  1  6  0  0  0
  5 24  1  0  0  0  0
  8  7  1  6  0  0  0
  8 14  1  0  0  0  0
  8  2  1  0  0  0  0
  9 18  2  0  0  0  0
  9 14  1  0  0  0  0
 10  8  1  0  0  0  0
 11 15  1  0  0  0  0
 12 28  1  0  0  0  0
 13  9  1  0  0  0  0
 15 23  1  0  0  0  0
 16  1  2  0  0  0  0
 17  5  1  0  0  0  0
 17 25  1  0  0  0  0
 19 15  1  0  0  0  0
 20 16  1  0  0  0  0
 20  4  2  0  0  0  0
 22 21  2  0  0  0  0
 23  6  1  0  0  0  0
 24 26  1  0  0  0  0
 24 12  1  0  0  0  0
 25 19  1  0  0  0  0
 25 12  1  0  0  0  0
 26 13  1  0  0  0  0
 26 10  1  0  0  0  0
 28 10  1  0  0  0  0
 28 16  1  0  0  0  0
M  END
>  <MODEL>
8

>  <REMARK>
 VINA RESULT:      -7.3      2.442      5.988
  Name = 
  0 active torsions:
  status: ('A' for Active; 'I' for Inactive)
                            x       y       z     vdW  Elec       q    Type
                         _______ _______ _______ _____ _____    ______ ____

>  <TORSDO>
F 0

$$$$
=
 OpenBabel11112417363D

 28 32  0  0  1  0  0  0  0  0999 V2000
  192.3090  172.9650  144.2920 C   0  0  0  0  0  0  0  0  0  0  0  0
  191.8940  176.7660  145.7140 O   0  0  0  0  0  1  0  0  0  0  0  0
  188.6720  174.4710  139.5500 O   0  0  0  0  0  1  0  0  0  0  0  0
  194.5610  174.6300  144.1380 C   0  0  0  0  0  3  0  0  0  0  0  0
  187.9270  174.9880  141.7950 C   0  0  1  0  0  3  0  0  0  0  0  0
  191.1830  171.9780  144.2800 C   0  0  0  0  0  2  0  0  0  0  0  0
  190.8650  178.0170  143.9830 C   0  0  0  0  0  1  0  0  0  0  0  0
  190.6710  176.9770  145.0790 C   0  0  1  0  0  0  0  0  0  0  0  0
  188.2200  177.1500  145.9200 C   0  0  0  0  0  0  0  0  0  0  0  0
  190.1490  175.6460  144.5140 C   0  0  1  0  0  3  0  0  0  0  0  0
  191.9950  170.8950  140.8970 N   0  0  0  0  0  1  0  0  0  0  0  0
  189.7590  174.0130  142.8970 C   0  0  1  0  0  3  0  0  0  0  0  0
  187.8410  176.1800  144.9360 N   0  0  0  0  0  2  0  0  0  0  0  0
  189.6770  177.5230  146.1320 C   0  0  0  0  0  2  0  0  0  0  0  0
  191.4380  171.7860  141.8220 N   0  0  0  0  0  0  0  0  0  0  0  0
  192.1710  174.2920  143.8030 C   0  0  0  0  0  0  0  0  0  0  0  0
  188.5330  173.9660  140.8450 C   0  0  2  0  0  3  0  0  0  0  0  0
  187.3180  177.5760  146.7900 C   0  0  0  0  0  2  0  0  0  0  0  0
  190.1150  172.1330  141.3210 C   0  0  0  0  0  2  0  0  0  0  0  0
  193.3130  175.1010  143.7260 C   0  0  0  0  0  3  0  0  0  0  0  0
  193.5660  172.5040  144.7020 C   0  0  0  0  0  3  0  0  0  0  0  0
  194.6860  173.3330  144.6330 C   0  0  0  0  0  3  0  0  0  0  0  0
  191.2760  171.0430  143.0700 C   0  0  0  0  0  2  0  0  0  0  0  0
  188.4650  174.6730  143.1310 N   0  0  1  0  0  0  0  0  0  0  0  0
  189.8820  173.6340  141.4340 C   0  0  2  0  0  3  0  0  0  0  0  0
  188.8010  175.8740  143.8940 C   0  0  2  0  0  3  0  0  0  0  0  0
  188.2580  176.2900  141.3810 O   0  0  0  0  0  1  0  0  0  0  0  0
  190.8680  174.9470  143.3860 C   0  0  2  0  0  3  0  0  0  0  0  0
  1 21  1  0  0  0  0
  3 17  1  0  0  0  0
  4 22  1  0  0  0  0
  5 27  1  6  0  0  0
  5 24  1  0  0  0  0
  6  1  1  0  0  0  0
  8  7  1  6  0  0  0
  8  2  1  0  0  0  0
  8 14  1  0  0  0  0
  9 14  1  0  0  0  0
  9 18  2  0  0  0  0
 10  8  1  0  0  0  0
 11 15  1  0  0  0  0
 12 24  1  0  0  0  0
 12 28  1  0  0  0  0
 13  9  1  0  0  0  0
 15 23  1  0  0  0  0
 16  1  2  0  0  0  0
 17 25  1  0  0  0  0
 17  5  1  0  0  0  0
 19 25  1  0  0  0  0
 19 15  1  0  0  0  0
 20 16  1  0  0  0  0
 20  4  2  0  0  0  0
 22 21  2  0  0  0  0
 23  6  1  0  0  0  0
 24 26  1  0  0  0  0
 25 12  1  0  0  0  0
 26 10  1  0  0  0  0
 26 13  1  0  0  0  0
 28 16  1  0  0  0  0
 28 10  1  0  0  0  0
M  END
>  <MODEL>
9

>  <REMARK>
 VINA RESULT:      -7.1      2.932      6.110
  Name = 
  0 active torsions:
  status: ('A' for Active; 'I' for Inactive)
                            x       y       z     vdW  Elec       q    Type
                         _______ _______ _______ _____ _____    ______ ____

>  <TORSDO>
F 0

$$$$
