=
 OpenBabel11112416253D

 30 35  0  0  1  0  0  0  0  0999 V2000
  188.2670  176.3250  141.8870 C   0  0  2  0  0  3  0  0  0  0  0  0
  189.2640  174.0730  141.2140 C   0  0  0  0  0  0  0  0  0  0  0  0
  189.0750  175.2750  145.8630 O   0  0  0  0  0  0  0  0  0  0  0  0
  187.5350  176.9020  143.1120 C   0  0  2  0  0  3  0  0  0  0  0  0
  187.3060  176.1080  140.8730 O   0  0  0  0  0  0  0  0  0  0  0  0
  185.1040  178.6630  141.2690 O   0  0  0  0  0  0  0  0  0  0  0  0
  185.2620  178.0170  144.6910 C   0  0  1  0  0  3  0  0  0  0  0  0
  186.1960  178.1420  141.4500 C   0  0  0  0  0  0  0  0  0  0  0  0
  185.9560  176.8520  145.4300 C   0  0  2  0  0  3  0  0  0  0  0  0
  188.0630  175.9550  146.4990 C   0  0  0  0  0  0  0  0  0  0  0  0
  186.9020  177.3610  140.3670 C   0  0  2  0  0  3  0  0  0  0  0  0
  186.9470  178.2720  142.7490 C   0  0  1  0  0  3  0  0  0  0  0  0
  189.9380  172.8920  141.5330 C   0  0  0  0  0  3  0  0  0  0  0  0
  185.1820  176.7130  146.7290 C   0  0  0  0  0  2  0  0  0  0  0  0
  184.4590  178.7850  145.7320 C   0  0  0  0  0  2  0  0  0  0  0  0
  188.8960  174.2840  139.8900 O   0  0  0  0  0  1  0  0  0  0  0  0
  189.3830  175.8510  144.6070 C   0  0  2  0  0  3  0  0  0  0  0  0
  190.3740  172.6600  142.8340 C   0  0  0  0  0  3  0  0  0  0  0  0
  188.9810  175.0300  142.2190 C   0  0  0  0  0  0  0  0  0  0  0  0
  188.3600  176.9910  144.3990 C   0  0  2  0  0  3  0  0  0  0  0  0
  187.7190  175.6920  147.6810 O   0  0  0  0  0  0  0  0  0  0  0  0
  187.4820  177.0540  145.6840 C   0  0  1  0  0  3  0  0  0  0  0  0
  184.6820  178.0990  147.0620 C   0  0  0  0  0  2  0  0  0  0  0  0
  185.5600  180.1190  143.5020 O   0  0  0  0  0  1  0  0  0  0  0  0
  190.1520  173.6180  143.8200 C   0  0  0  0  0  3  0  0  0  0  0  0
  189.4600  174.8010  143.5310 C   0  0  0  0  0  0  0  0  0  0  0  0
  186.2070  178.9520  143.9190 C   0  0  1  0  0  3  0  0  0  0  0  0
  186.0270  177.1610  139.1370 C   0  0  0  0  0  2  0  0  0  0  0  0
  185.9060  176.0110  137.0610 O   0  0  0  0  0  1  0  0  0  0  0  0
  186.7850  176.3930  138.0730 C   0  0  0  0  0  2  0  0  0  0  0  0
  1  5  1  6  0  0  0
  1 19  1  0  0  0  0
  1  4  1  0  0  0  0
  2 13  2  0  0  0  0
  2 19  1  0  0  0  0
  3 10  1  0  0  0  0
  4 20  1  0  0  0  0
  6  8  2  0  0  0  0
  7  9  1  0  0  0  0
  7 15  1  0  0  0  0
  8 12  1  0  0  0  0
  9 22  1  0  0  0  0
  9 14  1  0  0  0  0
 10 21  2  0  0  0  0
 11  5  1  0  0  0  0
 11  8  1  0  0  0  0
 12  4  1  0  0  0  0
 12 27  1  0  0  0  0
 13 18  1  0  0  0  0
 14 23  1  0  0  0  0
 15 23  1  0  0  0  0
 16  2  1  0  0  0  0
 17  3  1  0  0  0  0
 18 25  2  0  0  0  0
 19 26  2  0  0  0  0
 20 17  1  0  0  0  0
 20 22  1  0  0  0  0
 22 10  1  0  0  0  0
 24 27  1  0  0  0  0
 26 25  1  0  0  0  0
 26 17  1  0  0  0  0
 27  7  1  0  0  0  0
 28 11  1  0  0  0  0
 29 30  1  0  0  0  0
 30 28  1  0  0  0  0
M  END
>  <MODEL>
1

>  <REMARK>
 VINA RESULT:      -9.0      0.000      0.000
  Name = 
  2 active torsions:
  status: ('A' for Active; 'I' for Inactive)
    1  A    between atoms: C_11  and  C_28
    2  A    between atoms: C_28  and  C_30
                            x       y       z     vdW  Elec       q    Type
                         _______ _______ _______ _____ _____    ______ ____

>  <TORSDO>
F 2

$$$$
=
 OpenBabel11112416253D

 30 35  0  0  1  0  0  0  0  0999 V2000
  186.9400  177.3930  144.0150 C   0  0  2  0  0  3  0  0  0  0  0  0
  184.7380  178.2370  143.0410 C   0  0  0  0  0  0  0  0  0  0  0  0
  187.8080  175.8550  140.2150 O   0  0  0  0  0  0  0  0  0  0  0  0
  187.9110  176.2300  143.7420 C   0  0  2  0  0  3  0  0  0  0  0  0
  186.2060  177.0750  145.1820 O   0  0  0  0  0  0  0  0  0  0  0  0
  188.4350  175.4060  147.1260 O   0  0  0  0  0  0  0  0  0  0  0  0
  189.3560  173.6690  144.2480 C   0  0  1  0  0  3  0  0  0  0  0  0
  188.1610  176.1520  146.1960 C   0  0  0  0  0  0  0  0  0  0  0  0
  188.7070  173.6930  142.8460 C   0  0  2  0  0  3  0  0  0  0  0  0
  188.5870  174.7770  140.5670 C   0  0  0  0  0  0  0  0  0  0  0  0
  187.0670  177.1890  146.2940 C   0  0  2  0  0  3  0  0  0  0  0  0
  188.9190  176.1310  144.8940 C   0  0  1  0  0  3  0  0  0  0  0  0
  183.8890  178.4590  141.9540 C   0  0  0  0  0  3  0  0  0  0  0  0
  189.0640  172.3470  142.2400 C   0  0  0  0  0  2  0  0  0  0  0  0
  190.4120  172.5710  144.2260 C   0  0  0  0  0  2  0  0  0  0  0  0
  184.3140  178.6450  144.3010 O   0  0  0  0  0  1  0  0  0  0  0  0
  187.8120  176.8520  141.2200 C   0  0  2  0  0  3  0  0  0  0  0  0
  184.2900  178.1180  140.6660 C   0  0  0  0  0  3  0  0  0  0  0  0
  186.0000  177.6250  142.8500 C   0  0  0  0  0  0  0  0  0  0  0  0
  188.6360  176.2720  142.3920 C   0  0  2  0  0  3  0  0  0  0  0  0
  188.8280  173.8350  139.7660 O   0  0  0  0  0  0  0  0  0  0  0  0
  189.1570  174.8770  141.9360 C   0  0  1  0  0  3  0  0  0  0  0  0
  190.3970  171.9660  142.8400 C   0  0  0  0  0  2  0  0  0  0  0  0
  190.7540  174.8560  145.8480 O   0  0  0  0  0  1  0  0  0  0  0  0
  185.5520  177.5660  140.4570 C   0  0  0  0  0  3  0  0  0  0  0  0
  186.4130  177.3140  141.5330 C   0  0  0  0  0  0  0  0  0  0  0  0
  189.9580  175.0070  144.7080 C   0  0  1  0  0  3  0  0  0  0  0  0
  186.2630  177.0580  147.5810 C   0  0  0  0  0  2  0  0  0  0  0  0
  185.8640  179.4000  147.6040 O   0  0  0  0  0  1  0  0  0  0  0  0
  185.2280  178.1620  147.6680 C   0  0  0  0  0  2  0  0  0  0  0  0
  1 19  1  6  0  0  0
  1  5  1  0  0  0  0
  2 16  1  0  0  0  0
  3 10  1  0  0  0  0
  3 17  1  0  0  0  0
  4  1  1  0  0  0  0
  4 12  1  0  0  0  0
  5 11  1  0  0  0  0
  7 27  1  0  0  0  0
  8 11  1  0  0  0  0
  8  6  2  0  0  0  0
  9  7  1  0  0  0  0
 10 22  1  0  0  0  0
 11 28  1  0  0  0  0
 12  8  1  0  0  0  0
 13  2  2  0  0  0  0
 14 23  1  0  0  0  0
 14  9  1  0  0  0  0
 15  7  1  0  0  0  0
 17 26  1  0  0  0  0
 17 20  1  0  0  0  0
 18 13  1  0  0  0  0
 19  2  1  0  0  0  0
 20  4  1  0  0  0  0
 21 10  2  0  0  0  0
 22 20  1  0  0  0  0
 22  9  1  0  0  0  0
 23 15  1  0  0  0  0
 25 18  2  0  0  0  0
 25 26  1  0  0  0  0
 26 19  2  0  0  0  0
 27 12  1  0  0  0  0
 27 24  1  0  0  0  0
 28 30  1  0  0  0  0
 29 30  1  0  0  0  0
M  END
>  <MODEL>
2

>  <REMARK>
 VINA RESULT:      -8.7      1.539      6.652
  Name = 
  2 active torsions:
  status: ('A' for Active; 'I' for Inactive)
    1  A    between atoms: C_11  and  C_28
    2  A    between atoms: C_28  and  C_30
                            x       y       z     vdW  Elec       q    Type
                         _______ _______ _______ _____ _____    ______ ____

>  <TORSDO>
F 2

$$$$
=
 OpenBabel11112416253D

 30 35  0  0  1  0  0  0  0  0999 V2000
  187.7430  175.5720  142.8420 C   0  0  2  0  0  3  0  0  0  0  0  0
  186.3590  177.5840  142.1020 C   0  0  0  0  0  0  0  0  0  0  0  0
  188.3060  177.5470  146.4940 O   0  0  0  0  0  0  0  0  0  0  0  0
  188.9160  175.3150  143.8050 C   0  0  2  0  0  3  0  0  0  0  0  0
  188.2540  175.5440  141.5240 O   0  0  0  0  0  0  0  0  0  0  0  0
  190.6900  173.1800  141.6370 O   0  0  0  0  0  0  0  0  0  0  0  0
  191.6980  174.6340  144.6400 C   0  0  1  0  0  3  0  0  0  0  0  0
  189.6880  173.7200  142.0880 C   0  0  0  0  0  0  0  0  0  0  0  0
  191.2040  175.9380  145.3040 C   0  0  2  0  0  3  0  0  0  0  0  0
  189.5390  177.0500  146.8460 C   0  0  0  0  0  0  0  0  0  0  0  0
  188.5710  174.2080  141.1970 C   0  0  2  0  0  3  0  0  0  0  0  0
  189.4660  173.9020  143.5660 C   0  0  1  0  0  3  0  0  0  0  0  0
  185.7320  178.8020  142.3750 C   0  0  0  0  0  3  0  0  0  0  0  0
  192.3730  176.3940  146.1600 C   0  0  0  0  0  2  0  0  0  0  0  0
  192.8900  174.1480  145.4550 C   0  0  0  0  0  2  0  0  0  0  0  0
  186.2500  177.0620  140.8170 O   0  0  0  0  0  1  0  0  0  0  0  0
  187.6290  176.6810  145.6030 C   0  0  2  0  0  3  0  0  0  0  0  0
  185.7670  179.3390  143.6590 C   0  0  0  0  0  3  0  0  0  0  0  0
  187.0720  176.9020  143.1170 C   0  0  0  0  0  0  0  0  0  0  0  0
  188.6160  175.5330  145.2920 C   0  0  2  0  0  3  0  0  0  0  0  0
  190.2540  177.5950  147.7280 O   0  0  0  0  0  0  0  0  0  0  0  0
  189.8960  175.7910  146.1410 C   0  0  1  0  0  3  0  0  0  0  0  0
  193.0900  175.1340  146.5840 C   0  0  0  0  0  2  0  0  0  0  0  0
  191.2020  172.3040  144.1440 O   0  0  0  0  0  1  0  0  0  0  0  0
  186.4170  178.6510  144.6800 C   0  0  0  0  0  3  0  0  0  0  0  0
  187.0720  177.4390  144.4260 C   0  0  0  0  0  0  0  0  0  0  0  0
  190.6360  173.5320  144.5000 C   0  0  1  0  0  3  0  0  0  0  0  0
  188.9270  174.1110  139.7200 C   0  0  0  0  0  2  0  0  0  0  0  0
  189.0850  171.8480  139.0110 O   0  0  0  0  0  1  0  0  0  0  0  0
  188.2140  172.9340  139.0840 C   0  0  0  0  0  2  0  0  0  0  0  0
  1  5  1  6  0  0  0
  1 19  1  0  0  0  0
  1  4  1  0  0  0  0
  2 13  2  0  0  0  0
  2 19  1  0  0  0  0
  3 10  1  0  0  0  0
  4 20  1  0  0  0  0
  6  8  2  0  0  0  0
  7  9  1  0  0  0  0
  7 15  1  0  0  0  0
  8 12  1  0  0  0  0
  9 22  1  0  0  0  0
  9 14  1  0  0  0  0
 10 21  2  0  0  0  0
 11  5  1  0  0  0  0
 11  8  1  0  0  0  0
 12  4  1  0  0  0  0
 12 27  1  0  0  0  0
 13 18  1  0  0  0  0
 14 23  1  0  0  0  0
 15 23  1  0  0  0  0
 16  2  1  0  0  0  0
 17  3  1  0  0  0  0
 18 25  2  0  0  0  0
 19 26  2  0  0  0  0
 20 17  1  0  0  0  0
 20 22  1  0  0  0  0
 22 10  1  0  0  0  0
 24 27  1  0  0  0  0
 26 25  1  0  0  0  0
 26 17  1  0  0  0  0
 27  7  1  0  0  0  0
 28 11  1  0  0  0  0
 29 30  1  0  0  0  0
 30 28  1  0  0  0  0
M  END
>  <MODEL>
3

>  <REMARK>
 VINA RESULT:      -8.5      2.042      5.500
  Name = 
  2 active torsions:
  status: ('A' for Active; 'I' for Inactive)
    1  A    between atoms: C_11  and  C_28
    2  A    between atoms: C_28  and  C_30
                            x       y       z     vdW  Elec       q    Type
                         _______ _______ _______ _____ _____    ______ ____

>  <TORSDO>
F 2

$$$$
=
 OpenBabel11112416253D

 30 35  0  0  1  0  0  0  0  0999 V2000
  186.3370  176.8460  144.2230 C   0  0  2  0  0  3  0  0  0  0  0  0
  184.9880  178.4170  145.7150 C   0  0  0  0  0  0  0  0  0  0  0  0
  189.0580  176.4880  147.3900 O   0  0  0  0  0  0  0  0  0  0  0  0
  187.8150  176.4480  144.0670 C   0  0  2  0  0  3  0  0  0  0  0  0
  186.0090  177.7150  143.1560 O   0  0  0  0  0  0  0  0  0  0  0  0
  187.8310  176.5300  140.5460 O   0  0  0  0  0  0  0  0  0  0  0  0
  190.4980  176.2630  142.7740 C   0  0  1  0  0  3  0  0  0  0  0  0
  187.3190  176.4030  141.6500 C   0  0  0  0  0  0  0  0  0  0  0  0
  190.5990  176.7550  144.2350 C   0  0  2  0  0  3  0  0  0  0  0  0
  190.2170  176.2650  146.6840 C   0  0  0  0  0  0  0  0  0  0  0  0
  185.9500  176.9560  141.9680 C   0  0  2  0  0  3  0  0  0  0  0  0
  187.9890  175.6490  142.7690 C   0  0  1  0  0  3  0  0  0  0  0  0
  184.7510  179.0240  146.9520 C   0  0  0  0  0  3  0  0  0  0  0  0
  192.0860  176.9680  144.4610 C   0  0  0  0  0  2  0  0  0  0  0  0
  191.8850  175.7760  142.3750 C   0  0  0  0  0  2  0  0  0  0  0  0
  184.1210  178.7020  144.6660 O   0  0  0  0  0  1  0  0  0  0  0  0
  187.9130  176.1210  146.6430 C   0  0  2  0  0  3  0  0  0  0  0  0
  185.5580  178.7290  148.0460 C   0  0  0  0  0  3  0  0  0  0  0  0
  186.0770  177.5260  145.5520 C   0  0  0  0  0  0  0  0  0  0  0  0
  188.4300  175.6950  145.2510 C   0  0  2  0  0  3  0  0  0  0  0  0
  191.3550  176.4000  147.2050 O   0  0  0  0  0  0  0  0  0  0  0  0
  189.9850  175.7900  145.2950 C   0  0  1  0  0  3  0  0  0  0  0  0
  192.7860  175.9630  143.5770 C   0  0  0  0  0  2  0  0  0  0  0  0
  189.5770  174.5930  141.2630 O   0  0  0  0  0  1  0  0  0  0  0  0
  186.5980  177.8120  147.9140 C   0  0  0  0  0  3  0  0  0  0  0  0
  186.8690  177.2060  146.6800 C   0  0  0  0  0  0  0  0  0  0  0  0
  189.4370  175.1790  142.5250 C   0  0  1  0  0  3  0  0  0  0  0  0
  185.3990  177.8150  140.8370 C   0  0  0  0  0  2  0  0  0  0  0  0
  183.1290  177.9180  140.1420 O   0  0  0  0  0  1  0  0  0  0  0  0
  183.9950  178.2820  141.1700 C   0  0  0  0  0  2  0  0  0  0  0  0
  1  5  1  6  0  0  0
  1 19  1  0  0  0  0
  2 13  1  0  0  0  0
  4  1  1  0  0  0  0
  4 20  1  0  0  0  0
  6  8  2  0  0  0  0
  7  9  1  0  0  0  0
  8 11  1  0  0  0  0
  8 12  1  0  0  0  0
  9 14  1  0  0  0  0
  9 22  1  0  0  0  0
 10 21  2  0  0  0  0
 10  3  1  0  0  0  0
 11  5  1  0  0  0  0
 12  4  1  0  0  0  0
 13 18  2  0  0  0  0
 15  7  1  0  0  0  0
 15 23  1  0  0  0  0
 16  2  1  0  0  0  0
 17 26  1  0  0  0  0
 17  3  1  0  0  0  0
 19  2  2  0  0  0  0
 19 26  1  0  0  0  0
 20 22  1  0  0  0  0
 20 17  1  0  0  0  0
 22 10  1  0  0  0  0
 23 14  1  0  0  0  0
 24 27  1  0  0  0  0
 25 18  1  0  0  0  0
 26 25  2  0  0  0  0
 27 12  1  0  0  0  0
 27  7  1  0  0  0  0
 28 30  1  0  0  0  0
 28 11  1  0  0  0  0
 29 30  1  0  0  0  0
M  END
>  <MODEL>
4

>  <REMARK>
 VINA RESULT:      -8.4      1.799      5.411
  Name = 
  2 active torsions:
  status: ('A' for Active; 'I' for Inactive)
    1  A    between atoms: C_11  and  C_28
    2  A    between atoms: C_28  and  C_30
                            x       y       z     vdW  Elec       q    Type
                         _______ _______ _______ _____ _____    ______ ____

>  <TORSDO>
F 2

$$$$
=
 OpenBabel11112416253D

 30 35  0  0  1  0  0  0  0  0999 V2000
  188.2710  177.2670  145.1720 C   0  0  2  0  0  3  0  0  0  0  0  0
  186.1540  178.0010  146.3940 C   0  0  0  0  0  0  0  0  0  0  0  0
  186.2810  178.1530  141.5930 O   0  0  0  0  0  0  0  0  0  0  0  0
  188.6170  176.6540  143.8030 C   0  0  2  0  0  3  0  0  0  0  0  0
  188.3740  176.2420  146.1420 O   0  0  0  0  0  0  0  0  0  0  0  0
  190.9530  174.3270  145.0400 O   0  0  0  0  0  0  0  0  0  0  0  0
  189.5370  174.5810  141.8650 C   0  0  1  0  0  3  0  0  0  0  0  0
  190.3130  175.3690  145.0540 C   0  0  0  0  0  0  0  0  0  0  0  0
  188.1790  175.1900  141.4510 C   0  0  2  0  0  3  0  0  0  0  0  0
  186.8840  177.2450  140.7540 C   0  0  0  0  0  0  0  0  0  0  0  0
  189.7400  175.9420  146.3290 C   0  0  2  0  0  3  0  0  0  0  0  0
  190.0790  176.1890  143.8120 C   0  0  1  0  0  3  0  0  0  0  0  0
  184.8770  178.5690  146.3910 C   0  0  0  0  0  3  0  0  0  0  0  0
  187.8160  174.4670  140.1650 C   0  0  0  0  0  2  0  0  0  0  0  0
  190.1150  173.9080  140.6270 C   0  0  0  0  0  2  0  0  0  0  0  0
  186.6910  177.5940  147.6100 O   0  0  0  0  0  1  0  0  0  0  0  0
  187.0990  178.4570  142.7080 C   0  0  2  0  0  3  0  0  0  0  0  0
  184.3190  179.0410  145.2070 C   0  0  0  0  0  3  0  0  0  0  0  0
  186.8790  177.8630  145.1850 C   0  0  0  0  0  0  0  0  0  0  0  0
  188.3400  177.5440  142.5880 C   0  0  2  0  0  3  0  0  0  0  0  0
  186.3900  176.9320  139.6390 O   0  0  0  0  0  0  0  0  0  0  0  0
  188.1850  176.7380  141.2630 C   0  0  1  0  0  3  0  0  0  0  0  0
  189.1290  174.1250  139.5000 C   0  0  0  0  0  2  0  0  0  0  0  0
  191.8200  175.0310  142.5770 O   0  0  0  0  0  1  0  0  0  0  0  0
  185.0430  178.9620  144.0200 C   0  0  0  0  0  3  0  0  0  0  0  0
  186.3170  178.3790  143.9930 C   0  0  0  0  0  0  0  0  0  0  0  0
  190.5370  175.5770  142.4730 C   0  0  1  0  0  3  0  0  0  0  0  0
  189.9010  174.9940  147.5100 C   0  0  0  0  0  2  0  0  0  0  0  0
  191.4540  176.6580  148.1930 O   0  0  0  0  0  1  0  0  0  0  0  0
  191.1910  175.2910  148.2480 C   0  0  0  0  0  2  0  0  0  0  0  0
  1 19  1  6  0  0  0
  1  5  1  0  0  0  0
  2 16  1  0  0  0  0
  3 17  1  0  0  0  0
  4 12  1  0  0  0  0
  4  1  1  0  0  0  0
  5 11  1  0  0  0  0
  6  8  2  0  0  0  0
  7 27  1  0  0  0  0
  8 11  1  0  0  0  0
  9  7  1  0  0  0  0
 10 22  1  0  0  0  0
 10  3  1  0  0  0  0
 11 28  1  0  0  0  0
 12  8  1  0  0  0  0
 13  2  1  0  0  0  0
 14  9  1  0  0  0  0
 15  7  1  0  0  0  0
 17 26  1  0  0  0  0
 18 13  2  0  0  0  0
 19  2  2  0  0  0  0
 20 17  1  0  0  0  0
 20  4  1  0  0  0  0
 21 10  2  0  0  0  0
 22  9  1  0  0  0  0
 22 20  1  0  0  0  0
 23 14  1  0  0  0  0
 23 15  1  0  0  0  0
 25 18  1  0  0  0  0
 26 25  2  0  0  0  0
 26 19  1  0  0  0  0
 27 24  1  0  0  0  0
 27 12  1  0  0  0  0
 28 30  1  0  0  0  0
 29 30  1  0  0  0  0
M  END
>  <MODEL>
5

>  <REMARK>
 VINA RESULT:      -8.4      1.743      7.153
  Name = 
  2 active torsions:
  status: ('A' for Active; 'I' for Inactive)
    1  A    between atoms: C_11  and  C_28
    2  A    between atoms: C_28  and  C_30
                            x       y       z     vdW  Elec       q    Type
                         _______ _______ _______ _____ _____    ______ ____

>  <TORSDO>
F 2

$$$$
=
 OpenBabel11112416253D

 30 35  0  0  1  0  0  0  0  0999 V2000
  190.0940  176.1080  145.2590 C   0  0  2  0  0  3  0  0  0  0  0  0
  192.5340  176.1190  144.5120 C   0  0  0  0  0  0  0  0  0  0  0  0
  189.0770  175.3340  141.2690 O   0  0  0  0  0  0  0  0  0  0  0  0
  188.7290  176.4300  144.6250 C   0  0  2  0  0  3  0  0  0  0  0  0
  190.4380  177.1840  146.1110 O   0  0  0  0  0  0  0  0  0  0  0  0
  187.4610  178.1960  147.3960 O   0  0  0  0  0  0  0  0  0  0  0  0
  186.1880  177.9250  144.1630 C   0  0  1  0  0  3  0  0  0  0  0  0
  188.1700  177.3690  146.8380 C   0  0  0  0  0  0  0  0  0  0  0  0
  186.9390  177.6490  142.8410 C   0  0  2  0  0  3  0  0  0  0  0  0
  187.8420  175.9380  141.2160 C   0  0  0  0  0  0  0  0  0  0  0  0
  189.6040  177.1340  147.2490 C   0  0  2  0  0  3  0  0  0  0  0  0
  187.6620  176.4900  145.7260 C   0  0  1  0  0  3  0  0  0  0  0  0
  193.5130  175.9140  143.5370 C   0  0  0  0  0  3  0  0  0  0  0  0
  186.0620  178.2730  141.7700 C   0  0  0  0  0  2  0  0  0  0  0  0
  184.7490  178.2590  143.7920 C   0  0  0  0  0  2  0  0  0  0  0  0
  192.9410  176.5200  145.7800 O   0  0  0  0  0  1  0  0  0  0  0  0
  189.4240  174.9690  142.5910 C   0  0  2  0  0  3  0  0  0  0  0  0
  193.1610  175.4600  142.2700 C   0  0  0  0  0  3  0  0  0  0  0  0
  191.1670  175.9070  144.2090 C   0  0  0  0  0  0  0  0  0  0  0  0
  188.2860  175.4980  143.4920 C   0  0  2  0  0  3  0  0  0  0  0  0
  187.2830  176.2260  140.1250 O   0  0  0  0  0  0  0  0  0  0  0  0
  187.2240  176.1430  142.5520 C   0  0  1  0  0  3  0  0  0  0  0  0
  184.6450  178.1700  142.2850 C   0  0  0  0  0  2  0  0  0  0  0  0
  185.3390  176.9820  146.2390 O   0  0  0  0  0  1  0  0  0  0  0  0
  191.8260  175.1940  141.9760 C   0  0  0  0  0  3  0  0  0  0  0  0
  190.8230  175.4120  142.9290 C   0  0  0  0  0  0  0  0  0  0  0  0
  186.2450  176.7850  145.1930 C   0  0  1  0  0  3  0  0  0  0  0  0
  190.0820  178.1470  148.2800 C   0  0  0  0  0  2  0  0  0  0  0  0
  191.5540  178.3350  150.1360 O   0  0  0  0  0  1  0  0  0  0  0  0
  191.3700  177.6730  148.9240 C   0  0  0  0  0  2  0  0  0  0  0  0
  1 19  1  6  0  0  0
  1  5  1  0  0  0  0
  2 16  1  0  0  0  0
  3 17  1  0  0  0  0
  4  1  1  0  0  0  0
  4 12  1  0  0  0  0
  5 11  1  0  0  0  0
  7 27  1  0  0  0  0
  8 11  1  0  0  0  0
  8  6  2  0  0  0  0
  9  7  1  0  0  0  0
 10  3  1  0  0  0  0
 10 22  1  0  0  0  0
 11 28  1  0  0  0  0
 12  8  1  0  0  0  0
 13  2  2  0  0  0  0
 14 23  1  0  0  0  0
 14  9  1  0  0  0  0
 15  7  1  0  0  0  0
 17 26  1  0  0  0  0
 17 20  1  0  0  0  0
 18 13  1  0  0  0  0
 19  2  1  0  0  0  0
 20  4  1  0  0  0  0
 21 10  2  0  0  0  0
 22  9  1  0  0  0  0
 22 20  1  0  0  0  0
 23 15  1  0  0  0  0
 25 18  2  0  0  0  0
 25 26  1  0  0  0  0
 26 19  2  0  0  0  0
 27 12  1  0  0  0  0
 27 24  1  0  0  0  0
 28 30  1  0  0  0  0
 30 29  1  0  0  0  0
M  END
>  <MODEL>
6

>  <REMARK>
 VINA RESULT:      -8.3      2.413      5.798
  Name = 
  2 active torsions:
  status: ('A' for Active; 'I' for Inactive)
    1  A    between atoms: C_11  and  C_28
    2  A    between atoms: C_28  and  C_30
                            x       y       z     vdW  Elec       q    Type
                         _______ _______ _______ _____ _____    ______ ____

>  <TORSDO>
F 2

$$$$
=
 OpenBabel11112416253D

 30 35  0  0  1  0  0  0  0  0999 V2000
  187.4180  176.1520  144.0370 C   0  0  2  0  0  3  0  0  0  0  0  0
  185.8340  178.0660  144.6190 C   0  0  0  0  0  0  0  0  0  0  0  0
  189.2090  176.7540  147.7770 O   0  0  0  0  0  0  0  0  0  0  0  0
  188.8590  175.7460  144.3930 C   0  0  2  0  0  3  0  0  0  0  0  0
  187.4300  176.6730  142.7220 O   0  0  0  0  0  0  0  0  0  0  0  0
  189.7810  174.8150  141.1240 O   0  0  0  0  0  0  0  0  0  0  0  0
  191.7660  175.2350  143.9580 C   0  0  1  0  0  3  0  0  0  0  0  0
  188.9970  175.0030  142.0440 C   0  0  0  0  0  0  0  0  0  0  0  0
  191.5210  176.1270  145.1950 C   0  0  2  0  0  3  0  0  0  0  0  0
  190.4940  176.3540  147.4930 C   0  0  0  0  0  0  0  0  0  0  0  0
  187.6290  175.6050  141.8210 C   0  0  2  0  0  3  0  0  0  0  0  0
  189.3090  174.6110  143.4640 C   0  0  1  0  0  3  0  0  0  0  0  0
  185.3270  178.9980  145.5270 C   0  0  0  0  0  3  0  0  0  0  0  0
  192.9100  176.4160  145.7350 C   0  0  0  0  0  2  0  0  0  0  0  0
  193.1760  174.6730  144.0910 C   0  0  0  0  0  2  0  0  0  0  0  0
  185.2840  178.0260  143.3420 O   0  0  0  0  0  1  0  0  0  0  0  0
  188.2720  176.1730  146.8890 C   0  0  2  0  0  3  0  0  0  0  0  0
  185.8060  179.0410  146.8330 C   0  0  0  0  0  3  0  0  0  0  0  0
  186.8690  177.1810  145.0040 C   0  0  0  0  0  0  0  0  0  0  0  0
  189.1010  175.3720  145.8590 C   0  0  2  0  0  3  0  0  0  0  0  0
  191.4670  176.6490  148.2360 O   0  0  0  0  0  0  0  0  0  0  0  0
  190.5960  175.4980  146.2820 C   0  0  1  0  0  3  0  0  0  0  0  0
  193.7490  175.2090  145.3850 C   0  0  0  0  0  2  0  0  0  0  0  0
  191.1590  173.1890  142.7890 O   0  0  0  0  0  1  0  0  0  0  0  0
  186.7850  178.1390  147.2420 C   0  0  0  0  0  3  0  0  0  0  0  0
  187.3250  177.2080  146.3430 C   0  0  0  0  0  0  0  0  0  0  0  0
  190.7390  174.1100  143.7530 C   0  0  1  0  0  3  0  0  0  0  0  0
  187.4410  176.0960  140.3920 C   0  0  0  0  0  2  0  0  0  0  0  0
  185.6400  177.6020  140.0240 O   0  0  0  0  0  1  0  0  0  0  0  0
  186.9830  177.5410  140.3900 C   0  0  0  0  0  2  0  0  0  0  0  0
  1  5  1  6  0  0  0
  1  4  1  0  0  0  0
  1 19  1  0  0  0  0
  2 19  2  0  0  0  0
  2 13  1  0  0  0  0
  4 20  1  0  0  0  0
  6  8  2  0  0  0  0
  7 15  1  0  0  0  0
  7  9  1  0  0  0  0
  8 12  1  0  0  0  0
  9 14  1  0  0  0  0
  9 22  1  0  0  0  0
 10  3  1  0  0  0  0
 10 21  2  0  0  0  0
 11  8  1  0  0  0  0
 11  5  1  0  0  0  0
 12 27  1  0  0  0  0
 12  4  1  0  0  0  0
 13 18  2  0  0  0  0
 15 23  1  0  0  0  0
 16  2  1  0  0  0  0
 17  3  1  0  0  0  0
 18 25  1  0  0  0  0
 19 26  1  0  0  0  0
 20 22  1  0  0  0  0
 20 17  1  0  0  0  0
 22 10  1  0  0  0  0
 23 14  1  0  0  0  0
 24 27  1  0  0  0  0
 26 17  1  0  0  0  0
 26 25  2  0  0  0  0
 27  7  1  0  0  0  0
 28 11  1  0  0  0  0
 29 30  1  0  0  0  0
 30 28  1  0  0  0  0
M  END
>  <MODEL>
7

>  <REMARK>
 VINA RESULT:      -8.1      2.043      5.579
  Name = 
  2 active torsions:
  status: ('A' for Active; 'I' for Inactive)
    1  A    between atoms: C_11  and  C_28
    2  A    between atoms: C_28  and  C_30
                            x       y       z     vdW  Elec       q    Type
                         _______ _______ _______ _____ _____    ______ ____

>  <TORSDO>
F 2

$$$$
=
 OpenBabel11112416253D

 30 35  0  0  1  0  0  0  0  0999 V2000
  188.9720  174.8750  143.5810 C   0  0  2  0  0  3  0  0  0  0  0  0
  187.1520  176.6190  143.1810 C   0  0  0  0  0  0  0  0  0  0  0  0
  189.7020  176.7610  147.2510 O   0  0  0  0  0  0  0  0  0  0  0  0
  190.3010  174.8030  144.3530 C   0  0  2  0  0  3  0  0  0  0  0  0
  189.2780  175.0020  142.2060 O   0  0  0  0  0  0  0  0  0  0  0  0
  192.0920  173.1390  141.8180 O   0  0  0  0  0  0  0  0  0  0  0  0
  193.2540  174.6270  144.7480 C   0  0  1  0  0  3  0  0  0  0  0  0
  191.0870  173.4590  142.4380 C   0  0  0  0  0  0  0  0  0  0  0  0
  192.6350  175.7840  145.5640 C   0  0  2  0  0  3  0  0  0  0  0  0
  191.0430  176.4920  147.3940 C   0  0  0  0  0  0  0  0  0  0  0  0
  189.7800  173.7660  141.7460 C   0  0  2  0  0  3  0  0  0  0  0  0
  191.0570  173.5330  143.9430 C   0  0  1  0  0  3  0  0  0  0  0  0
  186.3620  177.6830  143.6230 C   0  0  0  0  0  3  0  0  0  0  0  0
  193.8150  176.4160  146.2800 C   0  0  0  0  0  2  0  0  0  0  0  0
  194.6210  174.3410  145.3550 C   0  0  0  0  0  2  0  0  0  0  0  0
  186.9500  176.1410  141.8910 O   0  0  0  0  0  1  0  0  0  0  0  0
  189.0690  175.8220  146.4020 C   0  0  2  0  0  3  0  0  0  0  0  0
  186.4880  178.1600  144.9240 C   0  0  0  0  0  3  0  0  0  0  0  0
  188.1190  176.0410  144.0380 C   0  0  0  0  0  0  0  0  0  0  0  0
  190.1900  174.8970  145.8790 C   0  0  2  0  0  3  0  0  0  0  0  0
  191.7700  177.1250  148.2050 O   0  0  0  0  0  0  0  0  0  0  0  0
  191.5140  175.3560  146.5600 C   0  0  1  0  0  3  0  0  0  0  0  0
  194.8040  175.2970  146.5130 C   0  0  0  0  0  2  0  0  0  0  0  0
  193.1200  172.2690  144.1630 O   0  0  0  0  0  1  0  0  0  0  0  0
  187.3970  177.5650  145.7950 C   0  0  0  0  0  3  0  0  0  0  0  0
  188.2150  176.5100  145.3700 C   0  0  0  0  0  0  0  0  0  0  0  0
  192.4000  173.3510  144.6790 C   0  0  1  0  0  3  0  0  0  0  0  0
  189.9250  173.8020  140.2310 C   0  0  0  0  0  2  0  0  0  0  0  0
  187.9480  172.6660  139.5610 O   0  0  0  0  0  1  0  0  0  0  0  0
  188.5630  173.9160  139.5760 C   0  0  0  0  0  2  0  0  0  0  0  0
  1  5  1  6  0  0  0
  1 19  1  0  0  0  0
  1  4  1  0  0  0  0
  2 13  2  0  0  0  0
  2 19  1  0  0  0  0
  3 10  1  0  0  0  0
  4 20  1  0  0  0  0
  6  8  2  0  0  0  0
  7 15  1  0  0  0  0
  7  9  1  0  0  0  0
  8 12  1  0  0  0  0
  9 14  1  0  0  0  0
  9 22  1  0  0  0  0
 10 21  2  0  0  0  0
 11  5  1  0  0  0  0
 11  8  1  0  0  0  0
 12  4  1  0  0  0  0
 12 27  1  0  0  0  0
 13 18  1  0  0  0  0
 14 23  1  0  0  0  0
 15 23  1  0  0  0  0
 16  2  1  0  0  0  0
 17  3  1  0  0  0  0
 18 25  2  0  0  0  0
 19 26  2  0  0  0  0
 20 17  1  0  0  0  0
 20 22  1  0  0  0  0
 22 10  1  0  0  0  0
 24 27  1  0  0  0  0
 26 25  1  0  0  0  0
 26 17  1  0  0  0  0
 27  7  1  0  0  0  0
 28 11  1  0  0  0  0
 29 30  1  0  0  0  0
 30 28  1  0  0  0  0
M  END
>  <MODEL>
8

>  <REMARK>
 VINA RESULT:      -8.0      2.700      6.106
  Name = 
  2 active torsions:
  status: ('A' for Active; 'I' for Inactive)
    1  A    between atoms: C_11  and  C_28
    2  A    between atoms: C_28  and  C_30
                            x       y       z     vdW  Elec       q    Type
                         _______ _______ _______ _____ _____    ______ ____

>  <TORSDO>
F 2

$$$$
=
 OpenBabel11112416253D

 30 35  0  0  1  0  0  0  0  0999 V2000
  190.5980  174.6040  144.2230 C   0  0  2  0  0  3  0  0  0  0  0  0
  192.5420  173.9170  142.7190 C   0  0  0  0  0  0  0  0  0  0  0  0
  188.3070  175.0300  140.7410 O   0  0  0  0  0  0  0  0  0  0  0  0
  189.3490  175.4960  144.1000 C   0  0  2  0  0  3  0  0  0  0  0  0
  191.5530  175.3040  144.9960 O   0  0  0  0  0  0  0  0  0  0  0  0
  189.6840  177.0090  147.2630 O   0  0  0  0  0  0  0  0  0  0  0  0
  187.5720  177.8360  144.6160 C   0  0  1  0  0  3  0  0  0  0  0  0
  189.8310  176.1160  146.4390 C   0  0  0  0  0  0  0  0  0  0  0  0
  187.7620  177.5830  143.1040 C   0  0  2  0  0  3  0  0  0  0  0  0
  187.4420  176.0200  141.1440 C   0  0  0  0  0  0  0  0  0  0  0  0
  191.1130  175.3230  146.3370 C   0  0  2  0  0  3  0  0  0  0  0  0
  188.7370  175.7030  145.4910 C   0  0  1  0  0  3  0  0  0  0  0  0
  193.0550  173.5820  141.4640 C   0  0  0  0  0  3  0  0  0  0  0  0
  186.9400  178.6700  142.4320 C   0  0  0  0  0  2  0  0  0  0  0  0
  186.3360  178.7130  144.7650 C   0  0  0  0  0  2  0  0  0  0  0  0
  193.4040  173.8950  143.8100 O   0  0  0  0  0  1  0  0  0  0  0  0
  188.8320  174.3140  141.8430 C   0  0  2  0  0  3  0  0  0  0  0  0
  192.2200  173.5360  140.3510 C   0  0  0  0  0  3  0  0  0  0  0  0
  191.1740  174.2550  142.8670 C   0  0  0  0  0  0  0  0  0  0  0  0
  188.2860  175.0170  143.1070 C   0  0  2  0  0  3  0  0  0  0  0  0
  186.7640  176.6930  140.3230 O   0  0  0  0  0  0  0  0  0  0  0  0
  187.3450  176.1600  142.6210 C   0  0  1  0  0  3  0  0  0  0  0  0
  185.7970  178.9640  143.3740 C   0  0  0  0  0  2  0  0  0  0  0  0
  187.0280  176.8570  146.7760 O   0  0  0  0  0  1  0  0  0  0  0  0
  190.8630  173.8110  140.4920 C   0  0  0  0  0  3  0  0  0  0  0  0
  190.3280  174.1710  141.7360 C   0  0  0  0  0  0  0  0  0  0  0  0
  187.4600  176.5690  145.4780 C   0  0  1  0  0  3  0  0  0  0  0  0
  192.2110  175.8840  147.2300 C   0  0  0  0  0  2  0  0  0  0  0  0
  194.4660  175.6720  146.5130 O   0  0  0  0  0  1  0  0  0  0  0  0
  193.3280  176.4650  146.3860 C   0  0  0  0  0  2  0  0  0  0  0  0
  1 19  1  6  0  0  0
  1  5  1  0  0  0  0
  2 19  1  0  0  0  0
  2 16  1  0  0  0  0
  3 10  1  0  0  0  0
  3 17  1  0  0  0  0
  4  1  1  0  0  0  0
  4 12  1  0  0  0  0
  5 11  1  0  0  0  0
  7 15  1  0  0  0  0
  7 27  1  0  0  0  0
  8  6  2  0  0  0  0
  9  7  1  0  0  0  0
 10 22  1  0  0  0  0
 11  8  1  0  0  0  0
 11 28  1  0  0  0  0
 12  8  1  0  0  0  0
 13  2  2  0  0  0  0
 14  9  1  0  0  0  0
 14 23  1  0  0  0  0
 17 20  1  0  0  0  0
 18 25  2  0  0  0  0
 18 13  1  0  0  0  0
 20  4  1  0  0  0  0
 21 10  2  0  0  0  0
 22  9  1  0  0  0  0
 22 20  1  0  0  0  0
 23 15  1  0  0  0  0
 25 26  1  0  0  0  0
 26 17  1  0  0  0  0
 26 19  2  0  0  0  0
 27 12  1  0  0  0  0
 27 24  1  0  0  0  0
 30 29  1  0  0  0  0
 30 28  1  0  0  0  0
M  END
>  <MODEL>
9

>  <REMARK>
 VINA RESULT:      -8.0      2.279      5.583
  Name = 
  2 active torsions:
  status: ('A' for Active; 'I' for Inactive)
    1  A    between atoms: C_11  and  C_28
    2  A    between atoms: C_28  and  C_30
                            x       y       z     vdW  Elec       q    Type
                         _______ _______ _______ _____ _____    ______ ____

>  <TORSDO>
F 2

$$$$
