=
 OpenBabel11112417133D

 37 43  0  0  1  0  0  0  0  0999 V2000
  193.2180  174.9960  143.8660 C   0  0  0  0  0  2  0  0  0  0  0  0
  191.7220  170.6050  141.9830 C   0  0  1  0  0  0  0  0  0  0  0  0
  189.8150  174.3530  142.4950 C   0  0  1  0  0  3  0  0  0  0  0  0
  194.7160  175.1470  144.1620 C   0  0  2  0  0  3  0  0  0  0  0  0
  190.4580  176.3140  145.6250 O   0  0  0  0  0  0  0  0  0  0  0  0
  190.0360  172.2770  141.0360 C   0  0  1  0  0  3  0  0  0  0  0  0
  190.0140  174.6020  143.9750 C   0  0  2  0  0  3  0  0  0  0  0  0
  194.0950  176.4120  146.2710 C   0  0  0  0  0  0  0  0  0  0  0  0
  190.0880  172.9000  142.4340 C   0  0  1  0  0  3  0  0  0  0  0  0
  190.3060  176.0910  144.2510 C   0  0  1  0  0  3  0  0  0  0  0  0
  189.7150  173.3230  139.9560 C   0  0  0  0  0  2  0  0  0  0  0  0
  195.0530  175.4470  145.6300 C   0  0  0  0  0  2  0  0  0  0  0  0
  191.3600  172.7700  143.0950 N   0  0  2  0  0  0  0  0  0  0  0  0
  193.0450  170.2370  141.8310 F   0  0  0  0  0  0  0  0  0  0  0  0
  187.9540  176.0270  142.0660 C   0  0  0  0  0  2  0  0  0  0  0  0
  188.5180  174.2310  140.3560 C   0  0  0  0  0  2  0  0  0  0  0  0
  191.5660  171.3470  143.3350 C   0  0  0  0  0  2  0  0  0  0  0  0
  192.6640  176.0220  146.5450 C   0  0  1  0  0  3  0  0  0  0  0  0
  191.7130  176.9140  145.7490 C   0  0  0  0  0  2  0  0  0  0  0  0
  188.4620  174.6030  141.8590 C   0  0  1  0  0  3  0  0  0  0  0  0
  191.1380  173.5500  144.3170 C   0  0  1  0  0  3  0  0  0  0  0  0
  191.3100  171.4670  140.7600 C   0  0  0  0  0  2  0  0  0  0  0  0
  189.2300  177.0530  143.6950 C   0  0  1  0  0  3  0  0  0  0  0  0
  190.9370  169.4520  142.0130 O   0  0  0  0  0  1  0  0  0  0  0  0
  192.4080  174.5220  146.3070 C   0  0  0  0  0  2  0  0  0  0  0  0
  194.4900  177.5240  146.5820 O   0  0  0  0  0  0  0  0  0  0  0  0
  192.4910  174.0590  144.8410 C   0  0  2  0  0  3  0  0  0  0  0  0
  188.9970  176.9460  142.3000 O   0  0  0  0  0  0  0  0  0  0  0  0
  187.8350  176.5440  145.7220 C   0  0  0  0  0  3  0  0  0  0  0  0
  188.0160  177.3040  144.5610 C   0  0  0  0  0  0  0  0  0  0  0  0
  187.0840  178.3000  144.2330 C   0  0  0  0  0  3  0  0  0  0  0  0
  184.8160  179.7670  144.6370 Cl  0  0  0  0  0  0  0  0  0  0  0  0
  185.7980  177.7600  146.2110 C   0  0  0  0  0  3  0  0  0  0  0  0
  185.9770  178.5250  145.0550 C   0  0  0  0  0  0  0  0  0  0  0  0
  186.7280  176.7700  146.5450 C   0  0  0  0  0  3  0  0  0  0  0  0
  196.6340  176.0410  143.5130 C   0  0  0  0  0  1  0  0  0  0  0  0
  195.2520  176.1420  143.3420 O   0  0  0  0  0  0  0  0  0  0  0  0
  1  4  1  0  0  0  0
  1 27  1  0  0  0  0
  2 14  1  6  0  0  0
  2 24  1  0  0  0  0
  2 17  1  0  0  0  0
  3  7  1  0  0  0  0
  4 12  1  0  0  0  0
  5 19  1  0  0  0  0
  6  9  1  0  0  0  0
  7 10  1  0  0  0  0
  7 21  1  0  0  0  0
  8 18  1  0  0  0  0
  8 26  2  0  0  0  0
  9  3  1  0  0  0  0
  9 13  1  0  0  0  0
 10  5  1  0  0  0  0
 11 16  1  0  0  0  0
 11  6  1  0  0  0  0
 12  8  1  0  0  0  0
 13 17  1  0  0  0  0
 13 21  1  0  0  0  0
 15 28  1  0  0  0  0
 16 20  1  0  0  0  0
 19 18  1  0  0  0  0
 20 15  1  0  0  0  0
 20  3  1  0  0  0  0
 21 27  1  0  0  0  0
 22  6  1  0  0  0  0
 22  2  1  0  0  0  0
 23 10  1  0  0  0  0
 23 30  1  0  0  0  0
 25 18  1  0  0  0  0
 27 25  1  0  0  0  0
 28 23  1  0  0  0  0
 29 35  1  0  0  0  0
 30 29  2  0  0  0  0
 31 30  1  0  0  0  0
 31 34  2  0  0  0  0
 32 34  1  0  0  0  0
 33 35  2  0  0  0  0
 34 33  1  0  0  0  0
 37 36  1  0  0  0  0
 37  4  1  0  0  0  0
M  END
>  <MODEL>
1

>  <REMARK>
 VINA RESULT:      -9.7      0.000      0.000
  Name = 
  2 active torsions:
  status: ('A' for Active; 'I' for Inactive)
    1  A    between atoms: C_4  and  O_37
    2  A    between atoms: C_23  and  C_30
                            x       y       z     vdW  Elec       q    Type
                         _______ _______ _______ _____ _____    ______ ____

>  <TORSDO>
F 2

$$$$
=
 OpenBabel11112417133D

 37 43  0  0  1  0  0  0  0  0999 V2000
  190.6090  173.3460  142.8330 C   0  0  0  0  0  2  0  0  0  0  0  0
  194.7500  175.7030  144.3710 C   0  0  1  0  0  0  0  0  0  0  0  0
  190.6470  176.0860  145.3550 C   0  0  1  0  0  3  0  0  0  0  0  0
  190.8070  172.0900  141.9740 C   0  0  2  0  0  3  0  0  0  0  0  0
  188.0850  175.8030  142.6350 O   0  0  0  0  0  0  0  0  0  0  0  0
  193.0450  176.2120  146.2060 C   0  0  1  0  0  3  0  0  0  0  0  0
  190.0210  176.3020  143.9950 C   0  0  2  0  0  3  0  0  0  0  0  0
  188.8310  172.8320  140.5670 C   0  0  0  0  0  0  0  0  0  0  0  0
  192.0620  176.3860  145.0440 C   0  0  1  0  0  3  0  0  0  0  0  0
  188.6680  175.5710  143.8860 C   0  0  1  0  0  3  0  0  0  0  0  0
  192.3380  175.7370  147.4860 C   0  0  0  0  0  2  0  0  0  0  0  0
  190.1780  172.1630  140.5750 C   0  0  0  0  0  2  0  0  0  0  0  0
  192.3390  175.5520  143.9040 N   0  0  2  0  0  0  0  0  0  0  0  0
  195.5070  174.6500  143.8940 F   0  0  0  0  0  0  0  0  0  0  0  0
  188.7310  176.9160  146.8010 C   0  0  0  0  0  2  0  0  0  0  0  0
  191.0490  176.5560  147.7830 C   0  0  0  0  0  2  0  0  0  0  0  0
  193.6140  175.9950  143.3570 C   0  0  0  0  0  2  0  0  0  0  0  0
  188.6930  174.3080  140.8480 C   0  0  1  0  0  3  0  0  0  0  0  0
  187.8580  174.5290  142.1080 C   0  0  0  0  0  2  0  0  0  0  0  0
  190.2320  176.9520  146.5280 C   0  0  1  0  0  3  0  0  0  0  0  0
  191.1900  175.8440  143.0400 C   0  0  1  0  0  3  0  0  0  0  0  0
  194.2280  175.3300  145.7840 C   0  0  0  0  0  2  0  0  0  0  0  0
  187.6600  175.9520  144.9960 C   0  0  1  0  0  3  0  0  0  0  0  0
  195.5640  176.8320  144.4690 O   0  0  0  0  0  1  0  0  0  0  0  0
  190.0550  175.0240  140.9050 C   0  0  0  0  0  2  0  0  0  0  0  0
  187.8380  172.1680  140.3190 O   0  0  0  0  0  0  0  0  0  0  0  0
  190.9520  174.6510  142.1000 C   0  0  2  0  0  3  0  0  0  0  0  0
  188.1220  175.7390  146.3200 O   0  0  0  0  0  0  0  0  0  0  0  0
  187.1970  178.1000  143.7770 C   0  0  0  0  0  3  0  0  0  0  0  0
  186.8190  177.1880  144.7690 C   0  0  0  0  0  0  0  0  0  0  0  0
  185.6560  177.4230  145.5180 C   0  0  0  0  0  3  0  0  0  0  0  0
  183.4390  178.8520  146.2230 Cl  0  0  0  0  0  0  0  0  0  0  0  0
  185.2710  179.4740  144.2930 C   0  0  0  0  0  3  0  0  0  0  0  0
  184.8870  178.5640  145.2820 C   0  0  0  0  0  0  0  0  0  0  0  0
  186.4260  179.2420  143.5400 C   0  0  0  0  0  3  0  0  0  0  0  0
  190.7040  169.8810  141.8910 C   0  0  0  0  0  1  0  0  0  0  0  0
  190.3100  170.9790  142.6570 O   0  0  0  0  0  0  0  0  0  0  0  0
  2 14  1  6  0  0  0
  2 24  1  0  0  0  0
  2 22  1  0  0  0  0
  3 20  1  0  0  0  0
  4 37  1  0  0  0  0
  4  1  1  0  0  0  0
  5 10  1  0  0  0  0
  6 11  1  0  0  0  0
  7  3  1  0  0  0  0
  8 12  1  0  0  0  0
  8 18  1  0  0  0  0
  9  3  1  0  0  0  0
  9  6  1  0  0  0  0
 10  7  1  0  0  0  0
 10 23  1  0  0  0  0
 11 16  1  0  0  0  0
 12  4  1  0  0  0  0
 13  9  1  0  0  0  0
 17 13  1  0  0  0  0
 17  2  1  0  0  0  0
 18 25  1  0  0  0  0
 18 19  1  0  0  0  0
 19  5  1  0  0  0  0
 20 15  1  0  0  0  0
 20 16  1  0  0  0  0
 21 13  1  0  0  0  0
 21  7  1  0  0  0  0
 22  6  1  0  0  0  0
 23 28  1  0  0  0  0
 25 27  1  0  0  0  0
 26  8  2  0  0  0  0
 27  1  1  0  0  0  0
 27 21  1  0  0  0  0
 28 15  1  0  0  0  0
 29 30  1  0  0  0  0
 30 23  1  0  0  0  0
 30 31  2  0  0  0  0
 33 34  2  0  0  0  0
 34 31  1  0  0  0  0
 34 32  1  0  0  0  0
 35 29  2  0  0  0  0
 35 33  1  0  0  0  0
 36 37  1  0  0  0  0
M  END
>  <MODEL>
2

>  <REMARK>
 VINA RESULT:      -8.8      1.778      5.571
  Name = 
  2 active torsions:
  status: ('A' for Active; 'I' for Inactive)
    1  A    between atoms: C_4  and  O_37
    2  A    between atoms: C_23  and  C_30
                            x       y       z     vdW  Elec       q    Type
                         _______ _______ _______ _____ _____    ______ ____

>  <TORSDO>
F 2

$$$$
=
 OpenBabel11112417133D

 37 43  0  0  1  0  0  0  0  0999 V2000
  192.6720  172.5500  142.1110 C   0  0  0  0  0  2  0  0  0  0  0  0
  196.6030  175.4140  143.3010 C   0  0  1  0  0  0  0  0  0  0  0  0
  192.4680  175.6270  144.2000 C   0  0  1  0  0  3  0  0  0  0  0  0
  192.9760  171.2000  141.4480 C   0  0  2  0  0  3  0  0  0  0  0  0
  189.9760  174.7540  141.5390 O   0  0  0  0  0  0  0  0  0  0  0  0
  194.8370  176.0580  145.0330 C   0  0  1  0  0  3  0  0  0  0  0  0
  191.8490  175.5930  142.8190 C   0  0  2  0  0  3  0  0  0  0  0  0
  190.9720  171.5760  139.9380 C   0  0  0  0  0  0  0  0  0  0  0  0
  193.8620  175.9840  143.8530 C   0  0  1  0  0  3  0  0  0  0  0  0
  190.5560  174.7530  142.8140 C   0  0  1  0  0  3  0  0  0  0  0  0
  194.1470  175.7250  146.3660 C   0  0  0  0  0  2  0  0  0  0  0  0
  192.3640  171.0190  140.0510 C   0  0  0  0  0  2  0  0  0  0  0  0
  194.2170  175.0140  142.8510 N   0  0  2  0  0  0  0  0  0  0  0  0
  197.4430  174.3620  142.9890 F   0  0  0  0  0  0  0  0  0  0  0  0
  190.4740  176.5140  145.4980 C   0  0  0  0  0  2  0  0  0  0  0  0
  192.7970  176.4790  146.5320 C   0  0  0  0  0  2  0  0  0  0  0  0
  195.4650  175.4670  142.2500 C   0  0  0  0  0  2  0  0  0  0  0  0
  190.7210  173.0620  139.9960 C   0  0  1  0  0  3  0  0  0  0  0  0
  189.8530  173.4030  141.2060 C   0  0  0  0  0  2  0  0  0  0  0  0
  191.9710  176.6230  145.2290 C   0  0  1  0  0  3  0  0  0  0  0  0
  193.0630  175.0880  141.9480 C   0  0  1  0  0  3  0  0  0  0  0  0
  196.0880  175.2150  144.7510 C   0  0  0  0  0  2  0  0  0  0  0  0
  189.5050  175.2160  143.8510 C   0  0  1  0  0  3  0  0  0  0  0  0
  197.3290  176.6030  143.2340 O   0  0  0  0  0  1  0  0  0  0  0  0
  192.0250  173.8800  139.9530 C   0  0  0  0  0  2  0  0  0  0  0  0
  190.0350  170.8090  139.7870 O   0  0  0  0  0  0  0  0  0  0  0  0
  192.9290  173.7560  141.1940 C   0  0  2  0  0  3  0  0  0  0  0  0
  189.9610  175.2370  145.1940 O   0  0  0  0  0  0  0  0  0  0  0  0
  188.9520  177.1830  142.3880 C   0  0  0  0  0  3  0  0  0  0  0  0
  188.5790  176.3390  143.4400 C   0  0  0  0  0  0  0  0  0  0  0  0
  187.3440  176.5320  144.0770 C   0  0  0  0  0  3  0  0  0  0  0  0
  184.9600  177.8030  144.4740 Cl  0  0  0  0  0  0  0  0  0  0  0  0
  186.8770  178.4100  142.6230 C   0  0  0  0  0  3  0  0  0  0  0  0
  186.4980  177.5660  143.6710 C   0  0  0  0  0  0  0  0  0  0  0  0
  188.1040  178.2180  141.9810 C   0  0  0  0  0  3  0  0  0  0  0  0
  192.0850  170.8060  143.4350 C   0  0  0  0  0  1  0  0  0  0  0  0
  192.5520  170.1670  142.2860 O   0  0  0  0  0  0  0  0  0  0  0  0
  2 14  1  6  0  0  0
  2 22  1  0  0  0  0
  3 20  1  0  0  0  0
  4  1  1  0  0  0  0
  4 37  1  0  0  0  0
  5 10  1  0  0  0  0
  6 11  1  0  0  0  0
  7  3  1  0  0  0  0
  8 18  1  0  0  0  0
  8 12  1  0  0  0  0
  9  3  1  0  0  0  0
  9  6  1  0  0  0  0
 10  7  1  0  0  0  0
 10 23  1  0  0  0  0
 11 16  1  0  0  0  0
 12  4  1  0  0  0  0
 13  9  1  0  0  0  0
 17 13  1  0  0  0  0
 17  2  1  0  0  0  0
 18 19  1  0  0  0  0
 19  5  1  0  0  0  0
 20 15  1  0  0  0  0
 20 16  1  0  0  0  0
 21  7  1  0  0  0  0
 21 13  1  0  0  0  0
 22  6  1  0  0  0  0
 23 28  1  0  0  0  0
 24  2  1  0  0  0  0
 25 18  1  0  0  0  0
 25 27  1  0  0  0  0
 26  8  2  0  0  0  0
 27 21  1  0  0  0  0
 27  1  1  0  0  0  0
 28 15  1  0  0  0  0
 29 30  1  0  0  0  0
 30 23  1  0  0  0  0
 30 31  2  0  0  0  0
 33 34  2  0  0  0  0
 34 31  1  0  0  0  0
 34 32  1  0  0  0  0
 35 29  2  0  0  0  0
 35 33  1  0  0  0  0
 37 36  1  0  0  0  0
M  END
>  <MODEL>
3

>  <REMARK>
 VINA RESULT:      -8.5      2.012      5.651
  Name = 
  2 active torsions:
  status: ('A' for Active; 'I' for Inactive)
    1  A    between atoms: C_4  and  O_37
    2  A    between atoms: C_23  and  C_30
                            x       y       z     vdW  Elec       q    Type
                         _______ _______ _______ _____ _____    ______ ____

>  <TORSDO>
F 2

$$$$
=
 OpenBabel11112417133D

 37 43  0  0  1  0  0  0  0  0999 V2000
  191.5310  173.2460  141.8150 C   0  0  0  0  0  2  0  0  0  0  0  0
  189.5090  176.0360  145.4480 C   0  0  1  0  0  0  0  0  0  0  0  0
  193.2720  174.1460  144.9820 C   0  0  1  0  0  3  0  0  0  0  0  0
  190.7640  173.1780  140.4880 C   0  0  2  0  0  3  0  0  0  0  0  0
  193.4220  170.7400  143.4240 O   0  0  0  0  0  0  0  0  0  0  0  0
  192.0190  176.1590  145.9150 C   0  0  1  0  0  3  0  0  0  0  0  0
  192.8680  172.7140  144.7070 C   0  0  2  0  0  3  0  0  0  0  0  0
  191.3740  170.7190  140.3490 C   0  0  0  0  0  0  0  0  0  0  0  0
  192.0120  174.6700  145.5540 C   0  0  1  0  0  3  0  0  0  0  0  0
  193.7870  172.0730  143.6480 C   0  0  1  0  0  3  0  0  0  0  0  0
  193.3680  176.8190  145.5850 C   0  0  0  0  0  2  0  0  0  0  0  0
  190.3300  171.7650  140.0690 C   0  0  0  0  0  2  0  0  0  0  0  0
  191.0210  174.3010  144.5780 N   0  0  2  0  0  0  0  0  0  0  0  0
  188.5780  176.5090  144.5440 F   0  0  0  0  0  0  0  0  0  0  0  0
  195.7020  173.7510  145.6040 C   0  0  0  0  0  2  0  0  0  0  0  0
  194.5730  175.9770  146.0910 C   0  0  0  0  0  2  0  0  0  0  0  0
  189.7190  174.5210  145.1940 C   0  0  0  0  0  2  0  0  0  0  0  0
  191.7280  170.3310  141.7630 C   0  0  1  0  0  3  0  0  0  0  0  0
  193.1920  170.6620  142.0490 C   0  0  0  0  0  2  0  0  0  0  0  0
  194.3910  174.4440  145.9600 C   0  0  1  0  0  3  0  0  0  0  0  0
  191.3390  172.8860  144.3550 C   0  0  1  0  0  3  0  0  0  0  0  0
  190.8090  176.8690  145.2930 C   0  0  0  0  0  2  0  0  0  0  0  0
  195.2910  172.1360  144.0050 C   0  0  1  0  0  3  0  0  0  0  0  0
  189.0080  176.2080  146.7390 O   0  0  0  0  0  1  0  0  0  0  0  0
  190.7680  170.9460  142.7980 C   0  0  0  0  0  2  0  0  0  0  0  0
  191.9330  170.1720  139.4120 O   0  0  0  0  0  0  0  0  0  0  0  0
  190.8520  172.4750  142.9570 C   0  0  2  0  0  3  0  0  0  0  0  0
  195.7960  173.4420  144.2320 O   0  0  0  0  0  0  0  0  0  0  0  0
  197.1750  170.6580  144.7670 C   0  0  0  0  0  3  0  0  0  0  0  0
  195.8350  171.0420  144.8950 C   0  0  0  0  0  0  0  0  0  0  0  0
  195.0280  170.4250  145.8630 C   0  0  0  0  0  3  0  0  0  0  0  0
  194.5410  168.6590  147.8880 Cl  0  0  0  0  0  0  0  0  0  0  0  0
  196.8930  169.0430  146.5500 C   0  0  0  0  0  3  0  0  0  0  0  0
  195.5550  169.4270  146.6850 C   0  0  0  0  0  0  0  0  0  0  0  0
  197.7020  169.6590  145.5910 C   0  0  0  0  0  3  0  0  0  0  0  0
  192.7400  174.0930  140.0930 C   0  0  0  0  0  1  0  0  0  0  0  0
  191.5350  173.7530  139.4770 O   0  0  0  0  0  0  0  0  0  0  0  0
  1 27  1  0  0  0  0
  2 14  1  6  0  0  0
  2 24  1  0  0  0  0
  3  9  1  0  0  0  0
  3 20  1  0  0  0  0
  4  1  1  0  0  0  0
  5 10  1  0  0  0  0
  7  3  1  0  0  0  0
  8 18  1  0  0  0  0
  9  6  1  0  0  0  0
 10 23  1  0  0  0  0
 10  7  1  0  0  0  0
 11  6  1  0  0  0  0
 11 16  1  0  0  0  0
 12  8  1  0  0  0  0
 12  4  1  0  0  0  0
 13 17  1  0  0  0  0
 13  9  1  0  0  0  0
 15 20  1  0  0  0  0
 17  2  1  0  0  0  0
 18 19  1  0  0  0  0
 18 25  1  0  0  0  0
 19  5  1  0  0  0  0
 20 16  1  0  0  0  0
 21 13  1  0  0  0  0
 21  7  1  0  0  0  0
 22  2  1  0  0  0  0
 22  6  1  0  0  0  0
 23 28  1  0  0  0  0
 23 30  1  0  0  0  0
 25 27  1  0  0  0  0
 26  8  2  0  0  0  0
 27 21  1  0  0  0  0
 28 15  1  0  0  0  0
 29 30  2  0  0  0  0
 29 35  1  0  0  0  0
 30 31  1  0  0  0  0
 31 34  2  0  0  0  0
 33 34  1  0  0  0  0
 34 32  1  0  0  0  0
 35 33  2  0  0  0  0
 37 36  1  0  0  0  0
 37  4  1  0  0  0  0
M  END
>  <MODEL>
4

>  <REMARK>
 VINA RESULT:      -8.1      3.975      8.121
  Name = 
  2 active torsions:
  status: ('A' for Active; 'I' for Inactive)
    1  A    between atoms: C_4  and  O_37
    2  A    between atoms: C_23  and  C_30
                            x       y       z     vdW  Elec       q    Type
                         _______ _______ _______ _____ _____    ______ ____

>  <TORSDO>
F 2

$$$$
=
 OpenBabel11112417133D

 37 43  0  0  1  0  0  0  0  0999 V2000
  193.7810  174.7680  141.7750 C   0  0  0  0  0  2  0  0  0  0  0  0
  191.7390  170.6440  139.8010 C   0  0  1  0  0  0  0  0  0  0  0  0
  190.1150  174.1660  141.5080 C   0  0  1  0  0  3  0  0  0  0  0  0
  195.2920  174.9490  141.5850 C   0  0  2  0  0  3  0  0  0  0  0  0
  191.7610  175.6550  144.5280 O   0  0  0  0  0  0  0  0  0  0  0  0
  189.8370  172.3520  139.7410 C   0  0  1  0  0  3  0  0  0  0  0  0
  190.7930  174.1950  142.8610 C   0  0  2  0  0  3  0  0  0  0  0  0
  195.4070  175.8420  143.9570 C   0  0  0  0  0  0  0  0  0  0  0  0
  190.3500  172.7550  141.1270 C   0  0  1  0  0  3  0  0  0  0  0  0
  191.1630  175.6370  143.2630 C   0  0  1  0  0  3  0  0  0  0  0  0
  189.1780  173.5320  139.0100 C   0  0  0  0  0  2  0  0  0  0  0  0
  196.0970  175.0380  142.8900 C   0  0  0  0  0  2  0  0  0  0  0  0
  191.7690  172.5910  141.3050 N   0  0  2  0  0  0  0  0  0  0  0  0
  192.9370  170.3740  139.1670 F   0  0  0  0  0  0  0  0  0  0  0  0
  188.2190  175.7860  141.9880 C   0  0  0  0  0  2  0  0  0  0  0  0
  188.1820  174.3050  139.9210 C   0  0  0  0  0  2  0  0  0  0  0  0
  192.0410  171.1620  141.2310 C   0  0  0  0  0  2  0  0  0  0  0  0
  194.1470  175.3410  144.6170 C   0  0  1  0  0  3  0  0  0  0  0  0
  192.9870  176.2940  144.3310 C   0  0  0  0  0  2  0  0  0  0  0  0
  188.6280  174.4390  141.3980 C   0  0  1  0  0  3  0  0  0  0  0  0
  191.9660  173.1630  142.6420 C   0  0  1  0  0  3  0  0  0  0  0  0
  190.9470  171.6610  138.9360 C   0  0  0  0  0  2  0  0  0  0  0  0
  189.9640  176.6160  143.2530 C   0  0  1  0  0  3  0  0  0  0  0  0
  191.0060  169.4610  139.8990 O   0  0  0  0  0  1  0  0  0  0  0  0
  193.8240  173.8840  144.2360 C   0  0  0  0  0  2  0  0  0  0  0  0
  195.8840  176.9130  144.2970 O   0  0  0  0  0  0  0  0  0  0  0  0
  193.4160  173.6550  142.7690 C   0  0  2  0  0  3  0  0  0  0  0  0
  189.2820  176.7110  142.0130 O   0  0  0  0  0  0  0  0  0  0  0  0
  188.1600  177.6900  144.6320 C   0  0  0  0  0  3  0  0  0  0  0  0
  189.1060  176.6670  144.4970 C   0  0  0  0  0  0  0  0  0  0  0  0
  189.2240  175.6960  145.5020 C   0  0  0  0  0  3  0  0  0  0  0  0
  188.5670  174.5410  147.8870 Cl  0  0  0  0  0  0  0  0  0  0  0  0
  187.4700  176.7810  146.7690 C   0  0  0  0  0  3  0  0  0  0  0  0
  188.4100  175.7540  146.6350 C   0  0  0  0  0  0  0  0  0  0  0  0
  187.3450  177.7480  145.7670 C   0  0  0  0  0  3  0  0  0  0  0  0
  196.8920  176.0410  140.5140 C   0  0  0  0  0  1  0  0  0  0  0  0
  195.5290  176.0850  140.8080 O   0  0  0  0  0  0  0  0  0  0  0  0
  1 27  1  0  0  0  0
  2 14  1  6  0  0  0
  2 24  1  0  0  0  0
  2 17  1  0  0  0  0
  3  7  1  0  0  0  0
  4  1  1  0  0  0  0
  4 12  1  0  0  0  0
  6  9  1  0  0  0  0
  7 10  1  0  0  0  0
  8 26  2  0  0  0  0
  8 18  1  0  0  0  0
  9 13  1  0  0  0  0
  9  3  1  0  0  0  0
 10  5  1  0  0  0  0
 11  6  1  0  0  0  0
 11 16  1  0  0  0  0
 12  8  1  0  0  0  0
 13 21  1  0  0  0  0
 15 28  1  0  0  0  0
 16 20  1  0  0  0  0
 17 13  1  0  0  0  0
 19  5  1  0  0  0  0
 19 18  1  0  0  0  0
 20  3  1  0  0  0  0
 20 15  1  0  0  0  0
 21 27  1  0  0  0  0
 21  7  1  0  0  0  0
 22  6  1  0  0  0  0
 22  2  1  0  0  0  0
 23 10  1  0  0  0  0
 23 30  1  0  0  0  0
 25 18  1  0  0  0  0
 27 25  1  0  0  0  0
 28 23  1  0  0  0  0
 29 35  1  0  0  0  0
 30 29  2  0  0  0  0
 30 31  1  0  0  0  0
 31 34  2  0  0  0  0
 34 33  1  0  0  0  0
 34 32  1  0  0  0  0
 35 33  2  0  0  0  0
 36 37  1  0  0  0  0
 37  4  1  0  0  0  0
M  END
>  <MODEL>
5

>  <REMARK>
 VINA RESULT:      -8.0      1.912      2.389
  Name = 
  2 active torsions:
  status: ('A' for Active; 'I' for Inactive)
    1  A    between atoms: C_4  and  O_37
    2  A    between atoms: C_23  and  C_30
                            x       y       z     vdW  Elec       q    Type
                         _______ _______ _______ _____ _____    ______ ____

>  <TORSDO>
F 2

$$$$
=
 OpenBabel11112417133D

 37 43  0  0  1  0  0  0  0  0999 V2000
  194.6950  174.6530  143.1670 C   0  0  0  0  0  2  0  0  0  0  0  0
  190.9910  176.4200  146.0360 C   0  0  1  0  0  0  0  0  0  0  0  0
  191.1120  173.7100  142.7810 C   0  0  1  0  0  3  0  0  0  0  0  0
  196.1270  174.9620  143.6200 C   0  0  2  0  0  3  0  0  0  0  0  0
  193.3940  174.4270  139.8960 O   0  0  0  0  0  0  0  0  0  0  0  0
  189.9950  174.3100  144.9910 C   0  0  1  0  0  3  0  0  0  0  0  0
  191.8090  174.5330  141.7190 C   0  0  2  0  0  3  0  0  0  0  0  0
  196.7380  175.3290  141.1850 C   0  0  0  0  0  0  0  0  0  0  0  0
  190.7040  174.7810  143.7170 C   0  0  1  0  0  3  0  0  0  0  0  0
  192.7780  173.6630  140.8930 C   0  0  1  0  0  3  0  0  0  0  0  0
  189.8620  172.7790  145.0370 C   0  0  0  0  0  2  0  0  0  0  0  0
  196.9620  175.7600  142.6080 C   0  0  0  0  0  2  0  0  0  0  0  0
  191.9260  175.5040  143.9520 N   0  0  2  0  0  0  0  0  0  0  0  0
  191.9240  176.7890  146.9850 F   0  0  0  0  0  0  0  0  0  0  0  0
  190.1130  171.9150  141.2880 C   0  0  0  0  0  2  0  0  0  0  0  0
  189.3400  172.1940  143.6950 C   0  0  0  0  0  2  0  0  0  0  0  0
  191.5610  176.7410  144.6300 C   0  0  0  0  0  2  0  0  0  0  0  0
  195.4210  175.5810  140.4940 C   0  0  1  0  0  3  0  0  0  0  0  0
  194.7630  174.2560  140.1130 C   0  0  0  0  0  2  0  0  0  0  0  0
  189.8790  172.9030  142.4270 C   0  0  1  0  0  3  0  0  0  0  0  0
  192.4190  175.7020  142.5850 C   0  0  1  0  0  3  0  0  0  0  0  0
  190.6610  174.9160  146.2340 C   0  0  0  0  0  2  0  0  0  0  0  0
  192.1110  172.4250  140.2470 C   0  0  1  0  0  3  0  0  0  0  0  0
  189.8310  177.1710  146.2310 O   0  0  0  0  0  1  0  0  0  0  0  0
  194.4900  176.4900  141.3170 C   0  0  0  0  0  2  0  0  0  0  0  0
  197.6420  174.7740  140.5820 O   0  0  0  0  0  0  0  0  0  0  0  0
  193.9460  175.8770  142.6210 C   0  0  2  0  0  3  0  0  0  0  0  0
  191.4680  171.5490  141.1590 O   0  0  0  0  0  0  0  0  0  0  0  0
  191.9420  172.0030  137.7760 C   0  0  0  0  0  3  0  0  0  0  0  0
  191.4240  172.6290  138.9150 C   0  0  0  0  0  0  0  0  0  0  0  0
  190.2640  173.4110  138.8090 C   0  0  0  0  0  3  0  0  0  0  0  0
  188.1930  174.5550  137.4460 Cl  0  0  0  0  0  0  0  0  0  0  0  0
  190.1620  172.9510  136.4350 C   0  0  0  0  0  3  0  0  0  0  0  0
  189.6370  173.5740  137.5710 C   0  0  0  0  0  0  0  0  0  0  0  0
  191.3140  172.1660  136.5370 C   0  0  0  0  0  3  0  0  0  0  0  0
  197.9230  174.1610  144.6350 C   0  0  0  0  0  1  0  0  0  0  0  0
  196.7820  173.7690  143.9350 O   0  0  0  0  0  0  0  0  0  0  0  0
  1  4  1  0  0  0  0
  2 24  1  1  0  0  0
  2 22  1  0  0  0  0
  2 14  1  0  0  0  0
  3  9  1  0  0  0  0
  4 37  1  0  0  0  0
  5 19  1  0  0  0  0
  5 10  1  0  0  0  0
  6 11  1  0  0  0  0
  6 22  1  0  0  0  0
  7 21  1  0  0  0  0
  7  3  1  0  0  0  0
  8 12  1  0  0  0  0
  9 13  1  0  0  0  0
  9  6  1  0  0  0  0
 10  7  1  0  0  0  0
 12  4  1  0  0  0  0
 13 17  1  0  0  0  0
 15 20  1  0  0  0  0
 16 11  1  0  0  0  0
 17  2  1  0  0  0  0
 18  8  1  0  0  0  0
 18 25  1  0  0  0  0
 19 18  1  0  0  0  0
 20  3  1  0  0  0  0
 20 16  1  0  0  0  0
 21 27  1  0  0  0  0
 21 13  1  0  0  0  0
 23 10  1  0  0  0  0
 23 28  1  0  0  0  0
 25 27  1  0  0  0  0
 26  8  2  0  0  0  0
 27  1  1  0  0  0  0
 28 15  1  0  0  0  0
 29 30  1  0  0  0  0
 30 23  1  0  0  0  0
 31 30  2  0  0  0  0
 32 34  1  0  0  0  0
 33 35  1  0  0  0  0
 33 34  2  0  0  0  0
 34 31  1  0  0  0  0
 35 29  2  0  0  0  0
 37 36  1  0  0  0  0
M  END
>  <MODEL>
6

>  <REMARK>
 VINA RESULT:      -7.6      3.399      6.352
  Name = 
  2 active torsions:
  status: ('A' for Active; 'I' for Inactive)
    1  A    between atoms: C_4  and  O_37
    2  A    between atoms: C_23  and  C_30
                            x       y       z     vdW  Elec       q    Type
                         _______ _______ _______ _____ _____    ______ ____

>  <TORSDO>
F 2

$$$$
=
 OpenBabel11112417133D

 37 43  0  0  1  0  0  0  0  0999 V2000
  191.9790  175.3640  145.0380 C   0  0  0  0  0  2  0  0  0  0  0  0
  188.0840  177.6590  142.8850 C   0  0  1  0  0  0  0  0  0  0  0  0
  190.1790  174.0750  142.0430 C   0  0  1  0  0  3  0  0  0  0  0  0
  192.4390  175.9110  146.3960 C   0  0  2  0  0  3  0  0  0  0  0  0
  193.9090  174.0130  142.4130 O   0  0  0  0  0  0  0  0  0  0  0  0
  187.9230  175.2570  142.0270 C   0  0  1  0  0  3  0  0  0  0  0  0
  191.6060  174.5690  141.9300 C   0  0  2  0  0  3  0  0  0  0  0  0
  194.8340  175.5320  145.6520 C   0  0  0  0  0  0  0  0  0  0  0  0
  189.4470  175.3530  141.9030 C   0  0  1  0  0  3  0  0  0  0  0  0
  192.5920  173.5590  142.5500 C   0  0  1  0  0  3  0  0  0  0  0  0
  187.4610  173.8140  142.2910 C   0  0  0  0  0  2  0  0  0  0  0  0
  193.8910  176.4080  146.4290 C   0  0  0  0  0  2  0  0  0  0  0  0
  190.0690  176.2050  142.8810 N   0  0  2  0  0  0  0  0  0  0  0  0
  187.8890  178.3820  144.0470 F   0  0  0  0  0  0  0  0  0  0  0  0
  190.4550  171.8270  140.8930 C   0  0  0  0  0  2  0  0  0  0  0  0
  188.1460  172.7950  141.3360 C   0  0  0  0  0  2  0  0  0  0  0  0
  189.6070  177.5610  142.6140 C   0  0  0  0  0  2  0  0  0  0  0  0
  194.7600  175.4490  144.1480 C   0  0  1  0  0  3  0  0  0  0  0  0
  194.4170  174.0250  143.7140 C   0  0  0  0  0  2  0  0  0  0  0  0
  189.6300  173.1040  141.0170 C   0  0  1  0  0  3  0  0  0  0  0  0
  191.4920  175.9960  142.5920 C   0  0  1  0  0  3  0  0  0  0  0  0
  187.4010  176.2760  143.0490 C   0  0  0  0  0  2  0  0  0  0  0  0
  192.4800  172.1330  141.9610 C   0  0  1  0  0  3  0  0  0  0  0  0
  187.4840  178.3410  141.8260 O   0  0  0  0  0  1  0  0  0  0  0  0
  193.8050  176.4980  143.5490 C   0  0  0  0  0  2  0  0  0  0  0  0
  195.6770  174.8860  146.2530 O   0  0  0  0  0  0  0  0  0  0  0  0
  192.3110  176.2900  143.8590 C   0  0  2  0  0  3  0  0  0  0  0  0
  191.1930  171.5450  142.0600 O   0  0  0  0  0  0  0  0  0  0  0  0
  194.0250  170.6870  140.6050 C   0  0  0  0  0  3  0  0  0  0  0  0
  193.2510  171.8500  140.6910 C   0  0  0  0  0  0  0  0  0  0  0  0
  193.1820  172.7180  139.5910 C   0  0  0  0  0  3  0  0  0  0  0  0
  193.8030  173.5200  137.0560 Cl  0  0  0  0  0  0  0  0  0  0  0  0
  194.6660  171.2690  138.3440 C   0  0  0  0  0  3  0  0  0  0  0  0
  193.8900  172.4290  138.4220 C   0  0  0  0  0  0  0  0  0  0  0  0
  194.7330  170.3980  139.4350 C   0  0  0  0  0  3  0  0  0  0  0  0
  191.1010  175.3260  148.0590 C   0  0  0  0  0  1  0  0  0  0  0  0
  192.2530  174.9340  147.3760 O   0  0  0  0  0  0  0  0  0  0  0  0
  1  4  1  0  0  0  0
  2 24  1  6  0  0  0
  2 22  1  0  0  0  0
  2 14  1  0  0  0  0
  4 12  1  0  0  0  0
  4 37  1  0  0  0  0
  5 10  1  0  0  0  0
  5 19  1  0  0  0  0
  6 11  1  0  0  0  0
  6 22  1  0  0  0  0
  7  3  1  0  0  0  0
  7 10  1  0  0  0  0
  7 21  1  0  0  0  0
  8 26  2  0  0  0  0
  8 12  1  0  0  0  0
  9  6  1  0  0  0  0
  9  3  1  0  0  0  0
  9 13  1  0  0  0  0
 15 20  1  0  0  0  0
 15 28  1  0  0  0  0
 16 11  1  0  0  0  0
 17 13  1  0  0  0  0
 17  2  1  0  0  0  0
 18  8  1  0  0  0  0
 19 18  1  0  0  0  0
 20 16  1  0  0  0  0
 20  3  1  0  0  0  0
 21 13  1  0  0  0  0
 21 27  1  0  0  0  0
 23 28  1  0  0  0  0
 23 10  1  0  0  0  0
 25 27  1  0  0  0  0
 25 18  1  0  0  0  0
 27  1  1  0  0  0  0
 29 30  1  0  0  0  0
 30 23  1  0  0  0  0
 31 30  2  0  0  0  0
 32 34  1  0  0  0  0
 33 34  2  0  0  0  0
 33 35  1  0  0  0  0
 34 31  1  0  0  0  0
 35 29  2  0  0  0  0
 37 36  1  0  0  0  0
M  END
>  <MODEL>
7

>  <REMARK>
 VINA RESULT:      -7.5      3.396      6.622
  Name = 
  2 active torsions:
  status: ('A' for Active; 'I' for Inactive)
    1  A    between atoms: C_4  and  O_37
    2  A    between atoms: C_23  and  C_30
                            x       y       z     vdW  Elec       q    Type
                         _______ _______ _______ _____ _____    ______ ____

>  <TORSDO>
F 2

$$$$
=
 OpenBabel11112417133D

 37 43  0  0  1  0  0  0  0  0999 V2000
  192.4070  175.4820  142.6230 C   0  0  0  0  0  2  0  0  0  0  0  0
  190.2350  172.0320  139.7170 C   0  0  1  0  0  0  0  0  0  0  0  0
  188.7720  175.4080  141.8160 C   0  0  1  0  0  3  0  0  0  0  0  0
  193.9410  175.4960  142.6500 C   0  0  2  0  0  3  0  0  0  0  0  0
  190.1280  176.1630  145.2280 O   0  0  0  0  0  0  0  0  0  0  0  0
  188.5520  173.9560  139.7340 C   0  0  1  0  0  3  0  0  0  0  0  0
  189.2530  175.1300  143.2240 C   0  0  2  0  0  3  0  0  0  0  0  0
  193.8170  175.9700  145.1400 C   0  0  0  0  0  0  0  0  0  0  0  0
  188.9070  174.0600  141.2210 C   0  0  1  0  0  3  0  0  0  0  0  0
  189.7140  176.4280  143.9170 C   0  0  1  0  0  3  0  0  0  0  0  0
  188.1310  175.3150  139.1510 C   0  0  0  0  0  2  0  0  0  0  0  0
  194.5600  175.2680  144.0370 C   0  0  0  0  0  2  0  0  0  0  0  0
  190.2610  173.6890  141.5360 N   0  0  2  0  0  0  0  0  0  0  0  0
  191.4740  171.7160  139.1940 F   0  0  0  0  0  0  0  0  0  0  0  0
  187.0100  177.1590  142.3460 C   0  0  0  0  0  2  0  0  0  0  0  0
  187.1060  176.0510  140.0590 C   0  0  0  0  0  2  0  0  0  0  0  0
  190.3880  172.2670  141.2420 C   0  0  0  0  0  2  0  0  0  0  0  0
  192.4300  175.5350  145.5440 C   0  0  1  0  0  3  0  0  0  0  0  0
  191.4300  176.6630  145.2960 C   0  0  0  0  0  2  0  0  0  0  0  0
  187.3520  175.8850  141.5800 C   0  0  1  0  0  3  0  0  0  0  0  0
  190.3290  174.0060  142.9670 C   0  0  1  0  0  3  0  0  0  0  0  0
  189.6840  173.2680  138.9590 C   0  0  0  0  0  2  0  0  0  0  0  0
  188.6390  177.5420  143.9380 C   0  0  1  0  0  3  0  0  0  0  0  0
  189.3740  170.9520  139.5150 O   0  0  0  0  0  1  0  0  0  0  0  0
  192.0120  174.2130  144.8750 C   0  0  0  0  0  2  0  0  0  0  0  0
  194.3520  176.9010  145.7190 O   0  0  0  0  0  0  0  0  0  0  0  0
  191.7910  174.2800  143.3520 C   0  0  2  0  0  3  0  0  0  0  0  0
  188.1510  177.9240  142.6620 O   0  0  0  0  0  0  0  0  0  0  0  0
  186.5150  176.6560  144.9470 C   0  0  0  0  0  3  0  0  0  0  0  0
  187.6250  177.5010  145.0600 C   0  0  0  0  0  0  0  0  0  0  0  0
  187.7920  178.2740  146.2180 C   0  0  0  0  0  3  0  0  0  0  0  0
  187.0650  179.1800  148.6890 Cl  0  0  0  0  0  0  0  0  0  0  0  0
  185.7410  177.3680  147.1280 C   0  0  0  0  0  3  0  0  0  0  0  0
  186.8510  178.2090  147.2480 C   0  0  0  0  0  0  0  0  0  0  0  0
  185.5730  176.5920  145.9780 C   0  0  0  0  0  3  0  0  0  0  0  0
  195.7000  176.4300  141.6850 C   0  0  0  0  0  1  0  0  0  0  0  0
  194.4030  176.7030  142.1210 O   0  0  0  0  0  0  0  0  0  0  0  0
  1  4  1  0  0  0  0
  1 27  1  0  0  0  0
  2 14  1  6  0  0  0
  2 17  1  0  0  0  0
  3  7  1  0  0  0  0
  4 12  1  0  0  0  0
  5 19  1  0  0  0  0
  6  9  1  0  0  0  0
  7 10  1  0  0  0  0
  8 18  1  0  0  0  0
  8 26  2  0  0  0  0
  9 13  1  0  0  0  0
  9  3  1  0  0  0  0
 10 23  1  0  0  0  0
 10  5  1  0  0  0  0
 11  6  1  0  0  0  0
 11 16  1  0  0  0  0
 12  8  1  0  0  0  0
 13 21  1  0  0  0  0
 15 28  1  0  0  0  0
 16 20  1  0  0  0  0
 17 13  1  0  0  0  0
 19 18  1  0  0  0  0
 20  3  1  0  0  0  0
 20 15  1  0  0  0  0
 21  7  1  0  0  0  0
 21 27  1  0  0  0  0
 22  2  1  0  0  0  0
 22  6  1  0  0  0  0
 23 30  1  0  0  0  0
 24  2  1  0  0  0  0
 25 18  1  0  0  0  0
 27 25  1  0  0  0  0
 28 23  1  0  0  0  0
 29 30  2  0  0  0  0
 29 35  1  0  0  0  0
 30 31  1  0  0  0  0
 31 34  2  0  0  0  0
 33 34  1  0  0  0  0
 34 32  1  0  0  0  0
 35 33  2  0  0  0  0
 36 37  1  0  0  0  0
 37  4  1  0  0  0  0
M  END
>  <MODEL>
8

>  <REMARK>
 VINA RESULT:      -7.4      1.649      2.032
  Name = 
  2 active torsions:
  status: ('A' for Active; 'I' for Inactive)
    1  A    between atoms: C_4  and  O_37
    2  A    between atoms: C_23  and  C_30
                            x       y       z     vdW  Elec       q    Type
                         _______ _______ _______ _____ _____    ______ ____

>  <TORSDO>
F 2

$$$$
=
 OpenBabel11112417133D

 37 43  0  0  1  0  0  0  0  0999 V2000
  194.0090  174.0810  140.8010 C   0  0  0  0  0  2  0  0  0  0  0  0
  192.2820  169.6120  139.3490 C   0  0  1  0  0  0  0  0  0  0  0  0
  190.4900  172.9460  141.2510 C   0  0  1  0  0  3  0  0  0  0  0  0
  195.4150  174.4680  140.3220 C   0  0  2  0  0  3  0  0  0  0  0  0
  192.4240  174.8090  143.8670 O   0  0  0  0  0  0  0  0  0  0  0  0
  190.1660  171.0230  139.6130 C   0  0  1  0  0  3  0  0  0  0  0  0
  191.3950  173.1420  142.4500 C   0  0  2  0  0  3  0  0  0  0  0  0
  195.8310  175.4880  142.6070 C   0  0  0  0  0  0  0  0  0  0  0  0
  190.8610  171.5670  140.8660 C   0  0  1  0  0  3  0  0  0  0  0  0
  191.6110  174.6410  142.7400 C   0  0  1  0  0  3  0  0  0  0  0  0
  189.2130  172.0580  138.9930 C   0  0  0  0  0  2  0  0  0  0  0  0
  196.4240  174.7380  141.4470 C   0  0  0  0  0  2  0  0  0  0  0  0
  192.2960  171.6180  140.7740 N   0  0  2  0  0  0  0  0  0  0  0  0
  193.3680  169.4840  138.5050 F   0  0  0  0  0  0  0  0  0  0  0  0
  188.4940  174.3000  142.0470 C   0  0  0  0  0  2  0  0  0  0  0  0
  188.2990  172.7250  140.0590 C   0  0  0  0  0  2  0  0  0  0  0  0
  192.7620  170.2400  140.6820 C   0  0  0  0  0  2  0  0  0  0  0  0
  194.8040  174.8460  143.5070 C   0  0  1  0  0  3  0  0  0  0  0  0
  193.4820  175.6070  143.4250 C   0  0  0  0  0  2  0  0  0  0  0  0
  188.9850  172.9980  141.4210 C   0  0  1  0  0  3  0  0  0  0  0  0
  192.6490  172.2800  142.0350 C   0  0  1  0  0  3  0  0  0  0  0  0
  191.1990  170.4580  138.6280 C   0  0  0  0  0  2  0  0  0  0  0  0
  190.2980  175.4360  142.9360 C   0  0  1  0  0  3  0  0  0  0  0  0
  191.7670  168.3420  139.6120 O   0  0  0  0  0  1  0  0  0  0  0  0
  194.6400  173.3400  143.2290 C   0  0  0  0  0  2  0  0  0  0  0  0
  196.1960  176.6320  142.8250 O   0  0  0  0  0  0  0  0  0  0  0  0
  194.0070  172.9800  141.8720 C   0  0  2  0  0  3  0  0  0  0  0  0
  189.3920  175.3690  141.8470 O   0  0  0  0  0  0  0  0  0  0  0  0
  189.9720  174.3670  145.1870 C   0  0  0  0  0  3  0  0  0  0  0  0
  189.6870  175.4280  144.3190 C   0  0  0  0  0  0  0  0  0  0  0  0
  188.8600  176.4750  144.7540 C   0  0  0  0  0  3  0  0  0  0  0  0
  187.2850  177.7620  146.5750 Cl  0  0  0  0  0  0  0  0  0  0  0  0
  188.6020  175.3900  146.9020 C   0  0  0  0  0  3  0  0  0  0  0  0
  188.3180  176.4540  146.0410 C   0  0  0  0  0  0  0  0  0  0  0  0
  189.4300  174.3470  146.4750 C   0  0  0  0  0  3  0  0  0  0  0  0
  194.5130  175.1800  138.4310 C   0  0  0  0  0  1  0  0  0  0  0  0
  195.3290  175.5840  139.4880 O   0  0  0  0  0  0  0  0  0  0  0  0
  1 27  1  0  0  0  0
  2 14  1  6  0  0  0
  2 24  1  0  0  0  0
  2 17  1  0  0  0  0
  3 20  1  0  0  0  0
  3  7  1  0  0  0  0
  4  1  1  0  0  0  0
  4 12  1  0  0  0  0
  6  9  1  0  0  0  0
  7 10  1  0  0  0  0
  8 26  2  0  0  0  0
  8 18  1  0  0  0  0
  9  3  1  0  0  0  0
 10 23  1  0  0  0  0
 10  5  1  0  0  0  0
 11  6  1  0  0  0  0
 11 16  1  0  0  0  0
 12  8  1  0  0  0  0
 13  9  1  0  0  0  0
 13 21  1  0  0  0  0
 16 20  1  0  0  0  0
 17 13  1  0  0  0  0
 19 18  1  0  0  0  0
 19  5  1  0  0  0  0
 20 15  1  0  0  0  0
 21  7  1  0  0  0  0
 22  2  1  0  0  0  0
 22  6  1  0  0  0  0
 23 30  1  0  0  0  0
 25 18  1  0  0  0  0
 27 21  1  0  0  0  0
 27 25  1  0  0  0  0
 28 15  1  0  0  0  0
 28 23  1  0  0  0  0
 29 35  1  0  0  0  0
 30 31  1  0  0  0  0
 30 29  2  0  0  0  0
 31 34  2  0  0  0  0
 34 32  1  0  0  0  0
 34 33  1  0  0  0  0
 35 33  2  0  0  0  0
 36 37  1  0  0  0  0
 37  4  1  0  0  0  0
M  END
>  <MODEL>
9

>  <REMARK>
 VINA RESULT:      -7.4      2.297      3.155
  Name = 
  2 active torsions:
  status: ('A' for Active; 'I' for Inactive)
    1  A    between atoms: C_4  and  O_37
    2  A    between atoms: C_23  and  C_30
                            x       y       z     vdW  Elec       q    Type
                         _______ _______ _______ _____ _____    ______ ____

>  <TORSDO>
F 2

$$$$
