=
 OpenBabel11112416433D

 32 37  0  0  1  0  0  0  0  0999 V2000
  194.9420  175.8100  144.4020 C   0  0  0  0  0  2  0  0  0  0  0  0
  190.6430  176.5110  145.4810 C   0  0  2  0  0  3  0  0  0  0  0  0
  189.1870  174.1880  141.3660 C   0  0  0  0  0  3  0  0  0  0  0  0
  188.1870  175.1440  141.1880 C   0  0  0  0  0  3  0  0  0  0  0  0
  188.7460  177.6120  146.8420 C   0  0  0  0  0  0  0  0  0  0  0  0
  187.2730  177.7710  146.9110 C   0  0  1  0  0  3  0  0  0  0  0  0
  192.7060  175.5840  146.6210 C   0  0  1  0  0  3  0  0  0  0  0  0
  191.9490  174.7970  144.4220 O   0  0  0  0  0  0  0  0  0  0  0  0
  185.5060  178.9020  146.0590 C   0  0  2  0  0  3  0  0  0  0  0  0
  193.8780  173.6550  145.3140 C   0  0  0  0  0  2  0  0  0  0  0  0
  189.9750  174.2120  142.5170 C   0  0  0  0  0  3  0  0  0  0  0  0
  190.6280  175.1630  144.7420 C   0  0  2  0  0  3  0  0  0  0  0  0
  189.7790  175.1930  143.5010 C   0  0  0  0  0  0  0  0  0  0  0  0
  188.4860  177.2150  144.3660 C   0  0  1  0  0  3  0  0  0  0  0  0
  185.6130  179.1730  147.4740 N   0  0  0  0  0  2  0  0  0  0  0  0
  193.9070  176.7560  145.0190 C   0  0  0  0  0  2  0  0  0  0  0  0
  192.5690  174.3950  145.6220 C   0  0  1  0  0  3  0  0  0  0  0  0
  186.6350  178.5800  147.9750 C   0  0  0  0  0  2  0  0  0  0  0  0
  193.7590  176.5100  146.3960 O   0  0  0  0  0  0  0  0  0  0  0  0
  195.1350  174.5280  145.2230 C   0  0  1  0  0  3  0  0  0  0  0  0
  187.9630  176.1100  142.1700 C   0  0  0  0  0  3  0  0  0  0  0  0
  188.7310  176.1290  143.3470 C   0  0  0  0  0  0  0  0  0  0  0  0
  186.9710  177.4280  144.6220 C   0  0  0  0  0  2  0  0  0  0  0  0
  191.3630  176.2900  146.8180 C   0  0  0  0  0  2  0  0  0  0  0  0
  189.4880  177.9800  147.7920 O   0  0  0  0  0  0  0  0  0  0  0  0
  184.3980  177.8760  145.8170 C   0  0  0  0  0  1  0  0  0  0  0  0
  189.2680  177.0270  145.6200 N   0  0  0  0  0  0  0  0  0  0  0  0
  186.8380  178.4090  145.6910 N   0  0  2  0  0  0  0  0  0  0  0  0
  196.2800  173.7020  144.6600 C   0  0  0  0  0  2  0  0  0  0  0  0
  196.9330  172.8840  145.7270 C   0  0  0  0  0  0  0  0  0  0  0  0
  197.2000  171.4370  145.4930 C   0  0  0  0  0  1  0  0  0  0  0  0
  197.2310  173.3910  146.7960 O   0  0  0  0  0  0  0  0  0  0  0  0
  1 16  1  0  0  0  0
  1 20  1  0  0  0  0
  2 27  1  0  0  0  0
  2 24  1  1  0  0  0
  3 11  1  0  0  0  0
  4  3  2  0  0  0  0
  4 21  1  0  0  0  0
  5  6  1  0  0  0  0
  5 25  2  0  0  0  0
  6 18  1  1  0  0  0
  7 24  1  6  0  0  0
  8 12  1  0  0  0  0
  8 17  1  0  0  0  0
  9 26  1  1  0  0  0
  9 15  1  0  0  0  0
 11 13  2  0  0  0  0
 12 13  1  6  0  0  0
 12  2  1  0  0  0  0
 14 23  1  1  0  0  0
 14 27  1  0  0  0  0
 15 18  1  0  0  0  0
 16 19  1  0  0  0  0
 17 10  1  6  0  0  0
 17  7  1  0  0  0  0
 19  7  1  0  0  0  0
 20 29  1  6  0  0  0
 20 10  1  0  0  0  0
 21 22  2  0  0  0  0
 22 13  1  0  0  0  0
 22 14  1  0  0  0  0
 27  5  1  0  0  0  0
 28 23  1  6  0  0  0
 28  9  1  0  0  0  0
 28  6  1  0  0  0  0
 29 30  1  0  0  0  0
 30 32  2  0  0  0  0
 31 30  1  0  0  0  0
M  END
>  <MODEL>
1

>  <REMARK>
 VINA RESULT:      -8.8      0.000      0.000
  Name = 
  2 active torsions:
  status: ('A' for Active; 'I' for Inactive)
    1  A    between atoms: C_20  and  C_29
    2  A    between atoms: C_29  and  C_30
                            x       y       z     vdW  Elec       q    Type
                         _______ _______ _______ _____ _____    ______ ____

>  <TORSDO>
F 2

$$$$
=
 OpenBabel11112416433D

 32 37  0  0  1  0  0  0  0  0999 V2000
  187.6310  176.0720  146.8750 C   0  0  0  0  0  2  0  0  0  0  0  0
  191.5110  175.6130  144.6660 C   0  0  2  0  0  3  0  0  0  0  0  0
  189.7880  171.5730  142.3940 C   0  0  0  0  0  3  0  0  0  0  0  0
  191.0340  170.9650  142.5450 C   0  0  0  0  0  3  0  0  0  0  0  0
  193.9970  176.1420  144.2160 C   0  0  0  0  0  0  0  0  0  0  0  0
  195.1770  175.7120  143.4270 C   0  0  1  0  0  3  0  0  0  0  0  0
  189.8330  177.4620  145.0880 C   0  0  1  0  0  3  0  0  0  0  0  0
  189.1750  175.2540  144.2420 O   0  0  0  0  0  0  0  0  0  0  0  0
  196.8610  174.2020  143.3160 C   0  0  2  0  0  3  0  0  0  0  0  0
  187.3800  176.8550  144.4400 C   0  0  0  0  0  2  0  0  0  0  0  0
  189.6130  172.9040  142.7740 C   0  0  0  0  0  3  0  0  0  0  0  0
  190.4550  175.0830  143.6820 C   0  0  2  0  0  3  0  0  0  0  0  0
  190.6770  173.6410  143.3160 C   0  0  0  0  0  0  0  0  0  0  0  0
  193.1270  173.7840  144.0090 C   0  0  1  0  0  3  0  0  0  0  0  0
  197.4140  175.5310  143.4430 N   0  0  0  0  0  2  0  0  0  0  0  0
  189.1580  176.1990  146.9120 C   0  0  0  0  0  2  0  0  0  0  0  0
  188.8770  176.6300  144.1810 C   0  0  1  0  0  3  0  0  0  0  0  0
  196.4810  176.4050  143.5540 C   0  0  0  0  0  2  0  0  0  0  0  0
  189.5670  177.4750  146.4830 O   0  0  0  0  0  0  0  0  0  0  0  0
  186.9790  177.0650  145.9050 C   0  0  1  0  0  3  0  0  0  0  0  0
  192.1070  171.6940  143.0580 C   0  0  0  0  0  3  0  0  0  0  0  0
  191.9530  173.0420  143.4200 C   0  0  0  0  0  0  0  0  0  0  0  0
  194.4330  173.5100  143.2180 C   0  0  0  0  0  2  0  0  0  0  0  0
  191.2960  177.1270  144.7940 C   0  0  0  0  0  2  0  0  0  0  0  0
  193.9990  177.2260  144.8580 O   0  0  0  0  0  0  0  0  0  0  0  0
  196.9530  173.7470  141.8590 C   0  0  0  0  0  1  0  0  0  0  0  0
  192.8610  175.2360  144.2100 N   0  0  0  0  0  0  0  0  0  0  0  0
  195.4800  174.3480  143.7890 N   0  0  2  0  0  0  0  0  0  0  0  0
  185.4640  177.0090  146.0220 C   0  0  0  0  0  2  0  0  0  0  0  0
  184.9040  178.3310  146.4370 C   0  0  0  0  0  0  0  0  0  0  0  0
  185.6580  179.1870  147.3950 C   0  0  0  0  0  1  0  0  0  0  0  0
  183.8240  178.7030  146.0100 O   0  0  0  0  0  0  0  0  0  0  0  0
  1 16  1  0  0  0  0
  2 24  1  6  0  0  0
  3  4  2  0  0  0  0
  3 11  1  0  0  0  0
  4 21  1  0  0  0  0
  5 25  2  0  0  0  0
  6 18  1  1  0  0  0
  6 28  1  0  0  0  0
  6  5  1  0  0  0  0
  7 24  1  1  0  0  0
  7 19  1  0  0  0  0
  9 26  1  6  0  0  0
  9 15  1  0  0  0  0
  9 28  1  0  0  0  0
 10 20  1  0  0  0  0
 11 13  2  0  0  0  0
 12 13  1  1  0  0  0
 12  8  1  0  0  0  0
 12  2  1  0  0  0  0
 13 22  1  0  0  0  0
 14 23  1  6  0  0  0
 14 27  1  0  0  0  0
 15 18  1  0  0  0  0
 17  8  1  0  0  0  0
 17 10  1  1  0  0  0
 17  7  1  0  0  0  0
 19 16  1  0  0  0  0
 20 29  1  6  0  0  0
 20  1  1  0  0  0  0
 21 22  2  0  0  0  0
 22 14  1  0  0  0  0
 27  5  1  0  0  0  0
 27  2  1  0  0  0  0
 28 23  1  6  0  0  0
 29 30  1  0  0  0  0
 30 31  1  0  0  0  0
 32 30  2  0  0  0  0
M  END
>  <MODEL>
2

>  <REMARK>
 VINA RESULT:      -8.6      2.896      8.089
  Name = 
  2 active torsions:
  status: ('A' for Active; 'I' for Inactive)
    1  A    between atoms: C_20  and  C_29
    2  A    between atoms: C_29  and  C_30
                            x       y       z     vdW  Elec       q    Type
                         _______ _______ _______ _____ _____    ______ ____

>  <TORSDO>
F 2

$$$$
=
 OpenBabel11112416433D

 32 37  0  0  1  0  0  0  0  0999 V2000
  187.2580  176.4510  146.3400 C   0  0  0  0  0  2  0  0  0  0  0  0
  191.3650  174.9460  145.3350 C   0  0  2  0  0  3  0  0  0  0  0  0
  189.4840  172.0500  141.7960 C   0  0  0  0  0  3  0  0  0  0  0  0
  190.3660  171.0360  142.1660 C   0  0  0  0  0  3  0  0  0  0  0  0
  193.8890  174.6320  145.7750 C   0  0  0  0  0  0  0  0  0  0  0  0
  195.0970  173.9180  145.2950 C   0  0  1  0  0  3  0  0  0  0  0  0
  190.2490  177.1970  145.6520 C   0  0  1  0  0  3  0  0  0  0  0  0
  189.3320  175.4690  144.1680 O   0  0  0  0  0  0  0  0  0  0  0  0
  196.2050  171.9440  145.3460 C   0  0  2  0  0  3  0  0  0  0  0  0
  188.1210  177.5560  144.1860 C   0  0  0  0  0  2  0  0  0  0  0  0
  189.5730  173.3050  142.4000 C   0  0  0  0  0  3  0  0  0  0  0  0
  190.6220  174.9340  143.9890 C   0  0  2  0  0  3  0  0  0  0  0  0
  190.5390  173.5590  143.3860 C   0  0  0  0  0  0  0  0  0  0  0  0
  192.5150  172.7630  144.7880 C   0  0  1  0  0  3  0  0  0  0  0  0
  197.0320  172.9750  145.9310 N   0  0  0  0  0  2  0  0  0  0  0  0
  188.6400  176.0380  146.8560 C   0  0  0  0  0  2  0  0  0  0  0  0
  189.4810  176.8600  144.3370 C   0  0  1  0  0  3  0  0  0  0  0  0
  196.4100  174.0970  145.9570 C   0  0  0  0  0  2  0  0  0  0  0  0
  189.5200  177.1350  146.8700 O   0  0  0  0  0  0  0  0  0  0  0  0
  187.3050  177.7160  145.4740 C   0  0  1  0  0  3  0  0  0  0  0  0
  191.3480  171.2820  143.1260 C   0  0  0  0  0  3  0  0  0  0  0  0
  191.4670  172.5480  143.7230 C   0  0  0  0  0  0  0  0  0  0  0  0
  193.8800  172.1500  144.3780 C   0  0  0  0  0  2  0  0  0  0  0  0
  191.5600  176.4140  145.7360 C   0  0  0  0  0  2  0  0  0  0  0  0
  193.9720  175.5640  146.6190 O   0  0  0  0  0  0  0  0  0  0  0  0
  196.6740  171.6620  143.9170 C   0  0  0  0  0  1  0  0  0  0  0  0
  192.6210  174.1820  145.2260 N   0  0  0  0  0  0  0  0  0  0  0  0
  194.8490  172.5000  145.4090 N   0  0  2  0  0  0  0  0  0  0  0  0
  185.8980  178.1730  145.1210 C   0  0  0  0  0  2  0  0  0  0  0  0
  185.1180  178.5190  146.3490 C   0  0  0  0  0  0  0  0  0  0  0  0
  185.7530  179.3300  147.4260 C   0  0  0  0  0  1  0  0  0  0  0  0
  183.9710  178.1250  146.4820 O   0  0  0  0  0  0  0  0  0  0  0  0
  1 16  1  0  0  0  0
  2 24  1  6  0  0  0
  3  4  2  0  0  0  0
  3 11  1  0  0  0  0
  4 21  1  0  0  0  0
  5 25  2  0  0  0  0
  6 28  1  0  0  0  0
  6  5  1  0  0  0  0
  6 18  1  1  0  0  0
  7 24  1  1  0  0  0
  7 19  1  0  0  0  0
  8 17  1  0  0  0  0
  9 26  1  6  0  0  0
  9 28  1  0  0  0  0
  9 15  1  0  0  0  0
 10 20  1  0  0  0  0
 11 13  2  0  0  0  0
 12 13  1  1  0  0  0
 12  8  1  0  0  0  0
 12  2  1  0  0  0  0
 13 22  1  0  0  0  0
 14 23  1  6  0  0  0
 14 27  1  0  0  0  0
 15 18  1  0  0  0  0
 16 19  1  0  0  0  0
 17 10  1  1  0  0  0
 17  7  1  0  0  0  0
 20 29  1  6  0  0  0
 20  1  1  0  0  0  0
 21 22  2  0  0  0  0
 22 14  1  0  0  0  0
 27  2  1  0  0  0  0
 27  5  1  0  0  0  0
 28 23  1  6  0  0  0
 29 30  1  0  0  0  0
 30 32  2  0  0  0  0
 30 31  1  0  0  0  0
M  END
>  <MODEL>
3

>  <REMARK>
 VINA RESULT:      -8.4      2.807      8.056
  Name = 
  2 active torsions:
  status: ('A' for Active; 'I' for Inactive)
    1  A    between atoms: C_20  and  C_29
    2  A    between atoms: C_29  and  C_30
                            x       y       z     vdW  Elec       q    Type
                         _______ _______ _______ _____ _____    ______ ____

>  <TORSDO>
F 2

$$$$
=
 OpenBabel11112416433D

 32 37  0  0  1  0  0  0  0  0999 V2000
  187.9840  175.6660  147.1370 C   0  0  0  0  0  2  0  0  0  0  0  0
  191.3590  175.7700  144.1800 C   0  0  2  0  0  3  0  0  0  0  0  0
  188.6180  173.2840  140.9000 C   0  0  0  0  0  3  0  0  0  0  0  0
  189.7390  172.5390  140.5380 C   0  0  0  0  0  3  0  0  0  0  0  0
  193.8100  176.1690  143.4750 C   0  0  0  0  0  0  0  0  0  0  0  0
  194.7670  175.9890  142.3560 C   0  0  1  0  0  3  0  0  0  0  0  0
  190.1260  177.4360  145.6360 C   0  0  1  0  0  3  0  0  0  0  0  0
  188.9600  175.8790  144.1390 O   0  0  0  0  0  0  0  0  0  0  0  0
  196.1120  174.4960  141.3120 C   0  0  2  0  0  3  0  0  0  0  0  0
  187.5370  177.4280  145.3200 C   0  0  0  0  0  2  0  0  0  0  0  0
  188.7460  174.3390  141.8040 C   0  0  0  0  0  3  0  0  0  0  0  0
  190.0940  175.8240  143.3070 C   0  0  2  0  0  3  0  0  0  0  0  0
  189.9940  174.6580  142.3620 C   0  0  0  0  0  0  0  0  0  0  0  0
  192.5020  174.2290  142.5350 C   0  0  1  0  0  3  0  0  0  0  0  0
  196.9120  175.5780  141.8380 N   0  0  0  0  0  2  0  0  0  0  0  0
  189.4970  175.6000  146.9070 C   0  0  0  0  0  2  0  0  0  0  0  0
  188.9140  177.1750  144.6910 C   0  0  1  0  0  3  0  0  0  0  0  0
  196.1800  176.4170  142.4760 C   0  0  0  0  0  2  0  0  0  0  0  0
  190.0680  176.8850  146.9440 O   0  0  0  0  0  0  0  0  0  0  0  0
  187.3940  177.0410  146.7960 C   0  0  1  0  0  3  0  0  0  0  0  0
  190.9910  172.8610  141.0650 C   0  0  0  0  0  3  0  0  0  0  0  0
  191.1390  173.9380  141.9550 C   0  0  0  0  0  0  0  0  0  0  0  0
  193.6090  174.1770  141.4490 C   0  0  0  0  0  2  0  0  0  0  0  0
  191.4460  177.1010  144.9390 C   0  0  0  0  0  2  0  0  0  0  0  0
  194.1030  176.8710  144.4790 O   0  0  0  0  0  0  0  0  0  0  0  0
  195.9100  174.6940  139.8090 C   0  0  0  0  0  1  0  0  0  0  0  0
  192.5380  175.4790  143.3440 N   0  0  0  0  0  0  0  0  0  0  0  0
  194.8620  174.5750  142.0770 N   0  0  2  0  0  0  0  0  0  0  0  0
  185.9270  177.1030  147.1910 C   0  0  0  0  0  2  0  0  0  0  0  0
  185.3740  178.4790  147.0000 C   0  0  0  0  0  0  0  0  0  0  0  0
  184.1820  178.6840  146.1300 C   0  0  0  0  0  1  0  0  0  0  0  0
  185.9050  179.4360  147.5380 O   0  0  0  0  0  0  0  0  0  0  0  0
  2 24  1  6  0  0  0
  3 11  1  0  0  0  0
  4  3  2  0  0  0  0
  4 21  1  0  0  0  0
  5 25  2  0  0  0  0
  6 18  1  1  0  0  0
  6  5  1  0  0  0  0
  7 24  1  6  0  0  0
  7 19  1  0  0  0  0
  8 17  1  0  0  0  0
  9 26  1  6  0  0  0
  9 15  1  0  0  0  0
  9 28  1  0  0  0  0
 10 20  1  0  0  0  0
 11 13  2  0  0  0  0
 12 13  1  1  0  0  0
 12  8  1  0  0  0  0
 12  2  1  0  0  0  0
 14 23  1  6  0  0  0
 14 27  1  0  0  0  0
 15 18  1  0  0  0  0
 16 19  1  0  0  0  0
 16  1  1  0  0  0  0
 17 10  1  1  0  0  0
 17  7  1  0  0  0  0
 20  1  1  0  0  0  0
 20 29  1  6  0  0  0
 21 22  2  0  0  0  0
 22 13  1  0  0  0  0
 22 14  1  0  0  0  0
 27  5  1  0  0  0  0
 27  2  1  0  0  0  0
 28 23  1  6  0  0  0
 28  6  1  0  0  0  0
 30 29  1  0  0  0  0
 30 32  2  0  0  0  0
 31 30  1  0  0  0  0
M  END
>  <MODEL>
4

>  <REMARK>
 VINA RESULT:      -8.3      3.092      7.877
  Name = 
  2 active torsions:
  status: ('A' for Active; 'I' for Inactive)
    1  A    between atoms: C_20  and  C_29
    2  A    between atoms: C_29  and  C_30
                            x       y       z     vdW  Elec       q    Type
                         _______ _______ _______ _____ _____    ______ ____

>  <TORSDO>
F 2

$$$$
=
 OpenBabel11112416433D

 32 37  0  0  1  0  0  0  0  0999 V2000
  190.1400  171.6140  141.5120 C   0  0  0  0  0  2  0  0  0  0  0  0
  188.4060  175.1670  143.6370 C   0  0  2  0  0  3  0  0  0  0  0  0
  192.2310  175.2120  146.7710 C   0  0  0  0  0  3  0  0  0  0  0  0
  191.3600  175.5050  147.8200 C   0  0  0  0  0  3  0  0  0  0  0  0
  186.5250  176.8460  144.1870 C   0  0  0  0  0  0  0  0  0  0  0  0
  186.1500  177.9490  145.1050 C   0  0  1  0  0  3  0  0  0  0  0  0
  188.9260  174.5170  141.2450 C   0  0  1  0  0  3  0  0  0  0  0  0
  190.5830  174.3400  143.0480 O   0  0  0  0  0  0  0  0  0  0  0  0
  185.3540  178.4280  147.1700 C   0  0  2  0  0  3  0  0  0  0  0  0
  191.3900  173.7600  140.8500 C   0  0  0  0  0  2  0  0  0  0  0  0
  191.7510  175.1620  145.4620 C   0  0  0  0  0  3  0  0  0  0  0  0
  189.9270  175.3640  143.7560 C   0  0  2  0  0  3  0  0  0  0  0  0
  190.3960  175.3960  145.1850 C   0  0  0  0  0  0  0  0  0  0  0  0
  188.0540  175.9910  146.0000 C   0  0  1  0  0  3  0  0  0  0  0  0
  184.4370  178.9310  146.1730 N   0  0  0  0  0  2  0  0  0  0  0  0
  188.8790  172.3280  142.0100 C   0  0  0  0  0  2  0  0  0  0  0  0
  190.4210  174.6170  141.6750 C   0  0  1  0  0  3  0  0  0  0  0  0
  184.8410  178.6330  144.9920 C   0  0  0  0  0  2  0  0  0  0  0  0
  188.3880  173.2190  141.0380 O   0  0  0  0  0  0  0  0  0  0  0  0
  190.8600  172.3920  140.4030 C   0  0  1  0  0  3  0  0  0  0  0  0
  190.0140  175.7650  147.5560 C   0  0  0  0  0  3  0  0  0  0  0  0
  189.5230  175.7450  146.2400 C   0  0  0  0  0  0  0  0  0  0  0  0
  187.5330  177.1960  146.8280 C   0  0  0  0  0  2  0  0  0  0  0  0
  188.0350  175.3590  142.1610 C   0  0  0  0  0  2  0  0  0  0  0  0
  185.8430  176.5910  143.1580 O   0  0  0  0  0  0  0  0  0  0  0  0
  186.2000  179.5810  147.7150 C   0  0  0  0  0  1  0  0  0  0  0  0
  187.7040  176.0820  144.5550 N   0  0  0  0  0  0  0  0  0  0  0  0
  186.1440  177.4230  146.4500 N   0  0  2  0  0  0  0  0  0  0  0  0
  192.0080  171.5710  139.8360 C   0  0  0  0  0  2  0  0  0  0  0  0
  191.5010  170.3920  139.0690 C   0  0  0  0  0  0  0  0  0  0  0  0
  190.5270  170.5910  137.9610 C   0  0  0  0  0  1  0  0  0  0  0  0
  191.8680  169.2650  139.3600 O   0  0  0  0  0  0  0  0  0  0  0  0
  1 16  1  0  0  0  0
  2 24  1  6  0  0  0
  2 12  1  0  0  0  0
  2 27  1  0  0  0  0
  3  4  1  0  0  0  0
  5 27  1  0  0  0  0
  5  6  1  0  0  0  0
  6 18  1  6  0  0  0
  6 28  1  0  0  0  0
  7 17  1  0  0  0  0
  7 24  1  1  0  0  0
  9 26  1  6  0  0  0
 11  3  2  0  0  0  0
 12  8  1  6  0  0  0
 12 13  1  0  0  0  0
 13 11  1  0  0  0  0
 13 22  2  0  0  0  0
 14 22  1  0  0  0  0
 14 23  1  1  0  0  0
 15  9  1  0  0  0  0
 17 10  1  6  0  0  0
 17  8  1  0  0  0  0
 18 15  1  0  0  0  0
 19  7  1  0  0  0  0
 19 16  1  0  0  0  0
 20 29  1  1  0  0  0
 20 10  1  0  0  0  0
 20  1  1  0  0  0  0
 21  4  2  0  0  0  0
 22 21  1  0  0  0  0
 25  5  2  0  0  0  0
 27 14  1  0  0  0  0
 28 23  1  1  0  0  0
 28  9  1  0  0  0  0
 30 32  2  0  0  0  0
 30 29  1  0  0  0  0
 31 30  1  0  0  0  0
M  END
>  <MODEL>
5

>  <REMARK>
 VINA RESULT:      -8.1      2.984      5.406
  Name = 
  2 active torsions:
  status: ('A' for Active; 'I' for Inactive)
    1  A    between atoms: C_20  and  C_29
    2  A    between atoms: C_29  and  C_30
                            x       y       z     vdW  Elec       q    Type
                         _______ _______ _______ _____ _____    ______ ____

>  <TORSDO>
F 2

$$$$
=
 OpenBabel11112416433D

 32 37  0  0  1  0  0  0  0  0999 V2000
  186.7660  178.6580  142.3890 C   0  0  0  0  0  2  0  0  0  0  0  0
  190.1270  175.7180  142.8390 C   0  0  2  0  0  3  0  0  0  0  0  0
  190.5250  176.8440  147.6380 C   0  0  0  0  0  3  0  0  0  0  0  0
  191.9140  176.7900  147.5280 C   0  0  0  0  0  3  0  0  0  0  0  0
  191.9440  174.1210  141.9390 C   0  0  0  0  0  0  0  0  0  0  0  0
  193.1050  173.2930  142.3480 C   0  0  1  0  0  3  0  0  0  0  0  0
  187.7830  175.7110  141.8810 C   0  0  1  0  0  3  0  0  0  0  0  0
  188.2770  176.5110  144.1490 O   0  0  0  0  0  0  0  0  0  0  0  0
  195.3070  173.3510  142.8710 C   0  0  2  0  0  3  0  0  0  0  0  0
  185.9410  176.5140  143.5440 C   0  0  0  0  0  2  0  0  0  0  0  0
  189.7280  176.4890  146.5490 C   0  0  0  0  0  3  0  0  0  0  0  0
  189.4110  175.6790  144.1990 C   0  0  2  0  0  3  0  0  0  0  0  0
  190.3070  176.0840  145.3370 C   0  0  0  0  0  0  0  0  0  0  0  0
  192.3880  175.5630  143.9580 C   0  0  1  0  0  3  0  0  0  0  0  0
  195.1120  172.5210  141.7040 N   0  0  0  0  0  2  0  0  0  0  0  0
  188.0090  178.0170  141.7630 C   0  0  0  0  0  2  0  0  0  0  0  0
  187.3130  175.8510  143.3610 C   0  0  1  0  0  3  0  0  0  0  0  0
  193.8760  172.5070  141.3570 C   0  0  0  0  0  2  0  0  0  0  0  0
  187.6690  176.8550  141.0460 O   0  0  0  0  0  0  0  0  0  0  0  0
  185.6170  177.6580  142.5760 C   0  0  1  0  0  3  0  0  0  0  0  0
  192.5040  176.3640  146.3370 C   0  0  0  0  0  3  0  0  0  0  0  0
  191.7130  175.9790  145.2420 C   0  0  0  0  0  0  0  0  0  0  0  0
  193.5770  174.6020  144.2220 C   0  0  0  0  0  2  0  0  0  0  0  0
  189.1810  175.0930  141.8060 C   0  0  0  0  0  2  0  0  0  0  0  0
  191.4460  174.0250  140.7850 O   0  0  0  0  0  0  0  0  0  0  0  0
  195.4930  172.4650  144.1030 C   0  0  0  0  0  1  0  0  0  0  0  0
  191.4360  175.0450  142.9370 N   0  0  0  0  0  0  0  0  0  0  0  0
  194.0920  174.1720  142.9280 N   0  0  2  0  0  0  0  0  0  0  0  0
  184.3610  178.3730  143.0490 C   0  0  0  0  0  2  0  0  0  0  0  0
  184.6180  179.1480  144.3010 C   0  0  0  0  0  0  0  0  0  0  0  0
  184.0660  178.6660  145.5970 C   0  0  0  0  0  1  0  0  0  0  0  0
  185.2620  180.1840  144.2630 O   0  0  0  0  0  0  0  0  0  0  0  0
  1 20  1  0  0  0  0
  2 24  1  6  0  0  0
  2 27  1  0  0  0  0
  2 12  1  0  0  0  0
  4  3  1  0  0  0  0
  5  6  1  0  0  0  0
  5 27  1  0  0  0  0
  6 18  1  6  0  0  0
  6 28  1  0  0  0  0
  7 24  1  1  0  0  0
  7 17  1  0  0  0  0
  9 28  1  0  0  0  0
  9 26  1  1  0  0  0
 11  3  2  0  0  0  0
 12  8  1  6  0  0  0
 12 13  1  0  0  0  0
 13 11  1  0  0  0  0
 14 23  1  1  0  0  0
 14 22  1  0  0  0  0
 15  9  1  0  0  0  0
 16  1  1  0  0  0  0
 17 10  1  6  0  0  0
 17  8  1  0  0  0  0
 18 15  1  0  0  0  0
 19 16  1  0  0  0  0
 19  7  1  0  0  0  0
 20 29  1  1  0  0  0
 20 10  1  0  0  0  0
 21  4  2  0  0  0  0
 22 13  2  0  0  0  0
 22 21  1  0  0  0  0
 25  5  2  0  0  0  0
 27 14  1  0  0  0  0
 28 23  1  1  0  0  0
 29 30  1  0  0  0  0
 30 31  1  0  0  0  0
 32 30  2  0  0  0  0
M  END
>  <MODEL>
6

>  <REMARK>
 VINA RESULT:      -7.9      3.231      8.699
  Name = 
  2 active torsions:
  status: ('A' for Active; 'I' for Inactive)
    1  A    between atoms: C_20  and  C_29
    2  A    between atoms: C_29  and  C_30
                            x       y       z     vdW  Elec       q    Type
                         _______ _______ _______ _____ _____    ______ ____

>  <TORSDO>
F 2

$$$$
=
 OpenBabel11112416433D

 32 37  0  0  1  0  0  0  0  0999 V2000
  186.9120  178.9600  142.7780 C   0  0  0  0  0  2  0  0  0  0  0  0
  189.2140  175.1840  142.0110 C   0  0  2  0  0  3  0  0  0  0  0  0
  192.8930  176.7910  144.8980 C   0  0  0  0  0  3  0  0  0  0  0  0
  193.8200  176.2740  143.9930 C   0  0  0  0  0  3  0  0  0  0  0  0
  189.6880  172.9730  140.7670 C   0  0  0  0  0  0  0  0  0  0  0  0
  190.6820  171.8810  140.6260 C   0  0  1  0  0  3  0  0  0  0  0  0
  186.8680  175.8020  142.7380 C   0  0  1  0  0  3  0  0  0  0  0  0
  188.8690  176.7130  143.8310 O   0  0  0  0  0  0  0  0  0  0  0  0
  192.6400  171.2940  139.6520 C   0  0  2  0  0  3  0  0  0  0  0  0
  186.7680  177.3880  144.8070 C   0  0  0  0  0  2  0  0  0  0  0  0
  191.5300  176.5630  144.7040 C   0  0  0  0  0  3  0  0  0  0  0  0
  189.6010  175.5740  143.4470 C   0  0  2  0  0  3  0  0  0  0  0  0
  191.0760  175.8240  143.6010 C   0  0  0  0  0  0  0  0  0  0  0  0
  191.5830  174.4650  141.5030 C   0  0  1  0  0  3  0  0  0  0  0  0
  191.5910  170.4160  139.1890 N   0  0  0  0  0  2  0  0  0  0  0  0
  187.2980  177.8680  141.7750 C   0  0  0  0  0  2  0  0  0  0  0  0
  187.5410  176.2960  144.0540 C   0  0  1  0  0  3  0  0  0  0  0  0
  190.4590  170.7540  139.6900 C   0  0  0  0  0  2  0  0  0  0  0  0
  186.3960  176.7900  141.8330 O   0  0  0  0  0  0  0  0  0  0  0  0
  186.0540  178.4250  143.9320 C   0  0  1  0  0  3  0  0  0  0  0  0
  193.3840  175.5150  142.9060 C   0  0  0  0  0  3  0  0  0  0  0  0
  192.0170  175.2550  142.7130 C   0  0  0  0  0  0  0  0  0  0  0  0
  192.4790  173.2180  141.2830 C   0  0  0  0  0  2  0  0  0  0  0  0
  187.7400  174.7600  142.0340 C   0  0  0  0  0  2  0  0  0  0  0  0
  188.5380  172.8800  140.2600 O   0  0  0  0  0  0  0  0  0  0  0  0
  193.4700  170.5810  140.7200 C   0  0  0  0  0  1  0  0  0  0  0  0
  190.1280  174.1450  141.5040 N   0  0  0  0  0  0  0  0  0  0  0  0
  191.9200  172.4650  140.1670 N   0  0  2  0  0  0  0  0  0  0  0  0
  185.5660  179.5680  144.8080 C   0  0  0  0  0  2  0  0  0  0  0  0
  184.8310  179.0570  146.0050 C   0  0  0  0  0  0  0  0  0  0  0  0
  185.5010  179.0410  147.3350 C   0  0  0  0  0  1  0  0  0  0  0  0
  183.6910  178.6350  145.8940 O   0  0  0  0  0  0  0  0  0  0  0  0
  1 20  1  0  0  0  0
  2 24  1  1  0  0  0
  2 12  1  0  0  0  0
  4  3  2  0  0  0  0
  5 27  1  0  0  0  0
  6 18  1  6  0  0  0
  6  5  1  0  0  0  0
  7 24  1  6  0  0  0
  7 17  1  0  0  0  0
  8 17  1  0  0  0  0
  9 28  1  0  0  0  0
  9 26  1  1  0  0  0
 11  3  1  0  0  0  0
 12 13  1  6  0  0  0
 12  8  1  0  0  0  0
 13 11  2  0  0  0  0
 14 23  1  1  0  0  0
 14 27  1  0  0  0  0
 14 22  1  0  0  0  0
 15  9  1  0  0  0  0
 15 18  1  0  0  0  0
 16 19  1  0  0  0  0
 16  1  1  0  0  0  0
 17 10  1  6  0  0  0
 19  7  1  0  0  0  0
 20 10  1  0  0  0  0
 20 29  1  1  0  0  0
 21  4  1  0  0  0  0
 22 21  2  0  0  0  0
 22 13  1  0  0  0  0
 25  5  2  0  0  0  0
 27  2  1  0  0  0  0
 28  6  1  0  0  0  0
 28 23  1  1  0  0  0
 29 30  1  0  0  0  0
 30 31  1  0  0  0  0
 32 30  2  0  0  0  0
M  END
>  <MODEL>
7

>  <REMARK>
 VINA RESULT:      -7.9      3.717      8.777
  Name = 
  2 active torsions:
  status: ('A' for Active; 'I' for Inactive)
    1  A    between atoms: C_20  and  C_29
    2  A    between atoms: C_29  and  C_30
                            x       y       z     vdW  Elec       q    Type
                         _______ _______ _______ _____ _____    ______ ____

>  <TORSDO>
F 2

$$$$
=
 OpenBabel11112416433D

 32 37  0  0  1  0  0  0  0  0999 V2000
  194.4450  174.8730  144.3210 C   0  0  0  0  0  2  0  0  0  0  0  0
  190.1340  176.1050  144.1180 C   0  0  2  0  0  3  0  0  0  0  0  0
  189.3890  173.0240  140.3230 C   0  0  0  0  0  3  0  0  0  0  0  0
  188.5830  173.9830  139.7100 C   0  0  0  0  0  3  0  0  0  0  0  0
  188.1270  177.6180  144.7060 C   0  0  0  0  0  0  0  0  0  0  0  0
  186.7090  177.8930  144.3680 C   0  0  1  0  0  3  0  0  0  0  0  0
  191.7470  175.3140  145.9030 C   0  0  1  0  0  3  0  0  0  0  0  0
  191.4250  174.1070  143.7900 O   0  0  0  0  0  0  0  0  0  0  0  0
  185.3410  178.9260  142.8880 C   0  0  2  0  0  3  0  0  0  0  0  0
  192.9390  173.0610  145.3500 C   0  0  0  0  0  2  0  0  0  0  0  0
  189.8870  173.2500  141.6070 C   0  0  0  0  0  3  0  0  0  0  0  0
  190.1230  174.6300  143.6850 C   0  0  2  0  0  3  0  0  0  0  0  0
  189.5930  174.4400  142.2910 C   0  0  0  0  0  0  0  0  0  0  0  0
  188.3980  176.6910  142.3770 C   0  0  1  0  0  3  0  0  0  0  0  0
  185.1520  179.5010  144.2000 N   0  0  0  0  0  2  0  0  0  0  0  0
  193.4210  176.0050  144.4540 C   0  0  0  0  0  2  0  0  0  0  0  0
  191.6970  173.9430  145.1630 C   0  0  1  0  0  3  0  0  0  0  0  0
  185.9490  178.9640  145.0510 C   0  0  0  0  0  2  0  0  0  0  0  0
  192.9310  176.0890  145.7700 O   0  0  0  0  0  0  0  0  0  0  0  0
  194.2820  173.8000  145.4060 C   0  0  1  0  0  3  0  0  0  0  0  0
  188.2620  175.1600  140.3890 C   0  0  0  0  0  3  0  0  0  0  0  0
  188.7340  175.3890  141.6920 C   0  0  0  0  0  0  0  0  0  0  0  0
  186.9030  177.0650  142.1940 C   0  0  0  0  0  2  0  0  0  0  0  0
  190.4930  176.1410  145.6090 C   0  0  0  0  0  2  0  0  0  0  0  0
  188.6700  178.1370  145.7180 O   0  0  0  0  0  0  0  0  0  0  0  0
  184.1990  177.9530  142.5860 C   0  0  0  0  0  1  0  0  0  0  0  0
  188.8400  176.7360  143.7980 N   0  0  0  0  0  0  0  0  0  0  0  0
  186.6500  178.2690  142.9750 N   0  0  2  0  0  0  0  0  0  0  0  0
  195.4140  172.7880  145.3270 C   0  0  0  0  0  2  0  0  0  0  0  0
  196.7280  173.4200  145.6540 C   0  0  0  0  0  0  0  0  0  0  0  0
  197.8200  173.4270  144.6400 C   0  0  0  0  0  1  0  0  0  0  0  0
  196.9180  173.9140  146.7530 O   0  0  0  0  0  0  0  0  0  0  0  0
  1 16  1  0  0  0  0
  1 20  1  0  0  0  0
  2 24  1  1  0  0  0
  3 11  1  0  0  0  0
  4  3  2  0  0  0  0
  4 21  1  0  0  0  0
  5 25  2  0  0  0  0
  6  5  1  0  0  0  0
  6 18  1  1  0  0  0
  7 24  1  6  0  0  0
  8 17  1  0  0  0  0
  9 26  1  1  0  0  0
  9 28  1  0  0  0  0
  9 15  1  0  0  0  0
 10 20  1  0  0  0  0
 11 13  2  0  0  0  0
 12 13  1  6  0  0  0
 12  8  1  0  0  0  0
 12  2  1  0  0  0  0
 14 23  1  1  0  0  0
 14 27  1  0  0  0  0
 15 18  1  0  0  0  0
 16 19  1  0  0  0  0
 17 10  1  6  0  0  0
 17  7  1  0  0  0  0
 19  7  1  0  0  0  0
 20 29  1  6  0  0  0
 21 22  2  0  0  0  0
 22 13  1  0  0  0  0
 22 14  1  0  0  0  0
 27  2  1  0  0  0  0
 27  5  1  0  0  0  0
 28 23  1  6  0  0  0
 28  6  1  0  0  0  0
 29 30  1  0  0  0  0
 30 32  2  0  0  0  0
 31 30  1  0  0  0  0
M  END
>  <MODEL>
8

>  <REMARK>
 VINA RESULT:      -7.7      1.528      1.937
  Name = 
  2 active torsions:
  status: ('A' for Active; 'I' for Inactive)
    1  A    between atoms: C_20  and  C_29
    2  A    between atoms: C_29  and  C_30
                            x       y       z     vdW  Elec       q    Type
                         _______ _______ _______ _____ _____    ______ ____

>  <TORSDO>
F 2

$$$$
=
 OpenBabel11112416433D

 32 37  0  0  1  0  0  0  0  0999 V2000
  187.6010  178.6700  142.7890 C   0  0  0  0  0  2  0  0  0  0  0  0
  189.5260  174.6230  142.5440 C   0  0  2  0  0  3  0  0  0  0  0  0
  191.9920  175.4960  146.7400 C   0  0  0  0  0  3  0  0  0  0  0  0
  193.1220  174.8850  146.1960 C   0  0  0  0  0  3  0  0  0  0  0  0
  190.1570  172.4270  141.3430 C   0  0  0  0  0  0  0  0  0  0  0  0
  190.9830  171.2010  141.4690 C   0  0  1  0  0  3  0  0  0  0  0  0
  187.1780  175.5630  142.4080 C   0  0  1  0  0  3  0  0  0  0  0  0
  188.7070  176.0970  144.2530 O   0  0  0  0  0  0  0  0  0  0  0  0
  193.0740  170.3640  141.2360 C   0  0  2  0  0  3  0  0  0  0  0  0
  186.4960  177.0440  144.4440 C   0  0  0  0  0  2  0  0  0  0  0  0
  190.7900  175.4930  146.0320 C   0  0  0  0  0  3  0  0  0  0  0  0
  189.3800  174.8780  144.0530 C   0  0  2  0  0  3  0  0  0  0  0  0
  190.7030  174.8870  144.7690 C   0  0  0  0  0  0  0  0  0  0  0  0
  191.7980  173.5680  142.8800 C   0  0  1  0  0  3  0  0  0  0  0  0
  192.1800  169.6830  140.3280 N   0  0  0  0  0  2  0  0  0  0  0  0
  188.2000  177.5810  141.8930 C   0  0  0  0  0  2  0  0  0  0  0  0
  187.3540  175.8820  143.9240 C   0  0  1  0  0  3  0  0  0  0  0  0
  190.9950  170.1700  140.4060 C   0  0  0  0  0  2  0  0  0  0  0  0
  187.2170  176.6550  141.5000 O   0  0  0  0  0  0  0  0  0  0  0  0
  186.3070  178.2200  143.4800 C   0  0  1  0  0  3  0  0  0  0  0  0
  193.0430  174.2560  144.9520 C   0  0  0  0  0  3  0  0  0  0  0  0
  191.8320  174.2220  144.2400 C   0  0  0  0  0  0  0  0  0  0  0  0
  192.5450  172.2090  142.8800 C   0  0  0  0  0  2  0  0  0  0  0  0
  188.1140  174.4330  141.9750 C   0  0  0  0  0  2  0  0  0  0  0  0
  189.2870  172.5390  140.4390 O   0  0  0  0  0  0  0  0  0  0  0  0
  193.3360  169.4800  142.4560 C   0  0  0  0  0  1  0  0  0  0  0  0
  190.4260  173.4790  142.3080 N   0  0  0  0  0  0  0  0  0  0  0  0
  192.3660  171.6060  141.5660 N   0  0  2  0  0  0  0  0  0  0  0  0
  185.6700  179.3820  144.2250 C   0  0  0  0  0  2  0  0  0  0  0  0
  184.2910  179.0370  144.6880 C   0  0  0  0  0  0  0  0  0  0  0  0
  184.0580  178.6650  146.1110 C   0  0  0  0  0  1  0  0  0  0  0  0
  183.3580  179.0400  143.9010 O   0  0  0  0  0  0  0  0  0  0  0  0
  1 20  1  0  0  0  0
  2 24  1  1  0  0  0
  2 12  1  0  0  0  0
  4  3  1  0  0  0  0
  5  6  1  0  0  0  0
  5 27  1  0  0  0  0
  6 18  1  6  0  0  0
  6 28  1  0  0  0  0
  7 24  1  6  0  0  0
  7 17  1  0  0  0  0
  9 28  1  0  0  0  0
  9 26  1  1  0  0  0
 11  3  2  0  0  0  0
 12  8  1  6  0  0  0
 12 13  1  0  0  0  0
 13 11  1  0  0  0  0
 14 23  1  1  0  0  0
 14 22  1  0  0  0  0
 15 18  1  0  0  0  0
 15  9  1  0  0  0  0
 16  1  1  0  0  0  0
 17  8  1  0  0  0  0
 17 10  1  6  0  0  0
 19 16  1  0  0  0  0
 19  7  1  0  0  0  0
 20 29  1  1  0  0  0
 20 10  1  0  0  0  0
 21  4  2  0  0  0  0
 22 13  2  0  0  0  0
 22 21  1  0  0  0  0
 25  5  2  0  0  0  0
 27  2  1  0  0  0  0
 27 14  1  0  0  0  0
 28 23  1  1  0  0  0
 29 30  1  0  0  0  0
 30 31  1  0  0  0  0
 32 30  2  0  0  0  0
M  END
>  <MODEL>
9

>  <REMARK>
 VINA RESULT:      -7.5      3.662      8.878
  Name = 
  2 active torsions:
  status: ('A' for Active; 'I' for Inactive)
    1  A    between atoms: C_20  and  C_29
    2  A    between atoms: C_29  and  C_30
                            x       y       z     vdW  Elec       q    Type
                         _______ _______ _______ _____ _____    ______ ____

>  <TORSDO>
F 2

$$$$
