=
 OpenBabel11112417243D

 37 42  0  0  1  0  0  0  0  0999 V2000
  194.1760  175.0630  142.1250 C   0  0  0  0  0  0  0  0  0  0  0  0
  192.0910  176.1960  145.6030 N   0  0  0  0  0  0  0  0  0  0  0  0
  189.3800  175.3260  144.4300 C   0  0  0  0  0  2  0  0  0  0  0  0
  193.9820  174.8930  144.6370 C   0  0  0  0  0  0  0  0  0  0  0  0
  191.1090  177.1580  145.1020 C   0  0  2  0  0  3  0  0  0  0  0  0
  187.8850  176.3290  141.4430 C   0  0  0  0  0  0  0  0  0  0  0  0
  193.0070  175.9620  144.5640 C   0  0  0  0  0  0  0  0  0  0  0  0
  189.6710  176.6070  145.2240 C   0  0  2  0  0  3  0  0  0  0  0  0
  193.9920  174.1300  145.7400 C   0  0  0  0  0  3  0  0  0  0  0  0
  187.1540  177.4280  140.8900 N   0  0  0  0  0  2  0  0  0  0  0  0
  192.7000  176.6130  143.4790 C   0  0  0  0  0  0  0  0  0  0  0  0
  193.1720  173.9850  141.7510 C   0  0  0  0  0  1  0  0  0  0  0  0
  191.0140  175.4490  147.8100 C   0  0  0  0  0  2  0  0  0  0  0  0
  192.9960  174.3550  146.8360 C   0  0  0  0  0  3  0  0  0  0  0  0
  193.4540  176.4340  142.1900 C   0  0  0  0  0  2  0  0  0  0  0  0
  189.0080  176.5710  142.3040 N   0  0  0  0  0  0  0  0  0  0  0  0
  189.6850  175.4340  142.9340 C   0  0  0  0  0  2  0  0  0  0  0  0
  192.0790  175.3420  146.7600 C   0  0  0  0  0  0  0  0  0  0  0  0
  191.5210  177.3840  143.7030 N   0  0  0  0  0  0  0  0  0  0  0  0
  194.8790  174.6750  143.4540 C   0  0  0  0  0  2  0  0  0  0  0  0
  189.1870  176.4460  146.6760 C   0  0  1  0  0  3  0  0  0  0  0  0
  195.2230  175.1260  141.0330 C   0  0  0  0  0  1  0  0  0  0  0  0
  189.3450  177.9540  142.6620 C   0  0  0  0  0  2  0  0  0  0  0  0
  187.5400  175.1450  141.1740 O   0  0  0  0  0  0  0  0  0  0  0  0
  190.8540  178.2090  142.6970 C   0  0  0  0  0  2  0  0  0  0  0  0
  190.2400  176.6770  147.6660 N   0  0  0  0  0  2  0  0  0  0  0  0
  188.1030  178.2890  147.9680 C   0  0  0  0  0  3  0  0  0  0  0  0
  188.0230  177.3470  146.9360 C   0  0  0  0  0  0  0  0  0  0  0  0
  186.8490  177.2490  146.1750 C   0  0  0  0  0  3  0  0  0  0  0  0
  184.5240  177.9830  145.6350 C   0  0  0  0  0  1  0  0  0  0  0  0
  185.8520  179.0320  147.4740 C   0  0  0  0  0  3  0  0  0  0  0  0
  185.7660  178.0910  146.4440 C   0  0  0  0  0  0  0  0  0  0  0  0
  187.0200  179.1310  148.2350 C   0  0  0  0  0  3  0  0  0  0  0  0
  186.4940  177.2380  138.5450 C   0  0  0  0  0  1  0  0  0  0  0  0
  186.0230  177.2510  139.9900 C   0  0  2  0  0  3  0  0  0  0  0  0
  184.4000  178.2410  141.4620 O   0  0  0  0  0  1  0  0  0  0  0  0
  185.0000  178.3580  140.2060 C   0  0  0  0  0  2  0  0  0  0  0  0
  1 15  1  0  0  0  0
  1 20  1  0  0  0  0
  2 18  1  0  0  0  0
  4  9  2  0  0  0  0
  5 19  1  6  0  0  0
  5  8  1  0  0  0  0
  5  2  1  0  0  0  0
  6 16  1  0  0  0  0
  7  4  1  0  0  0  0
  7  2  1  0  0  0  0
  8  3  1  1  0  0  0
  8 21  1  0  0  0  0
  9 14  1  0  0  0  0
 10  6  1  0  0  0  0
 11 19  1  0  0  0  0
 11  7  2  0  0  0  0
 12  1  1  0  0  0  0
 15 11  1  0  0  0  0
 16 23  1  0  0  0  0
 16 17  1  0  0  0  0
 17  3  1  0  0  0  0
 18 14  2  0  0  0  0
 18 13  1  0  0  0  0
 20  4  1  0  0  0  0
 21 28  1  1  0  0  0
 21 26  1  0  0  0  0
 22  1  1  0  0  0  0
 23 25  1  0  0  0  0
 24  6  2  0  0  0  0
 25 19  1  0  0  0  0
 26 13  1  0  0  0  0
 27 33  1  0  0  0  0
 28 27  2  0  0  0  0
 29 32  2  0  0  0  0
 29 28  1  0  0  0  0
 30 32  1  0  0  0  0
 31 33  2  0  0  0  0
 32 31  1  0  0  0  0
 35 34  1  6  0  0  0
 35 37  1  0  0  0  0
 35 10  1  0  0  0  0
 37 36  1  0  0  0  0
M  END
>  <MODEL>
1

>  <REMARK>
 VINA RESULT:      -8.1      0.000      0.000
  Name = 
  3 active torsions:
  status: ('A' for Active; 'I' for Inactive)
    1  A    between atoms: CA_4  and  N_12
    2  A    between atoms: CA_4  and  C_37
    3  A    between atoms: C_23  and  C_30
                            x       y       z     vdW  Elec       q    Type
                         _______ _______ _______ _____ _____    ______ ____

>  <TORSDO>
F 3

$$$$
=
 OpenBabel11112417243D

 37 42  0  0  1  0  0  0  0  0999 V2000
  194.6590  174.3930  145.5760 C   0  0  0  0  0  0  0  0  0  0  0  0
  191.2070  176.7580  145.1170 N   0  0  0  0  0  0  0  0  0  0  0  0
  189.5750  174.4060  143.9830 C   0  0  0  0  0  2  0  0  0  0  0  0
  193.0150  175.9840  146.6450 C   0  0  0  0  0  0  0  0  0  0  0  0
  190.9050  176.6310  143.6910 C   0  0  2  0  0  3  0  0  0  0  0  0
  190.3180  172.3670  141.2530 C   0  0  0  0  0  0  0  0  0  0  0  0
  192.4910  176.2240  145.3170 C   0  0  0  0  0  0  0  0  0  0  0  0
  189.5900  175.8510  143.4640 C   0  0  2  0  0  3  0  0  0  0  0  0
  192.2370  176.2980  147.6920 C   0  0  0  0  0  3  0  0  0  0  0  0
  190.2700  172.3770  139.8230 N   0  0  0  0  0  2  0  0  0  0  0  0
  193.0020  175.7440  144.2200 C   0  0  0  0  0  0  0  0  0  0  0  0
  193.8760  173.1040  145.7630 C   0  0  0  0  0  1  0  0  0  0  0  0
  188.9300  177.4590  146.0750 C   0  0  0  0  0  2  0  0  0  0  0  0
  190.8560  176.8380  147.4830 C   0  0  0  0  0  3  0  0  0  0  0  0
  194.3130  175.0070  144.1950 C   0  0  0  0  0  2  0  0  0  0  0  0
  190.7530  173.5320  141.9680 N   0  0  0  0  0  0  0  0  0  0  0  0
  190.7060  173.5330  143.4330 C   0  0  0  0  0  2  0  0  0  0  0  0
  190.3630  177.0480  146.2450 C   0  0  0  0  0  0  0  0  0  0  0  0
  192.0860  175.9360  143.1430 N   0  0  0  0  0  0  0  0  0  0  0  0
  194.3710  175.3490  146.7650 C   0  0  0  0  0  2  0  0  0  0  0  0
  188.3330  176.5950  143.9500 C   0  0  1  0  0  3  0  0  0  0  0  0
  196.1340  174.0490  145.5880 C   0  0  0  0  0  1  0  0  0  0  0  0
  191.0770  174.7500  141.2150 C   0  0  0  0  0  2  0  0  0  0  0  0
  189.9740  171.3300  141.8860 O   0  0  0  0  0  0  0  0  0  0  0  0
  192.3000  175.4850  141.7680 C   0  0  0  0  0  2  0  0  0  0  0  0
  188.6370  177.8190  144.6930 N   0  0  0  0  0  2  0  0  0  0  0  0
  187.9140  176.7370  141.4910 C   0  0  0  0  0  3  0  0  0  0  0  0
  187.4340  176.8980  142.7950 C   0  0  0  0  0  0  0  0  0  0  0  0
  186.1240  177.3580  143.0010 C   0  0  0  0  0  3  0  0  0  0  0  0
  183.9170  178.1360  142.1310 C   0  0  0  0  0  1  0  0  0  0  0  0
  185.7870  177.4850  140.6080 C   0  0  0  0  0  3  0  0  0  0  0  0
  185.3040  177.6490  141.9080 C   0  0  0  0  0  0  0  0  0  0  0  0
  187.0920  177.0290  140.3990 C   0  0  0  0  0  3  0  0  0  0  0  0
  191.0450  170.2910  138.8140 C   0  0  0  0  0  1  0  0  0  0  0  0
  189.8640  171.2200  139.0380 C   0  0  2  0  0  3  0  0  0  0  0  0
  188.5720  172.8640  137.8490 O   0  0  0  0  0  1  0  0  0  0  0  0
  189.2800  171.6680  137.7050 C   0  0  0  0  0  2  0  0  0  0  0  0
  1 22  1  0  0  0  0
  1 12  1  0  0  0  0
  1 20  1  0  0  0  0
  2  7  1  0  0  0  0
  2 18  1  0  0  0  0
  4 20  1  0  0  0  0
  4  9  2  0  0  0  0
  5 19  1  6  0  0  0
  5  2  1  0  0  0  0
  6 24  2  0  0  0  0
  6 16  1  0  0  0  0
  7  4  1  0  0  0  0
  8  5  1  0  0  0  0
  8 21  1  0  0  0  0
  8  3  1  1  0  0  0
 10  6  1  0  0  0  0
 11  7  2  0  0  0  0
 13 18  1  0  0  0  0
 14  9  1  0  0  0  0
 15 11  1  0  0  0  0
 15  1  1  0  0  0  0
 16 17  1  0  0  0  0
 17  3  1  0  0  0  0
 18 14  2  0  0  0  0
 19 11  1  0  0  0  0
 21 28  1  6  0  0  0
 21 26  1  0  0  0  0
 23 25  1  0  0  0  0
 23 16  1  0  0  0  0
 25 19  1  0  0  0  0
 26 13  1  0  0  0  0
 27 28  1  0  0  0  0
 28 29  2  0  0  0  0
 31 32  2  0  0  0  0
 32 30  1  0  0  0  0
 32 29  1  0  0  0  0
 33 31  1  0  0  0  0
 33 27  2  0  0  0  0
 35 34  1  6  0  0  0
 35 10  1  0  0  0  0
 37 36  1  0  0  0  0
 37 35  1  0  0  0  0
M  END
>  <MODEL>
2

>  <REMARK>
 VINA RESULT:      -7.8      2.576      4.489
  Name = 
  3 active torsions:
  status: ('A' for Active; 'I' for Inactive)
    1  A    between atoms: CA_4  and  N_12
    2  A    between atoms: CA_4  and  C_37
    3  A    between atoms: C_23  and  C_30
                            x       y       z     vdW  Elec       q    Type
                         _______ _______ _______ _____ _____    ______ ____

>  <TORSDO>
F 3

$$$$
=
 OpenBabel11112417243D

 37 42  0  0  1  0  0  0  0  0999 V2000
  190.7640  176.7320  147.4000 C   0  0  0  0  0  0  0  0  0  0  0  0
  188.9640  176.5990  143.5960 N   0  0  0  0  0  0  0  0  0  0  0  0
  189.4970  173.5810  143.2950 C   0  0  0  0  0  2  0  0  0  0  0  0
  188.7430  177.2700  145.9850 C   0  0  0  0  0  0  0  0  0  0  0  0
  190.0300  176.0730  142.7430 C   0  0  2  0  0  3  0  0  0  0  0  0
  192.5320  171.8790  143.5320 C   0  0  0  0  0  0  0  0  0  0  0  0
  189.5480  176.9310  144.8300 C   0  0  0  0  0  0  0  0  0  0  0  0
  189.6860  174.6600  142.2200 C   0  0  2  0  0  3  0  0  0  0  0  0
  187.4090  177.2650  145.8410 C   0  0  0  0  0  3  0  0  0  0  0  0
  193.7080  171.6090  142.7620 N   0  0  0  0  0  2  0  0  0  0  0  0
  190.8170  176.6420  144.8690 C   0  0  0  0  0  0  0  0  0  0  0  0
  190.4340  175.2840  147.7200 C   0  0  0  0  0  1  0  0  0  0  0  0
  186.8690  176.0400  142.2210 C   0  0  0  0  0  2  0  0  0  0  0  0
  186.7820  176.8810  144.5360 C   0  0  0  0  0  3  0  0  0  0  0  0
  191.6390  176.7870  146.1200 C   0  0  0  0  0  2  0  0  0  0  0  0
  191.9490  173.1900  143.5180 N   0  0  0  0  0  0  0  0  0  0  0  0
  190.6930  173.4220  144.2380 C   0  0  0  0  0  2  0  0  0  0  0  0
  187.5330  176.5520  143.4660 C   0  0  0  0  0  0  0  0  0  0  0  0
  191.2190  176.0870  143.6180 N   0  0  0  0  0  0  0  0  0  0  0  0
  189.4490  177.5480  147.2800 C   0  0  0  0  0  2  0  0  0  0  0  0
  188.5020  174.6330  141.2360 C   0  0  1  0  0  3  0  0  0  0  0  0
  191.5700  177.2940  148.5520 C   0  0  0  0  0  1  0  0  0  0  0  0
  192.5320  174.2210  142.6520 C   0  0  0  0  0  2  0  0  0  0  0  0
  192.0080  170.9620  144.2220 O   0  0  0  0  0  0  0  0  0  0  0  0
  192.5630  175.6030  143.3070 C   0  0  0  0  0  2  0  0  0  0  0  0
  187.8170  175.9200  141.1190 N   0  0  0  0  0  2  0  0  0  0  0  0
  188.1850  174.4580  138.7640 C   0  0  0  0  0  3  0  0  0  0  0  0
  188.9580  174.1630  139.8930 C   0  0  0  0  0  0  0  0  0  0  0  0
  190.1370  173.4150  139.7510 C   0  0  0  0  0  3  0  0  0  0  0  0
  191.7880  172.1820  138.3410 C   0  0  0  0  0  1  0  0  0  0  0  0
  189.7640  173.2720  137.3630 C   0  0  0  0  0  3  0  0  0  0  0  0
  190.5390  172.9730  138.4870 C   0  0  0  0  0  0  0  0  0  0  0  0
  188.5880  174.0150  137.5020 C   0  0  0  0  0  3  0  0  0  0  0  0
  195.7960  170.4360  143.2460 C   0  0  0  0  0  1  0  0  0  0  0  0
  194.3650  170.3090  142.7540 C   0  0  2  0  0  3  0  0  0  0  0  0
  193.0190  169.5380  140.9150 O   0  0  0  0  0  1  0  0  0  0  0  0
  194.3340  169.7140  141.3520 C   0  0  0  0  0  2  0  0  0  0  0  0
  1 12  1  0  0  0  0
  1 22  1  0  0  0  0
  2  7  1  0  0  0  0
  3 17  1  0  0  0  0
  4 20  1  0  0  0  0
  5  2  1  1  0  0  0
  5 19  1  0  0  0  0
  6 24  2  0  0  0  0
  7 11  2  0  0  0  0
  7  4  1  0  0  0  0
  8  5  1  0  0  0  0
  8  3  1  1  0  0  0
  9  4  2  0  0  0  0
 10  6  1  0  0  0  0
 11 15  1  0  0  0  0
 13 18  1  0  0  0  0
 14  9  1  0  0  0  0
 15  1  1  0  0  0  0
 16  6  1  0  0  0  0
 16 17  1  0  0  0  0
 18  2  1  0  0  0  0
 18 14  2  0  0  0  0
 19 11  1  0  0  0  0
 20  1  1  0  0  0  0
 21 28  1  6  0  0  0
 21  8  1  0  0  0  0
 23 25  1  0  0  0  0
 23 16  1  0  0  0  0
 25 19  1  0  0  0  0
 26 21  1  0  0  0  0
 26 13  1  0  0  0  0
 27 28  1  0  0  0  0
 29 28  2  0  0  0  0
 30 32  1  0  0  0  0
 31 33  1  0  0  0  0
 31 32  2  0  0  0  0
 32 29  1  0  0  0  0
 33 27  2  0  0  0  0
 35 10  1  0  0  0  0
 35 34  1  6  0  0  0
 36 37  1  0  0  0  0
 37 35  1  0  0  0  0
M  END
>  <MODEL>
3

>  <REMARK>
 VINA RESULT:      -7.7      3.166      7.706
  Name = 
  3 active torsions:
  status: ('A' for Active; 'I' for Inactive)
    1  A    between atoms: CA_4  and  N_12
    2  A    between atoms: CA_4  and  C_37
    3  A    between atoms: C_23  and  C_30
                            x       y       z     vdW  Elec       q    Type
                         _______ _______ _______ _____ _____    ______ ____

>  <TORSDO>
F 3

$$$$
=
 OpenBabel11112417243D

 37 42  0  0  1  0  0  0  0  0999 V2000
  190.1990  176.2780  146.8320 C   0  0  0  0  0  0  0  0  0  0  0  0
  188.1980  177.3640  143.2900 N   0  0  0  0  0  0  0  0  0  0  0  0
  187.9100  174.4340  142.3890 C   0  0  0  0  0  2  0  0  0  0  0  0
  188.3040  177.5670  145.7710 C   0  0  0  0  0  0  0  0  0  0  0  0
  189.0370  176.7810  142.2430 C   0  0  2  0  0  3  0  0  0  0  0  0
  190.4080  172.0350  141.9740 C   0  0  0  0  0  0  0  0  0  0  0  0
  188.9230  177.2860  144.4920 C   0  0  0  0  0  0  0  0  0  0  0  0
  188.3070  175.6310  141.5130 C   0  0  2  0  0  3  0  0  0  0  0  0
  187.0090  177.9160  145.7770 C   0  0  0  0  0  3  0  0  0  0  0  0
  191.4240  171.6500  141.0430 N   0  0  0  0  0  2  0  0  0  0  0  0
  190.0730  176.6960  144.3370 C   0  0  0  0  0  0  0  0  0  0  0  0
  189.5240  174.9190  146.9180 C   0  0  0  0  0  1  0  0  0  0  0  0
  185.9510  177.6230  142.0770 C   0  0  0  0  0  2  0  0  0  0  0  0
  186.2250  177.9690  144.5010 C   0  0  0  0  0  3  0  0  0  0  0  0
  190.9790  176.3780  145.4950 C   0  0  0  0  0  2  0  0  0  0  0  0
  190.1850  173.4230  142.2640 N   0  0  0  0  0  0  0  0  0  0  0  0
  189.0790  173.8010  143.1490 C   0  0  0  0  0  2  0  0  0  0  0  0
  186.7990  177.6930  143.3130 C   0  0  0  0  0  0  0  0  0  0  0  0
  190.2400  176.3270  142.9690 N   0  0  0  0  0  0  0  0  0  0  0  0
  189.1360  177.3960  147.0090 C   0  0  0  0  0  2  0  0  0  0  0  0
  187.0990  176.0930  140.6780 C   0  0  1  0  0  3  0  0  0  0  0  0
  191.1920  176.3800  147.9710 C   0  0  0  0  0  1  0  0  0  0  0  0
  190.9620  174.4360  141.5400 C   0  0  0  0  0  2  0  0  0  0  0  0
  189.7060  171.1520  142.5390 O   0  0  0  0  0  0  0  0  0  0  0  0
  191.3910  175.6050  142.4290 C   0  0  0  0  0  2  0  0  0  0  0  0
  186.7660  177.5040  140.8740 N   0  0  0  0  0  2  0  0  0  0  0  0
  186.6910  176.5930  138.2650 C   0  0  0  0  0  3  0  0  0  0  0  0
  187.3350  175.8110  139.2290 C   0  0  0  0  0  0  0  0  0  0  0  0
  188.1760  174.7630  138.8250 C   0  0  0  0  0  3  0  0  0  0  0  0
  189.2630  173.3950  137.0410 C   0  0  0  0  0  1  0  0  0  0  0  0
  187.7280  175.2920  136.5060 C   0  0  0  0  0  3  0  0  0  0  0  0
  188.3710  174.5060  137.4650 C   0  0  0  0  0  0  0  0  0  0  0  0
  186.8880  176.3360  136.9050 C   0  0  0  0  0  3  0  0  0  0  0  0
  193.1660  169.9370  141.0570 C   0  0  0  0  0  1  0  0  0  0  0  0
  191.7190  170.2600  140.7250 C   0  0  2  0  0  3  0  0  0  0  0  0
  190.1060  170.2740  138.9420 O   0  0  0  0  0  1  0  0  0  0  0  0
  191.4360  169.9860  139.2540 C   0  0  0  0  0  2  0  0  0  0  0  0
  1 12  1  0  0  0  0
  1 20  1  0  0  0  0
  1 22  1  0  0  0  0
  2 18  1  0  0  0  0
  2  7  1  0  0  0  0
  3 17  1  0  0  0  0
  4  9  2  0  0  0  0
  4 20  1  0  0  0  0
  5 19  1  1  0  0  0
  5  2  1  0  0  0  0
  6 16  1  0  0  0  0
  6 24  2  0  0  0  0
  7  4  1  0  0  0  0
  8  5  1  0  0  0  0
  8  3  1  1  0  0  0
 10  6  1  0  0  0  0
 11  7  2  0  0  0  0
 11 15  1  0  0  0  0
 13 18  1  0  0  0  0
 14  9  1  0  0  0  0
 15  1  1  0  0  0  0
 16 17  1  0  0  0  0
 18 14  2  0  0  0  0
 19 11  1  0  0  0  0
 21 28  1  6  0  0  0
 21 26  1  0  0  0  0
 21  8  1  0  0  0  0
 23 16  1  0  0  0  0
 23 25  1  0  0  0  0
 25 19  1  0  0  0  0
 26 13  1  0  0  0  0
 27 28  1  0  0  0  0
 29 28  2  0  0  0  0
 30 32  1  0  0  0  0
 31 33  1  0  0  0  0
 31 32  2  0  0  0  0
 32 29  1  0  0  0  0
 33 27  2  0  0  0  0
 35 10  1  0  0  0  0
 35 34  1  6  0  0  0
 36 37  1  0  0  0  0
 37 35  1  0  0  0  0
M  END
>  <MODEL>
4

>  <REMARK>
 VINA RESULT:      -7.7      2.777      7.227
  Name = 
  3 active torsions:
  status: ('A' for Active; 'I' for Inactive)
    1  A    between atoms: CA_4  and  N_12
    2  A    between atoms: CA_4  and  C_37
    3  A    between atoms: C_23  and  C_30
                            x       y       z     vdW  Elec       q    Type
                         _______ _______ _______ _____ _____    ______ ____

>  <TORSDO>
F 3

$$$$
=
 OpenBabel11112417243D

 37 42  0  0  1  0  0  0  0  0999 V2000
  188.0910  177.1970  142.2880 C   0  0  0  0  0  0  0  0  0  0  0  0
  190.4420  175.4200  145.2950 N   0  0  0  0  0  0  0  0  0  0  0  0
  193.0710  176.3090  143.9610 C   0  0  0  0  0  2  0  0  0  0  0  0
  188.5600  176.9610  144.7590 C   0  0  0  0  0  0  0  0  0  0  0  0
  191.2930  174.4940  144.5470 C   0  0  2  0  0  3  0  0  0  0  0  0
  194.1650  175.7020  140.7050 C   0  0  0  0  0  0  0  0  0  0  0  0
  189.4410  175.8640  144.4150 C   0  0  0  0  0  0  0  0  0  0  0  0
  192.7720  174.9380  144.5830 C   0  0  2  0  0  3  0  0  0  0  0  0
  188.7220  177.5430  145.9560 C   0  0  0  0  0  3  0  0  0  0  0  0
  194.7520  174.6640  139.9150 N   0  0  0  0  0  2  0  0  0  0  0  0
  189.5830  175.3740  143.2170 C   0  0  0  0  0  0  0  0  0  0  0  0
  189.1260  178.2620  141.9650 C   0  0  0  0  0  1  0  0  0  0  0  0
  191.7970  175.7520  147.4500 C   0  0  0  0  0  2  0  0  0  0  0  0
  189.8090  177.0940  146.8840 C   0  0  0  0  0  3  0  0  0  0  0  0
  188.7130  175.7940  142.0650 C   0  0  0  0  0  2  0  0  0  0  0  0
  193.1250  175.3920  141.6440 N   0  0  0  0  0  0  0  0  0  0  0  0
  192.6030  176.4530  142.5100 C   0  0  0  0  0  2  0  0  0  0  0  0
  190.6370  176.0810  146.5570 C   0  0  0  0  0  0  0  0  0  0  0  0
  190.7210  174.5130  143.1860 N   0  0  0  0  0  0  0  0  0  0  0  0
  187.5610  177.4120  143.7320 C   0  0  0  0  0  2  0  0  0  0  0  0
  193.4170  174.8430  145.9770 C   0  0  1  0  0  3  0  0  0  0  0  0
  186.9330  177.3630  141.3270 C   0  0  0  0  0  1  0  0  0  0  0  0
  192.7270  173.9910  141.8290 C   0  0  0  0  0  2  0  0  0  0  0  0
  194.5660  176.8920  140.5780 O   0  0  0  0  0  0  0  0  0  0  0  0
  191.2160  173.8190  141.9990 C   0  0  0  0  0  2  0  0  0  0  0  0
  192.4600  174.5200  147.0360 N   0  0  0  0  0  2  0  0  0  0  0  0
  195.8480  174.2920  146.1380 C   0  0  0  0  0  3  0  0  0  0  0  0
  194.5320  173.8490  145.9650 C   0  0  0  0  0  0  0  0  0  0  0  0
  194.2810  172.4830  145.7630 C   0  0  0  0  0  3  0  0  0  0  0  0
  195.0680  170.1260  145.5260 C   0  0  0  0  0  1  0  0  0  0  0  0
  196.6510  172.0190  145.9160 C   0  0  0  0  0  3  0  0  0  0  0  0
  195.3390  171.5710  145.7400 C   0  0  0  0  0  0  0  0  0  0  0  0
  196.9060  173.3790  146.1150 C   0  0  0  0  0  3  0  0  0  0  0  0
  195.5300  174.1080  137.6660 C   0  0  0  0  0  1  0  0  0  0  0  0
  195.7920  174.9160  138.9260 C   0  0  2  0  0  3  0  0  0  0  0  0
  197.6970  175.6660  140.1870 O   0  0  0  0  0  1  0  0  0  0  0  0
  197.1590  174.5740  139.5030 C   0  0  0  0  0  2  0  0  0  0  0  0
  1 20  1  0  0  0  0
  2 18  1  0  0  0  0
  4  9  2  0  0  0  0
  5 19  1  6  0  0  0
  5  8  1  0  0  0  0
  5  2  1  0  0  0  0
  6 16  1  0  0  0  0
  7  4  1  0  0  0  0
  7  2  1  0  0  0  0
  8  3  1  1  0  0  0
  8 21  1  0  0  0  0
  9 14  1  0  0  0  0
 10  6  1  0  0  0  0
 11  7  2  0  0  0  0
 12  1  1  0  0  0  0
 15  1  1  0  0  0  0
 15 11  1  0  0  0  0
 16 23  1  0  0  0  0
 16 17  1  0  0  0  0
 17  3  1  0  0  0  0
 18 14  2  0  0  0  0
 18 13  1  0  0  0  0
 19 11  1  0  0  0  0
 20  4  1  0  0  0  0
 21 28  1  6  0  0  0
 21 26  1  0  0  0  0
 22  1  1  0  0  0  0
 23 25  1  0  0  0  0
 24  6  2  0  0  0  0
 25 19  1  0  0  0  0
 26 13  1  0  0  0  0
 28 27  2  0  0  0  0
 29 28  1  0  0  0  0
 30 32  1  0  0  0  0
 31 33  2  0  0  0  0
 32 29  2  0  0  0  0
 32 31  1  0  0  0  0
 33 27  1  0  0  0  0
 35 34  1  6  0  0  0
 35 37  1  0  0  0  0
 35 10  1  0  0  0  0
 37 36  1  0  0  0  0
M  END
>  <MODEL>
5

>  <REMARK>
 VINA RESULT:      -7.7      2.959      7.412
  Name = 
  3 active torsions:
  status: ('A' for Active; 'I' for Inactive)
    1  A    between atoms: CA_4  and  N_12
    2  A    between atoms: CA_4  and  C_37
    3  A    between atoms: C_23  and  C_30
                            x       y       z     vdW  Elec       q    Type
                         _______ _______ _______ _____ _____    ______ ____

>  <TORSDO>
F 3

$$$$
=
 OpenBabel11112417243D

 37 42  0  0  1  0  0  0  0  0999 V2000
  191.2860  170.1910  138.4210 C   0  0  0  0  0  0  0  0  0  0  0  0
  189.0900  173.0460  140.6000 N   0  0  0  0  0  0  0  0  0  0  0  0
  191.6360  174.5260  141.4990 C   0  0  0  0  0  2  0  0  0  0  0  0
  189.4110  171.8830  138.4210 C   0  0  0  0  0  0  0  0  0  0  0  0
  189.6320  172.9200  141.9530 C   0  0  2  0  0  3  0  0  0  0  0  0
  194.4160  173.2430  143.1680 C   0  0  0  0  0  0  0  0  0  0  0  0
  189.5690  171.9530  139.8590 C   0  0  0  0  0  0  0  0  0  0  0  0
  190.4140  174.1880  142.3640 C   0  0  2  0  0  3  0  0  0  0  0  0
  188.7800  172.8970  137.8100 C   0  0  0  0  0  3  0  0  0  0  0  0
  194.8340  172.8580  144.4810 N   0  0  0  0  0  2  0  0  0  0  0  0
  190.3660  171.1960  140.5560 C   0  0  0  0  0  0  0  0  0  0  0  0
  192.4420  171.1390  138.1460 C   0  0  0  0  0  1  0  0  0  0  0  0
  188.0830  175.4080  140.6570 C   0  0  0  0  0  2  0  0  0  0  0  0
  188.2960  174.0790  138.5920 C   0  0  0  0  0  3  0  0  0  0  0  0
  191.1070  170.0340  139.9540 C   0  0  0  0  0  2  0  0  0  0  0  0
  193.1000  172.9090  142.7040 N   0  0  0  0  0  0  0  0  0  0  0  0
  192.6590  173.3920  141.3920 C   0  0  0  0  0  2  0  0  0  0  0  0
  188.4570  174.1500  139.9290 C   0  0  0  0  0  0  0  0  0  0  0  0
  190.4860  171.7180  141.8780 N   0  0  0  0  0  0  0  0  0  0  0  0
  190.0110  170.7090  137.7020 C   0  0  0  0  0  2  0  0  0  0  0  0
  189.5300  175.4370  142.5340 C   0  0  1  0  0  3  0  0  0  0  0  0
  191.6430  168.8390  137.8410 C   0  0  0  0  0  1  0  0  0  0  0  0
  192.1720  172.2340  143.6190 C   0  0  0  0  0  2  0  0  0  0  0  0
  195.2080  173.8790  142.4180 O   0  0  0  0  0  0  0  0  0  0  0  0
  191.3320  171.1570  142.9290 C   0  0  0  0  0  2  0  0  0  0  0  0
  188.1470  175.2290  142.1030 N   0  0  0  0  0  2  0  0  0  0  0  0
  189.8860  177.2430  144.2230 C   0  0  0  0  0  3  0  0  0  0  0  0
  189.5670  175.9070  143.9520 C   0  0  0  0  0  0  0  0  0  0  0  0
  189.3060  175.0270  145.0120 C   0  0  0  0  0  3  0  0  0  0  0  0
  189.0830  174.5470  147.4520 C   0  0  0  0  0  1  0  0  0  0  0  0
  189.6770  176.8180  146.5980 C   0  0  0  0  0  3  0  0  0  0  0  0
  189.3600  175.4830  146.3320 C   0  0  0  0  0  0  0  0  0  0  0  0
  189.9400  177.6980  145.5430 C   0  0  0  0  0  3  0  0  0  0  0  0
  196.7530  171.9030  145.6550 C   0  0  0  0  0  1  0  0  0  0  0  0
  196.1640  173.1420  145.0020 C   0  0  2  0  0  3  0  0  0  0  0  0
  195.5670  175.4360  145.4080 O   0  0  0  0  0  1  0  0  0  0  0  0
  196.1030  174.2910  146.0000 C   0  0  0  0  0  2  0  0  0  0  0  0
  1 15  1  0  0  0  0
  4  7  1  0  0  0  0
  5  2  1  6  0  0  0
  5  8  1  0  0  0  0
  6 10  1  0  0  0  0
  7 11  2  0  0  0  0
  7  2  1  0  0  0  0
  8  3  1  6  0  0  0
  8 21  1  0  0  0  0
  9  4  2  0  0  0  0
  9 14  1  0  0  0  0
 10 35  1  0  0  0  0
 11 19  1  0  0  0  0
 12  1  1  0  0  0  0
 13 26  1  0  0  0  0
 14 18  2  0  0  0  0
 15 11  1  0  0  0  0
 16  6  1  0  0  0  0
 16 23  1  0  0  0  0
 17  3  1  0  0  0  0
 17 16  1  0  0  0  0
 18  2  1  0  0  0  0
 18 13  1  0  0  0  0
 19  5  1  0  0  0  0
 19 25  1  0  0  0  0
 20  4  1  0  0  0  0
 20  1  1  0  0  0  0
 21 28  1  1  0  0  0
 22  1  1  0  0  0  0
 24  6  2  0  0  0  0
 25 23  1  0  0  0  0
 26 21  1  0  0  0  0
 27 33  1  0  0  0  0
 28 27  2  0  0  0  0
 28 29  1  0  0  0  0
 29 32  2  0  0  0  0
 32 31  1  0  0  0  0
 32 30  1  0  0  0  0
 33 31  2  0  0  0  0
 35 34  1  1  0  0  0
 35 37  1  0  0  0  0
 36 37  1  0  0  0  0
M  END
>  <MODEL>
6

>  <REMARK>
 VINA RESULT:      -7.7      3.913      7.442
  Name = 
  3 active torsions:
  status: ('A' for Active; 'I' for Inactive)
    1  A    between atoms: CA_4  and  N_12
    2  A    between atoms: CA_4  and  C_37
    3  A    between atoms: C_23  and  C_30
                            x       y       z     vdW  Elec       q    Type
                         _______ _______ _______ _____ _____    ______ ____

>  <TORSDO>
F 3

$$$$
=
 OpenBabel11112417243D

 37 42  0  0  1  0  0  0  0  0999 V2000
  190.9940  172.2290  139.0580 C   0  0  0  0  0  0  0  0  0  0  0  0
  188.1130  174.5780  141.0340 N   0  0  0  0  0  0  0  0  0  0  0  0
  190.2580  176.3490  142.3540 C   0  0  0  0  0  2  0  0  0  0  0  0
  188.8980  173.6250  138.8710 C   0  0  0  0  0  0  0  0  0  0  0  0
  188.4820  174.4410  142.4430 C   0  0  2  0  0  3  0  0  0  0  0  0
  192.9540  175.3760  144.3400 C   0  0  0  0  0  0  0  0  0  0  0  0
  188.8490  173.6200  140.3180 C   0  0  0  0  0  0  0  0  0  0  0  0
  188.9980  175.7790  143.0200 C   0  0  2  0  0  3  0  0  0  0  0  0
  188.2060  174.5750  138.2240 C   0  0  0  0  0  3  0  0  0  0  0  0
  193.2460  174.9680  145.6810 N   0  0  0  0  0  2  0  0  0  0  0  0
  189.6530  172.9420  141.0850 C   0  0  0  0  0  0  0  0  0  0  0  0
  192.0160  173.3520  138.9960 C   0  0  0  0  0  1  0  0  0  0  0  0
  186.7560  176.7580  141.0570 C   0  0  0  0  0  2  0  0  0  0  0  0
  187.4450  175.6180  138.9840 C   0  0  0  0  0  3  0  0  0  0  0  0
  190.6380  171.9430  140.5410 C   0  0  0  0  0  2  0  0  0  0  0  0
  191.7790  174.8850  143.6790 N   0  0  0  0  0  0  0  0  0  0  0  0
  191.4480  175.3870  142.3420 C   0  0  0  0  0  2  0  0  0  0  0  0
  187.4130  175.6200  140.3320 C   0  0  0  0  0  0  0  0  0  0  0  0
  189.5130  173.3850  142.4340 N   0  0  0  0  0  0  0  0  0  0  0  0
  189.7620  172.6030  138.1910 C   0  0  0  0  0  2  0  0  0  0  0  0
  187.9170  176.8710  143.1210 C   0  0  1  0  0  3  0  0  0  0  0  0
  191.6300  170.9860  138.4730 C   0  0  0  0  0  1  0  0  0  0  0  0
  190.8520  174.0220  144.4200 C   0  0  0  0  0  2  0  0  0  0  0  0
  193.7310  176.1690  143.7420 O   0  0  0  0  0  0  0  0  0  0  0  0
  190.2880  172.8830  143.5680 C   0  0  0  0  0  2  0  0  0  0  0  0
  186.6530  176.4930  142.4880 N   0  0  0  0  0  2  0  0  0  0  0  0
  188.7180  177.0480  145.4800 C   0  0  0  0  0  3  0  0  0  0  0  0
  187.6920  177.2440  144.5500 C   0  0  0  0  0  0  0  0  0  0  0  0
  186.4620  177.7690  144.9740 C   0  0  0  0  0  3  0  0  0  0  0  0
  184.9610  178.6550  146.7620 C   0  0  0  0  0  1  0  0  0  0  0  0
  187.2950  177.9030  147.2430 C   0  0  0  0  0  3  0  0  0  0  0  0
  186.2650  178.0990  146.3180 C   0  0  0  0  0  0  0  0  0  0  0  0
  188.5210  177.3780  146.8240 C   0  0  0  0  0  3  0  0  0  0  0  0
  194.3970  176.9100  146.6150 C   0  0  0  0  0  1  0  0  0  0  0  0
  194.4350  175.4070  146.3990 C   0  0  2  0  0  3  0  0  0  0  0  0
  196.0990  173.7220  145.9800 O   0  0  0  0  0  1  0  0  0  0  0  0
  195.6890  175.0110  145.6310 C   0  0  0  0  0  2  0  0  0  0  0  0
  1 15  1  0  0  0  0
  4  7  1  0  0  0  0
  5  2  1  6  0  0  0
  5  8  1  0  0  0  0
  6 10  1  0  0  0  0
  7  2  1  0  0  0  0
  7 11  2  0  0  0  0
  8  3  1  6  0  0  0
  8 21  1  0  0  0  0
  9  4  2  0  0  0  0
  9 14  1  0  0  0  0
 10 35  1  0  0  0  0
 11 19  1  0  0  0  0
 12  1  1  0  0  0  0
 13 26  1  0  0  0  0
 14 18  2  0  0  0  0
 15 11  1  0  0  0  0
 16  6  1  0  0  0  0
 16 23  1  0  0  0  0
 17  3  1  0  0  0  0
 17 16  1  0  0  0  0
 18  2  1  0  0  0  0
 18 13  1  0  0  0  0
 19  5  1  0  0  0  0
 19 25  1  0  0  0  0
 20  4  1  0  0  0  0
 20  1  1  0  0  0  0
 21 28  1  1  0  0  0
 22  1  1  0  0  0  0
 24  6  2  0  0  0  0
 25 23  1  0  0  0  0
 26 21  1  0  0  0  0
 27 33  1  0  0  0  0
 28 29  1  0  0  0  0
 28 27  2  0  0  0  0
 29 32  2  0  0  0  0
 32 30  1  0  0  0  0
 32 31  1  0  0  0  0
 33 31  2  0  0  0  0
 35 34  1  6  0  0  0
 37 36  1  0  0  0  0
 37 35  1  0  0  0  0
M  END
>  <MODEL>
7

>  <REMARK>
 VINA RESULT:      -7.4      3.094      6.517
  Name = 
  3 active torsions:
  status: ('A' for Active; 'I' for Inactive)
    1  A    between atoms: CA_4  and  N_12
    2  A    between atoms: CA_4  and  C_37
    3  A    between atoms: C_23  and  C_30
                            x       y       z     vdW  Elec       q    Type
                         _______ _______ _______ _____ _____    ______ ____

>  <TORSDO>
F 3

$$$$
=
 OpenBabel11112417243D

 37 42  0  0  1  0  0  0  0  0999 V2000
  187.1740  177.0990  142.4300 C   0  0  0  0  0  0  0  0  0  0  0  0
  190.0140  175.1600  144.8600 N   0  0  0  0  0  0  0  0  0  0  0  0
  191.7900  174.4380  142.4500 C   0  0  0  0  0  2  0  0  0  0  0  0
  188.6860  177.2280  144.4490 C   0  0  0  0  0  0  0  0  0  0  0  0
  190.0620  173.8090  144.3000 C   0  0  2  0  0  3  0  0  0  0  0  0
  190.9180  172.6980  139.5560 C   0  0  0  0  0  0  0  0  0  0  0  0
  188.9030  175.8050  144.2890 C   0  0  0  0  0  0  0  0  0  0  0  0
  191.4270  173.5280  143.6320 C   0  0  2  0  0  3  0  0  0  0  0  0
  189.5790  177.9200  145.1710 C   0  0  0  0  0  3  0  0  0  0  0  0
  190.6950  171.3610  139.0980 N   0  0  0  0  0  2  0  0  0  0  0  0
  188.2880  175.0530  143.4230 C   0  0  0  0  0  0  0  0  0  0  0  0
  188.1920  177.4760  141.3650 C   0  0  0  0  0  1  0  0  0  0  0  0
  192.2720  175.3070  146.0730 C   0  0  0  0  0  2  0  0  0  0  0  0
  190.7810  177.2430  145.7540 C   0  0  0  0  0  3  0  0  0  0  0  0
  187.1440  175.5560  142.5850 C   0  0  0  0  0  2  0  0  0  0  0  0
  190.4270  173.1100  140.8400 N   0  0  0  0  0  0  0  0  0  0  0  0
  190.7460  174.4540  141.3300 C   0  0  0  0  0  2  0  0  0  0  0  0
  190.9900  175.9210  145.5930 C   0  0  0  0  0  0  0  0  0  0  0  0
  188.9390  173.7860  143.3430 N   0  0  0  0  0  0  0  0  0  0  0  0
  187.5080  177.8440  143.7510 C   0  0  0  0  0  2  0  0  0  0  0  0
  192.6030  173.4610  144.6230 C   0  0  1  0  0  3  0  0  0  0  0  0
  185.8110  177.5570  141.9570 C   0  0  0  0  0  1  0  0  0  0  0  0
  189.7610  172.1240  141.6990 C   0  0  0  0  0  2  0  0  0  0  0  0
  191.5490  173.5140  138.8300 O   0  0  0  0  0  0  0  0  0  0  0  0
  188.5540  172.7000  142.4430 C   0  0  0  0  0  2  0  0  0  0  0  0
  192.2350  173.8510  145.9850 N   0  0  0  0  0  2  0  0  0  0  0  0
  192.5900  171.0750  143.8810 C   0  0  0  0  0  3  0  0  0  0  0  0
  193.2040  172.0930  144.6200 C   0  0  0  0  0  0  0  0  0  0  0  0
  194.3620  171.8110  145.3600 C   0  0  0  0  0  3  0  0  0  0  0  0
  196.1270  170.2270  146.1420 C   0  0  0  0  0  1  0  0  0  0  0  0
  194.2850  169.5090  144.6140 C   0  0  0  0  0  3  0  0  0  0  0  0
  194.9000  170.5210  145.3560 C   0  0  0  0  0  0  0  0  0  0  0  0
  193.1300  169.7860  143.8770 C   0  0  0  0  0  3  0  0  0  0  0  0
  190.0600  170.0500  137.1360 C   0  0  0  0  0  1  0  0  0  0  0  0
  191.1430  170.8870  137.7960 C   0  0  2  0  0  3  0  0  0  0  0  0
  192.4860  169.4670  139.1980 O   0  0  0  0  0  1  0  0  0  0  0  0
  192.4250  170.0780  137.9430 C   0  0  0  0  0  2  0  0  0  0  0  0
  1 15  1  0  0  0  0
  1 20  1  0  0  0  0
  2 18  1  0  0  0  0
  4  9  2  0  0  0  0
  5 19  1  6  0  0  0
  5  2  1  0  0  0  0
  6 16  1  0  0  0  0
  7  4  1  0  0  0  0
  7  2  1  0  0  0  0
  8  3  1  6  0  0  0
  8  5  1  0  0  0  0
  8 21  1  0  0  0  0
  9 14  1  0  0  0  0
 10  6  1  0  0  0  0
 11  7  2  0  0  0  0
 12  1  1  0  0  0  0
 15 11  1  0  0  0  0
 16 17  1  0  0  0  0
 16 23  1  0  0  0  0
 17  3  1  0  0  0  0
 18 14  2  0  0  0  0
 18 13  1  0  0  0  0
 19 11  1  0  0  0  0
 20  4  1  0  0  0  0
 21 28  1  1  0  0  0
 21 26  1  0  0  0  0
 22  1  1  0  0  0  0
 23 25  1  0  0  0  0
 24  6  2  0  0  0  0
 25 19  1  0  0  0  0
 26 13  1  0  0  0  0
 27 28  1  0  0  0  0
 28 29  2  0  0  0  0
 31 32  2  0  0  0  0
 32 29  1  0  0  0  0
 32 30  1  0  0  0  0
 33 27  2  0  0  0  0
 33 31  1  0  0  0  0
 35 34  1  1  0  0  0
 35 37  1  0  0  0  0
 35 10  1  0  0  0  0
 37 36  1  0  0  0  0
M  END
>  <MODEL>
8

>  <REMARK>
 VINA RESULT:      -7.1      3.483      7.385
  Name = 
  3 active torsions:
  status: ('A' for Active; 'I' for Inactive)
    1  A    between atoms: CA_4  and  N_12
    2  A    between atoms: CA_4  and  C_37
    3  A    between atoms: C_23  and  C_30
                            x       y       z     vdW  Elec       q    Type
                         _______ _______ _______ _____ _____    ______ ____

>  <TORSDO>
F 3

$$$$
=
 OpenBabel11112417243D

 37 42  0  0  1  0  0  0  0  0999 V2000
  192.7430  169.5620  141.5200 C   0  0  0  0  0  0  0  0  0  0  0  0
  189.7210  172.0400  139.9530 N   0  0  0  0  0  0  0  0  0  0  0  0
  190.8030  174.5230  141.4180 C   0  0  0  0  0  2  0  0  0  0  0  0
  191.5220  170.3880  139.4700 C   0  0  0  0  0  0  0  0  0  0  0  0
  189.0810  172.5820  141.1520 C   0  0  2  0  0  3  0  0  0  0  0  0
  191.4070  174.9400  144.8270 C   0  0  0  0  0  0  0  0  0  0  0  0
  190.5660  170.9970  140.3710 C   0  0  0  0  0  0  0  0  0  0  0  0
  189.3330  174.1010  141.2840 C   0  0  2  0  0  3  0  0  0  0  0  0
  191.5740  170.8450  138.2100 C   0  0  0  0  0  3  0  0  0  0  0  0
  190.7060  175.1990  146.0480 N   0  0  0  0  0  2  0  0  0  0  0  0
  190.5680  170.8520  141.6640 C   0  0  0  0  0  0  0  0  0  0  0  0
  193.7460  170.6960  141.6550 C   0  0  0  0  0  1  0  0  0  0  0  0
  189.0580  173.7710  138.1770 C   0  0  0  0  0  2  0  0  0  0  0  0
  190.6980  171.9770  137.7690 C   0  0  0  0  0  3  0  0  0  0  0  0
  191.4840  169.8880  142.3670 C   0  0  0  0  0  2  0  0  0  0  0  0
  190.8570  174.0320  143.8610 N   0  0  0  0  0  0  0  0  0  0  0  0
  191.5430  173.8510  142.5780 C   0  0  0  0  0  2  0  0  0  0  0  0
  189.8180  172.5530  138.6140 C   0  0  0  0  0  0  0  0  0  0  0  0
  189.6820  171.8030  142.2530 N   0  0  0  0  0  0  0  0  0  0  0  0
  192.4300  169.3250  140.0180 C   0  0  0  0  0  2  0  0  0  0  0  0
  188.6430  174.9420  140.1960 C   0  0  1  0  0  3  0  0  0  0  0  0
  193.3800  168.3070  142.0780 C   0  0  0  0  0  1  0  0  0  0  0  0
  189.5400  173.4350  144.1120 C   0  0  0  0  0  2  0  0  0  0  0  0
  192.5080  175.5120  144.6010 O   0  0  0  0  0  0  0  0  0  0  0  0
  189.4610  171.9670  143.6890 C   0  0  0  0  0  2  0  0  0  0  0  0
  188.0270  174.1330  139.1430 N   0  0  0  0  0  2  0  0  0  0  0  0
  186.9800  176.7980  140.0090 C   0  0  0  0  0  3  0  0  0  0  0  0
  187.6290  175.8520  140.8110 C   0  0  0  0  0  0  0  0  0  0  0  0
  187.3350  175.7840  142.1810 C   0  0  0  0  0  3  0  0  0  0  0  0
  186.0860  176.5790  144.1920 C   0  0  0  0  0  1  0  0  0  0  0  0
  185.7470  177.5950  141.9350 C   0  0  0  0  0  3  0  0  0  0  0  0
  186.3950  176.6540  142.7410 C   0  0  0  0  0  0  0  0  0  0  0  0
  186.0400  177.6670  140.5700 C   0  0  0  0  0  3  0  0  0  0  0  0
  191.4220  175.3270  148.3810 C   0  0  0  0  0  1  0  0  0  0  0  0
  191.2210  176.0870  147.0810 C   0  0  2  0  0  3  0  0  0  0  0  0
  189.1110  177.0980  146.5270 O   0  0  0  0  0  1  0  0  0  0  0  0
  190.2690  177.2570  147.2910 C   0  0  0  0  0  2  0  0  0  0  0  0
  1 12  1  0  0  0  0
  1 22  1  0  0  0  0
  1 15  1  0  0  0  0
  2  7  1  0  0  0  0
  3 17  1  0  0  0  0
  4 20  1  0  0  0  0
  4  7  1  0  0  0  0
  5  2  1  6  0  0  0
  5  8  1  0  0  0  0
  5 19  1  0  0  0  0
  6 10  1  0  0  0  0
  7 11  2  0  0  0  0
  8  3  1  6  0  0  0
  9  4  2  0  0  0  0
 10 35  1  0  0  0  0
 11 19  1  0  0  0  0
 11 15  1  0  0  0  0
 13 18  1  0  0  0  0
 13 26  1  0  0  0  0
 14  9  1  0  0  0  0
 14 18  2  0  0  0  0
 16 23  1  0  0  0  0
 16  6  1  0  0  0  0
 17 16  1  0  0  0  0
 18  2  1  0  0  0  0
 19 25  1  0  0  0  0
 20  1  1  0  0  0  0
 21 28  1  1  0  0  0
 21  8  1  0  0  0  0
 24  6  2  0  0  0  0
 25 23  1  0  0  0  0
 26 21  1  0  0  0  0
 27 33  2  0  0  0  0
 27 28  1  0  0  0  0
 28 29  2  0  0  0  0
 29 32  1  0  0  0  0
 31 32  2  0  0  0  0
 32 30  1  0  0  0  0
 33 31  1  0  0  0  0
 35 37  1  0  0  0  0
 35 34  1  1  0  0  0
 36 37  1  0  0  0  0
M  END
>  <MODEL>
9

>  <REMARK>
 VINA RESULT:      -7.0      3.572      6.844
  Name = 
  3 active torsions:
  status: ('A' for Active; 'I' for Inactive)
    1  A    between atoms: CA_4  and  N_12
    2  A    between atoms: CA_4  and  C_37
    3  A    between atoms: C_23  and  C_30
                            x       y       z     vdW  Elec       q    Type
                         _______ _______ _______ _____ _____    ______ ____

>  <TORSDO>
F 3

$$$$
