=
 OpenBabel11112417343D

 28 32  0  0  1  0  0  0  0  0999 V2000
  186.4710  178.2180  144.3850 C   0  0  0  0  0  0  0  0  0  0  0  0
  189.9750  178.2910  146.1530 O   0  0  0  0  0  0  0  0  0  0  0  0
  187.8160  174.0990  140.1470 O   0  0  0  0  0  0  0  0  0  0  0  0
  185.2360  176.7910  146.4580 C   0  0  0  0  0  3  0  0  0  0  0  0
  189.0650  173.6990  142.1590 C   0  0  1  0  0  3  0  0  0  0  0  0
  187.0810  178.9860  143.2530 C   0  0  0  0  0  2  0  0  0  0  0  0
  190.4410  176.3930  147.6470 O   0  0  0  0  0  0  0  0  0  0  0  0
  190.4040  176.8520  146.2170 S   0  0  0  0  0  0  0  0  0  0  0  0
  192.1520  175.9120  144.3270 C   0  0  0  0  0  0  0  0  0  0  0  0
  189.2810  175.8220  145.3040 C   0  0  2  0  0  3  0  0  0  0  0  0
  185.8560  177.6120  140.1490 O   0  0  0  0  0  0  0  0  0  0  0  0
  188.1420  175.5280  143.2920 C   0  0  0  0  0  0  0  0  0  0  0  0
  191.2420  175.1030  143.8680 N   0  0  0  0  0  0  0  0  0  0  0  0
  191.9630  176.6750  145.5160 N   0  0  0  0  0  2  0  0  0  0  0  0
  186.6280  177.7810  141.1290 C   0  0  0  0  0  0  0  0  0  0  0  0
  187.0910  177.0660  144.9080 C   0  0  0  0  0  0  0  0  0  0  0  0
  188.0800  174.4300  141.2940 C   0  0  0  0  0  0  0  0  0  0  0  0
  193.4110  176.0850  143.5590 C   0  0  0  0  0  1  0  0  0  0  0  0
  187.8290  176.9010  141.2630 C   0  0  0  0  0  2  0  0  0  0  0  0
  186.4540  176.3500  145.9360 C   0  0  0  0  0  3  0  0  0  0  0  0
  185.2490  178.6520  144.9140 C   0  0  0  0  0  3  0  0  0  0  0  0
  184.6360  177.9430  145.9490 C   0  0  0  0  0  3  0  0  0  0  0  0
  186.3330  178.7830  142.0600 O   0  0  0  0  0  0  0  0  0  0  0  0
  188.9750  174.5190  143.3980 C   0  0  0  0  0  0  0  0  0  0  0  0
  187.4520  175.6100  141.9750 C   0  0  2  0  0  3  0  0  0  0  0  0
  189.9710  174.7070  144.4910 C   0  0  2  0  0  3  0  0  0  0  0  0
  188.5710  172.2910  142.4410 C   0  0  0  0  0  1  0  0  0  0  0  0
  188.3830  176.5750  144.3160 C   0  0  1  0  0  3  0  0  0  0  0  0
  1 16  2  0  0  0  0
  1 21  1  0  0  0  0
  2  8  2  0  0  0  0
  3 17  2  0  0  0  0
  5 27  1  1  0  0  0
  5 24  1  0  0  0  0
  6  1  1  0  0  0  0
  8  7  2  0  0  0  0
  9 14  1  0  0  0  0
 10  8  1  6  0  0  0
 11 15  2  0  0  0  0
 12 24  2  0  0  0  0
 13  9  2  0  0  0  0
 13 26  1  0  0  0  0
 14  8  1  0  0  0  0
 15 19  1  0  0  0  0
 15 23  1  0  0  0  0
 16 20  1  0  0  0  0
 17 25  1  0  0  0  0
 17  5  1  0  0  0  0
 18  9  1  0  0  0  0
 20  4  2  0  0  0  0
 21 22  2  0  0  0  0
 22  4  1  0  0  0  0
 23  6  1  0  0  0  0
 25 19  1  6  0  0  0
 25 12  1  0  0  0  0
 26 24  1  6  0  0  0
 26 10  1  0  0  0  0
 28 12  1  6  0  0  0
 28 16  1  0  0  0  0
 28 10  1  0  0  0  0
M  END
>  <MODEL>
1

>  <REMARK>
 VINA RESULT:      -8.2      0.000      0.000
  Name = 
  0 active torsions:
  status: ('A' for Active; 'I' for Inactive)
                            x       y       z     vdW  Elec       q    Type
                         _______ _______ _______ _____ _____    ______ ____

>  <TORSDO>
F 0

$$$$
=
 OpenBabel11112417343D

 28 32  0  0  1  0  0  0  0  0999 V2000
  188.9420  176.5880  145.3210 C   0  0  0  0  0  0  0  0  0  0  0  0
  192.8440  177.0030  145.1980 O   0  0  0  0  0  0  0  0  0  0  0  0
  188.2830  173.7810  139.9900 O   0  0  0  0  0  0  0  0  0  0  0  0
  189.0240  174.5480  147.2420 C   0  0  0  0  0  3  0  0  0  0  0  0
  190.3980  173.2380  140.9890 C   0  0  1  0  0  3  0  0  0  0  0  0
  188.8430  177.6780  144.2990 C   0  0  0  0  0  2  0  0  0  0  0  0
  194.1370  174.9730  145.7090 O   0  0  0  0  0  0  0  0  0  0  0  0
  193.3530  175.6980  144.6530 S   0  0  0  0  0  0  0  0  0  0  0  0
  193.9820  175.5370  141.9900 C   0  0  0  0  0  0  0  0  0  0  0  0
  192.0040  174.6720  144.1220 C   0  0  2  0  0  3  0  0  0  0  0  0
  186.3340  176.7500  141.8790 O   0  0  0  0  0  0  0  0  0  0  0  0
  190.0350  174.5720  142.8790 C   0  0  0  0  0  0  0  0  0  0  0  0
  193.0270  174.6730  141.8030 N   0  0  0  0  0  0  0  0  0  0  0  0
  194.3580  175.9870  143.2890 N   0  0  0  0  0  2  0  0  0  0  0  0
  187.4770  176.8680  142.3900 C   0  0  0  0  0  0  0  0  0  0  0  0
  189.8250  175.5030  145.1530 C   0  0  0  0  0  0  0  0  0  0  0  0
  189.0610  173.9170  140.9230 C   0  0  0  0  0  0  0  0  0  0  0  0
  194.6690  176.1150  140.8070 C   0  0  0  0  0  1  0  0  0  0  0  0
  188.6450  176.2400  141.7000 C   0  0  0  0  0  2  0  0  0  0  0  0
  189.8450  174.4780  146.1140 C   0  0  0  0  0  3  0  0  0  0  0  0
  188.1230  176.6490  146.4550 C   0  0  0  0  0  3  0  0  0  0  0  0
  188.1660  175.6340  147.4140 C   0  0  0  0  0  3  0  0  0  0  0  0
  187.6160  177.5770  143.5880 O   0  0  0  0  0  0  0  0  0  0  0  0
  190.8810  173.7530  142.3000 C   0  0  0  0  0  0  0  0  0  0  0  0
  188.7740  174.7810  142.1150 C   0  0  2  0  0  3  0  0  0  0  0  0
  192.2740  173.9090  142.8070 C   0  0  2  0  0  3  0  0  0  0  0  0
  190.2180  171.7320  141.0650 C   0  0  0  0  0  1  0  0  0  0  0  0
  190.6780  175.4140  143.9170 C   0  0  1  0  0  3  0  0  0  0  0  0
  1 21  1  0  0  0  0
  3 17  2  0  0  0  0
  4 22  1  0  0  0  0
  5 27  1  1  0  0  0
  5 24  1  0  0  0  0
  6  1  1  0  0  0  0
  8  2  2  0  0  0  0
  8  7  2  0  0  0  0
  9 14  1  0  0  0  0
 10  8  1  6  0  0  0
 11 15  2  0  0  0  0
 13  9  2  0  0  0  0
 14  8  1  0  0  0  0
 15 23  1  0  0  0  0
 16  1  2  0  0  0  0
 16 20  1  0  0  0  0
 17  5  1  0  0  0  0
 17 25  1  0  0  0  0
 18  9  1  0  0  0  0
 19 15  1  0  0  0  0
 20  4  2  0  0  0  0
 21 22  2  0  0  0  0
 23  6  1  0  0  0  0
 24 26  1  0  0  0  0
 24 12  2  0  0  0  0
 25 19  1  6  0  0  0
 25 12  1  0  0  0  0
 26 13  1  6  0  0  0
 26 10  1  0  0  0  0
 28 12  1  6  0  0  0
 28 10  1  0  0  0  0
 28 16  1  0  0  0  0
M  END
>  <MODEL>
2

>  <REMARK>
 VINA RESULT:      -7.8      2.255      2.908
  Name = 
  0 active torsions:
  status: ('A' for Active; 'I' for Inactive)
                            x       y       z     vdW  Elec       q    Type
                         _______ _______ _______ _____ _____    ______ ____

>  <TORSDO>
F 0

$$$$
=
 OpenBabel11112417343D

 28 32  0  0  1  0  0  0  0  0999 V2000
  194.8120  173.8440  144.3910 C   0  0  0  0  0  0  0  0  0  0  0  0
  192.4790  172.7560  141.4270 O   0  0  0  0  0  0  0  0  0  0  0  0
  190.7100  177.0700  147.4740 O   0  0  0  0  0  0  0  0  0  0  0  0
  194.8180  171.3040  145.5760 C   0  0  0  0  0  3  0  0  0  0  0  0
  189.6650  175.2570  146.2950 C   0  0  1  0  0  3  0  0  0  0  0  0
  194.8460  175.2180  143.7950 C   0  0  0  0  0  2  0  0  0  0  0  0
  190.9100  170.9310  141.9360 O   0  0  0  0  0  0  0  0  0  0  0  0
  191.1700  172.4030  142.0770 S   0  0  0  0  0  0  0  0  0  0  0  0
  189.1510  174.2580  142.0680 C   0  0  0  0  0  0  0  0  0  0  0  0
  191.1920  172.8290  143.8010 C   0  0  2  0  0  3  0  0  0  0  0  0
  194.5640  177.6280  146.4650 O   0  0  0  0  0  0  0  0  0  0  0  0
  191.6730  174.4850  145.3690 C   0  0  0  0  0  0  0  0  0  0  0  0
  189.2050  174.3420  143.3650 N   0  0  0  0  0  0  0  0  0  0  0  0
  189.8940  173.2860  141.3370 N   0  0  0  0  0  2  0  0  0  0  0  0
  194.1940  176.8640  145.5360 C   0  0  0  0  0  0  0  0  0  0  0  0
  193.5960  173.1570  144.5830 C   0  0  0  0  0  0  0  0  0  0  0  0
  190.8240  176.1040  146.7350 C   0  0  0  0  0  0  0  0  0  0  0  0
  188.3300  175.2420  141.3190 C   0  0  0  0  0  1  0  0  0  0  0  0
  192.7310  176.7140  145.2640 C   0  0  0  0  0  2  0  0  0  0  0  0
  193.6110  171.8920  145.1930 C   0  0  0  0  0  3  0  0  0  0  0  0
  196.0170  173.2470  144.7790 C   0  0  0  0  0  3  0  0  0  0  0  0
  196.0210  171.9800  145.3660 C   0  0  0  0  0  3  0  0  0  0  0  0
  195.1620  176.1800  144.7930 O   0  0  0  0  0  0  0  0  0  0  0  0
  190.3800  174.2680  145.4430 C   0  0  0  0  0  0  0  0  0  0  0  0
  192.1390  175.6470  146.1740 C   0  0  2  0  0  3  0  0  0  0  0  0
  189.8690  173.4380  144.3150 C   0  0  2  0  0  3  0  0  0  0  0  0
  189.0480  174.5520  147.4900 C   0  0  0  0  0  1  0  0  0  0  0  0
  192.2960  173.8120  144.2030 C   0  0  1  0  0  3  0  0  0  0  0  0
  1 16  2  0  0  0  0
  1 21  1  0  0  0  0
  2  8  2  0  0  0  0
  5 17  1  0  0  0  0
  5 27  1  1  0  0  0
  6  1  1  0  0  0  0
  6 23  1  0  0  0  0
  7  8  2  0  0  0  0
  9 13  2  0  0  0  0
 10  8  1  6  0  0  0
 10 28  1  0  0  0  0
 10 26  1  0  0  0  0
 12 24  2  0  0  0  0
 12 25  1  0  0  0  0
 14  9  1  0  0  0  0
 14  8  1  0  0  0  0
 15 11  2  0  0  0  0
 16 20  1  0  0  0  0
 17  3  2  0  0  0  0
 18  9  1  0  0  0  0
 19 15  1  0  0  0  0
 20  4  2  0  0  0  0
 21 22  2  0  0  0  0
 22  4  1  0  0  0  0
 23 15  1  0  0  0  0
 24  5  1  0  0  0  0
 25 19  1  6  0  0  0
 25 17  1  0  0  0  0
 26 13  1  6  0  0  0
 26 24  1  0  0  0  0
 28 16  1  1  0  0  0
 28 12  1  0  0  0  0
M  END
>  <MODEL>
3

>  <REMARK>
 VINA RESULT:      -7.7      3.771      7.470
  Name = 
  0 active torsions:
  status: ('A' for Active; 'I' for Inactive)
                            x       y       z     vdW  Elec       q    Type
                         _______ _______ _______ _____ _____    ______ ____

>  <TORSDO>
F 0

$$$$
=
 OpenBabel11112417343D

 28 32  0  0  1  0  0  0  0  0999 V2000
  188.7900  176.0000  145.0320 C   0  0  0  0  0  0  0  0  0  0  0  0
  188.9410  172.4930  143.2740 O   0  0  0  0  0  0  0  0  0  0  0  0
  194.6550  176.3880  146.5130 O   0  0  0  0  0  0  0  0  0  0  0  0
  188.5260  177.4120  142.6250 C   0  0  0  0  0  3  0  0  0  0  0  0
  194.3640  175.1390  144.4830 C   0  0  1  0  0  3  0  0  0  0  0  0
  188.9240  175.2930  146.3450 C   0  0  0  0  0  2  0  0  0  0  0  0
  189.8770  172.4930  140.9990 O   0  0  0  0  0  0  0  0  0  0  0  0
  190.2070  172.5220  142.4640 S   0  0  0  0  0  0  0  0  0  0  0  0
  192.4550  171.3320  143.4860 C   0  0  0  0  0  0  0  0  0  0  0  0
  191.1450  173.9870  142.8210 C   0  0  2  0  0  3  0  0  0  0  0  0
  191.2020  177.1660  148.4240 O   0  0  0  0  0  0  0  0  0  0  0  0
  192.0320  175.3460  144.4950 C   0  0  0  0  0  0  0  0  0  0  0  0
  193.0540  172.4860  143.5460 N   0  0  0  0  0  0  0  0  0  0  0  0
  191.1860  171.1660  142.8600 N   0  0  0  0  0  2  0  0  0  0  0  0
  190.8160  176.2910  147.6060 C   0  0  0  0  0  0  0  0  0  0  0  0
  189.6540  175.7170  143.9550 C   0  0  0  0  0  0  0  0  0  0  0  0
  193.8980  175.9290  145.6710 C   0  0  0  0  0  0  0  0  0  0  0  0
  193.0900  170.1590  144.1380 C   0  0  0  0  0  1  0  0  0  0  0  0
  191.8360  175.4110  146.9560 C   0  0  0  0  0  2  0  0  0  0  0  0
  189.5220  176.4430  142.7600 C   0  0  0  0  0  3  0  0  0  0  0  0
  187.7950  176.9730  144.8880 C   0  0  0  0  0  3  0  0  0  0  0  0
  187.6610  177.6750  143.6880 C   0  0  0  0  0  3  0  0  0  0  0  0
  189.4500  176.1750  147.3290 O   0  0  0  0  0  0  0  0  0  0  0  0
  193.0550  174.8560  143.8340 C   0  0  0  0  0  0  0  0  0  0  0  0
  192.4070  176.0970  145.7240 C   0  0  2  0  0  3  0  0  0  0  0  0
  192.6680  173.7520  142.9090 C   0  0  2  0  0  3  0  0  0  0  0  0
  195.2080  176.0130  143.5720 C   0  0  0  0  0  1  0  0  0  0  0  0
  190.7500  174.7000  144.1190 C   0  0  1  0  0  3  0  0  0  0  0  0
  1  6  1  0  0  0  0
  4 20  2  0  0  0  0
  4 22  1  0  0  0  0
  5 27  1  6  0  0  0
  5 17  1  0  0  0  0
  6 23  1  0  0  0  0
  7  8  2  0  0  0  0
  8 14  1  0  0  0  0
  8  2  2  0  0  0  0
  9 13  2  0  0  0  0
  9 18  1  0  0  0  0
 10  8  1  1  0  0  0
 10 26  1  0  0  0  0
 10 28  1  0  0  0  0
 12 25  1  0  0  0  0
 14  9  1  0  0  0  0
 15 11  2  0  0  0  0
 16  1  2  0  0  0  0
 17 25  1  0  0  0  0
 17  3  2  0  0  0  0
 19 15  1  0  0  0  0
 20 16  1  0  0  0  0
 21  1  1  0  0  0  0
 22 21  2  0  0  0  0
 23 15  1  0  0  0  0
 24  5  1  0  0  0  0
 24 12  2  0  0  0  0
 25 19  1  1  0  0  0
 26 13  1  1  0  0  0
 26 24  1  0  0  0  0
 28 16  1  6  0  0  0
 28 12  1  0  0  0  0
M  END
>  <MODEL>
4

>  <REMARK>
 VINA RESULT:      -7.5      2.992      5.851
  Name = 
  0 active torsions:
  status: ('A' for Active; 'I' for Inactive)
                            x       y       z     vdW  Elec       q    Type
                         _______ _______ _______ _____ _____    ______ ____

>  <TORSDO>
F 0

$$$$
=
 OpenBabel11112417343D

 28 32  0  0  1  0  0  0  0  0999 V2000
  190.0720  175.0630  144.8060 C   0  0  0  0  0  0  0  0  0  0  0  0
  193.1780  177.4570  144.6300 O   0  0  0  0  0  0  0  0  0  0  0  0
  193.0020  169.8900  143.6230 O   0  0  0  0  0  0  0  0  0  0  0  0
  189.8810  175.1980  147.6000 C   0  0  0  0  0  3  0  0  0  0  0  0
  194.4240  171.4330  144.7910 C   0  0  1  0  0  3  0  0  0  0  0  0
  190.1280  174.9610  143.3130 C   0  0  0  0  0  2  0  0  0  0  0  0
  194.6450  177.4280  146.6040 O   0  0  0  0  0  0  0  0  0  0  0  0
  194.2780  176.7140  145.3350 S   0  0  0  0  0  0  0  0  0  0  0  0
  196.1200  175.3490  143.8320 C   0  0  0  0  0  0  0  0  0  0  0  0
  193.7650  175.0590  145.7240 C   0  0  2  0  0  3  0  0  0  0  0  0
  189.5430  171.5250  142.3800 O   0  0  0  0  0  0  0  0  0  0  0  0
  192.7880  173.1050  144.9130 C   0  0  0  0  0  0  0  0  0  0  0  0
  195.7110  174.2200  144.3340 N   0  0  0  0  0  0  0  0  0  0  0  0
  195.6570  176.6070  144.3150 N   0  0  0  0  0  2  0  0  0  0  0  0
  190.1920  172.5620  142.6730 C   0  0  0  0  0  0  0  0  0  0  0  0
  191.2250  174.8850  145.5970 C   0  0  0  0  0  0  0  0  0  0  0  0
  193.1450  170.9860  144.1450 C   0  0  0  0  0  0  0  0  0  0  0  0
  197.0590  175.3250  142.6830 C   0  0  0  0  0  1  0  0  0  0  0  0
  191.6790  172.4720  142.7980 C   0  0  0  0  0  2  0  0  0  0  0  0
  191.1130  174.9390  146.9960 C   0  0  0  0  0  3  0  0  0  0  0  0
  188.8410  175.3220  145.4190 C   0  0  0  0  0  3  0  0  0  0  0  0
  188.7450  175.3930  146.8110 C   0  0  0  0  0  3  0  0  0  0  0  0
  189.5010  173.7610  142.8770 O   0  0  0  0  0  0  0  0  0  0  0  0
  194.0220  172.7950  145.2380 C   0  0  0  0  0  0  0  0  0  0  0  0
  192.0580  172.0200  144.2010 C   0  0  2  0  0  3  0  0  0  0  0  0
  194.8630  173.9940  145.5120 C   0  0  2  0  0  3  0  0  0  0  0  0
  194.7290  170.5680  146.0010 C   0  0  0  0  0  1  0  0  0  0  0  0
  192.5420  174.5670  144.9430 C   0  0  1  0  0  3  0  0  0  0  0  0
  1 21  2  0  0  0  0
  1 16  1  0  0  0  0
  2  8  2  0  0  0  0
  3 17  2  0  0  0  0
  5 24  1  0  0  0  0
  5 27  1  1  0  0  0
  6  1  1  0  0  0  0
  8  7  2  0  0  0  0
  9 14  1  0  0  0  0
  9 13  2  0  0  0  0
 10  8  1  6  0  0  0
 11 15  2  0  0  0  0
 12 24  2  0  0  0  0
 14  8  1  0  0  0  0
 15 19  1  0  0  0  0
 15 23  1  0  0  0  0
 16 20  2  0  0  0  0
 17 25  1  0  0  0  0
 17  5  1  0  0  0  0
 18  9  1  0  0  0  0
 20  4  1  0  0  0  0
 21 22  1  0  0  0  0
 22  4  2  0  0  0  0
 23  6  1  0  0  0  0
 24 26  1  0  0  0  0
 25 19  1  6  0  0  0
 25 12  1  0  0  0  0
 26 13  1  6  0  0  0
 26 10  1  0  0  0  0
 28 12  1  1  0  0  0
 28 16  1  0  0  0  0
 28 10  1  0  0  0  0
M  END
>  <MODEL>
5

>  <REMARK>
 VINA RESULT:      -7.4      3.586      5.418
  Name = 
  0 active torsions:
  status: ('A' for Active; 'I' for Inactive)
                            x       y       z     vdW  Elec       q    Type
                         _______ _______ _______ _____ _____    ______ ____

>  <TORSDO>
F 0

$$$$
=
 OpenBabel11112417343D

 28 32  0  0  1  0  0  0  0  0999 V2000
  189.1800  175.3310  144.8640 C   0  0  0  0  0  0  0  0  0  0  0  0
  190.2560  171.6780  143.9090 O   0  0  0  0  0  0  0  0  0  0  0  0
  194.5690  177.2330  146.8820 O   0  0  0  0  0  0  0  0  0  0  0  0
  189.0270  176.1910  142.2000 C   0  0  0  0  0  3  0  0  0  0  0  0
  194.8330  175.6030  145.1390 C   0  0  1  0  0  3  0  0  0  0  0  0
  189.2410  174.9200  146.3030 C   0  0  0  0  0  2  0  0  0  0  0  0
  191.5120  171.4650  141.8050 O   0  0  0  0  0  0  0  0  0  0  0  0
  191.6020  171.8310  143.2590 S   0  0  0  0  0  0  0  0  0  0  0  0
  193.8500  171.3580  144.7540 C   0  0  0  0  0  0  0  0  0  0  0  0
  192.1820  173.5030  143.4040 C   0  0  2  0  0  3  0  0  0  0  0  0
  190.7800  177.5860  148.1870 O   0  0  0  0  0  0  0  0  0  0  0  0
  192.5300  175.3020  144.8450 C   0  0  0  0  0  0  0  0  0  0  0  0
  194.2050  172.6050  144.6390 N   0  0  0  0  0  0  0  0  0  0  0  0
  192.7460  170.8120  144.0380 N   0  0  0  0  0  2  0  0  0  0  0  0
  190.6960  176.5140  147.5310 C   0  0  0  0  0  0  0  0  0  0  0  0
  190.2360  175.0490  143.9750 C   0  0  0  0  0  0  0  0  0  0  0  0
  194.0500  176.4760  146.0750 C   0  0  0  0  0  0  0  0  0  0  0  0
  194.5870  170.4880  145.7050 C   0  0  0  0  0  1  0  0  0  0  0  0
  191.9500  175.7710  147.2000 C   0  0  0  0  0  2  0  0  0  0  0  0
  190.1550  175.5000  142.6470 C   0  0  0  0  0  3  0  0  0  0  0  0
  188.0530  176.0250  144.4080 C   0  0  0  0  0  3  0  0  0  0  0  0
  187.9750  176.4510  143.0800 C   0  0  0  0  0  3  0  0  0  0  0  0
  189.4350  176.0590  147.1330 O   0  0  0  0  0  0  0  0  0  0  0  0
  193.7160  174.9310  144.4210 C   0  0  0  0  0  0  0  0  0  0  0  0
  192.5650  176.3280  145.9240 C   0  0  2  0  0  3  0  0  0  0  0  0
  193.6900  173.6210  143.7110 C   0  0  2  0  0  3  0  0  0  0  0  0
  195.6270  176.4570  144.1670 C   0  0  0  0  0  1  0  0  0  0  0  0
  191.4650  174.3380  144.4710 C   0  0  1  0  0  3  0  0  0  0  0  0
  1  6  1  0  0  0  0
  4 20  2  0  0  0  0
  4 22  1  0  0  0  0
  5 27  1  6  0  0  0
  5 17  1  0  0  0  0
  6 23  1  0  0  0  0
  7  8  2  0  0  0  0
  8  2  2  0  0  0  0
  8 14  1  0  0  0  0
  9 18  1  0  0  0  0
 10  8  1  1  0  0  0
 10 26  1  0  0  0  0
 10 28  1  0  0  0  0
 12 25  1  0  0  0  0
 13  9  2  0  0  0  0
 14  9  1  0  0  0  0
 15 11  2  0  0  0  0
 16  1  2  0  0  0  0
 17  3  2  0  0  0  0
 19 15  1  0  0  0  0
 20 16  1  0  0  0  0
 21  1  1  0  0  0  0
 22 21  2  0  0  0  0
 23 15  1  0  0  0  0
 24 12  2  0  0  0  0
 24  5  1  0  0  0  0
 25 17  1  0  0  0  0
 25 19  1  1  0  0  0
 26 24  1  1  0  0  0
 26 13  1  0  0  0  0
 28 16  1  6  0  0  0
 28 12  1  0  0  0  0
M  END
>  <MODEL>
6

>  <REMARK>
 VINA RESULT:      -7.3      3.377      6.189
  Name = 
  0 active torsions:
  status: ('A' for Active; 'I' for Inactive)
                            x       y       z     vdW  Elec       q    Type
                         _______ _______ _______ _____ _____    ______ ____

>  <TORSDO>
F 0

$$$$
=
 OpenBabel11112417343D

 28 32  0  0  1  0  0  0  0  0999 V2000
  189.2360  175.6670  144.7000 C   0  0  0  0  0  0  0  0  0  0  0  0
  192.8220  177.2650  144.6390 O   0  0  0  0  0  0  0  0  0  0  0  0
  190.6740  170.4140  142.0390 O   0  0  0  0  0  0  0  0  0  0  0  0
  189.2970  175.1570  147.4550 C   0  0  0  0  0  3  0  0  0  0  0  0
  192.5220  171.2620  143.3160 C   0  0  1  0  0  3  0  0  0  0  0  0
  189.1510  175.9230  143.2260 C   0  0  0  0  0  2  0  0  0  0  0  0
  194.3800  176.4230  146.3460 O   0  0  0  0  0  0  0  0  0  0  0  0
  193.7500  176.1430  145.0120 S   0  0  0  0  0  0  0  0  0  0  0  0
  195.0700  174.8050  143.0170 C   0  0  0  0  0  0  0  0  0  0  0  0
  192.8690  174.6030  145.0960 C   0  0  2  0  0  3  0  0  0  0  0  0
  187.6530  173.0420  141.6520 O   0  0  0  0  0  0  0  0  0  0  0  0
  191.3730  173.1800  144.0150 C   0  0  0  0  0  0  0  0  0  0  0  0
  194.4300  173.7100  143.3100 N   0  0  0  0  0  0  0  0  0  0  0  0
  194.9770  175.9790  143.8200 N   0  0  0  0  0  2  0  0  0  0  0  0
  188.5620  173.8020  142.0760 C   0  0  0  0  0  0  0  0  0  0  0  0
  190.3640  175.0460  145.2720 C   0  0  0  0  0  0  0  0  0  0  0  0
  191.1270  171.2880  142.7630 C   0  0  0  0  0  0  0  0  0  0  0  0
  195.8840  174.8500  141.7760 C   0  0  0  0  0  1  0  0  0  0  0  0
  189.9840  173.3500  141.9800 C   0  0  0  0  0  2  0  0  0  0  0  0
  190.3760  174.7810  146.6520 C   0  0  0  0  0  3  0  0  0  0  0  0
  188.1600  176.0410  145.5120 C   0  0  0  0  0  3  0  0  0  0  0  0
  188.1910  175.7900  146.8860 C   0  0  0  0  0  3  0  0  0  0  0  0
  188.2120  175.0390  142.6260 O   0  0  0  0  0  0  0  0  0  0  0  0
  192.5110  172.5290  144.0980 C   0  0  0  0  0  0  0  0  0  0  0  0
  190.3420  172.4950  143.1870 C   0  0  2  0  0  3  0  0  0  0  0  0
  193.6450  173.4030  144.5130 C   0  0  2  0  0  3  0  0  0  0  0  0
  192.6910  170.0820  144.2560 C   0  0  0  0  0  1  0  0  0  0  0  0
  191.5050  174.6070  144.3960 C   0  0  1  0  0  3  0  0  0  0  0  0
  1 16  2  0  0  0  0
  1 21  1  0  0  0  0
  2  8  2  0  0  0  0
  3 17  2  0  0  0  0
  5 24  1  0  0  0  0
  5 27  1  1  0  0  0
  6  1  1  0  0  0  0
  8  7  2  0  0  0  0
  9 13  2  0  0  0  0
  9 14  1  0  0  0  0
 10  8  1  6  0  0  0
 11 15  2  0  0  0  0
 12 24  2  0  0  0  0
 14  8  1  0  0  0  0
 15 23  1  0  0  0  0
 16 20  1  0  0  0  0
 17 25  1  0  0  0  0
 17  5  1  0  0  0  0
 18  9  1  0  0  0  0
 19 15  1  0  0  0  0
 20  4  2  0  0  0  0
 21 22  2  0  0  0  0
 22  4  1  0  0  0  0
 23  6  1  0  0  0  0
 24 26  1  0  0  0  0
 25 19  1  6  0  0  0
 25 12  1  0  0  0  0
 26 13  1  6  0  0  0
 26 10  1  0  0  0  0
 28 12  1  1  0  0  0
 28 10  1  0  0  0  0
 28 16  1  0  0  0  0
M  END
>  <MODEL>
7

>  <REMARK>
 VINA RESULT:      -7.2      2.796      4.113
  Name = 
  0 active torsions:
  status: ('A' for Active; 'I' for Inactive)
                            x       y       z     vdW  Elec       q    Type
                         _______ _______ _______ _____ _____    ______ ____

>  <TORSDO>
F 0

$$$$
=
 OpenBabel11112417343D

 28 32  0  0  1  0  0  0  0  0999 V2000
  187.6630  176.8350  144.3530 C   0  0  0  0  0  0  0  0  0  0  0  0
  187.4030  173.4470  142.3880 O   0  0  0  0  0  0  0  0  0  0  0  0
  193.6190  176.6460  145.4560 O   0  0  0  0  0  0  0  0  0  0  0  0
  187.3720  178.4150  142.0560 C   0  0  0  0  0  3  0  0  0  0  0  0
  193.0970  175.5580  143.3810 C   0  0  1  0  0  3  0  0  0  0  0  0
  187.8160  176.0370  145.6110 C   0  0  0  0  0  2  0  0  0  0  0  0
  188.1920  173.5150  140.0590 O   0  0  0  0  0  0  0  0  0  0  0  0
  188.6130  173.4240  141.4970 S   0  0  0  0  0  0  0  0  0  0  0  0
  190.8100  171.9910  142.2950 C   0  0  0  0  0  0  0  0  0  0  0  0
  189.6940  174.7810  141.8750 C   0  0  2  0  0  3  0  0  0  0  0  0
  190.3710  177.5810  147.6380 O   0  0  0  0  0  0  0  0  0  0  0  0
  190.7960  175.9530  143.5620 C   0  0  0  0  0  0  0  0  0  0  0  0
  191.5090  173.0850  142.3820 N   0  0  0  0  0  0  0  0  0  0  0  0
  189.4950  171.9690  141.7470 N   0  0  0  0  0  2  0  0  0  0  0  0
  189.8620  176.7940  146.7970 C   0  0  0  0  0  0  0  0  0  0  0  0
  188.4300  176.5520  143.2060 C   0  0  0  0  0  0  0  0  0  0  0  0
  192.7750  176.3050  144.6410 C   0  0  0  0  0  0  0  0  0  0  0  0
  191.3810  170.7310  142.8330 C   0  0  0  0  0  1  0  0  0  0  0  0
  190.7600  175.8770  146.0310 C   0  0  0  0  0  2  0  0  0  0  0  0
  188.2870  177.3610  142.0670 C   0  0  0  0  0  3  0  0  0  0  0  0
  186.7470  177.8940  144.3340 C   0  0  0  0  0  3  0  0  0  0  0  0
  186.6000  178.6790  143.1880 C   0  0  0  0  0  3  0  0  0  0  0  0
  188.4770  176.8090  146.6070 O   0  0  0  0  0  0  0  0  0  0  0  0
  191.7300  175.4240  142.8060 C   0  0  0  0  0  0  0  0  0  0  0  0
  191.3110  176.5910  144.8050 C   0  0  2  0  0  3  0  0  0  0  0  0
  191.1940  174.4170  141.8470 C   0  0  2  0  0  3  0  0  0  0  0  0
  193.9550  176.4160  142.4670 C   0  0  0  0  0  1  0  0  0  0  0  0
  189.4430  175.4400  143.2360 C   0  0  1  0  0  3  0  0  0  0  0  0
  1  6  1  0  0  0  0
  4 20  2  0  0  0  0
  4 22  1  0  0  0  0
  5 27  1  6  0  0  0
  5 17  1  0  0  0  0
  6 23  1  0  0  0  0
  7  8  2  0  0  0  0
  8 14  1  0  0  0  0
  8  2  2  0  0  0  0
  9 13  2  0  0  0  0
  9 18  1  0  0  0  0
 10  8  1  1  0  0  0
 10 28  1  0  0  0  0
 12 25  1  0  0  0  0
 14  9  1  0  0  0  0
 15 11  2  0  0  0  0
 16  1  2  0  0  0  0
 17 25  1  0  0  0  0
 17  3  2  0  0  0  0
 19 15  1  0  0  0  0
 20 16  1  0  0  0  0
 21  1  1  0  0  0  0
 22 21  2  0  0  0  0
 23 15  1  0  0  0  0
 24  5  1  0  0  0  0
 24 12  2  0  0  0  0
 25 19  1  1  0  0  0
 26 10  1  0  0  0  0
 26 13  1  1  0  0  0
 26 24  1  0  0  0  0
 28 16  1  6  0  0  0
 28 12  1  0  0  0  0
M  END
>  <MODEL>
8

>  <REMARK>
 VINA RESULT:      -7.2      2.455      5.206
  Name = 
  0 active torsions:
  status: ('A' for Active; 'I' for Inactive)
                            x       y       z     vdW  Elec       q    Type
                         _______ _______ _______ _____ _____    ______ ____

>  <TORSDO>
F 0

$$$$
=
 OpenBabel11112417343D

 28 32  0  0  1  0  0  0  0  0999 V2000
  185.8720  176.7800  143.5120 C   0  0  0  0  0  0  0  0  0  0  0  0
  187.0660  173.4060  141.9000 O   0  0  0  0  0  0  0  0  0  0  0  0
  190.6460  177.6480  147.1430 O   0  0  0  0  0  0  0  0  0  0  0  0
  186.3920  178.2910  141.2090 C   0  0  0  0  0  3  0  0  0  0  0  0
  191.2910  176.4910  145.1410 C   0  0  1  0  0  3  0  0  0  0  0  0
  185.5710  176.0170  144.7650 C   0  0  0  0  0  2  0  0  0  0  0  0
  188.7930  173.6220  140.1610 O   0  0  0  0  0  0  0  0  0  0  0  0
  188.5340  173.6010  141.6400 S   0  0  0  0  0  0  0  0  0  0  0  0
  190.3380  172.5790  143.4330 C   0  0  0  0  0  0  0  0  0  0  0  0
  189.0970  175.1280  142.3510 C   0  0  2  0  0  3  0  0  0  0  0  0
  186.6620  177.9840  147.5870 O   0  0  0  0  0  0  0  0  0  0  0  0
  189.1230  176.4710  144.2560 C   0  0  0  0  0  0  0  0  0  0  0  0
  190.7380  173.7790  143.7350 N   0  0  0  0  0  0  0  0  0  0  0  0
  189.4300  172.3260  142.3640 N   0  0  0  0  0  2  0  0  0  0  0  0
  186.7170  177.1220  146.6710 C   0  0  0  0  0  0  0  0  0  0  0  0
  187.1060  176.6410  142.8470 C   0  0  0  0  0  0  0  0  0  0  0  0
  190.3230  177.1650  146.0680 C   0  0  0  0  0  0  0  0  0  0  0  0
  190.8010  171.4380  144.2630 C   0  0  0  0  0  1  0  0  0  0  0  0
  187.9970  176.3810  146.4530 C   0  0  0  0  0  2  0  0  0  0  0  0
  187.3620  177.4160  141.7040 C   0  0  0  0  0  3  0  0  0  0  0  0
  184.9060  177.6600  143.0090 C   0  0  0  0  0  3  0  0  0  0  0  0
  185.1630  178.4100  141.8590 C   0  0  0  0  0  3  0  0  0  0  0  0
  185.5810  176.8910  145.8880 O   0  0  0  0  0  0  0  0  0  0  0  0
  190.3680  176.1190  144.0330 C   0  0  0  0  0  0  0  0  0  0  0  0
  188.9160  177.1860  145.5460 C   0  0  2  0  0  3  0  0  0  0  0  0
  190.4880  175.0360  143.0160 C   0  0  2  0  0  3  0  0  0  0  0  0
  192.3180  177.4900  144.6380 C   0  0  0  0  0  1  0  0  0  0  0  0
  188.1610  175.7260  143.4070 C   0  0  1  0  0  3  0  0  0  0  0  0
  1  6  1  0  0  0  0
  4 20  2  0  0  0  0
  4 22  1  0  0  0  0
  5 27  1  6  0  0  0
  5 17  1  0  0  0  0
  6 23  1  0  0  0  0
  7  8  2  0  0  0  0
  8  2  2  0  0  0  0
  8 14  1  0  0  0  0
  9 13  2  0  0  0  0
  9 18  1  0  0  0  0
 10  8  1  1  0  0  0
 10 26  1  0  0  0  0
 10 28  1  0  0  0  0
 12 25  1  0  0  0  0
 14  9  1  0  0  0  0
 15 11  2  0  0  0  0
 16  1  2  0  0  0  0
 17  3  2  0  0  0  0
 19 15  1  0  0  0  0
 20 16  1  0  0  0  0
 21  1  1  0  0  0  0
 22 21  2  0  0  0  0
 23 15  1  0  0  0  0
 24 12  2  0  0  0  0
 24  5  1  0  0  0  0
 25 17  1  0  0  0  0
 25 19  1  1  0  0  0
 26 13  1  1  0  0  0
 26 24  1  0  0  0  0
 28 16  1  6  0  0  0
 28 12  1  0  0  0  0
M  END
>  <MODEL>
9

>  <REMARK>
 VINA RESULT:      -7.1      2.277      4.897
  Name = 
  0 active torsions:
  status: ('A' for Active; 'I' for Inactive)
                            x       y       z     vdW  Elec       q    Type
                         _______ _______ _______ _____ _____    ______ ____

>  <TORSDO>
F 0

$$$$
