=
 OpenBabel11112417353D

 28 32  0  0  1  0  0  0  0  0999 V2000
  188.9150  175.7680  145.5470 C   0  0  0  0  0  0  0  0  0  0  0  0
  189.3190  173.2370  143.3660 O   0  0  0  0  0  0  0  0  0  0  0  0
  195.0330  175.3640  146.4630 O   0  0  0  0  0  0  0  0  0  0  0  0
  188.1020  177.9090  143.9300 C   0  0  0  0  0  3  0  0  0  0  0  0
  194.5780  175.6830  144.1520 C   0  0  1  0  0  3  0  0  0  0  0  0
  189.3330  174.6690  146.4780 C   0  0  0  0  0  2  0  0  0  0  0  0
  190.2280  173.2430  141.0930 O   0  0  0  0  0  0  0  0  0  0  0  0
  190.5610  173.4390  142.5440 S   0  0  0  0  0  0  0  0  0  0  0  0
  192.9500  172.9970  143.4490 C   0  0  1  0  0  3  0  0  0  0  0  0
  191.2030  175.0960  142.7740 C   0  0  2  0  0  3  0  0  0  0  0  0
  191.5540  176.5380  148.5610 O   0  0  0  0  0  0  0  0  0  0  0  0
  192.2480  176.4640  144.5260 C   0  0  2  0  0  3  0  0  0  0  0  0
  193.4070  173.8970  142.3910 N   0  0  0  0  0  2  0  0  0  0  0  0
  191.7600  172.2780  143.0120 N   0  0  0  0  0  2  0  0  0  0  0  0
  191.2100  175.7050  147.6810 C   0  0  0  0  0  0  0  0  0  0  0  0
  189.7460  176.2070  144.4930 C   0  0  0  0  0  0  0  0  0  0  0  0
  194.2500  175.7220  145.5970 C   0  0  0  0  0  0  0  0  0  0  0  0
  194.0450  172.0040  143.7760 C   0  0  0  0  0  1  0  0  0  0  0  0
  192.1520  175.2710  146.7030 N   0  0  0  0  0  2  0  0  0  0  0  0
  189.3280  177.2840  143.6930 C   0  0  0  0  0  3  0  0  0  0  0  0
  187.6920  176.4060  145.7800 C   0  0  0  0  0  3  0  0  0  0  0  0
  187.2840  177.4690  144.9720 C   0  0  0  0  0  3  0  0  0  0  0  0
  189.9000  175.2270  147.6580 O   0  0  0  0  0  0  0  0  0  0  0  0
  193.3110  176.1800  143.4590 C   0  0  2  0  0  3  0  0  0  0  0  0
  192.8960  176.2370  145.9050 C   0  0  2  0  0  3  0  0  0  0  0  0
  192.7010  175.1920  142.4510 C   0  0  2  0  0  3  0  0  0  0  0  0
  195.7250  176.6300  143.8490 C   0  0  0  0  0  1  0  0  0  0  0  0
  191.0660  175.5410  144.2210 C   0  0  1  0  0  3  0  0  0  0  0  0
  1 21  1  0  0  0  0
  1  6  1  0  0  0  0
  4 22  1  0  0  0  0
  5 27  1  1  0  0  0
  5 17  1  0  0  0  0
  6 23  1  0  0  0  0
  7  8  2  0  0  0  0
  8 14  1  0  0  0  0
  8  2  2  0  0  0  0
  9 18  1  6  0  0  0
 10  8  1  1  0  0  0
 10 28  1  0  0  0  0
 12 25  1  0  0  0  0
 13 26  1  0  0  0  0
 13  9  1  0  0  0  0
 14  9  1  0  0  0  0
 15 11  2  0  0  0  0
 16  1  2  0  0  0  0
 17 25  1  0  0  0  0
 17  3  2  0  0  0  0
 19 15  1  0  0  0  0
 20  4  2  0  0  0  0
 20 16  1  0  0  0  0
 22 21  2  0  0  0  0
 23 15  1  0  0  0  0
 24  5  1  0  0  0  0
 24 12  1  0  0  0  0
 25 19  1  0  0  0  0
 26 10  1  0  0  0  0
 26 24  1  0  0  0  0
 28 16  1  0  0  0  0
 28 12  1  0  0  0  0
M  END
>  <MODEL>
1

>  <REMARK>
 VINA RESULT:      -7.8      0.000      0.000
  Name = 
  0 active torsions:
  status: ('A' for Active; 'I' for Inactive)
                            x       y       z     vdW  Elec       q    Type
                         _______ _______ _______ _____ _____    ______ ____

>  <TORSDO>
F 0

$$$$
=
 OpenBabel11112417353D

 28 32  0  0  1  0  0  0  0  0999 V2000
  186.9670  178.1190  143.9830 C   0  0  0  0  0  0  0  0  0  0  0  0
  190.0920  178.2680  145.2210 O   0  0  0  0  0  0  0  0  0  0  0  0
  189.2890  174.1730  139.8040 O   0  0  0  0  0  0  0  0  0  0  0  0
  185.4950  176.9220  146.0480 C   0  0  0  0  0  3  0  0  0  0  0  0
  189.7510  173.3930  142.0010 C   0  0  1  0  0  3  0  0  0  0  0  0
  187.6820  178.7750  142.8400 C   0  0  0  0  0  2  0  0  0  0  0  0
  191.3240  176.6590  146.5940 O   0  0  0  0  0  0  0  0  0  0  0  0
  190.7190  176.9030  145.2420 S   0  0  0  0  0  0  0  0  0  0  0  0
  191.6510  175.7380  143.1210 C   0  0  1  0  0  3  0  0  0  0  0  0
  189.4890  175.6410  144.9180 C   0  0  2  0  0  3  0  0  0  0  0  0
  186.1540  176.9900  140.1480 O   0  0  0  0  0  0  0  0  0  0  0  0
  188.0590  174.8590  143.0800 C   0  0  2  0  0  3  0  0  0  0  0  0
  191.4870  174.4870  143.8610 N   0  0  0  0  0  2  0  0  0  0  0  0
  191.9680  176.8230  144.0420 N   0  0  0  0  0  2  0  0  0  0  0  0
  187.0630  177.3270  140.9520 C   0  0  0  0  0  0  0  0  0  0  0  0
  187.3290  176.8380  144.4520 C   0  0  0  0  0  0  0  0  0  0  0  0
  189.0280  174.2080  140.9970 C   0  0  0  0  0  0  0  0  0  0  0  0
  192.7730  175.5870  142.1170 C   0  0  0  0  0  1  0  0  0  0  0  0
  188.1700  176.4570  141.1810 N   0  0  0  0  0  2  0  0  0  0  0  0
  186.5800  176.2480  145.4840 C   0  0  0  0  0  3  0  0  0  0  0  0
  185.8730  178.7830  144.5500 C   0  0  0  0  0  3  0  0  0  0  0  0
  185.1430  178.1900  145.5810 C   0  0  0  0  0  3  0  0  0  0  0  0
  186.9710  178.5420  141.6290 O   0  0  0  0  0  0  0  0  0  0  0  0
  189.1210  173.7840  143.3360 C   0  0  2  0  0  3  0  0  0  0  0  0
  187.9580  175.0650  141.5570 C   0  0  2  0  0  3  0  0  0  0  0  0
  190.1090  174.3470  144.3720 C   0  0  2  0  0  3  0  0  0  0  0  0
  189.5160  171.9160  141.7450 C   0  0  0  0  0  1  0  0  0  0  0  0
  188.4980  176.1010  143.8610 C   0  0  1  0  0  3  0  0  0  0  0  0
  1 16  2  0  0  0  0
  1 21  1  0  0  0  0
  2  8  2  0  0  0  0
  3 17  2  0  0  0  0
  5 27  1  6  0  0  0
  5 24  1  0  0  0  0
  6  1  1  0  0  0  0
  8  7  2  0  0  0  0
  9 18  1  6  0  0  0
  9 13  1  0  0  0  0
  9 14  1  0  0  0  0
 10  8  1  6  0  0  0
 11 15  2  0  0  0  0
 12 24  1  0  0  0  0
 12 28  1  0  0  0  0
 13 26  1  0  0  0  0
 14  8  1  0  0  0  0
 15 19  1  0  0  0  0
 15 23  1  0  0  0  0
 16 20  1  0  0  0  0
 17 25  1  0  0  0  0
 17  5  1  0  0  0  0
 19 25  1  0  0  0  0
 20  4  2  0  0  0  0
 21 22  2  0  0  0  0
 22  4  1  0  0  0  0
 23  6  1  0  0  0  0
 24 26  1  0  0  0  0
 25 12  1  0  0  0  0
 26 10  1  0  0  0  0
 28 16  1  0  0  0  0
 28 10  1  0  0  0  0
M  END
>  <MODEL>
2

>  <REMARK>
 VINA RESULT:      -7.6      2.972      5.510
  Name = 
  0 active torsions:
  status: ('A' for Active; 'I' for Inactive)
                            x       y       z     vdW  Elec       q    Type
                         _______ _______ _______ _____ _____    ______ ____

>  <TORSDO>
F 0

$$$$
=
 OpenBabel11112417353D

 28 32  0  0  1  0  0  0  0  0999 V2000
  195.0110  174.2100  144.4200 C   0  0  0  0  0  0  0  0  0  0  0  0
  193.1150  173.4780  141.7390 O   0  0  0  0  0  0  0  0  0  0  0  0
  190.2090  177.6360  146.3240 O   0  0  0  0  0  0  0  0  0  0  0  0
  195.2920  171.7420  145.7240 C   0  0  0  0  0  3  0  0  0  0  0  0
  189.5030  175.4030  145.9240 C   0  0  1  0  0  3  0  0  0  0  0  0
  194.9180  175.5600  143.7750 C   0  0  0  0  0  2  0  0  0  0  0  0
  191.2140  171.9500  141.5200 O   0  0  0  0  0  0  0  0  0  0  0  0
  191.6910  173.2270  142.1500 S   0  0  0  0  0  0  0  0  0  0  0  0
  190.0350  175.1260  142.7610 C   0  0  1  0  0  3  0  0  0  0  0  0
  191.5680  173.0780  143.9310 C   0  0  2  0  0  3  0  0  0  0  0  0
  194.4190  177.5310  146.7140 O   0  0  0  0  0  0  0  0  0  0  0  0
  191.8080  174.4730  145.9390 C   0  0  2  0  0  3  0  0  0  0  0  0
  189.2880  174.1020  143.4890 N   0  0  0  0  0  2  0  0  0  0  0  0
  190.6930  174.5350  141.6020 N   0  0  0  0  0  2  0  0  0  0  0  0
  194.1180  176.9580  145.6330 C   0  0  0  0  0  0  0  0  0  0  0  0
  193.8650  173.5100  144.8550 C   0  0  0  0  0  0  0  0  0  0  0  0
  190.5080  176.4600  146.1850 C   0  0  0  0  0  0  0  0  0  0  0  0
  189.0860  176.2120  142.3000 C   0  0  0  0  0  1  0  0  0  0  0  0
  192.7520  176.6870  145.3260 N   0  0  0  0  0  2  0  0  0  0  0  0
  194.0200  172.2770  145.5100 C   0  0  0  0  0  3  0  0  0  0  0  0
  196.2820  173.6680  144.6450 C   0  0  0  0  0  3  0  0  0  0  0  0
  196.4230  172.4380  145.2890 C   0  0  0  0  0  3  0  0  0  0  0  0
  195.1280  176.5760  144.7510 O   0  0  0  0  0  0  0  0  0  0  0  0
  190.3240  174.1210  145.7890 C   0  0  2  0  0  3  0  0  0  0  0  0
  191.9040  175.9730  146.2710 C   0  0  2  0  0  3  0  0  0  0  0  0
  190.1560  173.3890  144.4470 C   0  0  2  0  0  3  0  0  0  0  0  0
  188.5560  175.2750  147.1020 C   0  0  0  0  0  1  0  0  0  0  0  0
  192.4870  174.0680  144.6280 C   0  0  1  0  0  3  0  0  0  0  0  0
  1 21  2  0  0  0  0
  1 16  1  0  0  0  0
  2  8  2  0  0  0  0
  5 17  1  0  0  0  0
  5 27  1  1  0  0  0
  6  1  1  0  0  0  0
  6 23  1  0  0  0  0
  7  8  2  0  0  0  0
  9 18  1  6  0  0  0
  9 13  1  0  0  0  0
 10  8  1  6  0  0  0
 10 26  1  0  0  0  0
 10 28  1  0  0  0  0
 12 25  1  0  0  0  0
 13 26  1  0  0  0  0
 14  8  1  0  0  0  0
 14  9  1  0  0  0  0
 15 11  2  0  0  0  0
 16 20  2  0  0  0  0
 17 25  1  0  0  0  0
 17  3  2  0  0  0  0
 19 15  1  0  0  0  0
 19 25  1  0  0  0  0
 20  4  1  0  0  0  0
 21 22  1  0  0  0  0
 22  4  2  0  0  0  0
 23 15  1  0  0  0  0
 24  5  1  0  0  0  0
 24 12  1  0  0  0  0
 26 24  1  0  0  0  0
 28 16  1  0  0  0  0
 28 12  1  0  0  0  0
M  END
>  <MODEL>
3

>  <REMARK>
 VINA RESULT:      -7.4      1.996      5.344
  Name = 
  0 active torsions:
  status: ('A' for Active; 'I' for Inactive)
                            x       y       z     vdW  Elec       q    Type
                         _______ _______ _______ _____ _____    ______ ____

>  <TORSDO>
F 0

$$$$
=
 OpenBabel11112417353D

 28 32  0  0  1  0  0  0  0  0999 V2000
  186.1900  177.0500  144.0410 C   0  0  0  0  0  0  0  0  0  0  0  0
  187.0660  174.2530  142.3870 O   0  0  0  0  0  0  0  0  0  0  0  0
  191.4510  176.2790  147.2280 O   0  0  0  0  0  0  0  0  0  0  0  0
  186.2850  179.0410  142.0680 C   0  0  0  0  0  3  0  0  0  0  0  0
  191.9180  176.3550  144.8980 C   0  0  1  0  0  3  0  0  0  0  0  0
  186.1040  176.0410  145.1470 C   0  0  0  0  0  2  0  0  0  0  0  0
  188.7400  173.9160  140.6330 O   0  0  0  0  0  0  0  0  0  0  0  0
  188.5370  174.2580  142.0810 S   0  0  0  0  0  0  0  0  0  0  0  0
  190.3580  173.7400  143.8530 C   0  0  1  0  0  3  0  0  0  0  0  0
  189.2410  175.8750  142.4010 C   0  0  2  0  0  3  0  0  0  0  0  0
  187.6090  177.9640  147.7540 O   0  0  0  0  0  0  0  0  0  0  0  0
  189.7220  177.3550  144.3000 C   0  0  2  0  0  3  0  0  0  0  0  0
  191.2740  174.4690  142.9760 N   0  0  0  0  0  2  0  0  0  0  0  0
  189.3350  173.0700  143.0590 N   0  0  0  0  0  2  0  0  0  0  0  0
  187.5160  177.0630  146.8800 C   0  0  0  0  0  0  0  0  0  0  0  0
  187.3950  177.2940  143.3460 C   0  0  0  0  0  0  0  0  0  0  0  0
  191.0890  176.5910  146.1040 C   0  0  0  0  0  0  0  0  0  0  0  0
  191.1320  172.7110  144.6480 C   0  0  0  0  0  1  0  0  0  0  0  0
  188.6940  176.4420  146.3690 N   0  0  0  0  0  2  0  0  0  0  0  0
  187.4290  178.2970  142.3630 C   0  0  0  0  0  3  0  0  0  0  0  0
  185.0510  177.8050  143.7420 C   0  0  0  0  0  3  0  0  0  0  0  0
  185.0960  178.7930  142.7570 C   0  0  0  0  0  3  0  0  0  0  0  0
  186.2600  176.6890  146.4040 O   0  0  0  0  0  0  0  0  0  0  0  0
  191.0620  176.8630  143.7400 C   0  0  2  0  0  3  0  0  0  0  0  0
  189.7870  177.2440  145.8350 C   0  0  2  0  0  3  0  0  0  0  0  0
  190.7530  175.8130  142.6600 C   0  0  2  0  0  3  0  0  0  0  0  0
  193.1980  177.1660  144.9740 C   0  0  0  0  0  1  0  0  0  0  0  0
  188.6350  176.4990  143.6480 C   0  0  1  0  0  3  0  0  0  0  0  0
  1  6  1  0  0  0  0
  4 20  2  0  0  0  0
  4 22  1  0  0  0  0
  5 27  1  1  0  0  0
  5 17  1  0  0  0  0
  6 23  1  0  0  0  0
  7  8  2  0  0  0  0
  8  2  2  0  0  0  0
  8 14  1  0  0  0  0
  9 18  1  6  0  0  0
 10  8  1  1  0  0  0
 10 26  1  0  0  0  0
 10 28  1  0  0  0  0
 12 25  1  0  0  0  0
 13  9  1  0  0  0  0
 14  9  1  0  0  0  0
 15 11  2  0  0  0  0
 16 28  1  0  0  0  0
 16  1  2  0  0  0  0
 17  3  2  0  0  0  0
 19 15  1  0  0  0  0
 20 16  1  0  0  0  0
 21  1  1  0  0  0  0
 22 21  2  0  0  0  0
 23 15  1  0  0  0  0
 24 12  1  0  0  0  0
 24  5  1  0  0  0  0
 25 17  1  0  0  0  0
 25 19  1  0  0  0  0
 26 13  1  0  0  0  0
 26 24  1  0  0  0  0
 28 12  1  0  0  0  0
M  END
>  <MODEL>
4

>  <REMARK>
 VINA RESULT:      -7.4      2.181      3.058
  Name = 
  0 active torsions:
  status: ('A' for Active; 'I' for Inactive)
                            x       y       z     vdW  Elec       q    Type
                         _______ _______ _______ _____ _____    ______ ____

>  <TORSDO>
F 0

$$$$
=
 OpenBabel11112417353D

 28 32  0  0  1  0  0  0  0  0999 V2000
  188.5940  175.9410  144.2950 C   0  0  0  0  0  0  0  0  0  0  0  0
  191.6080  177.4010  143.9710 O   0  0  0  0  0  0  0  0  0  0  0  0
  191.1580  171.0480  141.4820 O   0  0  0  0  0  0  0  0  0  0  0  0
  188.2810  175.6790  147.0690 C   0  0  0  0  0  3  0  0  0  0  0  0
  192.4240  171.6330  143.4060 C   0  0  1  0  0  3  0  0  0  0  0  0
  188.6810  176.0580  142.8020 C   0  0  0  0  0  2  0  0  0  0  0  0
  193.6750  177.0490  145.2340 O   0  0  0  0  0  0  0  0  0  0  0  0
  192.7060  176.4220  144.2740 S   0  0  0  0  0  0  0  0  0  0  0  0
  193.4590  174.5770  142.6150 C   0  0  1  0  0  3  0  0  0  0  0  0
  192.0350  174.9340  145.0140 C   0  0  2  0  0  3  0  0  0  0  0  0
  187.3610  172.8550  141.9280 O   0  0  0  0  0  0  0  0  0  0  0  0
  190.6200  173.0220  144.4020 C   0  0  2  0  0  3  0  0  0  0  0  0
  193.9920  173.8830  143.7860 N   0  0  0  0  0  2  0  0  0  0  0  0
  193.5420  176.0190  142.8090 N   0  0  0  0  0  2  0  0  0  0  0  0
  188.2330  173.7500  142.0820 C   0  0  0  0  0  0  0  0  0  0  0  0
  189.5370  175.2010  145.0410 C   0  0  0  0  0  0  0  0  0  0  0  0
  191.2120  171.6310  142.5540 C   0  0  0  0  0  0  0  0  0  0  0  0
  194.2600  174.1880  141.3900 C   0  0  0  0  0  1  0  0  0  0  0  0
  189.6120  173.3950  142.1620 N   0  0  0  0  0  2  0  0  0  0  0  0
  189.3660  175.0750  146.4300 C   0  0  0  0  0  3  0  0  0  0  0  0
  187.5070  176.5360  144.9440 C   0  0  0  0  0  3  0  0  0  0  0  0
  187.3530  176.4100  146.3260 C   0  0  0  0  0  3  0  0  0  0  0  0
  187.8410  175.0840  142.1920 O   0  0  0  0  0  0  0  0  0  0  0  0
  192.0470  172.5010  144.6050 C   0  0  2  0  0  3  0  0  0  0  0  0
  190.0680  172.3880  143.1110 C   0  0  2  0  0  3  0  0  0  0  0  0
  192.9570  173.7210  144.8260 C   0  0  2  0  0  3  0  0  0  0  0  0
  192.7360  170.2250  143.8800 C   0  0  0  0  0  1  0  0  0  0  0  0
  190.7130  174.5500  144.3690 C   0  0  1  0  0  3  0  0  0  0  0  0
  1 21  2  0  0  0  0
  1 16  1  0  0  0  0
  2  8  2  0  0  0  0
  3 17  2  0  0  0  0
  5 27  1  1  0  0  0
  5 24  1  0  0  0  0
  6  1  1  0  0  0  0
  8  7  2  0  0  0  0
  9 18  1  6  0  0  0
  9 14  1  0  0  0  0
  9 13  1  0  0  0  0
 10  8  1  6  0  0  0
 11 15  2  0  0  0  0
 12 24  1  0  0  0  0
 13 26  1  0  0  0  0
 14  8  1  0  0  0  0
 15 19  1  0  0  0  0
 15 23  1  0  0  0  0
 16 20  2  0  0  0  0
 17 25  1  0  0  0  0
 17  5  1  0  0  0  0
 19 25  1  0  0  0  0
 20  4  1  0  0  0  0
 21 22  1  0  0  0  0
 22  4  2  0  0  0  0
 23  6  1  0  0  0  0
 24 26  1  0  0  0  0
 25 12  1  0  0  0  0
 26 10  1  0  0  0  0
 28 12  1  0  0  0  0
 28 10  1  0  0  0  0
 28 16  1  0  0  0  0
M  END
>  <MODEL>
5

>  <REMARK>
 VINA RESULT:      -7.4      2.318      4.597
  Name = 
  0 active torsions:
  status: ('A' for Active; 'I' for Inactive)
                            x       y       z     vdW  Elec       q    Type
                         _______ _______ _______ _____ _____    ______ ____

>  <TORSDO>
F 0

$$$$
=
 OpenBabel11112417353D

 28 32  0  0  1  0  0  0  0  0999 V2000
  191.7150  173.2130  144.5770 C   0  0  0  0  0  0  0  0  0  0  0  0
  190.3700  174.7840  147.2310 O   0  0  0  0  0  0  0  0  0  0  0  0
  187.0690  175.7010  141.3130 O   0  0  0  0  0  0  0  0  0  0  0  0
  194.1970  174.4760  144.2500 C   0  0  0  0  0  3  0  0  0  0  0  0
  188.2770  177.4110  142.4380 C   0  0  1  0  0  3  0  0  0  0  0  0
  190.4110  172.4820  144.6950 C   0  0  0  0  0  2  0  0  0  0  0  0
  190.4400  177.1470  147.8680 O   0  0  0  0  0  0  0  0  0  0  0  0
  189.9200  176.1680  146.8560 S   0  0  0  0  0  0  0  0  0  0  0  0
  187.7490  176.6400  145.5190 C   0  0  1  0  0  3  0  0  0  0  0  0
  190.5480  176.6160  145.2380 C   0  0  2  0  0  3  0  0  0  0  0  0
  189.5760  172.2970  141.2270 O   0  0  0  0  0  0  0  0  0  0  0  0
  190.2580  175.9790  142.8840 C   0  0  2  0  0  3  0  0  0  0  0  0
  188.3690  177.9150  145.1590 N   0  0  0  0  0  2  0  0  0  0  0  0
  188.1880  176.2300  146.8470 N   0  0  0  0  0  2  0  0  0  0  0  0
  189.5010  172.6890  142.4210 C   0  0  0  0  0  0  0  0  0  0  0  0
  191.7700  174.6060  144.3530 C   0  0  0  0  0  0  0  0  0  0  0  0
  188.0940  176.0520  141.8770 C   0  0  0  0  0  0  0  0  0  0  0  0
  186.2430  176.7910  145.5110 C   0  0  0  0  0  1  0  0  0  0  0  0
  188.8640  173.9280  142.7260 N   0  0  0  0  0  2  0  0  0  0  0  0
  193.0210  175.2250  144.1870 C   0  0  0  0  0  3  0  0  0  0  0  0
  192.9000  172.4710  144.6310 C   0  0  0  0  0  3  0  0  0  0  0  0
  194.1360  173.0990  144.4730 C   0  0  0  0  0  3  0  0  0  0  0  0
  190.0600  171.9150  143.4380 O   0  0  0  0  0  0  0  0  0  0  0  0
  189.6700  177.3830  143.0640 C   0  0  2  0  0  3  0  0  0  0  0  0
  189.2600  175.1550  142.0480 C   0  0  2  0  0  3  0  0  0  0  0  0
  189.7060  177.7090  144.5660 C   0  0  2  0  0  3  0  0  0  0  0  0
  188.2420  178.4470  141.3290 C   0  0  0  0  0  1  0  0  0  0  0  0
  190.5140  175.4280  144.2890 C   0  0  1  0  0  3  0  0  0  0  0  0
  1 21  1  0  0  0  0
  1  6  1  0  0  0  0
  3 17  2  0  0  0  0
  4 22  1  0  0  0  0
  5 27  1  6  0  0  0
  5 24  1  0  0  0  0
  8  2  2  0  0  0  0
  8  7  2  0  0  0  0
  9 18  1  1  0  0  0
  9 14  1  0  0  0  0
 10  8  1  1  0  0  0
 11 15  2  0  0  0  0
 12 24  1  0  0  0  0
 12 28  1  0  0  0  0
 13  9  1  0  0  0  0
 14  8  1  0  0  0  0
 15 19  1  0  0  0  0
 15 23  1  0  0  0  0
 16  1  2  0  0  0  0
 17 25  1  0  0  0  0
 17  5  1  0  0  0  0
 20  4  2  0  0  0  0
 20 16  1  0  0  0  0
 22 21  2  0  0  0  0
 23  6  1  0  0  0  0
 24 26  1  0  0  0  0
 25 19  1  0  0  0  0
 25 12  1  0  0  0  0
 26 13  1  0  0  0  0
 26 10  1  0  0  0  0
 28 16  1  0  0  0  0
 28 10  1  0  0  0  0
M  END
>  <MODEL>
6

>  <REMARK>
 VINA RESULT:      -7.3      2.350      6.106
  Name = 
  0 active torsions:
  status: ('A' for Active; 'I' for Inactive)
                            x       y       z     vdW  Elec       q    Type
                         _______ _______ _______ _____ _____    ______ ____

>  <TORSDO>
F 0

$$$$
=
 OpenBabel11112417353D

 28 32  0  0  1  0  0  0  0  0999 V2000
  189.1610  176.8540  144.9050 C   0  0  0  0  0  0  0  0  0  0  0  0
  192.4920  176.9300  145.3700 O   0  0  0  0  0  0  0  0  0  0  0  0
  190.3430  172.8640  140.3090 O   0  0  0  0  0  0  0  0  0  0  0  0
  188.1910  175.6860  147.2630 C   0  0  0  0  0  3  0  0  0  0  0  0
  191.2930  172.0690  142.3380 C   0  0  1  0  0  3  0  0  0  0  0  0
  189.6010  177.4950  143.6230 C   0  0  0  0  0  2  0  0  0  0  0  0
  193.9770  175.2910  146.4190 O   0  0  0  0  0  0  0  0  0  0  0  0
  193.0770  175.5510  145.2460 S   0  0  0  0  0  0  0  0  0  0  0  0
  193.4560  174.3690  142.9700 C   0  0  1  0  0  3  0  0  0  0  0  0
  191.7770  174.3180  145.2270 C   0  0  2  0  0  3  0  0  0  0  0  0
  187.4410  175.7510  141.3740 O   0  0  0  0  0  0  0  0  0  0  0  0
  189.9370  173.5720  143.7810 C   0  0  2  0  0  3  0  0  0  0  0  0
  193.4420  173.1210  143.7320 N   0  0  0  0  0  2  0  0  0  0  0  0
  194.0050  175.4450  143.7860 N   0  0  0  0  0  2  0  0  0  0  0  0
  188.5220  176.0650  141.9400 C   0  0  0  0  0  0  0  0  0  0  0  0
  189.5950  175.5630  145.2800 C   0  0  0  0  0  0  0  0  0  0  0  0
  190.3720  172.9030  141.5300 C   0  0  0  0  0  0  0  0  0  0  0  0
  194.3050  174.1950  141.7300 C   0  0  0  0  0  1  0  0  0  0  0  0
  189.6320  175.1700  141.9040 N   0  0  0  0  0  2  0  0  0  0  0  0
  189.0980  174.9890  146.4610 C   0  0  0  0  0  3  0  0  0  0  0  0
  188.2470  177.5410  145.7120 C   0  0  0  0  0  3  0  0  0  0  0  0
  187.7680  176.9620  146.8880 C   0  0  0  0  0  3  0  0  0  0  0  0
  188.6190  177.2810  142.6150 O   0  0  0  0  0  0  0  0  0  0  0  0
  191.0050  172.4720  143.7830 C   0  0  2  0  0  3  0  0  0  0  0  0
  189.4840  173.7830  142.3240 C   0  0  2  0  0  3  0  0  0  0  0  0
  192.2210  173.0110  144.5540 C   0  0  2  0  0  3  0  0  0  0  0  0
  190.9720  170.5980  142.1500 C   0  0  0  0  0  1  0  0  0  0  0  0
  190.5750  174.8020  144.4310 C   0  0  1  0  0  3  0  0  0  0  0  0
  1 16  2  0  0  0  0
  1 21  1  0  0  0  0
  3 17  2  0  0  0  0
  5 27  1  1  0  0  0
  5 24  1  0  0  0  0
  6  1  1  0  0  0  0
  8  2  2  0  0  0  0
  8  7  2  0  0  0  0
  9 18  1  6  0  0  0
  9 13  1  0  0  0  0
  9 14  1  0  0  0  0
 10  8  1  6  0  0  0
 11 15  2  0  0  0  0
 12 24  1  0  0  0  0
 12 28  1  0  0  0  0
 13 26  1  0  0  0  0
 14  8  1  0  0  0  0
 15 23  1  0  0  0  0
 16 20  1  0  0  0  0
 17 25  1  0  0  0  0
 17  5  1  0  0  0  0
 19 15  1  0  0  0  0
 19 25  1  0  0  0  0
 20  4  2  0  0  0  0
 21 22  2  0  0  0  0
 22  4  1  0  0  0  0
 23  6  1  0  0  0  0
 24 26  1  0  0  0  0
 25 12  1  0  0  0  0
 26 10  1  0  0  0  0
 28 10  1  0  0  0  0
 28 16  1  0  0  0  0
M  END
>  <MODEL>
7

>  <REMARK>
 VINA RESULT:      -7.3      2.267      4.712
  Name = 
  0 active torsions:
  status: ('A' for Active; 'I' for Inactive)
                            x       y       z     vdW  Elec       q    Type
                         _______ _______ _______ _____ _____    ______ ____

>  <TORSDO>
F 0

$$$$
=
 OpenBabel11112417353D

 28 32  0  0  1  0  0  0  0  0999 V2000
  192.1500  173.6960  142.8810 C   0  0  0  0  0  0  0  0  0  0  0  0
  192.1390  174.5630  146.1320 O   0  0  0  0  0  0  0  0  0  0  0  0
  186.3160  175.7910  142.7630 O   0  0  0  0  0  0  0  0  0  0  0  0
  194.0470  175.4200  141.7440 C   0  0  0  0  0  3  0  0  0  0  0  0
  187.7730  177.4920  143.5590 C   0  0  1  0  0  3  0  0  0  0  0  0
  191.1330  172.7330  143.4160 C   0  0  0  0  0  2  0  0  0  0  0  0
  192.3150  176.7700  147.1770 O   0  0  0  0  0  0  0  0  0  0  0  0
  191.4510  175.8850  146.3260 S   0  0  0  0  0  0  0  0  0  0  0  0
  188.8740  176.1640  146.2780 C   0  0  1  0  0  3  0  0  0  0  0  0
  191.1750  176.6870  144.7470 C   0  0  2  0  0  3  0  0  0  0  0  0
  188.7370  172.9490  140.7760 O   0  0  0  0  0  0  0  0  0  0  0  0
  189.8320  176.3860  142.7130 C   0  0  2  0  0  3  0  0  0  0  0  0
  189.1340  177.5690  145.9690 N   0  0  0  0  0  2  0  0  0  0  0  0
  189.9340  175.6350  147.1270 N   0  0  0  0  0  2  0  0  0  0  0  0
  189.2200  173.1280  141.9240 C   0  0  0  0  0  0  0  0  0  0  0  0
  191.9750  175.0940  142.9750 C   0  0  0  0  0  0  0  0  0  0  0  0
  187.4530  176.2270  142.8560 C   0  0  0  0  0  0  0  0  0  0  0  0
  187.5470  176.0410  146.9950 C   0  0  0  0  0  1  0  0  0  0  0  0
  188.7110  174.1690  142.7570 N   0  0  0  0  0  2  0  0  0  0  0  0
  192.9310  175.9460  142.3980 C   0  0  0  0  0  3  0  0  0  0  0  0
  193.2690  173.1800  142.2170 C   0  0  0  0  0  3  0  0  0  0  0  0
  194.2160  174.0370  141.6550 C   0  0  0  0  0  3  0  0  0  0  0  0
  190.2630  172.3180  142.3690 O   0  0  0  0  0  0  0  0  0  0  0  0
  189.2920  177.6150  143.4520 C   0  0  2  0  0  3  0  0  0  0  0  0
  188.6250  175.5390  142.2670 C   0  0  2  0  0  3  0  0  0  0  0  0
  190.0250  177.7030  144.8000 C   0  0  2  0  0  3  0  0  0  0  0  0
  187.1190  178.6650  142.8530 C   0  0  0  0  0  1  0  0  0  0  0  0
  190.7820  175.6770  143.6810 C   0  0  1  0  0  3  0  0  0  0  0  0
  1 16  1  0  0  0  0
  1  6  1  0  0  0  0
  2  8  2  0  0  0  0
  3 17  2  0  0  0  0
  4 20  1  0  0  0  0
  5 27  1  6  0  0  0
  8 14  1  0  0  0  0
  8  7  2  0  0  0  0
  9 18  1  1  0  0  0
  9 14  1  0  0  0  0
 10 26  1  0  0  0  0
 10  8  1  1  0  0  0
 11 15  2  0  0  0  0
 12 24  1  0  0  0  0
 12 28  1  0  0  0  0
 13  9  1  0  0  0  0
 15 23  1  0  0  0  0
 15 19  1  0  0  0  0
 16 28  1  0  0  0  0
 17  5  1  0  0  0  0
 20 16  2  0  0  0  0
 21  1  2  0  0  0  0
 22  4  2  0  0  0  0
 22 21  1  0  0  0  0
 23  6  1  0  0  0  0
 24  5  1  0  0  0  0
 24 26  1  0  0  0  0
 25 12  1  0  0  0  0
 25 19  1  0  0  0  0
 25 17  1  0  0  0  0
 26 13  1  0  0  0  0
 28 10  1  0  0  0  0
M  END
>  <MODEL>
8

>  <REMARK>
 VINA RESULT:      -7.1      2.265      6.138
  Name = 
  0 active torsions:
  status: ('A' for Active; 'I' for Inactive)
                            x       y       z     vdW  Elec       q    Type
                         _______ _______ _______ _____ _____    ______ ____

>  <TORSDO>
F 0

$$$$
=
 OpenBabel11112417353D

 28 32  0  0  1  0  0  0  0  0999 V2000
  189.5820  175.8670  144.6150 C   0  0  0  0  0  0  0  0  0  0  0  0
  192.5580  177.4100  144.9060 O   0  0  0  0  0  0  0  0  0  0  0  0
  192.6810  171.4270  141.5960 O   0  0  0  0  0  0  0  0  0  0  0  0
  188.9010  175.2410  147.2630 C   0  0  0  0  0  3  0  0  0  0  0  0
  193.6490  171.7790  143.7380 C   0  0  1  0  0  3  0  0  0  0  0  0
  189.8690  176.1790  143.1770 C   0  0  0  0  0  2  0  0  0  0  0  0
  194.4440  176.9330  146.3920 O   0  0  0  0  0  0  0  0  0  0  0  0
  193.6390  176.4190  145.2340 S   0  0  0  0  0  0  0  0  0  0  0  0
  194.6780  174.8190  143.4780 C   0  0  1  0  0  3  0  0  0  0  0  0
  192.9260  174.8360  145.6790 C   0  0  2  0  0  3  0  0  0  0  0  0
  188.7970  173.0940  141.7290 O   0  0  0  0  0  0  0  0  0  0  0  0
  191.6770  172.9950  144.6370 C   0  0  2  0  0  3  0  0  0  0  0  0
  195.0690  173.9890  144.6160 N   0  0  0  0  0  2  0  0  0  0  0  0
  194.6810  176.2250  143.8620 N   0  0  0  0  0  2  0  0  0  0  0  0
  189.6070  173.9770  142.1160 C   0  0  0  0  0  0  0  0  0  0  0  0
  190.4400  175.0530  145.3880 C   0  0  0  0  0  0  0  0  0  0  0  0
  192.5670  171.8670  142.7300 C   0  0  0  0  0  0  0  0  0  0  0  0
  195.6520  174.6070  142.3390 C   0  0  0  0  0  1  0  0  0  0  0  0
  190.9740  173.6390  142.3430 N   0  0  0  0  0  2  0  0  0  0  0  0
  190.0840  174.7440  146.7110 C   0  0  0  0  0  3  0  0  0  0  0  0
  188.3960  176.3540  145.1760 C   0  0  0  0  0  3  0  0  0  0  0  0
  188.0590  176.0470  146.4950 C   0  0  0  0  0  3  0  0  0  0  0  0
  189.1570  175.2780  142.3370 O   0  0  0  0  0  0  0  0  0  0  0  0
  193.0810  172.4780  144.9710 C   0  0  2  0  0  3  0  0  0  0  0  0
  191.3310  172.5250  143.2120 C   0  0  2  0  0  3  0  0  0  0  0  0
  193.9080  173.6740  145.4710 C   0  0  2  0  0  3  0  0  0  0  0  0
  193.9430  170.3280  144.0690 C   0  0  0  0  0  1  0  0  0  0  0  0
  191.7200  174.5160  144.8110 C   0  0  1  0  0  3  0  0  0  0  0  0
  1 21  2  0  0  0  0
  1 16  1  0  0  0  0
  2  8  2  0  0  0  0
  3 17  2  0  0  0  0
  5 27  1  1  0  0  0
  5 24  1  0  0  0  0
  6  1  1  0  0  0  0
  8  7  2  0  0  0  0
  9 18  1  6  0  0  0
  9 14  1  0  0  0  0
  9 13  1  0  0  0  0
 10  8  1  6  0  0  0
 11 15  2  0  0  0  0
 12 28  1  0  0  0  0
 12 24  1  0  0  0  0
 13 26  1  0  0  0  0
 14  8  1  0  0  0  0
 15 23  1  0  0  0  0
 15 19  1  0  0  0  0
 16 20  2  0  0  0  0
 17 25  1  0  0  0  0
 17  5  1  0  0  0  0
 19 25  1  0  0  0  0
 20  4  1  0  0  0  0
 21 22  1  0  0  0  0
 22  4  2  0  0  0  0
 23  6  1  0  0  0  0
 24 26  1  0  0  0  0
 25 12  1  0  0  0  0
 26 10  1  0  0  0  0
 28 16  1  0  0  0  0
 28 10  1  0  0  0  0
M  END
>  <MODEL>
9

>  <REMARK>
 VINA RESULT:      -7.1      2.188      4.576
  Name = 
  0 active torsions:
  status: ('A' for Active; 'I' for Inactive)
                            x       y       z     vdW  Elec       q    Type
                         _______ _______ _______ _____ _____    ______ ____

>  <TORSDO>
F 0

$$$$
