=
 OpenBabel11112417453D

 34 40  0  0  1  0  0  0  0  0999 V2000
  192.7570  176.1660  143.1670 C   0  0  0  0  0  0  0  0  0  0  0  0
  190.9420  177.9730  143.1400 C   0  0  0  0  0  2  0  0  0  0  0  0
  196.2400  171.0410  145.6220 C   0  0  0  0  0  0  0  0  0  0  0  0
  194.6260  174.6760  143.5220 C   0  0  0  0  0  0  0  0  0  0  0  0
  194.5410  172.9340  145.4390 C   0  0  2  0  0  3  0  0  0  0  0  0
  193.8160  170.4920  145.4680 C   0  0  0  0  0  1  0  0  0  0  0  0
  196.4840  169.8060  145.5730 O   0  0  0  0  0  0  0  0  0  0  0  0
  197.2450  173.3750  145.9990 C   0  0  0  0  0  2  0  0  0  0  0  0
  191.1320  176.5110  144.9850 C   0  0  2  0  0  3  0  0  0  0  0  0
  188.5220  175.7770  146.7530 C   0  0  0  0  0  2  0  0  0  0  0  0
  193.0290  173.2040  145.3880 C   0  0  0  0  0  2  0  0  0  0  0  0
  196.6980  174.1160  144.7810 C   0  0  0  0  0  2  0  0  0  0  0  0
  191.3070  175.0610  145.4360 C   0  0  1  0  0  3  0  0  0  0  0  0
  189.7300  178.2320  144.0330 C   0  0  0  0  0  2  0  0  0  0  0  0
  195.3450  173.5920  144.2900 C   0  0  2  0  0  3  0  0  0  0  0  0
  197.3480  171.9440  145.7470 N   0  0  0  0  0  2  0  0  0  0  0  0
  188.6020  176.3410  145.3370 C   0  0  2  0  0  3  0  0  0  0  0  0
  193.3900  175.1800  143.9540 C   0  0  0  0  0  0  0  0  0  0  0  0
  194.8710  171.5020  145.5310 N   0  0  0  0  0  0  0  0  0  0  0  0
  192.7940  174.7000  145.2650 C   0  0  2  0  0  3  0  0  0  0  0  0
  194.5440  176.0920  141.6220 C   0  0  0  0  0  3  0  0  0  0  0  0
  189.3920  174.5410  146.9340 C   0  0  0  0  0  2  0  0  0  0  0  0
  195.1720  175.1470  142.3680 N   0  0  0  0  0  0  0  0  0  0  0  0
  190.8740  174.8770  146.8820 C   0  0  0  0  0  2  0  0  0  0  0  0
  189.8270  177.2660  145.2260 C   0  0  1  0  0  3  0  0  0  0  0  0
  193.3390  176.5830  142.0130 N   0  0  0  0  0  0  0  0  0  0  0  0
  191.3520  176.5710  143.5020 C   0  0  2  0  0  3  0  0  0  0  0  0
  187.3770  177.0790  145.0710 N   0  0  0  0  0  2  0  0  0  0  0  0
  186.9040  177.5870  146.3480 C   0  0  0  0  0  2  0  0  0  0  0  0
  184.5590  179.4180  144.2630 N   0  0  0  0  0  2  0  0  0  0  0  0
  184.5080  178.2440  146.3590 C   0  0  0  0  0  2  0  0  0  0  0  0
  185.9150  178.7150  146.1250 C   0  0  2  0  0  3  0  0  0  0  0  0
  183.6910  179.0410  145.3720 C   0  0  0  0  0  2  0  0  0  0  0  0
  185.9310  179.1360  144.6750 C   0  0  0  0  0  2  0  0  0  0  0  0
  1 27  1  0  0  0  0
  1 18  1  0  0  0  0
  2 27  1  0  0  0  0
  2 14  1  0  0  0  0
  3 16  1  0  0  0  0
  4 18  2  0  0  0  0
  4 15  1  0  0  0  0
  5 11  1  6  0  0  0
  5 19  1  0  0  0  0
  6 19  1  0  0  0  0
  7  3  2  0  0  0  0
  9 25  1  0  0  0  0
  9 13  1  0  0  0  0
 10 22  1  0  0  0  0
 12  8  1  0  0  0  0
 13 24  1  0  0  0  0
 14 25  1  0  0  0  0
 15 12  1  0  0  0  0
 15  5  1  0  0  0  0
 16  8  1  0  0  0  0
 17 10  1  0  0  0  0
 18 20  1  0  0  0  0
 19  3  1  0  0  0  0
 20 11  1  0  0  0  0
 20 13  1  0  0  0  0
 21 26  1  0  0  0  0
 21 23  2  0  0  0  0
 23  4  1  0  0  0  0
 24 22  1  0  0  0  0
 25 17  1  0  0  0  0
 26  1  2  0  0  0  0
 27  9  1  0  0  0  0
 28 17  1  0  0  0  0
 28 29  1  0  0  0  0
 30 34  1  0  0  0  0
 30 33  1  0  0  0  0
 32 29  1  0  0  0  0
 32 31  1  0  0  0  0
 33 31  1  0  0  0  0
 34 32  1  0  0  0  0
M  END
>  <MODEL>
1

>  <REMARK>
 VINA RESULT:      -8.6      0.000      0.000
  Name = 
  3 active torsions:
  status: ('A' for Active; 'I' for Inactive)
    1  A    between atoms: C_17  and  N_28
    2  A    between atoms: N_28  and  C_29
    3  A    between atoms: C_29  and  C_32
                            x       y       z     vdW  Elec       q    Type
                         _______ _______ _______ _____ _____    ______ ____

>  <TORSDO>
F 3

$$$$
=
 OpenBabel11112417453D

 34 40  0  0  1  0  0  0  0  0999 V2000
  190.3410  174.9960  142.3540 C   0  0  0  0  0  0  0  0  0  0  0  0
  187.8710  175.6050  142.6590 C   0  0  0  0  0  2  0  0  0  0  0  0
  196.8830  175.1970  143.6130 C   0  0  0  0  0  0  0  0  0  0  0  0
  192.7180  174.8280  141.9550 C   0  0  0  0  0  0  0  0  0  0  0  0
  194.3900  175.7180  143.7250 C   0  0  2  0  0  3  0  0  0  0  0  0
  195.5940  174.5540  145.6440 C   0  0  0  0  0  1  0  0  0  0  0  0
  197.8830  174.6150  144.1110 O   0  0  0  0  0  0  0  0  0  0  0  0
  196.0530  176.7000  141.7030 C   0  0  0  0  0  2  0  0  0  0  0  0
  189.5140  176.5890  144.0410 C   0  0  2  0  0  3  0  0  0  0  0  0
  188.7570  177.5410  147.0400 C   0  0  0  0  0  2  0  0  0  0  0  0
  193.1760  175.6370  144.6640 C   0  0  0  0  0  2  0  0  0  0  0  0
  194.8400  175.9040  141.2260 C   0  0  0  0  0  2  0  0  0  0  0  0
  190.7540  176.3450  144.9010 C   0  0  1  0  0  3  0  0  0  0  0  0
  187.1270  176.3840  143.7410 C   0  0  0  0  0  2  0  0  0  0  0  0
  194.1590  175.0880  142.3290 C   0  0  2  0  0  3  0  0  0  0  0  0
  197.0380  175.8360  142.3380 N   0  0  0  0  0  2  0  0  0  0  0  0
  188.0320  176.5560  146.1280 C   0  0  2  0  0  3  0  0  0  0  0  0
  191.6610  175.3090  142.7420 C   0  0  0  0  0  0  0  0  0  0  0  0
  195.6230  175.1810  144.3240 N   0  0  0  0  0  0  0  0  0  0  0  0
  191.9540  176.1860  143.9470 C   0  0  2  0  0  3  0  0  0  0  0  0
  191.1650  173.7860  140.4990 C   0  0  0  0  0  3  0  0  0  0  0  0
  190.2420  177.2290  147.1670 C   0  0  0  0  0  2  0  0  0  0  0  0
  192.4420  174.0810  140.8520 N   0  0  0  0  0  0  0  0  0  0  0  0
  190.9900  177.4920  145.8690 C   0  0  0  0  0  2  0  0  0  0  0  0
  188.1860  177.0080  144.6660 C   0  0  1  0  0  3  0  0  0  0  0  0
  190.1260  174.2280  141.2550 N   0  0  0  0  0  0  0  0  0  0  0  0
  189.2120  175.3290  143.2840 C   0  0  2  0  0  3  0  0  0  0  0  0
  186.6290  176.5270  146.5110 N   0  0  0  0  0  2  0  0  0  0  0  0
  186.3870  177.7140  147.3150 C   0  0  0  0  0  2  0  0  0  0  0  0
  185.1060  179.7020  144.5570 N   0  0  0  0  0  2  0  0  0  0  0  0
  184.4420  177.7380  145.7700 C   0  0  0  0  0  2  0  0  0  0  0  0
  185.3110  178.5670  146.6710 C   0  0  2  0  0  3  0  0  0  0  0  0
  184.0680  178.6830  144.6570 C   0  0  0  0  0  2  0  0  0  0  0  0
  185.9410  179.5840  145.7490 C   0  0  0  0  0  2  0  0  0  0  0  0
  1 18  1  0  0  0  0
  1 27  1  0  0  0  0
  2 27  1  0  0  0  0
  2 14  1  0  0  0  0
  3  7  2  0  0  0  0
  3 19  1  0  0  0  0
  4 15  1  0  0  0  0
  4 18  2  0  0  0  0
  5 19  1  0  0  0  0
  5 11  1  1  0  0  0
  8 16  1  0  0  0  0
  9 25  1  0  0  0  0
  9 13  1  0  0  0  0
 10 22  1  0  0  0  0
 12  8  1  0  0  0  0
 12 15  1  0  0  0  0
 13 24  1  0  0  0  0
 14 25  1  0  0  0  0
 15  5  1  0  0  0  0
 16  3  1  0  0  0  0
 17 28  1  0  0  0  0
 17 10  1  0  0  0  0
 18 20  1  0  0  0  0
 19  6  1  0  0  0  0
 20 11  1  0  0  0  0
 20 13  1  0  0  0  0
 21 23  2  0  0  0  0
 21 26  1  0  0  0  0
 23  4  1  0  0  0  0
 24 22  1  0  0  0  0
 25 17  1  0  0  0  0
 26  1  2  0  0  0  0
 27  9  1  0  0  0  0
 28 29  1  0  0  0  0
 30 33  1  0  0  0  0
 30 34  1  0  0  0  0
 31 32  1  0  0  0  0
 32 29  1  0  0  0  0
 33 31  1  0  0  0  0
 34 32  1  0  0  0  0
M  END
>  <MODEL>
2

>  <REMARK>
 VINA RESULT:      -8.4      2.188      3.083
  Name = 
  3 active torsions:
  status: ('A' for Active; 'I' for Inactive)
    1  A    between atoms: C_17  and  N_28
    2  A    between atoms: N_28  and  C_29
    3  A    between atoms: C_29  and  C_32
                            x       y       z     vdW  Elec       q    Type
                         _______ _______ _______ _____ _____    ______ ____

>  <TORSDO>
F 3

$$$$
=
 OpenBabel11112417453D

 34 40  0  0  1  0  0  0  0  0999 V2000
  189.4260  177.0700  146.2540 C   0  0  0  0  0  0  0  0  0  0  0  0
  186.9330  177.6380  146.4080 C   0  0  0  0  0  2  0  0  0  0  0  0
  194.9870  174.6860  143.4590 C   0  0  0  0  0  0  0  0  0  0  0  0
  191.6480  176.1310  146.1020 C   0  0  0  0  0  0  0  0  0  0  0  0
  192.5340  175.2750  143.8220 C   0  0  2  0  0  3  0  0  0  0  0  0
  193.9230  176.4130  142.0170 C   0  0  0  0  0  1  0  0  0  0  0  0
  196.0830  174.9440  142.8950 O   0  0  0  0  0  0  0  0  0  0  0  0
  193.7730  173.1090  145.0840 C   0  0  0  0  0  2  0  0  0  0  0  0
  187.7920  176.5860  144.4760 C   0  0  2  0  0  3  0  0  0  0  0  0
  186.3710  177.0500  141.6050 C   0  0  0  0  0  2  0  0  0  0  0  0
  191.3970  176.1360  143.2500 C   0  0  0  0  0  2  0  0  0  0  0  0
  193.1130  174.1220  146.0170 C   0  0  0  0  0  2  0  0  0  0  0  0
  188.9090  176.5780  143.4320 C   0  0  1  0  0  3  0  0  0  0  0  0
  185.8060  177.6210  145.3790 C   0  0  0  0  0  2  0  0  0  0  0  0
  192.7640  175.4530  145.3430 C   0  0  2  0  0  3  0  0  0  0  0  0
  194.9700  173.6610  144.4640 N   0  0  0  0  0  2  0  0  0  0  0  0
  186.2750  177.8880  142.8770 C   0  0  2  0  0  3  0  0  0  0  0  0
  190.4110  176.4000  145.4970 C   0  0  0  0  0  0  0  0  0  0  0  0
  193.8040  175.4350  143.0960 N   0  0  0  0  0  0  0  0  0  0  0  0
  190.1430  175.9230  144.0800 C   0  0  2  0  0  3  0  0  0  0  0  0
  190.9020  177.1730  148.0970 C   0  0  0  0  0  3  0  0  0  0  0  0
  187.8130  176.7630  141.2080 C   0  0  0  0  0  2  0  0  0  0  0  0
  191.8600  176.5230  147.3870 N   0  0  0  0  0  0  0  0  0  0  0  0
  188.4920  175.8160  142.1840 C   0  0  0  0  0  2  0  0  0  0  0  0
  186.3600  176.9640  144.1030 C   0  0  1  0  0  3  0  0  0  0  0  0
  189.7020  177.4570  147.5260 N   0  0  0  0  0  0  0  0  0  0  0  0
  188.1780  177.5410  145.5680 C   0  0  2  0  0  3  0  0  0  0  0  0
  185.0060  178.5990  142.8590 N   0  0  0  0  0  2  0  0  0  0  0  0
  184.3680  178.2920  141.5890 C   0  0  0  0  0  2  0  0  0  0  0  0
  180.8910  179.2230  142.0840 N   0  0  0  0  0  2  0  0  0  0  0  0
  182.1600  177.9230  140.5120 C   0  0  0  0  0  2  0  0  0  0  0  0
  182.9100  177.9380  141.8130 C   0  0  2  0  0  3  0  0  0  0  0  0
  180.7790  178.4020  140.8840 C   0  0  0  0  0  2  0  0  0  0  0  0
  182.2340  179.0210  142.6200 C   0  0  0  0  0  2  0  0  0  0  0  0
  1 26  1  0  0  0  0
  3 16  1  0  0  0  0
  4 23  2  0  0  0  0
  5 11  1  6  0  0  0
  5 15  1  0  0  0  0
  6 19  1  0  0  0  0
  7  3  2  0  0  0  0
  8 12  1  0  0  0  0
  9 27  1  0  0  0  0
 10 17  1  0  0  0  0
 11 20  1  0  0  0  0
 13 20  1  0  0  0  0
 13  9  1  0  0  0  0
 14  2  1  0  0  0  0
 15 12  1  0  0  0  0
 15  4  1  0  0  0  0
 16  8  1  0  0  0  0
 17 25  1  0  0  0  0
 18  4  1  0  0  0  0
 18  1  2  0  0  0  0
 19  3  1  0  0  0  0
 19  5  1  0  0  0  0
 20 18  1  0  0  0  0
 22 10  1  0  0  0  0
 22 24  1  0  0  0  0
 23 21  1  0  0  0  0
 24 13  1  0  0  0  0
 25  9  1  0  0  0  0
 25 14  1  0  0  0  0
 26 21  2  0  0  0  0
 27  1  1  0  0  0  0
 27  2  1  0  0  0  0
 28 17  1  0  0  0  0
 29 32  1  0  0  0  0
 29 28  1  0  0  0  0
 30 34  1  0  0  0  0
 31 33  1  0  0  0  0
 31 32  1  0  0  0  0
 32 34  1  0  0  0  0
 33 30  1  0  0  0  0
M  END
>  <MODEL>
3

>  <REMARK>
 VINA RESULT:      -8.1      2.802      4.814
  Name = 
  3 active torsions:
  status: ('A' for Active; 'I' for Inactive)
    1  A    between atoms: C_17  and  N_28
    2  A    between atoms: N_28  and  C_29
    3  A    between atoms: C_29  and  C_32
                            x       y       z     vdW  Elec       q    Type
                         _______ _______ _______ _____ _____    ______ ____

>  <TORSDO>
F 3

$$$$
=
 OpenBabel11112417453D

 34 40  0  0  1  0  0  0  0  0999 V2000
  192.2070  176.1530  145.5780 C   0  0  0  0  0  0  0  0  0  0  0  0
  189.9210  176.4990  146.6810 C   0  0  0  0  0  2  0  0  0  0  0  0
  196.4930  174.0010  140.9500 C   0  0  0  0  0  0  0  0  0  0  0  0
  194.2940  175.4150  144.6100 C   0  0  0  0  0  0  0  0  0  0  0  0
  194.3220  174.3950  142.2270 C   0  0  2  0  0  3  0  0  0  0  0  0
  194.7350  175.4500  139.9460 C   0  0  0  0  0  1  0  0  0  0  0  0
  197.2380  174.2960  139.9780 O   0  0  0  0  0  0  0  0  0  0  0  0
  196.2270  172.5100  143.0250 C   0  0  0  0  0  2  0  0  0  0  0  0
  190.0860  175.3230  144.6400 C   0  0  2  0  0  3  0  0  0  0  0  0
  187.6090  175.3280  142.5570 C   0  0  0  0  0  2  0  0  0  0  0  0
  192.9510  175.0770  142.1040 C   0  0  0  0  0  2  0  0  0  0  0  0
  195.8580  173.5550  144.0760 C   0  0  0  0  0  2  0  0  0  0  0  0
  190.6970  175.3020  143.2390 C   0  0  1  0  0  3  0  0  0  0  0  0
  188.4940  176.2620  146.1940 C   0  0  0  0  0  2  0  0  0  0  0  0
  195.1030  174.7630  143.5130 C   0  0  2  0  0  3  0  0  0  0  0  0
  197.0040  173.0980  141.9430 N   0  0  0  0  0  2  0  0  0  0  0  0
  187.9090  176.2890  143.7020 C   0  0  2  0  0  3  0  0  0  0  0  0
  192.8960  175.4970  144.5360 C   0  0  0  0  0  0  0  0  0  0  0  0
  195.1760  174.5910  141.0430 N   0  0  0  0  0  0  0  0  0  0  0  0
  192.1600  174.8420  143.3790 C   0  0  2  0  0  3  0  0  0  0  0  0
  194.2580  176.5990  146.6640 C   0  0  0  0  0  3  0  0  0  0  0  0
  188.8060  175.1340  141.6340 C   0  0  0  0  0  2  0  0  0  0  0  0
  194.9390  175.9660  145.6730 N   0  0  0  0  0  0  0  0  0  0  0  0
  189.9300  174.3690  142.3160 C   0  0  0  0  0  2  0  0  0  0  0  0
  188.5870  175.5200  144.8490 C   0  0  1  0  0  3  0  0  0  0  0  0
  192.9050  176.7040  146.6050 N   0  0  0  0  0  0  0  0  0  0  0  0
  190.7400  176.4250  145.4200 C   0  0  2  0  0  3  0  0  0  0  0  0
  186.6530  176.8730  144.1480 N   0  0  0  0  0  2  0  0  0  0  0  0
  186.6690  178.2690  143.7420 C   0  0  0  0  0  2  0  0  0  0  0  0
  183.6750  178.7840  145.7350 N   0  0  0  0  0  2  0  0  0  0  0  0
  186.0440  178.6640  146.1140 C   0  0  0  0  0  2  0  0  0  0  0  0
  185.8230  179.0950  144.6930 C   0  0  2  0  0  3  0  0  0  0  0  0
  184.7010  178.8700  146.7680 C   0  0  0  0  0  2  0  0  0  0  0  0
  184.3570  178.8280  144.4460 C   0  0  0  0  0  2  0  0  0  0  0  0
  1 26  1  0  0  0  0
  3 19  1  0  0  0  0
  3 16  1  0  0  0  0
  4 23  2  0  0  0  0
  5 11  1  6  0  0  0
  5 15  1  0  0  0  0
  6 19  1  0  0  0  0
  7  3  2  0  0  0  0
  8 12  1  0  0  0  0
  9 25  1  0  0  0  0
  9 27  1  0  0  0  0
 10 17  1  0  0  0  0
 11 20  1  0  0  0  0
 13 20  1  0  0  0  0
 13  9  1  0  0  0  0
 14  2  1  0  0  0  0
 15 12  1  0  0  0  0
 15  4  1  0  0  0  0
 16  8  1  0  0  0  0
 17 28  1  0  0  0  0
 17 25  1  0  0  0  0
 18  4  1  0  0  0  0
 18  1  2  0  0  0  0
 19  5  1  0  0  0  0
 20 18  1  0  0  0  0
 22 24  1  0  0  0  0
 22 10  1  0  0  0  0
 23 21  1  0  0  0  0
 24 13  1  0  0  0  0
 25 14  1  0  0  0  0
 26 21  2  0  0  0  0
 27  1  1  0  0  0  0
 27  2  1  0  0  0  0
 29 28  1  0  0  0  0
 29 32  1  0  0  0  0
 30 33  1  0  0  0  0
 31 33  1  0  0  0  0
 32 31  1  0  0  0  0
 34 32  1  0  0  0  0
 34 30  1  0  0  0  0
M  END
>  <MODEL>
4

>  <REMARK>
 VINA RESULT:      -8.1      2.331      3.574
  Name = 
  3 active torsions:
  status: ('A' for Active; 'I' for Inactive)
    1  A    between atoms: C_17  and  N_28
    2  A    between atoms: N_28  and  C_29
    3  A    between atoms: C_29  and  C_32
                            x       y       z     vdW  Elec       q    Type
                         _______ _______ _______ _____ _____    ______ ____

>  <TORSDO>
F 3

$$$$
=
 OpenBabel11112417453D

 34 40  0  0  1  0  0  0  0  0999 V2000
  192.7300  175.3540  142.7430 C   0  0  0  0  0  0  0  0  0  0  0  0
  191.0280  177.2680  142.7800 C   0  0  0  0  0  2  0  0  0  0  0  0
  196.8620  170.8020  145.3180 C   0  0  0  0  0  0  0  0  0  0  0  0
  194.6010  173.8300  142.8800 C   0  0  0  0  0  0  0  0  0  0  0  0
  195.2130  172.7380  145.1500 C   0  0  2  0  0  3  0  0  0  0  0  0
  194.5460  170.5080  146.1830 C   0  0  0  0  0  1  0  0  0  0  0  0
  197.0710  169.5860  145.5740 O   0  0  0  0  0  0  0  0  0  0  0  0
  197.9360  173.0160  144.5820 C   0  0  0  0  0  2  0  0  0  0  0  0
  191.8710  176.3910  144.8050 C   0  0  2  0  0  3  0  0  0  0  0  0
  190.0760  176.5000  147.4950 C   0  0  0  0  0  2  0  0  0  0  0  0
  193.7850  173.1510  145.5390 C   0  0  0  0  0  2  0  0  0  0  0  0
  196.9870  173.4290  143.4590 C   0  0  0  0  0  2  0  0  0  0  0  0
  192.1960  175.1240  145.5960 C   0  0  1  0  0  3  0  0  0  0  0  0
  190.2210  177.9090  143.9070 C   0  0  0  0  0  2  0  0  0  0  0  0
  195.5480  172.9410  143.6510 C   0  0  2  0  0  3  0  0  0  0  0  0
  197.9410  171.5720  144.7670 N   0  0  0  0  0  2  0  0  0  0  0  0
  189.6390  176.6170  146.0380 C   0  0  2  0  0  3  0  0  0  0  0  0
  193.6040  174.5730  143.5300 C   0  0  0  0  0  0  0  0  0  0  0  0
  195.5530  171.3670  145.5630 N   0  0  0  0  0  0  0  0  0  0  0  0
  193.5210  174.5640  145.0460 C   0  0  2  0  0  3  0  0  0  0  0  0
  193.8380  174.6340  140.7830 C   0  0  0  0  0  3  0  0  0  0  0  0
  190.9520  175.2790  147.7420 C   0  0  0  0  0  2  0  0  0  0  0  0
  194.6930  173.8820  141.5230 N   0  0  0  0  0  0  0  0  0  0  0  0
  192.3150  175.4160  147.0830 C   0  0  0  0  0  2  0  0  0  0  0  0
  190.7410  177.3250  145.2320 C   0  0  1  0  0  3  0  0  0  0  0  0
  192.8560  175.3500  141.3910 N   0  0  0  0  0  0  0  0  0  0  0  0
  191.5410  175.9930  143.3960 C   0  0  2  0  0  3  0  0  0  0  0  0
  188.4010  177.3790  145.9930 N   0  0  0  0  0  2  0  0  0  0  0  0
  187.3120  176.4150  146.0020 C   0  0  0  0  0  2  0  0  0  0  0  0
  184.3570  178.5270  145.8940 N   0  0  0  0  0  2  0  0  0  0  0  0
  186.4270  178.3300  144.6890 C   0  0  0  0  0  2  0  0  0  0  0  0
  186.1060  176.9880  145.2830 C   0  0  2  0  0  3  0  0  0  0  0  0
  185.1290  179.0910  144.7930 C   0  0  0  0  0  2  0  0  0  0  0  0
  185.0010  177.2720  146.2720 C   0  0  0  0  0  2  0  0  0  0  0  0
  1 27  1  0  0  0  0
  1 18  1  0  0  0  0
  2 27  1  0  0  0  0
  2 14  1  0  0  0  0
  3 19  1  0  0  0  0
  3  7  2  0  0  0  0
  4 18  2  0  0  0  0
  4 15  1  0  0  0  0
  5 11  1  6  0  0  0
  5 19  1  0  0  0  0
  8 16  1  0  0  0  0
  9 25  1  0  0  0  0
  9 13  1  0  0  0  0
 10 22  1  0  0  0  0
 12 15  1  0  0  0  0
 12  8  1  0  0  0  0
 13 24  1  0  0  0  0
 14 25  1  0  0  0  0
 15  5  1  0  0  0  0
 16  3  1  0  0  0  0
 17 10  1  0  0  0  0
 18 20  1  0  0  0  0
 19  6  1  0  0  0  0
 20 11  1  0  0  0  0
 20 13  1  0  0  0  0
 21 26  1  0  0  0  0
 21 23  2  0  0  0  0
 23  4  1  0  0  0  0
 24 22  1  0  0  0  0
 25 17  1  0  0  0  0
 26  1  2  0  0  0  0
 27  9  1  0  0  0  0
 28 29  1  0  0  0  0
 28 17  1  0  0  0  0
 30 34  1  0  0  0  0
 31 33  1  0  0  0  0
 31 32  1  0  0  0  0
 32 29  1  0  0  0  0
 32 34  1  0  0  0  0
 33 30  1  0  0  0  0
M  END
>  <MODEL>
5

>  <REMARK>
 VINA RESULT:      -8.1      1.189      1.366
  Name = 
  3 active torsions:
  status: ('A' for Active; 'I' for Inactive)
    1  A    between atoms: C_17  and  N_28
    2  A    between atoms: N_28  and  C_29
    3  A    between atoms: C_29  and  C_32
                            x       y       z     vdW  Elec       q    Type
                         _______ _______ _______ _____ _____    ______ ____

>  <TORSDO>
F 3

$$$$
=
 OpenBabel11112417453D

 34 40  0  0  1  0  0  0  0  0999 V2000
  192.1680  175.8320  145.5380 C   0  0  0  0  0  0  0  0  0  0  0  0
  190.2100  177.3210  146.2520 C   0  0  0  0  0  2  0  0  0  0  0  0
  195.1660  170.7530  142.4330 C   0  0  0  0  0  0  0  0  0  0  0  0
  193.8180  174.1250  145.0860 C   0  0  0  0  0  0  0  0  0  0  0  0
  193.3430  172.3120  143.2960 C   0  0  2  0  0  3  0  0  0  0  0  0
  193.9300  172.1910  140.8210 C   0  0  0  0  0  1  0  0  0  0  0  0
  195.8990  170.3790  141.4800 O   0  0  0  0  0  0  0  0  0  0  0  0
  194.5580  170.3700  144.8990 C   0  0  0  0  0  2  0  0  0  0  0  0
  189.8340  175.4600  144.8460 C   0  0  2  0  0  3  0  0  0  0  0  0
  187.3670  175.4790  142.7520 C   0  0  0  0  0  2  0  0  0  0  0  0
  192.2740  173.3070  142.8190 C   0  0  0  0  0  2  0  0  0  0  0  0
  194.6310  171.7990  145.4320 C   0  0  0  0  0  2  0  0  0  0  0  0
  190.3070  174.6930  143.6110 C   0  0  1  0  0  3  0  0  0  0  0  0
  188.7560  177.4030  145.7930 C   0  0  0  0  0  2  0  0  0  0  0  0
  194.2870  172.8690  144.3900 C   0  0  2  0  0  3  0  0  0  0  0  0
  195.4110  170.1940  143.7330 N   0  0  0  0  0  2  0  0  0  0  0  0
  188.0480  176.6510  143.4520 C   0  0  2  0  0  3  0  0  0  0  0  0
  192.5260  174.6330  144.8850 C   0  0  0  0  0  0  0  0  0  0  0  0
  194.1310  171.7350  142.1940 N   0  0  0  0  0  0  0  0  0  0  0  0
  191.5380  173.8660  144.0250 C   0  0  2  0  0  3  0  0  0  0  0  0
  194.3200  175.9540  146.5100 C   0  0  0  0  0  3  0  0  0  0  0  0
  188.3640  174.5540  142.0660 C   0  0  0  0  0  2  0  0  0  0  0  0
  194.6810  174.7980  145.8950 N   0  0  0  0  0  0  0  0  0  0  0  0
  189.2110  173.7890  143.0700 C   0  0  0  0  0  2  0  0  0  0  0  0
  188.5050  176.2120  144.8530 C   0  0  1  0  0  3  0  0  0  0  0  0
  193.0780  176.4720  146.3170 N   0  0  0  0  0  0  0  0  0  0  0  0
  190.8700  176.4930  145.1810 C   0  0  2  0  0  3  0  0  0  0  0  0
  187.0920  177.7440  143.5440 N   0  0  0  0  0  2  0  0  0  0  0  0
  185.7760  177.1430  143.6820 C   0  0  0  0  0  2  0  0  0  0  0  0
  185.3610  177.8090  147.2300 N   0  0  0  0  0  2  0  0  0  0  0  0
  185.6580  179.0910  145.2200 C   0  0  0  0  0  2  0  0  0  0  0  0
  185.0350  177.7770  144.8440 C   0  0  2  0  0  3  0  0  0  0  0  0
  185.4670  179.1690  146.7140 C   0  0  0  0  0  2  0  0  0  0  0  0
  185.1870  176.9250  146.0820 C   0  0  0  0  0  2  0  0  0  0  0  0
  1 26  1  0  0  0  0
  3 16  1  0  0  0  0
  4 23  2  0  0  0  0
  5 11  1  6  0  0  0
  5 15  1  0  0  0  0
  6 19  1  0  0  0  0
  7  3  2  0  0  0  0
  8 12  1  0  0  0  0
  9 25  1  0  0  0  0
  9 27  1  0  0  0  0
 10 17  1  0  0  0  0
 11 20  1  0  0  0  0
 13 20  1  0  0  0  0
 13  9  1  0  0  0  0
 14  2  1  0  0  0  0
 15  4  1  0  0  0  0
 15 12  1  0  0  0  0
 16  8  1  0  0  0  0
 17 28  1  0  0  0  0
 17 25  1  0  0  0  0
 18  4  1  0  0  0  0
 18  1  2  0  0  0  0
 19  3  1  0  0  0  0
 19  5  1  0  0  0  0
 20 18  1  0  0  0  0
 22 10  1  0  0  0  0
 22 24  1  0  0  0  0
 23 21  1  0  0  0  0
 24 13  1  0  0  0  0
 25 14  1  0  0  0  0
 26 21  2  0  0  0  0
 27  1  1  0  0  0  0
 27  2  1  0  0  0  0
 28 29  1  0  0  0  0
 29 32  1  0  0  0  0
 31 33  1  0  0  0  0
 32 31  1  0  0  0  0
 32 34  1  0  0  0  0
 33 30  1  0  0  0  0
 34 30  1  0  0  0  0
M  END
>  <MODEL>
6

>  <REMARK>
 VINA RESULT:      -8.1      2.347      3.092
  Name = 
  3 active torsions:
  status: ('A' for Active; 'I' for Inactive)
    1  A    between atoms: C_17  and  N_28
    2  A    between atoms: N_28  and  C_29
    3  A    between atoms: C_29  and  C_32
                            x       y       z     vdW  Elec       q    Type
                         _______ _______ _______ _____ _____    ______ ____

>  <TORSDO>
F 3

$$$$
=
 OpenBabel11112417453D

 34 40  0  0  1  0  0  0  0  0999 V2000
  189.9470  175.8670  146.1950 C   0  0  0  0  0  0  0  0  0  0  0  0
  192.2350  175.4410  147.2650 C   0  0  0  0  0  2  0  0  0  0  0  0
  185.6860  177.9530  141.5140 C   0  0  0  0  0  0  0  0  0  0  0  0
  187.8900  176.6790  145.2220 C   0  0  0  0  0  0  0  0  0  0  0  0
  187.8610  177.5020  142.7640 C   0  0  2  0  0  3  0  0  0  0  0  0
  187.3020  176.3000  140.5890 C   0  0  0  0  0  1  0  0  0  0  0  0
  184.8910  177.6370  140.5890 O   0  0  0  0  0  0  0  0  0  0  0  0
  186.1240  179.5820  143.4500 C   0  0  0  0  0  2  0  0  0  0  0  0
  192.0920  176.4580  145.1380 C   0  0  2  0  0  3  0  0  0  0  0  0
  194.4960  176.1000  143.0010 C   0  0  0  0  0  2  0  0  0  0  0  0
  189.1750  176.7110  142.6630 C   0  0  0  0  0  2  0  0  0  0  0  0
  186.4490  178.6010  144.5750 C   0  0  0  0  0  2  0  0  0  0  0  0
  191.4410  176.4110  143.7560 C   0  0  1  0  0  3  0  0  0  0  0  0
  193.6600  175.5310  146.7240 C   0  0  0  0  0  2  0  0  0  0  0  0
  187.0960  177.2980  144.0950 C   0  0  2  0  0  3  0  0  0  0  0  0
  185.2730  178.9690  142.4400 N   0  0  0  0  0  2  0  0  0  0  0  0
  194.1630  175.2580  144.2300 C   0  0  2  0  0  3  0  0  0  0  0  0
  189.2760  176.4860  145.1190 C   0  0  0  0  0  0  0  0  0  0  0  0
  186.9590  177.2750  141.6230 N   0  0  0  0  0  0  0  0  0  0  0  0
  190.0200  176.9890  143.8950 C   0  0  2  0  0  3  0  0  0  0  0  0
  187.9040  175.6650  147.3650 C   0  0  0  0  0  3  0  0  0  0  0  0
  193.2890  176.3070  142.0960 C   0  0  0  0  0  2  0  0  0  0  0  0
  187.2400  176.2650  146.3430 N   0  0  0  0  0  0  0  0  0  0  0  0
  192.2450  177.2060  142.7400 C   0  0  0  0  0  2  0  0  0  0  0  0
  193.5790  176.1660  145.3250 C   0  0  1  0  0  3  0  0  0  0  0  0
  189.2430  175.4550  147.2810 N   0  0  0  0  0  0  0  0  0  0  0  0
  191.3850  175.4740  146.0230 C   0  0  2  0  0  3  0  0  0  0  0  0
  195.3870  174.6210  144.6900 N   0  0  0  0  0  2  0  0  0  0  0  0
  195.2860  173.2130  144.3410 C   0  0  0  0  0  2  0  0  0  0  0  0
  195.1980  170.0090  146.0520 N   0  0  0  0  0  2  0  0  0  0  0  0
  196.8190  171.7270  145.6120 C   0  0  0  0  0  2  0  0  0  0  0  0
  195.4560  172.3570  145.5820 C   0  0  2  0  0  3  0  0  0  0  0  0
  196.5870  170.3930  146.2760 C   0  0  0  0  0  2  0  0  0  0  0  0
  194.5050  171.1850  145.5350 C   0  0  0  0  0  2  0  0  0  0  0  0
  1 26  1  0  0  0  0
  3 19  1  0  0  0  0
  3 16  1  0  0  0  0
  4 23  2  0  0  0  0
  5 11  1  6  0  0  0
  5 15  1  0  0  0  0
  6 19  1  0  0  0  0
  7  3  2  0  0  0  0
  8 12  1  0  0  0  0
  9 25  1  0  0  0  0
  9 27  1  0  0  0  0
 10 17  1  0  0  0  0
 11 20  1  0  0  0  0
 13 20  1  0  0  0  0
 13  9  1  0  0  0  0
 14  2  1  0  0  0  0
 15 12  1  0  0  0  0
 15  4  1  0  0  0  0
 16  8  1  0  0  0  0
 17 28  1  0  0  0  0
 17 25  1  0  0  0  0
 18  4  1  0  0  0  0
 18  1  2  0  0  0  0
 19  5  1  0  0  0  0
 20 18  1  0  0  0  0
 22 24  1  0  0  0  0
 22 10  1  0  0  0  0
 23 21  1  0  0  0  0
 24 13  1  0  0  0  0
 25 14  1  0  0  0  0
 26 21  2  0  0  0  0
 27  1  1  0  0  0  0
 27  2  1  0  0  0  0
 29 28  1  0  0  0  0
 29 32  1  0  0  0  0
 30 33  1  0  0  0  0
 31 33  1  0  0  0  0
 32 31  1  0  0  0  0
 34 32  1  0  0  0  0
 34 30  1  0  0  0  0
M  END
>  <MODEL>
7

>  <REMARK>
 VINA RESULT:      -8.0      3.135      9.254
  Name = 
  3 active torsions:
  status: ('A' for Active; 'I' for Inactive)
    1  A    between atoms: C_17  and  N_28
    2  A    between atoms: N_28  and  C_29
    3  A    between atoms: C_29  and  C_32
                            x       y       z     vdW  Elec       q    Type
                         _______ _______ _______ _____ _____    ______ ____

>  <TORSDO>
F 3

$$$$
=
 OpenBabel11112417453D

 34 40  0  0  1  0  0  0  0  0999 V2000
  187.8560  175.9120  141.4800 C   0  0  0  0  0  0  0  0  0  0  0  0
  188.5700  174.2110  139.7020 C   0  0  0  0  0  2  0  0  0  0  0  0
  186.9360  178.2900  147.6380 C   0  0  0  0  0  0  0  0  0  0  0  0
  186.8970  177.2230  143.2690 C   0  0  0  0  0  0  0  0  0  0  0  0
  187.5300  176.7080  145.7290 C   0  0  2  0  0  3  0  0  0  0  0  0
  189.3210  177.6900  147.2510 C   0  0  0  0  0  1  0  0  0  0  0  0
  187.3220  179.0880  148.5330 O   0  0  0  0  0  0  0  0  0  0  0  0
  184.8960  177.1840  146.5370 C   0  0  0  0  0  2  0  0  0  0  0  0
  188.8400  173.7140  141.9950 C   0  0  2  0  0  3  0  0  0  0  0  0
  191.2010  171.7200  142.9570 C   0  0  0  0  0  2  0  0  0  0  0  0
  188.7190  175.9730  145.0900 C   0  0  0  0  0  2  0  0  0  0  0  0
  185.1900  177.4570  145.0630 C   0  0  0  0  0  2  0  0  0  0  0  0
  189.3180  174.2290  143.3520 C   0  0  1  0  0  3  0  0  0  0  0  0
  189.3690  172.9130  139.7790 C   0  0  0  0  0  2  0  0  0  0  0  0
  186.6830  177.5360  144.7310 C   0  0  2  0  0  3  0  0  0  0  0  0
  185.5260  178.1770  147.3960 N   0  0  0  0  0  2  0  0  0  0  0  0
  191.0640  172.4940  141.6490 C   0  0  2  0  0  3  0  0  0  0  0  0
  187.6660  176.1230  142.8620 C   0  0  0  0  0  0  0  0  0  0  0  0
  187.9160  177.5430  146.8790 N   0  0  0  0  0  0  0  0  0  0  0  0
  188.2250  175.1660  143.9010 C   0  0  2  0  0  3  0  0  0  0  0  0
  186.5630  177.8320  141.0020 C   0  0  0  0  0  3  0  0  0  0  0  0
  191.0120  172.6090  144.1790 C   0  0  0  0  0  2  0  0  0  0  0  0
  186.3630  178.0480  142.3280 N   0  0  0  0  0  0  0  0  0  0  0  0
  189.5740  173.0840  144.3190 C   0  0  0  0  0  2  0  0  0  0  0  0
  189.5770  172.5910  141.2680 C   0  0  1  0  0  3  0  0  0  0  0  0
  187.3170  176.7810  140.5860 N   0  0  0  0  0  0  0  0  0  0  0  0
  188.8320  174.8650  141.0330 C   0  0  2  0  0  3  0  0  0  0  0  0
  191.8120  171.7860  140.6210 N   0  0  0  0  0  2  0  0  0  0  0  0
  193.1200  172.4150  140.5430 C   0  0  0  0  0  2  0  0  0  0  0  0
  194.5200  175.2820  138.8030 N   0  0  0  0  0  2  0  0  0  0  0  0
  192.7400  173.7060  138.4540 C   0  0  0  0  0  2  0  0  0  0  0  0
  192.9950  173.7980  139.9310 C   0  0  2  0  0  3  0  0  0  0  0  0
  193.4440  174.9140  137.8890 C   0  0  0  0  0  2  0  0  0  0  0  0
  194.3110  174.5310  140.0380 C   0  0  0  0  0  2  0  0  0  0  0  0
  1 18  1  0  0  0  0
  2 14  1  0  0  0  0
  2 27  1  0  0  0  0
  3  7  2  0  0  0  0
  4 15  1  0  0  0  0
  5 11  1  6  0  0  0
  5 19  1  0  0  0  0
  8 16  1  0  0  0  0
  9 13  1  0  0  0  0
 10 22  1  0  0  0  0
 12  8  1  0  0  0  0
 13 20  1  0  0  0  0
 13 24  1  0  0  0  0
 14 25  1  0  0  0  0
 15 12  1  0  0  0  0
 15  5  1  0  0  0  0
 16  3  1  0  0  0  0
 17 10  1  0  0  0  0
 18  4  2  0  0  0  0
 18 20  1  0  0  0  0
 19  6  1  0  0  0  0
 19  3  1  0  0  0  0
 20 11  1  0  0  0  0
 21 23  2  0  0  0  0
 22 24  1  0  0  0  0
 23  4  1  0  0  0  0
 25 17  1  0  0  0  0
 25  9  1  0  0  0  0
 26 21  1  0  0  0  0
 26  1  2  0  0  0  0
 27  1  1  0  0  0  0
 27  9  1  0  0  0  0
 28 17  1  0  0  0  0
 29 28  1  0  0  0  0
 30 34  1  0  0  0  0
 31 32  1  0  0  0  0
 32 34  1  0  0  0  0
 32 29  1  0  0  0  0
 33 31  1  0  0  0  0
 33 30  1  0  0  0  0
M  END
>  <MODEL>
8

>  <REMARK>
 VINA RESULT:      -7.8      4.190      8.773
  Name = 
  3 active torsions:
  status: ('A' for Active; 'I' for Inactive)
    1  A    between atoms: C_17  and  N_28
    2  A    between atoms: N_28  and  C_29
    3  A    between atoms: C_29  and  C_32
                            x       y       z     vdW  Elec       q    Type
                         _______ _______ _______ _____ _____    ______ ____

>  <TORSDO>
F 3

$$$$
=
 OpenBabel11112417453D

 34 40  0  0  1  0  0  0  0  0999 V2000
  187.8280  175.9290  141.4730 C   0  0  0  0  0  0  0  0  0  0  0  0
  188.5770  174.2500  139.6890 C   0  0  0  0  0  2  0  0  0  0  0  0
  186.9010  178.2820  147.6400 C   0  0  0  0  0  0  0  0  0  0  0  0
  186.8470  177.2100  143.2720 C   0  0  0  0  0  0  0  0  0  0  0  0
  187.5240  176.7190  145.7250 C   0  0  2  0  0  3  0  0  0  0  0  0
  189.2990  177.7600  147.2260 C   0  0  0  0  0  1  0  0  0  0  0  0
  187.2700  179.0930  148.5300 O   0  0  0  0  0  0  0  0  0  0  0  0
  184.8860  177.1090  146.5630 C   0  0  0  0  0  2  0  0  0  0  0  0
  188.8890  173.7640  141.9790 C   0  0  2  0  0  3  0  0  0  0  0  0
  191.3240  171.8500  142.9160 C   0  0  0  0  0  2  0  0  0  0  0  0
  188.7290  176.0220  145.0740 C   0  0  0  0  0  2  0  0  0  0  0  0
  185.1530  177.3900  145.0860 C   0  0  0  0  0  2  0  0  0  0  0  0
  189.3650  174.2960  143.3310 C   0  0  1  0  0  3  0  0  0  0  0  0
  189.4190  172.9790  139.7570 C   0  0  0  0  0  2  0  0  0  0  0  0
  186.6400  177.5170  144.7370 C   0  0  2  0  0  3  0  0  0  0  0  0
  185.4920  178.1230  147.4140 N   0  0  0  0  0  2  0  0  0  0  0  0
  191.1480  172.6170  141.6090 C   0  0  2  0  0  3  0  0  0  0  0  0
  187.6470  176.1350  142.8580 C   0  0  0  0  0  0  0  0  0  0  0  0
  187.8950  177.5660  146.8710 N   0  0  0  0  0  0  0  0  0  0  0  0
  188.2490  175.1980  143.8910 C   0  0  2  0  0  3  0  0  0  0  0  0
  186.4680  177.8050  141.0080 C   0  0  0  0  0  3  0  0  0  0  0  0
  191.1200  172.7330  144.1390 C   0  0  0  0  0  2  0  0  0  0  0  0
  186.2760  178.0160  142.3360 N   0  0  0  0  0  0  0  0  0  0  0  0
  189.6700  173.1610  144.2950 C   0  0  0  0  0  2  0  0  0  0  0  0
  189.6540  172.6650  141.2450 C   0  0  1  0  0  3  0  0  0  0  0  0
  187.2510  176.7780  140.5850 N   0  0  0  0  0  0  0  0  0  0  0  0
  188.8330  174.9140  141.0160 C   0  0  2  0  0  3  0  0  0  0  0  0
  191.9060  171.9330  140.5730 N   0  0  0  0  0  2  0  0  0  0  0  0
  191.9070  170.5200  140.9140 C   0  0  0  0  0  2  0  0  0  0  0  0
  190.0680  169.1660  138.0870 N   0  0  0  0  0  2  0  0  0  0  0  0
  192.0110  170.5370  138.4310 C   0  0  0  0  0  2  0  0  0  0  0  0
  191.8240  169.6820  139.6520 C   0  0  2  0  0  3  0  0  0  0  0  0
  191.1310  169.8850  137.3950 C   0  0  0  0  0  2  0  0  0  0  0  0
  190.4340  169.1120  139.4990 C   0  0  0  0  0  2  0  0  0  0  0  0
  1 18  1  0  0  0  0
  2 14  1  0  0  0  0
  2 27  1  0  0  0  0
  3  7  2  0  0  0  0
  4 15  1  0  0  0  0
  5 11  1  6  0  0  0
  5 19  1  0  0  0  0
  8 16  1  0  0  0  0
  9 13  1  0  0  0  0
 10 22  1  0  0  0  0
 12  8  1  0  0  0  0
 13 20  1  0  0  0  0
 13 24  1  0  0  0  0
 14 25  1  0  0  0  0
 15 12  1  0  0  0  0
 15  5  1  0  0  0  0
 16  3  1  0  0  0  0
 17 10  1  0  0  0  0
 18  4  2  0  0  0  0
 18 20  1  0  0  0  0
 19  6  1  0  0  0  0
 19  3  1  0  0  0  0
 20 11  1  0  0  0  0
 21 23  2  0  0  0  0
 22 24  1  0  0  0  0
 23  4  1  0  0  0  0
 25 17  1  0  0  0  0
 25  9  1  0  0  0  0
 26 21  1  0  0  0  0
 26  1  2  0  0  0  0
 27  1  1  0  0  0  0
 27  9  1  0  0  0  0
 28 29  1  0  0  0  0
 28 17  1  0  0  0  0
 30 34  1  0  0  0  0
 31 32  1  0  0  0  0
 32 29  1  0  0  0  0
 33 30  1  0  0  0  0
 33 31  1  0  0  0  0
 34 32  1  0  0  0  0
M  END
>  <MODEL>
9

>  <REMARK>
 VINA RESULT:      -7.7      4.791      9.072
  Name = 
  3 active torsions:
  status: ('A' for Active; 'I' for Inactive)
    1  A    between atoms: C_17  and  N_28
    2  A    between atoms: N_28  and  C_29
    3  A    between atoms: C_29  and  C_32
                            x       y       z     vdW  Elec       q    Type
                         _______ _______ _______ _____ _____    ______ ____

>  <TORSDO>
F 3

$$$$
