=
 OpenBabel11112418063D

 34 40  0  0  1  0  0  0  0  0999 V2000
  189.6220  174.7370  142.7870 C   0  0  0  0  0  0  0  0  0  0  0  0
  191.8050  173.5030  143.0060 C   0  0  0  0  0  3  0  0  0  0  0  0
  184.9660  178.6180  145.5270 N   0  0  0  0  0  0  0  0  0  0  0  0
  187.5430  176.0190  142.7770 C   0  0  0  0  0  0  0  0  0  0  0  0
  186.4320  176.5750  144.9060 C   0  0  2  0  0  3  0  0  0  0  0  0
  184.6430  176.5090  146.4550 O   0  0  0  0  0  0  0  0  0  0  0  0
  183.8590  179.0840  146.1500 O   0  0  0  0  0  1  0  0  0  0  0  0
  185.9290  179.1010  143.3370 C   0  0  0  0  0  2  0  0  0  0  0  0
  190.8640  174.6820  144.8870 C   0  0  0  0  0  0  0  0  0  0  0  0
  192.6920  175.7900  147.2210 C   0  0  0  0  0  2  0  0  0  0  0  0
  187.7820  176.6790  145.6030 C   0  0  0  0  0  2  0  0  0  0  0  0
  187.0370  178.2560  143.2680 O   0  0  0  0  0  0  0  0  0  0  0  0
  189.9670  175.4200  145.5630 C   0  0  0  0  0  0  0  0  0  0  0  0
  192.7220  173.3290  144.2240 C   0  0  0  0  0  3  0  0  0  0  0  0
  186.5560  176.9480  143.4200 C   0  0  1  0  0  3  0  0  0  0  0  0
  185.7690  179.5680  144.7710 C   0  0  0  0  0  2  0  0  0  0  0  0
  193.0880  175.2520  145.8470 C   0  0  2  0  0  3  0  0  0  0  0  0
  188.6110  175.5730  143.4690 C   0  0  0  0  0  0  0  0  0  0  0  0
  185.3090  177.2280  145.6630 C   0  0  0  0  0  0  0  0  0  0  0  0
  188.7790  175.8790  144.8790 N   0  0  0  0  0  0  0  0  0  0  0  0
  188.2370  174.9760  140.7150 C   0  0  0  0  0  3  0  0  0  0  0  0
  191.4290  176.6390  147.1690 C   0  0  0  0  0  2  0  0  0  0  0  0
  187.4010  175.7170  141.3810 N   0  0  0  0  0  0  0  0  0  0  0  0
  190.1950  175.7630  147.0070 C   0  0  0  0  0  2  0  0  0  0  0  0
  192.1410  174.1230  145.4130 C   0  0  1  0  0  3  0  0  0  0  0  0
  189.4440  174.3400  141.3470 C   0  0  0  0  0  2  0  0  0  0  0  0
  190.6810  174.3320  143.4960 C   0  0  0  0  0  0  0  0  0  0  0  0
  194.4030  174.7840  145.9210 O   0  0  0  0  0  0  0  0  0  0  0  0
  195.1910  175.8670  145.5210 C   0  0  0  0  0  2  0  0  0  0  0  0
  196.1290  173.3860  142.7580 C   0  0  0  0  0  2  0  0  0  0  0  0
  195.3260  175.6500  143.0450 C   0  0  0  0  0  2  0  0  0  0  0  0
  196.0690  175.4660  144.3510 C   0  0  2  0  0  3  0  0  0  0  0  0
  195.9680  174.7130  142.0520 C   0  0  0  0  0  2  0  0  0  0  0  0
  196.5340  173.7140  144.5020 S   0  0  0  0  0  0  0  0  0  0  0  0
  1 18  1  0  0  0  0
  1 27  2  0  0  0  0
  2 27  1  0  0  0  0
  2 14  2  0  0  0  0
  3 19  1  0  0  0  0
  3  7  1  0  0  0  0
  4 18  2  0  0  0  0
  5 11  1  1  0  0  0
  5 19  1  0  0  0  0
  8 16  1  0  0  0  0
  9 25  1  0  0  0  0
  9 13  2  0  0  0  0
 12  8  1  0  0  0  0
 12 15  1  0  0  0  0
 13 24  1  0  0  0  0
 15  4  1  6  0  0  0
 15  5  1  0  0  0  0
 16  3  1  0  0  0  0
 17 28  1  1  0  0  0
 17 10  1  0  0  0  0
 18 20  1  0  0  0  0
 19  6  2  0  0  0  0
 20 13  1  0  0  0  0
 20 11  1  0  0  0  0
 21 26  1  0  0  0  0
 21 23  2  0  0  0  0
 22 10  1  0  0  0  0
 23  4  1  0  0  0  0
 24 22  1  0  0  0  0
 25 14  1  6  0  0  0
 25 17  1  0  0  0  0
 26  1  1  0  0  0  0
 27  9  1  0  0  0  0
 29 28  1  0  0  0  0
 30 34  1  0  0  0  0
 31 32  1  0  0  0  0
 32 34  1  0  0  0  0
 32 29  1  1  0  0  0
 33 30  1  0  0  0  0
 33 31  1  0  0  0  0
M  END
>  <MODEL>
1

>  <REMARK>
 VINA RESULT:      -8.2      0.000      0.000
  Name = 
  3 active torsions:
  status: ('A' for Active; 'I' for Inactive)
    1  A    between atoms: C_17  and  O_28
    2  A    between atoms: O_28  and  C_29
    3  A    between atoms: C_29  and  C_32
                            x       y       z     vdW  Elec       q    Type
                         _______ _______ _______ _____ _____    ______ ____

>  <TORSDO>
F 3

$$$$
=
 OpenBabel11112418063D

 34 40  0  0  1  0  0  0  0  0999 V2000
  191.0820  175.7140  145.1660 C   0  0  0  0  0  0  0  0  0  0  0  0
  192.7550  174.3310  143.8920 C   0  0  0  0  0  3  0  0  0  0  0  0
  184.9200  178.1690  145.6720 N   0  0  0  0  0  0  0  0  0  0  0  0
  189.3040  176.9870  146.2550 C   0  0  0  0  0  0  0  0  0  0  0  0
  187.3730  177.7730  144.9400 C   0  0  2  0  0  3  0  0  0  0  0  0
  185.9580  179.4320  144.0170 O   0  0  0  0  0  0  0  0  0  0  0  0
  183.8220  178.9590  145.6150 O   0  0  0  0  0  1  0  0  0  0  0  0
  186.0220  177.0430  147.5370 C   0  0  0  0  0  2  0  0  0  0  0  0
  190.5320  174.6780  143.0250 C   0  0  0  0  0  0  0  0  0  0  0  0
  189.1880  172.6000  141.0540 C   0  0  0  0  0  2  0  0  0  0  0  0
  187.4520  176.5370  144.0530 C   0  0  0  0  0  2  0  0  0  0  0  0
  187.1320  176.4360  146.9490 O   0  0  0  0  0  0  0  0  0  0  0  0
  189.2780  175.1590  142.9910 C   0  0  0  0  0  0  0  0  0  0  0  0
  192.6210  173.6200  142.5390 C   0  0  0  0  0  3  0  0  0  0  0  0
  187.8840  177.4610  146.3560 C   0  0  1  0  0  3  0  0  0  0  0  0
  184.8730  177.0060  146.5470 C   0  0  0  0  0  2  0  0  0  0  0  0
  190.4500  172.4590  141.9020 C   0  0  2  0  0  3  0  0  0  0  0  0
  189.7040  176.2520  145.1980 C   0  0  1  0  0  3  0  0  0  0  0  0
  186.0570  178.4960  144.8540 C   0  0  0  0  0  0  0  0  0  0  0  0
  188.8170  175.9950  144.0760 N   0  0  0  0  0  0  0  0  0  0  0  0
  191.4190  176.7950  147.3990 C   0  0  0  0  0  3  0  0  0  0  0  0
  188.0760  173.3400  141.7860 C   0  0  0  0  0  2  0  0  0  0  0  0
  190.1900  177.2190  147.3600 N   0  0  0  0  0  0  0  0  0  0  0  0
  188.3670  174.8330  141.8420 C   0  0  0  0  0  2  0  0  0  0  0  0
  191.1840  173.8050  142.0100 C   0  0  1  0  0  3  0  0  0  0  0  0
  192.0500  176.0200  146.2740 C   0  0  0  0  0  3  0  0  0  0  0  0
  191.4380  174.9690  144.1140 C   0  0  0  0  0  0  0  0  0  0  0  0
  191.2750  171.5000  141.3070 O   0  0  0  0  0  0  0  0  0  0  0  0
  190.9510  170.3020  141.9490 C   0  0  0  0  0  2  0  0  0  0  0  0
  194.6600  170.5200  142.8810 C   0  0  0  0  0  2  0  0  0  0  0  0
  192.4830  170.2880  143.9120 C   0  0  0  0  0  2  0  0  0  0  0  0
  192.1980  169.6840  142.5520 C   0  0  2  0  0  3  0  0  0  0  0  0
  193.9610  170.1080  144.1570 C   0  0  0  0  0  2  0  0  0  0  0  0
  193.6280  170.0030  141.4740 S   0  0  0  0  0  0  0  0  0  0  0  0
  1 26  1  0  0  0  0
  2 27  1  0  0  0  0
  3 16  1  0  0  0  0
  4 23  2  0  0  0  0
  5 11  1  6  0  0  0
  5 15  1  0  0  0  0
  6 19  2  0  0  0  0
  7  3  1  0  0  0  0
  9 27  1  0  0  0  0
 10 22  1  0  0  0  0
 10 17  1  0  0  0  0
 11 20  1  0  0  0  0
 12  8  1  0  0  0  0
 13  9  2  0  0  0  0
 13 20  1  0  0  0  0
 14  2  2  0  0  0  0
 15  4  1  6  0  0  0
 15 12  1  0  0  0  0
 16  8  1  0  0  0  0
 17 28  1  6  0  0  0
 17 25  1  0  0  0  0
 18  1  1  6  0  0  0
 18  4  1  0  0  0  0
 19  5  1  0  0  0  0
 19  3  1  0  0  0  0
 20 18  1  0  0  0  0
 22 24  1  0  0  0  0
 23 21  1  0  0  0  0
 24 13  1  0  0  0  0
 25 14  1  1  0  0  0
 25  9  1  0  0  0  0
 26 21  2  0  0  0  0
 27  1  2  0  0  0  0
 28 29  1  0  0  0  0
 30 33  1  0  0  0  0
 31 33  1  0  0  0  0
 32 29  1  6  0  0  0
 32 31  1  0  0  0  0
 34 32  1  0  0  0  0
 34 30  1  0  0  0  0
M  END
>  <MODEL>
2

>  <REMARK>
 VINA RESULT:      -7.9      2.343      4.600
  Name = 
  3 active torsions:
  status: ('A' for Active; 'I' for Inactive)
    1  A    between atoms: C_17  and  O_28
    2  A    between atoms: O_28  and  C_29
    3  A    between atoms: C_29  and  C_32
                            x       y       z     vdW  Elec       q    Type
                         _______ _______ _______ _____ _____    ______ ____

>  <TORSDO>
F 3

$$$$
=
 OpenBabel11112418063D

 34 40  0  0  1  0  0  0  0  0999 V2000
  191.1240  175.7680  145.0600 C   0  0  0  0  0  0  0  0  0  0  0  0
  192.7850  174.4690  143.6860 C   0  0  0  0  0  3  0  0  0  0  0  0
  184.9710  178.1950  145.7700 N   0  0  0  0  0  0  0  0  0  0  0  0
  189.3570  176.9700  146.2430 C   0  0  0  0  0  0  0  0  0  0  0  0
  187.4180  177.8440  144.9970 C   0  0  2  0  0  3  0  0  0  0  0  0
  186.0010  179.5630  144.1950 O   0  0  0  0  0  0  0  0  0  0  0  0
  183.8750  178.9890  145.7730 O   0  0  0  0  0  1  0  0  0  0  0  0
  186.0830  176.9470  147.5490 C   0  0  0  0  0  2  0  0  0  0  0  0
  190.5570  174.8770  142.8590 C   0  0  0  0  0  0  0  0  0  0  0  0
  189.1950  172.9360  140.7650 C   0  0  0  0  0  2  0  0  0  0  0  0
  187.4890  176.6700  144.0290 C   0  0  0  0  0  2  0  0  0  0  0  0
  187.1880  176.3780  146.9140 O   0  0  0  0  0  0  0  0  0  0  0  0
  189.3040  175.3610  142.8650 C   0  0  0  0  0  0  0  0  0  0  0  0
  192.6410  173.8490  142.2900 C   0  0  0  0  0  3  0  0  0  0  0  0
  187.9380  177.4380  146.3850 C   0  0  1  0  0  3  0  0  0  0  0  0
  184.9280  176.9770  146.5670 C   0  0  0  0  0  2  0  0  0  0  0  0
  190.4630  172.7370  141.5930 C   0  0  2  0  0  3  0  0  0  0  0  0
  189.7480  176.3060  145.1370 C   0  0  1  0  0  3  0  0  0  0  0  0
  186.1030  178.5730  144.9680 C   0  0  0  0  0  0  0  0  0  0  0  0
  188.8530  176.1240  144.0070 N   0  0  0  0  0  0  0  0  0  0  0  0
  191.4790  176.6980  147.3570 C   0  0  0  0  0  3  0  0  0  0  0  0
  188.0900  173.6280  141.5520 C   0  0  0  0  0  2  0  0  0  0  0  0
  190.2510  177.1260  147.3540 N   0  0  0  0  0  0  0  0  0  0  0  0
  188.3850  175.1140  141.7040 C   0  0  0  0  0  2  0  0  0  0  0  0
  191.2000  174.0720  141.7840 C   0  0  1  0  0  3  0  0  0  0  0  0
  192.1010  175.9980  146.1790 C   0  0  0  0  0  3  0  0  0  0  0  0
  191.4720  175.0940  143.9590 C   0  0  0  0  0  0  0  0  0  0  0  0
  191.2820  171.8180  140.9300 O   0  0  0  0  0  0  0  0  0  0  0  0
  191.0440  172.0430  139.5710 C   0  0  0  0  0  2  0  0  0  0  0  0
  190.7530  168.2480  139.1450 C   0  0  0  0  0  2  0  0  0  0  0  0
  190.0680  170.3070  138.0760 C   0  0  0  0  0  2  0  0  0  0  0  0
  191.3230  170.7790  138.7800 C   0  0  2  0  0  3  0  0  0  0  0  0
  190.2390  168.8260  137.8470 C   0  0  0  0  0  2  0  0  0  0  0  0
  191.8800  169.4610  139.9020 S   0  0  0  0  0  0  0  0  0  0  0  0
  1 26  1  0  0  0  0
  2 27  1  0  0  0  0
  3  7  1  0  0  0  0
  3 16  1  0  0  0  0
  4 23  2  0  0  0  0
  5 11  1  6  0  0  0
  5 15  1  0  0  0  0
  6 19  2  0  0  0  0
  9 13  2  0  0  0  0
  9 27  1  0  0  0  0
 10 22  1  0  0  0  0
 10 17  1  0  0  0  0
 12  8  1  0  0  0  0
 13 20  1  0  0  0  0
 14  2  2  0  0  0  0
 15  4  1  6  0  0  0
 15 12  1  0  0  0  0
 16  8  1  0  0  0  0
 17 28  1  6  0  0  0
 17 25  1  0  0  0  0
 18  1  1  6  0  0  0
 18  4  1  0  0  0  0
 19  5  1  0  0  0  0
 19  3  1  0  0  0  0
 20 11  1  0  0  0  0
 20 18  1  0  0  0  0
 22 24  1  0  0  0  0
 23 21  1  0  0  0  0
 24 13  1  0  0  0  0
 25 14  1  1  0  0  0
 25  9  1  0  0  0  0
 26 21  2  0  0  0  0
 27  1  2  0  0  0  0
 29 28  1  0  0  0  0
 30 34  1  0  0  0  0
 31 32  1  0  0  0  0
 32 29  1  1  0  0  0
 32 34  1  0  0  0  0
 33 31  1  0  0  0  0
 33 30  1  0  0  0  0
M  END
>  <MODEL>
3

>  <REMARK>
 VINA RESULT:      -7.8      3.011      5.271
  Name = 
  3 active torsions:
  status: ('A' for Active; 'I' for Inactive)
    1  A    between atoms: C_17  and  O_28
    2  A    between atoms: O_28  and  C_29
    3  A    between atoms: C_29  and  C_32
                            x       y       z     vdW  Elec       q    Type
                         _______ _______ _______ _____ _____    ______ ____

>  <TORSDO>
F 3

$$$$
=
 OpenBabel11112418063D

 34 40  0  0  1  0  0  0  0  0999 V2000
  191.7470  174.3650  142.6460 C   0  0  0  0  0  0  0  0  0  0  0  0
  190.1880  176.3400  142.5960 C   0  0  0  0  0  3  0  0  0  0  0  0
  195.9080  170.4710  146.0790 N   0  0  0  0  0  0  0  0  0  0  0  0
  193.2760  172.4790  142.9160 C   0  0  0  0  0  0  0  0  0  0  0  0
  194.8970  172.4670  144.7740 C   0  0  2  0  0  3  0  0  0  0  0  0
  197.0770  172.4460  145.6980 O   0  0  0  0  0  0  0  0  0  0  0  0
  197.0050  169.9050  146.6340 O   0  0  0  0  0  1  0  0  0  0  0  0
  194.1300  169.5510  144.6820 C   0  0  0  0  0  2  0  0  0  0  0  0
  191.4060  175.7860  144.6020 C   0  0  0  0  0  0  0  0  0  0  0  0
  190.3250  176.5920  147.4640 C   0  0  0  0  0  2  0  0  0  0  0  0
  193.9110  173.2160  145.6610 C   0  0  0  0  0  2  0  0  0  0  0  0
  193.3300  170.6570  144.3930 O   0  0  0  0  0  0  0  0  0  0  0  0
  192.2640  175.1060  145.3810 C   0  0  0  0  0  0  0  0  0  0  0  0
  189.8510  177.3590  143.6930 C   0  0  0  0  0  3  0  0  0  0  0  0
  194.1540  171.5930  143.7510 C   0  0  1  0  0  3  0  0  0  0  0  0
  194.6700  169.7040  146.0910 C   0  0  0  0  0  2  0  0  0  0  0  0
  189.6130  176.6170  146.1130 C   0  0  2  0  0  3  0  0  0  0  0  0
  192.6840  173.5610  143.4610 C   0  0  0  0  0  0  0  0  0  0  0  0
  196.0090  171.7990  145.5350 C   0  0  0  0  0  0  0  0  0  0  0  0
  192.9630  173.9680  144.8280 N   0  0  0  0  0  0  0  0  0  0  0  0
  192.1800  172.7480  140.7840 C   0  0  0  0  0  3  0  0  0  0  0  0
  191.2190  175.3700  147.6270 C   0  0  0  0  0  2  0  0  0  0  0  0
  192.9780  172.0850  141.5690 N   0  0  0  0  0  0  0  0  0  0  0  0
  192.4930  175.5200  146.8060 C   0  0  0  0  0  2  0  0  0  0  0  0
  190.5970  176.9740  144.9880 C   0  0  1  0  0  3  0  0  0  0  0  0
  191.4890  174.0160  141.2070 C   0  0  0  0  0  2  0  0  0  0  0  0
  191.1590  175.4170  143.2260 C   0  0  0  0  0  0  0  0  0  0  0  0
  188.5810  177.5590  146.1770 O   0  0  0  0  0  0  0  0  0  0  0  0
  187.4400  176.8170  146.4930 C   0  0  0  0  0  2  0  0  0  0  0  0
  184.3860  178.9660  145.6390 C   0  0  0  0  0  2  0  0  0  0  0  0
  186.6160  178.4810  144.8350 C   0  0  0  0  0  2  0  0  0  0  0  0
  186.3070  177.1850  145.5540 C   0  0  2  0  0  3  0  0  0  0  0  0
  185.2880  179.0720  144.4300 C   0  0  0  0  0  2  0  0  0  0  0  0
  184.7700  177.4090  146.5000 S   0  0  0  0  0  0  0  0  0  0  0  0
  1 27  2  0  0  0  0
  1 18  1  0  0  0  0
  2 27  1  0  0  0  0
  2 14  2  0  0  0  0
  3 16  1  0  0  0  0
  3  7  1  0  0  0  0
  4 18  2  0  0  0  0
  5 19  1  0  0  0  0
  5 11  1  1  0  0  0
  8 16  1  0  0  0  0
  9 25  1  0  0  0  0
  9 13  2  0  0  0  0
 10 22  1  0  0  0  0
 12  8  1  0  0  0  0
 13 24  1  0  0  0  0
 15  4  1  6  0  0  0
 15 12  1  0  0  0  0
 15  5  1  0  0  0  0
 17 28  1  1  0  0  0
 17 10  1  0  0  0  0
 18 20  1  0  0  0  0
 19  6  2  0  0  0  0
 19  3  1  0  0  0  0
 20 13  1  0  0  0  0
 20 11  1  0  0  0  0
 21 26  1  0  0  0  0
 21 23  2  0  0  0  0
 23  4  1  0  0  0  0
 24 22  1  0  0  0  0
 25 14  1  6  0  0  0
 25 17  1  0  0  0  0
 26  1  1  0  0  0  0
 27  9  1  0  0  0  0
 28 29  1  0  0  0  0
 30 34  1  0  0  0  0
 31 32  1  0  0  0  0
 32 29  1  1  0  0  0
 32 34  1  0  0  0  0
 33 31  1  0  0  0  0
 33 30  1  0  0  0  0
M  END
>  <MODEL>
4

>  <REMARK>
 VINA RESULT:      -7.8      3.754      8.449
  Name = 
  3 active torsions:
  status: ('A' for Active; 'I' for Inactive)
    1  A    between atoms: C_17  and  O_28
    2  A    between atoms: O_28  and  C_29
    3  A    between atoms: C_29  and  C_32
                            x       y       z     vdW  Elec       q    Type
                         _______ _______ _______ _____ _____    ______ ____

>  <TORSDO>
F 3

$$$$
=
 OpenBabel11112418063D

 34 40  0  0  1  0  0  0  0  0999 V2000
  190.9780  175.6870  145.0050 C   0  0  0  0  0  0  0  0  0  0  0  0
  192.6060  174.3000  143.6770 C   0  0  0  0  0  3  0  0  0  0  0  0
  184.8670  178.2320  145.6650 N   0  0  0  0  0  0  0  0  0  0  0  0
  189.2410  176.9680  146.1490 C   0  0  0  0  0  0  0  0  0  0  0  0
  187.3000  177.8090  144.8830 C   0  0  2  0  0  3  0  0  0  0  0  0
  185.8980  179.5080  144.0150 O   0  0  0  0  0  0  0  0  0  0  0  0
  183.7830  179.0410  145.6410 O   0  0  0  0  0  1  0  0  0  0  0  0
  185.9830  177.0540  147.4890 C   0  0  0  0  0  2  0  0  0  0  0  0
  190.3740  174.6990  142.8560 C   0  0  0  0  0  0  0  0  0  0  0  0
  188.9610  172.6800  140.8720 C   0  0  0  0  0  2  0  0  0  0  0  0
  187.3440  176.5900  143.9720 C   0  0  0  0  0  2  0  0  0  0  0  0
  187.0720  176.4400  146.8710 O   0  0  0  0  0  0  0  0  0  0  0  0
  189.1280  175.2010  142.8530 C   0  0  0  0  0  0  0  0  0  0  0  0
  192.4360  173.6160  142.3150 C   0  0  0  0  0  3  0  0  0  0  0  0
  187.8310  177.4630  146.2830 C   0  0  1  0  0  3  0  0  0  0  0  0
  184.8160  177.0540  146.5190 C   0  0  0  0  0  2  0  0  0  0  0  0
  190.2360  172.5030  141.6950 C   0  0  2  0  0  3  0  0  0  0  0  0
  189.6100  176.2470  145.0720 C   0  0  1  0  0  3  0  0  0  0  0  0
  185.9950  178.5550  144.8330 C   0  0  0  0  0  0  0  0  0  0  0  0
  188.7000  176.0240  143.9610 N   0  0  0  0  0  0  0  0  0  0  0  0
  191.3720  176.7200  147.2520 C   0  0  0  0  0  3  0  0  0  0  0  0
  187.8750  173.4240  141.6370 C   0  0  0  0  0  2  0  0  0  0  0  0
  190.1500  177.1650  147.2420 N   0  0  0  0  0  0  0  0  0  0  0  0
  188.1920  174.9110  141.7150 C   0  0  0  0  0  2  0  0  0  0  0  0
  190.9930  173.8350  141.8140 C   0  0  1  0  0  3  0  0  0  0  0  0
  191.9710  175.9560  146.1020 C   0  0  0  0  0  3  0  0  0  0  0  0
  191.3030  174.9550  143.9340 C   0  0  0  0  0  0  0  0  0  0  0  0
  191.0340  171.5420  141.0680 O   0  0  0  0  0  0  0  0  0  0  0  0
  190.5420  171.4650  139.7630 C   0  0  0  0  0  2  0  0  0  0  0  0
  193.4580  173.5290  138.3800 C   0  0  0  0  0  2  0  0  0  0  0  0
  193.0100  171.4020  139.4420 C   0  0  0  0  0  2  0  0  0  0  0  0
  191.6750  171.6490  138.7710 C   0  0  2  0  0  3  0  0  0  0  0  0
  194.0380  172.1580  138.6370 C   0  0  0  0  0  2  0  0  0  0  0  0
  191.6640  173.3500  138.1290 S   0  0  0  0  0  0  0  0  0  0  0  0
  1 26  1  0  0  0  0
  2 27  1  0  0  0  0
  3 16  1  0  0  0  0
  4 23  2  0  0  0  0
  5 11  1  6  0  0  0
  5 15  1  0  0  0  0
  6 19  2  0  0  0  0
  7  3  1  0  0  0  0
  9 27  1  0  0  0  0
 10 22  1  0  0  0  0
 10 17  1  0  0  0  0
 12  8  1  0  0  0  0
 13  9  2  0  0  0  0
 13 20  1  0  0  0  0
 14  2  2  0  0  0  0
 15  4  1  6  0  0  0
 15 12  1  0  0  0  0
 16  8  1  0  0  0  0
 17 28  1  6  0  0  0
 17 25  1  0  0  0  0
 18  1  1  6  0  0  0
 18  4  1  0  0  0  0
 19  5  1  0  0  0  0
 19  3  1  0  0  0  0
 20 11  1  0  0  0  0
 20 18  1  0  0  0  0
 22 24  1  0  0  0  0
 23 21  1  0  0  0  0
 24 13  1  0  0  0  0
 25 14  1  1  0  0  0
 25  9  1  0  0  0  0
 26 21  2  0  0  0  0
 27  1  2  0  0  0  0
 29 28  1  0  0  0  0
 30 33  1  0  0  0  0
 32 31  1  0  0  0  0
 32 29  1  1  0  0  0
 33 31  1  0  0  0  0
 34 30  1  0  0  0  0
 34 32  1  0  0  0  0
M  END
>  <MODEL>
5

>  <REMARK>
 VINA RESULT:      -7.8      2.749      4.827
  Name = 
  3 active torsions:
  status: ('A' for Active; 'I' for Inactive)
    1  A    between atoms: C_17  and  O_28
    2  A    between atoms: O_28  and  C_29
    3  A    between atoms: C_29  and  C_32
                            x       y       z     vdW  Elec       q    Type
                         _______ _______ _______ _____ _____    ______ ____

>  <TORSDO>
F 3

$$$$
=
 OpenBabel11112418063D

 34 40  0  0  1  0  0  0  0  0999 V2000
  189.9720  176.5210  146.5090 C   0  0  0  0  0  0  0  0  0  0  0  0
  187.5590  177.0540  146.0330 C   0  0  0  0  0  3  0  0  0  0  0  0
  195.5630  173.3610  144.7730 N   0  0  0  0  0  0  0  0  0  0  0  0
  192.3190  175.8980  146.7740 C   0  0  0  0  0  0  0  0  0  0  0  0
  193.1860  173.8740  145.6650 C   0  0  2  0  0  3  0  0  0  0  0  0
  194.1600  171.7160  145.6310 O   0  0  0  0  0  0  0  0  0  0  0  0
  196.5720  172.4670  144.6540 O   0  0  0  0  0  1  0  0  0  0  0  0
  195.5450  175.7290  145.3640 C   0  0  0  0  0  2  0  0  0  0  0  0
  188.7850  175.5350  144.6170 C   0  0  0  0  0  0  0  0  0  0  0  0
  187.9870  175.0960  141.5870 C   0  0  0  0  0  2  0  0  0  0  0  0
  192.2310  174.0840  144.4970 C   0  0  0  0  0  2  0  0  0  0  0  0
  194.1900  176.0600  145.3670 O   0  0  0  0  0  0  0  0  0  0  0  0
  189.8340  174.8090  144.1970 C   0  0  0  0  0  0  0  0  0  0  0  0
  186.6340  176.5350  144.9250 C   0  0  0  0  0  3  0  0  0  0  0  0
  193.5720  175.2180  146.3030 C   0  0  1  0  0  3  0  0  0  0  0  0
  195.7880  174.7090  144.2690 C   0  0  0  0  0  2  0  0  0  0  0  0
  187.5220  176.1700  142.5700 C   0  0  2  0  0  3  0  0  0  0  0  0
  191.1700  175.7650  146.0820 C   0  0  1  0  0  3  0  0  0  0  0  0
  194.3200  172.9350  145.3580 C   0  0  0  0  0  0  0  0  0  0  0  0
  191.0750  174.8770  144.9350 N   0  0  0  0  0  0  0  0  0  0  0  0
  191.3860  177.4750  148.3420 C   0  0  0  0  0  3  0  0  0  0  0  0
  189.4690  174.7790  141.7340 C   0  0  0  0  0  2  0  0  0  0  0  0
  192.3970  176.7900  147.8950 N   0  0  0  0  0  0  0  0  0  0  0  0
  189.7210  173.9390  142.9780 C   0  0  0  0  0  2  0  0  0  0  0  0
  187.4340  175.5990  143.9940 C   0  0  1  0  0  3  0  0  0  0  0  0
  190.0130  177.3940  147.7330 C   0  0  0  0  0  3  0  0  0  0  0  0
  188.8560  176.3850  145.7860 C   0  0  0  0  0  0  0  0  0  0  0  0
  186.2710  176.6350  142.1530 O   0  0  0  0  0  0  0  0  0  0  0  0
  186.5350  177.8590  141.5320 C   0  0  0  0  0  2  0  0  0  0  0  0
  184.0660  179.0350  144.2140 C   0  0  0  0  0  2  0  0  0  0  0  0
  186.3160  179.4530  143.4320 C   0  0  0  0  0  2  0  0  0  0  0  0
  185.6820  178.9490  142.1530 C   0  0  2  0  0  3  0  0  0  0  0  0
  185.1990  180.0340  144.2630 C   0  0  0  0  0  2  0  0  0  0  0  0
  184.0350  178.2910  142.5530 S   0  0  0  0  0  0  0  0  0  0  0  0
  1 26  1  0  0  0  0
  3 19  1  0  0  0  0
  4 23  2  0  0  0  0
  5 11  1  6  0  0  0
  5 15  1  0  0  0  0
  7  3  1  0  0  0  0
  8 12  1  0  0  0  0
  9 27  1  0  0  0  0
 10 22  1  0  0  0  0
 10 17  1  0  0  0  0
 11 20  1  0  0  0  0
 13  9  2  0  0  0  0
 13 20  1  0  0  0  0
 14  2  2  0  0  0  0
 15 12  1  6  0  0  0
 15  4  1  0  0  0  0
 16  3  1  0  0  0  0
 16  8  1  0  0  0  0
 17 28  1  6  0  0  0
 17 25  1  0  0  0  0
 18  1  1  1  0  0  0
 18  4  1  0  0  0  0
 19  6  2  0  0  0  0
 19  5  1  0  0  0  0
 20 18  1  0  0  0  0
 22 24  1  0  0  0  0
 23 21  1  0  0  0  0
 24 13  1  0  0  0  0
 25  9  1  0  0  0  0
 25 14  1  1  0  0  0
 26 21  2  0  0  0  0
 27  2  1  0  0  0  0
 27  1  2  0  0  0  0
 29 28  1  0  0  0  0
 30 33  1  0  0  0  0
 31 33  1  0  0  0  0
 32 29  1  1  0  0  0
 32 34  1  0  0  0  0
 32 31  1  0  0  0  0
 34 30  1  0  0  0  0
M  END
>  <MODEL>
6

>  <REMARK>
 VINA RESULT:      -7.7      3.235      8.509
  Name = 
  3 active torsions:
  status: ('A' for Active; 'I' for Inactive)
    1  A    between atoms: C_17  and  O_28
    2  A    between atoms: O_28  and  C_29
    3  A    between atoms: C_29  and  C_32
                            x       y       z     vdW  Elec       q    Type
                         _______ _______ _______ _____ _____    ______ ____

>  <TORSDO>
F 3

$$$$
=
 OpenBabel11112418063D

 34 40  0  0  1  0  0  0  0  0999 V2000
  192.2400  175.6570  145.5310 C   0  0  0  0  0  0  0  0  0  0  0  0
  190.3620  177.3250  145.6850 C   0  0  0  0  0  3  0  0  0  0  0  0
  194.5210  169.8330  143.2660 N   0  0  0  0  0  0  0  0  0  0  0  0
  193.9360  173.9230  145.2380 C   0  0  0  0  0  0  0  0  0  0  0  0
  193.2570  171.6300  144.6380 C   0  0  2  0  0  3  0  0  0  0  0  0
  193.0730  169.2990  145.0070 O   0  0  0  0  0  0  0  0  0  0  0  0
  194.8770  168.5330  143.1370 O   0  0  0  0  0  1  0  0  0  0  0  0
  195.7940  171.9020  143.0280 C   0  0  0  0  0  2  0  0  0  0  0  0
  190.0530  175.2290  144.5350 C   0  0  0  0  0  0  0  0  0  0  0  0
  187.9160  174.9150  142.2230 C   0  0  0  0  0  2  0  0  0  0  0  0
  192.0880  172.1700  143.8250 C   0  0  0  0  0  2  0  0  0  0  0  0
  194.8700  172.8980  143.3460 O   0  0  0  0  0  0  0  0  0  0  0  0
  190.3820  174.0120  144.0690 C   0  0  0  0  0  0  0  0  0  0  0  0
  188.9250  177.2440  145.1540 C   0  0  0  0  0  3  0  0  0  0  0  0
  194.4230  172.6320  144.6480 C   0  0  1  0  0  3  0  0  0  0  0  0
  195.0660  170.7840  142.3070 C   0  0  0  0  0  2  0  0  0  0  0  0
  188.4430  176.1820  142.8950 C   0  0  2  0  0  3  0  0  0  0  0  0
  192.6710  174.3360  145.0220 C   0  0  1  0  0  3  0  0  0  0  0  0
  193.6110  170.2040  144.3160 C   0  0  0  0  0  0  0  0  0  0  0  0
  191.7120  173.5020  144.3180 N   0  0  0  0  0  0  0  0  0  0  0  0
  194.5670  175.9320  146.4140 C   0  0  0  0  0  3  0  0  0  0  0  0
  189.0110  173.8810  141.9950 C   0  0  0  0  0  2  0  0  0  0  0  0
  194.8720  174.7670  145.9230 N   0  0  0  0  0  0  0  0  0  0  0  0
  189.3850  173.1940  143.3000 C   0  0  0  0  0  2  0  0  0  0  0  0
  188.7450  175.9220  144.3790 C   0  0  1  0  0  3  0  0  0  0  0  0
  193.1840  176.5170  146.3260 C   0  0  0  0  0  3  0  0  0  0  0  0
  190.9860  176.0460  145.2780 C   0  0  0  0  0  0  0  0  0  0  0  0
  187.4780  177.1850  142.7620 O   0  0  0  0  0  0  0  0  0  0  0  0
  186.2650  176.5540  143.0550 C   0  0  0  0  0  2  0  0  0  0  0  0
  185.4360  179.0410  145.8490 C   0  0  0  0  0  2  0  0  0  0  0  0
  185.7740  178.9620  143.4550 C   0  0  0  0  0  2  0  0  0  0  0  0
  185.3130  177.5410  143.7030 C   0  0  2  0  0  3  0  0  0  0  0  0
  185.1910  179.8010  144.5650 C   0  0  0  0  0  2  0  0  0  0  0  0
  185.2630  177.2630  145.5000 S   0  0  0  0  0  0  0  0  0  0  0  0
  1 26  1  0  0  0  0
  3 19  1  0  0  0  0
  4 23  2  0  0  0  0
  5 11  1  6  0  0  0
  5 15  1  0  0  0  0
  7  3  1  0  0  0  0
  8 12  1  0  0  0  0
  9 27  1  0  0  0  0
 10 17  1  0  0  0  0
 11 20  1  0  0  0  0
 13 20  1  0  0  0  0
 13  9  2  0  0  0  0
 14  2  2  0  0  0  0
 15 12  1  6  0  0  0
 15  4  1  0  0  0  0
 16  8  1  0  0  0  0
 16  3  1  0  0  0  0
 17 28  1  1  0  0  0
 17 25  1  0  0  0  0
 18  4  1  1  0  0  0
 18  1  1  0  0  0  0
 19  5  1  0  0  0  0
 19  6  2  0  0  0  0
 20 18  1  0  0  0  0
 22 10  1  0  0  0  0
 22 24  1  0  0  0  0
 23 21  1  0  0  0  0
 24 13  1  0  0  0  0
 25  9  1  0  0  0  0
 25 14  1  1  0  0  0
 26 21  2  0  0  0  0
 27  1  2  0  0  0  0
 27  2  1  0  0  0  0
 28 29  1  0  0  0  0
 31 32  1  0  0  0  0
 31 33  1  0  0  0  0
 32 29  1  6  0  0  0
 32 34  1  0  0  0  0
 33 30  1  0  0  0  0
 34 30  1  0  0  0  0
M  END
>  <MODEL>
7

>  <REMARK>
 VINA RESULT:      -7.7      3.496      8.747
  Name = 
  3 active torsions:
  status: ('A' for Active; 'I' for Inactive)
    1  A    between atoms: C_17  and  O_28
    2  A    between atoms: O_28  and  C_29
    3  A    between atoms: C_29  and  C_32
                            x       y       z     vdW  Elec       q    Type
                         _______ _______ _______ _____ _____    ______ ____

>  <TORSDO>
F 3

$$$$
=
 OpenBabel11112418063D

 34 40  0  0  1  0  0  0  0  0999 V2000
  190.9400  172.8430  143.6250 C   0  0  0  0  0  0  0  0  0  0  0  0
  193.0280  171.7460  144.5050 C   0  0  0  0  0  3  0  0  0  0  0  0
  186.9810  178.1810  143.3630 N   0  0  0  0  0  0  0  0  0  0  0  0
  188.9850  174.0950  142.8670 C   0  0  0  0  0  0  0  0  0  0  0  0
  188.1910  176.0360  144.1640 C   0  0  2  0  0  3  0  0  0  0  0  0
  186.6050  177.2310  145.4530 O   0  0  0  0  0  0  0  0  0  0  0  0
  185.9990  179.0880  143.5770 O   0  0  0  0  0  1  0  0  0  0  0  0
  187.7040  177.0070  141.3500 C   0  0  0  0  0  2  0  0  0  0  0  0
  192.4220  173.9740  145.2010 C   0  0  0  0  0  0  0  0  0  0  0  0
  194.6040  176.0490  146.1730 C   0  0  0  0  0  2  0  0  0  0  0  0
  189.6210  176.3720  144.5690 C   0  0  0  0  0  2  0  0  0  0  0  0
  188.7240  176.1690  141.8020 O   0  0  0  0  0  0  0  0  0  0  0  0
  191.6760  175.0900  145.2690 C   0  0  0  0  0  0  0  0  0  0  0  0
  194.0700  172.2670  145.5030 C   0  0  0  0  0  3  0  0  0  0  0  0
  188.1620  175.3480  142.7900 C   0  0  1  0  0  3  0  0  0  0  0  0
  187.7590  178.3010  142.1380 C   0  0  0  0  0  2  0  0  0  0  0  0
  194.7850  174.7070  145.4660 C   0  0  2  0  0  3  0  0  0  0  0  0
  190.0900  174.0530  143.6380 C   0  0  0  0  0  0  0  0  0  0  0  0
  187.2250  177.1720  144.3580 C   0  0  0  0  0  0  0  0  0  0  0  0
  190.4540  175.1650  144.5010 N   0  0  0  0  0  0  0  0  0  0  0  0
  189.3350  171.8900  141.9560 C   0  0  0  0  0  3  0  0  0  0  0  0
  193.4160  176.8340  145.6320 C   0  0  0  0  0  2  0  0  0  0  0  0
  188.6500  172.9930  142.0120 N   0  0  0  0  0  0  0  0  0  0  0  0
  192.1050  176.2430  146.1300 C   0  0  0  0  0  2  0  0  0  0  0  0
  193.7040  173.7100  145.9110 C   0  0  1  0  0  3  0  0  0  0  0  0
  190.5570  171.6450  142.8000 C   0  0  0  0  0  2  0  0  0  0  0  0
  192.0430  172.8430  144.3820 C   0  0  0  0  0  0  0  0  0  0  0  0
  196.0580  174.2160  145.7720 O   0  0  0  0  0  0  0  0  0  0  0  0
  196.8690  174.6430  144.7180 C   0  0  0  0  0  2  0  0  0  0  0  0
  196.7150  175.0690  140.9140 C   0  0  0  0  0  2  0  0  0  0  0  0
  196.5120  173.3600  142.6140 C   0  0  0  0  0  2  0  0  0  0  0  0
  196.0980  174.5780  143.4130 C   0  0  2  0  0  3  0  0  0  0  0  0
  196.2020  173.6700  141.1710 C   0  0  0  0  0  2  0  0  0  0  0  0
  196.4440  176.0590  142.4170 S   0  0  0  0  0  0  0  0  0  0  0  0
  1 18  1  0  0  0  0
  1 27  2  0  0  0  0
  2 14  2  0  0  0  0
  3  7  1  0  0  0  0
  3 19  1  0  0  0  0
  4 18  2  0  0  0  0
  5 19  1  0  0  0  0
  5 11  1  6  0  0  0
  8 12  1  0  0  0  0
  8 16  1  0  0  0  0
  9 13  2  0  0  0  0
  9 25  1  0  0  0  0
 13 24  1  0  0  0  0
 15 12  1  6  0  0  0
 15  4  1  0  0  0  0
 15  5  1  0  0  0  0
 16  3  1  0  0  0  0
 17 28  1  1  0  0  0
 17 25  1  0  0  0  0
 17 10  1  0  0  0  0
 18 20  1  0  0  0  0
 19  6  2  0  0  0  0
 20 11  1  0  0  0  0
 20 13  1  0  0  0  0
 21 23  2  0  0  0  0
 21 26  1  0  0  0  0
 22 24  1  0  0  0  0
 22 10  1  0  0  0  0
 23  4  1  0  0  0  0
 25 14  1  6  0  0  0
 26  1  1  0  0  0  0
 27  2  1  0  0  0  0
 27  9  1  0  0  0  0
 29 28  1  0  0  0  0
 30 33  1  0  0  0  0
 30 34  1  0  0  0  0
 31 32  1  0  0  0  0
 32 29  1  1  0  0  0
 33 31  1  0  0  0  0
 34 32  1  0  0  0  0
M  END
>  <MODEL>
8

>  <REMARK>
 VINA RESULT:      -7.7      1.785      2.483
  Name = 
  3 active torsions:
  status: ('A' for Active; 'I' for Inactive)
    1  A    between atoms: C_17  and  O_28
    2  A    between atoms: O_28  and  C_29
    3  A    between atoms: C_29  and  C_32
                            x       y       z     vdW  Elec       q    Type
                         _______ _______ _______ _____ _____    ______ ____

>  <TORSDO>
F 3

$$$$
=
 OpenBabel11112418063D

 34 40  0  0  1  0  0  0  0  0999 V2000
  192.3250  176.1430  145.5910 C   0  0  0  0  0  0  0  0  0  0  0  0
  190.0820  176.4880  146.6800 C   0  0  0  0  0  3  0  0  0  0  0  0
  195.8600  174.0740  140.3500 N   0  0  0  0  0  0  0  0  0  0  0  0
  194.3910  175.7490  144.3490 C   0  0  0  0  0  0  0  0  0  0  0  0
  194.4220  174.1140  142.5040 C   0  0  2  0  0  3  0  0  0  0  0  0
  195.1480  172.1370  141.4230 O   0  0  0  0  0  0  0  0  0  0  0  0
  196.5990  173.3450  139.4820 O   0  0  0  0  0  1  0  0  0  0  0  0
  196.2430  176.2470  141.3930 C   0  0  0  0  0  2  0  0  0  0  0  0
  190.2490  175.4490  144.5100 C   0  0  0  0  0  0  0  0  0  0  0  0
  187.8620  175.5700  142.4360 C   0  0  0  0  0  2  0  0  0  0  0  0
  192.9800  174.4560  142.1540 C   0  0  0  0  0  2  0  0  0  0  0  0
  195.1380  176.4140  142.2270 O   0  0  0  0  0  0  0  0  0  0  0  0
  190.8550  174.9510  143.4200 C   0  0  0  0  0  0  0  0  0  0  0  0
  188.6780  176.1120  146.1880 C   0  0  0  0  0  3  0  0  0  0  0  0
  195.1370  175.3300  143.1160 C   0  0  1  0  0  3  0  0  0  0  0  0
  195.7960  175.5140  140.1430 C   0  0  0  0  0  2  0  0  0  0  0  0
  188.0650  176.3530  143.7330 C   0  0  2  0  0  3  0  0  0  0  0  0
  193.0490  175.6350  144.4050 C   0  0  1  0  0  3  0  0  0  0  0  0
  195.1570  173.3960  141.4060 C   0  0  0  0  0  0  0  0  0  0  0  0
  192.2970  175.0030  143.3340 N   0  0  0  0  0  0  0  0  0  0  0  0
  194.5530  176.8450  146.4920 C   0  0  0  0  0  3  0  0  0  0  0  0
  189.1570  175.3980  141.6530 C   0  0  0  0  0  2  0  0  0  0  0  0
  195.1140  176.3880  145.4110 N   0  0  0  0  0  0  0  0  0  0  0  0
  190.0480  174.3500  142.3050 C   0  0  0  0  0  2  0  0  0  0  0  0
  188.7850  175.4890  144.7800 C   0  0  1  0  0  3  0  0  0  0  0  0
  193.0750  176.7380  146.7500 C   0  0  0  0  0  3  0  0  0  0  0  0
  190.9920  176.0370  145.6030 C   0  0  0  0  0  0  0  0  0  0  0  0
  186.8110  176.7510  144.2060 O   0  0  0  0  0  0  0  0  0  0  0  0
  186.6250  178.0350  143.6890 C   0  0  0  0  0  2  0  0  0  0  0  0
  184.0660  178.5270  146.4960 C   0  0  0  0  0  2  0  0  0  0  0  0
  186.4540  178.5750  146.1130 C   0  0  0  0  0  2  0  0  0  0  0  0
  185.9570  178.9190  144.7250 C   0  0  2  0  0  3  0  0  0  0  0  0
  185.3760  179.0120  147.0740 C   0  0  0  0  0  2  0  0  0  0  0  0
  184.1570  178.6650  144.6840 S   0  0  0  0  0  0  0  0  0  0  0  0
  1 27  2  0  0  0  0
  1 26  1  0  0  0  0
  3 19  1  0  0  0  0
  4 23  2  0  0  0  0
  5 11  1  6  0  0  0
  5 15  1  0  0  0  0
  7  3  1  0  0  0  0
  8 12  1  0  0  0  0
  9 25  1  0  0  0  0
  9 27  1  0  0  0  0
 10 17  1  0  0  0  0
 11 20  1  0  0  0  0
 13  9  2  0  0  0  0
 14  2  2  0  0  0  0
 15 12  1  6  0  0  0
 15  4  1  0  0  0  0
 16  3  1  0  0  0  0
 16  8  1  0  0  0  0
 17 28  1  1  0  0  0
 17 25  1  0  0  0  0
 18  4  1  1  0  0  0
 18  1  1  0  0  0  0
 19  6  2  0  0  0  0
 19  5  1  0  0  0  0
 20 13  1  0  0  0  0
 20 18  1  0  0  0  0
 21 26  2  0  0  0  0
 22 24  1  0  0  0  0
 22 10  1  0  0  0  0
 23 21  1  0  0  0  0
 24 13  1  0  0  0  0
 25 14  1  1  0  0  0
 27  2  1  0  0  0  0
 29 28  1  0  0  0  0
 30 33  1  0  0  0  0
 31 33  1  0  0  0  0
 32 29  1  6  0  0  0
 32 31  1  0  0  0  0
 34 32  1  0  0  0  0
 34 30  1  0  0  0  0
M  END
>  <MODEL>
9

>  <REMARK>
 VINA RESULT:      -7.6      3.652      8.766
  Name = 
  3 active torsions:
  status: ('A' for Active; 'I' for Inactive)
    1  A    between atoms: C_17  and  O_28
    2  A    between atoms: O_28  and  C_29
    3  A    between atoms: C_29  and  C_32
                            x       y       z     vdW  Elec       q    Type
                         _______ _______ _______ _____ _____    ______ ____

>  <TORSDO>
F 3

$$$$
