=
 OpenBabel11112416163D

 30 36  0  0  1  0  0  0  0  0999 V2000
  186.7540  176.9750  143.8740 C   0  0  1  0  0  3  0  0  0  0  0  0
  184.8680  178.3080  142.7610 C   0  0  0  0  0  0  0  0  0  0  0  0
  187.8830  175.4170  139.9870 C   0  0  0  0  0  2  0  0  0  0  0  0
  188.1170  176.3070  143.5560 C   0  0  1  0  0  3  0  0  0  0  0  0
  186.9640  177.9470  144.8650 O   0  0  0  0  0  0  0  0  0  0  0  0
  188.6440  175.7780  147.1300 O   0  0  0  0  0  0  0  0  0  0  0  0
  189.4790  173.4440  144.2270 C   0  0  1  0  0  3  0  0  0  0  0  0
  188.2060  176.2350  146.0380 C   0  0  0  0  0  0  0  0  0  0  0  0
  189.4090  173.2970  142.7070 C   0  0  2  0  0  3  0  0  0  0  0  0
  188.9020  174.4900  140.5440 C   0  0  0  0  0  0  0  0  0  0  0  0
  187.1820  177.2490  146.0200 N   0  0  0  0  0  0  0  0  0  0  0  0
  188.6640  175.7060  144.7800 N   0  0  0  0  0  0  0  0  0  0  0  0
  184.1800  178.6610  141.6440 N   0  0  0  0  0  0  0  0  0  0  0  0
  190.7860  172.8220  142.2930 C   0  0  0  0  0  2  0  0  0  0  0  0
  190.5310  172.4440  144.6840 C   0  0  0  0  0  2  0  0  0  0  0  0
  184.4610  178.6980  143.8870 O   0  0  0  0  0  0  0  0  0  0  0  0
  187.6280  176.2530  141.2150 C   0  0  2  0  0  3  0  0  0  0  0  0
  184.5670  178.2400  140.4120 C   0  0  0  0  0  3  0  0  0  0  0  0
  186.0150  177.5060  142.6490 C   0  0  2  0  0  3  0  0  0  0  0  0
  187.8750  175.3400  142.4020 C   0  0  1  0  0  3  0  0  0  0  0  0
  189.5880  173.7240  139.8180 O   0  0  0  0  0  0  0  0  0  0  0  0
  188.9890  174.5010  141.9760 N   0  0  0  0  0  0  0  0  0  0  0  0
  191.2610  171.9570  143.4420 C   0  0  0  0  0  2  0  0  0  0  0  0
  191.0310  175.5050  144.0910 C   0  0  0  0  0  1  0  0  0  0  0  0
  185.6550  177.4400  140.2750 N   0  0  0  0  0  0  0  0  0  0  0  0
  186.3630  177.0390  141.3630 C   0  0  0  0  0  0  0  0  0  0  0  0
  189.8340  174.8350  144.7600 C   0  0  2  0  0  3  0  0  0  0  0  0
  186.2070  177.3310  147.1040 C   0  0  0  0  0  3  0  0  0  0  0  0
  185.5020  178.6760  147.0680 C   0  0  0  0  0  2  0  0  0  0  0  0
  186.6060  178.4310  148.0720 C   0  0  0  0  0  2  0  0  0  0  0  0
  1  5  1  1  0  0  0
  2 16  2  0  0  0  0
  3 10  1  0  0  0  0
  4  1  1  0  0  0  0
  4 12  1  1  0  0  0
  5 11  1  0  0  0  0
  7 15  1  6  0  0  0
  7 27  1  0  0  0  0
  8  6  2  0  0  0  0
  9 14  1  6  0  0  0
  9  7  1  0  0  0  0
 10 22  1  0  0  0  0
 11  8  1  0  0  0  0
 11 28  1  0  0  0  0
 12  8  1  0  0  0  0
 13  2  1  0  0  0  0
 14 23  1  0  0  0  0
 17  3  1  6  0  0  0
 17 26  1  0  0  0  0
 17 20  1  0  0  0  0
 18 13  2  0  0  0  0
 19 26  1  6  0  0  0
 19  2  1  0  0  0  0
 19  1  1  0  0  0  0
 20 22  1  6  0  0  0
 20  4  1  0  0  0  0
 21 10  2  0  0  0  0
 22  9  1  0  0  0  0
 23 15  1  0  0  0  0
 25 18  1  0  0  0  0
 25 26  2  0  0  0  0
 27 24  1  6  0  0  0
 27 12  1  0  0  0  0
 28 30  1  0  0  0  0
 29 28  1  0  0  0  0
 29 30  1  0  0  0  0
M  END
>  <MODEL>
1

>  <REMARK>
 VINA RESULT:      -8.3      0.000      0.000
  Name = 
  1 active torsions:
  status: ('A' for Active; 'I' for Inactive)
    1  A    between atoms: N_11  and  C_28
                            x       y       z     vdW  Elec       q    Type
                         _______ _______ _______ _____ _____    ______ ____

>  <TORSDO>
F 1

$$$$
=
 OpenBabel11112416163D

 30 36  0  0  1  0  0  0  0  0999 V2000
  186.5620  177.2630  143.8120 C   0  0  1  0  0  3  0  0  0  0  0  0
  185.0110  178.5500  145.3960 C   0  0  0  0  0  0  0  0  0  0  0  0
  188.9100  175.9830  147.2270 C   0  0  0  0  0  2  0  0  0  0  0  0
  187.5700  176.0840  143.7950 C   0  0  1  0  0  3  0  0  0  0  0  0
  185.5270  176.9690  142.9100 O   0  0  0  0  0  0  0  0  0  0  0  0
  187.6600  176.2710  140.1500 O   0  0  0  0  0  0  0  0  0  0  0  0
  190.5360  175.6210  142.5740 C   0  0  1  0  0  3  0  0  0  0  0  0
  187.2840  176.4030  141.3470 C   0  0  0  0  0  0  0  0  0  0  0  0
  190.8910  175.4900  144.0560 C   0  0  2  0  0  3  0  0  0  0  0  0
  189.9530  175.3330  146.3910 C   0  0  0  0  0  0  0  0  0  0  0  0
  186.0750  177.1170  141.6670 N   0  0  0  0  0  0  0  0  0  0  0  0
  188.0900  175.9070  142.4320 N   0  0  0  0  0  0  0  0  0  0  0  0
  184.6800  178.9430  146.6550 N   0  0  0  0  0  2  0  0  0  0  0  0
  191.7310  174.2330  144.1500 C   0  0  0  0  0  2  0  0  0  0  0  0
  191.6720  174.9440  141.8230 C   0  0  0  0  0  2  0  0  0  0  0  0
  184.3710  179.0130  144.4160 O   0  0  0  0  0  0  0  0  0  0  0  0
  187.8610  176.2020  146.1660 C   0  0  2  0  0  3  0  0  0  0  0  0
  185.3610  178.4900  147.7390 C   0  0  0  0  0  3  0  0  0  0  0  0
  186.0650  177.6430  145.2040 C   0  0  0  0  0  0  0  0  0  0  0  0
  188.6170  176.3840  144.8630 C   0  0  1  0  0  3  0  0  0  0  0  0
  190.9590  174.7620  146.8890 O   0  0  0  0  0  0  0  0  0  0  0  0
  189.7470  175.4690  144.9790 N   0  0  0  0  0  0  0  0  0  0  0  0
  192.4980  174.1790  142.8460 C   0  0  0  0  0  2  0  0  0  0  0  0
  188.9380  173.5920  142.6390 C   0  0  0  0  0  1  0  0  0  0  0  0
  186.4030  177.6360  147.5820 N   0  0  0  0  0  0  0  0  0  0  0  0
  186.7900  177.2310  146.3440 C   0  0  0  0  0  0  0  0  0  0  0  0
  189.2020  175.0090  142.1380 C   0  0  2  0  0  3  0  0  0  0  0  0
  185.6040  178.1950  140.8000 C   0  0  0  0  0  3  0  0  0  0  0  0
  184.1040  178.3690  140.9540 C   0  0  0  0  0  2  0  0  0  0  0  0
  184.6570  177.6360  139.7530 C   0  0  0  0  0  2  0  0  0  0  0  0
  1  5  1  6  0  0  0
  1 19  1  0  0  0  0
  2 13  1  0  0  0  0
  4 12  1  6  0  0  0
  4  1  1  0  0  0  0
  4 20  1  0  0  0  0
  6  8  2  0  0  0  0
  7 15  1  6  0  0  0
  7  9  1  0  0  0  0
  8 11  1  0  0  0  0
  8 12  1  0  0  0  0
  9 14  1  6  0  0  0
  9 22  1  0  0  0  0
 10 21  2  0  0  0  0
 10  3  1  0  0  0  0
 11  5  1  0  0  0  0
 13 18  1  0  0  0  0
 15 23  1  0  0  0  0
 16  2  2  0  0  0  0
 17 26  1  0  0  0  0
 17  3  1  1  0  0  0
 19  2  1  0  0  0  0
 19 26  2  0  0  0  0
 20 22  1  1  0  0  0
 20 17  1  0  0  0  0
 22 10  1  0  0  0  0
 23 14  1  0  0  0  0
 25 18  2  0  0  0  0
 26 25  1  0  0  0  0
 27 12  1  0  0  0  0
 27  7  1  0  0  0  0
 27 24  1  1  0  0  0
 28 29  1  0  0  0  0
 28 11  1  0  0  0  0
 30 28  1  0  0  0  0
 30 29  1  0  0  0  0
M  END
>  <MODEL>
2

>  <REMARK>
 VINA RESULT:      -8.2      1.624      4.769
  Name = 
  1 active torsions:
  status: ('A' for Active; 'I' for Inactive)
    1  A    between atoms: N_11  and  C_28
                            x       y       z     vdW  Elec       q    Type
                         _______ _______ _______ _____ _____    ______ ____

>  <TORSDO>
F 1

$$$$
=
 OpenBabel11112416163D

 30 36  0  0  1  0  0  0  0  0999 V2000
  188.4500  175.5600  141.6060 C   0  0  1  0  0  3  0  0  0  0  0  0
  186.7190  176.8670  140.2410 C   0  0  0  0  0  0  0  0  0  0  0  0
  187.3630  177.8720  145.1110 C   0  0  0  0  0  2  0  0  0  0  0  0
  188.7930  175.1590  143.0650 C   0  0  1  0  0  3  0  0  0  0  0  0
  188.2680  174.3840  140.8610 O   0  0  0  0  0  0  0  0  0  0  0  0
  191.3600  172.8940  141.7970 O   0  0  0  0  0  0  0  0  0  0  0  0
  191.4840  175.1550  144.8710 C   0  0  1  0  0  3  0  0  0  0  0  0
  190.3400  173.6340  141.8590 C   0  0  0  0  0  0  0  0  0  0  0  0
  190.6890  176.1860  145.6730 C   0  0  2  0  0  3  0  0  0  0  0  0
  188.4380  177.2850  145.9540 C   0  0  0  0  0  0  0  0  0  0  0  0
  189.5190  173.8590  140.6960 N   0  0  0  0  0  0  0  0  0  0  0  0
  190.0080  174.3330  143.0730 N   0  0  0  0  0  0  0  0  0  0  0  0
  185.7670  177.8340  140.1680 N   0  0  0  0  0  2  0  0  0  0  0  0
  190.8200  175.7470  147.1170 C   0  0  0  0  0  2  0  0  0  0  0  0
  192.5570  174.6410  145.8190 C   0  0  0  0  0  2  0  0  0  0  0  0
  187.0830  176.2770  139.1890 O   0  0  0  0  0  0  0  0  0  0  0  0
  187.4320  176.9190  143.9450 C   0  0  2  0  0  3  0  0  0  0  0  0
  185.3640  178.5140  141.2730 C   0  0  0  0  0  3  0  0  0  0  0  0
  187.2920  176.5440  141.4820 C   0  0  0  0  0  0  0  0  0  0  0  0
  188.8740  176.4530  143.8690 C   0  0  1  0  0  3  0  0  0  0  0  0
  188.6150  177.6200  147.1540 O   0  0  0  0  0  0  0  0  0  0  0  0
  189.2880  176.3590  145.2650 N   0  0  0  0  0  0  0  0  0  0  0  0
  192.2000  175.1320  147.2130 C   0  0  0  0  0  2  0  0  0  0  0  0
  189.7520  173.2870  145.3000 C   0  0  0  0  0  1  0  0  0  0  0  0
  185.9210  178.2450  142.4810 N   0  0  0  0  0  0  0  0  0  0  0  0
  186.8940  177.3040  142.6030 C   0  0  0  0  0  0  0  0  0  0  0  0
  190.6910  173.9720  144.3100 C   0  0  2  0  0  3  0  0  0  0  0  0
  190.1050  173.8060  139.3590 C   0  0  0  0  0  3  0  0  0  0  0  0
  189.0310  173.4900  138.3330 C   0  0  0  0  0  2  0  0  0  0  0  0
  189.9740  172.4030  138.7960 C   0  0  0  0  0  2  0  0  0  0  0  0
  1  5  1  6  0  0  0
  1  4  1  0  0  0  0
  2 19  1  0  0  0  0
  3 10  1  0  0  0  0
  4 12  1  6  0  0  0
  4 20  1  0  0  0  0
  6  8  2  0  0  0  0
  7  9  1  0  0  0  0
  7 15  1  1  0  0  0
  8 12  1  0  0  0  0
  9 14  1  1  0  0  0
 10 21  2  0  0  0  0
 11  5  1  0  0  0  0
 11  8  1  0  0  0  0
 12 27  1  0  0  0  0
 13  2  1  0  0  0  0
 13 18  1  0  0  0  0
 14 23  1  0  0  0  0
 15 23  1  0  0  0  0
 16  2  2  0  0  0  0
 17  3  1  1  0  0  0
 18 25  2  0  0  0  0
 19  1  1  0  0  0  0
 19 26  2  0  0  0  0
 20 17  1  0  0  0  0
 20 22  1  1  0  0  0
 22  9  1  0  0  0  0
 22 10  1  0  0  0  0
 25 26  1  0  0  0  0
 26 17  1  0  0  0  0
 27  7  1  0  0  0  0
 27 24  1  1  0  0  0
 28 11  1  0  0  0  0
 29 30  1  0  0  0  0
 29 28  1  0  0  0  0
 30 28  1  0  0  0  0
M  END
>  <MODEL>
3

>  <REMARK>
 VINA RESULT:      -7.9      1.898      5.287
  Name = 
  1 active torsions:
  status: ('A' for Active; 'I' for Inactive)
    1  A    between atoms: N_11  and  C_28
                            x       y       z     vdW  Elec       q    Type
                         _______ _______ _______ _____ _____    ______ ____

>  <TORSDO>
F 1

$$$$
=
 OpenBabel11112416163D

 30 36  0  0  1  0  0  0  0  0999 V2000
  187.2340  177.0810  144.2530 C   0  0  1  0  0  3  0  0  0  0  0  0
  185.7140  178.4270  145.8170 C   0  0  0  0  0  0  0  0  0  0  0  0
  190.1840  176.8200  147.4220 C   0  0  0  0  0  2  0  0  0  0  0  0
  188.4100  176.0700  144.2790 C   0  0  1  0  0  3  0  0  0  0  0  0
  186.1520  176.4790  143.5900 O   0  0  0  0  0  0  0  0  0  0  0  0
  187.9920  175.5570  140.6880 O   0  0  0  0  0  0  0  0  0  0  0  0
  191.2270  175.7880  142.7020 C   0  0  1  0  0  3  0  0  0  0  0  0
  187.7590  175.8650  141.8890 C   0  0  0  0  0  0  0  0  0  0  0  0
  191.7880  175.9960  144.1090 C   0  0  2  0  0  3  0  0  0  0  0  0
  191.2020  176.1690  146.5550 C   0  0  0  0  0  0  0  0  0  0  0  0
  186.5010  176.4570  142.2690 N   0  0  0  0  0  0  0  0  0  0  0  0
  188.7690  175.7040  142.9020 N   0  0  0  0  0  0  0  0  0  0  0  0
  185.4890  179.0080  147.0260 N   0  0  0  0  0  2  0  0  0  0  0  0
  192.8270  174.9090  144.2840 C   0  0  0  0  0  2  0  0  0  0  0  0
  192.3510  175.1390  141.9080 C   0  0  0  0  0  2  0  0  0  0  0  0
  184.8840  178.5990  144.8860 O   0  0  0  0  0  0  0  0  0  0  0  0
  188.9850  176.6840  146.5180 C   0  0  2  0  0  3  0  0  0  0  0  0
  186.3710  178.8710  148.0500 C   0  0  0  0  0  3  0  0  0  0  0  0
  186.8670  177.6520  145.6190 C   0  0  0  0  0  0  0  0  0  0  0  0
  189.5240  176.7110  145.1000 C   0  0  1  0  0  3  0  0  0  0  0  0
  192.3430  175.8480  146.9770 O   0  0  0  0  0  0  0  0  0  0  0  0
  190.7930  175.9990  145.1910 N   0  0  0  0  0  0  0  0  0  0  0  0
  193.4160  174.7080  142.9030 C   0  0  0  0  0  2  0  0  0  0  0  0
  190.0050  173.6110  143.3670 C   0  0  0  0  0  1  0  0  0  0  0  0
  187.5090  178.1530  147.8790 N   0  0  0  0  0  0  0  0  0  0  0  0
  187.7910  177.5720  146.6830 C   0  0  0  0  0  0  0  0  0  0  0  0
  189.9650  174.9270  142.5950 C   0  0  2  0  0  3  0  0  0  0  0  0
  185.7520  177.2710  141.3150 C   0  0  0  0  0  3  0  0  0  0  0  0
  185.8660  178.7400  141.6840 C   0  0  0  0  0  2  0  0  0  0  0  0
  184.6090  177.9740  142.0260 C   0  0  0  0  0  2  0  0  0  0  0  0
  1  5  1  1  0  0  0
  1  4  1  0  0  0  0
  1 19  1  0  0  0  0
  2 13  1  0  0  0  0
  4 12  1  6  0  0  0
  4 20  1  0  0  0  0
  6  8  2  0  0  0  0
  7 15  1  6  0  0  0
  7  9  1  0  0  0  0
  8 11  1  0  0  0  0
  8 12  1  0  0  0  0
  9 14  1  1  0  0  0
  9 22  1  0  0  0  0
 10 21  2  0  0  0  0
 10  3  1  0  0  0  0
 11  5  1  0  0  0  0
 13 18  1  0  0  0  0
 15 23  1  0  0  0  0
 16  2  2  0  0  0  0
 17 26  1  0  0  0  0
 17  3  1  1  0  0  0
 19  2  1  0  0  0  0
 19 26  2  0  0  0  0
 20 22  1  1  0  0  0
 20 17  1  0  0  0  0
 22 10  1  0  0  0  0
 23 14  1  0  0  0  0
 25 18  2  0  0  0  0
 26 25  1  0  0  0  0
 27  7  1  0  0  0  0
 27 12  1  0  0  0  0
 27 24  1  1  0  0  0
 28 29  1  0  0  0  0
 28 30  1  0  0  0  0
 28 11  1  0  0  0  0
 29 30  1  0  0  0  0
M  END
>  <MODEL>
4

>  <REMARK>
 VINA RESULT:      -7.9      1.858      4.831
  Name = 
  1 active torsions:
  status: ('A' for Active; 'I' for Inactive)
    1  A    between atoms: N_11  and  C_28
                            x       y       z     vdW  Elec       q    Type
                         _______ _______ _______ _____ _____    ______ ____

>  <TORSDO>
F 1

$$$$
=
 OpenBabel11112416163D

 30 36  0  0  1  0  0  0  0  0999 V2000
  188.6540  175.5380  141.6280 C   0  0  1  0  0  3  0  0  0  0  0  0
  186.8240  177.1700  140.8830 C   0  0  0  0  0  0  0  0  0  0  0  0
  188.7710  177.5080  145.4910 C   0  0  0  0  0  2  0  0  0  0  0  0
  189.2910  174.9320  142.9060 C   0  0  1  0  0  3  0  0  0  0  0  0
  188.1440  174.4860  140.8520 O   0  0  0  0  0  0  0  0  0  0  0  0
  191.1520  172.5870  140.8160 O   0  0  0  0  0  0  0  0  0  0  0  0
  192.3200  174.4350  143.9460 C   0  0  1  0  0  3  0  0  0  0  0  0
  190.2830  173.4140  141.2070 C   0  0  0  0  0  0  0  0  0  0  0  0
  191.8870  175.4370  145.0170 C   0  0  2  0  0  3  0  0  0  0  0  0
  189.9350  176.7170  145.9700 C   0  0  0  0  0  0  0  0  0  0  0  0
  189.2370  173.8600  140.3220 N   0  0  0  0  0  0  0  0  0  0  0  0
  190.3530  173.9920  142.5240 N   0  0  0  0  0  0  0  0  0  0  0  0
  186.0160  178.2300  141.1470 N   0  0  0  0  0  2  0  0  0  0  0  0
  192.3110  174.8160  146.3310 C   0  0  0  0  0  2  0  0  0  0  0  0
  193.5170  173.7040  144.5340 C   0  0  0  0  0  2  0  0  0  0  0  0
  186.8380  176.6780  139.7230 O   0  0  0  0  0  0  0  0  0  0  0  0
  188.4270  176.7010  144.2650 C   0  0  2  0  0  3  0  0  0  0  0  0
  185.9890  178.8090  142.3750 C   0  0  0  0  0  3  0  0  0  0  0  0
  187.6380  176.6430  141.8980 C   0  0  0  0  0  0  0  0  0  0  0  0
  189.7340  176.1040  143.7760 C   0  0  1  0  0  3  0  0  0  0  0  0
  190.4440  176.8850  147.1090 O   0  0  0  0  0  0  0  0  0  0  0  0
  190.4630  175.7990  145.0020 N   0  0  0  0  0  0  0  0  0  0  0  0
  193.5810  174.0570  146.0110 C   0  0  0  0  0  2  0  0  0  0  0  0
  190.5210  172.7150  144.6370 C   0  0  0  0  0  1  0  0  0  0  0  0
  186.7860  178.3410  143.3680 N   0  0  0  0  0  0  0  0  0  0  0  0
  187.6290  177.2980  143.1480 C   0  0  0  0  0  0  0  0  0  0  0  0
  191.2670  173.4150  143.5040 C   0  0  2  0  0  3  0  0  0  0  0  0
  189.4640  173.9110  138.8800 C   0  0  0  0  0  3  0  0  0  0  0  0
  188.1380  173.8520  138.1420 C   0  0  0  0  0  2  0  0  0  0  0  0
  188.9990  172.6140  138.2410 C   0  0  0  0  0  2  0  0  0  0  0  0
  1  5  1  1  0  0  0
  1 19  1  0  0  0  0
  1  4  1  0  0  0  0
  2 13  1  0  0  0  0
  2 19  1  0  0  0  0
  3 10  1  0  0  0  0
  4 12  1  6  0  0  0
  4 20  1  0  0  0  0
  6  8  2  0  0  0  0
  7 15  1  1  0  0  0
  7  9  1  0  0  0  0
  8 12  1  0  0  0  0
  9 14  1  1  0  0  0
 10 21  2  0  0  0  0
 11  5  1  0  0  0  0
 11  8  1  0  0  0  0
 12 27  1  0  0  0  0
 13 18  1  0  0  0  0
 15 23  1  0  0  0  0
 16  2  2  0  0  0  0
 17  3  1  1  0  0  0
 18 25  2  0  0  0  0
 19 26  2  0  0  0  0
 20 17  1  0  0  0  0
 20 22  1  1  0  0  0
 22  9  1  0  0  0  0
 22 10  1  0  0  0  0
 23 14  1  0  0  0  0
 26 25  1  0  0  0  0
 26 17  1  0  0  0  0
 27  7  1  0  0  0  0
 27 24  1  1  0  0  0
 28 11  1  0  0  0  0
 29 30  1  0  0  0  0
 29 28  1  0  0  0  0
 30 28  1  0  0  0  0
M  END
>  <MODEL>
5

>  <REMARK>
 VINA RESULT:      -7.9      2.188      5.322
  Name = 
  1 active torsions:
  status: ('A' for Active; 'I' for Inactive)
    1  A    between atoms: N_11  and  C_28
                            x       y       z     vdW  Elec       q    Type
                         _______ _______ _______ _____ _____    ______ ____

>  <TORSDO>
F 1

$$$$
=
 OpenBabel11112416163D

 30 36  0  0  1  0  0  0  0  0999 V2000
  192.0310  175.3140  144.3500 C   0  0  1  0  0  3  0  0  0  0  0  0
  193.3840  174.4460  142.3530 C   0  0  0  0  0  0  0  0  0  0  0  0
  188.4080  174.9520  141.9920 C   0  0  0  0  0  2  0  0  0  0  0  0
  190.5960  175.3050  144.9380 C   0  0  1  0  0  3  0  0  0  0  0  0
  192.8940  174.7300  145.2900 O   0  0  0  0  0  0  0  0  0  0  0  0
  191.8910  176.7910  148.0110 O   0  0  0  0  0  0  0  0  0  0  0  0
  188.6180  177.5420  146.1960 C   0  0  1  0  0  3  0  0  0  0  0  0
  191.8300  176.1780  146.9100 C   0  0  0  0  0  0  0  0  0  0  0  0
  187.7790  177.1790  144.9700 C   0  0  2  0  0  3  0  0  0  0  0  0
  187.5520  175.5860  143.0290 C   0  0  0  0  0  0  0  0  0  0  0  0
  193.0210  175.6520  146.2910 N   0  0  0  0  0  0  0  0  0  0  0  0
  190.5820  176.0490  146.2040 N   0  0  0  0  0  0  0  0  0  0  0  0
  193.4310  174.0040  141.0690 N   0  0  0  0  0  0  0  0  0  0  0  0
  186.3780  176.9640  145.5010 C   0  0  0  0  0  2  0  0  0  0  0  0
  187.6500  178.1940  147.1720 C   0  0  0  0  0  2  0  0  0  0  0  0
  194.4590  174.6330  142.9820 O   0  0  0  0  0  0  0  0  0  0  0  0
  189.6510  174.7310  142.8160 C   0  0  2  0  0  3  0  0  0  0  0  0
  192.2980  173.8150  140.3440 C   0  0  0  0  0  3  0  0  0  0  0  0
  192.1430  174.6990  142.9580 C   0  0  2  0  0  3  0  0  0  0  0  0
  189.6710  175.8420  143.8510 C   0  0  1  0  0  3  0  0  0  0  0  0
  186.3160  175.7640  142.8690 O   0  0  0  0  0  0  0  0  0  0  0  0
  188.2650  176.0320  144.1910 N   0  0  0  0  0  0  0  0  0  0  0  0
  186.2440  177.9380  146.6530 C   0  0  0  0  0  2  0  0  0  0  0  0
  188.4860  175.1500  147.1620 C   0  0  0  0  0  1  0  0  0  0  0  0
  191.0860  174.0790  140.8920 N   0  0  0  0  0  0  0  0  0  0  0  0
  190.9850  174.5460  142.1640 C   0  0  0  0  0  0  0  0  0  0  0  0
  189.3400  176.3850  146.8920 C   0  0  2  0  0  3  0  0  0  0  0  0
  194.3140  176.2940  146.5160 C   0  0  0  0  0  3  0  0  0  0  0  0
  194.6800  177.1560  145.3200 C   0  0  0  0  0  2  0  0  0  0  0  0
  195.3190  175.7960  145.4930 C   0  0  0  0  0  2  0  0  0  0  0  0
  1  4  1  0  0  0  0
  1  5  1  1  0  0  0
  2 19  1  0  0  0  0
  2 16  2  0  0  0  0
  3 10  1  0  0  0  0
  4 12  1  1  0  0  0
  5 11  1  0  0  0  0
  7 27  1  0  0  0  0
  7 15  1  1  0  0  0
  8  6  2  0  0  0  0
  9 14  1  1  0  0  0
  9  7  1  0  0  0  0
 10 22  1  0  0  0  0
 11 28  1  0  0  0  0
 11  8  1  0  0  0  0
 12 27  1  0  0  0  0
 12  8  1  0  0  0  0
 13  2  1  0  0  0  0
 14 23  1  0  0  0  0
 17  3  1  6  0  0  0
 17 20  1  0  0  0  0
 18 25  1  0  0  0  0
 18 13  2  0  0  0  0
 19 26  1  6  0  0  0
 19  1  1  0  0  0  0
 20 22  1  1  0  0  0
 20  4  1  0  0  0  0
 21 10  2  0  0  0  0
 22  9  1  0  0  0  0
 23 15  1  0  0  0  0
 25 26  2  0  0  0  0
 26 17  1  0  0  0  0
 27 24  1  6  0  0  0
 29 30  1  0  0  0  0
 29 28  1  0  0  0  0
 30 28  1  0  0  0  0
M  END
>  <MODEL>
6

>  <REMARK>
 VINA RESULT:      -7.6      2.834      6.327
  Name = 
  1 active torsions:
  status: ('A' for Active; 'I' for Inactive)
    1  A    between atoms: N_11  and  C_28
                            x       y       z     vdW  Elec       q    Type
                         _______ _______ _______ _____ _____    ______ ____

>  <TORSDO>
F 1

$$$$
=
 OpenBabel11112416163D

 30 36  0  0  1  0  0  0  0  0999 V2000
  189.3770  175.7300  143.9590 C   0  0  1  0  0  3  0  0  0  0  0  0
  191.1940  174.7440  145.4740 C   0  0  0  0  0  0  0  0  0  0  0  0
  187.7690  177.8800  147.3660 C   0  0  0  0  0  2  0  0  0  0  0  0
  188.4010  176.9310  143.8610 C   0  0  1  0  0  3  0  0  0  0  0  0
  190.2160  175.7530  142.8340 O   0  0  0  0  0  0  0  0  0  0  0  0
  187.5870  175.9350  140.4440 O   0  0  0  0  0  0  0  0  0  0  0  0
  185.2580  177.2800  143.1520 C   0  0  1  0  0  3  0  0  0  0  0  0
  188.1910  176.0550  141.5450 C   0  0  0  0  0  0  0  0  0  0  0  0
  185.2060  177.7620  144.6030 C   0  0  2  0  0  3  0  0  0  0  0  0
  186.5890  178.3840  146.6170 C   0  0  0  0  0  0  0  0  0  0  0  0
  189.4310  175.3610  141.7860 N   0  0  0  0  0  0  0  0  0  0  0  0
  187.6230  176.8280  142.6180 N   0  0  0  0  0  0  0  0  0  0  0  0
  191.7630  174.6250  146.7030 N   0  0  0  0  0  2  0  0  0  0  0  0
  184.4170  179.0540  144.5610 C   0  0  0  0  0  2  0  0  0  0  0  0
  184.0040  177.8360  142.4940 C   0  0  0  0  0  2  0  0  0  0  0  0
  191.6210  174.0360  144.5250 O   0  0  0  0  0  0  0  0  0  0  0  0
  188.5840  177.3670  146.2060 C   0  0  2  0  0  3  0  0  0  0  0  0
  191.3160  175.3490  147.7620 C   0  0  0  0  0  3  0  0  0  0  0  0
  190.1340  175.6440  145.2810 C   0  0  0  0  0  0  0  0  0  0  0  0
  187.5820  176.9410  145.1480 C   0  0  1  0  0  3  0  0  0  0  0  0
  185.7090  179.1100  147.1500 O   0  0  0  0  0  0  0  0  0  0  0  0
  186.5100  177.9220  145.2610 N   0  0  0  0  0  0  0  0  0  0  0  0
  183.4070  178.8580  143.4500 C   0  0  0  0  0  2  0  0  0  0  0  0
  186.8630  179.1760  142.4400 C   0  0  0  0  0  1  0  0  0  0  0  0
  190.2750  176.2050  147.6120 N   0  0  0  0  0  0  0  0  0  0  0  0
  189.6560  176.3430  146.4100 C   0  0  0  0  0  0  0  0  0  0  0  0
  186.4870  177.6990  142.3410 C   0  0  2  0  0  3  0  0  0  0  0  0
  189.7060  174.0900  141.1200 C   0  0  0  0  0  3  0  0  0  0  0  0
  188.8320  172.9960  141.7060 C   0  0  0  0  0  2  0  0  0  0  0  0
  190.2820  173.1010  142.1170 C   0  0  0  0  0  2  0  0  0  0  0  0
  1  5  1  6  0  0  0
  1 19  1  0  0  0  0
  2 13  1  0  0  0  0
  4 12  1  6  0  0  0
  4  1  1  0  0  0  0
  4 20  1  0  0  0  0
  6  8  2  0  0  0  0
  7 15  1  6  0  0  0
  7  9  1  0  0  0  0
  8 11  1  0  0  0  0
  8 12  1  0  0  0  0
  9 14  1  6  0  0  0
  9 22  1  0  0  0  0
 10 21  2  0  0  0  0
 10  3  1  0  0  0  0
 11  5  1  0  0  0  0
 13 18  1  0  0  0  0
 15 23  1  0  0  0  0
 16  2  2  0  0  0  0
 17 26  1  0  0  0  0
 17  3  1  1  0  0  0
 19  2  1  0  0  0  0
 19 26  2  0  0  0  0
 20 22  1  6  0  0  0
 20 17  1  0  0  0  0
 22 10  1  0  0  0  0
 23 14  1  0  0  0  0
 25 18  2  0  0  0  0
 26 25  1  0  0  0  0
 27 24  1  1  0  0  0
 27 12  1  0  0  0  0
 27  7  1  0  0  0  0
 28 29  1  0  0  0  0
 28 11  1  0  0  0  0
 28 30  1  0  0  0  0
 29 30  1  0  0  0  0
M  END
>  <MODEL>
7

>  <REMARK>
 VINA RESULT:      -7.6      2.084      7.079
  Name = 
  1 active torsions:
  status: ('A' for Active; 'I' for Inactive)
    1  A    between atoms: N_11  and  C_28
                            x       y       z     vdW  Elec       q    Type
                         _______ _______ _______ _____ _____    ______ ____

>  <TORSDO>
F 1

$$$$
=
 OpenBabel11112416163D

 30 36  0  0  1  0  0  0  0  0999 V2000
  190.7580  173.7180  143.4660 C   0  0  1  0  0  3  0  0  0  0  0  0
  192.7650  172.1290  143.3350 C   0  0  0  0  0  0  0  0  0  0  0  0
  192.4050  175.4200  147.1000 C   0  0  0  0  0  2  0  0  0  0  0  0
  190.3260  175.0780  144.0750 C   0  0  1  0  0  3  0  0  0  0  0  0
  190.6330  173.8040  142.0710 O   0  0  0  0  0  0  0  0  0  0  0  0
  187.2640  174.9450  142.0920 O   0  0  0  0  0  0  0  0  0  0  0  0
  187.7250  176.1460  145.6860 C   0  0  1  0  0  3  0  0  0  0  0  0
  188.4390  174.7290  142.4960 C   0  0  0  0  0  0  0  0  0  0  0  0
  188.7580  176.3340  146.7970 C   0  0  2  0  0  3  0  0  0  0  0  0
  191.2160  176.2760  147.3550 C   0  0  0  0  0  0  0  0  0  0  0  0
  189.2890  173.7800  141.8230 N   0  0  0  0  0  0  0  0  0  0  0  0
  188.9410  175.3690  143.6840 N   0  0  0  0  0  0  0  0  0  0  0  0
  193.9330  171.6650  143.8530 N   0  0  0  0  0  2  0  0  0  0  0  0
  188.5210  177.7340  147.3230 C   0  0  0  0  0  2  0  0  0  0  0  0
  186.5580  177.0470  146.0590 C   0  0  0  0  0  2  0  0  0  0  0  0
  192.2620  171.5530  142.3340 O   0  0  0  0  0  0  0  0  0  0  0  0
  192.0940  175.0010  145.6860 C   0  0  2  0  0  3  0  0  0  0  0  0
  194.4980  172.2380  144.9470 C   0  0  0  0  0  3  0  0  0  0  0  0
  192.1300  173.2330  143.9250 C   0  0  0  0  0  0  0  0  0  0  0  0
  190.5800  174.9880  145.5770 C   0  0  1  0  0  3  0  0  0  0  0  0
  191.1320  177.0360  148.3560 O   0  0  0  0  0  0  0  0  0  0  0  0
  190.1560  176.1130  146.4030 N   0  0  0  0  0  0  0  0  0  0  0  0
  187.0300  177.9550  147.1840 C   0  0  0  0  0  2  0  0  0  0  0  0
  188.9220  177.8070  144.1100 C   0  0  0  0  0  1  0  0  0  0  0  0
  193.8920  173.2880  145.5570 N   0  0  0  0  0  0  0  0  0  0  0  0
  192.7110  173.7740  145.0930 C   0  0  0  0  0  0  0  0  0  0  0  0
  188.1890  176.4770  144.2650 C   0  0  2  0  0  3  0  0  0  0  0  0
  188.7090  172.6370  141.1230 C   0  0  0  0  0  3  0  0  0  0  0  0
  189.6480  172.1660  140.0270 C   0  0  0  0  0  2  0  0  0  0  0  0
  188.4400  173.0030  139.6750 C   0  0  0  0  0  2  0  0  0  0  0  0
  1  5  1  6  0  0  0
  1 19  1  0  0  0  0
  1  4  1  0  0  0  0
  2 13  1  0  0  0  0
  2 19  1  0  0  0  0
  3 10  1  0  0  0  0
  4 12  1  1  0  0  0
  4 20  1  0  0  0  0
  6  8  2  0  0  0  0
  7 15  1  1  0  0  0
  7  9  1  0  0  0  0
  8 12  1  0  0  0  0
  9 14  1  6  0  0  0
 10 21  2  0  0  0  0
 11  5  1  0  0  0  0
 11  8  1  0  0  0  0
 12 27  1  0  0  0  0
 13 18  1  0  0  0  0
 15 23  1  0  0  0  0
 16  2  2  0  0  0  0
 17  3  1  1  0  0  0
 18 25  2  0  0  0  0
 19 26  2  0  0  0  0
 20 17  1  0  0  0  0
 20 22  1  1  0  0  0
 22  9  1  0  0  0  0
 22 10  1  0  0  0  0
 23 14  1  0  0  0  0
 26 25  1  0  0  0  0
 26 17  1  0  0  0  0
 27 24  1  1  0  0  0
 27  7  1  0  0  0  0
 28 11  1  0  0  0  0
 29 28  1  0  0  0  0
 30 29  1  0  0  0  0
 30 28  1  0  0  0  0
M  END
>  <MODEL>
8

>  <REMARK>
 VINA RESULT:      -7.4      2.811      7.509
  Name = 
  1 active torsions:
  status: ('A' for Active; 'I' for Inactive)
    1  A    between atoms: N_11  and  C_28
                            x       y       z     vdW  Elec       q    Type
                         _______ _______ _______ _____ _____    ______ ____

>  <TORSDO>
F 1

$$$$
=
 OpenBabel11112416163D

 30 36  0  0  1  0  0  0  0  0999 V2000
  188.9960  176.1390  144.8290 C   0  0  1  0  0  3  0  0  0  0  0  0
  190.1590  176.9110  146.9790 C   0  0  0  0  0  0  0  0  0  0  0  0
  192.1930  173.2790  144.1840 C   0  0  0  0  0  2  0  0  0  0  0  0
  188.9110  174.9270  143.8650 C   0  0  1  0  0  3  0  0  0  0  0  0
  187.7120  176.3830  145.3410 O   0  0  0  0  0  0  0  0  0  0  0  0
  186.0950  176.5220  142.1760 O   0  0  0  0  0  0  0  0  0  0  0  0
  188.9810  174.5460  140.6480 C   0  0  1  0  0  3  0  0  0  0  0  0
  186.9550  176.2250  143.0490 C   0  0  0  0  0  0  0  0  0  0  0  0
  190.2670  173.7890  140.9820 C   0  0  2  0  0  3  0  0  0  0  0  0
  191.6860  172.8650  142.8490 C   0  0  0  0  0  0  0  0  0  0  0  0
  187.0040  176.9270  144.3070 N   0  0  0  0  0  0  0  0  0  0  0  0
  187.9590  175.2260  142.7870 N   0  0  0  0  0  0  0  0  0  0  0  0
  191.1970  176.8200  147.8520 N   0  0  0  0  0  0  0  0  0  0  0  0
  190.1690  172.4880  140.2140 C   0  0  0  0  0  2  0  0  0  0  0  0
  188.5700  174.0600  139.2660 C   0  0  0  0  0  2  0  0  0  0  0  0
  189.2950  177.8140  147.1390 O   0  0  0  0  0  0  0  0  0  0  0  0
  190.9910  174.0540  144.6620 C   0  0  2  0  0  3  0  0  0  0  0  0
  192.1650  175.8800  147.7020 C   0  0  0  0  0  3  0  0  0  0  0  0
  190.0660  176.0080  145.9080 C   0  0  2  0  0  3  0  0  0  0  0  0
  190.3360  174.6210  143.4150 C   0  0  1  0  0  3  0  0  0  0  0  0
  192.2700  172.0010  142.1430 O   0  0  0  0  0  0  0  0  0  0  0  0
  190.5200  173.5770  142.4130 N   0  0  0  0  0  0  0  0  0  0  0  0
  189.4190  172.8400  138.9460 C   0  0  0  0  0  2  0  0  0  0  0  0
  187.5110  172.9200  142.0130 C   0  0  0  0  0  1  0  0  0  0  0  0
  192.1190  175.0120  146.6600 N   0  0  0  0  0  0  0  0  0  0  0  0
  191.1150  175.0770  145.7470 C   0  0  0  0  0  0  0  0  0  0  0  0
  187.8130  174.3630  141.6200 C   0  0  2  0  0  3  0  0  0  0  0  0
  186.5610  178.3170  144.3930 C   0  0  0  0  0  3  0  0  0  0  0  0
  185.9830  178.5940  145.7690 C   0  0  0  0  0  2  0  0  0  0  0  0
  185.0570  178.3650  144.5970 C   0  0  0  0  0  2  0  0  0  0  0  0
  1  5  1  1  0  0  0
  1 19  1  0  0  0  0
  2 16  2  0  0  0  0
  2 13  1  0  0  0  0
  4 12  1  6  0  0  0
  4  1  1  0  0  0  0
  6  8  2  0  0  0  0
  7 15  1  6  0  0  0
  7  9  1  0  0  0  0
  7 27  1  0  0  0  0
  8 11  1  0  0  0  0
  9 14  1  6  0  0  0
  9 22  1  0  0  0  0
 10  3  1  0  0  0  0
 11 28  1  0  0  0  0
 11  5  1  0  0  0  0
 12  8  1  0  0  0  0
 17  3  1  6  0  0  0
 17 26  1  0  0  0  0
 18 13  2  0  0  0  0
 19 26  1  6  0  0  0
 19  2  1  0  0  0  0
 20 22  1  6  0  0  0
 20  4  1  0  0  0  0
 20 17  1  0  0  0  0
 21 10  2  0  0  0  0
 22 10  1  0  0  0  0
 23 15  1  0  0  0  0
 23 14  1  0  0  0  0
 25 18  1  0  0  0  0
 26 25  2  0  0  0  0
 27 24  1  1  0  0  0
 27 12  1  0  0  0  0
 28 30  1  0  0  0  0
 28 29  1  0  0  0  0
 30 29  1  0  0  0  0
M  END
>  <MODEL>
9

>  <REMARK>
 VINA RESULT:      -7.4      2.182      5.074
  Name = 
  1 active torsions:
  status: ('A' for Active; 'I' for Inactive)
    1  A    between atoms: N_11  and  C_28
                            x       y       z     vdW  Elec       q    Type
                         _______ _______ _______ _____ _____    ______ ____

>  <TORSDO>
F 1

$$$$
