=
 OpenBabel11112417423D

 28 32  0  0  1  0  0  0  0  0999 V2000
  186.7980  178.2270  144.8560 C   0  0  0  0  0  0  0  0  0  0  0  0
  190.0750  177.9560  145.2850 F   0  0  0  0  0  0  0  0  0  0  0  0
  187.8200  173.2170  141.6980 O   0  0  0  0  0  1  0  0  0  0  0  0
  185.3540  177.7130  147.2050 C   0  0  0  0  0  3  0  0  0  0  0  0
  189.7320  174.1970  142.7230 C   0  0  2  0  0  3  0  0  0  0  0  0
  187.5260  178.5370  143.6660 N   0  0  0  0  0  2  0  0  0  0  0  0
  189.3630  177.7390  147.4220 O   0  0  0  0  0  1  0  0  0  0  0  0
  190.0310  177.1030  146.3760 C   0  0  1  0  0  0  0  0  0  0  0  0
  192.1650  175.8010  146.1560 C   0  0  0  0  0  0  0  0  0  0  0  0
  189.3070  175.7830  146.0220 C   0  0  2  0  0  3  0  0  0  0  0  0
  186.7970  177.4780  140.1310 C   0  0  0  0  0  1  0  0  0  0  0  0
  188.4830  175.9880  143.7300 C   0  0  1  0  0  3  0  0  0  0  0  0
  191.5930  174.9250  145.3880 N   0  0  0  0  0  0  0  0  0  0  0  0
  191.3950  176.8180  146.7950 N   0  0  0  0  0  2  0  0  0  0  0  0
  187.2760  177.3120  141.5570 C   0  0  2  0  0  3  0  0  0  0  0  0
  187.0680  177.0540  145.6090 C   0  0  0  0  0  0  0  0  0  0  0  0
  188.4220  174.4380  142.0000 C   0  0  2  0  0  3  0  0  0  0  0  0
  193.5610  175.7090  146.4130 N   0  0  0  0  0  1  0  0  0  0  0  0
  186.6420  176.0470  142.1540 C   0  0  0  0  0  2  0  0  0  0  0  0
  186.3330  176.8140  146.7780 C   0  0  0  0  0  3  0  0  0  0  0  0
  185.8050  179.1150  145.2900 C   0  0  0  0  0  3  0  0  0  0  0  0
  185.0880  178.8620  146.4600 C   0  0  0  0  0  3  0  0  0  0  0  0
  186.8800  178.5500  142.3610 C   0  0  0  0  0  2  0  0  0  0  0  0
  189.8620  175.3600  143.6780 C   0  0  1  0  0  3  0  0  0  0  0  0
  187.5720  175.1930  142.9120 N   0  0  2  0  0  0  0  0  0  0  0  0
  190.1580  174.8980  145.0970 C   0  0  2  0  0  3  0  0  0  0  0  0
  190.8800  174.2100  141.7320 C   0  0  0  0  0  1  0  0  0  0  0  0
  188.0430  175.9750  145.1830 C   0  0  2  0  0  3  0  0  0  0  0  0
  1 21  2  0  0  0  0
  1 16  1  0  0  0  0
  3 17  1  0  0  0  0
  5 27  1  6  0  0  0
  5 24  1  0  0  0  0
  6  1  1  0  0  0  0
  8  2  1  6  0  0  0
  8 14  1  0  0  0  0
  8  7  1  0  0  0  0
  9 18  1  0  0  0  0
  9 14  1  0  0  0  0
 10  8  1  0  0  0  0
 11 15  1  0  0  0  0
 12 28  1  0  0  0  0
 13  9  2  0  0  0  0
 15 19  1  0  0  0  0
 15 23  1  0  0  0  0
 16 20  2  0  0  0  0
 17  5  1  0  0  0  0
 17 25  1  0  0  0  0
 19 25  1  0  0  0  0
 20  4  1  0  0  0  0
 21 22  1  0  0  0  0
 22  4  2  0  0  0  0
 23  6  1  0  0  0  0
 24 12  1  0  0  0  0
 24 26  1  0  0  0  0
 25 12  1  0  0  0  0
 26 13  1  0  0  0  0
 26 10  1  0  0  0  0
 28 16  1  0  0  0  0
 28 10  1  0  0  0  0
M  END
>  <MODEL>
1

>  <REMARK>
 VINA RESULT:      -9.3      0.000      0.000
  Name = 
  0 active torsions:
  status: ('A' for Active; 'I' for Inactive)
                            x       y       z     vdW  Elec       q    Type
                         _______ _______ _______ _____ _____    ______ ____

>  <TORSDO>
F 0

$$$$
=
 OpenBabel11112417423D

 28 32  0  0  1  0  0  0  0  0999 V2000
  190.4380  175.1860  143.7730 C   0  0  0  0  0  0  0  0  0  0  0  0
  188.6510  177.3190  141.9700 F   0  0  0  0  0  0  0  0  0  0  0  0
  186.1110  176.4810  147.7370 O   0  0  0  0  0  1  0  0  0  0  0  0
  190.2480  172.5510  142.8310 C   0  0  0  0  0  3  0  0  0  0  0  0
  185.9370  177.5720  145.6280 C   0  0  2  0  0  3  0  0  0  0  0  0
  190.5800  176.5320  144.2320 N   0  0  0  0  0  2  0  0  0  0  0  0
  188.4260  175.4420  140.7250 O   0  0  0  0  0  1  0  0  0  0  0  0
  187.7410  176.3990  141.4750 C   0  0  1  0  0  0  0  0  0  0  0  0
  185.6730  177.7800  141.1370 C   0  0  0  0  0  0  0  0  0  0  0  0
  186.9690  175.7060  142.6230 C   0  0  2  0  0  3  0  0  0  0  0  0
  190.5700  177.8160  147.7670 C   0  0  0  0  0  1  0  0  0  0  0  0
  187.9030  176.5170  144.7310 C   0  0  1  0  0  3  0  0  0  0  0  0
  185.2910  177.5710  142.3600 N   0  0  0  0  0  0  0  0  0  0  0  0
  186.8060  177.0950  140.6040 N   0  0  0  0  0  2  0  0  0  0  0  0
  189.9700  177.2740  146.4870 C   0  0  2  0  0  3  0  0  0  0  0  0
  189.1630  174.6170  143.5180 C   0  0  0  0  0  0  0  0  0  0  0  0
  186.8600  177.0860  146.7270 C   0  0  2  0  0  3  0  0  0  0  0  0
  184.9200  178.6500  140.3020 N   0  0  0  0  0  1  0  0  0  0  0  0
  189.0470  176.0950  146.8250 C   0  0  0  0  0  2  0  0  0  0  0  0
  189.0900  173.2980  143.0520 C   0  0  0  0  0  3  0  0  0  0  0  0
  191.5930  174.4220  143.5590 C   0  0  0  0  0  3  0  0  0  0  0  0
  191.5000  173.1120  143.0880 C   0  0  0  0  0  3  0  0  0  0  0  0
  191.1000  176.8330  145.5570 C   0  0  0  0  0  2  0  0  0  0  0  0
  186.7390  177.4150  144.3570 C   0  0  1  0  0  3  0  0  0  0  0  0
  187.7530  176.1070  146.1230 N   0  0  2  0  0  0  0  0  0  0  0  0
  185.9640  176.6590  143.2880 C   0  0  2  0  0  3  0  0  0  0  0  0
  185.5960  179.0330  145.8470 C   0  0  0  0  0  1  0  0  0  0  0  0
  187.8480  175.3110  143.8100 C   0  0  2  0  0  3  0  0  0  0  0  0
  1  6  1  0  0  0  0
  4 20  2  0  0  0  0
  4 22  1  0  0  0  0
  5 27  1  1  0  0  0
  5 17  1  0  0  0  0
  6 23  1  0  0  0  0
  8  7  1  6  0  0  0
  8  2  1  0  0  0  0
  8 10  1  0  0  0  0
  9 13  2  0  0  0  0
 10 26  1  0  0  0  0
 10 28  1  0  0  0  0
 12 25  1  0  0  0  0
 13 26  1  0  0  0  0
 14  9  1  0  0  0  0
 14  8  1  0  0  0  0
 15 19  1  0  0  0  0
 15 11  1  0  0  0  0
 16  1  2  0  0  0  0
 16 28  1  0  0  0  0
 17  3  1  0  0  0  0
 18  9  1  0  0  0  0
 20 16  1  0  0  0  0
 21  1  1  0  0  0  0
 22 21  2  0  0  0  0
 23 15  1  0  0  0  0
 24 12  1  0  0  0  0
 24  5  1  0  0  0  0
 25 17  1  0  0  0  0
 25 19  1  0  0  0  0
 26 24  1  0  0  0  0
 28 12  1  0  0  0  0
M  END
>  <MODEL>
2

>  <REMARK>
 VINA RESULT:      -8.4      2.004      6.321
  Name = 
  0 active torsions:
  status: ('A' for Active; 'I' for Inactive)
                            x       y       z     vdW  Elec       q    Type
                         _______ _______ _______ _____ _____    ______ ____

>  <TORSDO>
F 0

$$$$
=
 OpenBabel11112417423D

 28 32  0  0  1  0  0  0  0  0999 V2000
  190.9640  174.8170  142.0340 C   0  0  0  0  0  0  0  0  0  0  0  0
  188.6660  177.1870  141.7160 F   0  0  0  0  0  0  0  0  0  0  0  0
  188.6580  174.7420  147.5840 O   0  0  0  0  0  1  0  0  0  0  0  0
  190.3260  172.4940  140.5980 C   0  0  0  0  0  3  0  0  0  0  0  0
  187.6780  176.3070  146.0820 C   0  0  2  0  0  3  0  0  0  0  0  0
  191.3220  176.0130  142.7300 N   0  0  0  0  0  2  0  0  0  0  0  0
  187.8970  175.6690  140.2240 O   0  0  0  0  0  1  0  0  0  0  0  0
  187.6060  176.3520  141.4050 C   0  0  1  0  0  0  0  0  0  0  0  0
  185.6230  177.6090  142.2920 C   0  0  0  0  0  0  0  0  0  0  0  0
  187.3450  175.3370  142.5430 C   0  0  2  0  0  3  0  0  0  0  0  0
  192.7860  176.3680  146.1770 C   0  0  0  0  0  1  0  0  0  0  0  0
  189.0780  175.6660  144.2350 C   0  0  1  0  0  3  0  0  0  0  0  0
  185.7630  177.0720  143.4650 N   0  0  0  0  0  0  0  0  0  0  0  0
  186.4210  177.1680  141.1930 N   0  0  0  0  0  2  0  0  0  0  0  0
  191.7020  176.1190  145.1500 C   0  0  2  0  0  3  0  0  0  0  0  0
  189.6780  174.2320  142.1710 C   0  0  0  0  0  0  0  0  0  0  0  0
  188.9520  175.6350  146.5540 C   0  0  2  0  0  3  0  0  0  0  0  0
  184.6240  178.5990  142.0840 N   0  0  0  0  0  1  0  0  0  0  0  0
  190.9590  174.8240  145.5090 C   0  0  0  0  0  2  0  0  0  0  0  0
  189.3810  173.0700  141.4480 C   0  0  0  0  0  3  0  0  0  0  0  0
  191.9080  174.2230  141.1870 C   0  0  0  0  0  3  0  0  0  0  0  0
  191.5910  173.0690  140.4700 C   0  0  0  0  0  3  0  0  0  0  0  0
  192.3440  176.0130  143.7670 C   0  0  0  0  0  2  0  0  0  0  0  0
  187.8910  176.5350  144.6030 C   0  0  1  0  0  3  0  0  0  0  0  0
  189.4930  174.9100  145.4120 N   0  0  2  0  0  0  0  0  0  0  0  0
  186.7260  176.0120  143.7760 C   0  0  2  0  0  3  0  0  0  0  0  0
  187.5010  177.6360  146.7900 C   0  0  0  0  0  1  0  0  0  0  0  0
  188.6160  174.7270  143.1330 C   0  0  2  0  0  3  0  0  0  0  0  0
  1 16  1  0  0  0  0
  1  6  1  0  0  0  0
  4 20  1  0  0  0  0
  5 17  1  0  0  0  0
  5 27  1  1  0  0  0
  6 23  1  0  0  0  0
  8  7  1  6  0  0  0
  8  2  1  0  0  0  0
  8 10  1  0  0  0  0
  9 13  2  0  0  0  0
 10 28  1  0  0  0  0
 10 26  1  0  0  0  0
 12 24  1  0  0  0  0
 12 25  1  0  0  0  0
 13 26  1  0  0  0  0
 14  8  1  0  0  0  0
 14  9  1  0  0  0  0
 15 19  1  0  0  0  0
 15 11  1  0  0  0  0
 16 28  1  0  0  0  0
 17  3  1  0  0  0  0
 18  9  1  0  0  0  0
 20 16  2  0  0  0  0
 21  1  2  0  0  0  0
 22  4  2  0  0  0  0
 22 21  1  0  0  0  0
 23 15  1  0  0  0  0
 24  5  1  0  0  0  0
 25 19  1  0  0  0  0
 25 17  1  0  0  0  0
 26 24  1  0  0  0  0
 28 12  1  0  0  0  0
M  END
>  <MODEL>
3

>  <REMARK>
 VINA RESULT:      -8.2      2.089      6.418
  Name = 
  0 active torsions:
  status: ('A' for Active; 'I' for Inactive)
                            x       y       z     vdW  Elec       q    Type
                         _______ _______ _______ _____ _____    ______ ____

>  <TORSDO>
F 0

$$$$
=
 OpenBabel11112417423D

 28 32  0  0  1  0  0  0  0  0999 V2000
  190.5770  174.7450  144.4560 C   0  0  0  0  0  0  0  0  0  0  0  0
  187.9390  175.6720  146.2390 F   0  0  0  0  0  0  0  0  0  0  0  0
  187.4420  177.6150  140.2060 O   0  0  0  0  0  1  0  0  0  0  0  0
  192.9050  176.1390  145.1670 C   0  0  0  0  0  3  0  0  0  0  0  0
  186.4430  177.5660  142.3670 C   0  0  2  0  0  3  0  0  0  0  0  0
  189.4070  173.9960  144.1190 N   0  0  0  0  0  2  0  0  0  0  0  0
  189.5750  176.8140  147.3060 O   0  0  0  0  0  1  0  0  0  0  0  0
  188.3960  176.9370  146.5710 C   0  0  1  0  0  0  0  0  0  0  0  0
  186.2750  178.2550  146.8140 C   0  0  0  0  0  0  0  0  0  0  0  0
  188.6590  177.7840  145.3030 C   0  0  2  0  0  3  0  0  0  0  0  0
  188.1390  173.0410  140.7090 C   0  0  0  0  0  1  0  0  0  0  0  0
  188.2630  176.3500  143.3640 C   0  0  1  0  0  3  0  0  0  0  0  0
  186.2640  178.5390  145.5480 N   0  0  0  0  0  0  0  0  0  0  0  0
  187.3930  177.5880  147.3990 N   0  0  0  0  0  2  0  0  0  0  0  0
  188.4100  173.9620  141.8800 C   0  0  2  0  0  3  0  0  0  0  0  0
  190.5540  176.1630  144.5420 C   0  0  0  0  0  0  0  0  0  0  0  0
  187.2450  176.8080  141.3270 C   0  0  2  0  0  3  0  0  0  0  0  0
  185.1910  178.6660  147.6380 N   0  0  0  0  0  1  0  0  0  0  0  0
  189.0720  175.2470  141.3640 C   0  0  0  0  0  2  0  0  0  0  0  0
  191.7280  176.8390  144.8950 C   0  0  0  0  0  3  0  0  0  0  0  0
  191.7670  174.0550  144.7200 C   0  0  0  0  0  3  0  0  0  0  0  0
  192.9240  174.7470  145.0770 C   0  0  0  0  0  3  0  0  0  0  0  0
  189.3180  173.2430  142.8770 C   0  0  0  0  0  2  0  0  0  0  0  0
  186.9650  177.0630  143.6930 C   0  0  1  0  0  3  0  0  0  0  0  0
  188.5290  176.4900  141.9370 N   0  0  2  0  0  0  0  0  0  0  0  0
  187.3490  178.2070  144.6210 C   0  0  2  0  0  3  0  0  0  0  0  0
  184.9710  177.2310  142.2300 C   0  0  0  0  0  1  0  0  0  0  0  0
  189.3560  177.0180  144.1790 C   0  0  2  0  0  3  0  0  0  0  0  0
  1 16  2  0  0  0  0
  1 21  1  0  0  0  0
  3 17  1  0  0  0  0
  5 27  1  6  0  0  0
  5 24  1  0  0  0  0
  6  1  1  0  0  0  0
  8  2  1  6  0  0  0
  8  7  1  0  0  0  0
  8 14  1  0  0  0  0
  9 14  1  0  0  0  0
  9 18  1  0  0  0  0
 10  8  1  0  0  0  0
 11 15  1  0  0  0  0
 12 24  1  0  0  0  0
 12 28  1  0  0  0  0
 13  9  2  0  0  0  0
 15 23  1  0  0  0  0
 16 20  1  0  0  0  0
 17 25  1  0  0  0  0
 17  5  1  0  0  0  0
 19 15  1  0  0  0  0
 19 25  1  0  0  0  0
 20  4  2  0  0  0  0
 21 22  2  0  0  0  0
 22  4  1  0  0  0  0
 23  6  1  0  0  0  0
 24 26  1  0  0  0  0
 25 12  1  0  0  0  0
 26 10  1  0  0  0  0
 26 13  1  0  0  0  0
 28 16  1  0  0  0  0
 28 10  1  0  0  0  0
M  END
>  <MODEL>
4

>  <REMARK>
 VINA RESULT:      -8.0      2.123      5.043
  Name = 
  0 active torsions:
  status: ('A' for Active; 'I' for Inactive)
                            x       y       z     vdW  Elec       q    Type
                         _______ _______ _______ _____ _____    ______ ____

>  <TORSDO>
F 0

$$$$
=
 OpenBabel11112417423D

 28 32  0  0  1  0  0  0  0  0999 V2000
  188.6070  176.5870  144.6090 C   0  0  0  0  0  0  0  0  0  0  0  0
  191.9210  176.6430  144.6910 F   0  0  0  0  0  0  0  0  0  0  0  0
  189.7650  171.1510  142.3210 O   0  0  0  0  0  1  0  0  0  0  0  0
  187.4650  176.4300  147.1660 C   0  0  0  0  0  3  0  0  0  0  0  0
  191.6720  172.4470  142.9170 C   0  0  2  0  0  3  0  0  0  0  0  0
  189.1770  176.7150  143.3050 N   0  0  0  0  0  2  0  0  0  0  0  0
  191.4550  176.7880  146.9010 O   0  0  0  0  0  1  0  0  0  0  0  0
  192.0690  176.0140  145.9160 C   0  0  1  0  0  0  0  0  0  0  0  0
  194.2820  174.8530  145.6870 C   0  0  0  0  0  0  0  0  0  0  0  0
  191.4390  174.6010  145.8970 C   0  0  2  0  0  3  0  0  0  0  0  0
  188.1930  174.9470  140.1340 C   0  0  0  0  0  1  0  0  0  0  0  0
  190.3700  174.3020  143.7200 C   0  0  1  0  0  3  0  0  0  0  0  0
  193.7190  173.8060  145.1660 N   0  0  0  0  0  0  0  0  0  0  0  0
  193.4890  175.9150  146.2170 N   0  0  0  0  0  2  0  0  0  0  0  0
  188.8280  175.0930  141.5000 C   0  0  2  0  0  3  0  0  0  0  0  0
  189.0600  175.6030  145.5270 C   0  0  0  0  0  0  0  0  0  0  0  0
  190.2780  172.4490  142.3220 C   0  0  2  0  0  3  0  0  0  0  0  0
  195.6990  174.9140  145.7910 N   0  0  0  0  0  1  0  0  0  0  0  0
  188.3800  173.9230  142.3880 C   0  0  0  0  0  2  0  0  0  0  0  0
  188.4750  175.5390  146.7970 C   0  0  0  0  0  3  0  0  0  0  0  0
  187.5840  177.4670  144.9870 C   0  0  0  0  0  3  0  0  0  0  0  0
  187.0180  177.3920  146.2600 C   0  0  0  0  0  3  0  0  0  0  0  0
  188.4030  176.4300  142.1050 C   0  0  0  0  0  2  0  0  0  0  0  0
  191.7890  173.7780  143.6210 C   0  0  1  0  0  3  0  0  0  0  0  0
  189.4590  173.3010  143.1740 N   0  0  2  0  0  0  0  0  0  0  0  0
  192.2700  173.6200  145.0560 C   0  0  2  0  0  3  0  0  0  0  0  0
  192.7060  172.3530  141.8110 C   0  0  0  0  0  1  0  0  0  0  0  0
  190.0840  174.5370  145.1930 C   0  0  2  0  0  3  0  0  0  0  0  0
  1 21  2  0  0  0  0
  1 16  1  0  0  0  0
  3 17  1  0  0  0  0
  5 27  1  6  0  0  0
  5 24  1  0  0  0  0
  6  1  1  0  0  0  0
  8  2  1  6  0  0  0
  8 14  1  0  0  0  0
  8  7  1  0  0  0  0
  9 18  1  0  0  0  0
  9 14  1  0  0  0  0
 10  8  1  0  0  0  0
 11 15  1  0  0  0  0
 12 28  1  0  0  0  0
 13  9  2  0  0  0  0
 15 23  1  0  0  0  0
 15 19  1  0  0  0  0
 16 20  2  0  0  0  0
 17  5  1  0  0  0  0
 17 25  1  0  0  0  0
 19 25  1  0  0  0  0
 20  4  1  0  0  0  0
 21 22  1  0  0  0  0
 22  4  2  0  0  0  0
 23  6  1  0  0  0  0
 24 12  1  0  0  0  0
 24 26  1  0  0  0  0
 25 12  1  0  0  0  0
 26 13  1  0  0  0  0
 26 10  1  0  0  0  0
 28 16  1  0  0  0  0
 28 10  1  0  0  0  0
M  END
>  <MODEL>
5

>  <REMARK>
 VINA RESULT:      -7.7      1.825      2.532
  Name = 
  0 active torsions:
  status: ('A' for Active; 'I' for Inactive)
                            x       y       z     vdW  Elec       q    Type
                         _______ _______ _______ _____ _____    ______ ____

>  <TORSDO>
F 0

$$$$
=
 OpenBabel11112417423D

 28 32  0  0  1  0  0  0  0  0999 V2000
  188.3270  177.2050  144.8030 C   0  0  0  0  0  0  0  0  0  0  0  0
  191.6080  177.2290  144.3220 F   0  0  0  0  0  0  0  0  0  0  0  0
  188.8290  172.5530  141.0310 O   0  0  0  0  0  1  0  0  0  0  0  0
  187.6210  176.3890  147.3920 C   0  0  0  0  0  3  0  0  0  0  0  0
  190.8680  173.6430  141.6000 C   0  0  2  0  0  3  0  0  0  0  0  0
  188.6780  177.6680  143.4970 N   0  0  0  0  0  2  0  0  0  0  0  0
  191.5240  176.7940  146.5410 O   0  0  0  0  0  1  0  0  0  0  0  0
  191.9280  176.3020  145.2990 C   0  0  1  0  0  0  0  0  0  0  0  0
  194.0140  175.2360  144.4010 C   0  0  0  0  0  0  0  0  0  0  0  0
  191.2370  174.9450  145.0280 C   0  0  2  0  0  3  0  0  0  0  0  0
  187.0970  176.7920  140.1990 C   0  0  0  0  0  1  0  0  0  0  0  0
  189.8070  175.2270  143.0660 C   0  0  1  0  0  3  0  0  0  0  0  0
  193.3230  174.3630  143.7330 N   0  0  0  0  0  0  0  0  0  0  0  0
  193.3720  176.1250  145.3140 N   0  0  0  0  0  2  0  0  0  0  0  0
  187.9570  176.5750  141.4250 C   0  0  2  0  0  3  0  0  0  0  0  0
  188.8800  176.0150  145.3450 C   0  0  0  0  0  0  0  0  0  0  0  0
  189.3960  173.8040  141.2770 C   0  0  2  0  0  3  0  0  0  0  0  0
  195.4300  175.2650  144.2690 N   0  0  0  0  0  1  0  0  0  0  0  0
  187.6080  175.2150  142.0470 C   0  0  0  0  0  2  0  0  0  0  0  0
  188.5120  175.6230  146.6380 C   0  0  0  0  0  3  0  0  0  0  0  0
  187.4250  177.9590  145.5660 C   0  0  0  0  0  3  0  0  0  0  0  0
  187.0760  177.5550  146.8550 C   0  0  0  0  0  3  0  0  0  0  0  0
  187.7020  177.7090  142.4180 C   0  0  0  0  0  2  0  0  0  0  0  0
  191.1640  174.7450  142.5910 C   0  0  1  0  0  3  0  0  0  0  0  0
  188.7710  174.4070  142.4480 N   0  0  2  0  0  0  0  0  0  0  0  0
  191.8690  174.2150  143.8320 C   0  0  2  0  0  3  0  0  0  0  0  0
  191.6980  173.8390  140.3460 C   0  0  0  0  0  1  0  0  0  0  0  0
  189.7820  175.0700  144.5760 C   0  0  2  0  0  3  0  0  0  0  0  0
  1 16  2  0  0  0  0
  1 21  1  0  0  0  0
  3 17  1  0  0  0  0
  5 27  1  6  0  0  0
  5 24  1  0  0  0  0
  6  1  1  0  0  0  0
  8  2  1  6  0  0  0
  8 14  1  0  0  0  0
  8  7  1  0  0  0  0
  9 14  1  0  0  0  0
 10  8  1  0  0  0  0
 11 15  1  0  0  0  0
 12 28  1  0  0  0  0
 13 26  1  0  0  0  0
 13  9  2  0  0  0  0
 15 19  1  0  0  0  0
 15 23  1  0  0  0  0
 16 20  1  0  0  0  0
 17  5  1  0  0  0  0
 17 25  1  0  0  0  0
 18  9  1  0  0  0  0
 19 25  1  0  0  0  0
 20  4  2  0  0  0  0
 21 22  2  0  0  0  0
 22  4  1  0  0  0  0
 23  6  1  0  0  0  0
 24 12  1  0  0  0  0
 24 26  1  0  0  0  0
 25 12  1  0  0  0  0
 26 10  1  0  0  0  0
 28 10  1  0  0  0  0
 28 16  1  0  0  0  0
M  END
>  <MODEL>
6

>  <REMARK>
 VINA RESULT:      -7.6      1.521      2.009
  Name = 
  0 active torsions:
  status: ('A' for Active; 'I' for Inactive)
                            x       y       z     vdW  Elec       q    Type
                         _______ _______ _______ _____ _____    ______ ____

>  <TORSDO>
F 0

$$$$
=
 OpenBabel11112417423D

 28 32  0  0  1  0  0  0  0  0999 V2000
  188.0550  176.2640  145.3460 C   0  0  0  0  0  0  0  0  0  0  0  0
  188.5750  173.6610  143.3600 F   0  0  0  0  0  0  0  0  0  0  0  0
  194.0100  176.6930  144.6550 O   0  0  0  0  0  1  0  0  0  0  0  0
  186.6940  178.3510  144.0590 C   0  0  0  0  0  3  0  0  0  0  0  0
  192.9660  174.8900  143.5020 C   0  0  2  0  0  3  0  0  0  0  0  0
  188.7070  175.1880  146.0250 N   0  0  0  0  0  2  0  0  0  0  0  0
  187.2560  174.9320  142.0310 O   0  0  0  0  0  1  0  0  0  0  0  0
  188.5180  174.3510  142.1600 C   0  0  1  0  0  0  0  0  0  0  0  0
  190.0190  173.0050  140.6660 C   0  0  0  0  0  0  0  0  0  0  0  0
  189.6050  175.4490  142.0970 C   0  0  2  0  0  3  0  0  0  0  0  0
  191.6130  175.3400  148.4080 C   0  0  0  0  0  1  0  0  0  0  0  0
  190.7560  175.4690  144.2530 C   0  0  1  0  0  3  0  0  0  0  0  0
  191.0620  173.6730  141.0540 N   0  0  0  0  0  0  0  0  0  0  0  0
  188.7100  173.4040  141.0720 N   0  0  0  0  0  2  0  0  0  0  0  0
  190.9200  175.3730  147.0620 C   0  0  2  0  0  3  0  0  0  0  0  0
  188.5090  176.7320  144.0850 C   0  0  0  0  0  0  0  0  0  0  0  0
  193.0070  175.7290  144.7640 C   0  0  2  0  0  3  0  0  0  0  0  0
  190.1750  171.9060  139.7780 N   0  0  0  0  0  1  0  0  0  0  0  0
  191.3800  176.6200  146.2930 C   0  0  0  0  0  2  0  0  0  0  0  0
  187.8170  177.7770  143.4610 C   0  0  0  0  0  3  0  0  0  0  0  0
  186.9340  176.8570  145.9420 C   0  0  0  0  0  3  0  0  0  0  0  0
  186.2540  177.8930  145.3010 C   0  0  0  0  0  3  0  0  0  0  0  0
  189.4080  175.3970  147.2840 C   0  0  0  0  0  2  0  0  0  0  0  0
  191.5080  174.5310  143.3290 C   0  0  1  0  0  3  0  0  0  0  0  0
  191.7090  176.3810  144.8780 N   0  0  2  0  0  0  0  0  0  0  0  0
  191.0090  174.8480  141.9270 C   0  0  2  0  0  3  0  0  0  0  0  0
  193.7890  173.6310  143.6900 C   0  0  0  0  0  1  0  0  0  0  0  0
  189.7650  176.2380  143.3960 C   0  0  2  0  0  3  0  0  0  0  0  0
  1 21  1  0  0  0  0
  1  6  1  0  0  0  0
  3 17  1  0  0  0  0
  4 22  1  0  0  0  0
  5 27  1  1  0  0  0
  5 17  1  0  0  0  0
  6 23  1  0  0  0  0
  8  7  1  6  0  0  0
  8  2  1  0  0  0  0
  9 13  2  0  0  0  0
  9 14  1  0  0  0  0
 10  8  1  0  0  0  0
 10 28  1  0  0  0  0
 12 25  1  0  0  0  0
 13 26  1  0  0  0  0
 14  8  1  0  0  0  0
 15 23  1  0  0  0  0
 15 11  1  0  0  0  0
 16  1  2  0  0  0  0
 17 25  1  0  0  0  0
 18  9  1  0  0  0  0
 19 15  1  0  0  0  0
 20  4  2  0  0  0  0
 20 16  1  0  0  0  0
 22 21  2  0  0  0  0
 24  5  1  0  0  0  0
 24 12  1  0  0  0  0
 25 19  1  0  0  0  0
 26 10  1  0  0  0  0
 26 24  1  0  0  0  0
 28 16  1  0  0  0  0
 28 12  1  0  0  0  0
M  END
>  <MODEL>
7

>  <REMARK>
 VINA RESULT:      -7.6      2.484      5.159
  Name = 
  0 active torsions:
  status: ('A' for Active; 'I' for Inactive)
                            x       y       z     vdW  Elec       q    Type
                         _______ _______ _______ _____ _____    ______ ____

>  <TORSDO>
F 0

$$$$
=
 OpenBabel11112417423D

 28 32  0  0  1  0  0  0  0  0999 V2000
  190.9060  175.8190  145.2420 C   0  0  0  0  0  0  0  0  0  0  0  0
  193.6730  176.3310  143.4870 F   0  0  0  0  0  0  0  0  0  0  0  0
  192.6170  170.1240  144.3680 O   0  0  0  0  0  1  0  0  0  0  0  0
  191.1690  176.5960  147.9240 C   0  0  0  0  0  3  0  0  0  0  0  0
  194.0420  171.7840  143.4280 C   0  0  2  0  0  3  0  0  0  0  0  0
  190.7460  175.4640  143.8670 N   0  0  0  0  0  2  0  0  0  0  0  0
  194.2390  177.3230  145.4410 O   0  0  0  0  0  1  0  0  0  0  0  0
  194.5570  176.2950  144.5530 C   0  0  1  0  0  0  0  0  0  0  0  0
  196.6690  175.4400  143.5010 C   0  0  0  0  0  0  0  0  0  0  0  0
  194.4900  174.9340  145.2860 C   0  0  2  0  0  3  0  0  0  0  0  0
  189.0760  172.4250  142.4100 C   0  0  0  0  0  1  0  0  0  0  0  0
  192.7160  173.6200  144.2380 C   0  0  1  0  0  3  0  0  0  0  0  0
  196.3100  174.2080  143.6970 N   0  0  0  0  0  0  0  0  0  0  0  0
  195.9020  176.5140  144.0450 N   0  0  0  0  0  2  0  0  0  0  0  0
  190.1740  173.2070  143.1000 C   0  0  2  0  0  3  0  0  0  0  0  0
  192.0210  175.3750  146.0010 C   0  0  0  0  0  0  0  0  0  0  0  0
  192.6160  171.3580  143.7170 C   0  0  2  0  0  3  0  0  0  0  0  0
  197.8700  175.7210  142.7940 N   0  0  0  0  0  1  0  0  0  0  0  0
  190.5890  172.4670  144.3790 C   0  0  0  0  0  2  0  0  0  0  0  0
  192.1320  175.7710  147.3400 C   0  0  0  0  0  3  0  0  0  0  0  0
  189.9410  176.6370  145.8440 C   0  0  0  0  0  3  0  0  0  0  0  0
  190.0720  177.0260  147.1770 C   0  0  0  0  0  3  0  0  0  0  0  0
  189.6560  174.6080  143.4240 C   0  0  0  0  0  2  0  0  0  0  0  0
  194.0200  173.2910  143.5370 C   0  0  1  0  0  3  0  0  0  0  0  0
  192.0430  172.3740  144.5900 N   0  0  2  0  0  0  0  0  0  0  0  0
  195.1210  173.8080  144.4520 C   0  0  2  0  0  3  0  0  0  0  0  0
  194.4290  171.3730  142.0210 C   0  0  0  0  0  1  0  0  0  0  0  0
  193.0690  174.4080  145.4870 C   0  0  2  0  0  3  0  0  0  0  0  0
  1 21  2  0  0  0  0
  1 16  1  0  0  0  0
  5 27  1  6  0  0  0
  5 24  1  0  0  0  0
  5 17  1  0  0  0  0
  6  1  1  0  0  0  0
  8  2  1  6  0  0  0
  8 10  1  0  0  0  0
  8  7  1  0  0  0  0
  9 13  2  0  0  0  0
  9 14  1  0  0  0  0
 10 28  1  0  0  0  0
 11 15  1  0  0  0  0
 12 25  1  0  0  0  0
 12 28  1  0  0  0  0
 13 26  1  0  0  0  0
 14  8  1  0  0  0  0
 15 23  1  0  0  0  0
 15 19  1  0  0  0  0
 16 20  2  0  0  0  0
 17  3  1  0  0  0  0
 17 25  1  0  0  0  0
 18  9  1  0  0  0  0
 19 25  1  0  0  0  0
 20  4  1  0  0  0  0
 21 22  1  0  0  0  0
 22  4  2  0  0  0  0
 23  6  1  0  0  0  0
 24 12  1  0  0  0  0
 24 26  1  0  0  0  0
 26 10  1  0  0  0  0
 28 16  1  0  0  0  0
M  END
>  <MODEL>
8

>  <REMARK>
 VINA RESULT:      -7.3      3.557      5.250
  Name = 
  0 active torsions:
  status: ('A' for Active; 'I' for Inactive)
                            x       y       z     vdW  Elec       q    Type
                         _______ _______ _______ _____ _____    ______ ____

>  <TORSDO>
F 0

$$$$
=
 OpenBabel11112417423D

 28 32  0  0  1  0  0  0  0  0999 V2000
  192.7170  174.7200  145.3140 C   0  0  0  0  0  0  0  0  0  0  0  0
  189.5050  175.1040  146.0400 F   0  0  0  0  0  0  0  0  0  0  0  0
  190.3300  173.7600  139.8810 O   0  0  0  0  0  1  0  0  0  0  0  0
  194.1460  177.1300  145.4240 C   0  0  0  0  0  3  0  0  0  0  0  0
  188.7770  174.2470  141.6190 C   0  0  2  0  0  3  0  0  0  0  0  0
  192.0080  173.4780  145.3010 N   0  0  0  0  0  2  0  0  0  0  0  0
  190.2810  177.1770  146.5090 O   0  0  0  0  0  1  0  0  0  0  0  0
  189.4140  176.4430  145.6980 C   0  0  1  0  0  0  0  0  0  0  0  0
  187.0220  176.6790  144.9780 C   0  0  0  0  0  0  0  0  0  0  0  0
  189.7800  176.6650  144.2120 C   0  0  2  0  0  3  0  0  0  0  0  0
  192.2340  170.6770  142.8020 C   0  0  0  0  0  1  0  0  0  0  0  0
  190.4790  174.5090  143.2970 C   0  0  1  0  0  3  0  0  0  0  0  0
  187.3190  176.3400  143.7600 N   0  0  0  0  0  0  0  0  0  0  0  0
  188.0530  176.8920  145.9430 N   0  0  0  0  0  2  0  0  0  0  0  0
  191.8230  172.0350  143.3280 C   0  0  2  0  0  3  0  0  0  0  0  0
  192.2250  175.8650  144.6330 C   0  0  0  0  0  0  0  0  0  0  0  0
  190.0570  173.5350  141.2310 C   0  0  2  0  0  3  0  0  0  0  0  0
  185.6650  176.9020  145.3370 N   0  0  0  0  0  1  0  0  0  0  0  0
  192.1750  173.1040  142.2840 C   0  0  0  0  0  2  0  0  0  0  0  0
  192.9560  177.0580  144.6970 C   0  0  0  0  0  3  0  0  0  0  0  0
  193.9190  174.8030  146.0290 C   0  0  0  0  0  3  0  0  0  0  0  0
  194.6290  176.0020  146.0870 C   0  0  0  0  0  3  0  0  0  0  0  0
  192.5530  172.2980  144.6450 C   0  0  0  0  0  2  0  0  0  0  0  0
  188.9890  174.6600  143.0560 C   0  0  1  0  0  3  0  0  0  0  0  0
  191.1190  174.1040  142.0500 N   0  0  2  0  0  0  0  0  0  0  0  0
  188.6850  176.1350  143.2730 C   0  0  2  0  0  3  0  0  0  0  0  0
  187.6040  173.2910  141.5230 C   0  0  0  0  0  1  0  0  0  0  0  0
  190.9960  175.8640  143.7470 C   0  0  2  0  0  3  0  0  0  0  0  0
  1 21  1  0  0  0  0
  3 17  1  0  0  0  0
  4 22  1  0  0  0  0
  5 27  1  1  0  0  0
  5 24  1  0  0  0  0
  6  1  1  0  0  0  0
  8 14  1  0  0  0  0
  8  2  1  1  0  0  0
  8  7  1  0  0  0  0
  9 18  1  0  0  0  0
  9 14  1  0  0  0  0
 10  8  1  0  0  0  0
 11 15  1  0  0  0  0
 12 28  1  0  0  0  0
 13  9  2  0  0  0  0
 15 23  1  0  0  0  0
 16 20  1  0  0  0  0
 16  1  2  0  0  0  0
 17  5  1  0  0  0  0
 17 25  1  0  0  0  0
 19 15  1  0  0  0  0
 20  4  2  0  0  0  0
 21 22  2  0  0  0  0
 23  6  1  0  0  0  0
 24 26  1  0  0  0  0
 24 12  1  0  0  0  0
 25 19  1  0  0  0  0
 25 12  1  0  0  0  0
 26 13  1  0  0  0  0
 26 10  1  0  0  0  0
 28 10  1  0  0  0  0
 28 16  1  0  0  0  0
M  END
>  <MODEL>
9

>  <REMARK>
 VINA RESULT:      -7.2      2.190      5.675
  Name = 
  0 active torsions:
  status: ('A' for Active; 'I' for Inactive)
                            x       y       z     vdW  Elec       q    Type
                         _______ _______ _______ _____ _____    ______ ____

>  <TORSDO>
F 0

$$$$
