=
 OpenBabel11112416413D

 32 37  0  0  1  0  0  0  0  0999 V2000
  190.7620  175.0580  144.8680 C   0  0  1  0  0  3  0  0  0  0  0  0
  188.9030  172.8090  141.6620 C   0  0  0  0  0  2  0  0  0  0  0  0
  187.7090  173.7150  141.8760 C   0  0  0  0  0  2  0  0  0  0  0  0
  188.6190  175.7380  146.1660 C   0  0  0  0  0  0  0  0  0  0  0  0
  187.2480  176.3240  146.0770 C   0  0  1  0  0  3  0  0  0  0  0  0
  192.8680  175.7810  145.5910 C   0  0  2  0  0  3  0  0  0  0  0  0
  192.6270  174.5370  143.3830 O   0  0  0  0  0  0  0  0  0  0  0  0
  185.9190  177.9830  145.1720 C   0  0  1  0  0  3  0  0  0  0  0  0
  190.0170  173.2450  142.5950 C   0  0  0  0  0  2  0  0  0  0  0  0
  191.3710  175.1760  143.4600 C   0  0  1  0  0  3  0  0  0  0  0  0
  190.3970  174.7190  142.3700 C   0  0  2  0  0  3  0  0  0  0  0  0
  188.8150  176.1900  143.6540 C   0  0  1  0  0  3  0  0  0  0  0  0
  185.7760  177.9610  146.6970 C   0  0  0  0  0  2  0  0  0  0  0  0
  193.3640  174.6760  144.5980 C   0  0  2  0  0  3  0  0  0  0  0  0
  186.7870  177.0480  147.2450 N   0  0  0  0  0  2  0  0  0  0  0  0
  188.1090  175.1360  141.5070 C   0  0  0  0  0  2  0  0  0  0  0  0
  189.2200  175.6330  142.3360 N   0  0  2  0  0  0  0  0  0  0  0  0
  187.4040  176.6200  143.7000 N   0  0  0  0  0  2  0  0  0  0  0  0
  191.4550  175.9240  145.7380 O   0  0  0  0  0  0  0  0  0  0  0  0
  189.1290  175.4730  147.2450 O   0  0  0  0  0  0  0  0  0  0  0  0
  185.9720  179.4140  144.6780 C   0  0  0  0  0  1  0  0  0  0  0  0
  189.2380  175.2930  144.8550 C   0  0  1  0  0  3  0  0  0  0  0  0
  187.2450  177.3190  144.9670 C   0  0  2  0  0  3  0  0  0  0  0  0
  193.1930  172.2120  144.3220 C   0  0  0  0  0  2  0  0  0  0  0  0
  193.4490  173.3340  145.3070 C   0  0  1  0  0  3  0  0  0  0  0  0
  194.6100  172.5420  144.7400 C   0  0  1  0  0  3  0  0  0  0  0  0
  195.0780  171.5430  145.7790 C   0  0  0  0  0  2  0  0  0  0  0  0
  196.5520  171.6500  145.9550 C   0  0  0  0  0  0  0  0  0  0  0  0
  197.1320  172.8810  146.2340 O   0  0  0  0  0  1  0  0  0  0  0  0
  197.2780  170.6310  145.8210 O   0  0  0  0  0  0  0  0  0  0  0  0
  194.5630  177.3980  146.0590 O   0  0  0  0  0  1  0  0  0  0  0  0
  193.4740  177.1270  145.2290 C   0  0  0  0  0  2  0  0  0  0  0  0
  1 19  1  1  0  0  0
  2  3  1  0  0  0  0
  2  9  1  0  0  0  0
  4 20  2  0  0  0  0
  5  4  1  1  0  0  0
  5 15  1  0  0  0  0
  6 32  1  6  0  0  0
  6 19  1  0  0  0  0
  8 21  1  1  0  0  0
  8 13  1  0  0  0  0
 10  7  1  1  0  0  0
 10  1  1  0  0  0  0
 11  9  1  1  0  0  0
 11 10  1  0  0  0  0
 12 18  1  6  0  0  0
 12 22  1  0  0  0  0
 13 15  1  0  0  0  0
 14  7  1  6  0  0  0
 14 25  1  0  0  0  0
 14  6  1  0  0  0  0
 16  3  1  0  0  0  0
 17 16  1  1  0  0  0
 17 11  1  0  0  0  0
 17 12  1  0  0  0  0
 22  1  1  0  0  0  0
 22  4  1  1  0  0  0
 23 18  1  6  0  0  0
 23  8  1  0  0  0  0
 23  5  1  0  0  0  0
 24 26  1  0  0  0  0
 25 24  1  6  0  0  0
 26 25  1  0  0  0  0
 26 27  1  1  0  0  0
 27 28  1  0  0  0  0
 28 29  1  0  0  0  0
 30 28  2  0  0  0  0
 32 31  1  0  0  0  0
M  END
>  <MODEL>
1

>  <REMARK>
 VINA RESULT:      -7.6      0.000      0.000
  Name = 
  4 active torsions:
  status: ('A' for Active; 'I' for Inactive)
    1  A    between atoms: C_7  and  C_19
    2  A    between atoms: C_10  and  C_17
    3  A    between atoms: C_20  and  C_29
    4  A    between atoms: C_29  and  C_30
                            x       y       z     vdW  Elec       q    Type
                         _______ _______ _______ _____ _____    ______ ____

>  <TORSDO>
F 4

$$$$
=
 OpenBabel11112416413D

 32 37  0  0  1  0  0  0  0  0999 V2000
  190.4020  174.7170  144.2600 C   0  0  1  0  0  3  0  0  0  0  0  0
  193.3230  176.6970  146.7780 C   0  0  0  0  0  2  0  0  0  0  0  0
  194.2900  175.6390  146.2900 C   0  0  0  0  0  2  0  0  0  0  0  0
  191.3810  172.3140  144.3350 C   0  0  0  0  0  0  0  0  0  0  0  0
  192.6030  171.4670  144.1870 C   0  0  1  0  0  3  0  0  0  0  0  0
  188.5010  175.1850  142.9770 C   0  0  2  0  0  3  0  0  0  0  0  0
  189.7820  177.0720  144.1070 O   0  0  0  0  0  0  0  0  0  0  0  0
  194.5130  171.0410  142.9590 C   0  0  1  0  0  3  0  0  0  0  0  0
  191.9920  176.4980  146.0810 C   0  0  0  0  0  2  0  0  0  0  0  0
  190.8240  176.1480  143.8830 C   0  0  1  0  0  3  0  0  0  0  0  0
  192.1420  176.5550  144.5500 C   0  0  2  0  0  3  0  0  0  0  0  0
  192.8640  174.3020  143.7020 C   0  0  1  0  0  3  0  0  0  0  0  0
  193.6830  169.7620  143.1100 C   0  0  0  0  0  2  0  0  0  0  0  0
  188.5040  176.5050  143.8220 C   0  0  2  0  0  3  0  0  0  0  0  0
  192.3870  170.1170  143.7050 N   0  0  0  0  0  2  0  0  0  0  0  0
  194.5030  175.8320  144.7960 C   0  0  0  0  0  2  0  0  0  0  0  0
  193.2490  175.7000  144.0340 N   0  0  2  0  0  0  0  0  0  0  0  0
  194.0010  173.3620  143.7220 N   0  0  0  0  0  2  0  0  0  0  0  0
  189.5180  174.2300  143.2770 O   0  0  0  0  0  0  0  0  0  0  0  0
  190.2770  171.8160  144.4960 O   0  0  0  0  0  0  0  0  0  0  0  0
  195.0680  171.1330  141.5530 C   0  0  0  0  0  1  0  0  0  0  0  0
  191.6210  173.8030  144.4960 C   0  0  1  0  0  3  0  0  0  0  0  0
  193.4890  172.1120  143.1770 C   0  0  2  0  0  3  0  0  0  0  0  0
  187.9850  177.4590  146.0560 C   0  0  0  0  0  2  0  0  0  0  0  0
  187.7290  176.3010  145.1140 C   0  0  1  0  0  3  0  0  0  0  0  0
  186.7000  177.4050  145.2570 C   0  0  1  0  0  3  0  0  0  0  0  0
  185.5720  176.9130  146.1430 C   0  0  0  0  0  2  0  0  0  0  0  0
  184.7490  178.0660  146.6000 C   0  0  0  0  0  0  0  0  0  0  0  0
  183.8180  178.6390  145.7430 O   0  0  0  0  0  0  0  0  0  0  0  0
  184.9180  178.5430  147.7520 O   0  0  0  0  0  1  0  0  0  0  0  0
  187.8490  176.6970  141.2470 O   0  0  0  0  0  1  0  0  0  0  0  0
  188.5370  175.5080  141.4920 C   0  0  0  0  0  2  0  0  0  0  0  0
  1 19  1  6  0  0  0
  1 22  1  0  0  0  0
  3  2  1  0  0  0  0
  4 20  2  0  0  0  0
  5 15  1  6  0  0  0
  5  4  1  0  0  0  0
  6 32  1  6  0  0  0
  6 19  1  0  0  0  0
  6 14  1  0  0  0  0
  8 21  1  6  0  0  0
  8 13  1  0  0  0  0
  8 23  1  0  0  0  0
  9  2  1  0  0  0  0
 10  7  1  1  0  0  0
 10  1  1  0  0  0  0
 10 11  1  0  0  0  0
 11  9  1  1  0  0  0
 12 18  1  1  0  0  0
 12 17  1  0  0  0  0
 12 22  1  0  0  0  0
 13 15  1  0  0  0  0
 14  7  1  1  0  0  0
 14 25  1  0  0  0  0
 16  3  1  0  0  0  0
 17 11  1  0  0  0  0
 17 16  1  1  0  0  0
 22  4  1  6  0  0  0
 23 18  1  1  0  0  0
 23  5  1  0  0  0  0
 25 26  1  0  0  0  0
 25 24  1  1  0  0  0
 26 24  1  0  0  0  0
 26 27  1  1  0  0  0
 27 28  1  0  0  0  0
 28 30  1  0  0  0  0
 29 28  2  0  0  0  0
 31 32  1  0  0  0  0
M  END
>  <MODEL>
2

>  <REMARK>
 VINA RESULT:      -7.5      3.255      8.140
  Name = 
  4 active torsions:
  status: ('A' for Active; 'I' for Inactive)
    1  A    between atoms: C_7  and  C_19
    2  A    between atoms: C_10  and  C_17
    3  A    between atoms: C_20  and  C_29
    4  A    between atoms: C_29  and  C_30
                            x       y       z     vdW  Elec       q    Type
                         _______ _______ _______ _____ _____    ______ ____

>  <TORSDO>
F 4

$$$$
=
 OpenBabel11112416413D

 32 37  0  0  1  0  0  0  0  0999 V2000
  190.7500  175.8510  144.8020 C   0  0  1  0  0  3  0  0  0  0  0  0
  189.5150  172.2360  142.7550 C   0  0  0  0  0  2  0  0  0  0  0  0
  190.9920  171.9070  142.6900 C   0  0  0  0  0  2  0  0  0  0  0  0
  193.1020  176.1230  143.7380 C   0  0  0  0  0  0  0  0  0  0  0  0
  194.3940  175.4560  143.3970 C   0  0  1  0  0  3  0  0  0  0  0  0
  190.0020  177.3590  146.4300 C   0  0  2  0  0  3  0  0  0  0  0  0
  188.6290  175.2900  145.8700 O   0  0  0  0  0  0  0  0  0  0  0  0
  196.0700  174.0300  144.1030 C   0  0  1  0  0  3  0  0  0  0  0  0
  189.3390  173.5320  143.5220 C   0  0  0  0  0  2  0  0  0  0  0  0
  189.9310  174.8200  145.5980 C   0  0  1  0  0  3  0  0  0  0  0  0
  189.9440  173.4380  144.9350 C   0  0  2  0  0  3  0  0  0  0  0  0
  192.4110  173.9060  144.8130 C   0  0  1  0  0  3  0  0  0  0  0  0
  196.6680  175.3590  143.6300 C   0  0  0  0  0  2  0  0  0  0  0  0
  188.6170  176.6960  146.1170 C   0  0  2  0  0  3  0  0  0  0  0  0
  195.5690  176.3050  143.3940 N   0  0  0  0  0  2  0  0  0  0  0  0
  191.5010  171.6930  144.1080 C   0  0  0  0  0  2  0  0  0  0  0  0
  191.3310  172.8910  144.9470 N   0  0  2  0  0  0  0  0  0  0  0  0
  193.6760  173.3490  144.2960 N   0  0  0  0  0  2  0  0  0  0  0  0
  191.1180  176.9030  145.6660 O   0  0  0  0  0  0  0  0  0  0  0  0
  192.9430  177.3240  143.5730 O   0  0  0  0  0  0  0  0  0  0  0  0
  196.7820  173.5580  145.3530 C   0  0  0  0  0  1  0  0  0  0  0  0
  191.9490  175.2010  144.0830 C   0  0  1  0  0  3  0  0  0  0  0  0
  194.6600  174.4140  144.4300 C   0  0  2  0  0  3  0  0  0  0  0  0
  186.8530  176.5410  144.3740 C   0  0  0  0  0  2  0  0  0  0  0  0
  187.9390  177.4180  144.9650 C   0  0  1  0  0  3  0  0  0  0  0  0
  186.4860  177.6670  145.3180 C   0  0  1  0  0  3  0  0  0  0  0  0
  185.9830  178.8540  144.5200 C   0  0  0  0  0  2  0  0  0  0  0  0
  184.4940  178.8450  144.4860 C   0  0  0  0  0  0  0  0  0  0  0  0
  183.7710  178.9290  145.6680 O   0  0  0  0  0  1  0  0  0  0  0  0
  183.8900  178.7300  143.3880 O   0  0  0  0  0  0  0  0  0  0  0  0
  191.6330  176.7860  148.0780 O   0  0  0  0  0  1  0  0  0  0  0  0
  190.3240  177.2390  147.9100 C   0  0  0  0  0  2  0  0  0  0  0  0
  1 10  1  0  0  0  0
  1 19  1  1  0  0  0
  2  9  1  0  0  0  0
  3  2  1  0  0  0  0
  3 16  1  0  0  0  0
  5 15  1  1  0  0  0
  5  4  1  0  0  0  0
  5 23  1  0  0  0  0
  6 32  1  1  0  0  0
  8 23  1  0  0  0  0
  8 21  1  1  0  0  0
 10  7  1  6  0  0  0
 11  9  1  6  0  0  0
 11 17  1  0  0  0  0
 11 10  1  0  0  0  0
 12 18  1  6  0  0  0
 12 17  1  0  0  0  0
 13  8  1  0  0  0  0
 14  7  1  6  0  0  0
 14  6  1  0  0  0  0
 15 13  1  0  0  0  0
 17 16  1  6  0  0  0
 19  6  1  0  0  0  0
 20  4  2  0  0  0  0
 22  4  1  1  0  0  0
 22  1  1  0  0  0  0
 22 12  1  0  0  0  0
 23 18  1  6  0  0  0
 24 26  1  0  0  0  0
 25 24  1  6  0  0  0
 25 26  1  0  0  0  0
 25 14  1  0  0  0  0
 26 27  1  6  0  0  0
 28 27  1  0  0  0  0
 28 29  1  0  0  0  0
 30 28  2  0  0  0  0
 32 31  1  0  0  0  0
M  END
>  <MODEL>
3

>  <REMARK>
 VINA RESULT:      -7.4      2.999      7.778
  Name = 
  4 active torsions:
  status: ('A' for Active; 'I' for Inactive)
    1  A    between atoms: C_7  and  C_19
    2  A    between atoms: C_10  and  C_17
    3  A    between atoms: C_20  and  C_29
    4  A    between atoms: C_29  and  C_30
                            x       y       z     vdW  Elec       q    Type
                         _______ _______ _______ _____ _____    ______ ____

>  <TORSDO>
F 4

$$$$
=
 OpenBabel11112416413D

 32 37  0  0  1  0  0  0  0  0999 V2000
  191.2010  175.4110  144.3660 C   0  0  1  0  0  3  0  0  0  0  0  0
  190.1690  171.7540  142.2810 C   0  0  0  0  0  2  0  0  0  0  0  0
  191.6140  171.3590  142.4980 C   0  0  0  0  0  2  0  0  0  0  0  0
  193.7160  175.5280  143.7340 C   0  0  0  0  0  0  0  0  0  0  0  0
  195.0120  174.7890  143.6610 C   0  0  1  0  0  3  0  0  0  0  0  0
  190.2520  177.0280  145.7680 C   0  0  2  0  0  3  0  0  0  0  0  0
  188.8970  174.9950  145.0550 O   0  0  0  0  0  0  0  0  0  0  0  0
  196.4600  173.3300  144.7160 C   0  0  1  0  0  3  0  0  0  0  0  0
  189.9250  173.0920  142.9490 C   0  0  0  0  0  2  0  0  0  0  0  0
  190.2010  174.4560  145.0420 C   0  0  1  0  0  3  0  0  0  0  0  0
  190.2620  173.0440  144.4500 C   0  0  2  0  0  3  0  0  0  0  0  0
  192.7320  173.3980  144.7580 C   0  0  1  0  0  3  0  0  0  0  0  0
  197.2000  174.6070  144.3050 C   0  0  0  0  0  2  0  0  0  0  0  0
  188.9130  176.4100  145.2370 C   0  0  2  0  0  3  0  0  0  0  0  0
  196.2110  175.5860  143.8360 N   0  0  0  0  0  2  0  0  0  0  0  0
  191.8510  171.1940  143.9920 C   0  0  0  0  0  2  0  0  0  0  0  0
  191.5950  172.4390  144.7360 N   0  0  2  0  0  0  0  0  0  0  0  0
  194.0380  172.7630  144.5010 N   0  0  0  0  0  2  0  0  0  0  0  0
  191.4620  176.4870  145.2380 O   0  0  0  0  0  0  0  0  0  0  0  0
  193.6510  176.7250  143.4950 O   0  0  0  0  0  0  0  0  0  0  0  0
  196.9120  172.8920  146.0940 C   0  0  0  0  0  1  0  0  0  0  0  0
  192.4740  174.6750  143.9030 C   0  0  1  0  0  3  0  0  0  0  0  0
  195.0360  173.7910  144.7670 C   0  0  2  0  0  3  0  0  0  0  0  0
  187.5610  176.2020  143.1630 C   0  0  0  0  0  2  0  0  0  0  0  0
  188.4900  177.1020  143.9520 C   0  0  1  0  0  3  0  0  0  0  0  0
  186.9930  177.3410  143.9830 C   0  0  1  0  0  3  0  0  0  0  0  0
  186.6620  178.5060  143.0730 C   0  0  0  0  0  2  0  0  0  0  0  0
  185.4000  179.1570  143.5230 C   0  0  0  0  0  0  0  0  0  0  0  0
  184.1770  178.5500  143.2700 O   0  0  0  0  0  0  0  0  0  0  0  0
  185.4390  180.2720  144.1040 O   0  0  0  0  0  1  0  0  0  0  0  0
  191.5640  176.5640  147.7080 O   0  0  0  0  0  1  0  0  0  0  0  0
  190.2970  176.9690  147.2850 C   0  0  0  0  0  2  0  0  0  0  0  0
  1 10  1  0  0  0  0
  1 19  1  1  0  0  0
  2  3  1  0  0  0  0
  2  9  1  0  0  0  0
  3 16  1  0  0  0  0
  5  4  1  1  0  0  0
  5 15  1  0  0  0  0
  5 23  1  0  0  0  0
  6 32  1  1  0  0  0
  8 23  1  0  0  0  0
  8 21  1  1  0  0  0
 10  7  1  6  0  0  0
 11  9  1  6  0  0  0
 11 17  1  0  0  0  0
 11 10  1  0  0  0  0
 12 18  1  6  0  0  0
 13  8  1  0  0  0  0
 14  7  1  6  0  0  0
 14  6  1  0  0  0  0
 15 13  1  0  0  0  0
 17 16  1  6  0  0  0
 17 12  1  0  0  0  0
 19  6  1  0  0  0  0
 20  4  2  0  0  0  0
 22  4  1  1  0  0  0
 22  1  1  0  0  0  0
 22 12  1  0  0  0  0
 23 18  1  6  0  0  0
 24 26  1  0  0  0  0
 25 24  1  6  0  0  0
 25 26  1  0  0  0  0
 25 14  1  0  0  0  0
 26 27  1  6  0  0  0
 27 28  1  0  0  0  0
 28 30  1  0  0  0  0
 29 28  2  0  0  0  0
 32 31  1  0  0  0  0
M  END
>  <MODEL>
4

>  <REMARK>
 VINA RESULT:      -7.3      2.980      7.810
  Name = 
  4 active torsions:
  status: ('A' for Active; 'I' for Inactive)
    1  A    between atoms: C_7  and  C_19
    2  A    between atoms: C_10  and  C_17
    3  A    between atoms: C_20  and  C_29
    4  A    between atoms: C_29  and  C_30
                            x       y       z     vdW  Elec       q    Type
                         _______ _______ _______ _____ _____    ______ ____

>  <TORSDO>
F 4

$$$$
=
 OpenBabel11112416413D

 32 37  0  0  1  0  0  0  0  0999 V2000
  190.3190  175.7350  143.4850 C   0  0  1  0  0  3  0  0  0  0  0  0
  193.4200  175.8080  146.5130 C   0  0  0  0  0  2  0  0  0  0  0  0
  194.2700  175.0780  145.4950 C   0  0  0  0  0  2  0  0  0  0  0  0
  191.0320  173.5700  142.2430 C   0  0  0  0  0  0  0  0  0  0  0  0
  192.1560  172.8140  141.6120 C   0  0  1  0  0  3  0  0  0  0  0  0
  188.4890  176.9860  142.7350 C   0  0  2  0  0  3  0  0  0  0  0  0
  189.9580  177.8660  144.6160 O   0  0  0  0  0  0  0  0  0  0  0  0
  194.0160  172.9170  140.2460 C   0  0  1  0  0  3  0  0  0  0  0  0
  192.0800  176.1340  145.8830 C   0  0  0  0  0  2  0  0  0  0  0  0
  190.8960  177.1030  143.8890 C   0  0  1  0  0  3  0  0  0  0  0  0
  192.2460  176.9710  144.6030 C   0  0  2  0  0  3  0  0  0  0  0  0
  192.7260  175.4420  142.6670 C   0  0  1  0  0  3  0  0  0  0  0  0
  193.0520  171.8350  139.7490 C   0  0  0  0  0  2  0  0  0  0  0  0
  188.6280  177.6580  144.1430 C   0  0  2  0  0  3  0  0  0  0  0  0
  191.7990  171.9470  140.5070 N   0  0  0  0  0  2  0  0  0  0  0  0
  194.5120  176.0050  144.3130 C   0  0  0  0  0  2  0  0  0  0  0  0
  193.2570  176.4130  143.6600 N   0  0  2  0  0  0  0  0  0  0  0  0
  193.7540  174.5280  142.1340 N   0  0  0  0  0  2  0  0  0  0  0  0
  189.3940  175.9230  142.4390 O   0  0  0  0  0  0  0  0  0  0  0  0
  189.8790  173.1700  142.1760 O   0  0  0  0  0  0  0  0  0  0  0  0
  194.5880  173.6800  139.0690 C   0  0  0  0  0  1  0  0  0  0  0  0
  191.4310  174.7210  143.1450 C   0  0  1  0  0  3  0  0  0  0  0  0
  193.1130  173.8050  141.0440 C   0  0  2  0  0  3  0  0  0  0  0  0
  188.3570  177.1730  146.5650 C   0  0  0  0  0  2  0  0  0  0  0  0
  187.8270  176.8820  145.1760 C   0  0  1  0  0  3  0  0  0  0  0  0
  187.0980  177.8570  146.0770 C   0  0  1  0  0  3  0  0  0  0  0  0
  185.8840  177.1670  146.6680 C   0  0  0  0  0  2  0  0  0  0  0  0
  184.7050  178.0740  146.6020 C   0  0  0  0  0  0  0  0  0  0  0  0
  184.0660  178.2960  145.3890 O   0  0  0  0  0  0  0  0  0  0  0  0
  184.3050  178.6640  147.6390 O   0  0  0  0  0  1  0  0  0  0  0  0
  187.4740  177.9130  140.7810 O   0  0  0  0  0  1  0  0  0  0  0  0
  188.5690  178.0350  141.6380 C   0  0  0  0  0  2  0  0  0  0  0  0
  1 19  1  6  0  0  0
  1 10  1  0  0  0  0
  3  2  1  0  0  0  0
  5 15  1  6  0  0  0
  5  4  1  0  0  0  0
  6 32  1  6  0  0  0
  6 14  1  0  0  0  0
  8 21  1  6  0  0  0
  8 23  1  0  0  0  0
  9  2  1  0  0  0  0
 10 11  1  0  0  0  0
 10  7  1  1  0  0  0
 11  9  1  1  0  0  0
 12 18  1  1  0  0  0
 12 22  1  0  0  0  0
 12 17  1  0  0  0  0
 13  8  1  0  0  0  0
 13 15  1  0  0  0  0
 14  7  1  1  0  0  0
 14 25  1  0  0  0  0
 16  3  1  0  0  0  0
 17 16  1  1  0  0  0
 17 11  1  0  0  0  0
 19  6  1  0  0  0  0
 20  4  2  0  0  0  0
 22  4  1  6  0  0  0
 22  1  1  0  0  0  0
 23  5  1  0  0  0  0
 23 18  1  1  0  0  0
 25 26  1  0  0  0  0
 25 24  1  1  0  0  0
 26 24  1  0  0  0  0
 26 27  1  1  0  0  0
 28 27  1  0  0  0  0
 28 30  1  0  0  0  0
 29 28  2  0  0  0  0
 31 32  1  0  0  0  0
M  END
>  <MODEL>
5

>  <REMARK>
 VINA RESULT:      -7.2      3.564      8.084
  Name = 
  4 active torsions:
  status: ('A' for Active; 'I' for Inactive)
    1  A    between atoms: C_7  and  C_19
    2  A    between atoms: C_10  and  C_17
    3  A    between atoms: C_20  and  C_29
    4  A    between atoms: C_29  and  C_30
                            x       y       z     vdW  Elec       q    Type
                         _______ _______ _______ _____ _____    ______ ____

>  <TORSDO>
F 4

$$$$
=
 OpenBabel11112416413D

 32 37  0  0  1  0  0  0  0  0999 V2000
  190.2520  175.4230  143.2550 C   0  0  1  0  0  3  0  0  0  0  0  0
  192.5850  175.8200  146.8870 C   0  0  0  0  0  2  0  0  0  0  0  0
  191.3220  176.3880  147.4980 C   0  0  0  0  0  2  0  0  0  0  0  0
  188.5860  177.3750  143.6410 C   0  0  0  0  0  0  0  0  0  0  0  0
  187.6400  178.0280  144.5950 C   0  0  1  0  0  3  0  0  0  0  0  0
  190.0730  174.0670  141.3550 C   0  0  2  0  0  3  0  0  0  0  0  0
  191.7380  173.4880  143.1910 O   0  0  0  0  0  0  0  0  0  0  0  0
  185.9640  177.7230  146.1570 C   0  0  1  0  0  3  0  0  0  0  0  0
  192.2880  175.3990  145.4610 C   0  0  0  0  0  2  0  0  0  0  0  0
  190.7340  174.1340  143.9440 C   0  0  1  0  0  3  0  0  0  0  0  0
  191.1390  174.3760  145.4010 C   0  0  2  0  0  3  0  0  0  0  0  0
  188.9410  175.5940  145.4450 C   0  0  1  0  0  3  0  0  0  0  0  0
  185.5110  178.7140  145.0790 C   0  0  0  0  0  2  0  0  0  0  0  0
  191.5110  173.6180  141.7880 C   0  0  2  0  0  3  0  0  0  0  0  0
  186.5100  178.7160  144.0020 N   0  0  0  0  0  2  0  0  0  0  0  0
  190.2670  175.2920  147.5360 C   0  0  0  0  0  2  0  0  0  0  0  0
  189.9430  174.7860  146.1910 N   0  0  2  0  0  0  0  0  0  0  0  0
  188.0860  176.4180  146.3190 N   0  0  0  0  0  2  0  0  0  0  0  0
  189.4490  175.0740  142.1500 O   0  0  0  0  0  0  0  0  0  0  0  0
  188.6880  177.7570  142.4850 O   0  0  0  0  0  0  0  0  0  0  0  0
  184.8240  176.7910  146.5130 C   0  0  0  0  0  1  0  0  0  0  0  0
  189.5530  176.3750  144.2450 C   0  0  1  0  0  3  0  0  0  0  0  0
  187.0480  176.9640  145.4560 C   0  0  2  0  0  3  0  0  0  0  0  0
  193.8720  174.3820  141.9080 C   0  0  0  0  0  2  0  0  0  0  0  0
  192.5540  174.5410  141.1780 C   0  0  1  0  0  3  0  0  0  0  0  0
  193.6630  173.7070  140.5700 C   0  0  1  0  0  3  0  0  0  0  0  0
  194.3440  174.5130  139.4820 C   0  0  0  0  0  2  0  0  0  0  0  0
  195.8120  174.5560  139.7280 C   0  0  0  0  0  0  0  0  0  0  0  0
  196.5320  173.3740  139.8420 O   0  0  0  0  0  0  0  0  0  0  0  0
  196.3960  175.6620  139.8640 O   0  0  0  0  0  1  0  0  0  0  0  0
  187.9940  173.0860  142.0020 O   0  0  0  0  0  1  0  0  0  0  0  0
  189.1510  172.8630  141.2540 C   0  0  0  0  0  2  0  0  0  0  0  0
  1 19  1  6  0  0  0
  1 10  1  0  0  0  0
  1 22  1  0  0  0  0
  2  3  1  0  0  0  0
  3 16  1  0  0  0  0
  5  4  1  6  0  0  0
  5 23  1  0  0  0  0
  6 32  1  1  0  0  0
  6 14  1  0  0  0  0
  6 19  1  0  0  0  0
  8 21  1  6  0  0  0
  9  2  1  0  0  0  0
 10  7  1  6  0  0  0
 10 11  1  0  0  0  0
 11  9  1  6  0  0  0
 11 17  1  0  0  0  0
 12 17  1  0  0  0  0
 12 18  1  1  0  0  0
 13  8  1  0  0  0  0
 14  7  1  1  0  0  0
 15  5  1  0  0  0  0
 15 13  1  0  0  0  0
 17 16  1  1  0  0  0
 20  4  2  0  0  0  0
 22  4  1  6  0  0  0
 22 12  1  0  0  0  0
 23  8  1  0  0  0  0
 23 18  1  1  0  0  0
 25 14  1  0  0  0  0
 25 24  1  1  0  0  0
 26 27  1  6  0  0  0
 26 25  1  0  0  0  0
 26 24  1  0  0  0  0
 27 28  1  0  0  0  0
 28 29  2  0  0  0  0
 28 30  1  0  0  0  0
 32 31  1  0  0  0  0
M  END
>  <MODEL>
6

>  <REMARK>
 VINA RESULT:      -7.2      2.996      4.735
  Name = 
  4 active torsions:
  status: ('A' for Active; 'I' for Inactive)
    1  A    between atoms: C_7  and  C_19
    2  A    between atoms: C_10  and  C_17
    3  A    between atoms: C_20  and  C_29
    4  A    between atoms: C_29  and  C_30
                            x       y       z     vdW  Elec       q    Type
                         _______ _______ _______ _____ _____    ______ ____

>  <TORSDO>
F 4

$$$$
=
 OpenBabel11112416413D

 32 37  0  0  1  0  0  0  0  0999 V2000
  190.9750  175.6980  144.2440 C   0  0  1  0  0  3  0  0  0  0  0  0
  190.0370  173.7890  140.4670 C   0  0  0  0  0  2  0  0  0  0  0  0
  191.5050  173.4200  140.4220 C   0  0  0  0  0  2  0  0  0  0  0  0
  193.4610  176.2860  143.7820 C   0  0  0  0  0  0  0  0  0  0  0  0
  194.7850  175.7870  143.3040 C   0  0  1  0  0  3  0  0  0  0  0  0
  190.0010  176.1970  146.3140 C   0  0  2  0  0  3  0  0  0  0  0  0
  188.7150  174.8430  144.5850 O   0  0  0  0  0  0  0  0  0  0  0  0
  196.3280  174.0690  143.3560 C   0  0  1  0  0  3  0  0  0  0  0  0
  189.7560  174.5070  141.7720 C   0  0  0  0  0  2  0  0  0  0  0  0
  190.0400  174.4760  144.2690 C   0  0  1  0  0  3  0  0  0  0  0  0
  190.1440  173.6440  142.9870 C   0  0  2  0  0  3  0  0  0  0  0  0
  192.6040  173.8990  143.4350 C   0  0  1  0  0  3  0  0  0  0  0  0
  196.9980  175.3940  143.7300 C   0  0  0  0  0  2  0  0  0  0  0  0
  188.6740  175.9110  145.5300 C   0  0  2  0  0  3  0  0  0  0  0  0
  195.9520  176.4130  143.8940 N   0  0  0  0  0  2  0  0  0  0  0  0
  191.7960  172.4590  141.5650 C   0  0  0  0  0  2  0  0  0  0  0  0
  191.5100  173.0570  142.8810 N   0  0  2  0  0  0  0  0  0  0  0  0
  193.9280  173.5890  142.8640 N   0  0  0  0  0  2  0  0  0  0  0  0
  191.2160  176.1130  145.5690 O   0  0  0  0  0  0  0  0  0  0  0  0
  193.3350  177.4050  144.2560 O   0  0  0  0  0  0  0  0  0  0  0  0
  196.8430  172.9580  144.2480 C   0  0  0  0  0  1  0  0  0  0  0  0
  192.2640  175.4190  143.4450 C   0  0  1  0  0  3  0  0  0  0  0  0
  194.8880  174.3430  143.6580 C   0  0  2  0  0  3  0  0  0  0  0  0
  187.2730  176.8280  143.6950 C   0  0  0  0  0  2  0  0  0  0  0  0
  188.1800  177.1810  144.8570 C   0  0  1  0  0  3  0  0  0  0  0  0
  186.6750  177.2740  145.0130 C   0  0  1  0  0  3  0  0  0  0  0  0
  186.2610  178.7290  144.9150 C   0  0  0  0  0  2  0  0  0  0  0  0
  185.2750  179.0470  145.9850 C   0  0  0  0  0  0  0  0  0  0  0  0
  185.7160  179.4010  147.2530 O   0  0  0  0  0  1  0  0  0  0  0  0
  184.0420  178.9650  145.7500 O   0  0  0  0  0  0  0  0  0  0  0  0
  188.9340  174.5400  147.6630 O   0  0  0  0  0  1  0  0  0  0  0  0
  190.0980  175.3000  147.5360 C   0  0  0  0  0  2  0  0  0  0  0  0
  1 10  1  0  0  0  0
  1 19  1  1  0  0  0
  2  9  1  0  0  0  0
  3  2  1  0  0  0  0
  3 16  1  0  0  0  0
  4 20  2  0  0  0  0
  5 23  1  0  0  0  0
  5  4  1  1  0  0  0
  5 15  1  0  0  0  0
  6 32  1  1  0  0  0
  8 23  1  0  0  0  0
  8 13  1  0  0  0  0
  8 21  1  1  0  0  0
 10  7  1  6  0  0  0
 11  9  1  6  0  0  0
 11 10  1  0  0  0  0
 12 18  1  6  0  0  0
 12 22  1  0  0  0  0
 13 15  1  0  0  0  0
 14  7  1  6  0  0  0
 14  6  1  0  0  0  0
 17 16  1  6  0  0  0
 17 11  1  0  0  0  0
 17 12  1  0  0  0  0
 19  6  1  0  0  0  0
 22  4  1  1  0  0  0
 22  1  1  0  0  0  0
 23 18  1  6  0  0  0
 24 26  1  0  0  0  0
 25 24  1  6  0  0  0
 25 26  1  0  0  0  0
 25 14  1  0  0  0  0
 26 27  1  6  0  0  0
 27 28  1  0  0  0  0
 28 29  1  0  0  0  0
 30 28  2  0  0  0  0
 32 31  1  0  0  0  0
M  END
>  <MODEL>
7

>  <REMARK>
 VINA RESULT:      -7.1      2.941      7.685
  Name = 
  4 active torsions:
  status: ('A' for Active; 'I' for Inactive)
    1  A    between atoms: C_7  and  C_19
    2  A    between atoms: C_10  and  C_17
    3  A    between atoms: C_20  and  C_29
    4  A    between atoms: C_29  and  C_30
                            x       y       z     vdW  Elec       q    Type
                         _______ _______ _______ _____ _____    ______ ____

>  <TORSDO>
F 4

$$$$
=
 OpenBabel11112416413D

 32 37  0  0  1  0  0  0  0  0999 V2000
  192.0120  174.1340  144.9890 C   0  0  1  0  0  3  0  0  0  0  0  0
  190.0740  171.3940  142.2450 C   0  0  0  0  0  2  0  0  0  0  0  0
  188.8620  172.2910  142.3890 C   0  0  0  0  0  2  0  0  0  0  0  0
  189.9150  174.9410  146.2880 C   0  0  0  0  0  0  0  0  0  0  0  0
  188.5220  175.4720  146.1880 C   0  0  1  0  0  3  0  0  0  0  0  0
  194.1260  175.0090  145.4860 C   0  0  2  0  0  3  0  0  0  0  0  0
  193.8190  173.4500  143.4970 O   0  0  0  0  0  0  0  0  0  0  0  0
  187.0960  176.9470  145.1260 C   0  0  1  0  0  3  0  0  0  0  0  0
  191.2170  171.9900  143.0440 C   0  0  0  0  0  2  0  0  0  0  0  0
  192.5480  174.0610  143.5480 C   0  0  1  0  0  3  0  0  0  0  0  0
  191.5370  173.4250  142.5890 C   0  0  2  0  0  3  0  0  0  0  0  0
  189.9720  175.0270  143.7300 C   0  0  1  0  0  3  0  0  0  0  0  0
  187.0290  177.1450  146.6430 C   0  0  0  0  0  2  0  0  0  0  0  0
  194.6090  173.7830  144.6380 C   0  0  2  0  0  3  0  0  0  0  0  0
  188.0960  176.3470  147.2630 N   0  0  0  0  0  2  0  0  0  0  0  0
  189.1960  173.6530  141.7990 C   0  0  0  0  0  2  0  0  0  0  0  0
  190.3300  174.2940  142.4860 N   0  0  2  0  0  0  0  0  0  0  0  0
  188.5520  175.4230  143.7890 N   0  0  0  0  0  2  0  0  0  0  0  0
  192.7190  175.1350  145.6860 O   0  0  0  0  0  0  0  0  0  0  0  0
  190.4860  174.8490  147.3650 O   0  0  0  0  0  0  0  0  0  0  0  0
  187.0780  178.2920  144.4280 C   0  0  0  0  0  1  0  0  0  0  0  0
  190.4830  174.3260  145.0240 C   0  0  1  0  0  3  0  0  0  0  0  0
  188.4320  176.2950  144.9480 C   0  0  2  0  0  3  0  0  0  0  0  0
  194.6070  171.2990  144.7070 C   0  0  0  0  0  2  0  0  0  0  0  0
  194.7730  172.5620  145.5280 C   0  0  1  0  0  3  0  0  0  0  0  0
  195.9930  171.7790  145.0830 C   0  0  1  0  0  3  0  0  0  0  0  0
  196.5110  170.9690  146.2540 C   0  0  0  0  0  2  0  0  0  0  0  0
  197.4170  169.8930  145.7630 C   0  0  0  0  0  0  0  0  0  0  0  0
  197.9250  169.9480  144.4720 O   0  0  0  0  0  0  0  0  0  0  0  0
  197.6970  168.9180  146.5060 O   0  0  0  0  0  1  0  0  0  0  0  0
  193.6420  177.2410  144.7880 O   0  0  0  0  0  1  0  0  0  0  0  0
  194.6690  176.3020  144.9020 C   0  0  0  0  0  2  0  0  0  0  0  0
  1 22  1  0  0  0  0
  1 19  1  6  0  0  0
  2  3  1  0  0  0  0
  2  9  1  0  0  0  0
  4 20  2  0  0  0  0
  5  4  1  1  0  0  0
  5 15  1  0  0  0  0
  6 32  1  6  0  0  0
  6 19  1  0  0  0  0
  8 21  1  6  0  0  0
  8 13  1  0  0  0  0
 10  7  1  1  0  0  0
 10  1  1  0  0  0  0
 11  9  1  1  0  0  0
 11 10  1  0  0  0  0
 12 18  1  1  0  0  0
 12 22  1  0  0  0  0
 13 15  1  0  0  0  0
 14  7  1  6  0  0  0
 14  6  1  0  0  0  0
 14 25  1  0  0  0  0
 16  3  1  0  0  0  0
 17 16  1  1  0  0  0
 17 11  1  0  0  0  0
 17 12  1  0  0  0  0
 22  4  1  1  0  0  0
 23 18  1  6  0  0  0
 23  8  1  0  0  0  0
 23  5  1  0  0  0  0
 24 26  1  0  0  0  0
 25 24  1  6  0  0  0
 26 25  1  0  0  0  0
 26 27  1  1  0  0  0
 28 27  1  0  0  0  0
 28 30  1  0  0  0  0
 29 28  2  0  0  0  0
 31 32  1  0  0  0  0
M  END
>  <MODEL>
8

>  <REMARK>
 VINA RESULT:      -6.8      1.477      1.736
  Name = 
  4 active torsions:
  status: ('A' for Active; 'I' for Inactive)
    1  A    between atoms: C_7  and  C_19
    2  A    between atoms: C_10  and  C_17
    3  A    between atoms: C_20  and  C_29
    4  A    between atoms: C_29  and  C_30
                            x       y       z     vdW  Elec       q    Type
                         _______ _______ _______ _____ _____    ______ ____

>  <TORSDO>
F 4

$$$$
=
 OpenBabel11112416413D

 32 37  0  0  1  0  0  0  0  0999 V2000
  189.6760  174.8400  142.6690 C   0  0  1  0  0  3  0  0  0  0  0  0
  191.6710  171.3340  144.2580 C   0  0  0  0  0  2  0  0  0  0  0  0
  191.9440  170.9770  142.8120 C   0  0  0  0  0  2  0  0  0  0  0  0
  188.9300  173.8660  140.3820 C   0  0  0  0  0  0  0  0  0  0  0  0
  189.3440  173.1150  139.1590 C   0  0  1  0  0  3  0  0  0  0  0  0
  189.2260  177.0720  143.2130 C   0  0  2  0  0  3  0  0  0  0  0  0
  190.6750  175.6460  144.7450 O   0  0  0  0  0  0  0  0  0  0  0  0
  190.9580  172.8270  137.5300 C   0  0  1  0  0  3  0  0  0  0  0  0
  190.9630  172.6740  144.3020 C   0  0  0  0  0  2  0  0  0  0  0  0
  190.9570  175.0540  143.4950 C   0  0  1  0  0  3  0  0  0  0  0  0
  191.7890  173.7730  143.6110 C   0  0  2  0  0  3  0  0  0  0  0  0
  191.3710  173.6920  141.1340 C   0  0  1  0  0  3  0  0  0  0  0  0
  189.5890  173.0600  136.8850 C   0  0  0  0  0  2  0  0  0  0  0  0
  189.6040  176.5850  144.6540 C   0  0  2  0  0  3  0  0  0  0  0  0
  188.6400  173.4480  137.9360 N   0  0  0  0  0  2  0  0  0  0  0  0
  192.8740  172.0270  142.2230 C   0  0  0  0  0  2  0  0  0  0  0  0
  192.2870  173.3770  142.2630 N   0  0  2  0  0  0  0  0  0  0  0  0
  191.5970  172.8520  139.9430 N   0  0  0  0  0  2  0  0  0  0  0  0
  189.2360  176.0860  142.1810 O   0  0  0  0  0  0  0  0  0  0  0  0
  187.8180  174.3620  140.4770 O   0  0  0  0  0  0  0  0  0  0  0  0
  192.0250  173.5830  136.7660 C   0  0  0  0  0  1  0  0  0  0  0  0
  189.8760  173.7840  141.5630 C   0  0  1  0  0  3  0  0  0  0  0  0
  190.7760  173.4300  138.8890 C   0  0  2  0  0  3  0  0  0  0  0  0
  188.7250  175.6650  146.7880 C   0  0  0  0  0  2  0  0  0  0  0  0
  188.3750  176.0400  145.3630 C   0  0  1  0  0  3  0  0  0  0  0  0
  188.0050  176.9660  146.5030 C   0  0  1  0  0  3  0  0  0  0  0  0
  186.5280  176.8050  146.8070 C   0  0  0  0  0  2  0  0  0  0  0  0
  185.8390  178.1180  146.6760 C   0  0  0  0  0  0  0  0  0  0  0  0
  186.0330  178.8950  145.5410 O   0  0  0  0  0  0  0  0  0  0  0  0
  185.1060  178.5410  147.6080 O   0  0  0  0  0  1  0  0  0  0  0  0
  190.8600  178.6760  143.8920 O   0  0  0  0  0  1  0  0  0  0  0  0
  190.1060  178.2400  142.8010 C   0  0  0  0  0  2  0  0  0  0  0  0
  1 19  1  6  0  0  0
  1 10  1  0  0  0  0
  2  9  1  0  0  0  0
  3  2  1  0  0  0  0
  4 20  2  0  0  0  0
  5 15  1  6  0  0  0
  5  4  1  0  0  0  0
  6 32  1  6  0  0  0
  6 14  1  0  0  0  0
  8 21  1  6  0  0  0
  8 23  1  0  0  0  0
 10 11  1  0  0  0  0
 10  7  1  1  0  0  0
 11  9  1  6  0  0  0
 12 18  1  6  0  0  0
 12 22  1  0  0  0  0
 12 17  1  0  0  0  0
 13  8  1  0  0  0  0
 13 15  1  0  0  0  0
 14  7  1  6  0  0  0
 14 25  1  0  0  0  0
 16  3  1  0  0  0  0
 17 16  1  1  0  0  0
 17 11  1  0  0  0  0
 19  6  1  0  0  0  0
 22  4  1  6  0  0  0
 22  1  1  0  0  0  0
 23  5  1  0  0  0  0
 23 18  1  1  0  0  0
 25 26  1  0  0  0  0
 25 24  1  1  0  0  0
 26 24  1  0  0  0  0
 26 27  1  1  0  0  0
 28 27  1  0  0  0  0
 28 30  1  0  0  0  0
 29 28  2  0  0  0  0
 32 31  1  0  0  0  0
M  END
>  <MODEL>
9

>  <REMARK>
 VINA RESULT:      -6.4      3.502      7.394
  Name = 
  4 active torsions:
  status: ('A' for Active; 'I' for Inactive)
    1  A    between atoms: C_7  and  C_19
    2  A    between atoms: C_10  and  C_17
    3  A    between atoms: C_20  and  C_29
    4  A    between atoms: C_29  and  C_30
                            x       y       z     vdW  Elec       q    Type
                         _______ _______ _______ _____ _____    ______ ____

>  <TORSDO>
F 4

$$$$
