=
 OpenBabel11112417303D

 37 42  0  0  1  0  0  0  0  0999 V2000
  191.0760  175.1330  145.8100 C   0  0  1  0  0  3  0  0  0  0  0  0
  188.1040  175.0390  143.8750 C   0  0  0  0  0  2  0  0  0  0  0  0
  193.6210  174.4400  145.8850 C   0  0  2  0  0  3  0  0  0  0  0  0
  190.5160  175.5560  144.4630 C   0  0  2  0  0  3  0  0  0  0  0  0
  192.1650  174.1160  145.4400 C   0  0  2  0  0  3  0  0  0  0  0  0
  189.0620  176.0790  144.4620 C   0  0  2  0  0  3  0  0  0  0  0  0
  193.7400  175.7960  146.5810 C   0  0  0  0  0  2  0  0  0  0  0  0
  192.0090  173.8830  143.9420 C   0  0  0  0  0  2  0  0  0  0  0  0
  190.4960  177.0540  147.3260 C   0  0  0  0  0  2  0  0  0  0  0  0
  192.6410  176.0030  147.4200 O   0  0  0  0  0  0  0  0  0  0  0  0
  188.6520  176.1370  141.7390 O   0  0  0  0  0  0  0  0  0  0  0  0
  188.0310  175.0190  142.3330 C   0  0  1  0  0  3  0  0  0  0  0  0
  191.6100  176.3680  146.5460 C   0  0  1  0  0  3  0  0  0  0  0  0
  190.7120  174.4330  143.5470 N   0  0  2  0  0  0  0  0  0  0  0  0
  188.5460  176.6420  145.8040 C   0  0  1  0  0  3  0  0  0  0  0  0
  189.3040  174.8980  141.5390 C   0  0  2  0  0  3  0  0  0  0  0  0
  190.7010  174.9870  142.1810 C   0  0  2  0  0  3  0  0  0  0  0  0
  189.4840  177.6960  146.3880 C   0  0  0  0  0  2  0  0  0  0  0  0
  186.1300  176.7350  146.4550 C   0  0  0  0  0  3  0  0  0  0  0  0
  187.1720  177.2300  145.6630 C   0  0  0  0  0  0  0  0  0  0  0  0
  186.9160  178.2600  144.7430 C   0  0  0  0  0  3  0  0  0  0  0  0
  185.3780  179.8010  143.7070 O   0  0  0  0  0  1  0  0  0  0  0  0
  184.5860  178.2770  145.4080 C   0  0  0  0  0  3  0  0  0  0  0  0
  185.6260  178.7810  144.6170 C   0  0  0  0  0  0  0  0  0  0  0  0
  184.8390  177.2570  146.3290 C   0  0  0  0  0  3  0  0  0  0  0  0
  191.6970  174.2960  141.2220 C   0  0  0  0  0  2  0  0  0  0  0  0
  191.0820  173.2520  140.3880 N   0  0  0  0  0  0  0  0  0  0  0  0
  190.2290  173.5620  138.1280 C   0  0  0  0  0  1  0  0  0  0  0  0
  191.4700  173.4320  138.9930 C   0  0  0  0  0  2  0  0  0  0  0  0
  191.5450  171.9400  140.8210 C   0  0  0  0  0  2  0  0  0  0  0  0
  190.4020  171.0510  140.9880 N   0  0  0  0  0  2  0  0  0  0  0  0
  189.7890  171.4160  142.1380 O   0  0  0  0  0  1  0  0  0  0  0  0
  194.5270  174.4020  144.8040 O   0  0  0  0  0  0  0  0  0  0  0  0
  195.5870  173.5330  145.1370 C   0  0  0  0  0  0  0  0  0  0  0  0
  196.1990  173.0340  143.9940 F   0  0  0  0  0  0  0  0  0  0  0  0
  196.5290  174.1760  145.9270 F   0  0  0  0  0  0  0  0  0  0  0  0
  195.0690  172.4700  145.8550 F   0  0  0  0  0  0  0  0  0  0  0  0
  1 13  1  0  0  0  0
  2  6  1  0  0  0  0
  3  7  1  0  0  0  0
  4  1  1  0  0  0  0
  5  1  1  0  0  0  0
  5  3  1  0  0  0  0
  6  4  1  0  0  0  0
  6 15  1  0  0  0  0
  7 10  1  0  0  0  0
  8  5  1  0  0  0  0
 11 12  1  0  0  0  0
 12  2  1  0  0  0  0
 13  9  1  0  0  0  0
 13 10  1  0  0  0  0
 14  8  1  0  0  0  0
 14  4  1  0  0  0  0
 15 18  1  0  0  0  0
 16 11  1  0  0  0  0
 16 17  1  0  0  0  0
 16 12  1  0  0  0  0
 17 14  1  0  0  0  0
 18  9  1  0  0  0  0
 20 15  1  0  0  0  0
 20 19  2  0  0  0  0
 21 20  1  0  0  0  0
 22 24  1  0  0  0  0
 23 25  2  0  0  0  0
 24 21  2  0  0  0  0
 24 23  1  0  0  0  0
 25 19  1  0  0  0  0
 26 17  1  0  0  0  0
 27 30  1  0  0  0  0
 27 26  1  0  0  0  0
 28 29  1  0  0  0  0
 29 27  1  0  0  0  0
 30 31  1  0  0  0  0
 31 32  1  0  0  0  0
 33 34  1  0  0  0  0
 33  3  1  0  0  0  0
 34 37  1  0  0  0  0
 34 36  1  0  0  0  0
 35 34  1  0  0  0  0
M  END
>  <MODEL>
1

>  <REMARK>
 VINA RESULT:      -7.1      0.000      0.000
  Name = 
  8 active torsions:
  status: ('A' for Active; 'I' for Inactive)
    1  A    between atoms: C_1  and  N_4
    2  A    between atoms: C_1  and  C_27
    3  A    between atoms: C_2  and  O_22
    4  A    between atoms: N_4  and  C_12
    5  A    between atoms: N_4  and  C_37
    6  A    between atoms: C_6  and  O_22
    7  A    between atoms: N_8  and  C_12
    8  A    between atoms: C_23  and  C_30
                            x       y       z     vdW  Elec       q    Type
                         _______ _______ _______ _____ _____    ______ ____

>  <TORSDO>
F 8

$$$$
=
 OpenBabel11112417303D

 37 42  0  0  1  0  0  0  0  0999 V2000
  190.7020  176.9560  145.0440 C   0  0  1  0  0  3  0  0  0  0  0  0
  193.0940  175.8810  142.6550 C   0  0  0  0  0  2  0  0  0  0  0  0
  188.1500  177.4920  145.4470 C   0  0  2  0  0  3  0  0  0  0  0  0
  191.0260  175.7960  144.1190 C   0  0  2  0  0  3  0  0  0  0  0  0
  189.3770  177.4960  144.4880 C   0  0  2  0  0  3  0  0  0  0  0  0
  192.5190  175.4170  143.9950 C   0  0  2  0  0  3  0  0  0  0  0  0
  188.4630  176.8650  146.8060 C   0  0  0  0  0  2  0  0  0  0  0  0
  189.1490  176.7450  143.1820 C   0  0  0  0  0  2  0  0  0  0  0  0
  191.9760  176.4170  147.1440 C   0  0  0  0  0  2  0  0  0  0  0  0
  189.7370  177.2510  147.2300 O   0  0  0  0  0  0  0  0  0  0  0  0
  192.3230  173.6780  141.8680 O   0  0  0  0  0  0  0  0  0  0  0  0
  192.8220  174.9350  141.4660 C   0  0  1  0  0  3  0  0  0  0  0  0
  190.6040  176.4410  146.4850 C   0  0  1  0  0  3  0  0  0  0  0  0
  190.4120  176.0960  142.8270 N   0  0  2  0  0  0  0  0  0  0  0  0
  193.4200  175.8280  145.1800 C   0  0  1  0  0  3  0  0  0  0  0  0
  191.4070  174.5070  141.1790 C   0  0  2  0  0  3  0  0  0  0  0  0
  190.2330  174.8100  142.1280 C   0  0  2  0  0  3  0  0  0  0  0  0
  192.8650  175.3510  146.5210 C   0  0  0  0  0  2  0  0  0  0  0  0
  195.2320  174.2010  145.7630 C   0  0  0  0  0  3  0  0  0  0  0  0
  194.8190  175.3090  145.0140 C   0  0  0  0  0  0  0  0  0  0  0  0
  195.7180  175.9220  144.1280 C   0  0  0  0  0  3  0  0  0  0  0  0
  197.9060  176.0420  143.1210 O   0  0  0  0  0  1  0  0  0  0  0  0
  197.4300  174.3280  144.7570 C   0  0  0  0  0  3  0  0  0  0  0  0
  197.0200  175.4320  144.0010 C   0  0  0  0  0  0  0  0  0  0  0  0
  196.5350  173.7110  145.6350 C   0  0  0  0  0  3  0  0  0  0  0  0
  188.9330  174.7290  141.2970 C   0  0  0  0  0  2  0  0  0  0  0  0
  188.2570  173.4260  141.3860 N   0  0  0  0  0  0  0  0  0  0  0  0
  188.3900  173.5210  138.9560 C   0  0  0  0  0  1  0  0  0  0  0  0
  188.5230  172.6400  140.1850 C   0  0  0  0  0  2  0  0  0  0  0  0
  188.7660  172.6860  142.5330 C   0  0  0  0  0  2  0  0  0  0  0  0
  189.5020  171.5150  142.0700 N   0  0  0  0  0  2  0  0  0  0  0  0
  190.4700  171.2780  142.9860 O   0  0  0  0  0  1  0  0  0  0  0  0
  187.0400  176.8260  144.8850 O   0  0  0  0  0  0  0  0  0  0  0  0
  185.9160  177.6740  144.9740 C   0  0  0  0  0  0  0  0  0  0  0  0
  186.3020  179.0050  145.0590 F   0  0  0  0  0  0  0  0  0  0  0  0
  185.0740  177.5020  143.8850 F   0  0  0  0  0  0  0  0  0  0  0  0
  185.2160  177.3480  146.1210 F   0  0  0  0  0  0  0  0  0  0  0  0
  1 13  1  0  0  0  0
  2  6  1  0  0  0  0
  3  7  1  0  0  0  0
  4  1  1  0  0  0  0
  5  1  1  0  0  0  0
  5  3  1  0  0  0  0
  6  4  1  0  0  0  0
  6 15  1  0  0  0  0
  7 10  1  0  0  0  0
  8  5  1  0  0  0  0
 12 11  1  0  0  0  0
 12  2  1  0  0  0  0
 13  9  1  0  0  0  0
 13 10  1  0  0  0  0
 14  8  1  0  0  0  0
 14  4  1  0  0  0  0
 15 18  1  0  0  0  0
 16 12  1  0  0  0  0
 16 11  1  0  0  0  0
 16 17  1  0  0  0  0
 17 14  1  0  0  0  0
 18  9  1  0  0  0  0
 20 15  1  0  0  0  0
 20 19  2  0  0  0  0
 21 20  1  0  0  0  0
 22 24  1  0  0  0  0
 23 25  2  0  0  0  0
 24 21  2  0  0  0  0
 24 23  1  0  0  0  0
 25 19  1  0  0  0  0
 26 27  1  0  0  0  0
 26 17  1  0  0  0  0
 27 30  1  0  0  0  0
 28 29  1  0  0  0  0
 29 27  1  0  0  0  0
 31 30  1  0  0  0  0
 31 32  1  0  0  0  0
 33 34  1  0  0  0  0
 33  3  1  0  0  0  0
 34 35  1  0  0  0  0
 34 37  1  0  0  0  0
 36 34  1  0  0  0  0
M  END
>  <MODEL>
2

>  <REMARK>
 VINA RESULT:      -7.1      3.693      6.891
  Name = 
  8 active torsions:
  status: ('A' for Active; 'I' for Inactive)
    1  A    between atoms: C_1  and  N_4
    2  A    between atoms: C_1  and  C_27
    3  A    between atoms: C_2  and  O_22
    4  A    between atoms: N_4  and  C_12
    5  A    between atoms: N_4  and  C_37
    6  A    between atoms: C_6  and  O_22
    7  A    between atoms: N_8  and  C_12
    8  A    between atoms: C_23  and  C_30
                            x       y       z     vdW  Elec       q    Type
                         _______ _______ _______ _____ _____    ______ ____

>  <TORSDO>
F 8

$$$$
=
 OpenBabel11112417303D

 37 42  0  0  1  0  0  0  0  0999 V2000
  190.0270  176.7930  145.2030 C   0  0  1  0  0  3  0  0  0  0  0  0
  192.3780  175.1140  143.1440 C   0  0  0  0  0  2  0  0  0  0  0  0
  187.5730  177.7540  145.3290 C   0  0  2  0  0  3  0  0  0  0  0  0
  190.2240  175.5050  144.4240 C   0  0  2  0  0  3  0  0  0  0  0  0
  188.8490  177.4680  144.4860 C   0  0  2  0  0  3  0  0  0  0  0  0
  191.6410  174.8900  144.4670 C   0  0  2  0  0  3  0  0  0  0  0  0
  187.6830  177.2370  146.7640 C   0  0  0  0  0  2  0  0  0  0  0  0
  188.5970  176.6250  143.2410 C   0  0  0  0  0  2  0  0  0  0  0  0
  191.0450  176.2930  147.4480 C   0  0  0  0  0  2  0  0  0  0  0  0
  188.9700  177.4660  147.2590 O   0  0  0  0  0  0  0  0  0  0  0  0
  191.3190  172.9840  142.5050 O   0  0  0  0  0  0  0  0  0  0  0  0
  192.0410  174.0990  142.0310 C   0  0  1  0  0  3  0  0  0  0  0  0
  189.7450  176.4570  146.6730 C   0  0  1  0  0  3  0  0  0  0  0  0
  189.7600  175.7550  143.0600 N   0  0  2  0  0  0  0  0  0  0  0  0
  192.5100  175.2820  145.6820 C   0  0  1  0  0  3  0  0  0  0  0  0
  190.6000  173.8650  141.6630 C   0  0  2  0  0  3  0  0  0  0  0  0
  189.4260  174.4440  142.4740 C   0  0  2  0  0  3  0  0  0  0  0  0
  191.7920  175.0420  147.0080 C   0  0  0  0  0  2  0  0  0  0  0  0
  195.0130  175.2610  145.7590 C   0  0  0  0  0  3  0  0  0  0  0  0
  193.8150  174.5400  145.6880 C   0  0  0  0  0  0  0  0  0  0  0  0
  193.8520  173.1380  145.6130 C   0  0  0  0  0  3  0  0  0  0  0  0
  195.1090  171.0830  145.5310 O   0  0  0  0  0  1  0  0  0  0  0  0
  196.2730  173.1960  145.6690 C   0  0  0  0  0  3  0  0  0  0  0  0
  195.0780  172.4700  145.6040 C   0  0  0  0  0  0  0  0  0  0  0  0
  196.2400  174.5910  145.7510 C   0  0  0  0  0  3  0  0  0  0  0  0
  188.1920  174.4750  141.5430 C   0  0  0  0  0  2  0  0  0  0  0  0
  188.5210  174.2860  140.1230 N   0  0  0  0  0  0  0  0  0  0  0  0
  188.8800  172.6090  138.3940 C   0  0  0  0  0  1  0  0  0  0  0  0
  188.1900  172.9270  139.7090 C   0  0  0  0  0  2  0  0  0  0  0  0
  187.7410  175.2100  139.3100 C   0  0  0  0  0  2  0  0  0  0  0  0
  187.3490  176.3590  140.1180 N   0  0  0  0  0  2  0  0  0  0  0  0
  186.5850  177.1480  139.3260 O   0  0  0  0  0  1  0  0  0  0  0  0
  186.4130  177.2110  144.7380 O   0  0  0  0  0  0  0  0  0  0  0  0
  185.3930  178.1850  144.7720 C   0  0  0  0  0  0  0  0  0  0  0  0
  185.9230  179.4530  144.9710 F   0  0  0  0  0  0  0  0  0  0  0  0
  184.6490  178.1690  143.6020 F   0  0  0  0  0  0  0  0  0  0  0  0
  184.5490  177.8930  145.8290 F   0  0  0  0  0  0  0  0  0  0  0  0
  1 13  1  0  0  0  0
  2  6  1  0  0  0  0
  3  7  1  0  0  0  0
  4  6  1  0  0  0  0
  4  1  1  0  0  0  0
  5  1  1  0  0  0  0
  5  3  1  0  0  0  0
  6 15  1  0  0  0  0
  7 10  1  0  0  0  0
  8  5  1  0  0  0  0
 12 11  1  0  0  0  0
 12  2  1  0  0  0  0
 13 10  1  0  0  0  0
 13  9  1  0  0  0  0
 14  8  1  0  0  0  0
 14  4  1  0  0  0  0
 15 20  1  0  0  0  0
 15 18  1  0  0  0  0
 16 12  1  0  0  0  0
 16 17  1  0  0  0  0
 16 11  1  0  0  0  0
 17 14  1  0  0  0  0
 18  9  1  0  0  0  0
 20 19  2  0  0  0  0
 21 20  1  0  0  0  0
 22 24  1  0  0  0  0
 23 25  2  0  0  0  0
 24 21  2  0  0  0  0
 24 23  1  0  0  0  0
 25 19  1  0  0  0  0
 26 17  1  0  0  0  0
 27 26  1  0  0  0  0
 28 29  1  0  0  0  0
 29 27  1  0  0  0  0
 30 31  1  0  0  0  0
 30 27  1  0  0  0  0
 32 31  1  0  0  0  0
 33 34  1  0  0  0  0
 33  3  1  0  0  0  0
 34 35  1  0  0  0  0
 34 37  1  0  0  0  0
 36 34  1  0  0  0  0
M  END
>  <MODEL>
3

>  <REMARK>
 VINA RESULT:      -7.0      3.872      7.102
  Name = 
  8 active torsions:
  status: ('A' for Active; 'I' for Inactive)
    1  A    between atoms: C_1  and  N_4
    2  A    between atoms: C_1  and  C_27
    3  A    between atoms: C_2  and  O_22
    4  A    between atoms: N_4  and  C_12
    5  A    between atoms: N_4  and  C_37
    6  A    between atoms: C_6  and  O_22
    7  A    between atoms: N_8  and  C_12
    8  A    between atoms: C_23  and  C_30
                            x       y       z     vdW  Elec       q    Type
                         _______ _______ _______ _____ _____    ______ ____

>  <TORSDO>
F 8

$$$$
=
 OpenBabel11112417303D

 37 42  0  0  1  0  0  0  0  0999 V2000
  190.3750  176.9790  145.0890 C   0  0  1  0  0  3  0  0  0  0  0  0
  192.6790  175.7260  142.6990 C   0  0  0  0  0  2  0  0  0  0  0  0
  187.8370  177.5390  145.5470 C   0  0  2  0  0  3  0  0  0  0  0  0
  190.6680  175.7510  144.2450 C   0  0  2  0  0  3  0  0  0  0  0  0
  189.0260  177.4710  144.5440 C   0  0  2  0  0  3  0  0  0  0  0  0
  192.1580  175.3670  144.0920 C   0  0  2  0  0  3  0  0  0  0  0  0
  188.2060  177.0210  146.9380 C   0  0  0  0  0  2  0  0  0  0  0  0
  188.7530  176.6200  143.3100 C   0  0  0  0  0  2  0  0  0  0  0  0
  191.7310  176.6070  147.1730 C   0  0  0  0  0  2  0  0  0  0  0  0
  189.4930  177.4410  147.2810 O   0  0  0  0  0  0  0  0  0  0  0  0
  191.8890  173.4670  142.1170 O   0  0  0  0  0  0  0  0  0  0  0  0
  192.3650  174.6900  141.5990 C   0  0  1  0  0  3  0  0  0  0  0  0
  190.3340  176.5780  146.5680 C   0  0  1  0  0  3  0  0  0  0  0  0
  190.0030  175.9480  142.9580 N   0  0  2  0  0  0  0  0  0  0  0  0
  193.1020  175.8700  145.2070 C   0  0  1  0  0  3  0  0  0  0  0  0
  190.9430  174.2380  141.4010 C   0  0  2  0  0  3  0  0  0  0  0  0
  189.8040  174.6110  142.3690 C   0  0  2  0  0  3  0  0  0  0  0  0
  192.6020  175.4980  146.6000 C   0  0  0  0  0  2  0  0  0  0  0  0
  194.8820  174.1830  145.7080 C   0  0  0  0  0  3  0  0  0  0  0  0
  194.4950  175.3430  145.0270 C   0  0  0  0  0  0  0  0  0  0  0  0
  195.4170  175.9990  144.1950 C   0  0  0  0  0  3  0  0  0  0  0  0
  197.6210  176.1510  143.2300 O   0  0  0  0  0  1  0  0  0  0  0  0
  197.0970  174.3420  144.7450 C   0  0  0  0  0  3  0  0  0  0  0  0
  196.7140  175.4990  144.0560 C   0  0  0  0  0  0  0  0  0  0  0  0
  196.1800  173.6830  145.5680 C   0  0  0  0  0  3  0  0  0  0  0  0
  188.4740  174.4630  141.5970 C   0  0  0  0  0  2  0  0  0  0  0  0
  188.6480  174.3370  140.1430 N   0  0  0  0  0  0  0  0  0  0  0  0
  188.4820  172.8660  138.2090 C   0  0  0  0  0  1  0  0  0  0  0  0
  188.3200  172.9810  139.7140 C   0  0  0  0  0  2  0  0  0  0  0  0
  187.7490  175.2570  139.4580 C   0  0  0  0  0  2  0  0  0  0  0  0
  187.2980  176.2830  140.3910 N   0  0  0  0  0  2  0  0  0  0  0  0
  186.7640  177.2780  139.6450 O   0  0  0  0  0  1  0  0  0  0  0  0
  186.7100  176.8300  145.0820 O   0  0  0  0  0  0  0  0  0  0  0  0
  185.6080  177.7090  145.0510 C   0  0  0  0  0  0  0  0  0  0  0  0
  184.6580  177.3490  145.9990 F   0  0  0  0  0  0  0  0  0  0  0  0
  186.0090  179.0190  145.2680 F   0  0  0  0  0  0  0  0  0  0  0  0
  185.0260  177.6330  143.7990 F   0  0  0  0  0  0  0  0  0  0  0  0
  1 13  1  0  0  0  0
  2  6  1  0  0  0  0
  3  7  1  0  0  0  0
  4  1  1  0  0  0  0
  5  1  1  0  0  0  0
  5  3  1  0  0  0  0
  6  4  1  0  0  0  0
  6 15  1  0  0  0  0
  7 10  1  0  0  0  0
  8  5  1  0  0  0  0
 12 11  1  0  0  0  0
 12  2  1  0  0  0  0
 13  9  1  0  0  0  0
 13 10  1  0  0  0  0
 14  8  1  0  0  0  0
 14  4  1  0  0  0  0
 15 18  1  0  0  0  0
 16 12  1  0  0  0  0
 16 11  1  0  0  0  0
 16 17  1  0  0  0  0
 17 14  1  0  0  0  0
 18  9  1  0  0  0  0
 20 15  1  0  0  0  0
 20 19  2  0  0  0  0
 21 20  1  0  0  0  0
 22 24  1  0  0  0  0
 23 25  2  0  0  0  0
 24 21  2  0  0  0  0
 24 23  1  0  0  0  0
 25 19  1  0  0  0  0
 26 17  1  0  0  0  0
 27 26  1  0  0  0  0
 28 29  1  0  0  0  0
 29 27  1  0  0  0  0
 30 27  1  0  0  0  0
 30 31  1  0  0  0  0
 32 31  1  0  0  0  0
 33  3  1  0  0  0  0
 34 33  1  0  0  0  0
 34 36  1  0  0  0  0
 34 35  1  0  0  0  0
 37 34  1  0  0  0  0
M  END
>  <MODEL>
4

>  <REMARK>
 VINA RESULT:      -6.9      3.830      7.038
  Name = 
  8 active torsions:
  status: ('A' for Active; 'I' for Inactive)
    1  A    between atoms: C_1  and  N_4
    2  A    between atoms: C_1  and  C_27
    3  A    between atoms: C_2  and  O_22
    4  A    between atoms: N_4  and  C_12
    5  A    between atoms: N_4  and  C_37
    6  A    between atoms: C_6  and  O_22
    7  A    between atoms: N_8  and  C_12
    8  A    between atoms: C_23  and  C_30
                            x       y       z     vdW  Elec       q    Type
                         _______ _______ _______ _____ _____    ______ ____

>  <TORSDO>
F 8

$$$$
=
 OpenBabel11112417303D

 37 42  0  0  1  0  0  0  0  0999 V2000
  191.6390  174.9750  145.6860 C   0  0  1  0  0  3  0  0  0  0  0  0
  188.6300  174.6390  143.8360 C   0  0  0  0  0  2  0  0  0  0  0  0
  194.2020  174.3520  145.7630 C   0  0  2  0  0  3  0  0  0  0  0  0
  191.0400  175.2630  144.3200 C   0  0  2  0  0  3  0  0  0  0  0  0
  192.7450  173.9550  145.3820 C   0  0  2  0  0  3  0  0  0  0  0  0
  189.5720  175.7490  144.3070 C   0  0  2  0  0  3  0  0  0  0  0  0
  194.3000  175.7670  146.3320 C   0  0  0  0  0  2  0  0  0  0  0  0
  192.5630  173.5860  143.9150 C   0  0  0  0  0  2  0  0  0  0  0  0
  191.0420  177.0090  147.0390 C   0  0  0  0  0  2  0  0  0  0  0  0
  193.2140  176.0220  147.1750 O   0  0  0  0  0  0  0  0  0  0  0  0
  189.1040  175.5550  141.6000 O   0  0  0  0  0  0  0  0  0  0  0  0
  188.5240  174.4790  142.3050 C   0  0  1  0  0  3  0  0  0  0  0  0
  192.1560  176.2830  146.2970 C   0  0  1  0  0  3  0  0  0  0  0  0
  191.2440  174.0680  143.5030 N   0  0  2  0  0  0  0  0  0  0  0  0
  189.0710  176.4170  145.6060 C   0  0  1  0  0  3  0  0  0  0  0  0
  189.7830  174.3190  141.4950 C   0  0  2  0  0  3  0  0  0  0  0  0
  191.1910  174.4980  142.0940 C   0  0  2  0  0  3  0  0  0  0  0  0
  189.9930  177.5410  146.0720 C   0  0  0  0  0  2  0  0  0  0  0  0
  186.6620  176.4890  146.2830 C   0  0  0  0  0  3  0  0  0  0  0  0
  187.6800  176.9570  145.4450 C   0  0  0  0  0  0  0  0  0  0  0  0
  187.3830  177.9160  144.4630 C   0  0  0  0  0  3  0  0  0  0  0  0
  185.7910  179.3420  143.3480 O   0  0  0  0  0  1  0  0  0  0  0  0
  185.0620  177.9150  145.1580 C   0  0  0  0  0  3  0  0  0  0  0  0
  186.0780  178.3920  144.3210 C   0  0  0  0  0  0  0  0  0  0  0  0
  185.3550  176.9660  146.1410 C   0  0  0  0  0  3  0  0  0  0  0  0
  192.1830  173.7480  141.1770 C   0  0  0  0  0  2  0  0  0  0  0  0
  193.0460  174.6400  140.3890 N   0  0  0  0  0  0  0  0  0  0  0  0
  194.6480  175.9710  141.6510 C   0  0  0  0  0  1  0  0  0  0  0  0
  194.3950  174.6510  140.9430 C   0  0  0  0  0  2  0  0  0  0  0  0
  193.1250  174.1600  139.0150 C   0  0  0  0  0  2  0  0  0  0  0  0
  191.9400  173.3690  138.7060 N   0  0  0  0  0  2  0  0  0  0  0  0
  192.3340  172.3980  137.8490 O   0  0  0  0  0  1  0  0  0  0  0  0
  195.0850  174.2400  144.6690 O   0  0  0  0  0  0  0  0  0  0  0  0
  196.1610  173.4080  145.0430 C   0  0  0  0  0  0  0  0  0  0  0  0
  197.1000  174.1130  145.7850 F   0  0  0  0  0  0  0  0  0  0  0  0
  195.7150  172.3160  145.7740 F   0  0  0  0  0  0  0  0  0  0  0  0
  196.7710  172.9430  143.8930 F   0  0  0  0  0  0  0  0  0  0  0  0
  1 13  1  0  0  0  0
  2  6  1  0  0  0  0
  3  7  1  0  0  0  0
  4  1  1  0  0  0  0
  5  1  1  0  0  0  0
  5  3  1  0  0  0  0
  6  4  1  0  0  0  0
  6 15  1  0  0  0  0
  7 10  1  0  0  0  0
  8  5  1  0  0  0  0
 11 12  1  0  0  0  0
 12  2  1  0  0  0  0
 13  9  1  0  0  0  0
 13 10  1  0  0  0  0
 14  8  1  0  0  0  0
 14  4  1  0  0  0  0
 15 18  1  0  0  0  0
 16 11  1  0  0  0  0
 16 17  1  0  0  0  0
 16 12  1  0  0  0  0
 17 14  1  0  0  0  0
 18  9  1  0  0  0  0
 20 15  1  0  0  0  0
 20 19  2  0  0  0  0
 21 20  1  0  0  0  0
 22 24  1  0  0  0  0
 23 25  2  0  0  0  0
 24 21  2  0  0  0  0
 24 23  1  0  0  0  0
 25 19  1  0  0  0  0
 26 17  1  0  0  0  0
 27 29  1  0  0  0  0
 27 26  1  0  0  0  0
 29 28  1  0  0  0  0
 30 27  1  0  0  0  0
 31 30  1  0  0  0  0
 32 31  1  0  0  0  0
 33 34  1  0  0  0  0
 33  3  1  0  0  0  0
 34 36  1  0  0  0  0
 34 35  1  0  0  0  0
 37 34  1  0  0  0  0
M  END
>  <MODEL>
5

>  <REMARK>
 VINA RESULT:      -6.7      1.380      1.909
  Name = 
  8 active torsions:
  status: ('A' for Active; 'I' for Inactive)
    1  A    between atoms: C_1  and  N_4
    2  A    between atoms: C_1  and  C_27
    3  A    between atoms: C_2  and  O_22
    4  A    between atoms: N_4  and  C_12
    5  A    between atoms: N_4  and  C_37
    6  A    between atoms: C_6  and  O_22
    7  A    between atoms: N_8  and  C_12
    8  A    between atoms: C_23  and  C_30
                            x       y       z     vdW  Elec       q    Type
                         _______ _______ _______ _____ _____    ______ ____

>  <TORSDO>
F 8

$$$$
=
 OpenBabel11112417303D

 37 42  0  0  1  0  0  0  0  0999 V2000
  186.2820  176.9480  143.1070 C   0  0  1  0  0  3  0  0  0  0  0  0
  188.6850  174.5810  142.0050 C   0  0  0  0  0  2  0  0  0  0  0  0
  185.5200  178.4620  145.1300 C   0  0  2  0  0  3  0  0  0  0  0  0
  187.7770  176.7730  142.9020 C   0  0  2  0  0  3  0  0  0  0  0  0
  186.1500  177.1300  144.6260 C   0  0  2  0  0  3  0  0  0  0  0  0
  188.2060  175.9890  141.6410 C   0  0  2  0  0  3  0  0  0  0  0  0
  185.1890  179.4280  143.9910 C   0  0  0  0  0  2  0  0  0  0  0  0
  187.5370  176.8450  145.1900 C   0  0  0  0  0  2  0  0  0  0  0  0
  185.4630  177.7460  140.8680 C   0  0  0  0  0  2  0  0  0  0  0  0
  184.6710  178.7240  142.9010 O   0  0  0  0  0  0  0  0  0  0  0  0
  190.8760  175.6810  142.2410 O   0  0  0  0  0  0  0  0  0  0  0  0
  190.1510  174.4950  142.4790 C   0  0  1  0  0  3  0  0  0  0  0  0
  185.7980  178.1560  142.2960 C   0  0  1  0  0  3  0  0  0  0  0  0
  188.3130  176.1950  144.1330 N   0  0  2  0  0  0  0  0  0  0  0  0
  187.1860  175.9670  140.4810 C   0  0  1  0  0  3  0  0  0  0  0  0
  190.6140  175.3880  143.6000 C   0  0  2  0  0  3  0  0  0  0  0  0
  189.7490  176.5270  144.1730 C   0  0  2  0  0  3  0  0  0  0  0  0
  186.7180  177.3680  140.0960 C   0  0  0  0  0  2  0  0  0  0  0  0
  187.3640  175.7240  137.9960 C   0  0  0  0  0  3  0  0  0  0  0  0
  187.7480  175.2850  139.2680 C   0  0  0  0  0  0  0  0  0  0  0  0
  188.6430  174.2100  139.3890 C   0  0  0  0  0  3  0  0  0  0  0  0
  190.0270  172.5170  138.3730 O   0  0  0  0  0  1  0  0  0  0  0  0
  188.7480  174.0190  136.9770 C   0  0  0  0  0  3  0  0  0  0  0  0
  189.1410  173.5800  138.2460 C   0  0  0  0  0  0  0  0  0  0  0  0
  187.8630  175.0940  136.8510 C   0  0  0  0  0  3  0  0  0  0  0  0
  190.2760  176.8390  145.5910 C   0  0  0  0  0  2  0  0  0  0  0  0
  190.9040  175.6870  146.2530 N   0  0  0  0  0  0  0  0  0  0  0  0
  193.1760  174.8100  146.2130 C   0  0  0  0  0  1  0  0  0  0  0  0
  192.2930  175.9910  146.5790 C   0  0  0  0  0  2  0  0  0  0  0  0
  190.2030  175.3910  147.4960 C   0  0  0  0  0  2  0  0  0  0  0  0
  189.1040  174.4710  147.2290 N   0  0  0  0  0  2  0  0  0  0  0  0
  189.5330  173.6220  146.2650 O   0  0  0  0  0  1  0  0  0  0  0  0
  186.3490  179.1220  146.0600 O   0  0  0  0  0  0  0  0  0  0  0  0
  185.7600  179.0200  147.3380 C   0  0  0  0  0  0  0  0  0  0  0  0
  186.2330  177.9040  148.0160 F   0  0  0  0  0  0  0  0  0  0  0  0
  186.0030  180.1600  148.0900 F   0  0  0  0  0  0  0  0  0  0  0  0
  184.3930  178.8880  147.1770 F   0  0  0  0  0  0  0  0  0  0  0  0
  1  5  1  0  0  0  0
  2 12  1  0  0  0  0
  3 33  1  0  0  0  0
  4  1  1  0  0  0  0
  4 14  1  0  0  0  0
  5  3  1  0  0  0  0
  5  8  1  0  0  0  0
  6  2  1  0  0  0  0
  6  4  1  0  0  0  0
  7  3  1  0  0  0  0
  9 13  1  0  0  0  0
 10  7  1  0  0  0  0
 11 12  1  0  0  0  0
 11 16  1  0  0  0  0
 12 16  1  0  0  0  0
 13 10  1  0  0  0  0
 13  1  1  0  0  0  0
 14 17  1  0  0  0  0
 14  8  1  0  0  0  0
 15  6  1  0  0  0  0
 16 17  1  0  0  0  0
 17 26  1  0  0  0  0
 18 15  1  0  0  0  0
 18  9  1  0  0  0  0
 19 20  1  0  0  0  0
 20 21  2  0  0  0  0
 20 15  1  0  0  0  0
 23 24  2  0  0  0  0
 24 22  1  0  0  0  0
 24 21  1  0  0  0  0
 25 23  1  0  0  0  0
 25 19  2  0  0  0  0
 26 27  1  0  0  0  0
 27 29  1  0  0  0  0
 27 30  1  0  0  0  0
 28 29  1  0  0  0  0
 31 30  1  0  0  0  0
 32 31  1  0  0  0  0
 33 34  1  0  0  0  0
 34 35  1  0  0  0  0
 34 36  1  0  0  0  0
 37 34  1  0  0  0  0
M  END
>  <MODEL>
6

>  <REMARK>
 VINA RESULT:      -6.5      4.033      7.720
  Name = 
  8 active torsions:
  status: ('A' for Active; 'I' for Inactive)
    1  A    between atoms: C_1  and  N_4
    2  A    between atoms: C_1  and  C_27
    3  A    between atoms: C_2  and  O_22
    4  A    between atoms: N_4  and  C_12
    5  A    between atoms: N_4  and  C_37
    6  A    between atoms: C_6  and  O_22
    7  A    between atoms: N_8  and  C_12
    8  A    between atoms: C_23  and  C_30
                            x       y       z     vdW  Elec       q    Type
                         _______ _______ _______ _____ _____    ______ ____

>  <TORSDO>
F 8

$$$$
=
 OpenBabel11112417303D

 37 42  0  0  1  0  0  0  0  0999 V2000
  186.6040  178.5180  144.1130 C   0  0  1  0  0  3  0  0  0  0  0  0
  190.0010  177.5260  144.3660 C   0  0  0  0  0  2  0  0  0  0  0  0
  184.5060  178.6310  142.5170 C   0  0  2  0  0  3  0  0  0  0  0  0
  187.5040  177.3010  143.9840 C   0  0  2  0  0  3  0  0  0  0  0  0
  186.0510  178.7040  142.6930 C   0  0  2  0  0  3  0  0  0  0  0  0
  188.6540  177.1910  145.0110 C   0  0  2  0  0  3  0  0  0  0  0  0
  183.7760  178.3070  143.8210 C   0  0  0  0  0  2  0  0  0  0  0  0
  186.8240  177.7190  141.8250 C   0  0  0  0  0  2  0  0  0  0  0  0
  186.0300  178.5770  146.5610 C   0  0  0  0  0  2  0  0  0  0  0  0
  184.3730  178.9860  144.8870 O   0  0  0  0  0  0  0  0  0  0  0  0
  190.0440  175.1190  143.8440 O   0  0  0  0  0  0  0  0  0  0  0  0
  190.6620  176.3620  143.5970 C   0  0  1  0  0  3  0  0  0  0  0  0
  185.5240  178.2390  145.1650 C   0  0  1  0  0  3  0  0  0  0  0  0
  187.9780  177.2650  142.6020 N   0  0  2  0  0  0  0  0  0  0  0  0
  188.4480  177.9500  146.3400 C   0  0  1  0  0  3  0  0  0  0  0  0
  189.8700  175.6380  142.5400 C   0  0  2  0  0  3  0  0  0  0  0  0
  188.3640  175.8710  142.3170 C   0  0  2  0  0  3  0  0  0  0  0  0
  187.1150  177.6060  147.0020 C   0  0  0  0  0  2  0  0  0  0  0  0
  189.8690  178.6330  148.2850 C   0  0  0  0  0  3  0  0  0  0  0  0
  189.5620  177.6790  147.3080 C   0  0  0  0  0  0  0  0  0  0  0  0
  190.3070  176.4900  147.2410 C   0  0  0  0  0  3  0  0  0  0  0  0
  192.0830  175.0870  148.0730 O   0  0  0  0  0  1  0  0  0  0  0  0
  191.6570  177.2270  149.1130 C   0  0  0  0  0  3  0  0  0  0  0  0
  191.3500  176.2660  148.1420 C   0  0  0  0  0  0  0  0  0  0  0  0
  190.9130  178.4080  149.1870 C   0  0  0  0  0  3  0  0  0  0  0  0
  188.0330  175.4150  140.8780 C   0  0  0  0  0  2  0  0  0  0  0  0
  188.7450  174.1960  140.4690 N   0  0  0  0  0  0  0  0  0  0  0  0
  189.0950  172.2450  141.8840 C   0  0  0  0  0  1  0  0  0  0  0  0
  188.0980  173.0210  141.0410 C   0  0  0  0  0  2  0  0  0  0  0  0
  188.7110  174.0710  139.0170 C   0  0  0  0  0  2  0  0  0  0  0  0
  189.9040  173.3680  138.5600 N   0  0  0  0  0  2  0  0  0  0  0  0
  189.9950  173.5840  137.2270 O   0  0  0  0  0  1  0  0  0  0  0  0
  184.1280  177.6890  141.5380 O   0  0  0  0  0  0  0  0  0  0  0  0
  183.4890  178.3710  140.4810 C   0  0  0  0  0  0  0  0  0  0  0  0
  182.3230  178.9860  140.9200 F   0  0  0  0  0  0  0  0  0  0  0  0
  184.3310  179.3180  139.9180 F   0  0  0  0  0  0  0  0  0  0  0  0
  183.1570  177.4480  139.5060 F   0  0  0  0  0  0  0  0  0  0  0  0
  1 13  1  0  0  0  0
  2  6  1  0  0  0  0
  3  5  1  0  0  0  0
  3  7  1  0  0  0  0
  4  1  1  0  0  0  0
  4  6  1  0  0  0  0
  5  1  1  0  0  0  0
  6 15  1  0  0  0  0
  7 10  1  0  0  0  0
  8 14  1  0  0  0  0
  8  5  1  0  0  0  0
  9 18  1  0  0  0  0
 10 13  1  0  0  0  0
 12 11  1  0  0  0  0
 12  2  1  0  0  0  0
 13  9  1  0  0  0  0
 14  4  1  0  0  0  0
 15 18  1  0  0  0  0
 15 20  1  0  0  0  0
 16 12  1  0  0  0  0
 16 11  1  0  0  0  0
 17 16  1  0  0  0  0
 17 14  1  0  0  0  0
 19 25  1  0  0  0  0
 20 19  2  0  0  0  0
 21 20  1  0  0  0  0
 21 24  2  0  0  0  0
 22 24  1  0  0  0  0
 23 25  2  0  0  0  0
 24 23  1  0  0  0  0
 26 17  1  0  0  0  0
 27 26  1  0  0  0  0
 27 29  1  0  0  0  0
 29 28  1  0  0  0  0
 30 27  1  0  0  0  0
 31 30  1  0  0  0  0
 32 31  1  0  0  0  0
 33  3  1  0  0  0  0
 34 35  1  0  0  0  0
 34 33  1  0  0  0  0
 36 34  1  0  0  0  0
 37 34  1  0  0  0  0
M  END
>  <MODEL>
7

>  <REMARK>
 VINA RESULT:      -6.5      4.678      7.318
  Name = 
  8 active torsions:
  status: ('A' for Active; 'I' for Inactive)
    1  A    between atoms: C_1  and  N_4
    2  A    between atoms: C_1  and  C_27
    3  A    between atoms: C_2  and  O_22
    4  A    between atoms: N_4  and  C_12
    5  A    between atoms: N_4  and  C_37
    6  A    between atoms: C_6  and  O_22
    7  A    between atoms: N_8  and  C_12
    8  A    between atoms: C_23  and  C_30
                            x       y       z     vdW  Elec       q    Type
                         _______ _______ _______ _____ _____    ______ ____

>  <TORSDO>
F 8

$$$$
=
 OpenBabel11112417303D

 37 42  0  0  1  0  0  0  0  0999 V2000
  187.2190  176.0860  144.1110 C   0  0  1  0  0  3  0  0  0  0  0  0
  189.3820  173.3360  143.5230 C   0  0  0  0  0  2  0  0  0  0  0  0
  186.4030  177.8400  145.9050 C   0  0  2  0  0  3  0  0  0  0  0  0
  188.6860  175.6930  144.1480 C   0  0  2  0  0  3  0  0  0  0  0  0
  186.8970  176.4000  145.5790 C   0  0  2  0  0  3  0  0  0  0  0  0
  189.1730  174.7630  143.0130 C   0  0  2  0  0  3  0  0  0  0  0  0
  186.3860  178.7520  144.6780 C   0  0  0  0  0  2  0  0  0  0  0  0
  188.1310  175.9720  146.3640 C   0  0  0  0  0  2  0  0  0  0  0  0
  186.8580  176.8160  141.7320 C   0  0  0  0  0  2  0  0  0  0  0  0
  185.9330  178.0450  143.5610 O   0  0  0  0  0  0  0  0  0  0  0  0
  191.6540  174.1400  144.0330 O   0  0  0  0  0  0  0  0  0  0  0  0
  190.7360  173.0860  144.2220 C   0  0  1  0  0  3  0  0  0  0  0  0
  187.0400  177.2830  143.1690 C   0  0  1  0  0  3  0  0  0  0  0  0
  188.9480  175.1430  145.4770 N   0  0  2  0  0  0  0  0  0  0  0  0
  188.3400  174.7920  141.7130 C   0  0  1  0  0  3  0  0  0  0  0  0
  191.1580  173.9900  145.3490 C   0  0  2  0  0  3  0  0  0  0  0  0
  190.3960  175.2770  145.7190 C   0  0  2  0  0  3  0  0  0  0  0  0
  188.1430  176.2110  141.1840 C   0  0  0  0  0  2  0  0  0  0  0  0
  188.1610  173.0720  139.9030 C   0  0  0  0  0  3  0  0  0  0  0  0
  188.9650  173.9490  140.6400 C   0  0  0  0  0  0  0  0  0  0  0  0
  190.3410  174.0210  140.3720 C   0  0  0  0  0  3  0  0  0  0  0  0
  192.2660  173.2900  139.1170 O   0  0  0  0  0  1  0  0  0  0  0  0
  190.0970  172.3340  138.6500 C   0  0  0  0  0  3  0  0  0  0  0  0
  190.9040  173.2150  139.3790 C   0  0  0  0  0  0  0  0  0  0  0  0
  188.7250  172.2660  138.9090 C   0  0  0  0  0  3  0  0  0  0  0  0
  190.7530  175.6220  147.1820 C   0  0  0  0  0  2  0  0  0  0  0  0
  191.6970  176.7410  147.3090 N   0  0  0  0  0  0  0  0  0  0  0  0
  190.3150  178.3180  148.5490 C   0  0  0  0  0  1  0  0  0  0  0  0
  191.5240  177.4000  148.6000 C   0  0  0  0  0  2  0  0  0  0  0  0
  193.0640  176.2420  147.2360 C   0  0  0  0  0  2  0  0  0  0  0  0
  193.8560  177.1130  146.3750 N   0  0  0  0  0  2  0  0  0  0  0  0
  193.5610  176.7710  145.0990 O   0  0  0  0  0  1  0  0  0  0  0  0
  187.1770  178.4500  146.9150 O   0  0  0  0  0  0  0  0  0  0  0  0
  186.3440  178.7150  148.0210 C   0  0  0  0  0  0  0  0  0  0  0  0
  187.0280  179.4200  149.0020 F   0  0  0  0  0  0  0  0  0  0  0  0
  185.2160  179.4250  147.6370 F   0  0  0  0  0  0  0  0  0  0  0  0
  185.9350  177.5060  148.5570 F   0  0  0  0  0  0  0  0  0  0  0  0
  1  4  1  0  0  0  0
  1  5  1  0  0  0  0
  2 12  1  0  0  0  0
  3 33  1  0  0  0  0
  4 14  1  0  0  0  0
  5  3  1  0  0  0  0
  5  8  1  0  0  0  0
  6  2  1  0  0  0  0
  6  4  1  0  0  0  0
  7  3  1  0  0  0  0
  9 13  1  0  0  0  0
 10  7  1  0  0  0  0
 11 12  1  0  0  0  0
 11 16  1  0  0  0  0
 12 16  1  0  0  0  0
 13 10  1  0  0  0  0
 13  1  1  0  0  0  0
 14 17  1  0  0  0  0
 14  8  1  0  0  0  0
 15  6  1  0  0  0  0
 16 17  1  0  0  0  0
 17 26  1  0  0  0  0
 18 15  1  0  0  0  0
 18  9  1  0  0  0  0
 19 20  1  0  0  0  0
 20 15  1  0  0  0  0
 21 20  2  0  0  0  0
 22 24  1  0  0  0  0
 23 25  1  0  0  0  0
 23 24  2  0  0  0  0
 24 21  1  0  0  0  0
 25 19  2  0  0  0  0
 26 27  1  0  0  0  0
 27 29  1  0  0  0  0
 28 29  1  0  0  0  0
 30 27  1  0  0  0  0
 31 30  1  0  0  0  0
 32 31  1  0  0  0  0
 33 34  1  0  0  0  0
 34 37  1  0  0  0  0
 34 35  1  0  0  0  0
 36 34  1  0  0  0  0
M  END
>  <MODEL>
8

>  <REMARK>
 VINA RESULT:      -6.5      3.960      7.685
  Name = 
  8 active torsions:
  status: ('A' for Active; 'I' for Inactive)
    1  A    between atoms: C_1  and  N_4
    2  A    between atoms: C_1  and  C_27
    3  A    between atoms: C_2  and  O_22
    4  A    between atoms: N_4  and  C_12
    5  A    between atoms: N_4  and  C_37
    6  A    between atoms: C_6  and  O_22
    7  A    between atoms: N_8  and  C_12
    8  A    between atoms: C_23  and  C_30
                            x       y       z     vdW  Elec       q    Type
                         _______ _______ _______ _____ _____    ______ ____

>  <TORSDO>
F 8

$$$$
=
 OpenBabel11112417303D

 37 42  0  0  1  0  0  0  0  0999 V2000
  190.2920  174.2150  141.2500 C   0  0  1  0  0  3  0  0  0  0  0  0
  189.5610  177.4890  142.4060 C   0  0  0  0  0  2  0  0  0  0  0  0
  192.1970  172.4180  140.9320 C   0  0  2  0  0  3  0  0  0  0  0  0
  190.3650  175.0860  142.4930 C   0  0  2  0  0  3  0  0  0  0  0  0
  191.7640  173.9140  140.9390 C   0  0  2  0  0  3  0  0  0  0  0  0
  189.1750  176.0430  142.7270 C   0  0  2  0  0  3  0  0  0  0  0  0
  191.0610  171.4710  141.3170 C   0  0  0  0  0  2  0  0  0  0  0  0
  192.5680  174.7910  141.8920 C   0  0  0  0  0  2  0  0  0  0  0  0
  187.9750  173.2420  141.3420 C   0  0  0  0  0  2  0  0  0  0  0  0
  189.8620  171.9020  140.7420 O   0  0  0  0  0  0  0  0  0  0  0  0
  190.2550  177.5440  144.7690 O   0  0  0  0  0  0  0  0  0  0  0  0
  190.3000  178.2330  143.5390 C   0  0  1  0  0  3  0  0  0  0  0  0
  189.4570  172.9660  141.5570 C   0  0  1  0  0  3  0  0  0  0  0  0
  191.6490  175.7830  142.4500 N   0  0  2  0  0  0  0  0  0  0  0  0
  187.8430  175.6420  142.0570 C   0  0  1  0  0  3  0  0  0  0  0  0
  191.5260  177.6070  144.1500 C   0  0  2  0  0  3  0  0  0  0  0  0
  191.9740  176.1680  143.8360 C   0  0  2  0  0  3  0  0  0  0  0  0
  187.4380  174.2070  142.3880 C   0  0  0  0  0  2  0  0  0  0  0  0
  186.1330  177.3720  141.4650 C   0  0  0  0  0  3  0  0  0  0  0  0
  186.7290  176.5700  142.4450 C   0  0  0  0  0  0  0  0  0  0  0  0
  186.2850  176.6520  143.7740 C   0  0  0  0  0  3  0  0  0  0  0  0
  184.8210  177.6120  145.4320 O   0  0  0  0  0  1  0  0  0  0  0  0
  184.6690  178.3400  143.1330 C   0  0  0  0  0  3  0  0  0  0  0  0
  185.2580  177.5350  144.1160 C   0  0  0  0  0  0  0  0  0  0  0  0
  185.1040  178.2550  141.8070 C   0  0  0  0  0  3  0  0  0  0  0  0
  193.4790  176.0680  144.1720 C   0  0  0  0  0  2  0  0  0  0  0  0
  193.7670  175.2120  145.3320 N   0  0  0  0  0  0  0  0  0  0  0  0
  194.5810  177.3840  146.0750 C   0  0  0  0  0  1  0  0  0  0  0  0
  194.0380  176.0330  146.5070 C   0  0  0  0  0  2  0  0  0  0  0  0
  192.6120  174.3730  145.6230 C   0  0  0  0  0  2  0  0  0  0  0  0
  192.8320  173.0360  145.0840 N   0  0  0  0  0  2  0  0  0  0  0  0
  191.6360  172.6000  144.6250 O   0  0  0  0  0  1  0  0  0  0  0  0
  193.2960  172.1810  141.7840 O   0  0  0  0  0  0  0  0  0  0  0  0
  194.3620  171.6730  141.0110 C   0  0  0  0  0  0  0  0  0  0  0  0
  194.1710  170.3270  140.7250 F   0  0  0  0  0  0  0  0  0  0  0  0
  194.5050  172.3850  139.8300 F   0  0  0  0  0  0  0  0  0  0  0  0
  195.5280  171.8030  141.7420 F   0  0  0  0  0  0  0  0  0  0  0  0
  1 13  1  0  0  0  0
  1  4  1  0  0  0  0
  2  6  1  0  0  0  0
  2 12  1  0  0  0  0
  3  5  1  0  0  0  0
  3  7  1  0  0  0  0
  3 33  1  0  0  0  0
  4  6  1  0  0  0  0
  5  1  1  0  0  0  0
  5  8  1  0  0  0  0
  8 14  1  0  0  0  0
  9 13  1  0  0  0  0
  9 18  1  0  0  0  0
 10  7  1  0  0  0  0
 10 13  1  0  0  0  0
 12 16  1  0  0  0  0
 12 11  1  0  0  0  0
 14  4  1  0  0  0  0
 14 17  1  0  0  0  0
 15 18  1  0  0  0  0
 15 20  1  0  0  0  0
 15  6  1  0  0  0  0
 16 11  1  0  0  0  0
 17 16  1  0  0  0  0
 17 26  1  0  0  0  0
 19 25  2  0  0  0  0
 19 20  1  0  0  0  0
 20 21  2  0  0  0  0
 21 24  1  0  0  0  0
 23 24  2  0  0  0  0
 24 22  1  0  0  0  0
 25 23  1  0  0  0  0
 26 27  1  0  0  0  0
 27 30  1  0  0  0  0
 27 29  1  0  0  0  0
 28 29  1  0  0  0  0
 31 30  1  0  0  0  0
 32 31  1  0  0  0  0
 34 37  1  0  0  0  0
 34 33  1  0  0  0  0
 35 34  1  0  0  0  0
 36 34  1  0  0  0  0
M  END
>  <MODEL>
9

>  <REMARK>
 VINA RESULT:      -6.4      2.576      4.952
  Name = 
  8 active torsions:
  status: ('A' for Active; 'I' for Inactive)
    1  A    between atoms: C_1  and  N_4
    2  A    between atoms: C_1  and  C_27
    3  A    between atoms: C_2  and  O_22
    4  A    between atoms: N_4  and  C_12
    5  A    between atoms: N_4  and  C_37
    6  A    between atoms: C_6  and  O_22
    7  A    between atoms: N_8  and  C_12
    8  A    between atoms: C_23  and  C_30
                            x       y       z     vdW  Elec       q    Type
                         _______ _______ _______ _____ _____    ______ ____

>  <TORSDO>
F 8

$$$$
