=
 OpenBabel11112416233D

 30 35  0  0  1  0  0  0  0  0999 V2000
  187.0780  176.4840  141.9060 C   0  0  0  0  0  0  0  0  0  0  0  0
  185.2260  177.5910  140.6480 C   0  0  0  0  0  0  0  0  0  0  0  0
  185.4030  177.5400  145.5570 O   0  0  0  0  0  0  0  0  0  0  0  0
  187.6810  176.1740  143.1430 C   0  0  0  0  0  0  0  0  0  0  0  0
  187.7810  176.0080  140.6710 C   0  0  0  0  0  2  0  0  0  0  0  0
  189.2620  173.1540  142.5150 O   0  0  0  0  0  1  0  0  0  0  0  0
  189.9190  176.8400  145.0100 C   0  0  1  0  0  3  0  0  0  0  0  0
  189.2270  174.4750  142.0630 C   0  0  1  0  0  3  0  0  0  0  0  0
  188.8280  177.0030  146.0500 C   0  0  2  0  0  3  0  0  0  0  0  0
  186.2650  176.9550  146.5310 C   0  0  2  0  0  3  0  0  0  0  0  0
  188.2510  174.5730  140.8810 C   0  0  2  0  0  3  0  0  0  0  0  0
  188.8880  175.3780  143.1790 N   0  0  0  0  0  0  0  0  0  0  0  0
  184.0300  178.3140  140.6710 C   0  0  0  0  0  3  0  0  0  0  0  0
  189.4380  176.4400  147.3130 C   0  0  0  0  0  2  0  0  0  0  0  0
  191.1930  176.9400  145.8280 C   0  0  0  0  0  2  0  0  0  0  0  0
  185.7370  177.2500  139.4390 F   0  0  0  0  0  0  0  0  0  0  0  0
  185.8750  177.2870  144.2870 C   0  0  0  0  0  0  0  0  0  0  0  0
  183.4490  178.6940  141.8810 C   0  0  0  0  0  3  0  0  0  0  0  0
  185.8670  177.2350  141.8600 C   0  0  0  0  0  0  0  0  0  0  0  0
  187.0560  176.6040  144.3190 C   0  0  0  0  0  0  0  0  0  0  0  0
  186.6250  177.9920  147.5880 C   0  0  0  0  0  1  0  0  0  0  0  0
  187.4660  176.3530  145.7340 C   0  0  1  0  0  3  0  0  0  0  0  0
  190.8860  176.5960  147.2150 N   0  0  0  0  0  2  0  0  0  0  0  0
  190.6190  174.5840  144.5380 O   0  0  0  0  0  0  0  0  0  0  0  0
  184.0610  178.3530  143.0870 C   0  0  0  0  0  3  0  0  0  0  0  0
  185.2590  177.6350  143.0860 C   0  0  0  0  0  0  0  0  0  0  0  0
  189.8410  175.5360  144.2480 C   0  0  0  0  0  0  0  0  0  0  0  0
  188.9040  174.0550  139.6410 C   0  0  0  0  0  3  0  0  0  0  0  0
  188.9690  173.6370  137.2340 C   0  0  0  0  0  1  0  0  0  0  0  0
  188.3020  174.1600  138.4580 C   0  0  0  0  0  3  0  0  0  0  0  0
  1  4  1  0  0  0  0
  2 13  2  0  0  0  0
  2 19  1  0  0  0  0
  3 10  1  0  0  0  0
  4 12  1  0  0  0  0
  4 20  2  0  0  0  0
  5 11  1  0  0  0  0
  5  1  1  0  0  0  0
  7 15  1  1  0  0  0
  7  9  1  0  0  0  0
  8  6  1  1  0  0  0
  8 12  1  0  0  0  0
  9 14  1  1  0  0  0
 10 21  1  1  0  0  0
 11 28  1  6  0  0  0
 11  8  1  0  0  0  0
 12 27  1  0  0  0  0
 13 18  1  0  0  0  0
 15 23  1  0  0  0  0
 16  2  1  0  0  0  0
 17 20  1  0  0  0  0
 17  3  1  0  0  0  0
 18 25  2  0  0  0  0
 19  1  2  0  0  0  0
 19 26  1  0  0  0  0
 22 20  1  6  0  0  0
 22  9  1  0  0  0  0
 22 10  1  0  0  0  0
 23 14  1  0  0  0  0
 26 25  1  0  0  0  0
 26 17  2  0  0  0  0
 27 24  2  0  0  0  0
 27  7  1  0  0  0  0
 29 30  1  0  0  0  0
 30 28  2  0  0  0  0
M  END
>  <MODEL>
1

>  <REMARK>
 VINA RESULT:      -8.7      0.000      0.000
  Name = 
  1 active torsions:
  status: ('A' for Active; 'I' for Inactive)
    1  A    between atoms: C_11  and  C_28
                            x       y       z     vdW  Elec       q    Type
                         _______ _______ _______ _____ _____    ______ ____

>  <TORSDO>
F 1

$$$$
=
 OpenBabel11112416233D

 30 35  0  0  1  0  0  0  0  0999 V2000
  187.0950  177.3870  143.6230 C   0  0  0  0  0  0  0  0  0  0  0  0
  185.1140  178.5300  144.6250 C   0  0  0  0  0  0  0  0  0  0  0  0
  188.1860  175.7800  147.2950 O   0  0  0  0  0  0  0  0  0  0  0  0
  188.2470  176.5910  143.7990 C   0  0  0  0  0  0  0  0  0  0  0  0
  186.8100  177.8690  142.2330 C   0  0  0  0  0  2  0  0  0  0  0  0
  188.5220  174.9230  140.7730 O   0  0  0  0  0  1  0  0  0  0  0  0
  191.2330  176.6050  143.9450 C   0  0  1  0  0  3  0  0  0  0  0  0
  188.4760  176.2160  141.2990 C   0  0  1  0  0  3  0  0  0  0  0  0
  191.0400  175.8920  145.2700 C   0  0  2  0  0  3  0  0  0  0  0  0
  189.3280  174.9750  147.0110 C   0  0  2  0  0  3  0  0  0  0  0  0
  187.0270  176.7250  141.2500 C   0  0  2  0  0  3  0  0  0  0  0  0
  189.0540  176.2270  142.6550 N   0  0  0  0  0  0  0  0  0  0  0  0
  184.3360  178.8070  145.7530 C   0  0  0  0  0  3  0  0  0  0  0  0
  192.1640  174.8820  145.3100 C   0  0  0  0  0  2  0  0  0  0  0  0
  192.7330  176.5290  143.7280 C   0  0  0  0  0  2  0  0  0  0  0  0
  184.7210  179.0590  143.4400 F   0  0  0  0  0  0  0  0  0  0  0  0
  187.7420  176.4030  146.1480 C   0  0  0  0  0  0  0  0  0  0  0  0
  184.6830  178.2910  147.0020 C   0  0  0  0  0  3  0  0  0  0  0  0
  186.2710  177.7210  144.7380 C   0  0  0  0  0  0  0  0  0  0  0  0
  188.5490  176.1250  145.0840 C   0  0  0  0  0  0  0  0  0  0  0  0
  190.4400  175.2910  148.0030 C   0  0  0  0  0  1  0  0  0  0  0  0
  189.6680  175.2300  145.5060 C   0  0  1  0  0  3  0  0  0  0  0  0
  193.2600  175.4050  144.5000 N   0  0  0  0  0  2  0  0  0  0  0  0
  191.0630  175.2460  141.9640 O   0  0  0  0  0  0  0  0  0  0  0  0
  185.8170  177.4910  147.1370 C   0  0  0  0  0  3  0  0  0  0  0  0
  186.6100  177.2060  146.0230 C   0  0  0  0  0  0  0  0  0  0  0  0
  190.4660  175.9790  142.8020 C   0  0  0  0  0  0  0  0  0  0  0  0
  186.6910  177.1650  139.8620 C   0  0  0  0  0  3  0  0  0  0  0  0
  186.3540  176.7560  137.4770 C   0  0  0  0  0  1  0  0  0  0  0  0
  186.6920  176.2970  138.8520 C   0  0  0  0  0  3  0  0  0  0  0  0
  1  4  2  0  0  0  0
  1 19  1  0  0  0  0
  2 19  2  0  0  0  0
  2 13  1  0  0  0  0
  4 20  1  0  0  0  0
  5  1  1  0  0  0  0
  7 15  1  6  0  0  0
  7  9  1  0  0  0  0
  8  6  1  1  0  0  0
  8 12  1  0  0  0  0
  9 14  1  6  0  0  0
  9 22  1  0  0  0  0
 10  3  1  0  0  0  0
 10 21  1  1  0  0  0
 11 28  1  6  0  0  0
 11  8  1  0  0  0  0
 11  5  1  0  0  0  0
 12 27  1  0  0  0  0
 12  4  1  0  0  0  0
 13 18  2  0  0  0  0
 15 23  1  0  0  0  0
 16  2  1  0  0  0  0
 17  3  1  0  0  0  0
 18 25  1  0  0  0  0
 19 26  1  0  0  0  0
 20 17  2  0  0  0  0
 22 20  1  1  0  0  0
 22 10  1  0  0  0  0
 23 14  1  0  0  0  0
 24 27  2  0  0  0  0
 26 17  1  0  0  0  0
 26 25  2  0  0  0  0
 27  7  1  0  0  0  0
 29 30  1  0  0  0  0
 30 28  2  0  0  0  0
M  END
>  <MODEL>
2

>  <REMARK>
 VINA RESULT:      -8.6      2.205      3.267
  Name = 
  1 active torsions:
  status: ('A' for Active; 'I' for Inactive)
    1  A    between atoms: C_11  and  C_28
                            x       y       z     vdW  Elec       q    Type
                         _______ _______ _______ _____ _____    ______ ____

>  <TORSDO>
F 1

$$$$
=
 OpenBabel11112416233D

 30 35  0  0  1  0  0  0  0  0999 V2000
  188.5130  175.6870  143.5130 C   0  0  0  0  0  0  0  0  0  0  0  0
  186.2700  176.7690  143.6910 C   0  0  0  0  0  0  0  0  0  0  0  0
  189.4140  176.6110  147.4610 O   0  0  0  0  0  0  0  0  0  0  0  0
  189.7510  175.3670  144.1120 C   0  0  0  0  0  0  0  0  0  0  0  0
  188.3180  175.2600  142.0910 C   0  0  0  0  0  2  0  0  0  0  0  0
  190.6430  172.4090  142.5410 O   0  0  0  0  0  1  0  0  0  0  0  0
  192.6570  176.0540  144.2430 C   0  0  1  0  0  3  0  0  0  0  0  0
  190.3270  173.7380  142.2520 C   0  0  1  0  0  3  0  0  0  0  0  0
  192.4290  176.1610  145.7390 C   0  0  2  0  0  3  0  0  0  0  0  0
  190.6970  176.0290  147.6840 C   0  0  2  0  0  3  0  0  0  0  0  0
  188.8310  173.8350  141.9180 C   0  0  2  0  0  3  0  0  0  0  0  0
  190.7340  174.6050  143.3730 N   0  0  0  0  0  0  0  0  0  0  0  0
  185.3310  177.4570  144.4660 C   0  0  0  0  0  3  0  0  0  0  0  0
  193.6890  175.5880  146.3440 C   0  0  0  0  0  2  0  0  0  0  0  0
  194.1640  176.1720  144.1150 C   0  0  0  0  0  2  0  0  0  0  0  0
  185.9370  176.4700  142.4110 F   0  0  0  0  0  0  0  0  0  0  0  0
  189.0120  176.4000  146.1600 C   0  0  0  0  0  0  0  0  0  0  0  0
  185.6090  177.7910  145.7920 C   0  0  0  0  0  3  0  0  0  0  0  0
  187.5210  176.4040  144.2450 C   0  0  0  0  0  0  0  0  0  0  0  0
  189.9720  175.7520  145.4390 C   0  0  0  0  0  0  0  0  0  0  0  0
  191.6190  177.0510  148.3360 C   0  0  0  0  0  1  0  0  0  0  0  0
  191.1650  175.4800  146.2970 C   0  0  1  0  0  3  0  0  0  0  0  0
  194.7730  175.7880  145.3870 N   0  0  0  0  0  2  0  0  0  0  0  0
  192.9420  173.8310  143.3620 O   0  0  0  0  0  0  0  0  0  0  0  0
  186.8340  177.4410  146.3580 C   0  0  0  0  0  3  0  0  0  0  0  0
  187.7880  176.7580  145.6000 C   0  0  0  0  0  0  0  0  0  0  0  0
  192.1400  174.7660  143.6420 C   0  0  0  0  0  0  0  0  0  0  0  0
  188.5930  173.3650  140.5200 C   0  0  0  0  0  3  0  0  0  0  0  0
  188.2840  173.7410  138.1250 C   0  0  0  0  0  1  0  0  0  0  0  0
  188.5220  174.2310  139.5110 C   0  0  0  0  0  3  0  0  0  0  0  0
  1  4  2  0  0  0  0
  1 19  1  0  0  0  0
  2 19  2  0  0  0  0
  2 13  1  0  0  0  0
  3 10  1  0  0  0  0
  4 20  1  0  0  0  0
  5  1  1  0  0  0  0
  7 15  1  1  0  0  0
  7  9  1  0  0  0  0
  8  6  1  1  0  0  0
  8 12  1  0  0  0  0
  9 22  1  0  0  0  0
  9 14  1  1  0  0  0
 10 21  1  6  0  0  0
 11 28  1  6  0  0  0
 11  5  1  0  0  0  0
 11  8  1  0  0  0  0
 12 27  1  0  0  0  0
 12  4  1  0  0  0  0
 13 18  2  0  0  0  0
 15 23  1  0  0  0  0
 16  2  1  0  0  0  0
 17  3  1  0  0  0  0
 18 25  1  0  0  0  0
 19 26  1  0  0  0  0
 20 17  2  0  0  0  0
 22 20  1  6  0  0  0
 22 10  1  0  0  0  0
 23 14  1  0  0  0  0
 24 27  2  0  0  0  0
 26 17  1  0  0  0  0
 26 25  2  0  0  0  0
 27  7  1  0  0  0  0
 29 30  1  0  0  0  0
 30 28  2  0  0  0  0
M  END
>  <MODEL>
3

>  <REMARK>
 VINA RESULT:      -8.5      2.096      3.283
  Name = 
  1 active torsions:
  status: ('A' for Active; 'I' for Inactive)
    1  A    between atoms: C_11  and  C_28
                            x       y       z     vdW  Elec       q    Type
                         _______ _______ _______ _____ _____    ______ ____

>  <TORSDO>
F 1

$$$$
=
 OpenBabel11112416233D

 30 35  0  0  1  0  0  0  0  0999 V2000
  187.9720  176.1710  142.7580 C   0  0  0  0  0  0  0  0  0  0  0  0
  186.0680  177.6620  142.1370 C   0  0  0  0  0  0  0  0  0  0  0  0
  188.1050  177.7280  146.6060 O   0  0  0  0  0  0  0  0  0  0  0  0
  188.9230  175.7620  143.7170 C   0  0  0  0  0  0  0  0  0  0  0  0
  188.0240  175.4960  141.4210 C   0  0  0  0  0  2  0  0  0  0  0  0
  189.4430  172.4250  142.9360 O   0  0  0  0  0  1  0  0  0  0  0  0
  191.7930  175.9110  144.5380 C   0  0  1  0  0  3  0  0  0  0  0  0
  189.5250  173.6980  142.3670 C   0  0  1  0  0  3  0  0  0  0  0  0
  191.2500  176.3740  145.8760 C   0  0  2  0  0  3  0  0  0  0  0  0
  189.1260  176.9800  147.2630 C   0  0  2  0  0  3  0  0  0  0  0  0
  188.2150  173.9970  141.6220 C   0  0  2  0  0  3  0  0  0  0  0  0
  189.8460  174.6930  143.4080 N   0  0  0  0  0  0  0  0  0  0  0  0
  185.1600  178.6600  142.5040 C   0  0  0  0  0  3  0  0  0  0  0  0
  192.1610  175.7180  146.8880 C   0  0  0  0  0  2  0  0  0  0  0  0
  193.2730  175.7190  144.8140 C   0  0  0  0  0  2  0  0  0  0  0  0
  185.9870  177.1660  140.8770 F   0  0  0  0  0  0  0  0  0  0  0  0
  187.9840  177.3240  145.2940 C   0  0  0  0  0  0  0  0  0  0  0  0
  185.1870  179.2110  143.7860 C   0  0  0  0  0  3  0  0  0  0  0  0
  187.0310  177.1980  143.0650 C   0  0  0  0  0  0  0  0  0  0  0  0
  188.9070  176.3720  144.9770 C   0  0  0  0  0  0  0  0  0  0  0  0
  190.0810  177.9280  147.9760 C   0  0  0  0  0  1  0  0  0  0  0  0
  189.7660  176.0720  146.1630 C   0  0  1  0  0  3  0  0  0  0  0  0
  193.4560  175.5070  146.2490 N   0  0  0  0  0  2  0  0  0  0  0  0
  191.7500  173.5390  144.1280 O   0  0  0  0  0  0  0  0  0  0  0  0
  186.1260  178.7690  144.7170 C   0  0  0  0  0  3  0  0  0  0  0  0
  187.0450  177.7750  144.3680 C   0  0  0  0  0  0  0  0  0  0  0  0
  191.1460  174.6430  144.0260 C   0  0  0  0  0  0  0  0  0  0  0  0
  188.2110  173.2940  140.3030 C   0  0  0  0  0  3  0  0  0  0  0  0
  188.5660  173.2070  137.8870 C   0  0  0  0  0  1  0  0  0  0  0  0
  188.5780  173.9260  139.1910 C   0  0  0  0  0  3  0  0  0  0  0  0
  1 19  2  0  0  0  0
  1  4  1  0  0  0  0
  2 13  2  0  0  0  0
  2 19  1  0  0  0  0
  3 10  1  0  0  0  0
  4 20  2  0  0  0  0
  5 11  1  0  0  0  0
  5  1  1  0  0  0  0
  7 15  1  1  0  0  0
  7  9  1  0  0  0  0
  8  6  1  1  0  0  0
  8 12  1  0  0  0  0
  9 22  1  0  0  0  0
  9 14  1  1  0  0  0
 10 21  1  6  0  0  0
 11 28  1  6  0  0  0
 11  8  1  0  0  0  0
 12  4  1  0  0  0  0
 12 27  1  0  0  0  0
 13 18  1  0  0  0  0
 15 23  1  0  0  0  0
 16  2  1  0  0  0  0
 17  3  1  0  0  0  0
 18 25  2  0  0  0  0
 19 26  1  0  0  0  0
 20 17  1  0  0  0  0
 22 20  1  6  0  0  0
 22 10  1  0  0  0  0
 23 14  1  0  0  0  0
 26 25  1  0  0  0  0
 26 17  2  0  0  0  0
 27 24  2  0  0  0  0
 27  7  1  0  0  0  0
 29 30  1  0  0  0  0
 30 28  2  0  0  0  0
M  END
>  <MODEL>
4

>  <REMARK>
 VINA RESULT:      -8.5      1.477      2.055
  Name = 
  1 active torsions:
  status: ('A' for Active; 'I' for Inactive)
    1  A    between atoms: C_11  and  C_28
                            x       y       z     vdW  Elec       q    Type
                         _______ _______ _______ _____ _____    ______ ____

>  <TORSDO>
F 1

$$$$
=
 OpenBabel11112416233D

 30 35  0  0  1  0  0  0  0  0999 V2000
  188.6460  176.1800  145.4850 C   0  0  0  0  0  0  0  0  0  0  0  0
  186.5590  177.4660  145.9600 C   0  0  0  0  0  0  0  0  0  0  0  0
  187.5980  175.7030  141.4940 O   0  0  0  0  0  0  0  0  0  0  0  0
  189.4360  175.4560  144.5670 C   0  0  0  0  0  0  0  0  0  0  0  0
  189.1690  176.2980  146.8840 C   0  0  0  0  0  2  0  0  0  0  0  0
  192.6670  176.0220  145.6880 O   0  0  0  0  0  1  0  0  0  0  0  0
  190.3200  172.7300  143.7160 C   0  0  1  0  0  3  0  0  0  0  0  0
  191.4430  175.5070  146.1200 C   0  0  1  0  0  3  0  0  0  0  0  0
  189.8350  173.1450  142.3410 C   0  0  2  0  0  3  0  0  0  0  0  0
  188.7000  175.0100  140.9130 C   0  0  2  0  0  3  0  0  0  0  0  0
  190.6590  176.6150  146.8400 C   0  0  2  0  0  3  0  0  0  0  0  0
  190.7140  174.9200  144.9800 N   0  0  0  0  0  0  0  0  0  0  0  0
  185.3580  178.0120  145.4960 C   0  0  0  0  0  3  0  0  0  0  0  0
  190.8480  172.5410  141.3960 C   0  0  0  0  0  2  0  0  0  0  0  0
  191.0140  171.4060  143.4520 C   0  0  0  0  0  2  0  0  0  0  0  0
  186.8770  177.6540  147.2640 F   0  0  0  0  0  0  0  0  0  0  0  0
  187.8110  175.8950  142.8430 C   0  0  0  0  0  0  0  0  0  0  0  0
  184.9730  177.8590  144.1640 C   0  0  0  0  0  3  0  0  0  0  0  0
  187.4010  176.7460  145.0780 C   0  0  0  0  0  0  0  0  0  0  0  0
  188.9790  175.3220  143.2510 C   0  0  0  0  0  0  0  0  0  0  0  0
  188.1920  173.8270  140.0980 C   0  0  0  0  0  1  0  0  0  0  0  0
  189.6570  174.6570  142.0970 C   0  0  1  0  0  3  0  0  0  0  0  0
  191.4110  171.3610  142.0450 N   0  0  0  0  0  2  0  0  0  0  0  0
  192.4940  173.5290  144.3710 O   0  0  0  0  0  0  0  0  0  0  0  0
  185.7870  177.1540  143.2780 C   0  0  0  0  0  3  0  0  0  0  0  0
  186.9890  176.5970  143.7220 C   0  0  0  0  0  0  0  0  0  0  0  0
  191.2480  173.7340  144.3620 C   0  0  0  0  0  0  0  0  0  0  0  0
  191.1920  176.7960  148.2240 C   0  0  0  0  0  3  0  0  0  0  0  0
  191.5670  178.1050  150.2530 C   0  0  0  0  0  1  0  0  0  0  0  0
  191.0280  177.9460  148.8740 C   0  0  0  0  0  3  0  0  0  0  0  0
  1  5  1  0  0  0  0
  2 16  1  0  0  0  0
  3 17  1  0  0  0  0
  4 12  1  0  0  0  0
  4  1  2  0  0  0  0
  7 15  1  6  0  0  0
  7 27  1  0  0  0  0
  8  6  1  6  0  0  0
  8 11  1  0  0  0  0
  9 14  1  6  0  0  0
  9  7  1  0  0  0  0
 10 21  1  1  0  0  0
 10  3  1  0  0  0  0
 10 22  1  0  0  0  0
 11  5  1  0  0  0  0
 11 28  1  1  0  0  0
 12  8  1  0  0  0  0
 13  2  1  0  0  0  0
 14 23  1  0  0  0  0
 17 20  2  0  0  0  0
 17 26  1  0  0  0  0
 18 13  2  0  0  0  0
 19  1  1  0  0  0  0
 19  2  2  0  0  0  0
 20  4  1  0  0  0  0
 22  9  1  0  0  0  0
 22 20  1  1  0  0  0
 23 15  1  0  0  0  0
 25 26  2  0  0  0  0
 25 18  1  0  0  0  0
 26 19  1  0  0  0  0
 27 24  2  0  0  0  0
 27 12  1  0  0  0  0
 28 30  2  0  0  0  0
 30 29  1  0  0  0  0
M  END
>  <MODEL>
5

>  <REMARK>
 VINA RESULT:      -8.3      2.536      6.070
  Name = 
  1 active torsions:
  status: ('A' for Active; 'I' for Inactive)
    1  A    between atoms: C_11  and  C_28
                            x       y       z     vdW  Elec       q    Type
                         _______ _______ _______ _____ _____    ______ ____

>  <TORSDO>
F 1

$$$$
=
 OpenBabel11112416233D

 30 35  0  0  1  0  0  0  0  0999 V2000
  189.3510  175.5740  143.2830 C   0  0  0  0  0  0  0  0  0  0  0  0
  187.2710  176.5780  144.2310 C   0  0  0  0  0  0  0  0  0  0  0  0
  191.4770  176.3750  146.7600 O   0  0  0  0  0  0  0  0  0  0  0  0
  190.7210  175.2700  143.4310 C   0  0  0  0  0  0  0  0  0  0  0  0
  188.7090  175.1950  141.9840 C   0  0  0  0  0  2  0  0  0  0  0  0
  191.1020  172.4020  141.5210 O   0  0  0  0  0  1  0  0  0  0  0  0
  193.4990  176.0410  142.6390 C   0  0  1  0  0  3  0  0  0  0  0  0
  190.6860  173.7310  141.4120 C   0  0  1  0  0  3  0  0  0  0  0  0
  193.7710  176.0860  144.1300 C   0  0  2  0  0  3  0  0  0  0  0  0
  192.7720  175.8260  146.5260 C   0  0  2  0  0  3  0  0  0  0  0  0
  189.1610  173.7940  141.5880 C   0  0  2  0  0  3  0  0  0  0  0  0
  191.4220  174.5680  142.3780 N   0  0  0  0  0  0  0  0  0  0  0  0
  186.6250  177.2070  145.3010 C   0  0  0  0  0  3  0  0  0  0  0  0
  195.1690  175.5290  144.2650 C   0  0  0  0  0  2  0  0  0  0  0  0
  194.8790  176.2120  142.0320 C   0  0  0  0  0  2  0  0  0  0  0  0
  186.5430  176.3180  143.1170 F   0  0  0  0  0  0  0  0  0  0  0  0
  190.6750  176.2020  145.6530 C   0  0  0  0  0  0  0  0  0  0  0  0
  187.3150  177.4990  146.4780 C   0  0  0  0  0  3  0  0  0  0  0  0
  188.6410  176.2320  144.3300 C   0  0  0  0  0  0  0  0  0  0  0  0
  191.3580  175.6110  144.6300 C   0  0  0  0  0  0  0  0  0  0  0  0
  193.8390  176.8510  146.8880 C   0  0  0  0  0  1  0  0  0  0  0  0
  192.7700  175.3440  145.0390 C   0  0  1  0  0  3  0  0  0  0  0  0
  195.8770  175.7990  143.0180 N   0  0  0  0  0  2  0  0  0  0  0  0
  193.5180  173.8630  141.6120 O   0  0  0  0  0  0  0  0  0  0  0  0
  188.6640  177.1670  146.5970 C   0  0  0  0  0  3  0  0  0  0  0  0
  189.3290  176.5420  145.5390 C   0  0  0  0  0  0  0  0  0  0  0  0
  192.8360  174.7620  142.1810 C   0  0  0  0  0  0  0  0  0  0  0  0
  188.4870  173.3700  140.3240 C   0  0  0  0  0  3  0  0  0  0  0  0
  188.1930  173.4170  137.8990 C   0  0  0  0  0  1  0  0  0  0  0  0
  188.8780  173.8530  139.1470 C   0  0  0  0  0  3  0  0  0  0  0  0
  1  4  2  0  0  0  0
  1 19  1  0  0  0  0
  2 19  2  0  0  0  0
  2 13  1  0  0  0  0
  4 20  1  0  0  0  0
  5  1  1  0  0  0  0
  7 15  1  6  0  0  0
  7  9  1  0  0  0  0
  8  6  1  1  0  0  0
  8 11  1  0  0  0  0
  8 12  1  0  0  0  0
  9 14  1  6  0  0  0
  9 22  1  0  0  0  0
 10  3  1  0  0  0  0
 10 21  1  6  0  0  0
 11 28  1  6  0  0  0
 11  5  1  0  0  0  0
 12  4  1  0  0  0  0
 13 18  2  0  0  0  0
 15 23  1  0  0  0  0
 16  2  1  0  0  0  0
 17  3  1  0  0  0  0
 18 25  1  0  0  0  0
 19 26  1  0  0  0  0
 20 17  2  0  0  0  0
 22 20  1  6  0  0  0
 22 10  1  0  0  0  0
 23 14  1  0  0  0  0
 24 27  2  0  0  0  0
 26 17  1  0  0  0  0
 26 25  2  0  0  0  0
 27 12  1  0  0  0  0
 27  7  1  0  0  0  0
 29 30  1  0  0  0  0
 30 28  2  0  0  0  0
M  END
>  <MODEL>
6

>  <REMARK>
 VINA RESULT:      -7.9      2.737      4.554
  Name = 
  1 active torsions:
  status: ('A' for Active; 'I' for Inactive)
    1  A    between atoms: C_11  and  C_28
                            x       y       z     vdW  Elec       q    Type
                         _______ _______ _______ _____ _____    ______ ____

>  <TORSDO>
F 1

$$$$
=
 OpenBabel11112416233D

 30 35  0  0  1  0  0  0  0  0999 V2000
  187.5100  177.0970  144.5650 C   0  0  0  0  0  0  0  0  0  0  0  0
  185.6840  178.3090  145.7610 C   0  0  0  0  0  0  0  0  0  0  0  0
  185.7660  177.8490  140.8710 O   0  0  0  0  0  0  0  0  0  0  0  0
  188.0520  176.6230  143.3510 C   0  0  0  0  0  0  0  0  0  0  0  0
  188.2680  176.7760  145.8170 C   0  0  0  0  0  2  0  0  0  0  0  0
  191.4670  176.6570  143.9470 O   0  0  0  0  0  1  0  0  0  0  0  0
  188.4800  174.2120  141.6370 C   0  0  1  0  0  3  0  0  0  0  0  0
  190.2830  176.1100  144.4470 C   0  0  1  0  0  3  0  0  0  0  0  0
  187.8210  175.0330  140.5450 C   0  0  2  0  0  3  0  0  0  0  0  0
  186.6740  177.2910  139.9230 C   0  0  2  0  0  3  0  0  0  0  0  0
  189.7550  177.0070  145.5770 C   0  0  2  0  0  3  0  0  0  0  0  0
  189.3160  175.9190  143.3510 N   0  0  0  0  0  0  0  0  0  0  0  0
  184.4890  179.0330  145.7010 C   0  0  0  0  0  3  0  0  0  0  0  0
  188.5910  174.6680  139.2970 C   0  0  0  0  0  2  0  0  0  0  0  0
  188.9720  172.9830  140.8940 C   0  0  0  0  0  2  0  0  0  0  0  0
  186.2330  178.0940  146.9810 F   0  0  0  0  0  0  0  0  0  0  0  0
  186.2200  177.6330  142.1540 C   0  0  0  0  0  0  0  0  0  0  0  0
  183.8720  179.2920  144.4760 C   0  0  0  0  0  3  0  0  0  0  0  0
  186.2840  177.8250  144.5720 C   0  0  0  0  0  0  0  0  0  0  0  0
  187.3710  176.9000  142.1600 C   0  0  0  0  0  0  0  0  0  0  0  0
  185.9120  176.4240  138.9290 C   0  0  0  0  0  1  0  0  0  0  0  0
  187.7710  176.5580  140.7610 C   0  0  1  0  0  3  0  0  0  0  0  0
  189.1220  173.3220  139.4800 N   0  0  0  0  0  2  0  0  0  0  0  0
  190.8070  174.6630  142.0580 O   0  0  0  0  0  0  0  0  0  0  0  0
  184.4460  178.8260  143.2940 C   0  0  0  0  0  3  0  0  0  0  0  0
  185.6380  178.0970  143.3320 C   0  0  0  0  0  0  0  0  0  0  0  0
  189.6070  174.9330  142.3430 C   0  0  0  0  0  0  0  0  0  0  0  0
  190.5280  176.7510  146.8300 C   0  0  0  0  0  3  0  0  0  0  0  0
  191.5510  175.2740  148.4860 C   0  0  0  0  0  1  0  0  0  0  0  0
  190.7790  175.5080  147.2350 C   0  0  0  0  0  3  0  0  0  0  0  0
  1 19  1  0  0  0  0
  1  5  1  0  0  0  0
  2 16  1  0  0  0  0
  3 17  1  0  0  0  0
  4  1  2  0  0  0  0
  7 15  1  6  0  0  0
  7 27  1  0  0  0  0
  8  6  1  6  0  0  0
  8 11  1  0  0  0  0
  9 14  1  6  0  0  0
  9 22  1  0  0  0  0
  9  7  1  0  0  0  0
 10 21  1  6  0  0  0
 10 22  1  0  0  0  0
 10  3  1  0  0  0  0
 11  5  1  0  0  0  0
 11 28  1  1  0  0  0
 12  4  1  0  0  0  0
 12  8  1  0  0  0  0
 13  2  1  0  0  0  0
 14 23  1  0  0  0  0
 17 20  2  0  0  0  0
 17 26  1  0  0  0  0
 18 13  2  0  0  0  0
 19  2  2  0  0  0  0
 20  4  1  0  0  0  0
 22 20  1  1  0  0  0
 23 15  1  0  0  0  0
 24 27  2  0  0  0  0
 25 26  2  0  0  0  0
 25 18  1  0  0  0  0
 26 19  1  0  0  0  0
 27 12  1  0  0  0  0
 28 30  2  0  0  0  0
 30 29  1  0  0  0  0
M  END
>  <MODEL>
7

>  <REMARK>
 VINA RESULT:      -7.7      2.235      5.583
  Name = 
  1 active torsions:
  status: ('A' for Active; 'I' for Inactive)
    1  A    between atoms: C_11  and  C_28
                            x       y       z     vdW  Elec       q    Type
                         _______ _______ _______ _____ _____    ______ ____

>  <TORSDO>
F 1

$$$$
=
 OpenBabel11112416233D

 30 35  0  0  1  0  0  0  0  0999 V2000
  189.1290  175.9900  143.7230 C   0  0  0  0  0  0  0  0  0  0  0  0
  187.3280  177.7030  143.9640 C   0  0  0  0  0  0  0  0  0  0  0  0
  187.9710  175.1320  139.8270 O   0  0  0  0  0  0  0  0  0  0  0  0
  189.7580  175.0010  142.9360 C   0  0  0  0  0  0  0  0  0  0  0  0
  189.6780  176.2130  145.0990 C   0  0  0  0  0  2  0  0  0  0  0  0
  193.0490  175.1080  144.0220 O   0  0  0  0  0  1  0  0  0  0  0  0
  190.1010  172.0620  142.5140 C   0  0  1  0  0  3  0  0  0  0  0  0
  191.7540  174.9020  144.5030 C   0  0  1  0  0  3  0  0  0  0  0  0
  189.6910  172.3530  141.0830 C   0  0  2  0  0  3  0  0  0  0  0  0
  188.9160  174.1650  139.3750 C   0  0  2  0  0  3  0  0  0  0  0  0
  191.2010  176.2330  145.0360 C   0  0  2  0  0  3  0  0  0  0  0  0
  190.9160  174.3010  143.4480 N   0  0  0  0  0  0  0  0  0  0  0  0
  186.2480  178.3900  143.4020 C   0  0  0  0  0  3  0  0  0  0  0  0
  190.5620  171.4340  140.2580 C   0  0  0  0  0  2  0  0  0  0  0  0
  190.5300  170.6070  142.4600 C   0  0  0  0  0  2  0  0  0  0  0  0
  187.6890  178.0180  145.2320 F   0  0  0  0  0  0  0  0  0  0  0  0
  188.2290  175.4790  141.1360 C   0  0  0  0  0  0  0  0  0  0  0  0
  185.8280  178.1170  142.1000 C   0  0  0  0  0  3  0  0  0  0  0  0
  188.0100  176.7130  143.2140 C   0  0  0  0  0  0  0  0  0  0  0  0
  189.2720  174.7620  141.6460 C   0  0  0  0  0  0  0  0  0  0  0  0
  188.1850  172.9920  138.7340 C   0  0  0  0  0  1  0  0  0  0  0  0
  189.8010  173.8180  140.6160 C   0  0  1  0  0  3  0  0  0  0  0  0
  190.8970  170.2790  141.0840 N   0  0  0  0  0  2  0  0  0  0  0  0
  192.3940  172.5250  143.0850 O   0  0  0  0  0  0  0  0  0  0  0  0
  186.4850  177.1470  141.3430 C   0  0  0  0  0  3  0  0  0  0  0  0
  187.5640  176.4460  141.8870 C   0  0  0  0  0  0  0  0  0  0  0  0
  191.2100  172.9570  143.0220 C   0  0  0  0  0  0  0  0  0  0  0  0
  191.7710  176.5130  146.3880 C   0  0  0  0  0  3  0  0  0  0  0  0
  191.5660  177.0650  148.7600 C   0  0  0  0  0  1  0  0  0  0  0  0
  190.9770  176.7890  147.4200 C   0  0  0  0  0  3  0  0  0  0  0  0
  1  5  1  0  0  0  0
  2 16  1  0  0  0  0
  3 17  1  0  0  0  0
  4 12  1  0  0  0  0
  4  1  2  0  0  0  0
  7 15  1  6  0  0  0
  7 27  1  0  0  0  0
  8  6  1  6  0  0  0
  8 11  1  0  0  0  0
  9 14  1  6  0  0  0
  9  7  1  0  0  0  0
 10 21  1  1  0  0  0
 10  3  1  0  0  0  0
 10 22  1  0  0  0  0
 11  5  1  0  0  0  0
 11 28  1  1  0  0  0
 12  8  1  0  0  0  0
 13  2  1  0  0  0  0
 14 23  1  0  0  0  0
 17 20  2  0  0  0  0
 17 26  1  0  0  0  0
 18 13  2  0  0  0  0
 19  1  1  0  0  0  0
 19  2  2  0  0  0  0
 20  4  1  0  0  0  0
 22  9  1  0  0  0  0
 22 20  1  1  0  0  0
 23 15  1  0  0  0  0
 25 26  2  0  0  0  0
 25 18  1  0  0  0  0
 26 19  1  0  0  0  0
 27 24  2  0  0  0  0
 27 12  1  0  0  0  0
 28 30  2  0  0  0  0
 30 29  1  0  0  0  0
M  END
>  <MODEL>
8

>  <REMARK>
 VINA RESULT:      -7.7      2.513      6.046
  Name = 
  1 active torsions:
  status: ('A' for Active; 'I' for Inactive)
    1  A    between atoms: C_11  and  C_28
                            x       y       z     vdW  Elec       q    Type
                         _______ _______ _______ _____ _____    ______ ____

>  <TORSDO>
F 1

$$$$
=
 OpenBabel11112416233D

 30 35  0  0  1  0  0  0  0  0999 V2000
  188.7350  175.5980  142.0190 C   0  0  0  0  0  0  0  0  0  0  0  0
  190.4700  174.0920  141.0420 C   0  0  0  0  0  0  0  0  0  0  0  0
  191.0220  176.2360  145.4270 O   0  0  0  0  0  0  0  0  0  0  0  0
  188.2970  176.3970  143.0970 C   0  0  0  0  0  0  0  0  0  0  0  0
  187.8160  175.4870  140.8400 C   0  0  0  0  0  2  0  0  0  0  0  0
  186.3760  178.8290  141.5460 O   0  0  0  0  0  1  0  0  0  0  0  0
  186.4310  176.5550  145.4270 C   0  0  1  0  0  3  0  0  0  0  0  0
  186.4610  177.4420  141.6890 C   0  0  1  0  0  3  0  0  0  0  0  0
  187.6750  176.8720  146.2340 C   0  0  2  0  0  3  0  0  0  0  0  0
  190.2660  177.1660  146.1990 C   0  0  2  0  0  3  0  0  0  0  0  0
  187.2560  176.8650  140.5080 C   0  0  2  0  0  3  0  0  0  0  0  0
  187.0420  177.1100  143.0040 N   0  0  0  0  0  0  0  0  0  0  0  0
  191.7170  173.4690  141.1580 C   0  0  0  0  0  3  0  0  0  0  0  0
  187.2120  177.9100  147.2290 C   0  0  0  0  0  2  0  0  0  0  0  0
  185.3070  176.7910  146.4180 C   0  0  0  0  0  2  0  0  0  0  0  0
  189.7570  173.8740  139.9100 F   0  0  0  0  0  0  0  0  0  0  0  0
  190.3460  175.9130  144.2700 C   0  0  0  0  0  0  0  0  0  0  0  0
  192.5040  173.6540  142.2950 C   0  0  0  0  0  3  0  0  0  0  0  0
  189.9880  174.9210  142.0840 C   0  0  0  0  0  0  0  0  0  0  0  0
  189.1270  176.5220  144.2170 C   0  0  0  0  0  0  0  0  0  0  0  0
  190.1620  176.6750  147.6380 C   0  0  0  0  0  1  0  0  0  0  0  0
  188.9100  177.3480  145.4440 C   0  0  1  0  0  3  0  0  0  0  0  0
  185.7850  177.7010  147.4580 N   0  0  0  0  0  2  0  0  0  0  0  0
  185.4690  178.3780  144.1830 O   0  0  0  0  0  0  0  0  0  0  0  0
  192.0490  174.4670  143.3330 C   0  0  0  0  0  3  0  0  0  0  0  0
  190.8050  175.0950  143.2390 C   0  0  0  0  0  0  0  0  0  0  0  0
  186.2770  177.4080  144.1870 C   0  0  0  0  0  0  0  0  0  0  0  0
  186.3820  176.7900  139.2980 C   0  0  0  0  0  3  0  0  0  0  0  0
  185.8760  176.0420  137.0280 C   0  0  0  0  0  1  0  0  0  0  0  0
  186.7620  176.1040  138.2230 C   0  0  0  0  0  3  0  0  0  0  0  0
  1 19  2  0  0  0  0
  1  4  1  0  0  0  0
  2 13  2  0  0  0  0
  2 19  1  0  0  0  0
  3 10  1  0  0  0  0
  4 20  2  0  0  0  0
  5  1  1  0  0  0  0
  7  9  1  0  0  0  0
  7 15  1  1  0  0  0
  8  6  1  6  0  0  0
  8 12  1  0  0  0  0
  9 14  1  1  0  0  0
 10 21  1  1  0  0  0
 11 28  1  6  0  0  0
 11  5  1  0  0  0  0
 11  8  1  0  0  0  0
 12  4  1  0  0  0  0
 12 27  1  0  0  0  0
 13 18  1  0  0  0  0
 14 23  1  0  0  0  0
 15 23  1  0  0  0  0
 16  2  1  0  0  0  0
 17  3  1  0  0  0  0
 18 25  2  0  0  0  0
 19 26  1  0  0  0  0
 20 17  1  0  0  0  0
 22 20  1  6  0  0  0
 22 10  1  0  0  0  0
 22  9  1  0  0  0  0
 24 27  2  0  0  0  0
 26 25  1  0  0  0  0
 26 17  2  0  0  0  0
 27  7  1  0  0  0  0
 29 30  1  0  0  0  0
 30 28  2  0  0  0  0
M  END
>  <MODEL>
9

>  <REMARK>
 VINA RESULT:      -7.7      2.262      4.970
  Name = 
  1 active torsions:
  status: ('A' for Active; 'I' for Inactive)
    1  A    between atoms: C_11  and  C_28
                            x       y       z     vdW  Elec       q    Type
                         _______ _______ _______ _____ _____    ______ ____

>  <TORSDO>
F 1

$$$$
