=
 OpenBabel11112416413D

 32 37  0  0  1  0  0  0  0  0999 V2000
  189.5380  175.2820  143.6620 C   0  0  1  0  0  3  0  0  0  0  0  0
  191.8730  175.6580  147.8950 C   0  0  0  0  0  2  0  0  0  0  0  0
  191.0750  176.9520  148.0840 C   0  0  0  0  0  2  0  0  0  0  0  0
  187.2370  176.2900  143.2400 C   0  0  2  0  0  3  0  0  0  0  0  0
  186.1590  177.1920  143.8720 C   0  0  2  0  0  3  0  0  0  0  0  0
  190.7470  174.5420  141.9220 C   0  0  2  0  0  3  0  0  0  0  0  0
  191.3230  173.6100  144.1760 O   0  0  0  0  0  0  0  0  0  0  0  0
  185.4060  178.4200  145.6900 C   0  0  2  0  0  3  0  0  0  0  0  0
  191.8600  175.2470  146.4350 C   0  0  0  0  0  2  0  0  0  0  0  0
  190.2210  174.3620  144.6700 C   0  0  1  0  0  3  0  0  0  0  0  0
  190.4130  174.9650  146.0700 C   0  0  2  0  0  3  0  0  0  0  0  0
  188.3600  176.5320  145.4640 C   0  0  2  0  0  3  0  0  0  0  0  0
  186.1800  179.3260  144.9480 O   0  0  0  0  0  0  0  0  0  0  0  0
  191.8320  174.1160  142.9480 C   0  0  2  0  0  3  0  0  0  0  0  0
  186.5300  178.6590  143.7560 C   0  0  0  0  0  2  0  0  0  0  0  0
  189.8570  177.0130  147.2880 N   0  0  0  0  0  0  0  0  0  0  0  0
  189.5350  176.1780  146.3530 C   0  0  0  0  0  0  0  0  0  0  0  0
  187.0450  176.5500  146.2240 C   0  0  0  0  0  2  0  0  0  0  0  0
  189.4430  174.5730  142.4610 O   0  0  0  0  0  0  0  0  0  0  0  0
  186.6180  175.3090  142.4650 O   0  0  0  0  0  1  0  0  0  0  0  0
  185.4380  178.7570  147.1740 C   0  0  0  0  0  1  0  0  0  0  0  0
  188.1780  175.6270  144.2490 C   0  0  2  0  0  3  0  0  0  0  0  0
  185.8490  177.0070  145.3500 C   0  0  2  0  0  3  0  0  0  0  0  0
  193.9410  174.7580  143.8730 O   0  0  0  0  0  0  0  0  0  0  0  0
  192.8120  175.2530  143.1940 C   0  0  1  0  0  3  0  0  0  0  0  0
  194.0830  174.9800  142.4910 C   0  0  1  0  0  3  0  0  0  0  0  0
  194.8320  176.2790  142.2690 C   0  0  0  0  0  2  0  0  0  0  0  0
  196.2590  176.1120  142.6570 C   0  0  0  0  0  0  0  0  0  0  0  0
  196.8320  176.9970  143.3430 O   0  0  0  0  0  1  0  0  0  0  0  0
  196.9480  174.9630  142.2920 O   0  0  0  0  0  0  0  0  0  0  0  0
  189.9230  172.5310  140.9420 O   0  0  0  0  0  1  0  0  0  0  0  0
  190.7870  173.6050  140.7290 C   0  0  0  0  0  2  0  0  0  0  0  0
  1 19  1  6  0  0  0
  1 22  1  0  0  0  0
  1 10  1  0  0  0  0
  2  3  1  0  0  0  0
  4 20  1  1  0  0  0
  4  5  1  0  0  0  0
  4 22  1  0  0  0  0
  5 15  1  1  0  0  0
  5 23  1  0  0  0  0
  6 32  1  6  0  0  0
  6 19  1  0  0  0  0
  6 14  1  0  0  0  0
  8 21  1  1  0  0  0
  9  2  1  0  0  0  0
 10  7  1  6  0  0  0
 10 11  1  0  0  0  0
 11 17  1  0  0  0  0
 11  9  1  6  0  0  0
 12 18  1  1  0  0  0
 12 17  1  0  0  0  0
 13  8  1  0  0  0  0
 14 25  1  0  0  0  0
 14  7  1  1  0  0  0
 15 13  1  0  0  0  0
 16  3  1  0  0  0  0
 17 16  2  0  0  0  0
 22 12  1  0  0  0  0
 23  8  1  0  0  0  0
 23 18  1  0  0  0  0
 25 24  1  0  0  0  0
 26 25  1  0  0  0  0
 26 24  1  0  0  0  0
 27 26  1  0  0  0  0
 27 28  1  0  0  0  0
 28 29  1  0  0  0  0
 30 28  2  0  0  0  0
 32 31  1  0  0  0  0
M  END
>  <MODEL>
1

>  <REMARK>
 VINA RESULT:      -7.6      0.000      0.000
  Name = 
  4 active torsions:
  status: ('A' for Active; 'I' for Inactive)
    1  A    between atoms: C_7  and  C_19
    2  A    between atoms: C_10  and  C_17
    3  A    between atoms: C_20  and  C_29
    4  A    between atoms: C_29  and  C_30
                            x       y       z     vdW  Elec       q    Type
                         _______ _______ _______ _____ _____    ______ ____

>  <TORSDO>
F 4

$$$$
=
 OpenBabel11112416413D

 32 37  0  0  1  0  0  0  0  0999 V2000
  190.2260  175.2760  143.4240 C   0  0  1  0  0  3  0  0  0  0  0  0
  191.0200  176.5250  148.0410 C   0  0  0  0  0  2  0  0  0  0  0  0
  190.1220  177.7310  147.7450 C   0  0  0  0  0  2  0  0  0  0  0  0
  188.1280  175.9370  142.1380 C   0  0  2  0  0  3  0  0  0  0  0  0
  186.8470  176.7870  142.2370 C   0  0  2  0  0  3  0  0  0  0  0  0
  191.9820  174.4420  142.3020 C   0  0  2  0  0  3  0  0  0  0  0  0
  191.8490  173.9160  144.7490 O   0  0  0  0  0  0  0  0  0  0  0  0
  185.4630  178.1660  143.4880 C   0  0  2  0  0  3  0  0  0  0  0  0
  191.5120  175.9110  146.7440 C   0  0  0  0  0  2  0  0  0  0  0  0
  190.6000  174.5960  144.7370 C   0  0  1  0  0  3  0  0  0  0  0  0
  190.2850  175.4120  146.0000 C   0  0  2  0  0  3  0  0  0  0  0  0
  188.4450  176.6250  144.5240 C   0  0  2  0  0  3  0  0  0  0  0  0
  186.3760  179.0410  142.8790 O   0  0  0  0  0  0  0  0  0  0  0  0
  192.6970  174.2980  143.6730 C   0  0  2  0  0  3  0  0  0  0  0  0
  187.1390  178.2560  141.9900 C   0  0  0  0  0  2  0  0  0  0  0  0
  189.2300  177.5340  146.6110 N   0  0  0  0  0  0  0  0  0  0  0  0
  189.2860  176.5420  145.7820 C   0  0  0  0  0  0  0  0  0  0  0  0
  186.9560  176.5970  144.8220 C   0  0  0  0  0  2  0  0  0  0  0  0
  190.5740  174.3970  142.3940 O   0  0  0  0  0  0  0  0  0  0  0  0
  187.8610  174.7890  141.3910 O   0  0  0  0  0  1  0  0  0  0  0  0
  184.9870  178.7130  144.8260 C   0  0  0  0  0  1  0  0  0  0  0  0
  188.7290  175.5400  143.4890 C   0  0  2  0  0  3  0  0  0  0  0  0
  186.0840  176.7810  143.5530 C   0  0  2  0  0  3  0  0  0  0  0  0
  194.2260  175.3540  145.1770 O   0  0  0  0  0  0  0  0  0  0  0  0
  193.4680  175.5650  144.0120 C   0  0  1  0  0  3  0  0  0  0  0  0
  194.9200  175.3000  143.9550 C   0  0  1  0  0  3  0  0  0  0  0  0
  195.6700  176.6010  143.7480 C   0  0  0  0  0  2  0  0  0  0  0  0
  196.6370  176.4530  142.6270 C   0  0  0  0  0  0  0  0  0  0  0  0
  196.2840  176.7290  141.4510 O   0  0  0  0  0  0  0  0  0  0  0  0
  197.9400  176.0460  142.8830 O   0  0  0  0  0  1  0  0  0  0  0  0
  192.1250  172.1020  141.8690 O   0  0  0  0  0  1  0  0  0  0  0  0
  192.4700  173.3560  141.3630 C   0  0  0  0  0  2  0  0  0  0  0  0
  1 19  1  6  0  0  0
  1 22  1  0  0  0  0
  1 10  1  0  0  0  0
  3  2  1  0  0  0  0
  4 20  1  1  0  0  0
  4  5  1  0  0  0  0
  4 22  1  0  0  0  0
  5 15  1  1  0  0  0
  5 23  1  0  0  0  0
  6 32  1  6  0  0  0
  6 19  1  0  0  0  0
  6 14  1  0  0  0  0
  8 23  1  0  0  0  0
  8 21  1  1  0  0  0
  9  2  1  0  0  0  0
 10  7  1  6  0  0  0
 10 11  1  0  0  0  0
 11  9  1  6  0  0  0
 12 18  1  1  0  0  0
 12 17  1  0  0  0  0
 13  8  1  0  0  0  0
 14 25  1  0  0  0  0
 14  7  1  1  0  0  0
 15 13  1  0  0  0  0
 16  3  1  0  0  0  0
 17 11  1  0  0  0  0
 17 16  2  0  0  0  0
 22 12  1  0  0  0  0
 23 18  1  0  0  0  0
 25 24  1  0  0  0  0
 26 25  1  0  0  0  0
 26 24  1  0  0  0  0
 27 26  1  0  0  0  0
 28 30  1  0  0  0  0
 28 27  1  0  0  0  0
 29 28  2  0  0  0  0
 32 31  1  0  0  0  0
M  END
>  <MODEL>
2

>  <REMARK>
 VINA RESULT:      -7.3      1.315      1.487
  Name = 
  4 active torsions:
  status: ('A' for Active; 'I' for Inactive)
    1  A    between atoms: C_7  and  C_19
    2  A    between atoms: C_10  and  C_17
    3  A    between atoms: C_20  and  C_29
    4  A    between atoms: C_29  and  C_30
                            x       y       z     vdW  Elec       q    Type
                         _______ _______ _______ _____ _____    ______ ____

>  <TORSDO>
F 4

$$$$
=
 OpenBabel11112416413D

 32 37  0  0  1  0  0  0  0  0999 V2000
  189.5630  175.2400  142.3540 C   0  0  1  0  0  3  0  0  0  0  0  0
  191.8480  176.5340  146.4310 C   0  0  0  0  0  2  0  0  0  0  0  0
  192.1330  175.0390  146.6050 C   0  0  0  0  0  2  0  0  0  0  0  0
  190.1560  173.1510  141.0220 C   0  0  2  0  0  3  0  0  0  0  0  0
  191.0360  171.8860  141.0530 C   0  0  2  0  0  3  0  0  0  0  0  0
  187.6550  176.3290  141.8950 C   0  0  2  0  0  3  0  0  0  0  0  0
  189.4500  177.6350  143.0590 O   0  0  0  0  0  0  0  0  0  0  0  0
  192.6750  170.6260  142.1040 C   0  0  2  0  0  3  0  0  0  0  0  0
  190.7200  176.7370  145.4370 C   0  0  0  0  0  2  0  0  0  0  0  0
  190.2590  176.4720  142.9260 C   0  0  1  0  0  3  0  0  0  0  0  0
  191.2040  176.1930  144.1040 C   0  0  2  0  0  3  0  0  0  0  0  0
  191.3990  173.7390  143.1140 C   0  0  2  0  0  3  0  0  0  0  0  0
  191.4710  170.1860  142.6760 O   0  0  0  0  0  0  0  0  0  0  0  0
  188.0580  177.3500  142.9930 C   0  0  2  0  0  3  0  0  0  0  0  0
  190.4390  170.8210  141.9530 C   0  0  0  0  0  2  0  0  0  0  0  0
  192.0680  174.2800  145.3630 N   0  0  0  0  0  0  0  0  0  0  0  0
  191.6260  174.7340  144.2350 C   0  0  0  0  0  0  0  0  0  0  0  0
  192.6940  173.1150  142.6240 C   0  0  0  0  0  2  0  0  0  0  0  0
  188.7570  175.6780  141.3000 O   0  0  0  0  0  0  0  0  0  0  0  0
  190.0290  173.5900  139.7040 O   0  0  0  0  0  1  0  0  0  0  0  0
  193.8290  170.4980  143.0890 C   0  0  0  0  0  1  0  0  0  0  0  0
  190.6670  174.2980  141.8970 C   0  0  2  0  0  3  0  0  0  0  0  0
  192.4690  172.0240  141.5470 C   0  0  2  0  0  3  0  0  0  0  0  0
  187.7560  177.9370  145.2910 O   0  0  0  0  0  0  0  0  0  0  0  0
  187.5270  176.9160  144.3510 C   0  0  1  0  0  3  0  0  0  0  0  0
  186.4480  177.8280  144.7830 C   0  0  1  0  0  3  0  0  0  0  0  0
  185.5710  177.1330  145.8060 C   0  0  0  0  0  2  0  0  0  0  0  0
  184.6670  178.1230  146.4520 C   0  0  0  0  0  0  0  0  0  0  0  0
  184.8020  178.3950  147.6730 O   0  0  0  0  0  1  0  0  0  0  0  0
  183.6990  178.7740  145.6990 O   0  0  0  0  0  0  0  0  0  0  0  0
  186.4910  178.3100  141.2640 O   0  0  0  0  0  1  0  0  0  0  0  0
  186.8370  177.0310  140.8290 C   0  0  0  0  0  2  0  0  0  0  0  0
  1 19  1  6  0  0  0
  1 10  1  0  0  0  0
  2  3  1  0  0  0  0
  4 20  1  6  0  0  0
  4  5  1  0  0  0  0
  4 22  1  0  0  0  0
  5 23  1  0  0  0  0
  5 15  1  1  0  0  0
  6 32  1  6  0  0  0
  6 14  1  0  0  0  0
  8 13  1  0  0  0  0
  8 21  1  1  0  0  0
  9  2  1  0  0  0  0
 10  7  1  1  0  0  0
 10 11  1  0  0  0  0
 11 17  1  0  0  0  0
 11  9  1  1  0  0  0
 12 18  1  6  0  0  0
 12 17  1  0  0  0  0
 14  7  1  1  0  0  0
 14 25  1  0  0  0  0
 15 13  1  0  0  0  0
 16  3  1  0  0  0  0
 17 16  2  0  0  0  0
 19  6  1  0  0  0  0
 22  1  1  0  0  0  0
 22 12  1  0  0  0  0
 23  8  1  0  0  0  0
 23 18  1  0  0  0  0
 25 26  1  0  0  0  0
 25 24  1  0  0  0  0
 26 24  1  0  0  0  0
 26 27  1  0  0  0  0
 27 28  1  0  0  0  0
 28 29  1  0  0  0  0
 30 28  2  0  0  0  0
 32 31  1  0  0  0  0
M  END
>  <MODEL>
3

>  <REMARK>
 VINA RESULT:      -7.0      2.843      7.339
  Name = 
  4 active torsions:
  status: ('A' for Active; 'I' for Inactive)
    1  A    between atoms: C_7  and  C_19
    2  A    between atoms: C_10  and  C_17
    3  A    between atoms: C_20  and  C_29
    4  A    between atoms: C_29  and  C_30
                            x       y       z     vdW  Elec       q    Type
                         _______ _______ _______ _____ _____    ______ ____

>  <TORSDO>
F 4

$$$$
=
 OpenBabel11112416413D

 32 37  0  0  1  0  0  0  0  0999 V2000
  190.1860  176.2320  145.6600 C   0  0  1  0  0  3  0  0  0  0  0  0
  189.5420  173.1940  141.9360 C   0  0  0  0  0  2  0  0  0  0  0  0
  190.9820  173.5470  141.5530 C   0  0  0  0  0  2  0  0  0  0  0  0
  192.4640  176.7170  146.6910 C   0  0  2  0  0  3  0  0  0  0  0  0
  193.9720  176.4520  146.5120 C   0  0  2  0  0  3  0  0  0  0  0  0
  188.4420  177.5440  146.1870 C   0  0  2  0  0  3  0  0  0  0  0  0
  187.9120  175.2540  145.3180 O   0  0  0  0  0  0  0  0  0  0  0  0
  195.6850  175.3920  145.3630 C   0  0  2  0  0  3  0  0  0  0  0  0
  188.9880  174.2320  142.8950 C   0  0  0  0  0  2  0  0  0  0  0  0
  189.3170  175.0270  145.3130 C   0  0  1  0  0  3  0  0  0  0  0  0
  189.8380  174.1670  144.1520 C   0  0  2  0  0  3  0  0  0  0  0  0
  192.2320  175.1270  144.7720 C   0  0  2  0  0  3  0  0  0  0  0  0
  195.4940  176.6010  144.6750 O   0  0  0  0  0  0  0  0  0  0  0  0
  187.5740  176.6350  145.2750 C   0  0  2  0  0  3  0  0  0  0  0  0
  194.5650  177.3420  145.4350 C   0  0  0  0  0  2  0  0  0  0  0  0
  191.7770  174.0570  142.6630 N   0  0  0  0  0  0  0  0  0  0  0  0
  191.3100  174.3860  143.8240 C   0  0  0  0  0  0  0  0  0  0  0  0
  193.4050  174.2740  145.2230 C   0  0  0  0  0  2  0  0  0  0  0  0
  189.5670  176.8870  146.7290 O   0  0  0  0  0  0  0  0  0  0  0  0
  192.1680  176.7890  148.0520 O   0  0  0  0  0  1  0  0  0  0  0  0
  196.1830  174.3010  144.4260 C   0  0  0  0  0  1  0  0  0  0  0  0
  191.5560  175.6820  146.0220 C   0  0  2  0  0  3  0  0  0  0  0  0
  194.4080  175.0510  146.1130 C   0  0  2  0  0  3  0  0  0  0  0  0
  186.6550  176.4150  143.0790 O   0  0  0  0  0  0  0  0  0  0  0  0
  187.5780  177.1510  143.8440 C   0  0  1  0  0  3  0  0  0  0  0  0
  186.2470  177.6930  143.5020 C   0  0  1  0  0  3  0  0  0  0  0  0
  186.3730  178.6660  142.3470 C   0  0  0  0  0  2  0  0  0  0  0  0
  185.4210  178.2920  141.2660 C   0  0  0  0  0  0  0  0  0  0  0  0
  185.8560  177.9430  140.1380 O   0  0  0  0  0  0  0  0  0  0  0  0
  184.0540  178.2930  141.5120 O   0  0  0  0  0  1  0  0  0  0  0  0
  186.2930  177.5780  147.2180 O   0  0  0  0  0  1  0  0  0  0  0  0
  187.5830  178.1000  147.3070 C   0  0  0  0  0  2  0  0  0  0  0  0
  1 22  1  0  0  0  0
  1 19  1  1  0  0  0
  2  9  1  0  0  0  0
  3  2  1  0  0  0  0
  3 16  1  0  0  0  0
  4 20  1  1  0  0  0
  5 15  1  6  0  0  0
  5  4  1  0  0  0  0
  6 19  1  0  0  0  0
  6 32  1  1  0  0  0
  8 21  1  6  0  0  0
  8 23  1  0  0  0  0
 10  7  1  6  0  0  0
 10  1  1  0  0  0  0
 11  9  1  6  0  0  0
 11 10  1  0  0  0  0
 12 18  1  1  0  0  0
 12 22  1  0  0  0  0
 13  8  1  0  0  0  0
 13 15  1  0  0  0  0
 14  7  1  6  0  0  0
 14  6  1  0  0  0  0
 16 17  2  0  0  0  0
 17 11  1  0  0  0  0
 17 12  1  0  0  0  0
 18 23  1  0  0  0  0
 22  4  1  0  0  0  0
 23  5  1  0  0  0  0
 24 26  1  0  0  0  0
 24 25  1  0  0  0  0
 25 14  1  0  0  0  0
 26 25  1  0  0  0  0
 27 26  1  0  0  0  0
 28 30  1  0  0  0  0
 28 27  1  0  0  0  0
 29 28  2  0  0  0  0
 31 32  1  0  0  0  0
M  END
>  <MODEL>
4

>  <REMARK>
 VINA RESULT:      -7.0      2.549      7.610
  Name = 
  4 active torsions:
  status: ('A' for Active; 'I' for Inactive)
    1  A    between atoms: C_7  and  C_19
    2  A    between atoms: C_10  and  C_17
    3  A    between atoms: C_20  and  C_29
    4  A    between atoms: C_29  and  C_30
                            x       y       z     vdW  Elec       q    Type
                         _______ _______ _______ _____ _____    ______ ____

>  <TORSDO>
F 4

$$$$
=
 OpenBabel11112416413D

 32 37  0  0  1  0  0  0  0  0999 V2000
  191.5560  175.0930  144.8820 C   0  0  1  0  0  3  0  0  0  0  0  0
  190.9900  170.8650  142.5750 C   0  0  0  0  0  2  0  0  0  0  0  0
  192.4290  171.0740  142.0900 C   0  0  0  0  0  2  0  0  0  0  0  0
  193.8180  175.9710  145.6570 C   0  0  2  0  0  3  0  0  0  0  0  0
  195.3310  175.6850  145.5940 C   0  0  2  0  0  3  0  0  0  0  0  0
  189.7870  176.4750  144.8740 C   0  0  2  0  0  3  0  0  0  0  0  0
  189.3010  174.0170  144.9300 O   0  0  0  0  0  0  0  0  0  0  0  0
  197.0700  174.3000  144.9310 C   0  0  2  0  0  3  0  0  0  0  0  0
  190.4130  172.1780  143.0720 C   0  0  0  0  0  2  0  0  0  0  0  0
  190.7090  173.8310  145.0130 C   0  0  1  0  0  3  0  0  0  0  0  0
  191.2530  172.6060  144.2630 C   0  0  2  0  0  3  0  0  0  0  0  0
  193.6270  173.7710  144.4780 C   0  0  2  0  0  3  0  0  0  0  0  0
  196.8660  175.1590  143.8390 O   0  0  0  0  0  0  0  0  0  0  0  0
  188.9420  175.2740  144.3700 C   0  0  2  0  0  3  0  0  0  0  0  0
  195.9180  176.1140  144.2630 C   0  0  0  0  0  2  0  0  0  0  0  0
  193.2060  171.9780  142.9270 N   0  0  0  0  0  0  0  0  0  0  0  0
  192.7250  172.7110  143.8790 C   0  0  0  0  0  0  0  0  0  0  0  0
  194.8090  173.1720  145.2190 C   0  0  0  0  0  2  0  0  0  0  0  0
  190.9180  176.0910  145.6250 O   0  0  0  0  0  0  0  0  0  0  0  0
  193.5100  176.5440  146.8910 O   0  0  0  0  0  1  0  0  0  0  0  0
  197.5930  172.9460  144.4750 C   0  0  0  0  0  1  0  0  0  0  0  0
  192.9320  174.7440  145.4270 C   0  0  2  0  0  3  0  0  0  0  0  0
  195.7930  174.2440  145.7530 C   0  0  2  0  0  3  0  0  0  0  0  0
  187.9660  174.3070  142.4130 O   0  0  0  0  0  0  0  0  0  0  0  0
  188.9490  175.2130  142.8500 C   0  0  1  0  0  3  0  0  0  0  0  0
  187.6480  175.6740  142.3230 C   0  0  1  0  0  3  0  0  0  0  0  0
  187.8120  176.1320  140.8860 C   0  0  0  0  0  2  0  0  0  0  0  0
  187.0020  177.3570  140.6520 C   0  0  0  0  0  0  0  0  0  0  0  0
  186.4470  177.5410  139.5380 O   0  0  0  0  0  0  0  0  0  0  0  0
  186.8280  178.2820  141.6730 O   0  0  0  0  0  1  0  0  0  0  0  0
  187.8890  177.9160  144.9060 O   0  0  0  0  0  1  0  0  0  0  0  0
  188.9110  177.3970  145.7000 C   0  0  0  0  0  2  0  0  0  0  0  0
  1 10  1  0  0  0  0
  1 22  1  0  0  0  0
  1 19  1  1  0  0  0
  2  9  1  0  0  0  0
  3  2  1  0  0  0  0
  3 16  1  0  0  0  0
  4 20  1  1  0  0  0
  5 15  1  6  0  0  0
  5  4  1  0  0  0  0
  5 23  1  0  0  0  0
  6 19  1  0  0  0  0
  6 32  1  1  0  0  0
  8 21  1  6  0  0  0
  8 23  1  0  0  0  0
 10  7  1  6  0  0  0
 11  9  1  6  0  0  0
 11 10  1  0  0  0  0
 12 18  1  1  0  0  0
 12 22  1  0  0  0  0
 13 15  1  0  0  0  0
 13  8  1  0  0  0  0
 14  6  1  0  0  0  0
 14  7  1  1  0  0  0
 16 17  2  0  0  0  0
 17 11  1  0  0  0  0
 17 12  1  0  0  0  0
 18 23  1  0  0  0  0
 22  4  1  0  0  0  0
 24 25  1  0  0  0  0
 25 14  1  0  0  0  0
 26 24  1  0  0  0  0
 26 25  1  0  0  0  0
 27 26  1  0  0  0  0
 28 27  1  0  0  0  0
 28 30  1  0  0  0  0
 29 28  2  0  0  0  0
 31 32  1  0  0  0  0
M  END
>  <MODEL>
5

>  <REMARK>
 VINA RESULT:      -6.8      2.769      7.653
  Name = 
  4 active torsions:
  status: ('A' for Active; 'I' for Inactive)
    1  A    between atoms: C_7  and  C_19
    2  A    between atoms: C_10  and  C_17
    3  A    between atoms: C_20  and  C_29
    4  A    between atoms: C_29  and  C_30
                            x       y       z     vdW  Elec       q    Type
                         _______ _______ _______ _____ _____    ______ ____

>  <TORSDO>
F 4

$$$$
=
 OpenBabel11112416413D

 32 37  0  0  1  0  0  0  0  0999 V2000
  192.3020  175.6510  143.4340 C   0  0  1  0  0  3  0  0  0  0  0  0
  190.5530  171.5640  141.4960 C   0  0  0  0  0  2  0  0  0  0  0  0
  189.3170  171.8220  142.3640 C   0  0  0  0  0  2  0  0  0  0  0  0
  190.8200  177.5390  144.2880 C   0  0  2  0  0  3  0  0  0  0  0  0
  189.3510  177.9180  144.5570 C   0  0  2  0  0  3  0  0  0  0  0  0
  194.4860  175.6510  143.9500 C   0  0  2  0  0  3  0  0  0  0  0  0
  193.8000  174.3190  141.9410 O   0  0  0  0  0  0  0  0  0  0  0  0
  187.0990  177.3750  144.4310 C   0  0  2  0  0  3  0  0  0  0  0  0
  191.7280  172.3770  142.0080 C   0  0  0  0  0  2  0  0  0  0  0  0
  192.4880  174.8230  142.1660 C   0  0  1  0  0  3  0  0  0  0  0  0
  191.3480  173.8400  141.8610 C   0  0  2  0  0  3  0  0  0  0  0  0
  189.8220  175.4680  143.2980 C   0  0  2  0  0  3  0  0  0  0  0  0
  187.5200  176.8520  145.6650 O   0  0  0  0  0  0  0  0  0  0  0  0
  194.6120  174.3530  143.1090 C   0  0  2  0  0  3  0  0  0  0  0  0
  188.8470  177.2960  145.8450 C   0  0  0  0  0  2  0  0  0  0  0  0
  189.1610  173.2140  142.7650 N   0  0  0  0  0  0  0  0  0  0  0  0
  190.0500  174.1410  142.6010 C   0  0  0  0  0  0  0  0  0  0  0  0
  188.6110  176.2050  142.7540 C   0  0  0  0  0  2  0  0  0  0  0  0
  193.4190  176.4830  143.5470 O   0  0  0  0  0  0  0  0  0  0  0  0
  191.5220  178.6750  143.8870 O   0  0  0  0  0  1  0  0  0  0  0  0
  185.9590  176.5530  143.8480 C   0  0  0  0  0  1  0  0  0  0  0  0
  191.0070  176.4280  143.2510 C   0  0  2  0  0  3  0  0  0  0  0  0
  188.3090  177.5160  143.5230 C   0  0  2  0  0  3  0  0  0  0  0  0
  194.8600  171.9840  143.3170 O   0  0  0  0  0  0  0  0  0  0  0  0
  194.3690  173.1260  143.9750 C   0  0  1  0  0  3  0  0  0  0  0  0
  195.6600  172.5110  144.3470 C   0  0  1  0  0  3  0  0  0  0  0  0
  195.4830  171.6700  145.5960 C   0  0  0  0  0  2  0  0  0  0  0  0
  196.6950  170.8350  145.8180 C   0  0  0  0  0  0  0  0  0  0  0  0
  196.7370  170.0330  146.7860 O   0  0  0  0  0  1  0  0  0  0  0  0
  197.7640  170.9140  144.9360 O   0  0  0  0  0  0  0  0  0  0  0  0
  196.7300  175.7030  143.1470 O   0  0  0  0  0  1  0  0  0  0  0  0
  195.7900  176.4230  143.8860 C   0  0  0  0  0  2  0  0  0  0  0  0
  1 19  1  6  0  0  0
  2  9  1  0  0  0  0
  2  3  1  0  0  0  0
  3 16  1  0  0  0  0
  4 20  1  6  0  0  0
  4  5  1  0  0  0  0
  5 15  1  1  0  0  0
  6 32  1  6  0  0  0
  8 21  1  6  0  0  0
  8 13  1  0  0  0  0
 10  7  1  1  0  0  0
 10  1  1  0  0  0  0
 11  9  1  1  0  0  0
 11 10  1  0  0  0  0
 11 17  1  0  0  0  0
 12 18  1  6  0  0  0
 13 15  1  0  0  0  0
 14  7  1  6  0  0  0
 14  6  1  0  0  0  0
 14 25  1  0  0  0  0
 17 16  2  0  0  0  0
 17 12  1  0  0  0  0
 18 23  1  0  0  0  0
 19  6  1  0  0  0  0
 22 12  1  0  0  0  0
 22  1  1  0  0  0  0
 22  4  1  0  0  0  0
 23  8  1  0  0  0  0
 23  5  1  0  0  0  0
 24 25  1  0  0  0  0
 24 26  1  0  0  0  0
 25 26  1  0  0  0  0
 26 27  1  0  0  0  0
 27 28  1  0  0  0  0
 28 29  1  0  0  0  0
 30 28  2  0  0  0  0
 31 32  1  0  0  0  0
M  END
>  <MODEL>
6

>  <REMARK>
 VINA RESULT:      -6.5      2.899      4.801
  Name = 
  4 active torsions:
  status: ('A' for Active; 'I' for Inactive)
    1  A    between atoms: C_7  and  C_19
    2  A    between atoms: C_10  and  C_17
    3  A    between atoms: C_20  and  C_29
    4  A    between atoms: C_29  and  C_30
                            x       y       z     vdW  Elec       q    Type
                         _______ _______ _______ _____ _____    ______ ____

>  <TORSDO>
F 4

$$$$
=
 OpenBabel11112416413D

 32 37  0  0  1  0  0  0  0  0999 V2000
  190.1090  174.8510  142.4330 C   0  0  1  0  0  3  0  0  0  0  0  0
  193.5040  176.1780  145.6310 C   0  0  0  0  0  2  0  0  0  0  0  0
  193.8220  174.6830  145.7340 C   0  0  0  0  0  2  0  0  0  0  0  0
  190.2730  172.7410  141.0150 C   0  0  2  0  0  3  0  0  0  0  0  0
  191.1180  171.4700  140.8020 C   0  0  2  0  0  3  0  0  0  0  0  0
  188.1540  175.9480  142.5440 C   0  0  2  0  0  3  0  0  0  0  0  0
  190.2180  177.2550  143.1060 O   0  0  0  0  0  0  0  0  0  0  0  0
  192.9910  170.2110  141.3380 C   0  0  2  0  0  3  0  0  0  0  0  0
  192.1330  176.3780  145.0130 C   0  0  0  0  0  2  0  0  0  0  0  0
  190.9470  176.0840  142.7560 C   0  0  1  0  0  3  0  0  0  0  0  0
  192.1980  175.8130  143.6050 C   0  0  2  0  0  3  0  0  0  0  0  0
  192.0820  173.3460  142.6360 C   0  0  2  0  0  3  0  0  0  0  0  0
  192.0080  169.7870  142.2470 O   0  0  0  0  0  0  0  0  0  0  0  0
  188.8670  176.9800  143.4590 C   0  0  2  0  0  3  0  0  0  0  0  0
  190.8110  170.4200  141.8530 C   0  0  0  0  0  2  0  0  0  0  0  0
  193.3890  173.9100  144.5790 N   0  0  0  0  0  0  0  0  0  0  0  0
  192.6340  174.3520  143.6250 C   0  0  0  0  0  0  0  0  0  0  0  0
  193.1720  172.7060  141.7940 C   0  0  0  0  0  2  0  0  0  0  0  0
  189.0280  175.2820  141.6590 O   0  0  0  0  0  0  0  0  0  0  0  0
  189.7620  173.1640  139.7880 O   0  0  0  0  0  1  0  0  0  0  0  0
  194.3840  170.0860  141.9380 C   0  0  0  0  0  1  0  0  0  0  0  0
  191.0240  173.8950  141.6830 C   0  0  2  0  0  3  0  0  0  0  0  0
  192.6330  171.6030  140.8470 C   0  0  2  0  0  3  0  0  0  0  0  0
  189.1960  177.6250  145.7380 O   0  0  0  0  0  0  0  0  0  0  0  0
  188.7610  176.5670  144.9190 C   0  0  1  0  0  3  0  0  0  0  0  0
  187.8050  177.4480  145.6220 C   0  0  1  0  0  3  0  0  0  0  0  0
  187.2860  176.7490  146.8630 C   0  0  0  0  0  2  0  0  0  0  0  0
  185.9290  177.2610  147.1990 C   0  0  0  0  0  0  0  0  0  0  0  0
  185.7910  178.1380  148.0910 O   0  0  0  0  0  1  0  0  0  0  0  0
  184.8200  176.7980  146.5040 O   0  0  0  0  0  0  0  0  0  0  0  0
  185.9400  176.8310  142.5690 O   0  0  0  0  0  1  0  0  0  0  0  0
  187.0590  176.6440  141.7580 C   0  0  0  0  0  2  0  0  0  0  0  0
  1 19  1  6  0  0  0
  1 10  1  0  0  0  0
  2  3  1  0  0  0  0
  4 20  1  6  0  0  0
  4 22  1  0  0  0  0
  5 23  1  0  0  0  0
  5  4  1  0  0  0  0
  5 15  1  1  0  0  0
  6 32  1  6  0  0  0
  6 14  1  0  0  0  0
  8 21  1  1  0  0  0
  8 13  1  0  0  0  0
  9  2  1  0  0  0  0
 10  7  1  1  0  0  0
 10 11  1  0  0  0  0
 11 17  1  0  0  0  0
 11  9  1  1  0  0  0
 12 18  1  6  0  0  0
 12 17  1  0  0  0  0
 14  7  1  6  0  0  0
 14 25  1  0  0  0  0
 15 13  1  0  0  0  0
 16  3  1  0  0  0  0
 17 16  2  0  0  0  0
 19  6  1  0  0  0  0
 22  1  1  0  0  0  0
 22 12  1  0  0  0  0
 23  8  1  0  0  0  0
 23 18  1  0  0  0  0
 25 26  1  0  0  0  0
 25 24  1  0  0  0  0
 26 24  1  0  0  0  0
 26 27  1  0  0  0  0
 27 28  1  0  0  0  0
 28 29  1  0  0  0  0
 30 28  2  0  0  0  0
 32 31  1  0  0  0  0
M  END
>  <MODEL>
7

>  <REMARK>
 VINA RESULT:      -6.4      2.921      7.322
  Name = 
  4 active torsions:
  status: ('A' for Active; 'I' for Inactive)
    1  A    between atoms: C_7  and  C_19
    2  A    between atoms: C_10  and  C_17
    3  A    between atoms: C_20  and  C_29
    4  A    between atoms: C_29  and  C_30
                            x       y       z     vdW  Elec       q    Type
                         _______ _______ _______ _____ _____    ______ ____

>  <TORSDO>
F 4

$$$$
=
 OpenBabel11112416413D

 32 37  0  0  1  0  0  0  0  0999 V2000
  192.5280  175.1060  144.8020 C   0  0  1  0  0  3  0  0  0  0  0  0
  190.3640  173.1580  140.9240 C   0  0  0  0  0  2  0  0  0  0  0  0
  191.5090  173.7820  140.1200 C   0  0  0  0  0  2  0  0  0  0  0  0
  195.0300  175.5720  144.9190 C   0  0  2  0  0  3  0  0  0  0  0  0
  196.3200  175.5590  144.0770 C   0  0  2  0  0  3  0  0  0  0  0  0
  191.1740  175.9900  146.3580 C   0  0  2  0  0  3  0  0  0  0  0  0
  190.3210  173.9810  145.1260 O   0  0  0  0  0  0  0  0  0  0  0  0
  197.3840  175.0820  142.0720 C   0  0  2  0  0  3  0  0  0  0  0  0
  190.2700  173.8120  142.2900 C   0  0  0  0  0  2  0  0  0  0  0  0
  191.5910  173.9440  144.4860 C   0  0  1  0  0  3  0  0  0  0  0  0
  191.5710  173.5100  143.0130 C   0  0  2  0  0  3  0  0  0  0  0  0
  194.0050  174.5570  142.8740 C   0  0  2  0  0  3  0  0  0  0  0  0
  196.9240  176.4000  141.9220 O   0  0  0  0  0  0  0  0  0  0  0  0
  190.0000  175.2660  145.6440 C   0  0  2  0  0  3  0  0  0  0  0  0
  196.4050  176.7780  143.1780 C   0  0  0  0  0  2  0  0  0  0  0  0
  192.6990  174.0620  140.9120 N   0  0  0  0  0  0  0  0  0  0  0  0
  192.7680  173.9950  142.2030 C   0  0  0  0  0  0  0  0  0  0  0  0
  195.2560  173.7670  142.5310 C   0  0  0  0  0  2  0  0  0  0  0  0
  192.4210  175.3570  146.1730 O   0  0  0  0  0  0  0  0  0  0  0  0
  195.3370  175.2260  146.2360 O   0  0  0  0  0  1  0  0  0  0  0  0
  197.4370  174.3640  140.7310 C   0  0  0  0  0  1  0  0  0  0  0  0
  193.9230  174.6550  144.3940 C   0  0  2  0  0  3  0  0  0  0  0  0
  196.5440  174.3880  143.1300 C   0  0  2  0  0  3  0  0  0  0  0  0
  188.1940  175.5880  144.1110 O   0  0  0  0  0  0  0  0  0  0  0  0
  189.4000  176.1530  144.5640 C   0  0  1  0  0  3  0  0  0  0  0  0
  188.0870  176.6670  145.0080 C   0  0  1  0  0  3  0  0  0  0  0  0
  187.7440  177.9260  144.2370 C   0  0  0  0  0  2  0  0  0  0  0  0
  186.3570  178.3550  144.5620 C   0  0  0  0  0  0  0  0  0  0  0  0
  185.5720  177.5590  145.1390 O   0  0  0  0  0  1  0  0  0  0  0  0
  185.9400  179.6450  144.2630 O   0  0  0  0  0  0  0  0  0  0  0  0
  191.5580  177.1870  148.3830 O   0  0  0  0  0  1  0  0  0  0  0  0
  190.8700  176.1020  147.8400 C   0  0  0  0  0  2  0  0  0  0  0  0
  1 19  1  1  0  0  0
  2  9  1  0  0  0  0
  3 16  1  0  0  0  0
  3  2  1  0  0  0  0
  4 20  1  1  0  0  0
  5 15  1  6  0  0  0
  5  4  1  0  0  0  0
  6 32  1  1  0  0  0
  8 21  1  6  0  0  0
  8 23  1  0  0  0  0
 10  1  1  0  0  0  0
 10  7  1  6  0  0  0
 11  9  1  6  0  0  0
 11 10  1  0  0  0  0
 12 18  1  1  0  0  0
 12 22  1  0  0  0  0
 13  8  1  0  0  0  0
 13 15  1  0  0  0  0
 14  7  1  6  0  0  0
 14  6  1  0  0  0  0
 16 17  2  0  0  0  0
 17 12  1  0  0  0  0
 17 11  1  0  0  0  0
 18 23  1  0  0  0  0
 19  6  1  0  0  0  0
 22  1  1  0  0  0  0
 22  4  1  0  0  0  0
 23  5  1  0  0  0  0
 24 25  1  0  0  0  0
 24 26  1  0  0  0  0
 25 26  1  0  0  0  0
 25 14  1  0  0  0  0
 27 28  1  0  0  0  0
 27 26  1  0  0  0  0
 28 29  1  0  0  0  0
 30 28  2  0  0  0  0
 32 31  1  0  0  0  0
M  END
>  <MODEL>
8

>  <REMARK>
 VINA RESULT:      -6.4      2.262      8.208
  Name = 
  4 active torsions:
  status: ('A' for Active; 'I' for Inactive)
    1  A    between atoms: C_7  and  C_19
    2  A    between atoms: C_10  and  C_17
    3  A    between atoms: C_20  and  C_29
    4  A    between atoms: C_29  and  C_30
                            x       y       z     vdW  Elec       q    Type
                         _______ _______ _______ _____ _____    ______ ____

>  <TORSDO>
F 4

$$$$
=
 OpenBabel11112416413D

 32 37  0  0  1  0  0  0  0  0999 V2000
  190.4870  174.5310  143.0880 C   0  0  1  0  0  3  0  0  0  0  0  0
  191.4780  169.8660  142.2140 C   0  0  0  0  0  2  0  0  0  0  0  0
  192.9480  170.2750  142.3530 C   0  0  0  0  0  2  0  0  0  0  0  0
  192.0170  176.0560  144.4400 C   0  0  2  0  0  3  0  0  0  0  0  0
  193.3970  176.1130  145.1240 C   0  0  2  0  0  3  0  0  0  0  0  0
  188.8180  175.4350  141.8910 C   0  0  2  0  0  3  0  0  0  0  0  0
  188.5910  173.0150  142.4990 O   0  0  0  0  0  0  0  0  0  0  0  0
  195.3600  175.0430  145.7410 C   0  0  2  0  0  3  0  0  0  0  0  0
  190.6160  171.0920  141.9770 C   0  0  0  0  0  2  0  0  0  0  0  0
  189.8000  173.1770  143.2310 C   0  0  1  0  0  3  0  0  0  0  0  0
  190.7450  171.9660  143.2120 C   0  0  2  0  0  3  0  0  0  0  0  0
  192.6120  173.6560  144.0470 C   0  0  2  0  0  3  0  0  0  0  0  0
  195.6230  175.5510  144.4590 O   0  0  0  0  0  0  0  0  0  0  0  0
  188.4280  173.9910  141.4770 C   0  0  2  0  0  3  0  0  0  0  0  0
  194.5050  176.3390  144.1130 C   0  0  0  0  0  2  0  0  0  0  0  0
  193.1460  171.5020  143.1130 N   0  0  0  0  0  0  0  0  0  0  0  0
  192.2050  172.3090  143.4840 C   0  0  0  0  0  0  0  0  0  0  0  0
  193.3480  173.5310  145.3690 C   0  0  0  0  0  2  0  0  0  0  0  0
  189.4850  175.5050  143.1320 O   0  0  0  0  0  0  0  0  0  0  0  0
  191.1080  176.8170  145.1740 O   0  0  0  0  0  1  0  0  0  0  0  0
  196.1580  173.7740  146.0020 C   0  0  0  0  0  1  0  0  0  0  0  0
  191.4640  174.6410  144.2490 C   0  0  2  0  0  3  0  0  0  0  0  0
  193.8570  174.8930  145.9080 C   0  0  2  0  0  3  0  0  0  0  0  0
  188.4990  172.4900  139.6170 O   0  0  0  0  0  0  0  0  0  0  0  0
  189.1640  173.5780  140.2110 C   0  0  1  0  0  3  0  0  0  0  0  0
  188.2820  173.7550  139.0380 C   0  0  1  0  0  3  0  0  0  0  0  0
  189.1220  173.8800  137.7820 C   0  0  0  0  0  2  0  0  0  0  0  0
  188.4240  174.7450  136.7930 C   0  0  0  0  0  0  0  0  0  0  0  0
  187.3550  175.3260  137.1100 O   0  0  0  0  0  1  0  0  0  0  0  0
  188.9710  174.9400  135.5320 O   0  0  0  0  0  0  0  0  0  0  0  0
  186.6120  175.7140  142.7490 O   0  0  0  0  0  1  0  0  0  0  0  0
  187.5740  176.3020  141.9270 C   0  0  0  0  0  2  0  0  0  0  0  0
  1 19  1  1  0  0  0
  1 10  1  0  0  0  0
  1 22  1  0  0  0  0
  2  3  1  0  0  0  0
  3 16  1  0  0  0  0
  4  5  1  0  0  0  0
  4 20  1  1  0  0  0
  5 15  1  6  0  0  0
  5 23  1  0  0  0  0
  6 32  1  1  0  0  0
  6 19  1  0  0  0  0
  8 23  1  0  0  0  0
  8 21  1  6  0  0  0
  9  2  1  0  0  0  0
 10  7  1  6  0  0  0
 11  9  1  6  0  0  0
 11 10  1  0  0  0  0
 11 17  1  0  0  0  0
 12 22  1  0  0  0  0
 12 18  1  1  0  0  0
 13  8  1  0  0  0  0
 14  6  1  0  0  0  0
 14  7  1  1  0  0  0
 15 13  1  0  0  0  0
 16 17  2  0  0  0  0
 17 12  1  0  0  0  0
 18 23  1  0  0  0  0
 22  4  1  0  0  0  0
 24 25  1  0  0  0  0
 25 14  1  0  0  0  0
 26 24  1  0  0  0  0
 26 25  1  0  0  0  0
 27 26  1  0  0  0  0
 28 29  1  0  0  0  0
 28 27  1  0  0  0  0
 30 28  2  0  0  0  0
 32 31  1  0  0  0  0
M  END
>  <MODEL>
9

>  <REMARK>
 VINA RESULT:      -6.4      3.133      7.038
  Name = 
  4 active torsions:
  status: ('A' for Active; 'I' for Inactive)
    1  A    between atoms: C_7  and  C_19
    2  A    between atoms: C_10  and  C_17
    3  A    between atoms: C_20  and  C_29
    4  A    between atoms: C_29  and  C_30
                            x       y       z     vdW  Elec       q    Type
                         _______ _______ _______ _____ _____    ______ ____

>  <TORSDO>
F 4

$$$$
