=
 OpenBabel11112416243D

 30 35  0  0  1  0  0  0  0  0999 V2000
  190.6820  175.8150  143.3410 C   0  0  2  0  0  3  0  0  0  0  0  0
  192.7910  174.8850  144.4570 C   0  0  0  0  0  0  0  0  0  0  0  0
  189.2970  176.5470  146.8580 N   0  0  0  0  0  2  0  0  0  0  0  0
  189.2440  176.2580  143.6590 C   0  0  2  0  0  3  0  0  0  0  0  0
  190.8050  174.8020  142.3310 O   0  0  0  0  0  0  0  0  0  0  0  0
  187.7890  175.2580  140.5450 O   0  0  0  0  0  0  0  0  0  0  0  0
  186.3630  177.4700  143.0500 C   0  0  1  0  0  3  0  0  0  0  0  0
  188.5820  175.3700  141.5170 C   0  0  0  0  0  0  0  0  0  0  0  0
  186.5370  176.9130  144.4630 C   0  0  2  0  0  3  0  0  0  0  0  0
  187.9350  176.7760  146.5600 C   0  0  0  0  0  0  0  0  0  0  0  0
  189.5810  174.2880  141.8120 C   0  0  2  0  0  3  0  0  0  0  0  0
  188.5290  176.4850  142.4110 N   0  0  0  0  0  0  0  0  0  0  0  0
  193.6200  174.6370  145.6780 C   0  0  0  0  0  2  0  0  0  0  0  0
  185.2380  177.3310  145.1090 C   0  0  0  0  0  2  0  0  0  0  0  0
  185.6160  178.7140  143.1590 N   0  0  0  0  0  2  0  0  0  0  0  0
  193.2590  174.6470  143.3530 O   0  0  0  0  0  0  0  0  0  0  0  0
  190.0670  177.2590  145.8560 C   0  0  2  0  0  3  0  0  0  0  0  0
  193.6290  175.8890  146.5510 C   0  0  0  0  0  2  0  0  0  0  0  0
  191.3820  175.4110  144.6430 C   0  0  1  0  0  3  0  0  0  0  0  0
  189.1370  177.4450  144.6390 C   0  0  2  0  0  3  0  0  0  0  0  0
  187.0100  176.4210  147.3380 O   0  0  0  0  0  0  0  0  0  0  0  0
  187.7210  177.5080  145.2770 C   0  0  1  0  0  3  0  0  0  0  0  0
  184.7860  178.5680  144.3500 C   0  0  0  0  0  2  0  0  0  0  0  0
  187.4010  178.0380  140.8090 C   0  0  0  0  0  1  0  0  0  0  0  0
  192.2040  176.3360  146.8670 C   0  0  0  0  0  2  0  0  0  0  0  0
  191.4420  176.6360  145.5700 C   0  0  2  0  0  3  0  0  0  0  0  0
  187.6560  177.6580  142.2610 C   0  0  1  0  0  3  0  0  0  0  0  0
  188.9870  173.2360  142.7400 C   0  0  0  0  0  2  0  0  0  0  0  0
  190.0540  172.0850  144.6510 C   0  0  0  0  0  1  0  0  0  0  0  0
  190.0470  172.2310  143.1440 C   0  0  0  0  0  2  0  0  0  0  0  0
  1  5  1  6  0  0  0
  1  4  1  0  0  0  0
  1 19  1  0  0  0  0
  2 13  1  0  0  0  0
  4 12  1  6  0  0  0
  4 20  1  0  0  0  0
  6  8  2  0  0  0  0
  7 15  1  1  0  0  0
  7  9  1  0  0  0  0
  8 11  1  0  0  0  0
  8 12  1  0  0  0  0
  9 14  1  1  0  0  0
  9 22  1  0  0  0  0
 10  3  1  0  0  0  0
 10 21  2  0  0  0  0
 11  5  1  0  0  0  0
 11 28  1  1  0  0  0
 13 18  1  0  0  0  0
 15 23  1  0  0  0  0
 16  2  2  0  0  0  0
 17  3  1  1  0  0  0
 18 25  1  0  0  0  0
 19  2  1  6  0  0  0
 19 26  1  0  0  0  0
 20 22  1  0  0  0  0
 20 17  1  0  0  0  0
 22 10  1  0  0  0  0
 23 14  1  0  0  0  0
 24 27  1  0  0  0  0
 26 17  1  0  0  0  0
 26 25  1  0  0  0  0
 27 12  1  0  0  0  0
 27  7  1  0  0  0  0
 28 30  1  0  0  0  0
 30 29  1  0  0  0  0
M  END
>  <MODEL>
1

>  <REMARK>
 VINA RESULT:      -8.5      0.000      0.000
  Name = 
  2 active torsions:
  status: ('A' for Active; 'I' for Inactive)
    1  A    between atoms: C_11  and  C_28
    2  A    between atoms: C_28  and  C_30
                            x       y       z     vdW  Elec       q    Type
                         _______ _______ _______ _____ _____    ______ ____

>  <TORSDO>
F 2

$$$$
=
 OpenBabel11112416243D

 30 35  0  0  1  0  0  0  0  0999 V2000
  189.3990  174.8820  144.2380 C   0  0  2  0  0  3  0  0  0  0  0  0
  190.8820  173.3760  142.7920 C   0  0  0  0  0  0  0  0  0  0  0  0
  187.6080  175.9970  141.0170 N   0  0  0  0  0  2  0  0  0  0  0  0
  188.3810  176.0300  144.1360 C   0  0  2  0  0  3  0  0  0  0  0  0
  190.5320  175.1370  145.0820 O   0  0  0  0  0  0  0  0  0  0  0  0
  189.2340  177.6360  147.2190 O   0  0  0  0  0  0  0  0  0  0  0  0
  186.2560  178.1480  145.2020 C   0  0  1  0  0  3  0  0  0  0  0  0
  189.2820  176.9060  146.1940 C   0  0  0  0  0  0  0  0  0  0  0  0
  186.5920  178.2720  143.7160 C   0  0  2  0  0  3  0  0  0  0  0  0
  186.9160  177.1360  141.4850 C   0  0  0  0  0  0  0  0  0  0  0  0
  190.6030  176.4430  145.6510 C   0  0  2  0  0  3  0  0  0  0  0  0
  188.1030  176.5400  145.4710 N   0  0  0  0  0  0  0  0  0  0  0  0
  191.2290  172.7690  141.4680 C   0  0  0  0  0  2  0  0  0  0  0  0
  185.5970  179.3170  143.2720 C   0  0  0  0  0  2  0  0  0  0  0  0
  184.8190  178.3330  145.3410 N   0  0  0  0  0  2  0  0  0  0  0  0
  191.4650  173.0000  143.7980 O   0  0  0  0  0  0  0  0  0  0  0  0
  187.4330  174.9640  142.0210 C   0  0  2  0  0  3  0  0  0  0  0  0
  189.9550  172.2910  140.7770 C   0  0  0  0  0  2  0  0  0  0  0  0
  189.8230  174.4590  142.8280 C   0  0  1  0  0  3  0  0  0  0  0  0
  187.1030  175.6890  143.3430 C   0  0  2  0  0  3  0  0  0  0  0  0
  186.7440  178.1570  140.7670 O   0  0  0  0  0  0  0  0  0  0  0  0
  186.3830  176.9830  142.8710 C   0  0  1  0  0  3  0  0  0  0  0  0
  184.4260  179.1990  144.2350 C   0  0  0  0  0  2  0  0  0  0  0  0
  186.5230  176.8780  147.3780 C   0  0  0  0  0  1  0  0  0  0  0  0
  188.9380  173.4260  140.6760 C   0  0  0  0  0  2  0  0  0  0  0  0
  188.5840  173.9480  142.0740 C   0  0  2  0  0  3  0  0  0  0  0  0
  186.7250  176.8590  145.8690 C   0  0  1  0  0  3  0  0  0  0  0  0
  191.1660  177.4490  144.6570 C   0  0  0  0  0  2  0  0  0  0  0  0
  193.5390  176.9100  145.0990 C   0  0  0  0  0  1  0  0  0  0  0  0
  192.4510  176.9240  144.0470 C   0  0  0  0  0  2  0  0  0  0  0  0
  1  5  1  1  0  0  0
  2 16  2  0  0  0  0
  3 10  1  0  0  0  0
  4  1  1  0  0  0  0
  4 12  1  1  0  0  0
  5 11  1  0  0  0  0
  7 15  1  6  0  0  0
  7 27  1  0  0  0  0
  8  6  2  0  0  0  0
  9 14  1  6  0  0  0
  9  7  1  0  0  0  0
 10 22  1  0  0  0  0
 11 28  1  6  0  0  0
 11  8  1  0  0  0  0
 12 27  1  0  0  0  0
 12  8  1  0  0  0  0
 13  2  1  0  0  0  0
 14 23  1  0  0  0  0
 17  3  1  6  0  0  0
 17 26  1  0  0  0  0
 17 20  1  0  0  0  0
 18 13  1  0  0  0  0
 19  2  1  1  0  0  0
 19  1  1  0  0  0  0
 20  4  1  0  0  0  0
 21 10  2  0  0  0  0
 22 20  1  0  0  0  0
 22  9  1  0  0  0  0
 23 15  1  0  0  0  0
 25 18  1  0  0  0  0
 25 26  1  0  0  0  0
 26 19  1  0  0  0  0
 27 24  1  0  0  0  0
 30 28  1  0  0  0  0
 30 29  1  0  0  0  0
M  END
>  <MODEL>
2

>  <REMARK>
 VINA RESULT:      -8.2      1.742      4.610
  Name = 
  2 active torsions:
  status: ('A' for Active; 'I' for Inactive)
    1  A    between atoms: C_11  and  C_28
    2  A    between atoms: C_28  and  C_30
                            x       y       z     vdW  Elec       q    Type
                         _______ _______ _______ _____ _____    ______ ____

>  <TORSDO>
F 2

$$$$
=
 OpenBabel11112416243D

 30 35  0  0  1  0  0  0  0  0999 V2000
  188.1580  177.5620  143.8520 C   0  0  2  0  0  3  0  0  0  0  0  0
  186.1630  178.5100  142.5550 C   0  0  0  0  0  0  0  0  0  0  0  0
  187.8890  174.3850  141.6940 N   0  0  0  0  0  2  0  0  0  0  0  0
  188.9310  176.2540  144.0910 C   0  0  2  0  0  3  0  0  0  0  0  0
  187.6580  178.2070  145.0330 O   0  0  0  0  0  0  0  0  0  0  0  0
  189.8490  176.9130  147.4870 O   0  0  0  0  0  0  0  0  0  0  0  0
  191.2440  174.4050  145.2590 C   0  0  1  0  0  3  0  0  0  0  0  0
  189.2700  176.9650  146.3700 C   0  0  0  0  0  0  0  0  0  0  0  0
  190.1530  173.6570  144.4930 C   0  0  2  0  0  3  0  0  0  0  0  0
  188.6980  173.4960  142.4370 C   0  0  0  0  0  0  0  0  0  0  0  0
  187.8770  177.5140  146.2600 C   0  0  2  0  0  3  0  0  0  0  0  0
  189.8760  176.4520  145.1800 N   0  0  0  0  0  0  0  0  0  0  0  0
  185.1690  178.4180  141.4400 C   0  0  0  0  0  2  0  0  0  0  0  0
  190.7230  172.2600  144.4510 C   0  0  0  0  0  2  0  0  0  0  0  0
  192.5220  173.8210  144.8800 N   0  0  0  0  0  2  0  0  0  0  0  0
  186.2280  179.5330  143.2210 O   0  0  0  0  0  0  0  0  0  0  0  0
  188.6050  175.6460  141.6350 C   0  0  2  0  0  3  0  0  0  0  0  0
  185.8750  177.9760  140.1620 C   0  0  0  0  0  2  0  0  0  0  0  0
  187.0460  177.3100  142.8270 C   0  0  1  0  0  3  0  0  0  0  0  0
  189.5820  175.6510  142.8290 C   0  0  2  0  0  3  0  0  0  0  0  0
  188.4280  172.2690  142.5350 O   0  0  0  0  0  0  0  0  0  0  0  0
  189.9000  174.1440  143.0380 C   0  0  1  0  0  3  0  0  0  0  0  0
  192.2320  172.4340  144.5340 C   0  0  0  0  0  2  0  0  0  0  0  0
  192.2300  176.6170  146.0050 C   0  0  0  0  0  1  0  0  0  0  0  0
  186.6480  176.6790  140.3940 C   0  0  0  0  0  2  0  0  0  0  0  0
  187.6910  176.8730  141.5010 C   0  0  2  0  0  3  0  0  0  0  0  0
  191.2420  175.9200  145.0790 C   0  0  1  0  0  3  0  0  0  0  0  0
  186.8410  176.4180  146.4670 C   0  0  0  0  0  2  0  0  0  0  0  0
  185.1730  178.0710  147.2430 C   0  0  0  0  0  1  0  0  0  0  0  0
  185.4440  176.9640  146.2470 C   0  0  0  0  0  2  0  0  0  0  0  0
  1  4  1  0  0  0  0
  1  5  1  1  0  0  0
  2 16  2  0  0  0  0
  3 10  1  0  0  0  0
  4 12  1  1  0  0  0
  5 11  1  0  0  0  0
  7 15  1  6  0  0  0
  8  6  2  0  0  0  0
  9 14  1  6  0  0  0
  9  7  1  0  0  0  0
 10 21  2  0  0  0  0
 10 22  1  0  0  0  0
 11  8  1  0  0  0  0
 11 28  1  6  0  0  0
 12  8  1  0  0  0  0
 13  2  1  0  0  0  0
 14 23  1  0  0  0  0
 17  3  1  1  0  0  0
 17 20  1  0  0  0  0
 18 25  1  0  0  0  0
 18 13  1  0  0  0  0
 19  2  1  6  0  0  0
 19  1  1  0  0  0  0
 20 22  1  0  0  0  0
 20  4  1  0  0  0  0
 22  9  1  0  0  0  0
 23 15  1  0  0  0  0
 25 26  1  0  0  0  0
 26 17  1  0  0  0  0
 26 19  1  0  0  0  0
 27 12  1  0  0  0  0
 27  7  1  0  0  0  0
 27 24  1  0  0  0  0
 30 28  1  0  0  0  0
 30 29  1  0  0  0  0
M  END
>  <MODEL>
3

>  <REMARK>
 VINA RESULT:      -8.1      2.125      6.582
  Name = 
  2 active torsions:
  status: ('A' for Active; 'I' for Inactive)
    1  A    between atoms: C_11  and  C_28
    2  A    between atoms: C_28  and  C_30
                            x       y       z     vdW  Elec       q    Type
                         _______ _______ _______ _____ _____    ______ ____

>  <TORSDO>
F 2

$$$$
=
 OpenBabel11112416243D

 30 35  0  0  1  0  0  0  0  0999 V2000
  187.1870  176.3590  144.1450 C   0  0  2  0  0  3  0  0  0  0  0  0
  185.5090  178.1000  144.9880 C   0  0  0  0  0  0  0  0  0  0  0  0
  189.2600  177.0030  147.3250 N   0  0  0  0  0  2  0  0  0  0  0  0
  188.6020  175.8180  144.4120 C   0  0  2  0  0  3  0  0  0  0  0  0
  186.9440  176.8170  142.8070 O   0  0  0  0  0  0  0  0  0  0  0  0
  189.3960  175.0040  141.0180 O   0  0  0  0  0  0  0  0  0  0  0  0
  191.1120  173.8990  144.0230 C   0  0  1  0  0  3  0  0  0  0  0  0
  188.8430  175.5020  142.0330 C   0  0  0  0  0  0  0  0  0  0  0  0
  191.3320  175.0490  145.0060 C   0  0  2  0  0  3  0  0  0  0  0  0
  190.4820  176.3900  146.9680 C   0  0  0  0  0  0  0  0  0  0  0  0
  188.0640  176.7810  141.9240 C   0  0  2  0  0  3  0  0  0  0  0  0
  188.9790  174.9170  143.3320 N   0  0  0  0  0  0  0  0  0  0  0  0
  185.0170  179.0300  146.0520 C   0  0  0  0  0  2  0  0  0  0  0  0
  192.6920  174.7060  145.5660 C   0  0  0  0  0  2  0  0  0  0  0  0
  191.7230  172.7100  144.5990 N   0  0  0  0  0  2  0  0  0  0  0  0
  184.8270  177.9120  143.9910 O   0  0  0  0  0  0  0  0  0  0  0  0
  188.2060  176.0940  146.9170 C   0  0  2  0  0  3  0  0  0  0  0  0
  185.0740  178.3310  147.4080 C   0  0  0  0  0  2  0  0  0  0  0  0
  186.8560  177.4350  145.1840 C   0  0  1  0  0  3  0  0  0  0  0  0
  188.8020  175.1990  145.8100 C   0  0  2  0  0  3  0  0  0  0  0  0
  191.5950  176.8560  147.3290 O   0  0  0  0  0  0  0  0  0  0  0  0
  190.3120  175.1370  146.1760 C   0  0  1  0  0  3  0  0  0  0  0  0
  192.8170  173.1960  145.4320 C   0  0  0  0  0  2  0  0  0  0  0  0
  189.5270  172.6190  142.5170 C   0  0  0  0  0  1  0  0  0  0  0  0
  186.4760  177.7880  147.6760 C   0  0  0  0  0  2  0  0  0  0  0  0
  186.8790  176.7930  146.5820 C   0  0  2  0  0  3  0  0  0  0  0  0
  189.6590  173.6500  143.6290 C   0  0  1  0  0  3  0  0  0  0  0  0
  188.9690  177.9890  142.1320 C   0  0  0  0  0  2  0  0  0  0  0  0
  190.8140  178.4380  143.7160 C   0  0  0  0  0  1  0  0  0  0  0  0
  190.3440  177.5450  142.5890 C   0  0  0  0  0  2  0  0  0  0  0  0
  1  5  1  6  0  0  0
  1  4  1  0  0  0  0
  1 19  1  0  0  0  0
  2 13  1  0  0  0  0
  4 12  1  6  0  0  0
  4 20  1  0  0  0  0
  6  8  2  0  0  0  0
  7 15  1  1  0  0  0
  7  9  1  0  0  0  0
  8 12  1  0  0  0  0
  9 14  1  1  0  0  0
  9 22  1  0  0  0  0
 10  3  1  0  0  0  0
 10 21  2  0  0  0  0
 11  8  1  0  0  0  0
 11 28  1  1  0  0  0
 11  5  1  0  0  0  0
 12 27  1  0  0  0  0
 13 18  1  0  0  0  0
 15 23  1  0  0  0  0
 16  2  2  0  0  0  0
 17  3  1  6  0  0  0
 18 25  1  0  0  0  0
 19  2  1  6  0  0  0
 19 26  1  0  0  0  0
 20 22  1  0  0  0  0
 20 17  1  0  0  0  0
 22 10  1  0  0  0  0
 23 14  1  0  0  0  0
 24 27  1  0  0  0  0
 26 17  1  0  0  0  0
 26 25  1  0  0  0  0
 27  7  1  0  0  0  0
 28 30  1  0  0  0  0
 30 29  1  0  0  0  0
M  END
>  <MODEL>
4

>  <REMARK>
 VINA RESULT:      -7.8      2.075      5.634
  Name = 
  2 active torsions:
  status: ('A' for Active; 'I' for Inactive)
    1  A    between atoms: C_11  and  C_28
    2  A    between atoms: C_28  and  C_30
                            x       y       z     vdW  Elec       q    Type
                         _______ _______ _______ _____ _____    ______ ____

>  <TORSDO>
F 2

$$$$
=
 OpenBabel11112416243D

 30 35  0  0  1  0  0  0  0  0999 V2000
  188.0070  177.8780  145.0360 C   0  0  2  0  0  3  0  0  0  0  0  0
  185.5710  178.5650  145.4290 C   0  0  0  0  0  0  0  0  0  0  0  0
  186.7820  175.6640  142.1340 N   0  0  0  0  0  2  0  0  0  0  0  0
  188.8640  176.8560  144.2700 C   0  0  2  0  0  3  0  0  0  0  0  0
  188.2160  177.9180  146.4550 O   0  0  0  0  0  0  0  0  0  0  0  0
  191.4860  176.5970  146.6930 O   0  0  0  0  0  0  0  0  0  0  0  0
  191.5500  175.4980  143.2310 C   0  0  1  0  0  3  0  0  0  0  0  0
  190.3780  176.8400  146.1480 C   0  0  0  0  0  0  0  0  0  0  0  0
  190.2690  174.7580  142.8470 C   0  0  2  0  0  3  0  0  0  0  0  0
  187.9240  174.8610  141.9180 C   0  0  0  0  0  0  0  0  0  0  0  0
  189.1310  176.9570  146.9760 C   0  0  2  0  0  3  0  0  0  0  0  0
  190.2430  176.9540  144.7280 N   0  0  0  0  0  0  0  0  0  0  0  0
  184.1310  178.5560  145.0220 C   0  0  0  0  0  2  0  0  0  0  0  0
  190.8070  173.6890  141.9270 C   0  0  0  0  0  2  0  0  0  0  0  0
  192.4290  175.4790  142.0710 N   0  0  0  0  0  2  0  0  0  0  0  0
  185.9310  179.2800  146.3520 O   0  0  0  0  0  0  0  0  0  0  0  0
  187.2560  177.0260  142.2980 C   0  0  2  0  0  3  0  0  0  0  0  0
  184.0240  178.7910  143.5180 C   0  0  0  0  0  2  0  0  0  0  0  0
  186.5310  177.6610  144.6830 C   0  0  1  0  0  3  0  0  0  0  0  0
  188.7320  176.9250  142.7350 C   0  0  2  0  0  3  0  0  0  0  0  0
  187.8380  173.6500  141.5840 O   0  0  0  0  0  0  0  0  0  0  0  0
  189.2110  175.6000  142.0790 C   0  0  1  0  0  3  0  0  0  0  0  0
  192.0860  174.2640  141.3400 C   0  0  0  0  0  2  0  0  0  0  0  0
  192.6370  177.5260  144.2920 C   0  0  0  0  0  1  0  0  0  0  0  0
  184.8770  177.7810  142.7530 C   0  0  0  0  0  2  0  0  0  0  0  0
  186.3460  177.8990  143.1750 C   0  0  2  0  0  3  0  0  0  0  0  0
  191.3480  176.9150  143.7600 C   0  0  1  0  0  3  0  0  0  0  0  0
  188.4650  175.5980  147.1520 C   0  0  0  0  0  2  0  0  0  0  0  0
  189.4970  173.6110  146.1030 C   0  0  0  0  0  1  0  0  0  0  0  0
  189.5120  174.5150  147.3160 C   0  0  0  0  0  2  0  0  0  0  0  0
  1  5  1  1  0  0  0
  2 16  2  0  0  0  0
  4 12  1  6  0  0  0
  4  1  1  0  0  0  0
  5 11  1  0  0  0  0
  7 15  1  6  0  0  0
  7 27  1  0  0  0  0
  8  6  2  0  0  0  0
  8 11  1  0  0  0  0
  9 14  1  6  0  0  0
  9  7  1  0  0  0  0
 10 22  1  0  0  0  0
 10  3  1  0  0  0  0
 11 28  1  6  0  0  0
 12  8  1  0  0  0  0
 13  2  1  0  0  0  0
 17  3  1  1  0  0  0
 17 20  1  0  0  0  0
 17 26  1  0  0  0  0
 18 13  1  0  0  0  0
 19  1  1  0  0  0  0
 19  2  1  1  0  0  0
 20  4  1  0  0  0  0
 21 10  2  0  0  0  0
 22 20  1  0  0  0  0
 22  9  1  0  0  0  0
 23 14  1  0  0  0  0
 23 15  1  0  0  0  0
 25 26  1  0  0  0  0
 25 18  1  0  0  0  0
 26 19  1  0  0  0  0
 27 24  1  0  0  0  0
 27 12  1  0  0  0  0
 28 30  1  0  0  0  0
 29 30  1  0  0  0  0
M  END
>  <MODEL>
5

>  <REMARK>
 VINA RESULT:      -7.5      1.968      6.228
  Name = 
  2 active torsions:
  status: ('A' for Active; 'I' for Inactive)
    1  A    between atoms: C_11  and  C_28
    2  A    between atoms: C_28  and  C_30
                            x       y       z     vdW  Elec       q    Type
                         _______ _______ _______ _____ _____    ______ ____

>  <TORSDO>
F 2

$$$$
=
 OpenBabel11112416243D

 30 35  0  0  1  0  0  0  0  0999 V2000
  191.7830  175.6900  142.7130 C   0  0  2  0  0  3  0  0  0  0  0  0
  194.1890  174.8170  142.6260 C   0  0  0  0  0  0  0  0  0  0  0  0
  192.0370  175.6410  146.5540 N   0  0  0  0  0  2  0  0  0  0  0  0
  190.6130  175.9110  143.6870 C   0  0  2  0  0  3  0  0  0  0  0  0
  191.4820  174.8890  141.5600 O   0  0  0  0  0  0  0  0  0  0  0  0
  187.9800  175.3170  141.3360 O   0  0  0  0  0  0  0  0  0  0  0  0
  187.7240  176.8880  144.6020 C   0  0  1  0  0  3  0  0  0  0  0  0
  189.1120  175.3430  141.8870 C   0  0  0  0  0  0  0  0  0  0  0  0
  188.5050  176.1160  145.6660 C   0  0  2  0  0  3  0  0  0  0  0  0
  190.6750  175.7680  146.9070 C   0  0  0  0  0  0  0  0  0  0  0  0
  190.1660  174.3430  141.5090 C   0  0  2  0  0  3  0  0  0  0  0  0
  189.4240  176.2730  142.9290 N   0  0  0  0  0  0  0  0  0  0  0  0
  195.4700  174.4510  143.3090 C   0  0  0  0  0  2  0  0  0  0  0  0
  187.6040  176.2690  146.8670 C   0  0  0  0  0  2  0  0  0  0  0  0
  187.0690  178.0040  145.2660 N   0  0  0  0  0  2  0  0  0  0  0  0
  194.1390  174.8270  141.4050 O   0  0  0  0  0  0  0  0  0  0  0  0
  192.2820  176.5970  145.4910 C   0  0  2  0  0  3  0  0  0  0  0  0
  195.8260  175.5250  144.3330 C   0  0  0  0  0  2  0  0  0  0  0  0
  192.9870  175.1440  143.4880 C   0  0  1  0  0  3  0  0  0  0  0  0
  190.9120  176.8900  144.8410 C   0  0  2  0  0  3  0  0  0  0  0  0
  190.1860  175.1840  147.9100 O   0  0  0  0  0  0  0  0  0  0  0  0
  189.9100  176.6860  146.0120 C   0  0  1  0  0  3  0  0  0  0  0  0
  186.8390  177.5640  146.6380 C   0  0  0  0  0  2  0  0  0  0  0  0
  187.6790  177.9490  142.3010 C   0  0  0  0  0  1  0  0  0  0  0  0
  194.6660  175.7520  145.3010 C   0  0  0  0  0  2  0  0  0  0  0  0
  193.4120  176.1880  144.5350 C   0  0  2  0  0  3  0  0  0  0  0  0
  188.5450  177.3510  143.4020 C   0  0  1  0  0  3  0  0  0  0  0  0
  190.0560  173.0870  142.3630 C   0  0  0  0  0  2  0  0  0  0  0  0
  191.7860  171.6230  143.3530 C   0  0  0  0  0  1  0  0  0  0  0  0
  191.2000  172.1400  142.0580 C   0  0  0  0  0  2  0  0  0  0  0  0
  1  5  1  6  0  0  0
  1 19  1  0  0  0  0
  1  4  1  0  0  0  0
  2 13  1  0  0  0  0
  3 10  1  0  0  0  0
  4 12  1  6  0  0  0
  4 20  1  0  0  0  0
  6  8  2  0  0  0  0
  7 15  1  1  0  0  0
  7  9  1  0  0  0  0
  8 12  1  0  0  0  0
  9 22  1  0  0  0  0
  9 14  1  1  0  0  0
 10 21  2  0  0  0  0
 11  5  1  0  0  0  0
 11  8  1  0  0  0  0
 11 28  1  1  0  0  0
 12 27  1  0  0  0  0
 13 18  1  0  0  0  0
 15 23  1  0  0  0  0
 16  2  2  0  0  0  0
 17  3  1  1  0  0  0
 18 25  1  0  0  0  0
 19  2  1  6  0  0  0
 19 26  1  0  0  0  0
 20 17  1  0  0  0  0
 20 22  1  0  0  0  0
 22 10  1  0  0  0  0
 23 14  1  0  0  0  0
 24 27  1  0  0  0  0
 26 25  1  0  0  0  0
 26 17  1  0  0  0  0
 27  7  1  0  0  0  0
 30 28  1  0  0  0  0
 30 29  1  0  0  0  0
M  END
>  <MODEL>
6

>  <REMARK>
 VINA RESULT:      -7.3      1.663      2.231
  Name = 
  2 active torsions:
  status: ('A' for Active; 'I' for Inactive)
    1  A    between atoms: C_11  and  C_28
    2  A    between atoms: C_28  and  C_30
                            x       y       z     vdW  Elec       q    Type
                         _______ _______ _______ _____ _____    ______ ____

>  <TORSDO>
F 2

$$$$
=
 OpenBabel11112416243D

 30 35  0  0  1  0  0  0  0  0999 V2000
  190.5630  174.0610  142.8370 C   0  0  2  0  0  3  0  0  0  0  0  0
  191.3070  173.2660  140.5190 C   0  0  0  0  0  0  0  0  0  0  0  0
  187.8160  176.1300  141.1070 N   0  0  0  0  0  2  0  0  0  0  0  0
  189.6640  175.1030  143.5250 C   0  0  2  0  0  3  0  0  0  0  0  0
  191.9400  174.0710  143.2430 O   0  0  0  0  0  0  0  0  0  0  0  0
  191.6910  175.5590  146.4400 O   0  0  0  0  0  0  0  0  0  0  0  0
  188.2310  176.5630  145.9650 C   0  0  1  0  0  3  0  0  0  0  0  0
  191.3110  175.2460  145.2810 C   0  0  0  0  0  0  0  0  0  0  0  0
  188.0160  177.2280  144.6060 C   0  0  2  0  0  3  0  0  0  0  0  0
  187.4250  176.9820  142.1640 C   0  0  0  0  0  0  0  0  0  0  0  0
  192.3080  175.0910  144.1700 C   0  0  2  0  0  3  0  0  0  0  0  0
  189.9260  175.0860  144.9570 N   0  0  0  0  0  0  0  0  0  0  0  0
  191.1050  173.1920  139.0380 C   0  0  0  0  0  2  0  0  0  0  0  0
  187.0080  178.2960  144.9540 C   0  0  0  0  0  2  0  0  0  0  0  0
  186.9600  176.5930  146.6730 N   0  0  0  0  0  2  0  0  0  0  0  0
  192.1850  172.5950  141.0410 O   0  0  0  0  0  0  0  0  0  0  0  0
  187.9390  174.7990  141.6700 C   0  0  2  0  0  3  0  0  0  0  0  0
  189.6360  172.9100  138.7370 C   0  0  0  0  0  2  0  0  0  0  0  0
  190.4160  174.1950  141.3180 C   0  0  1  0  0  3  0  0  0  0  0  0
  188.1640  174.9840  143.1860 C   0  0  2  0  0  3  0  0  0  0  0  0
  187.0820  178.1780  141.9680 O   0  0  0  0  0  0  0  0  0  0  0  0
  187.4200  176.3130  143.4980 C   0  0  1  0  0  3  0  0  0  0  0  0
  186.2590  177.7680  146.1690 C   0  0  0  0  0  2  0  0  0  0  0  0
  189.1720  174.6210  147.2950 C   0  0  0  0  0  1  0  0  0  0  0  0
  188.7380  173.9390  139.4210 C   0  0  0  0  0  2  0  0  0  0  0  0
  188.9530  173.9060  140.9380 C   0  0  2  0  0  3  0  0  0  0  0  0
  188.8130  175.1530  145.9140 C   0  0  1  0  0  3  0  0  0  0  0  0
  192.5460  176.4190  143.4630 C   0  0  0  0  0  2  0  0  0  0  0  0
  191.1750  178.4730  143.5810 C   0  0  0  0  0  1  0  0  0  0  0  0
  192.1170  177.5710  144.3480 C   0  0  0  0  0  2  0  0  0  0  0  0
  1  5  1  6  0  0  0
  1  4  1  0  0  0  0
  2 16  2  0  0  0  0
  3 10  1  0  0  0  0
  4 12  1  1  0  0  0
  5 11  1  0  0  0  0
  7 15  1  6  0  0  0
  8  6  2  0  0  0  0
  9 14  1  1  0  0  0
  9  7  1  0  0  0  0
 10 22  1  0  0  0  0
 11 28  1  6  0  0  0
 11  8  1  0  0  0  0
 12  8  1  0  0  0  0
 12 27  1  0  0  0  0
 13  2  1  0  0  0  0
 14 23  1  0  0  0  0
 17  3  1  6  0  0  0
 17 20  1  0  0  0  0
 18 13  1  0  0  0  0
 18 25  1  0  0  0  0
 19  2  1  6  0  0  0
 19  1  1  0  0  0  0
 20 22  1  0  0  0  0
 20  4  1  0  0  0  0
 21 10  2  0  0  0  0
 22  9  1  0  0  0  0
 23 15  1  0  0  0  0
 25 26  1  0  0  0  0
 26 19  1  0  0  0  0
 26 17  1  0  0  0  0
 27  7  1  0  0  0  0
 27 24  1  0  0  0  0
 28 30  1  0  0  0  0
 29 30  1  0  0  0  0
M  END
>  <MODEL>
7

>  <REMARK>
 VINA RESULT:      -7.2      2.032      4.986
  Name = 
  2 active torsions:
  status: ('A' for Active; 'I' for Inactive)
    1  A    between atoms: C_11  and  C_28
    2  A    between atoms: C_28  and  C_30
                            x       y       z     vdW  Elec       q    Type
                         _______ _______ _______ _____ _____    ______ ____

>  <TORSDO>
F 2

$$$$
=
 OpenBabel11112416243D

 30 35  0  0  1  0  0  0  0  0999 V2000
  191.1080  176.3250  144.0180 C   0  0  2  0  0  3  0  0  0  0  0  0
  188.5940  176.8030  144.1090 C   0  0  0  0  0  0  0  0  0  0  0  0
  190.2880  173.0280  142.2070 N   0  0  0  0  0  2  0  0  0  0  0  0
  192.1130  175.2010  143.7130 C   0  0  2  0  0  3  0  0  0  0  0  0
  191.2410  176.9370  145.3100 O   0  0  0  0  0  0  0  0  0  0  0  0
  194.6240  176.2270  146.0480 O   0  0  0  0  0  0  0  0  0  0  0  0
  194.9840  173.8910  143.2880 C   0  0  1  0  0  3  0  0  0  0  0  0
  193.5240  176.1010  145.4490 C   0  0  0  0  0  0  0  0  0  0  0  0
  193.8160  172.9080  143.2220 C   0  0  2  0  0  3  0  0  0  0  0  0
  191.5240  172.3520  142.3230 C   0  0  0  0  0  0  0  0  0  0  0  0
  192.2330  176.3730  146.1660 C   0  0  2  0  0  3  0  0  0  0  0  0
  193.4470  175.6390  144.0980 N   0  0  0  0  0  0  0  0  0  0  0  0
  187.1860  176.4590  143.7360 C   0  0  0  0  0  2  0  0  0  0  0  0
  194.5170  171.6420  142.7930 C   0  0  0  0  0  2  0  0  0  0  0  0
  195.9160  173.5350  142.2290 N   0  0  0  0  0  2  0  0  0  0  0  0
  188.8240  177.8580  144.6800 O   0  0  0  0  0  0  0  0  0  0  0  0
  190.5960  174.3940  141.8280 C   0  0  2  0  0  3  0  0  0  0  0  0
  187.1280  176.0790  142.2590 C   0  0  0  0  0  2  0  0  0  0  0  0
  189.6860  175.8080  143.7760 C   0  0  1  0  0  3  0  0  0  0  0  0
  192.0510  174.6550  142.2720 C   0  0  2  0  0  3  0  0  0  0  0  0
  191.5920  171.1050  142.4870 O   0  0  0  0  0  0  0  0  0  0  0  0
  192.7090  173.2490  142.1850 C   0  0  1  0  0  3  0  0  0  0  0  0
  195.7500  172.0990  142.0290 C   0  0  0  0  0  2  0  0  0  0  0  0
  195.7800  176.2900  143.4770 C   0  0  0  0  0  1  0  0  0  0  0  0
  188.1270  174.9660  141.9490 C   0  0  0  0  0  2  0  0  0  0  0  0
  189.5500  175.4190  142.2940 C   0  0  2  0  0  3  0  0  0  0  0  0
  194.5970  175.3660  143.2230 C   0  0  1  0  0  3  0  0  0  0  0  0
  191.7170  175.1170  146.8560 C   0  0  0  0  0  2  0  0  0  0  0  0
  189.3190  174.6060  147.1750 C   0  0  0  0  0  1  0  0  0  0  0  0
  190.4820  175.4350  147.6750 C   0  0  0  0  0  2  0  0  0  0  0  0
  1  5  1  1  0  0  0
  2 16  2  0  0  0  0
  3 10  1  0  0  0  0
  4  1  1  0  0  0  0
  4 12  1  6  0  0  0
  5 11  1  0  0  0  0
  7 15  1  6  0  0  0
  8  6  2  0  0  0  0
  8 11  1  0  0  0  0
  9 14  1  6  0  0  0
  9  7  1  0  0  0  0
 10 21  2  0  0  0  0
 11 28  1  6  0  0  0
 12  8  1  0  0  0  0
 13  2  1  0  0  0  0
 17  3  1  1  0  0  0
 17 20  1  0  0  0  0
 17 26  1  0  0  0  0
 18 13  1  0  0  0  0
 19  1  1  0  0  0  0
 19  2  1  6  0  0  0
 20  4  1  0  0  0  0
 22 20  1  0  0  0  0
 22 10  1  0  0  0  0
 22  9  1  0  0  0  0
 23 15  1  0  0  0  0
 23 14  1  0  0  0  0
 25 18  1  0  0  0  0
 25 26  1  0  0  0  0
 26 19  1  0  0  0  0
 27  7  1  0  0  0  0
 27 24  1  0  0  0  0
 27 12  1  0  0  0  0
 28 30  1  0  0  0  0
 29 30  1  0  0  0  0
M  END
>  <MODEL>
8

>  <REMARK>
 VINA RESULT:      -7.0      2.973      7.005
  Name = 
  2 active torsions:
  status: ('A' for Active; 'I' for Inactive)
    1  A    between atoms: C_11  and  C_28
    2  A    between atoms: C_28  and  C_30
                            x       y       z     vdW  Elec       q    Type
                         _______ _______ _______ _____ _____    ______ ____

>  <TORSDO>
F 2

$$$$
=
 OpenBabel11112416243D

 30 35  0  0  1  0  0  0  0  0999 V2000
  191.0830  175.3710  143.2160 C   0  0  2  0  0  3  0  0  0  0  0  0
  189.1580  174.9060  141.5920 C   0  0  0  0  0  0  0  0  0  0  0  0
  192.5900  171.9760  142.2040 N   0  0  0  0  0  2  0  0  0  0  0  0
  192.2750  174.6840  143.9040 C   0  0  2  0  0  3  0  0  0  0  0  0
  190.1460  176.0070  144.0980 O   0  0  0  0  0  0  0  0  0  0  0  0
  192.1730  176.5820  146.9370 O   0  0  0  0  0  0  0  0  0  0  0  0
  194.8860  174.4980  145.7160 C   0  0  1  0  0  3  0  0  0  0  0  0
  191.8470  176.0570  145.8390 C   0  0  0  0  0  0  0  0  0  0  0  0
  194.3770  173.1570  145.1870 C   0  0  2  0  0  3  0  0  0  0  0  0
  193.5420  171.7960  143.2330 C   0  0  0  0  0  0  0  0  0  0  0  0
  190.4010  175.8530  145.4930 C   0  0  2  0  0  3  0  0  0  0  0  0
  192.8250  175.5800  144.9100 N   0  0  0  0  0  0  0  0  0  0  0  0
  188.5250  174.0700  140.5250 C   0  0  0  0  0  2  0  0  0  0  0  0
  195.4800  172.2250  145.6300 C   0  0  0  0  0  2  0  0  0  0  0  0
  196.3370  174.4880  145.6060 N   0  0  0  0  0  2  0  0  0  0  0  0
  188.6590  175.9810  141.8900 O   0  0  0  0  0  0  0  0  0  0  0  0
  192.7050  173.3550  141.7690 C   0  0  2  0  0  3  0  0  0  0  0  0
  189.5780  173.6740  139.4940 C   0  0  0  0  0  2  0  0  0  0  0  0
  190.3960  174.3700  142.2810 C   0  0  1  0  0  3  0  0  0  0  0  0
  193.3440  174.1320  142.9390 C   0  0  2  0  0  3  0  0  0  0  0  0
  193.8010  170.6610  143.7140 O   0  0  0  0  0  0  0  0  0  0  0  0
  194.2220  173.0590  143.6430 C   0  0  1  0  0  3  0  0  0  0  0  0
  196.7290  173.0880  145.7200 C   0  0  0  0  0  2  0  0  0  0  0  0
  194.6890  177.0240  145.7430 C   0  0  0  0  0  1  0  0  0  0  0  0
  190.7670  172.9950  140.1720 C   0  0  0  0  0  2  0  0  0  0  0  0
  191.4010  173.9370  141.2000 C   0  0  2  0  0  3  0  0  0  0  0  0
  194.2800  175.7300  145.0510 C   0  0  1  0  0  3  0  0  0  0  0  0
  189.9040  174.5060  146.0000 C   0  0  0  0  0  2  0  0  0  0  0  0
  188.1020  175.8720  147.0000 C   0  0  0  0  0  1  0  0  0  0  0  0
  189.0250  174.6930  147.2200 C   0  0  0  0  0  2  0  0  0  0  0  0
  1  4  1  0  0  0  0
  1  5  1  1  0  0  0
  2 16  2  0  0  0  0
  3 10  1  0  0  0  0
  4 12  1  1  0  0  0
  5 11  1  0  0  0  0
  7 15  1  6  0  0  0
  8  6  2  0  0  0  0
  9 14  1  6  0  0  0
  9  7  1  0  0  0  0
 10 22  1  0  0  0  0
 10 21  2  0  0  0  0
 11  8  1  0  0  0  0
 11 28  1  6  0  0  0
 12 27  1  0  0  0  0
 12  8  1  0  0  0  0
 13  2  1  0  0  0  0
 14 23  1  0  0  0  0
 15 23  1  0  0  0  0
 17  3  1  1  0  0  0
 17 20  1  0  0  0  0
 18 25  1  0  0  0  0
 18 13  1  0  0  0  0
 19  2  1  6  0  0  0
 19  1  1  0  0  0  0
 20 22  1  0  0  0  0
 20  4  1  0  0  0  0
 22  9  1  0  0  0  0
 25 26  1  0  0  0  0
 26 17  1  0  0  0  0
 26 19  1  0  0  0  0
 27  7  1  0  0  0  0
 27 24  1  0  0  0  0
 28 30  1  0  0  0  0
 29 30  1  0  0  0  0
M  END
>  <MODEL>
9

>  <REMARK>
 VINA RESULT:      -6.8      3.070      7.224
  Name = 
  2 active torsions:
  status: ('A' for Active; 'I' for Inactive)
    1  A    between atoms: C_11  and  C_28
    2  A    between atoms: C_28  and  C_30
                            x       y       z     vdW  Elec       q    Type
                         _______ _______ _______ _____ _____    ______ ____

>  <TORSDO>
F 2

$$$$
