=
 OpenBabel11112416403D

 32 37  0  0  1  0  0  0  0  0999 V2000
  189.7260  175.3720  143.6250 C   0  0  0  0  0  0  0  0  0  0  0  0
  191.4870  176.5490  148.0030 C   0  0  0  0  0  3  0  0  0  0  0  0
  190.4030  177.5300  148.1930 C   0  0  0  0  0  3  0  0  0  0  0  0
  187.5200  176.2150  142.7960 C   0  0  2  0  0  3  0  0  0  0  0  0
  186.2570  176.7970  143.4140 C   0  0  2  0  0  3  0  0  0  0  0  0
  190.9660  173.7960  142.1510 C   0  0  2  0  0  3  0  0  0  0  0  0
  191.8670  174.3490  144.4200 C   0  0  0  0  0  2  0  0  0  0  0  0
  185.2980  178.7260  144.2810 N   0  0  0  0  0  0  0  0  0  0  0  0
  191.7000  175.9770  146.8140 C   0  0  0  0  0  3  0  0  0  0  0  0
  190.7730  175.3040  144.6120 N   0  0  0  0  0  0  0  0  0  0  0  0
  190.9140  176.3890  145.5890 C   0  0  1  0  0  3  0  0  0  0  0  0
  188.5450  176.9570  145.0980 C   0  0  0  0  0  0  0  0  0  0  0  0
  184.5320  178.3820  143.1410 N   0  0  0  0  0  2  0  0  0  0  0  0
  192.2180  174.1870  142.9410 C   0  0  2  0  0  3  0  0  0  0  0  0
  185.2070  177.2720  142.4600 C   0  0  0  0  0  2  0  0  0  0  0  0
  189.4930  177.7380  147.2370 C   0  0  0  0  0  3  0  0  0  0  0  0
  189.5800  177.0020  145.9570 C   0  0  0  0  0  0  0  0  0  0  0  0
  187.2640  177.7020  145.4150 C   0  0  0  0  0  2  0  0  0  0  0  0
  189.8760  174.6840  142.4130 O   0  0  0  0  0  0  0  0  0  0  0  0
  187.2160  174.9510  142.2840 O   0  0  0  0  0  1  0  0  0  0  0  0
  185.5430  180.1560  144.2050 C   0  0  0  0  0  1  0  0  0  0  0  0
  188.6300  176.1230  143.8460 C   0  0  0  0  0  0  0  0  0  0  0  0
  186.5770  178.0620  144.1130 C   0  0  1  0  0  3  0  0  0  0  0  0
  193.8130  176.0430  143.3850 C   0  0  0  0  0  2  0  0  0  0  0  0
  192.8260  175.4690  142.3880 C   0  0  1  0  0  3  0  0  0  0  0  0
  194.3160  175.2700  142.1840 C   0  0  1  0  0  3  0  0  0  0  0  0
  194.7990  176.2380  141.1230 C   0  0  0  0  0  2  0  0  0  0  0  0
  196.2810  176.3660  141.1900 C   0  0  0  0  0  0  0  0  0  0  0  0
  196.9850  176.0470  140.1980 O   0  0  0  0  0  0  0  0  0  0  0  0
  196.8830  176.8710  142.3360 O   0  0  0  0  0  1  0  0  0  0  0  0
  189.1990  172.1930  142.2280 O   0  0  0  0  0  1  0  0  0  0  0  0
  190.5640  172.3630  142.4610 C   0  0  0  0  0  2  0  0  0  0  0  0
  1 22  2  0  0  0  0
  1 10  1  0  0  0  0
  2  3  1  0  0  0  0
  4 20  1  1  0  0  0
  4  5  1  0  0  0  0
  4 22  1  0  0  0  0
  5 15  1  6  0  0  0
  5 23  1  0  0  0  0
  6 19  1  0  0  0  0
  6 32  1  1  0  0  0
  6 14  1  0  0  0  0
  7 10  1  0  0  0  0
  9  2  2  0  0  0  0
 10 11  1  0  0  0  0
 11 17  1  0  0  0  0
 11  9  1  1  0  0  0
 12 18  1  0  0  0  0
 12 17  2  0  0  0  0
 13  8  1  0  0  0  0
 14  7  1  1  0  0  0
 15 13  1  0  0  0  0
 16  3  2  0  0  0  0
 17 16  1  0  0  0  0
 19  1  1  0  0  0  0
 21  8  1  0  0  0  0
 22 12  1  0  0  0  0
 23  8  1  0  0  0  0
 23 18  1  1  0  0  0
 25 14  1  0  0  0  0
 25 24  1  1  0  0  0
 26 27  1  6  0  0  0
 26 25  1  0  0  0  0
 26 24  1  0  0  0  0
 27 28  1  0  0  0  0
 28 30  1  0  0  0  0
 29 28  2  0  0  0  0
 31 32  1  0  0  0  0
M  END
>  <MODEL>
1

>  <REMARK>
 VINA RESULT:      -7.6      0.000      0.000
  Name = 
  4 active torsions:
  status: ('A' for Active; 'I' for Inactive)
    1  A    between atoms: C_7  and  C_19
    2  A    between atoms: C_10  and  C_17
    3  A    between atoms: C_20  and  C_29
    4  A    between atoms: C_29  and  C_30
                            x       y       z     vdW  Elec       q    Type
                         _______ _______ _______ _____ _____    ______ ____

>  <TORSDO>
F 4

$$$$
=
 OpenBabel11112416403D

 32 37  0  0  1  0  0  0  0  0999 V2000
  190.6590  174.7660  143.6330 C   0  0  0  0  0  0  0  0  0  0  0  0
  194.5550  176.4650  145.9980 C   0  0  0  0  0  3  0  0  0  0  0  0
  195.1460  175.1130  146.0290 C   0  0  0  0  0  3  0  0  0  0  0  0
  190.5430  172.4290  142.7460 C   0  0  2  0  0  3  0  0  0  0  0  0
  191.5370  171.3310  142.3920 C   0  0  2  0  0  3  0  0  0  0  0  0
  188.7210  176.2560  143.1680 C   0  0  2  0  0  3  0  0  0  0  0  0
  190.7360  177.1660  144.3420 C   0  0  0  0  0  2  0  0  0  0  0  0
  192.8680  169.6400  143.2630 N   0  0  0  0  0  0  0  0  0  0  0  0
  193.2860  176.6560  145.6240 C   0  0  0  0  0  3  0  0  0  0  0  0
  191.3270  175.8250  144.3470 N   0  0  0  0  0  0  0  0  0  0  0  0
  192.3700  175.4910  145.3230 C   0  0  1  0  0  3  0  0  0  0  0  0
  192.5830  173.3120  144.1460 C   0  0  0  0  0  0  0  0  0  0  0  0
  191.9270  169.0060  142.4160 N   0  0  0  0  0  2  0  0  0  0  0  0
  189.2090  177.1050  144.3450 C   0  0  2  0  0  3  0  0  0  0  0  0
  190.9550  170.0150  141.9830 C   0  0  0  0  0  2  0  0  0  0  0  0
  194.4920  174.0690  145.5130 C   0  0  0  0  0  3  0  0  0  0  0  0
  193.1450  174.2530  144.9260 C   0  0  0  0  0  0  0  0  0  0  0  0
  193.3140  172.0110  143.8800 C   0  0  0  0  0  2  0  0  0  0  0  0
  189.3690  174.9820  143.1300 O   0  0  0  0  0  0  0  0  0  0  0  0
  189.9630  172.8950  141.5630 O   0  0  0  0  0  1  0  0  0  0  0  0
  192.9210  168.8610  144.4880 C   0  0  0  0  0  1  0  0  0  0  0  0
  191.2520  173.5650  143.4870 C   0  0  0  0  0  0  0  0  0  0  0  0
  192.2910  170.9280  143.6000 C   0  0  1  0  0  3  0  0  0  0  0  0
  189.2100  177.3820  146.8160 C   0  0  0  0  0  2  0  0  0  0  0  0
  188.6930  176.5460  145.6630 C   0  0  1  0  0  3  0  0  0  0  0  0
  187.7910  177.5690  146.3240 C   0  0  1  0  0  3  0  0  0  0  0  0
  186.8330  176.8510  147.2540 C   0  0  0  0  0  2  0  0  0  0  0  0
  185.4700  177.4370  147.1290 C   0  0  0  0  0  0  0  0  0  0  0  0
  184.5900  176.8450  146.4520 O   0  0  0  0  0  0  0  0  0  0  0  0
  185.1590  178.6190  147.7890 O   0  0  0  0  0  1  0  0  0  0  0  0
  188.4030  178.2800  141.9420 O   0  0  0  0  0  1  0  0  0  0  0  0
  188.9310  176.9920  141.8530 C   0  0  0  0  0  2  0  0  0  0  0  0
  1 10  1  0  0  0  0
  2  3  1  0  0  0  0
  4 20  1  6  0  0  0
  4 22  1  0  0  0  0
  5 15  1  1  0  0  0
  5  4  1  0  0  0  0
  5 23  1  0  0  0  0
  6 32  1  6  0  0  0
  6 14  1  0  0  0  0
  7 10  1  0  0  0  0
  8 23  1  0  0  0  0
  8 21  1  0  0  0  0
  9  2  2  0  0  0  0
 10 11  1  0  0  0  0
 11  9  1  6  0  0  0
 12 17  2  0  0  0  0
 13  8  1  0  0  0  0
 14  7  1  1  0  0  0
 14 25  1  0  0  0  0
 15 13  1  0  0  0  0
 16  3  2  0  0  0  0
 17 11  1  0  0  0  0
 17 16  1  0  0  0  0
 18 12  1  0  0  0  0
 19  6  1  0  0  0  0
 19  1  1  0  0  0  0
 22  1  2  0  0  0  0
 22 12  1  0  0  0  0
 23 18  1  6  0  0  0
 25 26  1  0  0  0  0
 25 24  1  1  0  0  0
 26 24  1  0  0  0  0
 26 27  1  1  0  0  0
 28 27  1  0  0  0  0
 28 30  1  0  0  0  0
 29 28  2  0  0  0  0
 32 31  1  0  0  0  0
M  END
>  <MODEL>
2

>  <REMARK>
 VINA RESULT:      -7.4      3.395      7.532
  Name = 
  4 active torsions:
  status: ('A' for Active; 'I' for Inactive)
    1  A    between atoms: C_7  and  C_19
    2  A    between atoms: C_10  and  C_17
    3  A    between atoms: C_20  and  C_29
    4  A    between atoms: C_29  and  C_30
                            x       y       z     vdW  Elec       q    Type
                         _______ _______ _______ _____ _____    ______ ____

>  <TORSDO>
F 4

$$$$
=
 OpenBabel11112416403D

 32 37  0  0  1  0  0  0  0  0999 V2000
  191.7790  175.5530  144.7630 C   0  0  0  0  0  0  0  0  0  0  0  0
  189.8920  171.5600  142.7250 C   0  0  0  0  0  3  0  0  0  0  0  0
  191.0350  171.4750  141.7950 C   0  0  0  0  0  3  0  0  0  0  0  0
  194.0770  176.3780  144.2170 C   0  0  2  0  0  3  0  0  0  0  0  0
  195.3470  175.7940  143.6150 C   0  0  2  0  0  3  0  0  0  0  0  0
  190.5020  176.8070  146.4920 C   0  0  2  0  0  3  0  0  0  0  0  0
  189.5320  174.7260  145.4940 C   0  0  0  0  0  2  0  0  0  0  0  0
  196.3990  175.2160  141.6280 N   0  0  0  0  0  0  0  0  0  0  0  0
  189.6980  172.6430  143.4830 C   0  0  0  0  0  3  0  0  0  0  0  0
  190.6810  174.6350  144.5900 N   0  0  0  0  0  0  0  0  0  0  0  0
  190.5710  173.8700  143.3430 C   0  0  1  0  0  3  0  0  0  0  0  0
  192.9960  174.3060  143.0190 C   0  0  0  0  0  0  0  0  0  0  0  0
  197.1930  176.2300  142.2150 N   0  0  0  0  0  2  0  0  0  0  0  0
  189.2440  176.1740  145.8910 C   0  0  2  0  0  3  0  0  0  0  0  0
  196.4740  176.7490  143.3820 C   0  0  0  0  0  2  0  0  0  0  0  0
  192.0030  172.3950  141.8160 C   0  0  0  0  0  3  0  0  0  0  0  0
  191.9260  173.5330  142.7590 C   0  0  0  0  0  0  0  0  0  0  0  0
  194.3110  174.0440  142.3110 C   0  0  0  0  0  2  0  0  0  0  0  0
  191.6390  176.6360  145.6420 O   0  0  0  0  0  0  0  0  0  0  0  0
  194.3140  176.6450  145.5690 O   0  0  0  0  0  1  0  0  0  0  0  0
  196.2620  175.5520  140.2210 C   0  0  0  0  0  1  0  0  0  0  0  0
  192.9140  175.3980  144.0540 C   0  0  0  0  0  0  0  0  0  0  0  0
  195.0850  175.3440  142.2300 C   0  0  1  0  0  3  0  0  0  0  0  0
  187.7370  176.1700  143.9120 C   0  0  0  0  0  2  0  0  0  0  0  0
  188.7580  176.9750  144.6920 C   0  0  1  0  0  3  0  0  0  0  0  0
  187.2780  177.2670  144.8490 C   0  0  1  0  0  3  0  0  0  0  0  0
  186.9350  178.5080  144.0490 C   0  0  0  0  0  2  0  0  0  0  0  0
  185.8650  179.2780  144.7420 C   0  0  0  0  0  0  0  0  0  0  0  0
  185.2180  180.1570  144.1170 O   0  0  0  0  0  0  0  0  0  0  0  0
  185.5560  178.9990  146.0670 O   0  0  0  0  0  1  0  0  0  0  0  0
  191.5130  177.1480  148.6280 O   0  0  0  0  0  1  0  0  0  0  0  0
  190.7840  176.2300  147.8710 C   0  0  0  0  0  2  0  0  0  0  0  0
  1 19  1  0  0  0  0
  2  9  2  0  0  0  0
  3 16  2  0  0  0  0
  3  2  1  0  0  0  0
  4 20  1  1  0  0  0
  5 15  1  6  0  0  0
  5  4  1  0  0  0  0
  6 32  1  1  0  0  0
  8 13  1  0  0  0  0
  8 23  1  0  0  0  0
 10  1  1  0  0  0  0
 10  7  1  0  0  0  0
 11  9  1  1  0  0  0
 11 10  1  0  0  0  0
 12 22  1  0  0  0  0
 13 15  1  0  0  0  0
 14  7  1  6  0  0  0
 14  6  1  0  0  0  0
 16 17  1  0  0  0  0
 17 12  2  0  0  0  0
 17 11  1  0  0  0  0
 18 12  1  0  0  0  0
 19  6  1  0  0  0  0
 21  8  1  0  0  0  0
 22  4  1  0  0  0  0
 22  1  2  0  0  0  0
 23 18  1  1  0  0  0
 23  5  1  0  0  0  0
 24 26  1  0  0  0  0
 25 24  1  6  0  0  0
 25 26  1  0  0  0  0
 25 14  1  0  0  0  0
 26 27  1  6  0  0  0
 27 28  1  0  0  0  0
 28 30  1  0  0  0  0
 29 28  2  0  0  0  0
 32 31  1  0  0  0  0
M  END
>  <MODEL>
3

>  <REMARK>
 VINA RESULT:      -7.3      2.956      8.081
  Name = 
  4 active torsions:
  status: ('A' for Active; 'I' for Inactive)
    1  A    between atoms: C_7  and  C_19
    2  A    between atoms: C_10  and  C_17
    3  A    between atoms: C_20  and  C_29
    4  A    between atoms: C_29  and  C_30
                            x       y       z     vdW  Elec       q    Type
                         _______ _______ _______ _____ _____    ______ ____

>  <TORSDO>
F 4

$$$$
=
 OpenBabel11112416403D

 32 37  0  0  1  0  0  0  0  0999 V2000
  191.5470  175.8580  144.3310 C   0  0  0  0  0  0  0  0  0  0  0  0
  189.9460  171.4840  142.9300 C   0  0  0  0  0  3  0  0  0  0  0  0
  191.2260  171.2160  142.2490 C   0  0  0  0  0  3  0  0  0  0  0  0
  193.9230  176.5800  144.0170 C   0  0  2  0  0  3  0  0  0  0  0  0
  195.2630  175.8970  143.7820 C   0  0  2  0  0  3  0  0  0  0  0  0
  190.0240  177.4400  145.5020 C   0  0  2  0  0  3  0  0  0  0  0  0
  189.1920  175.1750  144.8340 C   0  0  0  0  0  2  0  0  0  0  0  0
  196.6230  174.9130  142.1780 N   0  0  0  0  0  0  0  0  0  0  0  0
  189.6500  172.7040  143.3870 C   0  0  0  0  0  3  0  0  0  0  0  0
  190.4750  174.9070  144.1810 N   0  0  0  0  0  0  0  0  0  0  0  0
  190.5600  173.8840  143.1310 C   0  0  1  0  0  3  0  0  0  0  0  0
  193.0150  174.2770  143.1370 C   0  0  0  0  0  0  0  0  0  0  0  0
  197.3290  176.0440  142.6540 N   0  0  0  0  0  2  0  0  0  0  0  0
  188.8730  176.6700  144.8490 C   0  0  2  0  0  3  0  0  0  0  0  0
  196.4340  176.7960  143.5400 C   0  0  0  0  0  2  0  0  0  0  0  0
  192.1970  172.1330  142.2310 C   0  0  0  0  0  3  0  0  0  0  0  0
  191.9870  173.4490  142.8750 C   0  0  0  0  0  0  0  0  0  0  0  0
  194.4240  173.8870  142.7370 C   0  0  0  0  0  2  0  0  0  0  0  0
  191.2850  177.1050  144.9150 O   0  0  0  0  0  0  0  0  0  0  0  0
  193.9330  177.1410  145.2970 O   0  0  0  0  0  1  0  0  0  0  0  0
  196.7330  174.9300  140.7300 C   0  0  0  0  0  1  0  0  0  0  0  0
  192.7820  175.5690  143.8770 C   0  0  0  0  0  0  0  0  0  0  0  0
  195.2290  175.1500  142.5050 C   0  0  1  0  0  3  0  0  0  0  0  0
  187.6790  176.2360  142.7110 C   0  0  0  0  0  2  0  0  0  0  0  0
  188.6140  177.1810  143.4390 C   0  0  1  0  0  3  0  0  0  0  0  0
  187.1450  177.5280  143.2920 C   0  0  1  0  0  3  0  0  0  0  0  0
  186.9920  178.5550  142.1880 C   0  0  0  0  0  2  0  0  0  0  0  0
  185.7660  178.2670  141.3940 C   0  0  0  0  0  0  0  0  0  0  0  0
  185.8590  177.9980  140.1680 O   0  0  0  0  0  0  0  0  0  0  0  0
  184.5230  178.2570  142.0140 O   0  0  0  0  0  1  0  0  0  0  0  0
  191.3000  176.6700  147.3670 O   0  0  0  0  0  1  0  0  0  0  0  0
  190.0570  177.1860  147.0010 C   0  0  0  0  0  2  0  0  0  0  0  0
  1 19  1  0  0  0  0
  2  9  2  0  0  0  0
  3  2  1  0  0  0  0
  4 20  1  1  0  0  0
  5 15  1  6  0  0  0
  5  4  1  0  0  0  0
  6 32  1  1  0  0  0
  8 23  1  0  0  0  0
  8 13  1  0  0  0  0
 10  1  1  0  0  0  0
 10  7  1  0  0  0  0
 11  9  1  1  0  0  0
 11 10  1  0  0  0  0
 12 22  1  0  0  0  0
 13 15  1  0  0  0  0
 14  7  1  6  0  0  0
 14  6  1  0  0  0  0
 16  3  2  0  0  0  0
 16 17  1  0  0  0  0
 17 11  1  0  0  0  0
 17 12  2  0  0  0  0
 18 12  1  0  0  0  0
 19  6  1  0  0  0  0
 21  8  1  0  0  0  0
 22  4  1  0  0  0  0
 22  1  2  0  0  0  0
 23 18  1  1  0  0  0
 23  5  1  0  0  0  0
 24 26  1  0  0  0  0
 25 24  1  6  0  0  0
 25 14  1  0  0  0  0
 26 27  1  6  0  0  0
 26 25  1  0  0  0  0
 28 30  1  0  0  0  0
 28 27  1  0  0  0  0
 29 28  2  0  0  0  0
 32 31  1  0  0  0  0
M  END
>  <MODEL>
4

>  <REMARK>
 VINA RESULT:      -6.9      2.841      7.925
  Name = 
  4 active torsions:
  status: ('A' for Active; 'I' for Inactive)
    1  A    between atoms: C_7  and  C_19
    2  A    between atoms: C_10  and  C_17
    3  A    between atoms: C_20  and  C_29
    4  A    between atoms: C_29  and  C_30
                            x       y       z     vdW  Elec       q    Type
                         _______ _______ _______ _____ _____    ______ ____

>  <TORSDO>
F 4

$$$$
=
 OpenBabel11112416403D

 32 37  0  0  1  0  0  0  0  0999 V2000
  190.4260  174.5170  143.6390 C   0  0  0  0  0  0  0  0  0  0  0  0
  187.6050  176.5760  147.0230 C   0  0  0  0  0  3  0  0  0  0  0  0
  186.6840  177.0660  145.9800 C   0  0  0  0  0  3  0  0  0  0  0  0
  189.7490  174.3740  141.2340 C   0  0  2  0  0  3  0  0  0  0  0  0
  188.4490  174.4560  140.4450 C   0  0  2  0  0  3  0  0  0  0  0  0
  192.5860  173.4570  144.2750 C   0  0  2  0  0  3  0  0  0  0  0  0
  191.1270  174.4670  146.0410 C   0  0  0  0  0  2  0  0  0  0  0  0
  186.8790  175.9090  139.5440 N   0  0  0  0  0  0  0  0  0  0  0  0
  188.7940  176.0550  146.7050 C   0  0  0  0  0  3  0  0  0  0  0  0
  190.2050  174.9290  145.0020 N   0  0  0  0  0  0  0  0  0  0  0  0
  189.2930  176.0460  145.2780 C   0  0  1  0  0  3  0  0  0  0  0  0
  188.2980  175.6080  143.0430 C   0  0  0  0  0  0  0  0  0  0  0  0
  187.4510  175.2180  138.4500 N   0  0  0  0  0  2  0  0  0  0  0  0
  192.5580  174.3580  145.5130 C   0  0  2  0  0  3  0  0  0  0  0  0
  188.5710  174.4180  138.9550 C   0  0  0  0  0  2  0  0  0  0  0  0
  186.9310  176.8380  144.6870 C   0  0  0  0  0  3  0  0  0  0  0  0
  188.1540  176.1110  144.2820 C   0  0  0  0  0  0  0  0  0  0  0  0
  187.2060  175.8130  142.0110 C   0  0  0  0  0  2  0  0  0  0  0  0
  191.6200  173.8640  143.3030 O   0  0  0  0  0  0  0  0  0  0  0  0
  190.2210  173.0600  141.1670 O   0  0  0  0  0  1  0  0  0  0  0  0
  186.8260  177.3120  139.1730 C   0  0  0  0  0  1  0  0  0  0  0  0
  189.5140  174.7930  142.6870 C   0  0  0  0  0  0  0  0  0  0  0  0
  187.8320  175.7880  140.6310 C   0  0  1  0  0  3  0  0  0  0  0  0
  193.4490  176.4720  146.4740 C   0  0  0  0  0  2  0  0  0  0  0  0
  193.1200  175.7360  145.1910 C   0  0  1  0  0  3  0  0  0  0  0  0
  194.5550  175.8170  145.6740 C   0  0  1  0  0  3  0  0  0  0  0  0
  195.2860  176.8690  144.8630 C   0  0  0  0  0  2  0  0  0  0  0  0
  196.1180  176.2150  143.8160 C   0  0  0  0  0  0  0  0  0  0  0  0
  196.0360  176.5940  142.6200 O   0  0  0  0  0  0  0  0  0  0  0  0
  197.0120  175.2100  144.1670 O   0  0  0  0  0  1  0  0  0  0  0  0
  193.5890  171.3570  144.8060 O   0  0  0  0  0  1  0  0  0  0  0  0
  192.3620  172.0050  144.6650 C   0  0  0  0  0  2  0  0  0  0  0  0
  1 10  1  0  0  0  0
  3  2  1  0  0  0  0
  4 20  1  1  0  0  0
  4 22  1  0  0  0  0
  5 15  1  6  0  0  0
  5 23  1  0  0  0  0
  5  4  1  0  0  0  0
  6 32  1  1  0  0  0
  6 14  1  0  0  0  0
  8 23  1  0  0  0  0
  9  2  2  0  0  0  0
 10 11  1  0  0  0  0
 10  7  1  0  0  0  0
 11  9  1  1  0  0  0
 12 17  2  0  0  0  0
 13 15  1  0  0  0  0
 13  8  1  0  0  0  0
 14  7  1  6  0  0  0
 16  3  2  0  0  0  0
 17 16  1  0  0  0  0
 17 11  1  0  0  0  0
 18 12  1  0  0  0  0
 19  1  1  0  0  0  0
 19  6  1  0  0  0  0
 21  8  1  0  0  0  0
 22 12  1  0  0  0  0
 22  1  2  0  0  0  0
 23 18  1  1  0  0  0
 25 14  1  0  0  0  0
 25 26  1  0  0  0  0
 25 24  1  1  0  0  0
 26 27  1  6  0  0  0
 26 24  1  0  0  0  0
 28 30  1  0  0  0  0
 28 27  1  0  0  0  0
 29 28  2  0  0  0  0
 32 31  1  0  0  0  0
M  END
>  <MODEL>
5

>  <REMARK>
 VINA RESULT:      -6.5      2.525      3.611
  Name = 
  4 active torsions:
  status: ('A' for Active; 'I' for Inactive)
    1  A    between atoms: C_7  and  C_19
    2  A    between atoms: C_10  and  C_17
    3  A    between atoms: C_20  and  C_29
    4  A    between atoms: C_29  and  C_30
                            x       y       z     vdW  Elec       q    Type
                         _______ _______ _______ _____ _____    ______ ____

>  <TORSDO>
F 4

$$$$
=
 OpenBabel11112416403D

 32 37  0  0  1  0  0  0  0  0999 V2000
  189.3450  174.2860  141.9760 C   0  0  0  0  0  0  0  0  0  0  0  0
  186.1160  177.9150  142.2310 C   0  0  0  0  0  3  0  0  0  0  0  0
  185.9800  177.9180  140.7620 C   0  0  0  0  0  3  0  0  0  0  0  0
  189.8290  173.0700  139.8430 C   0  0  2  0  0  3  0  0  0  0  0  0
  189.1320  172.8650  138.5050 C   0  0  2  0  0  3  0  0  0  0  0  0
  190.5150  173.4960  144.0250 C   0  0  2  0  0  3  0  0  0  0  0  0
  188.8210  175.3320  144.1890 C   0  0  0  0  0  2  0  0  0  0  0  0
  188.6990  173.8300  136.4380 N   0  0  0  0  0  0  0  0  0  0  0  0
  187.0840  177.2160  142.8330 C   0  0  0  0  0  3  0  0  0  0  0  0
  188.6730  175.3120  142.7320 N   0  0  0  0  0  0  0  0  0  0  0  0
  188.1450  176.4920  142.0350 C   0  0  1  0  0  3  0  0  0  0  0  0
  188.1940  175.1210  139.9620 C   0  0  0  0  0  0  0  0  0  0  0  0
  189.4520  172.6600  136.1780 N   0  0  0  0  0  2  0  0  0  0  0  0
  190.2160  174.8760  144.6170 C   0  0  2  0  0  3  0  0  0  0  0  0
  189.8990  172.1140  137.4640 C   0  0  0  0  0  2  0  0  0  0  0  0
  186.7010  177.0850  140.0060 C   0  0  0  0  0  3  0  0  0  0  0  0
  187.6710  176.1620  140.6360 C   0  0  0  0  0  0  0  0  0  0  0  0
  187.8190  174.8930  138.5110 C   0  0  0  0  0  2  0  0  0  0  0  0
  190.2830  173.4630  142.6150 O   0  0  0  0  0  0  0  0  0  0  0  0
  189.8340  171.8500  140.5270 O   0  0  0  0  0  1  0  0  0  0  0  0
  189.2710  174.8870  135.6230 C   0  0  0  0  0  1  0  0  0  0  0  0
  189.1070  174.1450  140.6570 C   0  0  0  0  0  0  0  0  0  0  0  0
  188.9600  174.1680  137.8250 C   0  0  1  0  0  3  0  0  0  0  0  0
  191.0000  177.2250  144.8460 C   0  0  0  0  0  2  0  0  0  0  0  0
  191.2690  175.8880  144.1860 C   0  0  1  0  0  3  0  0  0  0  0  0
  192.0780  176.3150  145.3950 C   0  0  1  0  0  3  0  0  0  0  0  0
  193.4370  176.7990  144.9290 C   0  0  0  0  0  2  0  0  0  0  0  0
  194.4350  176.6380  146.0230 C   0  0  0  0  0  0  0  0  0  0  0  0
  194.5680  177.5400  146.8900 O   0  0  0  0  0  1  0  0  0  0  0  0
  195.1920  175.4770  146.1070 O   0  0  0  0  0  0  0  0  0  0  0  0
  188.9320  171.7260  143.7790 O   0  0  0  0  0  1  0  0  0  0  0  0
  189.6890  172.4250  144.7200 C   0  0  0  0  0  2  0  0  0  0  0  0
  1 19  1  0  0  0  0
  1 10  1  0  0  0  0
  2  9  2  0  0  0  0
  3  2  1  0  0  0  0
  4 20  1  1  0  0  0
  4 22  1  0  0  0  0
  5 15  1  6  0  0  0
  5  4  1  0  0  0  0
  6 14  1  0  0  0  0
  6 32  1  1  0  0  0
  8 23  1  0  0  0  0
 10  7  1  0  0  0  0
 11 10  1  0  0  0  0
 11  9  1  1  0  0  0
 12 17  2  0  0  0  0
 12 22  1  0  0  0  0
 13  8  1  0  0  0  0
 13 15  1  0  0  0  0
 14  7  1  6  0  0  0
 16 17  1  0  0  0  0
 16  3  2  0  0  0  0
 17 11  1  0  0  0  0
 18 12  1  0  0  0  0
 19  6  1  0  0  0  0
 21  8  1  0  0  0  0
 22  1  2  0  0  0  0
 23  5  1  0  0  0  0
 23 18  1  1  0  0  0
 24 26  1  0  0  0  0
 25 14  1  0  0  0  0
 25 24  1  1  0  0  0
 25 26  1  0  0  0  0
 26 27  1  6  0  0  0
 27 28  1  0  0  0  0
 28 30  2  0  0  0  0
 28 29  1  0  0  0  0
 31 32  1  0  0  0  0
M  END
>  <MODEL>
6

>  <REMARK>
 VINA RESULT:      -6.5      3.622      5.934
  Name = 
  4 active torsions:
  status: ('A' for Active; 'I' for Inactive)
    1  A    between atoms: C_7  and  C_19
    2  A    between atoms: C_10  and  C_17
    3  A    between atoms: C_20  and  C_29
    4  A    between atoms: C_29  and  C_30
                            x       y       z     vdW  Elec       q    Type
                         _______ _______ _______ _____ _____    ______ ____

>  <TORSDO>
F 4

$$$$
=
 OpenBabel11112416403D

 32 37  0  0  1  0  0  0  0  0999 V2000
  191.7470  173.9220  143.6510 C   0  0  0  0  0  0  0  0  0  0  0  0
  188.6170  177.0000  145.7440 C   0  0  0  0  0  3  0  0  0  0  0  0
  187.7140  176.8970  144.5820 C   0  0  0  0  0  3  0  0  0  0  0  0
  191.2010  172.6760  141.5500 C   0  0  2  0  0  3  0  0  0  0  0  0
  189.9380  172.2860  140.7930 C   0  0  2  0  0  3  0  0  0  0  0  0
  193.9470  173.4480  144.7130 C   0  0  2  0  0  3  0  0  0  0  0  0
  192.3320  174.9980  145.8340 C   0  0  0  0  0  2  0  0  0  0  0  0
  188.3090  173.0480  139.3250 N   0  0  0  0  0  0  0  0  0  0  0  0
  189.8560  176.5010  145.7010 C   0  0  0  0  0  3  0  0  0  0  0  0
  191.4290  174.8710  144.6880 N   0  0  0  0  0  0  0  0  0  0  0  0
  190.4240  175.9090  144.4310 C   0  0  1  0  0  3  0  0  0  0  0  0
  189.5750  174.4460  142.6100 C   0  0  0  0  0  0  0  0  0  0  0  0
  188.9850  172.0000  138.6560 N   0  0  0  0  0  2  0  0  0  0  0  0
  193.7900  174.7950  145.4240 C   0  0  2  0  0  3  0  0  0  0  0  0
  190.1360  171.6080  139.4750 C   0  0  0  0  0  2  0  0  0  0  0  0
  188.0400  176.1460  143.5260 C   0  0  0  0  0  3  0  0  0  0  0  0
  189.3330  175.4270  143.4980 C   0  0  0  0  0  0  0  0  0  0  0  0
  188.5220  174.0770  141.5830 C   0  0  0  0  0  2  0  0  0  0  0  0
  193.0020  173.2970  143.6510 O   0  0  0  0  0  0  0  0  0  0  0  0
  191.7730  171.5150  142.0770 O   0  0  0  0  0  1  0  0  0  0  0  0
  188.1700  174.1340  138.3710 C   0  0  0  0  0  1  0  0  0  0  0  0
  190.8640  173.6680  142.6650 C   0  0  0  0  0  0  0  0  0  0  0  0
  189.2150  173.5040  140.3630 C   0  0  1  0  0  3  0  0  0  0  0  0
  194.7620  177.0840  145.3830 C   0  0  0  0  0  2  0  0  0  0  0  0
  194.2630  175.9340  144.5310 C   0  0  1  0  0  3  0  0  0  0  0  0
  195.7520  176.1420  144.7290 C   0  0  1  0  0  3  0  0  0  0  0  0
  196.3250  176.7920  143.4850 C   0  0  0  0  0  2  0  0  0  0  0  0
  197.2780  175.8610  142.8200 C   0  0  0  0  0  0  0  0  0  0  0  0
  197.9410  175.0430  143.5090 O   0  0  0  0  0  1  0  0  0  0  0  0
  197.4070  175.8700  141.4370 O   0  0  0  0  0  0  0  0  0  0  0  0
  195.0040  171.5760  145.7520 O   0  0  0  0  0  1  0  0  0  0  0  0
  193.8140  172.3010  145.7030 C   0  0  0  0  0  2  0  0  0  0  0  0
  1 10  1  0  0  0  0
  3  2  1  0  0  0  0
  4 20  1  1  0  0  0
  4 22  1  0  0  0  0
  5 15  1  6  0  0  0
  5  4  1  0  0  0  0
  6 14  1  0  0  0  0
  6 32  1  1  0  0  0
  8 23  1  0  0  0  0
  9  2  2  0  0  0  0
 10  7  1  0  0  0  0
 11 10  1  0  0  0  0
 11  9  1  1  0  0  0
 12 22  1  0  0  0  0
 12 17  2  0  0  0  0
 13  8  1  0  0  0  0
 13 15  1  0  0  0  0
 14  7  1  6  0  0  0
 16  3  2  0  0  0  0
 17 16  1  0  0  0  0
 17 11  1  0  0  0  0
 18 12  1  0  0  0  0
 19  1  1  0  0  0  0
 19  6  1  0  0  0  0
 21  8  1  0  0  0  0
 22  1  2  0  0  0  0
 23  5  1  0  0  0  0
 23 18  1  1  0  0  0
 25 26  1  0  0  0  0
 25 24  1  1  0  0  0
 25 14  1  0  0  0  0
 26 27  1  6  0  0  0
 26 24  1  0  0  0  0
 28 27  1  0  0  0  0
 28 29  1  0  0  0  0
 30 28  2  0  0  0  0
 32 31  1  0  0  0  0
M  END
>  <MODEL>
7

>  <REMARK>
 VINA RESULT:      -6.4      2.855      4.741
  Name = 
  4 active torsions:
  status: ('A' for Active; 'I' for Inactive)
    1  A    between atoms: C_7  and  C_19
    2  A    between atoms: C_10  and  C_17
    3  A    between atoms: C_20  and  C_29
    4  A    between atoms: C_29  and  C_30
                            x       y       z     vdW  Elec       q    Type
                         _______ _______ _______ _____ _____    ______ ____

>  <TORSDO>
F 4

$$$$
=
 OpenBabel11112416403D

 32 37  0  0  1  0  0  0  0  0999 V2000
  192.1010  174.6450  143.8580 C   0  0  0  0  0  0  0  0  0  0  0  0
  191.7290  170.0840  142.2080 C   0  0  0  0  0  3  0  0  0  0  0  0
  193.0820  170.1680  141.6250 C   0  0  0  0  0  3  0  0  0  0  0  0
  194.2420  175.9370  143.7570 C   0  0  2  0  0  3  0  0  0  0  0  0
  195.7230  175.6130  143.6120 C   0  0  2  0  0  3  0  0  0  0  0  0
  190.1560  175.7520  144.9470 C   0  0  2  0  0  3  0  0  0  0  0  0
  189.9570  173.3870  144.1500 C   0  0  0  0  0  2  0  0  0  0  0  0
  197.3930  175.0660  142.0940 N   0  0  0  0  0  0  0  0  0  0  0  0
  191.1100  171.1730  142.6750 C   0  0  0  0  0  3  0  0  0  0  0  0
  191.3100  173.4690  143.5950 N   0  0  0  0  0  0  0  0  0  0  0  0
  191.7180  172.5500  142.5270 C   0  0  1  0  0  3  0  0  0  0  0  0
  193.9930  173.5270  142.7410 C   0  0  0  0  0  0  0  0  0  0  0  0
  197.7630  176.3110  142.6580 N   0  0  0  0  0  2  0  0  0  0  0  0
  189.2790  174.7570  144.1820 C   0  0  2  0  0  3  0  0  0  0  0  0
  196.6500  176.7800  143.4900 C   0  0  0  0  0  2  0  0  0  0  0  0
  193.7960  171.2940  141.7120 C   0  0  0  0  0  3  0  0  0  0  0  0
  193.2230  172.4870  142.3740 C   0  0  0  0  0  0  0  0  0  0  0  0
  195.4800  173.5110  142.4450 C   0  0  0  0  0  2  0  0  0  0  0  0
  191.4990  175.7610  144.4550 O   0  0  0  0  0  0  0  0  0  0  0  0
  194.0230  176.4220  145.0490 O   0  0  0  0  0  1  0  0  0  0  0  0
  197.5980  175.1780  140.6610 C   0  0  0  0  0  1  0  0  0  0  0  0
  193.3990  174.6870  143.4970 C   0  0  0  0  0  0  0  0  0  0  0  0
  195.9640  174.9410  142.3150 C   0  0  1  0  0  3  0  0  0  0  0  0
  188.2120  174.2170  142.0020 C   0  0  0  0  0  2  0  0  0  0  0  0
  189.0040  175.2550  142.7700 C   0  0  1  0  0  3  0  0  0  0  0  0
  187.5090  175.4260  142.5810 C   0  0  1  0  0  3  0  0  0  0  0  0
  187.2670  176.4460  141.4860 C   0  0  0  0  0  2  0  0  0  0  0  0
  186.1860  177.3840  141.8970 C   0  0  0  0  0  0  0  0  0  0  0  0
  185.7020  178.1910  141.0620 O   0  0  0  0  0  0  0  0  0  0  0  0
  185.6870  177.3440  143.1930 O   0  0  0  0  0  1  0  0  0  0  0  0
  188.8300  175.4010  146.9010 O   0  0  0  0  0  1  0  0  0  0  0  0
  190.1440  175.4420  146.4360 C   0  0  0  0  0  2  0  0  0  0  0  0
  1 19  1  0  0  0  0
  2  9  2  0  0  0  0
  3 16  2  0  0  0  0
  3  2  1  0  0  0  0
  4 20  1  1  0  0  0
  5 15  1  6  0  0  0
  5  4  1  0  0  0  0
  6 32  1  1  0  0  0
  8 23  1  0  0  0  0
  8 13  1  0  0  0  0
 10  1  1  0  0  0  0
 10  7  1  0  0  0  0
 11  9  1  1  0  0  0
 11 10  1  0  0  0  0
 12 22  1  0  0  0  0
 13 15  1  0  0  0  0
 14  7  1  6  0  0  0
 14  6  1  0  0  0  0
 16 17  1  0  0  0  0
 17 11  1  0  0  0  0
 17 12  2  0  0  0  0
 18 12  1  0  0  0  0
 19  6  1  0  0  0  0
 21  8  1  0  0  0  0
 22  4  1  0  0  0  0
 22  1  2  0  0  0  0
 23 18  1  1  0  0  0
 23  5  1  0  0  0  0
 24 26  1  0  0  0  0
 25 24  1  6  0  0  0
 25 14  1  0  0  0  0
 26 27  1  6  0  0  0
 26 25  1  0  0  0  0
 27 28  1  0  0  0  0
 28 30  1  0  0  0  0
 29 28  2  0  0  0  0
 32 31  1  0  0  0  0
M  END
>  <MODEL>
8

>  <REMARK>
 VINA RESULT:      -6.1      3.138      8.145
  Name = 
  4 active torsions:
  status: ('A' for Active; 'I' for Inactive)
    1  A    between atoms: C_7  and  C_19
    2  A    between atoms: C_10  and  C_17
    3  A    between atoms: C_20  and  C_29
    4  A    between atoms: C_29  and  C_30
                            x       y       z     vdW  Elec       q    Type
                         _______ _______ _______ _____ _____    ______ ____

>  <TORSDO>
F 4

$$$$
=
 OpenBabel11112416403D

 32 37  0  0  1  0  0  0  0  0999 V2000
  191.7590  174.6810  144.1740 C   0  0  0  0  0  0  0  0  0  0  0  0
  189.8220  173.7780  139.8040 C   0  0  0  0  0  3  0  0  0  0  0  0
  188.5460  174.3870  140.2270 C   0  0  0  0  0  3  0  0  0  0  0  0
  190.5910  176.0690  145.8970 C   0  0  2  0  0  3  0  0  0  0  0  0
  189.4750  177.1050  145.9110 C   0  0  2  0  0  3  0  0  0  0  0  0
  194.0340  173.8450  144.7390 C   0  0  2  0  0  3  0  0  0  0  0  0
  193.0770  173.4110  142.4660 C   0  0  0  0  0  2  0  0  0  0  0  0
  187.1720  177.3960  145.8700 N   0  0  0  0  0  0  0  0  0  0  0  0
  190.7880  173.5160  140.6900 C   0  0  0  0  0  3  0  0  0  0  0  0
  191.8220  174.0390  142.8850 N   0  0  0  0  0  0  0  0  0  0  0  0
  190.5770  173.7290  142.1720 C   0  0  1  0  0  3  0  0  0  0  0  0
  189.4940  175.4590  143.5900 C   0  0  0  0  0  0  0  0  0  0  0  0
  187.6140  177.9160  147.1100 N   0  0  0  0  0  2  0  0  0  0  0  0
  193.8160  172.7890  143.6520 C   0  0  2  0  0  3  0  0  0  0  0  0
  189.0370  177.5940  147.2550 C   0  0  0  0  0  2  0  0  0  0  0  0
  188.3910  174.8590  141.4660 C   0  0  0  0  0  3  0  0  0  0  0  0
  189.4940  174.7510  142.4460 C   0  0  0  0  0  0  0  0  0  0  0  0
  188.3250  176.3680  143.9180 C   0  0  0  0  0  2  0  0  0  0  0  0
  192.8170  174.5140  145.0790 O   0  0  0  0  0  0  0  0  0  0  0  0
  191.7920  176.7140  146.2080 O   0  0  0  0  0  1  0  0  0  0  0  0
  185.9980  176.5870  146.1500 C   0  0  0  0  0  1  0  0  0  0  0  0
  190.6740  175.3990  144.5240 C   0  0  0  0  0  0  0  0  0  0  0  0
  188.2180  176.4940  145.4240 C   0  0  1  0  0  3  0  0  0  0  0  0
  192.7920  170.5910  143.1000 C   0  0  0  0  0  2  0  0  0  0  0  0
  193.0440  171.5980  144.2030 C   0  0  1  0  0  3  0  0  0  0  0  0
  193.9030  170.3530  144.1010 C   0  0  1  0  0  3  0  0  0  0  0  0
  193.4420  169.3520  145.1420 C   0  0  0  0  0  2  0  0  0  0  0  0
  194.6210  168.7560  145.8280 C   0  0  0  0  0  0  0  0  0  0  0  0
  194.5580  168.4700  147.0520 O   0  0  0  0  0  1  0  0  0  0  0  0
  195.7770  168.4810  145.1100 O   0  0  0  0  0  0  0  0  0  0  0  0
  195.2010  175.8620  145.2600 O   0  0  0  0  0  1  0  0  0  0  0  0
  195.0850  174.8540  144.3030 C   0  0  0  0  0  2  0  0  0  0  0  0
  1 22  2  0  0  0  0
  1 19  1  0  0  0  0
  2  3  1  0  0  0  0
  2  9  2  0  0  0  0
  3 16  2  0  0  0  0
  4  5  1  0  0  0  0
  4 20  1  6  0  0  0
  5 15  1  1  0  0  0
  6 32  1  6  0  0  0
  6 19  1  0  0  0  0
  7 10  1  0  0  0  0
  8 21  1  0  0  0  0
  8 13  1  0  0  0  0
 10  1  1  0  0  0  0
 11  9  1  6  0  0  0
 11 17  1  0  0  0  0
 11 10  1  0  0  0  0
 12 18  1  0  0  0  0
 12 22  1  0  0  0  0
 13 15  1  0  0  0  0
 14  7  1  6  0  0  0
 14 25  1  0  0  0  0
 14  6  1  0  0  0  0
 16 17  1  0  0  0  0
 17 12  2  0  0  0  0
 22  4  1  0  0  0  0
 23 18  1  6  0  0  0
 23  8  1  0  0  0  0
 23  5  1  0  0  0  0
 24 26  1  0  0  0  0
 25 24  1  6  0  0  0
 26 25  1  0  0  0  0
 26 27  1  1  0  0  0
 27 28  1  0  0  0  0
 28 29  1  0  0  0  0
 30 28  2  0  0  0  0
 32 31  1  0  0  0  0
M  END
>  <MODEL>
9

>  <REMARK>
 VINA RESULT:      -6.1      3.341      5.646
  Name = 
  4 active torsions:
  status: ('A' for Active; 'I' for Inactive)
    1  A    between atoms: C_7  and  C_19
    2  A    between atoms: C_10  and  C_17
    3  A    between atoms: C_20  and  C_29
    4  A    between atoms: C_29  and  C_30
                            x       y       z     vdW  Elec       q    Type
                         _______ _______ _______ _____ _____    ______ ____

>  <TORSDO>
F 4

$$$$
