=
 OpenBabel11112416123D

 30 35  0  0  1  0  0  0  0  0999 V2000
  186.2380  177.3610  143.7540 C   0  0  0  0  0  0  0  0  0  0  0  0
  184.5160  178.5330  145.1690 C   0  0  0  0  0  0  0  0  0  0  0  0
  188.4130  176.2500  147.1730 N   0  0  0  0  0  0  0  0  0  0  0  0
  187.4560  176.6160  143.6810 C   0  0  0  0  0  0  0  0  0  0  0  0
  185.5720  177.6670  142.5600 C   0  0  0  0  0  3  0  0  0  0  0  0
  187.7800  176.2010  139.9990 O   0  0  0  0  0  1  0  0  0  0  0  0
  190.4690  176.2380  142.9490 C   0  0  1  0  0  3  0  0  0  0  0  0
  187.2770  176.5700  141.2450 C   0  0  0  0  0  0  0  0  0  0  0  0
  190.5570  176.0990  144.4760 C   0  0  2  0  0  3  0  0  0  0  0  0
  189.3830  175.5740  146.6470 C   0  0  0  0  0  0  0  0  0  0  0  0
  186.0710  177.2740  141.3220 C   0  0  0  0  0  0  0  0  0  0  0  0
  187.9830  176.2410  142.4140 C   0  0  0  0  0  0  0  0  0  0  0  0
  184.0690  178.9100  146.4380 C   0  0  0  0  0  3  0  0  0  0  0  0
  191.7510  175.3160  144.7720 N   0  0  0  0  0  2  0  0  0  0  0  0
  191.7910  175.7370  142.4200 C   0  0  0  0  0  2  0  0  0  0  0  0
  183.7470  178.9190  144.0770 O   0  0  0  0  0  1  0  0  0  0  0  0
  187.6080  176.7030  146.0980 C   0  0  0  0  0  0  0  0  0  0  0  0
  184.7860  178.5610  147.5810 C   0  0  0  0  0  3  0  0  0  0  0  0
  185.7180  177.7830  145.0220 C   0  0  0  0  0  0  0  0  0  0  0  0
  188.1010  176.2990  144.8880 C   0  0  0  0  0  0  0  0  0  0  0  0
  190.3990  174.8840  147.4890 C   0  0  0  0  0  1  0  0  0  0  0  0
  189.3240  175.4770  145.1410 C   0  0  1  0  0  3  0  0  0  0  0  0
  192.6460  175.5310  143.6460 C   0  0  0  0  0  2  0  0  0  0  0  0
  189.1940  174.0270  142.5190 C   0  0  0  0  0  1  0  0  0  0  0  0
  185.9620  177.8290  147.4650 C   0  0  0  0  0  3  0  0  0  0  0  0
  186.4320  177.4410  146.2060 C   0  0  0  0  0  0  0  0  0  0  0  0
  189.2980  175.5240  142.2510 C   0  0  2  0  0  3  0  0  0  0  0  0
  185.3160  177.6470  140.0850 C   0  0  0  0  0  2  0  0  0  0  0  0
  182.9270  177.7290  140.0560 O   0  0  0  0  0  1  0  0  0  0  0  0
  184.0670  178.4430  140.4280 C   0  0  0  0  0  2  0  0  0  0  0  0
  1 19  1  0  0  0  0
  2 13  1  0  0  0  0
  4  1  1  0  0  0  0
  4 20  1  0  0  0  0
  5  1  2  0  0  0  0
  6  8  1  0  0  0  0
  7 15  1  6  0  0  0
  7  9  1  0  0  0  0
  8 11  2  0  0  0  0
  8 12  1  0  0  0  0
  9 14  1  6  0  0  0
  9 22  1  0  0  0  0
 10  3  2  0  0  0  0
 10 21  1  0  0  0  0
 11  5  1  0  0  0  0
 12  4  2  0  0  0  0
 13 18  2  0  0  0  0
 15 23  1  0  0  0  0
 16  2  1  0  0  0  0
 17 26  1  0  0  0  0
 17  3  1  0  0  0  0
 19  2  2  0  0  0  0
 19 26  1  0  0  0  0
 20 17  2  0  0  0  0
 22 20  1  6  0  0  0
 22 10  1  0  0  0  0
 23 14  1  0  0  0  0
 25 18  1  0  0  0  0
 26 25  2  0  0  0  0
 27 12  1  0  0  0  0
 27 24  1  1  0  0  0
 27  7  1  0  0  0  0
 28 30  1  0  0  0  0
 28 11  1  0  0  0  0
 29 30  1  0  0  0  0
M  END
>  <MODEL>
1

>  <REMARK>
 VINA RESULT:      -9.0      0.000      0.000
  Name = 
  2 active torsions:
  status: ('A' for Active; 'I' for Inactive)
    1  A    between atoms: C_11  and  C_28
    2  A    between atoms: C_28  and  C_30
                            x       y       z     vdW  Elec       q    Type
                         _______ _______ _______ _____ _____    ______ ____

>  <TORSDO>
F 2

$$$$
=
 OpenBabel11112416123D

 30 35  0  0  1  0  0  0  0  0999 V2000
  187.5200  176.4590  145.3940 C   0  0  0  0  0  0  0  0  0  0  0  0
  185.6940  177.6730  146.6320 C   0  0  0  0  0  0  0  0  0  0  0  0
  185.8930  177.6120  141.6960 N   0  0  0  0  0  0  0  0  0  0  0  0
  188.0970  176.0690  144.1460 C   0  0  0  0  0  0  0  0  0  0  0  0
  188.1460  176.0440  146.5760 C   0  0  0  0  0  3  0  0  0  0  0  0
  190.9870  174.0520  145.3330 O   0  0  0  0  0  1  0  0  0  0  0  0
  188.8760  173.9930  141.9460 C   0  0  1  0  0  3  0  0  0  0  0  0
  189.8480  174.8540  145.3400 C   0  0  0  0  0  0  0  0  0  0  0  0
  187.8970  174.8610  141.1430 C   0  0  2  0  0  3  0  0  0  0  0  0
  186.7410  177.0870  140.8710 C   0  0  0  0  0  0  0  0  0  0  0  0
  189.2970  175.2620  146.5590 C   0  0  0  0  0  0  0  0  0  0  0  0
  189.2550  175.2450  144.1270 C   0  0  0  0  0  0  0  0  0  0  0  0
  184.5320  178.4490  146.5880 C   0  0  0  0  0  3  0  0  0  0  0  0
  188.2410  174.7120  139.7340 N   0  0  0  0  0  2  0  0  0  0  0  0
  189.6030  173.1500  140.9260 C   0  0  0  0  0  2  0  0  0  0  0  0
  186.1920  177.3340  147.8850 O   0  0  0  0  0  1  0  0  0  0  0  0
  186.3300  177.2680  142.9990 C   0  0  0  0  0  0  0  0  0  0  0  0
  183.9730  178.8280  145.3700 C   0  0  0  0  0  3  0  0  0  0  0  0
  186.3260  177.2550  145.4270 C   0  0  0  0  0  0  0  0  0  0  0  0
  187.4700  176.5110  142.9690 C   0  0  0  0  0  0  0  0  0  0  0  0
  186.6340  177.3010  139.4020 C   0  0  0  0  0  1  0  0  0  0  0  0
  187.8710  176.3410  141.5390 C   0  0  1  0  0  3  0  0  0  0  0  0
  188.8810  173.4110  139.6250 C   0  0  0  0  0  2  0  0  0  0  0  0
  190.7490  175.7660  142.1580 C   0  0  0  0  0  1  0  0  0  0  0  0
  184.5710  178.4340  144.1780 C   0  0  0  0  0  3  0  0  0  0  0  0
  185.7330  177.6550  144.1950 C   0  0  0  0  0  0  0  0  0  0  0  0
  189.8760  174.7280  142.8550 C   0  0  2  0  0  3  0  0  0  0  0  0
  189.9060  174.8400  147.8590 C   0  0  0  0  0  2  0  0  0  0  0  0
  191.0720  176.9100  148.1300 O   0  0  0  0  0  1  0  0  0  0  0  0
  191.2450  175.5260  148.0810 C   0  0  0  0  0  2  0  0  0  0  0  0
  1 19  1  0  0  0  0
  1  5  1  0  0  0  0
  2 16  1  0  0  0  0
  3 17  1  0  0  0  0
  4  1  2  0  0  0  0
  6  8  1  0  0  0  0
  7 15  1  6  0  0  0
  7 27  1  0  0  0  0
  8 11  1  0  0  0  0
  9 14  1  6  0  0  0
  9 22  1  0  0  0  0
  9  7  1  0  0  0  0
 10  3  2  0  0  0  0
 11  5  2  0  0  0  0
 11 28  1  0  0  0  0
 12  4  1  0  0  0  0
 12  8  2  0  0  0  0
 13  2  1  0  0  0  0
 17 26  1  0  0  0  0
 18 13  2  0  0  0  0
 19  2  2  0  0  0  0
 20 17  2  0  0  0  0
 20  4  1  0  0  0  0
 21 10  1  0  0  0  0
 22 10  1  6  0  0  0
 22 20  1  0  0  0  0
 23 14  1  0  0  0  0
 23 15  1  0  0  0  0
 25 26  2  0  0  0  0
 25 18  1  0  0  0  0
 26 19  1  0  0  0  0
 27 24  1  6  0  0  0
 27 12  1  0  0  0  0
 28 30  1  0  0  0  0
 30 29  1  0  0  0  0
M  END
>  <MODEL>
2

>  <REMARK>
 VINA RESULT:      -9.0      2.882      5.355
  Name = 
  2 active torsions:
  status: ('A' for Active; 'I' for Inactive)
    1  A    between atoms: C_11  and  C_28
    2  A    between atoms: C_28  and  C_30
                            x       y       z     vdW  Elec       q    Type
                         _______ _______ _______ _____ _____    ______ ____

>  <TORSDO>
F 2

$$$$
=
 OpenBabel11112416123D

 30 35  0  0  1  0  0  0  0  0999 V2000
  188.3080  176.0860  143.6110 C   0  0  0  0  0  0  0  0  0  0  0  0
  186.0300  177.1050  143.9430 C   0  0  0  0  0  0  0  0  0  0  0  0
  189.5310  177.3770  147.4180 N   0  0  0  0  0  0  0  0  0  0  0  0
  189.6200  175.8400  144.1200 C   0  0  0  0  0  0  0  0  0  0  0  0
  187.9850  175.5980  142.3390 C   0  0  0  0  0  3  0  0  0  0  0  0
  191.1250  173.9960  141.2630 O   0  0  0  0  0  1  0  0  0  0  0  0
  192.7210  176.2140  144.1720 C   0  0  1  0  0  3  0  0  0  0  0  0
  190.2020  174.6790  142.0510 C   0  0  0  0  0  0  0  0  0  0  0  0
  192.3710  176.7930  145.5500 C   0  0  2  0  0  3  0  0  0  0  0  0
  190.7360  176.9080  147.4690 C   0  0  0  0  0  0  0  0  0  0  0  0
  188.9070  174.8970  141.5680 C   0  0  0  0  0  0  0  0  0  0  0  0
  190.5740  175.1500  143.3210 C   0  0  0  0  0  0  0  0  0  0  0  0
  185.1490  177.8240  144.7570 C   0  0  0  0  0  3  0  0  0  0  0  0
  193.5580  176.6680  146.3880 N   0  0  0  0  0  2  0  0  0  0  0  0
  194.2170  176.0070  144.1880 C   0  0  0  0  0  2  0  0  0  0  0  0
  185.5630  176.6940  142.6990 O   0  0  0  0  0  1  0  0  0  0  0  0
  189.0110  177.0170  146.1490 C   0  0  0  0  0  0  0  0  0  0  0  0
  185.5440  178.2710  146.0150 C   0  0  0  0  0  3  0  0  0  0  0  0
  187.3500  176.8180  144.3890 C   0  0  0  0  0  0  0  0  0  0  0  0
  189.9230  176.3170  145.4070 C   0  0  0  0  0  0  0  0  0  0  0  0
  191.5720  177.0390  148.6940 C   0  0  0  0  0  1  0  0  0  0  0  0
  191.1580  176.1510  146.2320 C   0  0  1  0  0  3  0  0  0  0  0  0
  194.6840  176.6570  145.4680 C   0  0  0  0  0  2  0  0  0  0  0  0
  192.1410  173.7530  144.7240 C   0  0  0  0  0  1  0  0  0  0  0  0
  186.8290  178.0030  146.4760 C   0  0  0  0  0  3  0  0  0  0  0  0
  187.7290  177.2870  145.6800 C   0  0  0  0  0  0  0  0  0  0  0  0
  191.9990  174.9210  143.7550 C   0  0  2  0  0  3  0  0  0  0  0  0
  188.5010  174.4170  140.2110 C   0  0  0  0  0  2  0  0  0  0  0  0
  188.1630  172.4230  138.9340 O   0  0  0  0  0  1  0  0  0  0  0  0
  188.1710  172.9330  140.2330 C   0  0  0  0  0  2  0  0  0  0  0  0
  1  4  1  0  0  0  0
  1 19  1  0  0  0  0
  2 19  2  0  0  0  0
  2 13  1  0  0  0  0
  3 10  2  0  0  0  0
  4 20  1  0  0  0  0
  5  1  2  0  0  0  0
  6  8  1  0  0  0  0
  7 15  1  1  0  0  0
  7  9  1  0  0  0  0
  8 12  1  0  0  0  0
  9 22  1  0  0  0  0
  9 14  1  1  0  0  0
 10 21  1  0  0  0  0
 11  8  2  0  0  0  0
 11  5  1  0  0  0  0
 12 27  1  0  0  0  0
 12  4  2  0  0  0  0
 13 18  2  0  0  0  0
 15 23  1  0  0  0  0
 16  2  1  0  0  0  0
 17  3  1  0  0  0  0
 18 25  1  0  0  0  0
 19 26  1  0  0  0  0
 20 17  2  0  0  0  0
 22 20  1  6  0  0  0
 22 10  1  0  0  0  0
 23 14  1  0  0  0  0
 26 17  1  0  0  0  0
 26 25  2  0  0  0  0
 27  7  1  0  0  0  0
 27 24  1  1  0  0  0
 28 30  1  0  0  0  0
 28 11  1  0  0  0  0
 29 30  1  0  0  0  0
M  END
>  <MODEL>
3

>  <REMARK>
 VINA RESULT:      -8.3      2.013      3.249
  Name = 
  2 active torsions:
  status: ('A' for Active; 'I' for Inactive)
    1  A    between atoms: C_11  and  C_28
    2  A    between atoms: C_28  and  C_30
                            x       y       z     vdW  Elec       q    Type
                         _______ _______ _______ _____ _____    ______ ____

>  <TORSDO>
F 2

$$$$
=
 OpenBabel11112416123D

 30 35  0  0  1  0  0  0  0  0999 V2000
  188.2650  175.8720  142.1800 C   0  0  0  0  0  0  0  0  0  0  0  0
  186.7060  176.8960  140.4890 C   0  0  0  0  0  0  0  0  0  0  0  0
  186.5560  178.1560  145.2640 N   0  0  0  0  0  0  0  0  0  0  0  0
  188.7190  175.7970  143.5330 C   0  0  0  0  0  0  0  0  0  0  0  0
  188.8830  175.0550  141.2240 C   0  0  0  0  0  3  0  0  0  0  0  0
  191.4440  173.2890  143.1990 O   0  0  0  0  0  1  0  0  0  0  0  0
  190.8060  176.2340  145.8160 C   0  0  1  0  0  3  0  0  0  0  0  0
  190.3890  174.1380  142.8770 C   0  0  0  0  0  0  0  0  0  0  0  0
  189.6830  177.1530  146.3170 C   0  0  2  0  0  3  0  0  0  0  0  0
  187.2290  177.7430  146.2890 C   0  0  0  0  0  0  0  0  0  0  0  0
  189.9220  174.1930  141.5600 C   0  0  0  0  0  0  0  0  0  0  0  0
  189.8010  174.9390  143.8720 C   0  0  0  0  0  0  0  0  0  0  0  0
  185.6660  177.7880  140.2090 C   0  0  0  0  0  3  0  0  0  0  0  0
  189.8380  177.2800  147.7610 N   0  0  0  0  0  2  0  0  0  0  0  0
  191.7470  176.0690  146.9850 C   0  0  0  0  0  2  0  0  0  0  0  0
  187.2220  176.1580  139.4300 O   0  0  0  0  0  1  0  0  0  0  0  0
  187.0640  177.4610  144.1390 C   0  0  0  0  0  0  0  0  0  0  0  0
  185.0980  178.5630  141.2180 C   0  0  0  0  0  3  0  0  0  0  0  0
  187.2030  176.7650  141.8170 C   0  0  0  0  0  0  0  0  0  0  0  0
  188.0760  176.6070  144.4840 C   0  0  0  0  0  0  0  0  0  0  0  0
  186.9190  178.2130  147.6670 C   0  0  0  0  0  1  0  0  0  0  0  0
  188.2640  176.6920  145.9650 C   0  0  1  0  0  3  0  0  0  0  0  0
  191.2490  177.0460  148.0230 C   0  0  0  0  0  2  0  0  0  0  0  0
  189.5620  173.9980  146.2030 C   0  0  0  0  0  1  0  0  0  0  0  0
  185.5650  178.4530  142.5230 C   0  0  0  0  0  3  0  0  0  0  0  0
  186.6050  177.5700  142.8290 C   0  0  0  0  0  0  0  0  0  0  0  0
  190.3880  174.8630  145.2580 C   0  0  2  0  0  3  0  0  0  0  0  0
  190.5470  173.3600  140.4860 C   0  0  0  0  0  2  0  0  0  0  0  0
  189.0560  172.0820  139.1220 O   0  0  0  0  0  1  0  0  0  0  0  0
  189.7960  172.0500  140.3050 C   0  0  0  0  0  2  0  0  0  0  0  0
  1  4  1  0  0  0  0
  2 19  1  0  0  0  0
  3 10  2  0  0  0  0
  4 12  1  0  0  0  0
  4 20  2  0  0  0  0
  5 11  2  0  0  0  0
  5  1  1  0  0  0  0
  7  9  1  0  0  0  0
  7 15  1  1  0  0  0
  8  6  1  0  0  0  0
  8 12  2  0  0  0  0
  9 14  1  1  0  0  0
 10 21  1  0  0  0  0
 11  8  1  0  0  0  0
 12 27  1  0  0  0  0
 13  2  2  0  0  0  0
 13 18  1  0  0  0  0
 14 23  1  0  0  0  0
 15 23  1  0  0  0  0
 16  2  1  0  0  0  0
 17 20  1  0  0  0  0
 17  3  1  0  0  0  0
 18 25  2  0  0  0  0
 19  1  2  0  0  0  0
 19 26  1  0  0  0  0
 22 20  1  6  0  0  0
 22 10  1  0  0  0  0
 22  9  1  0  0  0  0
 25 26  1  0  0  0  0
 26 17  2  0  0  0  0
 27  7  1  0  0  0  0
 27 24  1  1  0  0  0
 28 11  1  0  0  0  0
 29 30  1  0  0  0  0
 30 28  1  0  0  0  0
M  END
>  <MODEL>
4

>  <REMARK>
 VINA RESULT:      -7.9      2.196      4.679
  Name = 
  2 active torsions:
  status: ('A' for Active; 'I' for Inactive)
    1  A    between atoms: C_11  and  C_28
    2  A    between atoms: C_28  and  C_30
                            x       y       z     vdW  Elec       q    Type
                         _______ _______ _______ _____ _____    ______ ____

>  <TORSDO>
F 2

$$$$
=
 OpenBabel11112416123D

 30 35  0  0  1  0  0  0  0  0999 V2000
  189.0170  176.4690  145.6200 C   0  0  0  0  0  0  0  0  0  0  0  0
  186.9190  177.7100  146.2520 C   0  0  0  0  0  0  0  0  0  0  0  0
  187.4410  175.5650  141.8320 N   0  0  0  0  0  0  0  0  0  0  0  0
  189.7360  175.7020  144.6520 C   0  0  0  0  0  0  0  0  0  0  0  0
  189.6330  176.7370  146.8490 C   0  0  0  0  0  3  0  0  0  0  0  0
  192.8740  175.0120  146.5260 O   0  0  0  0  0  1  0  0  0  0  0  0
  191.0330  173.0800  143.5580 C   0  0  1  0  0  3  0  0  0  0  0  0
  191.6060  175.4950  146.2120 C   0  0  0  0  0  0  0  0  0  0  0  0
  189.9620  173.3030  142.4810 C   0  0  2  0  0  3  0  0  0  0  0  0
  188.4240  174.9150  141.2970 C   0  0  0  0  0  0  0  0  0  0  0  0
  190.9100  176.2710  147.1450 C   0  0  0  0  0  0  0  0  0  0  0  0
  191.0290  175.1970  144.9650 C   0  0  0  0  0  0  0  0  0  0  0  0
  185.6360  178.1440  145.9040 C   0  0  0  0  0  3  0  0  0  0  0  0
  190.4170  172.6320  141.2700 N   0  0  0  0  0  2  0  0  0  0  0  0
  191.9700  172.0420  142.9880 C   0  0  0  0  0  2  0  0  0  0  0  0
  187.3910  178.0510  147.5140 O   0  0  0  0  0  1  0  0  0  0  0  0
  187.8520  175.9120  143.1430 C   0  0  0  0  0  0  0  0  0  0  0  0
  185.0940  177.8400  144.6570 C   0  0  0  0  0  3  0  0  0  0  0  0
  187.6950  176.9470  145.3340 C   0  0  0  0  0  0  0  0  0  0  0  0
  189.1130  175.4580  143.4170 C   0  0  0  0  0  0  0  0  0  0  0  0
  188.3730  174.4480  139.8840 C   0  0  0  0  0  1  0  0  0  0  0  0
  189.6300  174.7710  142.1940 C   0  0  1  0  0  3  0  0  0  0  0  0
  191.2980  171.5660  141.7230 C   0  0  0  0  0  2  0  0  0  0  0  0
  192.5190  175.1030  142.9290 C   0  0  0  0  0  1  0  0  0  0  0  0
  185.8320  177.0970  143.7410 C   0  0  0  0  0  3  0  0  0  0  0  0
  187.1170  176.6500  144.0660 C   0  0  0  0  0  0  0  0  0  0  0  0
  191.8160  174.3170  144.0300 C   0  0  2  0  0  3  0  0  0  0  0  0
  191.5030  176.5810  148.4820 C   0  0  0  0  0  2  0  0  0  0  0  0
  191.5660  178.2120  150.2300 O   0  0  0  0  0  1  0  0  0  0  0  0
  191.1780  178.0050  148.9050 C   0  0  0  0  0  2  0  0  0  0  0  0
  1  5  1  0  0  0  0
  2 16  1  0  0  0  0
  3 17  1  0  0  0  0
  4 12  1  0  0  0  0
  4  1  2  0  0  0  0
  5 11  2  0  0  0  0
  7 15  1  6  0  0  0
  7 27  1  0  0  0  0
  8  6  1  0  0  0  0
  8 11  1  0  0  0  0
  9 14  1  6  0  0  0
  9  7  1  0  0  0  0
 10  3  2  0  0  0  0
 11 28  1  0  0  0  0
 12  8  2  0  0  0  0
 13  2  1  0  0  0  0
 14 23  1  0  0  0  0
 17 20  2  0  0  0  0
 17 26  1  0  0  0  0
 18 13  2  0  0  0  0
 19  1  1  0  0  0  0
 19  2  2  0  0  0  0
 20  4  1  0  0  0  0
 21 10  1  0  0  0  0
 22 10  1  6  0  0  0
 22  9  1  0  0  0  0
 22 20  1  0  0  0  0
 23 15  1  0  0  0  0
 25 26  2  0  0  0  0
 25 18  1  0  0  0  0
 26 19  1  0  0  0  0
 27 24  1  6  0  0  0
 27 12  1  0  0  0  0
 28 30  1  0  0  0  0
 30 29  1  0  0  0  0
M  END
>  <MODEL>
5

>  <REMARK>
 VINA RESULT:      -7.9      3.262      5.696
  Name = 
  2 active torsions:
  status: ('A' for Active; 'I' for Inactive)
    1  A    between atoms: C_11  and  C_28
    2  A    between atoms: C_28  and  C_30
                            x       y       z     vdW  Elec       q    Type
                         _______ _______ _______ _____ _____    ______ ____

>  <TORSDO>
F 2

$$$$
=
 OpenBabel11112416123D

 30 35  0  0  1  0  0  0  0  0999 V2000
  187.5570  176.3180  141.9620 C   0  0  0  0  0  0  0  0  0  0  0  0
  186.0040  178.2820  142.2280 C   0  0  0  0  0  0  0  0  0  0  0  0
  188.4930  176.3980  146.0570 N   0  0  0  0  0  0  0  0  0  0  0  0
  188.4780  175.4010  142.5570 C   0  0  0  0  0  0  0  0  0  0  0  0
  187.2920  176.2000  140.5920 C   0  0  0  0  0  3  0  0  0  0  0  0
  189.4570  173.3930  139.5840 O   0  0  0  0  0  1  0  0  0  0  0  0
  191.3190  174.1900  143.0230 C   0  0  1  0  0  3  0  0  0  0  0  0
  188.8300  174.3480  140.3810 C   0  0  0  0  0  0  0  0  0  0  0  0
  191.0260  174.7070  144.4390 C   0  0  2  0  0  3  0  0  0  0  0  0
  189.3050  175.3940  146.1510 C   0  0  0  0  0  0  0  0  0  0  0  0
  187.9060  175.2280  139.8080 C   0  0  0  0  0  0  0  0  0  0  0  0
  189.1300  174.4270  141.7520 C   0  0  0  0  0  0  0  0  0  0  0  0
  185.4250  179.2440  143.0610 C   0  0  0  0  0  3  0  0  0  0  0  0
  191.8330  173.9200  145.3630 N   0  0  0  0  0  2  0  0  0  0  0  0
  192.5100  173.2730  143.1640 C   0  0  0  0  0  2  0  0  0  0  0  0
  185.6450  178.2970  140.8840 O   0  0  0  0  0  1  0  0  0  0  0  0
  188.1180  176.4870  144.6930 C   0  0  0  0  0  0  0  0  0  0  0  0
  185.7370  179.2920  144.4180 C   0  0  0  0  0  3  0  0  0  0  0  0
  186.9240  177.3330  142.7550 C   0  0  0  0  0  0  0  0  0  0  0  0
  188.7180  175.5190  143.9360 C   0  0  0  0  0  0  0  0  0  0  0  0
  189.8550  174.9560  147.4630 C   0  0  0  0  0  1  0  0  0  0  0  0
  189.5490  174.6730  144.8470 C   0  0  1  0  0  3  0  0  0  0  0  0
  192.9750  173.4590  144.5890 C   0  0  0  0  0  2  0  0  0  0  0  0
  189.5630  172.2900  143.0260 C   0  0  0  0  0  1  0  0  0  0  0  0
  186.6320  178.3760  144.9580 C   0  0  0  0  0  3  0  0  0  0  0  0
  187.2260  177.4050  144.1450 C   0  0  0  0  0  0  0  0  0  0  0  0
  190.1700  173.4790  142.2890 C   0  0  2  0  0  3  0  0  0  0  0  0
  187.5880  175.1680  138.3470 C   0  0  0  0  0  2  0  0  0  0  0  0
  185.7190  175.9570  137.0820 O   0  0  0  0  0  1  0  0  0  0  0  0
  186.7580  176.3670  137.9200 C   0  0  0  0  0  2  0  0  0  0  0  0
  1  4  1  0  0  0  0
  1 19  1  0  0  0  0
  2 19  2  0  0  0  0
  2 13  1  0  0  0  0
  3 10  2  0  0  0  0
  4 20  1  0  0  0  0
  5  1  2  0  0  0  0
  6  8  1  0  0  0  0
  7 15  1  1  0  0  0
  7  9  1  0  0  0  0
  8 12  1  0  0  0  0
  9 22  1  0  0  0  0
  9 14  1  1  0  0  0
 10 21  1  0  0  0  0
 11  8  2  0  0  0  0
 11  5  1  0  0  0  0
 12 27  1  0  0  0  0
 12  4  2  0  0  0  0
 13 18  2  0  0  0  0
 15 23  1  0  0  0  0
 16  2  1  0  0  0  0
 17  3  1  0  0  0  0
 18 25  1  0  0  0  0
 19 26  1  0  0  0  0
 20 17  2  0  0  0  0
 22 20  1  6  0  0  0
 22 10  1  0  0  0  0
 23 14  1  0  0  0  0
 26 17  1  0  0  0  0
 26 25  2  0  0  0  0
 27  7  1  0  0  0  0
 27 24  1  1  0  0  0
 28 11  1  0  0  0  0
 29 30  1  0  0  0  0
 30 28  1  0  0  0  0
M  END
>  <MODEL>
6

>  <REMARK>
 VINA RESULT:      -7.7      1.857      2.647
  Name = 
  2 active torsions:
  status: ('A' for Active; 'I' for Inactive)
    1  A    between atoms: C_11  and  C_28
    2  A    between atoms: C_28  and  C_30
                            x       y       z     vdW  Elec       q    Type
                         _______ _______ _______ _____ _____    ______ ____

>  <TORSDO>
F 2

$$$$
=
 OpenBabel11112416123D

 30 35  0  0  1  0  0  0  0  0999 V2000
  188.2320  175.7160  142.1340 C   0  0  0  0  0  0  0  0  0  0  0  0
  186.5060  177.5490  142.1350 C   0  0  0  0  0  0  0  0  0  0  0  0
  189.1260  176.4420  146.1750 N   0  0  0  0  0  0  0  0  0  0  0  0
  189.2280  174.9770  142.8450 C   0  0  0  0  0  0  0  0  0  0  0  0
  187.9900  175.3870  140.7940 C   0  0  0  0  0  3  0  0  0  0  0  0
  190.4080  172.6770  140.1710 O   0  0  0  0  0  1  0  0  0  0  0  0
  192.1630  174.1050  143.4590 C   0  0  1  0  0  3  0  0  0  0  0  0
  189.6910  173.6720  140.8320 C   0  0  0  0  0  0  0  0  0  0  0  0
  191.8140  174.7820  144.7920 C   0  0  2  0  0  3  0  0  0  0  0  0
  190.0240  175.5380  146.4020 C   0  0  0  0  0  0  0  0  0  0  0  0
  188.6950  174.3770  140.1480 C   0  0  0  0  0  0  0  0  0  0  0  0
  189.9720  173.9650  142.1780 C   0  0  0  0  0  0  0  0  0  0  0  0
  185.8360  178.5590  142.8310 C   0  0  0  0  0  3  0  0  0  0  0  0
  192.6820  174.2050  145.8120 N   0  0  0  0  0  2  0  0  0  0  0  0
  193.4320  173.3280  143.7190 C   0  0  0  0  0  2  0  0  0  0  0  0
  186.1580  177.3470  140.8040 O   0  0  0  0  0  1  0  0  0  0  0  0
  188.7540  176.3090  144.8130 C   0  0  0  0  0  0  0  0  0  0  0  0
  186.1310  178.8210  144.1670 C   0  0  0  0  0  3  0  0  0  0  0  0
  187.5040  176.7680  142.7830 C   0  0  0  0  0  0  0  0  0  0  0  0
  189.4450  175.3040  144.1940 C   0  0  0  0  0  0  0  0  0  0  0  0
  190.6010  175.3360  147.7590 C   0  0  0  0  0  1  0  0  0  0  0  0
  190.3430  174.6700  145.2080 C   0  0  1  0  0  3  0  0  0  0  0  0
  193.8660  173.7480  145.1030 C   0  0  0  0  0  2  0  0  0  0  0  0
  190.5860  172.0710  143.7310 C   0  0  0  0  0  1  0  0  0  0  0  0
  187.1020  178.0730  144.8240 C   0  0  0  0  0  3  0  0  0  0  0  0
  187.7870  177.0580  144.1490 C   0  0  0  0  0  0  0  0  0  0  0  0
  191.0890  173.1970  142.8350 C   0  0  2  0  0  3  0  0  0  0  0  0
  188.3960  174.0880  138.7120 C   0  0  0  0  0  2  0  0  0  0  0  0
  187.7500  175.2110  136.7020 O   0  0  0  0  0  1  0  0  0  0  0  0
  187.5830  175.2120  138.0880 C   0  0  0  0  0  2  0  0  0  0  0  0
  1 19  1  0  0  0  0
  1  4  1  0  0  0  0
  2 19  2  0  0  0  0
  2 13  1  0  0  0  0
  3 10  2  0  0  0  0
  4 20  1  0  0  0  0
  5  1  2  0  0  0  0
  6  8  1  0  0  0  0
  7 15  1  1  0  0  0
  7  9  1  0  0  0  0
  8 12  1  0  0  0  0
  9 22  1  0  0  0  0
  9 14  1  1  0  0  0
 10 21  1  0  0  0  0
 11  5  1  0  0  0  0
 11  8  2  0  0  0  0
 12 27  1  0  0  0  0
 12  4  2  0  0  0  0
 13 18  2  0  0  0  0
 15 23  1  0  0  0  0
 16  2  1  0  0  0  0
 17  3  1  0  0  0  0
 18 25  1  0  0  0  0
 19 26  1  0  0  0  0
 20 17  2  0  0  0  0
 22 20  1  6  0  0  0
 22 10  1  0  0  0  0
 23 14  1  0  0  0  0
 26 17  1  0  0  0  0
 26 25  2  0  0  0  0
 27  7  1  0  0  0  0
 27 24  1  1  0  0  0
 28 11  1  0  0  0  0
 29 30  1  0  0  0  0
 30 28  1  0  0  0  0
M  END
>  <MODEL>
7

>  <REMARK>
 VINA RESULT:      -7.6      1.992      3.303
  Name = 
  2 active torsions:
  status: ('A' for Active; 'I' for Inactive)
    1  A    between atoms: C_11  and  C_28
    2  A    between atoms: C_28  and  C_30
                            x       y       z     vdW  Elec       q    Type
                         _______ _______ _______ _____ _____    ______ ____

>  <TORSDO>
F 2

$$$$
=
 OpenBabel11112416123D

 30 35  0  0  1  0  0  0  0  0999 V2000
  187.0300  176.9530  143.8130 C   0  0  0  0  0  0  0  0  0  0  0  0
  185.2200  178.2790  142.6700 C   0  0  0  0  0  0  0  0  0  0  0  0
  188.2190  175.2650  140.1540 N   0  0  0  0  0  0  0  0  0  0  0  0
  188.0970  176.0080  143.7140 C   0  0  0  0  0  0  0  0  0  0  0  0
  186.7200  177.4770  145.0740 C   0  0  0  0  0  3  0  0  0  0  0  0
  189.1130  175.7520  147.2830 O   0  0  0  0  0  1  0  0  0  0  0  0
  189.4320  173.2270  144.2080 C   0  0  1  0  0  3  0  0  0  0  0  0
  188.4390  176.1470  146.1290 C   0  0  0  0  0  0  0  0  0  0  0  0
  189.3690  173.2110  142.6740 C   0  0  2  0  0  3  0  0  0  0  0  0
  189.2150  174.5280  140.5270 C   0  0  0  0  0  0  0  0  0  0  0  0
  187.4140  177.0940  146.2180 C   0  0  0  0  0  0  0  0  0  0  0  0
  188.7870  175.5910  144.8860 C   0  0  0  0  0  0  0  0  0  0  0  0
  184.5520  178.6190  141.4910 C   0  0  0  0  0  3  0  0  0  0  0  0
  190.4130  172.3070  142.2070 N   0  0  0  0  0  2  0  0  0  0  0  0
  190.3650  172.1020  144.5870 C   0  0  0  0  0  2  0  0  0  0  0  0
  184.7900  178.8800  143.8480 O   0  0  0  0  0  1  0  0  0  0  0  0
  187.7120  175.8810  141.3250 C   0  0  0  0  0  0  0  0  0  0  0  0
  184.9250  178.0570  140.2720 C   0  0  0  0  0  3  0  0  0  0  0  0
  186.2980  177.3490  142.6450 C   0  0  0  0  0  0  0  0  0  0  0  0
  188.4110  175.5060  142.4400 C   0  0  0  0  0  0  0  0  0  0  0  0
  190.0410  173.7760  139.5420 C   0  0  0  0  0  1  0  0  0  0  0  0
  189.5060  174.5840  142.0080 C   0  0  1  0  0  3  0  0  0  0  0  0
  190.6300  171.3670  143.2950 C   0  0  0  0  0  2  0  0  0  0  0  0
  191.2170  175.0880  144.4180 C   0  0  0  0  0  1  0  0  0  0  0  0
  185.9750  177.1470  140.2190 C   0  0  0  0  0  3  0  0  0  0  0  0
  186.6580  176.7890  141.3850 C   0  0  0  0  0  0  0  0  0  0  0  0
  189.8690  174.5420  144.8750 C   0  0  2  0  0  3  0  0  0  0  0  0
  187.0200  177.6820  147.5360 C   0  0  0  0  0  2  0  0  0  0  0  0
  184.7630  178.4640  147.6460 O   0  0  0  0  0  1  0  0  0  0  0  0
  186.0700  178.8540  147.3470 C   0  0  0  0  0  2  0  0  0  0  0  0
  1  5  2  0  0  0  0
  2 16  1  0  0  0  0
  3 10  2  0  0  0  0
  3 17  1  0  0  0  0
  4  1  1  0  0  0  0
  4 12  2  0  0  0  0
  5 11  1  0  0  0  0
  7 15  1  6  0  0  0
  7 27  1  0  0  0  0
  8 11  2  0  0  0  0
  8  6  1  0  0  0  0
  9 14  1  6  0  0  0
  9  7  1  0  0  0  0
 11 28  1  0  0  0  0
 12  8  1  0  0  0  0
 13  2  2  0  0  0  0
 14 23  1  0  0  0  0
 17 26  1  0  0  0  0
 17 20  2  0  0  0  0
 18 13  1  0  0  0  0
 19  2  1  0  0  0  0
 19  1  1  0  0  0  0
 20  4  1  0  0  0  0
 21 10  1  0  0  0  0
 22 10  1  6  0  0  0
 22 20  1  0  0  0  0
 22  9  1  0  0  0  0
 23 15  1  0  0  0  0
 25 18  2  0  0  0  0
 25 26  1  0  0  0  0
 26 19  2  0  0  0  0
 27 24  1  6  0  0  0
 27 12  1  0  0  0  0
 30 28  1  0  0  0  0
 30 29  1  0  0  0  0
M  END
>  <MODEL>
8

>  <REMARK>
 VINA RESULT:      -7.5      2.361      5.029
  Name = 
  2 active torsions:
  status: ('A' for Active; 'I' for Inactive)
    1  A    between atoms: C_11  and  C_28
    2  A    between atoms: C_28  and  C_30
                            x       y       z     vdW  Elec       q    Type
                         _______ _______ _______ _____ _____    ______ ____

>  <TORSDO>
F 2

$$$$
=
 OpenBabel11112416123D

 30 35  0  0  1  0  0  0  0  0999 V2000
  190.3090  174.8930  143.6100 C   0  0  0  0  0  0  0  0  0  0  0  0
  192.4930  173.6540  143.7970 C   0  0  0  0  0  0  0  0  0  0  0  0
  190.9750  176.7920  147.2980 N   0  0  0  0  0  0  0  0  0  0  0  0
  189.3740  175.8110  144.1810 C   0  0  0  0  0  0  0  0  0  0  0  0
  190.0090  174.3260  142.3650 C   0  0  0  0  0  3  0  0  0  0  0  0
  186.7140  175.7790  141.5820 O   0  0  0  0  0  1  0  0  0  0  0  0
  186.6440  176.5780  145.4920 C   0  0  1  0  0  3  0  0  0  0  0  0
  187.9010  175.5020  142.2570 C   0  0  0  0  0  0  0  0  0  0  0  0
  187.5910  176.9310  146.6480 C   0  0  2  0  0  3  0  0  0  0  0  0
  189.9240  177.5410  147.3910 C   0  0  0  0  0  0  0  0  0  0  0  0
  188.8320  174.6270  141.6870 C   0  0  0  0  0  0  0  0  0  0  0  0
  188.1560  176.0960  143.5040 C   0  0  0  0  0  0  0  0  0  0  0  0
  193.6530  173.3810  144.5270 C   0  0  0  0  0  3  0  0  0  0  0  0
  186.9190  177.9310  147.4680 N   0  0  0  0  0  2  0  0  0  0  0  0
  185.3210  177.2140  145.8430 C   0  0  0  0  0  2  0  0  0  0  0  0
  192.3340  173.0050  142.5770 O   0  0  0  0  0  1  0  0  0  0  0  0
  190.8530  176.0730  146.0830 C   0  0  0  0  0  0  0  0  0  0  0  0
  193.8820  173.9920  145.7580 C   0  0  0  0  0  3  0  0  0  0  0  0
  191.5220  174.5640  144.3020 C   0  0  0  0  0  0  0  0  0  0  0  0
  189.6980  176.3880  145.4200 C   0  0  0  0  0  0  0  0  0  0  0  0
  189.7430  178.4940  148.5200 C   0  0  0  0  0  1  0  0  0  0  0  0
  188.9770  177.4250  146.2200 C   0  0  1  0  0  3  0  0  0  0  0  0
  185.4960  177.7180  147.2550 C   0  0  0  0  0  2  0  0  0  0  0  0
  187.3960  178.4720  143.8970 C   0  0  0  0  0  1  0  0  0  0  0  0
  192.9500  174.8850  146.2740 C   0  0  0  0  0  3  0  0  0  0  0  0
  191.7800  175.1740  145.5640 C   0  0  0  0  0  0  0  0  0  0  0  0
  187.0870  176.9900  144.0770 C   0  0  2  0  0  3  0  0  0  0  0  0
  188.5680  173.9730  140.3680 C   0  0  0  0  0  2  0  0  0  0  0  0
  189.7400  171.9700  139.7920 O   0  0  0  0  0  1  0  0  0  0  0  0
  189.8380  173.3630  139.7980 C   0  0  0  0  0  2  0  0  0  0  0  0
  1  4  1  0  0  0  0
  1 19  1  0  0  0  0
  2 19  2  0  0  0  0
  2 13  1  0  0  0  0
  3 10  2  0  0  0  0
  4 20  1  0  0  0  0
  5  1  2  0  0  0  0
  6  8  1  0  0  0  0
  7 15  1  1  0  0  0
  7  9  1  0  0  0  0
  8 12  1  0  0  0  0
  9 14  1  6  0  0  0
 10 21  1  0  0  0  0
 11  8  2  0  0  0  0
 11  5  1  0  0  0  0
 12 27  1  0  0  0  0
 12  4  2  0  0  0  0
 13 18  2  0  0  0  0
 15 23  1  0  0  0  0
 16  2  1  0  0  0  0
 17  3  1  0  0  0  0
 18 25  1  0  0  0  0
 19 26  1  0  0  0  0
 20 17  2  0  0  0  0
 22 20  1  6  0  0  0
 22  9  1  0  0  0  0
 22 10  1  0  0  0  0
 23 14  1  0  0  0  0
 26 17  1  0  0  0  0
 26 25  2  0  0  0  0
 27 24  1  1  0  0  0
 27  7  1  0  0  0  0
 28 11  1  0  0  0  0
 29 30  1  0  0  0  0
 30 28  1  0  0  0  0
M  END
>  <MODEL>
9

>  <REMARK>
 VINA RESULT:      -7.5      2.282      6.035
  Name = 
  2 active torsions:
  status: ('A' for Active; 'I' for Inactive)
    1  A    between atoms: C_11  and  C_28
    2  A    between atoms: C_28  and  C_30
                            x       y       z     vdW  Elec       q    Type
                         _______ _______ _______ _____ _____    ______ ____

>  <TORSDO>
F 2

$$$$
