=
 OpenBabel11112416273D

 32 37  0  0  1  0  0  0  0  0999 V2000
  188.3860  177.4580  143.2780 C   0  0  1  0  0  3  0  0  0  0  0  0
  187.1120  178.0450  148.0100 C   0  0  0  0  0  3  0  0  0  0  0  0
  185.7670  178.0980  147.6570 C   0  0  0  0  0  3  0  0  0  0  0  0
  186.6030  177.8490  141.5720 C   0  0  0  0  0  0  0  0  0  0  0  0
  185.2030  178.0740  141.2530 C   0  0  0  0  0  0  0  0  0  0  0  0
  190.2640  175.8680  143.1570 N   0  0  0  0  0  0  0  0  0  0  0  0
  190.1280  177.4160  145.0950 C   0  0  0  0  0  2  0  0  0  0  0  0
  183.0760  178.3160  141.5230 C   0  0  0  0  0  0  0  0  0  0  0  0
  188.0830  177.8990  147.0200 C   0  0  0  0  0  3  0  0  0  0  0  0
  188.6930  177.6410  144.7330 C   0  0  0  0  0  0  0  0  0  0  0  0
  187.7310  177.8080  145.6610 C   0  0  0  0  0  0  0  0  0  0  0  0
  185.9700  177.7930  144.0050 C   0  0  0  0  0  0  0  0  0  0  0  0
  183.3530  178.4420  140.2090 N   0  0  0  0  0  0  0  0  0  0  0  0
  190.5620  176.0300  144.6010 C   0  0  2  0  0  3  0  0  0  0  0  0
  184.6630  178.2940  140.0400 N   0  0  0  0  0  0  0  0  0  0  0  0
  185.3960  178.0100  146.3170 C   0  0  0  0  0  3  0  0  0  0  0  0
  186.3580  177.8680  145.2990 C   0  0  0  0  0  0  0  0  0  0  0  0
  184.4830  177.8160  143.6610 C   0  0  0  0  0  3  0  0  0  0  0  0
  188.8290  176.0520  142.8890 C   0  0  0  0  0  2  0  0  0  0  0  0
  187.4700  177.8210  140.6570 O   0  0  0  0  0  0  0  0  0  0  0  0
  181.7070  178.4030  142.1020 C   0  0  0  0  0  1  0  0  0  0  0  0
  186.9730  177.6750  142.9560 N   0  0  0  0  0  0  0  0  0  0  0  0
  184.2430  178.0880  142.2130 C   0  0  0  0  0  0  0  0  0  0  0  0
  192.3040  175.9710  146.2530 O   0  0  0  0  0  0  0  0  0  0  0  0
  192.0570  175.8820  144.8690 C   0  0  1  0  0  3  0  0  0  0  0  0
  192.3060  174.6800  145.6970 C   0  0  1  0  0  3  0  0  0  0  0  0
  193.6260  174.2560  145.5240 O   0  0  0  0  0  0  0  0  0  0  0  0
  193.5710  172.8660  145.6360 C   0  0  2  0  0  3  0  0  0  0  0  0
  194.9230  172.2770  145.2870 C   0  0  0  0  0  1  0  0  0  0  0  0
  192.6080  172.3640  144.7590 O   0  0  0  0  0  1  0  0  0  0  0  0
  189.6430  173.4420  143.0640 C   0  0  0  0  0  1  0  0  0  0  0  0
  190.6450  174.5300  142.6790 C   0  0  0  0  0  2  0  0  0  0  0  0
  1 19  1  1  0  0  0
  1 10  1  0  0  0  0
  3  2  1  0  0  0  0
  4 22  1  0  0  0  0
  5  4  1  0  0  0  0
  5 23  1  0  0  0  0
  6 14  1  0  0  0  0
  8 21  1  0  0  0  0
  8 23  1  0  0  0  0
  9  2  2  0  0  0  0
 10  7  1  0  0  0  0
 10 11  2  0  0  0  0
 11  9  1  0  0  0  0
 12 17  2  0  0  0  0
 13  8  2  0  0  0  0
 14 25  1  0  0  0  0
 14  7  1  6  0  0  0
 15 13  1  0  0  0  0
 15  5  2  0  0  0  0
 16  3  2  0  0  0  0
 17 11  1  0  0  0  0
 17 16  1  0  0  0  0
 18 12  1  0  0  0  0
 19  6  1  0  0  0  0
 20  4  2  0  0  0  0
 22  1  1  0  0  0  0
 22 12  1  0  0  0  0
 23 18  2  0  0  0  0
 25 26  1  0  0  0  0
 25 24  1  1  0  0  0
 26 27  1  6  0  0  0
 26 24  1  0  0  0  0
 27 28  1  0  0  0  0
 28 29  1  6  0  0  0
 30 28  1  0  0  0  0
 32 31  1  0  0  0  0
 32  6  1  0  0  0  0
M  END
>  <MODEL>
1

>  <REMARK>
 VINA RESULT:      -8.0      0.000      0.000
  Name = 
  4 active torsions:
  status: ('A' for Active; 'I' for Inactive)
    1  A    between atoms: N_7  and  C_19
    2  A    between atoms: C_10  and  C_17
    3  A    between atoms: C_20  and  O_29
    4  A    between atoms: O_29  and  C_30
                            x       y       z     vdW  Elec       q    Type
                         _______ _______ _______ _____ _____    ______ ____

>  <TORSDO>
F 4

$$$$
=
 OpenBabel11112416273D

 32 37  0  0  1  0  0  0  0  0999 V2000
  188.6320  175.7880  142.2230 C   0  0  1  0  0  3  0  0  0  0  0  0
  191.0530  174.7910  146.4070 C   0  0  0  0  0  3  0  0  0  0  0  0
  189.9900  175.2800  147.1570 C   0  0  0  0  0  3  0  0  0  0  0  0
  186.5790  177.1990  142.4160 C   0  0  0  0  0  0  0  0  0  0  0  0
  185.5740  177.8420  143.2480 C   0  0  0  0  0  0  0  0  0  0  0  0
  189.0730  173.9830  140.6060 N   0  0  0  0  0  0  0  0  0  0  0  0
  190.8800  174.6570  142.1700 C   0  0  0  0  0  2  0  0  0  0  0  0
  184.4820  178.4400  145.0100 C   0  0  0  0  0  0  0  0  0  0  0  0
  190.9900  174.8180  145.0140 C   0  0  0  0  0  3  0  0  0  0  0  0
  189.8270  175.3250  142.9990 C   0  0  0  0  0  0  0  0  0  0  0  0
  189.8660  175.3380  144.3450 C   0  0  0  0  0  0  0  0  0  0  0  0
  187.6830  176.3610  144.5140 C   0  0  0  0  0  0  0  0  0  0  0  0
  183.8860  178.9940  143.9340 N   0  0  0  0  0  0  0  0  0  0  0  0
  190.2460  173.5070  141.3780 C   0  0  2  0  0  3  0  0  0  0  0  0
  184.5570  178.6270  142.8470 N   0  0  0  0  0  0  0  0  0  0  0  0
  188.8670  175.8000  146.5160 C   0  0  0  0  0  3  0  0  0  0  0  0
  188.7810  175.8440  145.1110 C   0  0  0  0  0  0  0  0  0  0  0  0
  186.5190  176.8520  145.3720 C   0  0  0  0  0  3  0  0  0  0  0  0
  188.0610  174.5770  141.4930 C   0  0  0  0  0  2  0  0  0  0  0  0
  186.5460  177.3270  141.1620 O   0  0  0  0  0  0  0  0  0  0  0  0
  184.0050  178.6080  146.4110 C   0  0  0  0  0  1  0  0  0  0  0  0
  187.6140  176.4280  143.0620 N   0  0  0  0  0  0  0  0  0  0  0  0
  185.5690  177.7060  144.5990 C   0  0  0  0  0  0  0  0  0  0  0  0
  192.3870  172.4330  141.2120 O   0  0  0  0  0  0  0  0  0  0  0  0
  191.3120  172.9300  140.4500 C   0  0  1  0  0  3  0  0  0  0  0  0
  191.4810  171.4830  140.7110 C   0  0  1  0  0  3  0  0  0  0  0  0
  192.0360  170.8650  139.5890 O   0  0  0  0  0  0  0  0  0  0  0  0
  191.3740  169.6400  139.4920 C   0  0  2  0  0  3  0  0  0  0  0  0
  190.2240  169.7620  138.5120 C   0  0  0  0  0  1  0  0  0  0  0  0
  190.8770  169.2770  140.7450 O   0  0  0  0  0  1  0  0  0  0  0  0
  188.3000  173.1580  138.3690 C   0  0  0  0  0  1  0  0  0  0  0  0
  188.4350  172.8820  139.8670 C   0  0  0  0  0  2  0  0  0  0  0  0
  1 19  1  1  0  0  0
  1 10  1  0  0  0  0
  1 22  1  0  0  0  0
  2  3  1  0  0  0  0
  4 22  1  0  0  0  0
  4  5  1  0  0  0  0
  5 23  1  0  0  0  0
  6 14  1  0  0  0  0
  6 19  1  0  0  0  0
  7 10  1  0  0  0  0
  8 21  1  0  0  0  0
  9  2  2  0  0  0  0
 10 11  2  0  0  0  0
 11  9  1  0  0  0  0
 11 17  1  0  0  0  0
 12 17  2  0  0  0  0
 12 18  1  0  0  0  0
 13  8  2  0  0  0  0
 14  7  1  6  0  0  0
 15  5  2  0  0  0  0
 15 13  1  0  0  0  0
 16  3  2  0  0  0  0
 17 16  1  0  0  0  0
 20  4  2  0  0  0  0
 22 12  1  0  0  0  0
 23  8  1  0  0  0  0
 23 18  2  0  0  0  0
 25 26  1  0  0  0  0
 25 24  1  1  0  0  0
 25 14  1  0  0  0  0
 26 27  1  6  0  0  0
 26 24  1  0  0  0  0
 28 29  1  6  0  0  0
 28 27  1  0  0  0  0
 28 30  1  0  0  0  0
 31 32  1  0  0  0  0
 32  6  1  0  0  0  0
M  END
>  <MODEL>
2

>  <REMARK>
 VINA RESULT:      -7.7      2.891      4.389
  Name = 
  4 active torsions:
  status: ('A' for Active; 'I' for Inactive)
    1  A    between atoms: N_7  and  C_19
    2  A    between atoms: C_10  and  C_17
    3  A    between atoms: C_20  and  O_29
    4  A    between atoms: O_29  and  C_30
                            x       y       z     vdW  Elec       q    Type
                         _______ _______ _______ _____ _____    ______ ____

>  <TORSDO>
F 4

$$$$
=
 OpenBabel11112416273D

 32 37  0  0  1  0  0  0  0  0999 V2000
  189.7390  174.9340  145.3530 C   0  0  1  0  0  3  0  0  0  0  0  0
  189.1410  173.8310  140.5800 C   0  0  0  0  0  3  0  0  0  0  0  0
  188.2720  174.9060  140.4240 C   0  0  0  0  0  3  0  0  0  0  0  0
  188.1680  176.6150  146.3290 C   0  0  0  0  0  0  0  0  0  0  0  0
  187.1340  177.6190  146.1410 C   0  0  0  0  0  0  0  0  0  0  0  0
  192.0910  174.5360  145.9670 N   0  0  0  0  0  0  0  0  0  0  0  0
  191.0190  173.0400  144.3010 C   0  0  0  0  0  2  0  0  0  0  0  0
  185.7400  178.9320  145.1470 C   0  0  0  0  0  0  0  0  0  0  0  0
  189.6930  173.5610  141.8320 C   0  0  0  0  0  3  0  0  0  0  0  0
  189.9580  174.0840  144.1400 C   0  0  0  0  0  0  0  0  0  0  0  0
  189.3860  174.3570  142.9510 C   0  0  0  0  0  0  0  0  0  0  0  0
  188.1620  176.2400  143.8420 C   0  0  0  0  0  0  0  0  0  0  0  0
  185.6290  179.1250  146.4780 N   0  0  0  0  0  0  0  0  0  0  0  0
  192.3210  173.7090  144.7590 C   0  0  2  0  0  3  0  0  0  0  0  0
  186.4860  178.3170  147.0920 N   0  0  0  0  0  2  0  0  0  0  0  0
  187.9530  175.7070  141.5200 C   0  0  0  0  0  3  0  0  0  0  0  0
  188.4940  175.4520  142.7950 C   0  0  0  0  0  0  0  0  0  0  0  0
  187.2350  177.4340  143.6240 C   0  0  0  0  0  2  0  0  0  0  0  0
  191.0760  175.5710  145.7160 C   0  0  0  0  0  2  0  0  0  0  0  0
  188.5750  176.3260  147.4870 O   0  0  0  0  0  0  0  0  0  0  0  0
  184.9500  179.6730  144.1240 C   0  0  0  0  0  1  0  0  0  0  0  0
  188.7020  175.9530  145.1630 N   0  0  0  0  0  0  0  0  0  0  0  0
  186.6890  177.9680  144.9060 C   0  0  0  0  0  0  0  0  0  0  0  0
  193.5180  171.8200  143.8830 O   0  0  0  0  0  0  0  0  0  0  0  0
  193.3420  172.6090  145.0360 C   0  0  1  0  0  3  0  0  0  0  0  0
  194.5160  172.7740  144.1490 C   0  0  1  0  0  3  0  0  0  0  0  0
  195.6230  172.1350  144.7130 O   0  0  0  0  0  0  0  0  0  0  0  0
  196.6440  173.0860  144.6690 C   0  0  2  0  0  3  0  0  0  0  0  0
  196.8910  173.6280  146.0620 C   0  0  0  0  0  1  0  0  0  0  0  0
  196.2710  174.1330  143.8250 O   0  0  0  0  0  1  0  0  0  0  0  0
  193.7670  176.3250  145.4500 C   0  0  0  0  0  1  0  0  0  0  0  0
  193.3260  175.2100  146.3980 C   0  0  0  0  0  2  0  0  0  0  0  0
  1 19  1  6  0  0  0
  2  9  2  0  0  0  0
  3  2  1  0  0  0  0
  3 16  2  0  0  0  0
  4 20  2  0  0  0  0
  5  4  1  0  0  0  0
  5 15  1  0  0  0  0
  6 32  1  0  0  0  0
  8 13  2  0  0  0  0
  9 11  1  0  0  0  0
 10  7  1  0  0  0  0
 10  1  1  0  0  0  0
 11 10  2  0  0  0  0
 12 22  1  0  0  0  0
 13 15  1  0  0  0  0
 14  7  1  1  0  0  0
 14 25  1  0  0  0  0
 14  6  1  0  0  0  0
 16 17  1  0  0  0  0
 17 11  1  0  0  0  0
 17 12  2  0  0  0  0
 18 12  1  0  0  0  0
 18 23  1  0  0  0  0
 19  6  1  0  0  0  0
 21  8  1  0  0  0  0
 22  1  1  0  0  0  0
 22  4  1  0  0  0  0
 23  8  1  0  0  0  0
 23  5  2  0  0  0  0
 24 26  1  0  0  0  0
 25 24  1  6  0  0  0
 26 27  1  1  0  0  0
 26 25  1  0  0  0  0
 28 27  1  0  0  0  0
 28 29  1  1  0  0  0
 30 28  1  0  0  0  0
 31 32  1  0  0  0  0
M  END
>  <MODEL>
3

>  <REMARK>
 VINA RESULT:      -7.6      2.902      4.912
  Name = 
  4 active torsions:
  status: ('A' for Active; 'I' for Inactive)
    1  A    between atoms: N_7  and  C_19
    2  A    between atoms: C_10  and  C_17
    3  A    between atoms: C_20  and  O_29
    4  A    between atoms: O_29  and  C_30
                            x       y       z     vdW  Elec       q    Type
                         _______ _______ _______ _____ _____    ______ ____

>  <TORSDO>
F 4

$$$$
=
 OpenBabel11112416273D

 32 37  0  0  1  0  0  0  0  0999 V2000
  189.0560  175.4000  145.6560 C   0  0  1  0  0  3  0  0  0  0  0  0
  189.3290  174.1670  140.8850 C   0  0  0  0  0  3  0  0  0  0  0  0
  188.2880  175.0380  140.5840 C   0  0  0  0  0  3  0  0  0  0  0  0
  187.0610  176.7270  146.3660 C   0  0  0  0  0  0  0  0  0  0  0  0
  185.8780  177.4950  146.0140 C   0  0  0  0  0  0  0  0  0  0  0  0
  191.3380  175.5000  146.5780 N   0  0  0  0  0  0  0  0  0  0  0  0
  190.8220  173.8040  144.8390 C   0  0  0  0  0  2  0  0  0  0  0  0
  184.3900  178.4870  144.8060 C   0  0  0  0  0  0  0  0  0  0  0  0
  189.7560  174.0250  142.2050 C   0  0  0  0  0  3  0  0  0  0  0  0
  189.6020  174.6060  144.5090 C   0  0  0  0  0  0  0  0  0  0  0  0
  189.1470  174.7470  143.2490 C   0  0  0  0  0  0  0  0  0  0  0  0
  187.4590  176.3440  143.9130 C   0  0  0  0  0  0  0  0  0  0  0  0
  184.0670  178.6610  146.1050 N   0  0  0  0  0  0  0  0  0  0  0  0
  191.8890  174.7300  145.4370 C   0  0  2  0  0  3  0  0  0  0  0  0
  184.9820  178.0520  146.8510 N   0  0  0  0  0  2  0  0  0  0  0  0
  187.6720  175.7640  141.6020 C   0  0  0  0  0  3  0  0  0  0  0  0
  188.0800  175.6330  142.9430 C   0  0  0  0  0  0  0  0  0  0  0  0
  186.3460  177.3190  143.5380 C   0  0  0  0  0  2  0  0  0  0  0  0
  190.1760  176.3020  146.1640 C   0  0  0  0  0  2  0  0  0  0  0  0
  187.3620  176.5370  147.5750 O   0  0  0  0  0  0  0  0  0  0  0  0
  183.6080  179.0420  143.6670 C   0  0  0  0  0  1  0  0  0  0  0  0
  187.8680  176.1830  145.3000 N   0  0  0  0  0  0  0  0  0  0  0  0
  185.5390  177.7370  144.7220 C   0  0  0  0  0  0  0  0  0  0  0  0
  193.4250  172.9830  144.8430 O   0  0  0  0  0  0  0  0  0  0  0  0
  193.0670  173.8670  145.8790 C   0  0  1  0  0  3  0  0  0  0  0  0
  194.2360  174.1190  145.0060 C   0  0  1  0  0  3  0  0  0  0  0  0
  195.4070  173.7570  145.6740 O   0  0  0  0  0  0  0  0  0  0  0  0
  196.4060  174.5380  145.0910 C   0  0  2  0  0  3  0  0  0  0  0  0
  195.7730  175.7000  144.3530 C   0  0  0  0  0  1  0  0  0  0  0  0
  197.1390  173.7620  144.1910 O   0  0  0  0  0  1  0  0  0  0  0  0
  191.8500  177.1650  148.3800 C   0  0  0  0  0  1  0  0  0  0  0  0
  192.3420  176.4170  147.1400 C   0  0  0  0  0  2  0  0  0  0  0  0
  1 19  1  6  0  0  0
  2  9  2  0  0  0  0
  3  2  1  0  0  0  0
  3 16  2  0  0  0  0
  4 20  2  0  0  0  0
  5  4  1  0  0  0  0
  5 15  1  0  0  0  0
  6 32  1  0  0  0  0
  8 13  2  0  0  0  0
  9 11  1  0  0  0  0
 10  7  1  0  0  0  0
 10  1  1  0  0  0  0
 11 10  2  0  0  0  0
 12 22  1  0  0  0  0
 13 15  1  0  0  0  0
 14  7  1  1  0  0  0
 14 25  1  0  0  0  0
 14  6  1  0  0  0  0
 16 17  1  0  0  0  0
 17 11  1  0  0  0  0
 17 12  2  0  0  0  0
 18 12  1  0  0  0  0
 18 23  1  0  0  0  0
 19  6  1  0  0  0  0
 21  8  1  0  0  0  0
 22  1  1  0  0  0  0
 22  4  1  0  0  0  0
 23  8  1  0  0  0  0
 23  5  2  0  0  0  0
 24 26  1  0  0  0  0
 25 24  1  6  0  0  0
 26 27  1  1  0  0  0
 26 25  1  0  0  0  0
 28 29  1  6  0  0  0
 28 27  1  0  0  0  0
 30 28  1  0  0  0  0
 32 31  1  0  0  0  0
M  END
>  <MODEL>
4

>  <REMARK>
 VINA RESULT:      -7.6      2.629      4.590
  Name = 
  4 active torsions:
  status: ('A' for Active; 'I' for Inactive)
    1  A    between atoms: N_7  and  C_19
    2  A    between atoms: C_10  and  C_17
    3  A    between atoms: C_20  and  O_29
    4  A    between atoms: O_29  and  C_30
                            x       y       z     vdW  Elec       q    Type
                         _______ _______ _______ _____ _____    ______ ____

>  <TORSDO>
F 4

$$$$
=
 OpenBabel11112416273D

 32 37  0  0  1  0  0  0  0  0999 V2000
  190.7250  175.0400  143.2870 C   0  0  1  0  0  3  0  0  0  0  0  0
  193.3950  176.8180  147.0380 C   0  0  0  0  0  3  0  0  0  0  0  0
  194.4960  176.9700  146.2020 C   0  0  0  0  0  3  0  0  0  0  0  0
  191.9650  174.4460  141.2010 C   0  0  0  0  0  0  0  0  0  0  0  0
  193.1910  174.4760  140.4210 C   0  0  0  0  0  0  0  0  0  0  0  0
  188.4230  175.8970  143.4800 N   0  0  0  0  0  0  0  0  0  0  0  0
  189.6880  175.3850  145.5540 C   0  0  0  0  0  2  0  0  0  0  0  0
  195.2280  174.9220  139.8620 C   0  0  0  0  0  0  0  0  0  0  0  0
  192.2090  176.2860  146.5330 C   0  0  0  0  0  3  0  0  0  0  0  0
  190.9340  175.4050  144.7250 C   0  0  0  0  0  0  0  0  0  0  0  0
  192.1030  175.8910  145.1860 C   0  0  0  0  0  0  0  0  0  0  0  0
  193.1780  175.6680  143.0330 C   0  0  0  0  0  0  0  0  0  0  0  0
  194.6660  174.1940  138.8740 N   0  0  0  0  0  0  0  0  0  0  0  0
  188.6280  176.2790  144.8980 C   0  0  2  0  0  3  0  0  0  0  0  0
  193.4120  173.9180  139.2160 N   0  0  0  0  0  0  0  0  0  0  0  0
  194.4130  176.5850  144.8650 C   0  0  0  0  0  3  0  0  0  0  0  0
  193.2290  176.0400  144.3330 C   0  0  0  0  0  0  0  0  0  0  0  0
  194.3960  175.8850  142.1380 C   0  0  0  0  0  3  0  0  0  0  0  0
  189.6780  175.9930  142.7190 C   0  0  0  0  0  2  0  0  0  0  0  0
  190.9380  173.8690  140.7520 O   0  0  0  0  0  0  0  0  0  0  0  0
  196.6250  175.4360  139.8330 C   0  0  0  0  0  1  0  0  0  0  0  0
  191.9590  175.0790  142.4970 N   0  0  0  0  0  0  0  0  0  0  0  0
  194.3080  175.1080  140.8670 C   0  0  0  0  0  0  0  0  0  0  0  0
  187.5720  176.4430  147.0470 O   0  0  0  0  0  0  0  0  0  0  0  0
  187.3340  176.1370  145.6930 C   0  0  1  0  0  3  0  0  0  0  0  0
  186.9530  177.4430  146.2770 C   0  0  1  0  0  3  0  0  0  0  0  0
  185.5830  177.4530  146.5510 O   0  0  0  0  0  0  0  0  0  0  0  0
  185.2210  178.8000  146.5070 C   0  0  2  0  0  3  0  0  0  0  0  0
  185.6320  179.3920  145.1740 C   0  0  0  0  0  1  0  0  0  0  0  0
  185.8620  179.4900  147.5370 O   0  0  0  0  0  1  0  0  0  0  0  0
  188.0330  178.0680  142.2890 C   0  0  0  0  0  1  0  0  0  0  0  0
  187.4330  176.7680  142.8280 C   0  0  0  0  0  2  0  0  0  0  0  0
  1 19  1  6  0  0  0
  1 10  1  0  0  0  0
  3  2  1  0  0  0  0
  4 22  1  0  0  0  0
  5 23  1  0  0  0  0
  5  4  1  0  0  0  0
  6 14  1  0  0  0  0
  8 23  1  0  0  0  0
  9  2  2  0  0  0  0
 10 11  2  0  0  0  0
 10  7  1  0  0  0  0
 11  9  1  0  0  0  0
 12 17  2  0  0  0  0
 13 15  1  0  0  0  0
 13  8  2  0  0  0  0
 14  7  1  1  0  0  0
 14 25  1  0  0  0  0
 15  5  2  0  0  0  0
 16  3  2  0  0  0  0
 17 16  1  0  0  0  0
 17 11  1  0  0  0  0
 18 12  1  0  0  0  0
 19  6  1  0  0  0  0
 20  4  2  0  0  0  0
 21  8  1  0  0  0  0
 22 12  1  0  0  0  0
 22  1  1  0  0  0  0
 23 18  2  0  0  0  0
 25 26  1  0  0  0  0
 25 24  1  1  0  0  0
 26 27  1  1  0  0  0
 26 24  1  0  0  0  0
 28 29  1  6  0  0  0
 28 27  1  0  0  0  0
 28 30  1  0  0  0  0
 31 32  1  0  0  0  0
 32  6  1  0  0  0  0
M  END
>  <MODEL>
5

>  <REMARK>
 VINA RESULT:      -7.3      3.438      7.855
  Name = 
  4 active torsions:
  status: ('A' for Active; 'I' for Inactive)
    1  A    between atoms: N_7  and  C_19
    2  A    between atoms: C_10  and  C_17
    3  A    between atoms: C_20  and  O_29
    4  A    between atoms: O_29  and  C_30
                            x       y       z     vdW  Elec       q    Type
                         _______ _______ _______ _____ _____    ______ ____

>  <TORSDO>
F 4

$$$$
=
 OpenBabel11112416273D

 32 37  0  0  1  0  0  0  0  0999 V2000
  190.2670  176.5380  142.9270 C   0  0  1  0  0  3  0  0  0  0  0  0
  192.0350  176.6110  147.5340 C   0  0  0  0  0  3  0  0  0  0  0  0
  190.7920  177.0010  148.0210 C   0  0  0  0  0  3  0  0  0  0  0  0
  188.0180  177.5640  142.5640 C   0  0  0  0  0  0  0  0  0  0  0  0
  186.7940  178.1250  143.1130 C   0  0  0  0  0  0  0  0  0  0  0  0
  191.2630  174.6300  141.7290 N   0  0  0  0  0  0  0  0  0  0  0  0
  192.6370  175.8400  143.4070 C   0  0  0  0  0  2  0  0  0  0  0  0
  185.3270  178.7620  144.5620 C   0  0  0  0  0  0  0  0  0  0  0  0
  192.2150  176.4260  146.1640 C   0  0  0  0  0  3  0  0  0  0  0  0
  191.3630  176.4160  143.9410 C   0  0  0  0  0  0  0  0  0  0  0  0
  191.1600  176.6300  145.2550 C   0  0  0  0  0  0  0  0  0  0  0  0
  188.8490  177.2510  144.9170 C   0  0  0  0  0  0  0  0  0  0  0  0
  184.8520  179.0370  143.3300 N   0  0  0  0  0  0  0  0  0  0  0  0
  192.3400  174.4910  142.7380 C   0  0  2  0  0  3  0  0  0  0  0  0
  185.7540  178.6460  142.4350 N   0  0  0  0  0  0  0  0  0  0  0  0
  189.7330  177.2100  147.1390 C   0  0  0  0  0  3  0  0  0  0  0  0
  189.8920  177.0350  145.7510 C   0  0  0  0  0  0  0  0  0  0  0  0
  187.4900  177.6410  145.4930 C   0  0  0  0  0  3  0  0  0  0  0  0
  190.0300  175.1510  142.3380 C   0  0  0  0  0  2  0  0  0  0  0  0
  188.1880  177.5020  141.3170 O   0  0  0  0  0  0  0  0  0  0  0  0
  184.5890  179.0400  145.8250 C   0  0  0  0  0  1  0  0  0  0  0  0
  189.0290  177.0950  143.4810 N   0  0  0  0  0  0  0  0  0  0  0  0
  186.5710  178.1870  144.4510 C   0  0  0  0  0  0  0  0  0  0  0  0
  194.7410  174.4930  142.8010 O   0  0  0  0  0  0  0  0  0  0  0  0
  193.6300  173.9920  142.0940 C   0  0  1  0  0  3  0  0  0  0  0  0
  194.3860  173.1560  143.0550 C   0  0  1  0  0  3  0  0  0  0  0  0
  195.2530  172.3100  142.3620 O   0  0  0  0  0  0  0  0  0  0  0  0
  195.9510  171.6220  143.3550 C   0  0  2  0  0  3  0  0  0  0  0  0
  195.0930  171.5240  144.6010 C   0  0  0  0  0  1  0  0  0  0  0  0
  197.1290  172.3080  143.6580 O   0  0  0  0  0  1  0  0  0  0  0  0
  190.0090  172.4710  141.9470 C   0  0  0  0  0  1  0  0  0  0  0  0
  190.9460  173.3370  141.1030 C   0  0  0  0  0  2  0  0  0  0  0  0
  1 19  1  1  0  0  0
  1 22  1  0  0  0  0
  1 10  1  0  0  0  0
  2  3  1  0  0  0  0
  4  5  1  0  0  0  0
  4 22  1  0  0  0  0
  5 23  1  0  0  0  0
  6 19  1  0  0  0  0
  6 14  1  0  0  0  0
  7 10  1  0  0  0  0
  8 21  1  0  0  0  0
  9  2  2  0  0  0  0
 10 11  2  0  0  0  0
 11 17  1  0  0  0  0
 11  9  1  0  0  0  0
 12 18  1  0  0  0  0
 12 17  2  0  0  0  0
 13  8  2  0  0  0  0
 14  7  1  6  0  0  0
 15  5  2  0  0  0  0
 15 13  1  0  0  0  0
 16  3  2  0  0  0  0
 17 16  1  0  0  0  0
 20  4  2  0  0  0  0
 22 12  1  0  0  0  0
 23  8  1  0  0  0  0
 23 18  2  0  0  0  0
 24 26  1  0  0  0  0
 25 14  1  0  0  0  0
 25 24  1  1  0  0  0
 25 26  1  0  0  0  0
 26 27  1  6  0  0  0
 27 28  1  0  0  0  0
 28 30  1  0  0  0  0
 28 29  1  1  0  0  0
 32  6  1  0  0  0  0
 32 31  1  0  0  0  0
M  END
>  <MODEL>
6

>  <REMARK>
 VINA RESULT:      -7.3      2.207      3.402
  Name = 
  4 active torsions:
  status: ('A' for Active; 'I' for Inactive)
    1  A    between atoms: N_7  and  C_19
    2  A    between atoms: C_10  and  C_17
    3  A    between atoms: C_20  and  O_29
    4  A    between atoms: O_29  and  C_30
                            x       y       z     vdW  Elec       q    Type
                         _______ _______ _______ _____ _____    ______ ____

>  <TORSDO>
F 4

$$$$
=
 OpenBabel11112416273D

 32 37  0  0  1  0  0  0  0  0999 V2000
  189.9990  175.6430  144.9870 C   0  0  1  0  0  3  0  0  0  0  0  0
  188.5750  174.6810  140.3610 C   0  0  0  0  0  3  0  0  0  0  0  0
  187.4570  175.4940  140.5190 C   0  0  0  0  0  3  0  0  0  0  0  0
  188.3420  176.7910  146.4630 C   0  0  0  0  0  0  0  0  0  0  0  0
  187.0780  177.4930  146.6190 C   0  0  0  0  0  0  0  0  0  0  0  0
  192.4530  175.8510  145.0310 N   0  0  0  0  0  0  0  0  0  0  0  0
  191.4180  174.2170  143.4750 C   0  0  0  0  0  2  0  0  0  0  0  0
  185.2090  178.4410  146.1040 C   0  0  0  0  0  0  0  0  0  0  0  0
  189.4580  174.5010  141.4250 C   0  0  0  0  0  3  0  0  0  0  0  0
  190.1260  174.9490  143.6660 C   0  0  0  0  0  0  0  0  0  0  0  0
  189.2390  175.1240  142.6680 C   0  0  0  0  0  0  0  0  0  0  0  0
  187.8370  176.5640  144.0100 C   0  0  0  0  0  0  0  0  0  0  0  0
  185.3730  178.5250  147.4400 N   0  0  0  0  0  0  0  0  0  0  0  0
  192.5860  175.1820  143.7150 C   0  0  2  0  0  3  0  0  0  0  0  0
  186.5230  177.9420  147.7600 N   0  0  0  0  0  2  0  0  0  0  0  0
  187.2210  176.1210  141.7420 C   0  0  0  0  0  3  0  0  0  0  0  0
  188.0950  175.9500  142.8330 C   0  0  0  0  0  0  0  0  0  0  0  0
  186.6210  177.4790  144.1340 C   0  0  0  0  0  2  0  0  0  0  0  0
  191.1860  176.5920  145.1230 C   0  0  0  0  0  2  0  0  0  0  0  0
  189.0700  176.5590  147.4660 O   0  0  0  0  0  0  0  0  0  0  0  0
  184.0420  179.0000  145.3660 C   0  0  0  0  0  1  0  0  0  0  0  0
  188.7290  176.3600  145.1420 N   0  0  0  0  0  0  0  0  0  0  0  0
  186.2820  177.7780  145.5560 C   0  0  0  0  0  0  0  0  0  0  0  0
  193.9110  173.6330  142.4450 O   0  0  0  0  0  0  0  0  0  0  0  0
  193.8820  174.3800  143.6390 C   0  0  1  0  0  3  0  0  0  0  0  0
  194.6770  174.8120  142.4670 C   0  0  1  0  0  3  0  0  0  0  0  0
  196.0200  174.4840  142.6640 O   0  0  0  0  0  0  0  0  0  0  0  0
  196.7320  175.4720  141.9830 C   0  0  2  0  0  3  0  0  0  0  0  0
  197.9050  175.9240  142.8290 C   0  0  0  0  0  1  0  0  0  0  0  0
  195.8960  176.5610  141.7320 O   0  0  0  0  0  1  0  0  0  0  0  0
  194.2080  176.6510  146.6320 C   0  0  0  0  0  1  0  0  0  0  0  0
  193.5500  176.8050  145.2600 C   0  0  0  0  0  2  0  0  0  0  0  0
  1 19  1  6  0  0  0
  1 22  1  0  0  0  0
  2  3  1  0  0  0  0
  2  9  2  0  0  0  0
  3 16  2  0  0  0  0
  4  5  1  0  0  0  0
  4 20  2  0  0  0  0
  5 15  1  0  0  0  0
  6 19  1  0  0  0  0
  6 32  1  0  0  0  0
  7 10  1  0  0  0  0
  8 13  2  0  0  0  0
  9 11  1  0  0  0  0
 10  1  1  0  0  0  0
 11 17  1  0  0  0  0
 11 10  2  0  0  0  0
 12 18  1  0  0  0  0
 12 22  1  0  0  0  0
 13 15  1  0  0  0  0
 14  7  1  1  0  0  0
 14  6  1  0  0  0  0
 16 17  1  0  0  0  0
 17 12  2  0  0  0  0
 18 23  1  0  0  0  0
 21  8  1  0  0  0  0
 22  4  1  0  0  0  0
 23  8  1  0  0  0  0
 23  5  2  0  0  0  0
 24 26  1  0  0  0  0
 25 24  1  6  0  0  0
 25 14  1  0  0  0  0
 26 27  1  1  0  0  0
 26 25  1  0  0  0  0
 28 27  1  0  0  0  0
 28 29  1  1  0  0  0
 30 28  1  0  0  0  0
 32 31  1  0  0  0  0
M  END
>  <MODEL>
7

>  <REMARK>
 VINA RESULT:      -7.2      3.056      5.069
  Name = 
  4 active torsions:
  status: ('A' for Active; 'I' for Inactive)
    1  A    between atoms: N_7  and  C_19
    2  A    between atoms: C_10  and  C_17
    3  A    between atoms: C_20  and  O_29
    4  A    between atoms: O_29  and  C_30
                            x       y       z     vdW  Elec       q    Type
                         _______ _______ _______ _____ _____    ______ ____

>  <TORSDO>
F 4

$$$$
=
 OpenBabel11112416273D

 32 37  0  0  1  0  0  0  0  0999 V2000
  190.1430  175.4180  143.2830 C   0  0  1  0  0  3  0  0  0  0  0  0
  192.0200  176.7620  147.6440 C   0  0  0  0  0  3  0  0  0  0  0  0
  190.7780  177.2360  148.0510 C   0  0  0  0  0  3  0  0  0  0  0  0
  187.8520  176.2520  142.7350 C   0  0  0  0  0  0  0  0  0  0  0  0
  186.6250  176.9080  143.1540 C   0  0  0  0  0  0  0  0  0  0  0  0
  191.1720  173.2850  142.6030 N   0  0  0  0  0  0  0  0  0  0  0  0
  192.5460  174.9330  143.8530 C   0  0  0  0  0  2  0  0  0  0  0  0
  185.1740  177.8700  144.4290 C   0  0  0  0  0  0  0  0  0  0  0  0
  192.1730  176.2220  146.3670 C   0  0  0  0  0  3  0  0  0  0  0  0
  191.2670  175.5990  144.2560 C   0  0  0  0  0  0  0  0  0  0  0  0
  191.0900  176.1500  145.4720 C   0  0  0  0  0  0  0  0  0  0  0  0
  188.7520  176.5990  145.0570 C   0  0  0  0  0  0  0  0  0  0  0  0
  184.6600  177.7940  143.1840 N   0  0  0  0  0  0  0  0  0  0  0  0
  192.2780  173.4480  143.5770 C   0  0  2  0  0  3  0  0  0  0  0  0
  185.5510  177.2020  142.3960 N   0  0  0  0  0  0  0  0  0  0  0  0
  189.6910  177.1750  147.1800 C   0  0  0  0  0  3  0  0  0  0  0  0
  189.8220  176.6400  145.8840 C   0  0  0  0  0  0  0  0  0  0  0  0
  187.3950  177.0940  145.5530 C   0  0  0  0  0  3  0  0  0  0  0  0
  189.9380  173.9180  143.0920 C   0  0  0  0  0  2  0  0  0  0  0  0
  187.9930  175.8630  141.5430 O   0  0  0  0  0  0  0  0  0  0  0  0
  184.4590  178.4560  145.5960 C   0  0  0  0  0  1  0  0  0  0  0  0
  188.9010  176.0710  143.7090 N   0  0  0  0  0  0  0  0  0  0  0  0
  186.4330  177.3180  144.4340 C   0  0  0  0  0  0  0  0  0  0  0  0
  194.6750  173.5650  143.5100 O   0  0  0  0  0  0  0  0  0  0  0  0
  193.5680  172.8280  143.0470 C   0  0  1  0  0  3  0  0  0  0  0  0
  194.4030  172.3560  144.1750 C   0  0  1  0  0  3  0  0  0  0  0  0
  195.2880  171.3740  143.7250 O   0  0  0  0  0  0  0  0  0  0  0  0
  195.8050  170.8000  144.8880 C   0  0  2  0  0  3  0  0  0  0  0  0
  194.6650  170.3570  145.7830 C   0  0  0  0  0  1  0  0  0  0  0  0
  196.5860  171.7380  145.5640 O   0  0  0  0  0  1  0  0  0  0  0  0
  190.1450  171.6190  141.0380 C   0  0  0  0  0  1  0  0  0  0  0  0
  190.8820  171.8640  142.3550 C   0  0  0  0  0  2  0  0  0  0  0  0
  1 19  1  1  0  0  0
  1 22  1  0  0  0  0
  1 10  1  0  0  0  0
  2  3  1  0  0  0  0
  4  5  1  0  0  0  0
  4 22  1  0  0  0  0
  5 23  1  0  0  0  0
  6 19  1  0  0  0  0
  6 14  1  0  0  0  0
  7 10  1  0  0  0  0
  8 23  1  0  0  0  0
  8 21  1  0  0  0  0
  9  2  2  0  0  0  0
 10 11  2  0  0  0  0
 11 17  1  0  0  0  0
 11  9  1  0  0  0  0
 12 18  1  0  0  0  0
 12 17  2  0  0  0  0
 13  8  2  0  0  0  0
 14  7  1  6  0  0  0
 15  5  2  0  0  0  0
 15 13  1  0  0  0  0
 16  3  2  0  0  0  0
 17 16  1  0  0  0  0
 20  4  2  0  0  0  0
 22 12  1  0  0  0  0
 23 18  2  0  0  0  0
 24 26  1  0  0  0  0
 25 24  1  1  0  0  0
 25 14  1  0  0  0  0
 25 26  1  0  0  0  0
 26 27  1  6  0  0  0
 27 28  1  0  0  0  0
 28 30  1  0  0  0  0
 28 29  1  1  0  0  0
 31 32  1  0  0  0  0
 32  6  1  0  0  0  0
M  END
>  <MODEL>
8

>  <REMARK>
 VINA RESULT:      -7.0      2.125      3.493
  Name = 
  4 active torsions:
  status: ('A' for Active; 'I' for Inactive)
    1  A    between atoms: N_7  and  C_19
    2  A    between atoms: C_10  and  C_17
    3  A    between atoms: C_20  and  O_29
    4  A    between atoms: O_29  and  C_30
                            x       y       z     vdW  Elec       q    Type
                         _______ _______ _______ _____ _____    ______ ____

>  <TORSDO>
F 4

$$$$
=
 OpenBabel11112416273D

 32 37  0  0  1  0  0  0  0  0999 V2000
  190.2560  175.1150  142.6940 C   0  0  1  0  0  3  0  0  0  0  0  0
  192.3710  175.5320  147.1330 C   0  0  0  0  0  3  0  0  0  0  0  0
  191.1680  175.9620  147.6830 C   0  0  0  0  0  3  0  0  0  0  0  0
  187.9830  176.1180  142.4270 C   0  0  0  0  0  0  0  0  0  0  0  0
  186.8030  176.7230  143.0230 C   0  0  0  0  0  0  0  0  0  0  0  0
  191.1640  173.1190  141.5710 N   0  0  0  0  0  0  0  0  0  0  0  0
  192.6580  174.4490  143.0420 C   0  0  0  0  0  2  0  0  0  0  0  0
  185.4500  177.4720  144.5280 C   0  0  0  0  0  0  0  0  0  0  0  0
  192.4470  175.2430  145.7710 C   0  0  0  0  0  3  0  0  0  0  0  0
  191.4270  175.0680  143.6270 C   0  0  0  0  0  0  0  0  0  0  0  0
  191.3250  175.3810  144.9330 C   0  0  0  0  0  0  0  0  0  0  0  0
  188.9930  175.9820  144.7260 C   0  0  0  0  0  0  0  0  0  0  0  0
  184.8820  177.6540  143.3180 N   0  0  0  0  0  0  0  0  0  0  0  0
  192.3150  173.0540  142.5020 C   0  0  2  0  0  3  0  0  0  0  0  0
  185.7130  177.1940  142.3900 N   0  0  0  0  0  0  0  0  0  0  0  0
  190.0440  176.1060  146.8710 C   0  0  0  0  0  3  0  0  0  0  0  0
  190.0970  175.8260  145.4920 C   0  0  0  0  0  0  0  0  0  0  0  0
  187.6810  176.4180  145.3730 C   0  0  0  0  0  3  0  0  0  0  0  0
  189.9790  173.6890  142.2320 C   0  0  0  0  0  2  0  0  0  0  0  0
  188.0580  175.9610  141.1780 O   0  0  0  0  0  0  0  0  0  0  0  0
  184.8100  177.8470  145.8190 C   0  0  0  0  0  1  0  0  0  0  0  0
  189.0630  175.7170  143.2960 N   0  0  0  0  0  0  0  0  0  0  0  0
  186.6830  176.8860  144.3660 C   0  0  0  0  0  0  0  0  0  0  0  0
  194.6880  172.7020  142.6120 O   0  0  0  0  0  0  0  0  0  0  0  0
  193.5540  172.5030  141.8010 C   0  0  1  0  0  3  0  0  0  0  0  0
  194.1430  171.4060  142.6030 C   0  0  1  0  0  3  0  0  0  0  0  0
  194.9180  170.5880  141.7790 O   0  0  0  0  0  0  0  0  0  0  0  0
  195.2600  169.4970  142.5800 C   0  0  2  0  0  3  0  0  0  0  0  0
  194.0930  169.1460  143.4810 C   0  0  0  0  0  1  0  0  0  0  0  0
  196.3680  169.8220  143.3640 O   0  0  0  0  0  1  0  0  0  0  0  0
  190.4470  170.7970  142.1850 C   0  0  0  0  0  1  0  0  0  0  0  0
  190.8030  171.7830  141.0710 C   0  0  0  0  0  2  0  0  0  0  0  0
  1 19  1  1  0  0  0
  1 22  1  0  0  0  0
  1 10  1  0  0  0  0
  2  3  1  0  0  0  0
  4  5  1  0  0  0  0
  4 22  1  0  0  0  0
  5 23  1  0  0  0  0
  6 19  1  0  0  0  0
  6 14  1  0  0  0  0
  7 10  1  0  0  0  0
  8 21  1  0  0  0  0
  9  2  2  0  0  0  0
 10 11  2  0  0  0  0
 11 17  1  0  0  0  0
 11  9  1  0  0  0  0
 12 18  1  0  0  0  0
 12 17  2  0  0  0  0
 13  8  2  0  0  0  0
 14  7  1  6  0  0  0
 15  5  2  0  0  0  0
 15 13  1  0  0  0  0
 16  3  2  0  0  0  0
 17 16  1  0  0  0  0
 20  4  2  0  0  0  0
 22 12  1  0  0  0  0
 23  8  1  0  0  0  0
 23 18  2  0  0  0  0
 25 14  1  0  0  0  0
 25 26  1  0  0  0  0
 25 24  1  1  0  0  0
 26 27  1  6  0  0  0
 26 24  1  0  0  0  0
 27 28  1  0  0  0  0
 28 30  1  0  0  0  0
 28 29  1  1  0  0  0
 32  6  1  0  0  0  0
 32 31  1  0  0  0  0
M  END
>  <MODEL>
9

>  <REMARK>
 VINA RESULT:      -6.7      2.415      4.134
  Name = 
  4 active torsions:
  status: ('A' for Active; 'I' for Inactive)
    1  A    between atoms: N_7  and  C_19
    2  A    between atoms: C_10  and  C_17
    3  A    between atoms: C_20  and  O_29
    4  A    between atoms: O_29  and  C_30
                            x       y       z     vdW  Elec       q    Type
                         _______ _______ _______ _____ _____    ______ ____

>  <TORSDO>
F 4

$$$$
