=
 OpenBabel11112417103D

 37 43  0  0  1  0  0  0  0  0999 V2000
  192.8010  172.0610  143.2420 C   0  0  0  0  0  2  0  0  0  0  0  0
  196.1390  176.2750  143.4770 C   0  0  1  0  0  0  0  0  0  0  0  0
  192.4550  174.9450  144.7710 C   0  0  1  0  0  3  0  0  0  0  0  0
  193.1940  170.6090  142.9580 C   0  0  2  0  0  3  0  0  0  0  0  0
  190.3350  174.0330  141.8070 O   0  0  0  0  0  0  0  0  0  0  0  0
  194.6210  176.1470  145.3960 C   0  0  0  0  0  0  0  0  0  0  0  0
  192.0160  174.9320  143.3220 C   0  0  2  0  0  3  0  0  0  0  0  0
  191.4350  170.5040  141.0490 C   0  0  2  0  0  3  0  0  0  0  0  0
  193.9770  174.9460  144.7300 C   0  0  2  0  0  3  0  0  0  0  0  0
  190.6870  174.1730  143.1530 C   0  0  1  0  0  3  0  0  0  0  0  0
  194.0200  176.7510  146.6390 C   0  0  0  0  0  2  0  0  0  0  0  0
  192.8290  170.1020  141.5540 C   0  0  0  0  0  2  0  0  0  0  0  0
  194.3710  174.7560  143.2540 C   0  0  2  0  0  3  0  0  0  0  0  0
  197.1650  175.1570  143.6480 C   0  0  0  0  0  1  0  0  0  0  0  0
  190.3400  176.0950  145.6960 C   0  0  0  0  0  2  0  0  0  0  0  0
  192.5700  176.3070  146.8600 C   0  0  0  0  0  2  0  0  0  0  0  0
  195.0340  175.8730  142.6820 O   0  0  0  0  0  0  0  0  0  0  0  0
  191.2330  172.0190  140.7870 C   0  0  1  0  0  3  0  0  0  0  0  0
  190.1390  172.6560  141.6530 C   0  0  0  0  0  2  0  0  0  0  0  0
  191.8610  176.1460  145.5200 C   0  0  1  0  0  3  0  0  0  0  0  0
  193.1560  174.4680  142.4940 N   0  0  1  0  0  0  0  0  0  0  0  0
  195.6500  176.7610  144.8100 C   0  0  0  0  0  3  0  0  0  0  0  0
  189.5270  174.7870  143.9590 C   0  0  1  0  0  3  0  0  0  0  0  0
  196.7690  177.3300  142.8460 F   0  0  0  0  0  0  0  0  0  0  0  0
  192.5490  172.8150  140.7510 C   0  0  0  0  0  2  0  0  0  0  0  0
  190.4300  169.9500  141.8490 O   0  0  0  0  0  1  0  0  0  0  0  0
  193.2040  173.0410  142.1230 C   0  0  2  0  0  3  0  0  0  0  0  0
  189.7750  174.8480  145.3540 O   0  0  0  0  0  0  0  0  0  0  0  0
  189.5740  176.9560  142.6950 C   0  0  0  0  0  3  0  0  0  0  0  0
  188.8190  175.9730  143.3450 C   0  0  0  0  0  0  0  0  0  0  0  0
  187.4210  176.0900  143.3890 C   0  0  0  0  0  3  0  0  0  0  0  0
  185.3090  177.3060  142.8500 C   0  0  0  0  0  1  0  0  0  0  0  0
  187.5480  178.1690  142.1560 C   0  0  0  0  0  3  0  0  0  0  0  0
  186.7890  177.1860  142.7980 C   0  0  0  0  0  0  0  0  0  0  0  0
  188.9400  178.0530  142.1040 C   0  0  0  0  0  3  0  0  0  0  0  0
  193.7060  169.2770  144.8100 C   0  0  0  0  0  1  0  0  0  0  0  0
  192.6170  169.7370  143.9660 N   0  0  0  0  0  2  0  0  0  0  0  0
  2 14  1  1  0  0  0
  2 22  1  0  0  0  0
  3 20  1  0  0  0  0
  4  1  1  0  0  0  0
  4 37  1  0  0  0  0
  5 10  1  0  0  0  0
  6 11  1  0  0  0  0
  7  3  1  0  0  0  0
  8 12  1  0  0  0  0
  8 26  1  0  0  0  0
  9  3  1  0  0  0  0
  9  6  1  0  0  0  0
 10  7  1  0  0  0  0
 10 23  1  0  0  0  0
 11 16  1  0  0  0  0
 12  4  1  0  0  0  0
 13  9  1  0  0  0  0
 17 13  1  0  0  0  0
 17  2  1  0  0  0  0
 18  8  1  0  0  0  0
 18 19  1  0  0  0  0
 19  5  1  0  0  0  0
 20 15  1  0  0  0  0
 20 16  1  0  0  0  0
 21 13  1  0  0  0  0
 21  7  1  0  0  0  0
 22  6  2  0  0  0  0
 23 28  1  0  0  0  0
 24  2  1  0  0  0  0
 25 18  1  0  0  0  0
 25 27  1  0  0  0  0
 27 21  1  0  0  0  0
 27  1  1  0  0  0  0
 28 15  1  0  0  0  0
 29 30  1  0  0  0  0
 30 31  2  0  0  0  0
 30 23  1  0  0  0  0
 33 34  2  0  0  0  0
 34 32  1  0  0  0  0
 34 31  1  0  0  0  0
 35 33  1  0  0  0  0
 35 29  2  0  0  0  0
 37 36  1  0  0  0  0
M  END
>  <MODEL>
1

>  <REMARK>
 VINA RESULT:      -8.4      0.000      0.000
  Name = 
  2 active torsions:
  status: ('A' for Active; 'I' for Inactive)
    1  A    between atoms: C_4  and  N_37
    2  A    between atoms: C_23  and  C_30
                            x       y       z     vdW  Elec       q    Type
                         _______ _______ _______ _____ _____    ______ ____

>  <TORSDO>
F 2

$$$$
=
 OpenBabel11112417103D

 37 43  0  0  1  0  0  0  0  0999 V2000
  193.5470  175.1910  143.3440 C   0  0  0  0  0  2  0  0  0  0  0  0
  190.8270  170.7330  142.0460 C   0  0  1  0  0  0  0  0  0  0  0  0
  190.4770  174.8380  142.2370 C   0  0  1  0  0  3  0  0  0  0  0  0
  195.0700  175.3470  143.3690 C   0  0  2  0  0  3  0  0  0  0  0  0
  191.1760  175.9980  145.7420 O   0  0  0  0  0  0  0  0  0  0  0  0
  190.0130  172.7260  140.8770 C   0  0  0  0  0  0  0  0  0  0  0  0
  190.6340  174.7230  143.7390 C   0  0  2  0  0  3  0  0  0  0  0  0
  194.9410  176.2340  145.8070 C   0  0  2  0  0  3  0  0  0  0  0  0
  191.0200  173.5320  141.6750 C   0  0  2  0  0  3  0  0  0  0  0  0
  190.8940  176.1010  144.3750 C   0  0  1  0  0  3  0  0  0  0  0  0
  188.9940  173.4150  140.0070 C   0  0  0  0  0  2  0  0  0  0  0  0
  195.6940  175.3840  144.7720 C   0  0  0  0  0  2  0  0  0  0  0  0
  191.6370  172.7720  142.8630 C   0  0  2  0  0  3  0  0  0  0  0  0
  192.1750  170.3720  141.4220 C   0  0  0  0  0  1  0  0  0  0  0  0
  188.4920  176.4830  142.2870 C   0  0  0  0  0  2  0  0  0  0  0  0
  188.8430  174.9010  140.3520 C   0  0  0  0  0  2  0  0  0  0  0  0
  190.9700  171.5620  143.1890 O   0  0  0  0  0  0  0  0  0  0  0  0
  193.5410  175.7030  146.2110 C   0  0  1  0  0  3  0  0  0  0  0  0
  192.3950  176.6690  145.8840 C   0  0  0  0  0  2  0  0  0  0  0  0
  189.0170  175.1110  141.8510 C   0  0  1  0  0  3  0  0  0  0  0  0
  191.6300  173.6610  144.0230 N   0  0  1  0  0  0  0  0  0  0  0  0
  189.9360  171.4050  141.0430 C   0  0  0  0  0  3  0  0  0  0  0  0
  189.7580  177.1120  144.1270 C   0  0  1  0  0  3  0  0  0  0  0  0
  190.2170  169.5560  142.4350 F   0  0  0  0  0  0  0  0  0  0  0  0
  193.2850  174.2520  145.7700 C   0  0  0  0  0  2  0  0  0  0  0  0
  194.9280  177.5830  145.4390 O   0  0  0  0  0  1  0  0  0  0  0  0
  193.0260  174.0710  144.2650 C   0  0  2  0  0  3  0  0  0  0  0  0
  189.5010  177.3510  142.7530 O   0  0  0  0  0  0  0  0  0  0  0  0
  188.5470  176.0820  146.0710 C   0  0  0  0  0  3  0  0  0  0  0  0
  188.5530  177.0240  145.0360 C   0  0  0  0  0  0  0  0  0  0  0  0
  187.4580  177.8870  144.8790 C   0  0  0  0  0  3  0  0  0  0  0  0
  185.2060  178.7130  145.5700 C   0  0  0  0  0  1  0  0  0  0  0  0
  186.3600  176.8510  146.7710 C   0  0  0  0  0  3  0  0  0  0  0  0
  186.3630  177.7980  145.7430 C   0  0  0  0  0  0  0  0  0  0  0  0
  187.4520  175.9940  146.9350 C   0  0  0  0  0  3  0  0  0  0  0  0
  196.9050  176.6080  142.6530 C   0  0  0  0  0  1  0  0  0  0  0  0
  195.4550  176.5330  142.6230 N   0  0  0  0  0  2  0  0  0  0  0  0
  1  4  1  0  0  0  0
  1 27  1  0  0  0  0
  2 14  1  6  0  0  0
  2 24  1  0  0  0  0
  2 17  1  0  0  0  0
  3  7  1  0  0  0  0
  4 12  1  0  0  0  0
  5 19  1  0  0  0  0
  6 22  2  0  0  0  0
  6  9  1  0  0  0  0
  7 21  1  0  0  0  0
  7 10  1  0  0  0  0
  8 18  1  0  0  0  0
  9  3  1  0  0  0  0
  9 13  1  0  0  0  0
 10  5  1  0  0  0  0
 11 16  1  0  0  0  0
 11  6  1  0  0  0  0
 12  8  1  0  0  0  0
 13 17  1  0  0  0  0
 13 21  1  0  0  0  0
 15 28  1  0  0  0  0
 16 20  1  0  0  0  0
 19 18  1  0  0  0  0
 20  3  1  0  0  0  0
 20 15  1  0  0  0  0
 21 27  1  0  0  0  0
 22  2  1  0  0  0  0
 23 10  1  0  0  0  0
 23 30  1  0  0  0  0
 25 18  1  0  0  0  0
 26  8  1  0  0  0  0
 27 25  1  0  0  0  0
 28 23  1  0  0  0  0
 29 35  1  0  0  0  0
 30 29  2  0  0  0  0
 31 30  1  0  0  0  0
 31 34  2  0  0  0  0
 32 34  1  0  0  0  0
 33 35  2  0  0  0  0
 34 33  1  0  0  0  0
 37 36  1  0  0  0  0
 37  4  1  0  0  0  0
M  END
>  <MODEL>
2

>  <REMARK>
 VINA RESULT:      -8.3      2.581      5.776
  Name = 
  2 active torsions:
  status: ('A' for Active; 'I' for Inactive)
    1  A    between atoms: C_4  and  N_37
    2  A    between atoms: C_23  and  C_30
                            x       y       z     vdW  Elec       q    Type
                         _______ _______ _______ _____ _____    ______ ____

>  <TORSDO>
F 2

$$$$
=
 OpenBabel11112417103D

 37 43  0  0  1  0  0  0  0  0999 V2000
  191.7940  173.3180  141.8880 C   0  0  0  0  0  2  0  0  0  0  0  0
  189.7740  174.8360  146.6390 C   0  0  1  0  0  0  0  0  0  0  0  0
  193.3300  174.1080  144.6800 C   0  0  1  0  0  3  0  0  0  0  0  0
  191.1020  173.4450  140.5280 C   0  0  2  0  0  3  0  0  0  0  0  0
  193.3440  170.5890  143.3640 O   0  0  0  0  0  0  0  0  0  0  0  0
  192.0520  175.6550  146.2610 C   0  0  0  0  0  0  0  0  0  0  0  0
  192.9050  172.6590  144.5710 C   0  0  2  0  0  3  0  0  0  0  0  0
  191.5080  170.9180  140.0840 C   0  0  2  0  0  3  0  0  0  0  0  0
  192.0490  174.8830  144.9560 C   0  0  2  0  0  3  0  0  0  0  0  0
  193.8030  171.8920  143.5810 C   0  0  1  0  0  3  0  0  0  0  0  0
  193.3110  176.3140  146.7610 C   0  0  0  0  0  2  0  0  0  0  0  0
  190.5690  172.1260  139.9470 C   0  0  0  0  0  2  0  0  0  0  0  0
  190.8940  173.8730  144.8230 C   0  0  2  0  0  3  0  0  0  0  0  0
  188.8540  175.6460  145.7270 C   0  0  0  0  0  1  0  0  0  0  0  0
  195.7490  173.6370  145.4380 C   0  0  0  0  0  2  0  0  0  0  0  0
  194.5660  175.7770  146.0640 C   0  0  0  0  0  2  0  0  0  0  0  0
  190.1980  173.6240  146.0350 O   0  0  0  0  0  0  0  0  0  0  0  0
  191.7530  170.4270  141.5340 C   0  0  1  0  0  3  0  0  0  0  0  0
  193.2220  170.5040  141.9730 C   0  0  0  0  0  2  0  0  0  0  0  0
  194.4030  174.2920  145.7620 C   0  0  1  0  0  3  0  0  0  0  0  0
  191.4450  172.6190  144.3110 N   0  0  1  0  0  0  0  0  0  0  0  0
  190.9720  175.6430  147.0440 C   0  0  0  0  0  3  0  0  0  0  0  0
  195.2890  171.8870  143.9840 C   0  0  1  0  0  3  0  0  0  0  0  0
  189.0640  174.5270  147.7830 F   0  0  0  0  0  0  0  0  0  0  0  0
  190.7610  171.0110  142.5550 C   0  0  0  0  0  2  0  0  0  0  0  0
  192.6920  171.1160  139.3670 O   0  0  0  0  0  1  0  0  0  0  0  0
  190.9960  172.4870  142.9120 C   0  0  2  0  0  3  0  0  0  0  0  0
  195.8500  173.1840  144.1060 O   0  0  0  0  0  0  0  0  0  0  0  0
  197.0770  170.5900  145.1790 C   0  0  0  0  0  3  0  0  0  0  0  0
  195.7150  170.8660  145.0150 C   0  0  0  0  0  0  0  0  0  0  0  0
  194.7750  170.2140  145.8270 C   0  0  0  0  0  3  0  0  0  0  0  0
  194.1930  168.5990  147.6400 C   0  0  0  0  0  1  0  0  0  0  0  0
  196.5560  169.0120  146.9410 C   0  0  0  0  0  3  0  0  0  0  0  0
  195.1940  169.2880  146.7850 C   0  0  0  0  0  0  0  0  0  0  0  0
  197.4970  169.6630  146.1380 C   0  0  0  0  0  3  0  0  0  0  0  0
  193.2020  174.4490  140.3040 C   0  0  0  0  0  1  0  0  0  0  0  0
  192.0000  174.0800  139.5780 N   0  0  0  0  0  2  0  0  0  0  0  0
  1 27  1  0  0  0  0
  2 14  1  6  0  0  0
  2 22  1  0  0  0  0
  2 24  1  0  0  0  0
  3  9  1  0  0  0  0
  3 20  1  0  0  0  0
  4  1  1  0  0  0  0
  5 10  1  0  0  0  0
  6 11  1  0  0  0  0
  6 22  2  0  0  0  0
  7  3  1  0  0  0  0
  8 18  1  0  0  0  0
  9  6  1  0  0  0  0
 10 23  1  0  0  0  0
 10  7  1  0  0  0  0
 12  8  1  0  0  0  0
 12  4  1  0  0  0  0
 13  9  1  0  0  0  0
 13 17  1  0  0  0  0
 15 20  1  0  0  0  0
 16 11  1  0  0  0  0
 17  2  1  0  0  0  0
 18 19  1  0  0  0  0
 18 25  1  0  0  0  0
 19  5  1  0  0  0  0
 20 16  1  0  0  0  0
 21  7  1  0  0  0  0
 21 13  1  0  0  0  0
 23 28  1  0  0  0  0
 23 30  1  0  0  0  0
 25 27  1  0  0  0  0
 26  8  1  0  0  0  0
 27 21  1  0  0  0  0
 28 15  1  0  0  0  0
 29 35  1  0  0  0  0
 30 29  2  0  0  0  0
 30 31  1  0  0  0  0
 31 34  2  0  0  0  0
 34 33  1  0  0  0  0
 34 32  1  0  0  0  0
 35 33  2  0  0  0  0
 37 36  1  0  0  0  0
 37  4  1  0  0  0  0
M  END
>  <MODEL>
3

>  <REMARK>
 VINA RESULT:      -8.0      2.891      6.614
  Name = 
  2 active torsions:
  status: ('A' for Active; 'I' for Inactive)
    1  A    between atoms: C_4  and  N_37
    2  A    between atoms: C_23  and  C_30
                            x       y       z     vdW  Elec       q    Type
                         _______ _______ _______ _____ _____    ______ ____

>  <TORSDO>
F 2

$$$$
=
 OpenBabel11112417103D

 37 43  0  0  1  0  0  0  0  0999 V2000
  194.3400  174.4310  142.4370 C   0  0  0  0  0  2  0  0  0  0  0  0
  191.5700  169.8680  141.7600 C   0  0  1  0  0  0  0  0  0  0  0  0
  191.1350  173.9660  141.9030 C   0  0  1  0  0  3  0  0  0  0  0  0
  195.8380  174.6260  142.1870 C   0  0  2  0  0  3  0  0  0  0  0  0
  192.4070  175.2530  145.1960 O   0  0  0  0  0  0  0  0  0  0  0  0
  190.5020  171.8020  140.7020 C   0  0  0  0  0  0  0  0  0  0  0  0
  191.5580  173.9020  143.3560 C   0  0  2  0  0  3  0  0  0  0  0  0
  196.1150  175.5850  144.5850 C   0  0  2  0  0  3  0  0  0  0  0  0
  191.6090  172.6580  141.2880 C   0  0  2  0  0  3  0  0  0  0  0  0
  191.8840  175.3060  143.8990 C   0  0  1  0  0  3  0  0  0  0  0  0
  189.3240  172.4370  140.0100 C   0  0  0  0  0  2  0  0  0  0  0  0
  196.6990  174.7230  143.4560 C   0  0  0  0  0  2  0  0  0  0  0  0
  192.4490  171.9510  142.3660 C   0  0  2  0  0  3  0  0  0  0  0  0
  192.7960  169.5210  140.9170 C   0  0  0  0  0  1  0  0  0  0  0  0
  189.1400  175.5620  142.2610 C   0  0  0  0  0  2  0  0  0  0  0  0
  189.1920  173.9290  140.3370 C   0  0  0  0  0  2  0  0  0  0  0  0
  191.8870  170.7350  142.8380 O   0  0  0  0  0  0  0  0  0  0  0  0
  194.8260  175.0320  145.2450 C   0  0  1  0  0  3  0  0  0  0  0  0
  193.6110  175.9580  145.1010 C   0  0  0  0  0  2  0  0  0  0  0  0
  189.6210  174.1910  141.7760 C   0  0  1  0  0  3  0  0  0  0  0  0
  192.6200  172.8760  143.4860 N   0  0  1  0  0  0  0  0  0  0  0  0
  190.4960  170.4850  140.9150 C   0  0  0  0  0  3  0  0  0  0  0  0
  190.6930  176.2790  143.8310 C   0  0  1  0  0  3  0  0  0  0  0  0
  191.0740  168.6890  142.2830 F   0  0  0  0  0  0  0  0  0  0  0  0
  194.5390  173.5620  144.8940 C   0  0  0  0  0  2  0  0  0  0  0  0
  195.9960  176.9220  144.1900 O   0  0  0  0  0  1  0  0  0  0  0  0
  194.0240  173.3280  143.4650 C   0  0  2  0  0  3  0  0  0  0  0  0
  190.1900  176.4690  142.5180 O   0  0  0  0  0  0  0  0  0  0  0  0
  189.7630  175.1470  145.8700 C   0  0  0  0  0  3  0  0  0  0  0  0
  189.6710  176.1900  144.9410 C   0  0  0  0  0  0  0  0  0  0  0  0
  188.6530  177.1460  145.0730 C   0  0  0  0  0  3  0  0  0  0  0  0
  186.6530  178.0660  146.2510 C   0  0  0  0  0  1  0  0  0  0  0  0
  187.8240  176.0050  147.0400 C   0  0  0  0  0  3  0  0  0  0  0  0
  187.7300  177.0520  146.1180 C   0  0  0  0  0  0  0  0  0  0  0  0
  188.8400  175.0530  146.9160 C   0  0  0  0  0  3  0  0  0  0  0  0
  194.7380  176.3380  141.0330 C   0  0  0  0  0  1  0  0  0  0  0  0
  196.0480  175.7980  141.3530 N   0  0  0  0  0  2  0  0  0  0  0  0
  1 27  1  0  0  0  0
  2 14  1  6  0  0  0
  2 24  1  0  0  0  0
  2 17  1  0  0  0  0
  3  7  1  0  0  0  0
  4  1  1  0  0  0  0
  4 12  1  0  0  0  0
  6 22  2  0  0  0  0
  6  9  1  0  0  0  0
  7 21  1  0  0  0  0
  7 10  1  0  0  0  0
  8 18  1  0  0  0  0
  9  3  1  0  0  0  0
  9 13  1  0  0  0  0
 10  5  1  0  0  0  0
 11 16  1  0  0  0  0
 11  6  1  0  0  0  0
 12  8  1  0  0  0  0
 13 17  1  0  0  0  0
 13 21  1  0  0  0  0
 15 28  1  0  0  0  0
 16 20  1  0  0  0  0
 19  5  1  0  0  0  0
 19 18  1  0  0  0  0
 20  3  1  0  0  0  0
 20 15  1  0  0  0  0
 22  2  1  0  0  0  0
 23 10  1  0  0  0  0
 23 30  1  0  0  0  0
 25 18  1  0  0  0  0
 26  8  1  0  0  0  0
 27 21  1  0  0  0  0
 27 25  1  0  0  0  0
 28 23  1  0  0  0  0
 29 35  1  0  0  0  0
 30 31  1  0  0  0  0
 30 29  2  0  0  0  0
 31 34  2  0  0  0  0
 34 32  1  0  0  0  0
 34 33  1  0  0  0  0
 35 33  2  0  0  0  0
 36 37  1  0  0  0  0
 37  4  1  0  0  0  0
M  END
>  <MODEL>
4

>  <REMARK>
 VINA RESULT:      -7.7      2.536      5.743
  Name = 
  2 active torsions:
  status: ('A' for Active; 'I' for Inactive)
    1  A    between atoms: C_4  and  N_37
    2  A    between atoms: C_23  and  C_30
                            x       y       z     vdW  Elec       q    Type
                         _______ _______ _______ _____ _____    ______ ____

>  <TORSDO>
F 2

$$$$
=
 OpenBabel11112417103D

 37 43  0  0  1  0  0  0  0  0999 V2000
  195.9530  173.7990  142.8350 C   0  0  0  0  0  2  0  0  0  0  0  0
  194.8440  169.6910  146.1300 C   0  0  1  0  0  0  0  0  0  0  0  0
  193.1930  172.0560  143.1820 C   0  0  1  0  0  3  0  0  0  0  0  0
  197.3440  174.2320  142.3660 C   0  0  2  0  0  3  0  0  0  0  0  0
  193.3750  175.6640  144.2140 O   0  0  0  0  0  0  0  0  0  0  0  0
  193.4710  169.6890  144.1010 C   0  0  0  0  0  0  0  0  0  0  0  0
  193.3320  173.2310  144.1280 C   0  0  2  0  0  3  0  0  0  0  0  0
  196.8630  176.6550  143.1700 C   0  0  2  0  0  3  0  0  0  0  0  0
  194.1420  170.9940  143.7170 C   0  0  2  0  0  3  0  0  0  0  0  0
  193.1170  174.5650  143.3880 C   0  0  1  0  0  3  0  0  0  0  0  0
  192.3120  169.1570  143.2990 C   0  0  0  0  0  2  0  0  0  0  0  0
  197.8800  175.5130  143.0240 C   0  0  0  0  0  2  0  0  0  0  0  0
  194.9330  171.6560  144.8600 C   0  0  2  0  0  3  0  0  0  0  0  0
  196.2540  169.2780  145.7120 C   0  0  0  0  0  1  0  0  0  0  0  0
  190.7850  172.5870  142.4260 C   0  0  0  0  0  2  0  0  0  0  0  0
  191.6830  170.2280  142.4020 C   0  0  0  0  0  2  0  0  0  0  0  0
  194.6780  171.1010  146.1420 O   0  0  0  0  0  0  0  0  0  0  0  0
  195.6960  176.3840  144.1530 C   0  0  1  0  0  3  0  0  0  0  0  0
  194.3110  176.4130  143.4920 C   0  0  0  0  0  2  0  0  0  0  0  0
  191.7340  171.5860  143.0920 C   0  0  1  0  0  3  0  0  0  0  0  0
  194.6060  173.0810  144.8720 N   0  0  1  0  0  0  0  0  0  0  0  0
  193.8160  169.0700  145.2310 C   0  0  0  0  0  3  0  0  0  0  0  0
  191.7260  174.6850  142.7380 C   0  0  1  0  0  3  0  0  0  0  0  0
  194.6300  169.2180  147.4100 F   0  0  0  0  0  0  0  0  0  0  0  0
  195.9310  175.1660  145.0640 C   0  0  0  0  0  2  0  0  0  0  0  0
  196.4300  177.1080  141.9200 O   0  0  0  0  0  1  0  0  0  0  0  0
  195.7900  173.8030  144.3680 C   0  0  2  0  0  3  0  0  0  0  0  0
  191.4490  173.6610  141.7970 O   0  0  0  0  0  0  0  0  0  0  0  0
  189.5950  175.9550  143.1260 C   0  0  0  0  0  3  0  0  0  0  0  0
  190.5850  175.1080  143.6360 C   0  0  0  0  0  0  0  0  0  0  0  0
  190.4870  174.6440  144.9560 C   0  0  0  0  0  3  0  0  0  0  0  0
  189.3160  174.5420  147.1590 C   0  0  0  0  0  1  0  0  0  0  0  0
  188.4300  175.8850  145.2480 C   0  0  0  0  0  3  0  0  0  0  0  0
  189.4130  175.0340  145.7600 C   0  0  0  0  0  0  0  0  0  0  0  0
  188.5200  176.3450  143.9310 C   0  0  0  0  0  3  0  0  0  0  0  0
  196.0830  173.8650  140.4310 C   0  0  0  0  0  1  0  0  0  0  0  0
  197.3520  174.3760  140.9200 N   0  0  0  0  0  2  0  0  0  0  0  0
  1 27  1  0  0  0  0
  2 14  1  6  0  0  0
  2 17  1  0  0  0  0
  2 24  1  0  0  0  0
  3  9  1  0  0  0  0
  3  7  1  0  0  0  0
  4  1  1  0  0  0  0
  4 12  1  0  0  0  0
  6 22  2  0  0  0  0
  7 21  1  0  0  0  0
  8 18  1  0  0  0  0
  9  6  1  0  0  0  0
  9 13  1  0  0  0  0
 10  7  1  0  0  0  0
 10  5  1  0  0  0  0
 11  6  1  0  0  0  0
 12  8  1  0  0  0  0
 13 21  1  0  0  0  0
 13 17  1  0  0  0  0
 15 20  1  0  0  0  0
 16 20  1  0  0  0  0
 16 11  1  0  0  0  0
 18 25  1  0  0  0  0
 19 18  1  0  0  0  0
 19  5  1  0  0  0  0
 20  3  1  0  0  0  0
 22  2  1  0  0  0  0
 23 10  1  0  0  0  0
 23 30  1  0  0  0  0
 26  8  1  0  0  0  0
 27 21  1  0  0  0  0
 27 25  1  0  0  0  0
 28 15  1  0  0  0  0
 28 23  1  0  0  0  0
 29 30  2  0  0  0  0
 29 35  1  0  0  0  0
 30 31  1  0  0  0  0
 31 34  2  0  0  0  0
 33 34  1  0  0  0  0
 34 32  1  0  0  0  0
 35 33  2  0  0  0  0
 36 37  1  0  0  0  0
 37  4  1  0  0  0  0
M  END
>  <MODEL>
5

>  <REMARK>
 VINA RESULT:      -7.7      2.573      5.701
  Name = 
  2 active torsions:
  status: ('A' for Active; 'I' for Inactive)
    1  A    between atoms: C_4  and  N_37
    2  A    between atoms: C_23  and  C_30
                            x       y       z     vdW  Elec       q    Type
                         _______ _______ _______ _____ _____    ______ ____

>  <TORSDO>
F 2

$$$$
=
 OpenBabel11112417103D

 37 43  0  0  1  0  0  0  0  0999 V2000
  189.7530  175.1000  144.4940 C   0  0  0  0  0  2  0  0  0  0  0  0
  190.0630  172.5680  139.7560 C   0  0  1  0  0  0  0  0  0  0  0  0
  191.7050  172.6400  143.5380 C   0  0  1  0  0  3  0  0  0  0  0  0
  188.5400  175.8610  145.0360 C   0  0  2  0  0  3  0  0  0  0  0  0
  193.0750  176.0650  144.2510 O   0  0  0  0  0  0  0  0  0  0  0  0
  190.8230  171.1870  141.6310 C   0  0  0  0  0  0  0  0  0  0  0  0
  192.2230  174.0280  143.2240 C   0  0  2  0  0  3  0  0  0  0  0  0
  190.0320  177.9480  145.4470 C   0  0  2  0  0  3  0  0  0  0  0  0
  190.5940  172.3870  142.5300 C   0  0  2  0  0  3  0  0  0  0  0  0
  192.7200  174.7350  144.4990 C   0  0  1  0  0  3  0  0  0  0  0  0
  191.4910  169.9460  142.1620 C   0  0  0  0  0  2  0  0  0  0  0  0
  188.6700  177.3920  145.0040 C   0  0  0  0  0  2  0  0  0  0  0  0
  190.3860  173.7110  141.7730 C   0  0  2  0  0  3  0  0  0  0  0  0
  188.5430  172.6680  139.8650 C   0  0  0  0  0  1  0  0  0  0  0  0
  193.8920  171.7520  144.5780 C   0  0  0  0  0  2  0  0  0  0  0  0
  192.2310  170.2000  143.4800 C   0  0  0  0  0  2  0  0  0  0  0  0
  190.7200  173.6520  140.3950 O   0  0  0  0  0  0  0  0  0  0  0  0
  191.2220  177.6150  144.5100 C   0  0  1  0  0  3  0  0  0  0  0  0
  192.3270  176.7910  145.1840 C   0  0  0  0  0  2  0  0  0  0  0  0
  192.8340  171.6000  143.4810 C   0  0  1  0  0  3  0  0  0  0  0  0
  191.1940  174.7390  142.4270 N   0  0  1  0  0  0  0  0  0  0  0  0
  190.5580  171.2720  140.3260 C   0  0  0  0  0  3  0  0  0  0  0  0
  193.8660  173.9860  145.2050 C   0  0  1  0  0  3  0  0  0  0  0  0
  190.3890  172.5930  138.4130 F   0  0  0  0  0  0  0  0  0  0  0  0
  190.7890  177.0780  143.1350 C   0  0  0  0  0  2  0  0  0  0  0  0
  190.2900  177.6430  146.7870 O   0  0  0  0  0  1  0  0  0  0  0  0
  190.2640  175.6340  143.1420 C   0  0  2  0  0  3  0  0  0  0  0  0
  193.5280  172.6640  145.5900 O   0  0  0  0  0  0  0  0  0  0  0  0
  196.3590  173.9950  145.5000 C   0  0  0  0  0  3  0  0  0  0  0  0
  195.2600  174.1970  144.6580 C   0  0  0  0  0  0  0  0  0  0  0  0
  195.4700  174.5620  143.3200 C   0  0  0  0  0  3  0  0  0  0  0  0
  196.9850  175.1220  141.4160 C   0  0  0  0  0  1  0  0  0  0  0  0
  197.8640  174.5350  143.6800 C   0  0  0  0  0  3  0  0  0  0  0  0
  196.7690  174.7330  142.8340 C   0  0  0  0  0  0  0  0  0  0  0  0
  197.6590  174.1660  145.0130 C   0  0  0  0  0  3  0  0  0  0  0  0
  189.3160  174.5220  146.7890 C   0  0  0  0  0  1  0  0  0  0  0  0
  188.2440  175.4150  146.3870 N   0  0  0  0  0  2  0  0  0  0  0  0
  1  4  1  0  0  0  0
  2 14  1  1  0  0  0
  2 22  1  0  0  0  0
  2 17  1  0  0  0  0
  4 37  1  0  0  0  0
  5 10  1  0  0  0  0
  5 19  1  0  0  0  0
  6 11  1  0  0  0  0
  6  9  1  0  0  0  0
  7  3  1  0  0  0  0
  7 10  1  0  0  0  0
  8 26  1  0  0  0  0
  9  3  1  0  0  0  0
 10 23  1  0  0  0  0
 11 16  1  0  0  0  0
 12  4  1  0  0  0  0
 12  8  1  0  0  0  0
 13 21  1  0  0  0  0
 13  9  1  0  0  0  0
 15 28  1  0  0  0  0
 16 20  1  0  0  0  0
 17 13  1  0  0  0  0
 18 19  1  0  0  0  0
 18  8  1  0  0  0  0
 20  3  1  0  0  0  0
 20 15  1  0  0  0  0
 21 27  1  0  0  0  0
 21  7  1  0  0  0  0
 22  6  2  0  0  0  0
 23 28  1  0  0  0  0
 24  2  1  0  0  0  0
 25 27  1  0  0  0  0
 25 18  1  0  0  0  0
 27  1  1  0  0  0  0
 30 23  1  0  0  0  0
 30 29  2  0  0  0  0
 31 30  1  0  0  0  0
 32 34  1  0  0  0  0
 33 35  2  0  0  0  0
 34 31  2  0  0  0  0
 34 33  1  0  0  0  0
 35 29  1  0  0  0  0
 37 36  1  0  0  0  0
M  END
>  <MODEL>
6

>  <REMARK>
 VINA RESULT:      -7.6      2.617      7.151
  Name = 
  2 active torsions:
  status: ('A' for Active; 'I' for Inactive)
    1  A    between atoms: C_4  and  N_37
    2  A    between atoms: C_23  and  C_30
                            x       y       z     vdW  Elec       q    Type
                         _______ _______ _______ _____ _____    ______ ____

>  <TORSDO>
F 2

$$$$
=
 OpenBabel11112417103D

 37 43  0  0  1  0  0  0  0  0999 V2000
  192.8770  172.1450  141.7160 C   0  0  0  0  0  2  0  0  0  0  0  0
  196.1090  176.4470  141.7690 C   0  0  1  0  0  0  0  0  0  0  0  0
  193.1890  174.5240  143.9560 C   0  0  1  0  0  3  0  0  0  0  0  0
  193.1100  170.8470  140.9370 C   0  0  2  0  0  3  0  0  0  0  0  0
  190.0780  174.1850  141.8780 O   0  0  0  0  0  0  0  0  0  0  0  0
  195.4450  175.7200  144.0120 C   0  0  0  0  0  0  0  0  0  0  0  0
  192.2250  174.8290  142.8280 C   0  0  2  0  0  3  0  0  0  0  0  0
  190.7500  171.0610  139.8730 C   0  0  2  0  0  3  0  0  0  0  0  0
  194.5770  174.6680  143.3490 C   0  0  2  0  0  3  0  0  0  0  0  0
  190.9230  174.0200  142.9800 C   0  0  1  0  0  3  0  0  0  0  0  0
  195.3780  175.9450  145.5000 C   0  0  0  0  0  2  0  0  0  0  0  0
  192.2250  170.6710  139.6940 C   0  0  0  0  0  2  0  0  0  0  0  0
  194.3700  174.8810  141.8390 C   0  0  2  0  0  3  0  0  0  0  0  0
  197.1060  175.4150  141.2440 C   0  0  0  0  0  1  0  0  0  0  0  0
  191.6100  175.2220  145.8720 C   0  0  0  0  0  2  0  0  0  0  0  0
  194.1180  175.3360  146.1250 C   0  0  0  0  0  2  0  0  0  0  0  0
  194.7770  176.1580  141.3710 O   0  0  0  0  0  0  0  0  0  0  0  0
  190.4850  172.5690  140.1090 C   0  0  1  0  0  3  0  0  0  0  0  0
  189.8180  172.8770  141.4560 C   0  0  0  0  0  2  0  0  0  0  0  0
  192.9460  175.4480  145.1580 C   0  0  1  0  0  3  0  0  0  0  0  0
  192.9520  174.6830  141.5430 N   0  0  1  0  0  0  0  0  0  0  0  0
  196.1770  176.5470  143.2640 C   0  0  0  0  0  3  0  0  0  0  0  0
  190.1720  174.3140  144.2920 C   0  0  1  0  0  3  0  0  0  0  0  0
  196.4620  177.6750  141.2440 F   0  0  0  0  0  0  0  0  0  0  0  0
  191.6970  173.4620  139.7900 C   0  0  0  0  0  2  0  0  0  0  0  0
  190.1230  170.2410  140.8170 O   0  0  0  0  0  1  0  0  0  0  0  0
  192.8330  173.4010  140.8240 C   0  0  2  0  0  3  0  0  0  0  0  0
  190.9390  174.0530  145.4560 O   0  0  0  0  0  0  0  0  0  0  0  0
  189.5210  176.5610  143.3800 C   0  0  0  0  0  3  0  0  0  0  0  0
  189.2990  175.5480  144.3190 C   0  0  0  0  0  0  0  0  0  0  0  0
  188.2550  175.6820  145.2480 C   0  0  0  0  0  3  0  0  0  0  0  0
  186.3500  176.9610  146.2300 C   0  0  0  0  0  1  0  0  0  0  0  0
  187.6800  177.8360  144.3050 C   0  0  0  0  0  3  0  0  0  0  0  0
  187.4510  176.8240  145.2420 C   0  0  0  0  0  0  0  0  0  0  0  0
  188.7150  177.7040  143.3740 C   0  0  0  0  0  3  0  0  0  0  0  0
  193.2970  168.5200  141.0620 C   0  0  0  0  0  1  0  0  0  0  0  0
  192.9530  169.7070  141.8240 N   0  0  0  0  0  2  0  0  0  0  0  0
  2 14  1  6  0  0  0
  2 22  1  0  0  0  0
  3 20  1  0  0  0  0
  4  1  1  0  0  0  0
  4 37  1  0  0  0  0
  5 10  1  0  0  0  0
  6 11  1  0  0  0  0
  7 10  1  0  0  0  0
  7  3  1  0  0  0  0
  8 18  1  0  0  0  0
  8 26  1  0  0  0  0
  9  3  1  0  0  0  0
  9  6  1  0  0  0  0
 10 23  1  0  0  0  0
 11 16  1  0  0  0  0
 12  8  1  0  0  0  0
 12  4  1  0  0  0  0
 13  9  1  0  0  0  0
 17  2  1  0  0  0  0
 17 13  1  0  0  0  0
 18 19  1  0  0  0  0
 19  5  1  0  0  0  0
 20 15  1  0  0  0  0
 20 16  1  0  0  0  0
 21 13  1  0  0  0  0
 21  7  1  0  0  0  0
 22  6  2  0  0  0  0
 23 30  1  0  0  0  0
 23 28  1  0  0  0  0
 24  2  1  0  0  0  0
 25 18  1  0  0  0  0
 25 27  1  0  0  0  0
 27 21  1  0  0  0  0
 27  1  1  0  0  0  0
 28 15  1  0  0  0  0
 29 30  1  0  0  0  0
 30 31  2  0  0  0  0
 33 34  2  0  0  0  0
 34 31  1  0  0  0  0
 34 32  1  0  0  0  0
 35 29  2  0  0  0  0
 35 33  1  0  0  0  0
 36 37  1  0  0  0  0
M  END
>  <MODEL>
7

>  <REMARK>
 VINA RESULT:      -7.2      1.469      1.739
  Name = 
  2 active torsions:
  status: ('A' for Active; 'I' for Inactive)
    1  A    between atoms: C_4  and  N_37
    2  A    between atoms: C_23  and  C_30
                            x       y       z     vdW  Elec       q    Type
                         _______ _______ _______ _____ _____    ______ ____

>  <TORSDO>
F 2

$$$$
=
 OpenBabel11112417103D

 37 43  0  0  1  0  0  0  0  0999 V2000
  190.5000  176.1520  142.7160 C   0  0  0  0  0  2  0  0  0  0  0  0
  194.9420  175.4940  145.6820 C   0  0  1  0  0  0  0  0  0  0  0  0
  193.5540  175.3680  141.8000 C   0  0  1  0  0  3  0  0  0  0  0  0
  189.2690  176.9770  143.1010 C   0  0  2  0  0  3  0  0  0  0  0  0
  190.7370  172.8950  141.5510 O   0  0  0  0  0  0  0  0  0  0  0  0
  195.4220  176.1320  143.3660 C   0  0  0  0  0  0  0  0  0  0  0  0
  192.6870  174.1960  142.2100 C   0  0  2  0  0  3  0  0  0  0  0  0
  187.7480  174.9210  142.6410 C   0  0  2  0  0  3  0  0  0  0  0  0
  193.9310  176.0640  143.1010 C   0  0  2  0  0  3  0  0  0  0  0  0
  191.6320  173.8840  141.1320 C   0  0  1  0  0  3  0  0  0  0  0  0
  196.3960  176.3340  142.2340 C   0  0  0  0  0  2  0  0  0  0  0  0
  188.0410  176.1510  143.5140 C   0  0  0  0  0  2  0  0  0  0  0  0
  193.1230  175.3710  144.2130 C   0  0  2  0  0  3  0  0  0  0  0  0
  194.3810  176.7340  146.3760 C   0  0  0  0  0  1  0  0  0  0  0  0
  194.4160  174.3280  139.6040 C   0  0  0  0  0  2  0  0  0  0  0  0
  195.7670  176.0460  140.8660 C   0  0  0  0  0  2  0  0  0  0  0  0
  193.9180  174.6650  145.1550 O   0  0  0  0  0  0  0  0  0  0  0  0
  188.8010  173.7860  142.7170 C   0  0  1  0  0  3  0  0  0  0  0  0
  189.4800  173.4830  141.3750 C   0  0  0  0  0  2  0  0  0  0  0  0
  194.7650  174.9030  140.9800 C   0  0  1  0  0  3  0  0  0  0  0  0
  192.1810  174.4480  143.5810 N   0  0  1  0  0  0  0  0  0  0  0  0
  195.8930  175.8770  144.5880 C   0  0  0  0  0  3  0  0  0  0  0  0
  192.2450  173.5230  139.7660 C   0  0  1  0  0  3  0  0  0  0  0  0
  195.6460  174.7690  146.6230 F   0  0  0  0  0  0  0  0  0  0  0  0
  189.7780  173.9340  143.8960 C   0  0  0  0  0  2  0  0  0  0  0  0
  187.4410  175.2960  141.3290 O   0  0  0  0  0  1  0  0  0  0  0  0
  190.8360  175.0360  143.7240 C   0  0  2  0  0  3  0  0  0  0  0  0
  193.0730  174.5410  139.2280 O   0  0  0  0  0  0  0  0  0  0  0  0
  192.4610  171.4470  138.3700 C   0  0  0  0  0  3  0  0  0  0  0  0
  192.7170  172.0980  139.5820 C   0  0  0  0  0  0  0  0  0  0  0  0
  193.4290  171.4310  140.5900 C   0  0  0  0  0  3  0  0  0  0  0  0
  194.6200  169.4180  141.4620 C   0  0  0  0  0  1  0  0  0  0  0  0
  193.6070  169.4720  139.1800 C   0  0  0  0  0  3  0  0  0  0  0  0
  193.8690  170.1210  140.3900 C   0  0  0  0  0  0  0  0  0  0  0  0
  192.9040  170.1360  138.1700 C   0  0  0  0  0  3  0  0  0  0  0  0
  187.6470  178.4870  142.3540 C   0  0  0  0  0  1  0  0  0  0  0  0
  188.9200  177.8750  142.0130 N   0  0  0  0  0  2  0  0  0  0  0  0
  1  4  1  0  0  0  0
  1 27  1  0  0  0  0
  2 14  1  1  0  0  0
  2 24  1  0  0  0  0
  3  7  1  0  0  0  0
  3  9  1  0  0  0  0
  4 12  1  0  0  0  0
  6 22  2  0  0  0  0
  7 21  1  0  0  0  0
  8 18  1  0  0  0  0
  8 12  1  0  0  0  0
  9  6  1  0  0  0  0
  9 13  1  0  0  0  0
 10  5  1  0  0  0  0
 10  7  1  0  0  0  0
 11  6  1  0  0  0  0
 13 17  1  0  0  0  0
 15 20  1  0  0  0  0
 16 20  1  0  0  0  0
 16 11  1  0  0  0  0
 17  2  1  0  0  0  0
 18 25  1  0  0  0  0
 19  5  1  0  0  0  0
 19 18  1  0  0  0  0
 20  3  1  0  0  0  0
 21 27  1  0  0  0  0
 21 13  1  0  0  0  0
 22  2  1  0  0  0  0
 23 10  1  0  0  0  0
 26  8  1  0  0  0  0
 27 25  1  0  0  0  0
 28 15  1  0  0  0  0
 28 23  1  0  0  0  0
 29 30  1  0  0  0  0
 30 23  1  0  0  0  0
 30 31  2  0  0  0  0
 33 34  2  0  0  0  0
 34 31  1  0  0  0  0
 34 32  1  0  0  0  0
 35 29  2  0  0  0  0
 35 33  1  0  0  0  0
 37 36  1  0  0  0  0
 37  4  1  0  0  0  0
M  END
>  <MODEL>
8

>  <REMARK>
 VINA RESULT:      -6.9      2.141      6.224
  Name = 
  2 active torsions:
  status: ('A' for Active; 'I' for Inactive)
    1  A    between atoms: C_4  and  N_37
    2  A    between atoms: C_23  and  C_30
                            x       y       z     vdW  Elec       q    Type
                         _______ _______ _______ _____ _____    ______ ____

>  <TORSDO>
F 2

$$$$
=
 OpenBabel11112417103D

 37 43  0  0  1  0  0  0  0  0999 V2000
  191.4210  176.2770  144.2550 C   0  0  0  0  0  2  0  0  0  0  0  0
  196.7120  175.7640  143.4240 C   0  0  1  0  0  0  0  0  0  0  0  0
  193.0420  174.6260  141.9260 C   0  0  1  0  0  3  0  0  0  0  0  0
  190.7290  177.4150  145.0090 C   0  0  2  0  0  3  0  0  0  0  0  0
  191.0920  172.8420  144.5960 O   0  0  0  0  0  0  0  0  0  0  0  0
  195.3900  175.4730  141.3830 C   0  0  0  0  0  0  0  0  0  0  0  0
  192.8190  173.8620  143.2150 C   0  0  2  0  0  3  0  0  0  0  0  0
  189.5190  175.6810  146.5190 C   0  0  2  0  0  3  0  0  0  0  0  0
  194.1470  175.6250  142.2380 C   0  0  2  0  0  3  0  0  0  0  0  0
  191.3470  173.4280  143.3520 C   0  0  1  0  0  3  0  0  0  0  0  0
  195.2820  175.0800  139.9320 C   0  0  0  0  0  2  0  0  0  0  0  0
  190.2170  177.0460  146.4100 C   0  0  0  0  0  2  0  0  0  0  0  0
  194.4070  175.5270  143.7520 C   0  0  2  0  0  3  0  0  0  0  0  0
  196.6760  177.2520  143.7690 C   0  0  0  0  0  1  0  0  0  0  0  0
  192.2350  172.7540  140.3460 C   0  0  0  0  0  2  0  0  0  0  0  0
  193.9120  174.4840  139.5910 C   0  0  0  0  0  2  0  0  0  0  0  0
  195.6940  175.0330  144.0900 O   0  0  0  0  0  0  0  0  0  0  0  0
  190.4320  174.4480  146.2950 C   0  0  1  0  0  3  0  0  0  0  0  0
  190.0160  173.5800  145.1000 C   0  0  0  0  0  2  0  0  0  0  0  0
  193.3840  173.6750  140.7700 C   0  0  1  0  0  3  0  0  0  0  0  0
  193.3830  174.6580  144.3320 N   0  0  1  0  0  0  0  0  0  0  0  0
  196.5980  175.5540  141.9430 C   0  0  0  0  0  3  0  0  0  0  0  0
  190.8720  172.5120  142.2090 C   0  0  1  0  0  3  0  0  0  0  0  0
  197.9380  175.2700  143.8300 F   0  0  0  0  0  0  0  0  0  0  0  0
  191.9330  174.7810  146.3370 C   0  0  0  0  0  2  0  0  0  0  0  0
  188.3550  175.6470  145.7450 O   0  0  0  0  0  1  0  0  0  0  0  0
  192.4650  175.5210  145.0990 C   0  0  2  0  0  3  0  0  0  0  0  0
  190.9950  173.0980  140.9230 O   0  0  0  0  0  0  0  0  0  0  0  0
  190.4740  170.1120  141.5880 C   0  0  0  0  0  3  0  0  0  0  0  0
  191.2180  171.0440  142.3200 C   0  0  0  0  0  0  0  0  0  0  0  0
  192.2850  170.6050  143.1180 C   0  0  0  0  0  3  0  0  0  0  0  0
  193.7260  168.7860  144.0380 C   0  0  0  0  0  1  0  0  0  0  0  0
  191.8460  168.3170  142.4610 C   0  0  0  0  0  3  0  0  0  0  0  0
  192.5960  169.2450  143.1900 C   0  0  0  0  0  0  0  0  0  0  0  0
  190.7850  168.7510  141.6600 C   0  0  0  0  0  3  0  0  0  0  0  0
  189.7110  177.3010  142.9070 C   0  0  0  0  0  1  0  0  0  0  0  0
  189.6410  177.9470  144.2060 N   0  0  0  0  0  2  0  0  0  0  0  0
  1  4  1  0  0  0  0
  1 27  1  0  0  0  0
  2 14  1  1  0  0  0
  2 24  1  0  0  0  0
  2 17  1  0  0  0  0
  3  9  1  0  0  0  0
  3  7  1  0  0  0  0
  4 12  1  0  0  0  0
  5 19  1  0  0  0  0
  6 22  2  0  0  0  0
  6  9  1  0  0  0  0
  7 10  1  0  0  0  0
  7 21  1  0  0  0  0
  9 13  1  0  0  0  0
 10  5  1  0  0  0  0
 11  6  1  0  0  0  0
 12  8  1  0  0  0  0
 13 17  1  0  0  0  0
 13 21  1  0  0  0  0
 15 20  1  0  0  0  0
 15 28  1  0  0  0  0
 16 11  1  0  0  0  0
 16 20  1  0  0  0  0
 18 25  1  0  0  0  0
 18  8  1  0  0  0  0
 19 18  1  0  0  0  0
 20  3  1  0  0  0  0
 21 27  1  0  0  0  0
 22  2  1  0  0  0  0
 23 30  1  0  0  0  0
 23 10  1  0  0  0  0
 26  8  1  0  0  0  0
 27 25  1  0  0  0  0
 28 23  1  0  0  0  0
 29 35  2  0  0  0  0
 29 30  1  0  0  0  0
 30 31  2  0  0  0  0
 31 34  1  0  0  0  0
 33 34  2  0  0  0  0
 34 32  1  0  0  0  0
 35 33  1  0  0  0  0
 36 37  1  0  0  0  0
 37  4  1  0  0  0  0
M  END
>  <MODEL>
9

>  <REMARK>
 VINA RESULT:      -6.9      1.945      6.154
  Name = 
  2 active torsions:
  status: ('A' for Active; 'I' for Inactive)
    1  A    between atoms: C_4  and  N_37
    2  A    between atoms: C_23  and  C_30
                            x       y       z     vdW  Elec       q    Type
                         _______ _______ _______ _____ _____    ______ ____

>  <TORSDO>
F 2

$$$$
