=
 OpenBabel11112417413D

 28 32  0  0  1  0  0  0  0  0999 V2000
  191.1270  175.1830  144.2280 C   0  0  2  0  0  3  0  0  0  0  0  0
  189.7680  175.1620  141.5420 O   0  0  0  0  0  0  0  0  0  0  0  0
  187.0190  178.4930  148.1950 O   0  0  0  0  0  0  0  0  0  0  0  0
  190.5780  172.3000  144.4350 C   0  0  0  0  0  2  0  0  0  0  0  0
  186.6880  178.2140  145.8680 N   0  0  0  0  0  0  0  0  0  0  0  0
  191.5470  176.5300  144.8300 C   0  0  0  0  0  2  0  0  0  0  0  0
  187.6030  173.9950  141.6970 O   0  0  0  0  0  0  0  0  0  0  0  0
  188.3040  175.3160  141.8380 S   0  0  0  0  0  0  0  0  0  0  0  0
  186.4140  177.2050  141.3000 C   0  0  0  0  0  0  0  0  0  0  0  0
  188.0620  175.9510  143.4250 N   0  0  0  0  0  0  0  0  0  0  0  0
  190.7590  175.4010  148.0130 O   0  0  0  0  0  0  0  0  0  0  0  0
  188.1630  176.4630  145.5860 C   0  0  0  0  0  0  0  0  0  0  0  0
  186.3460  177.5500  142.6920 N   0  0  0  0  0  2  0  0  0  0  0  0
  187.6030  176.5010  140.7070 C   0  0  0  0  0  2  0  0  0  0  0  0
  190.8150  176.3380  147.2330 C   0  0  0  0  0  0  0  0  0  0  0  0
  189.8000  174.6590  144.8050 C   0  0  2  0  0  3  0  0  0  0  0  0
  187.3240  177.9140  147.1200 C   0  0  0  0  0  0  0  0  0  0  0  0
  185.3200  177.8580  140.2800 S   0  0  0  0  0  0  0  0  0  0  0  0
  189.7540  177.3980  147.2560 C   0  0  0  0  0  2  0  0  0  0  0  0
  189.4330  173.2860  144.2400 C   0  0  0  0  0  2  0  0  0  0  0  0
  192.2490  174.1500  144.3610 C   0  0  0  0  0  2  0  0  0  0  0  0
  191.8340  172.8190  143.7460 C   0  0  0  0  0  2  0  0  0  0  0  0
  191.9780  176.4480  146.2970 C   0  0  0  0  0  2  0  0  0  0  0  0
  187.2390  177.2400  145.0130 C   0  0  0  0  0  0  0  0  0  0  0  0
  188.3650  176.8090  147.0240 C   0  0  2  0  0  3  0  0  0  0  0  0
  187.1790  176.9400  143.6790 C   0  0  0  0  0  0  0  0  0  0  0  0
  185.4220  178.9030  145.6830 C   0  0  0  0  0  1  0  0  0  0  0  0
  188.6790  175.6370  144.6030 C   0  0  0  0  0  0  0  0  0  0  0  0
  1 21  1  1  0  0  0
  1 16  1  0  0  0  0
  1  6  1  0  0  0  0
  2  8  2  0  0  0  0
  5 17  1  0  0  0  0
  6 23  1  0  0  0  0
  7  8  2  0  0  0  0
  8 10  1  0  0  0  0
  9 13  1  0  0  0  0
 10 26  1  0  0  0  0
 10 28  1  0  0  0  0
 12 25  1  0  0  0  0
 13 26  1  0  0  0  0
 14  9  1  0  0  0  0
 14  8  1  0  0  0  0
 15 19  1  0  0  0  0
 15 11  2  0  0  0  0
 16 20  1  6  0  0  0
 17  3  2  0  0  0  0
 18  9  2  0  0  0  0
 20  4  1  0  0  0  0
 22 21  1  0  0  0  0
 22  4  1  0  0  0  0
 23 15  1  0  0  0  0
 24 12  1  0  0  0  0
 24  5  1  0  0  0  0
 25 17  1  0  0  0  0
 25 19  1  6  0  0  0
 26 24  2  0  0  0  0
 27  5  1  0  0  0  0
 28 16  1  0  0  0  0
 28 12  2  0  0  0  0
M  END
>  <MODEL>
1

>  <REMARK>
 VINA RESULT:      -8.2      0.000      0.000
  Name = 
  0 active torsions:
  status: ('A' for Active; 'I' for Inactive)
                            x       y       z     vdW  Elec       q    Type
                         _______ _______ _______ _____ _____    ______ ____

>  <TORSDO>
F 0

$$$$
=
 OpenBabel11112417413D

 28 32  0  0  1  0  0  0  0  0999 V2000
  186.7980  178.4130  144.8300 C   0  0  2  0  0  3  0  0  0  0  0  0
  188.8840  177.7020  146.8800 O   0  0  0  0  0  0  0  0  0  0  0  0
  188.1810  174.6290  139.6020 O   0  0  0  0  0  0  0  0  0  0  0  0
  184.8010  177.0620  146.5160 C   0  0  0  0  0  2  0  0  0  0  0  0
  189.5090  174.7350  141.5580 N   0  0  0  0  0  0  0  0  0  0  0  0
  187.2500  179.0490  143.5100 C   0  0  0  0  0  2  0  0  0  0  0  0
  188.7070  175.3180  147.4790 O   0  0  0  0  0  0  0  0  0  0  0  0
  189.3230  176.3080  146.5320 S   0  0  0  0  0  0  0  0  0  0  0  0
  191.6550  175.1690  145.7020 C   0  0  0  0  0  0  0  0  0  0  0  0
  188.8970  175.9190  144.9050 N   0  0  0  0  0  0  0  0  0  0  0  0
  184.7840  177.3250  141.7860 O   0  0  0  0  0  0  0  0  0  0  0  0
  187.9160  175.6970  142.9230 C   0  0  0  0  0  0  0  0  0  0  0  0
  191.0800  174.9050  144.4130 N   0  0  0  0  0  2  0  0  0  0  0  0
  191.1000  176.2160  146.6270 C   0  0  0  0  0  2  0  0  0  0  0  0
  185.9090  177.8000  141.7810 C   0  0  0  0  0  0  0  0  0  0  0  0
  186.5330  176.9020  144.7050 C   0  0  2  0  0  3  0  0  0  0  0  0
  188.3140  174.9840  140.8030 C   0  0  0  0  0  0  0  0  0  0  0  0
  193.1210  174.5390  146.0460 S   0  0  0  0  0  0  0  0  0  0  0  0
  187.0200  177.0920  141.0660 C   0  0  0  0  0  2  0  0  0  0  0  0
  186.0210  176.3010  146.0150 C   0  0  0  0  0  2  0  0  0  0  0  0
  185.5890  179.1530  145.4090 C   0  0  0  0  0  2  0  0  0  0  0  0
  185.1550  178.5280  146.7300 C   0  0  0  0  0  2  0  0  0  0  0  0
  186.1520  179.1200  142.4450 C   0  0  0  0  0  2  0  0  0  0  0  0
  189.1410  175.1660  142.8480 C   0  0  0  0  0  0  0  0  0  0  0  0
  187.2210  175.6770  141.6020 C   0  0  2  0  0  3  0  0  0  0  0  0
  189.7570  175.3090  144.0620 C   0  0  0  0  0  0  0  0  0  0  0  0
  190.5530  173.7760  141.2380 C   0  0  0  0  0  1  0  0  0  0  0  0
  187.7440  176.1620  144.2140 C   0  0  0  0  0  0  0  0  0  0  0  0
  1  6  1  6  0  0  0
  1 21  1  0  0  0  0
  3 17  2  0  0  0  0
  4 22  1  0  0  0  0
  5 24  1  0  0  0  0
  8 14  1  0  0  0  0
  8  2  2  0  0  0  0
  8  7  2  0  0  0  0
  9 18  2  0  0  0  0
  9 14  1  0  0  0  0
 10  8  1  0  0  0  0
 12 28  2  0  0  0  0
 13  9  1  0  0  0  0
 15 11  2  0  0  0  0
 15 23  1  0  0  0  0
 16  1  1  0  0  0  0
 16 20  1  1  0  0  0
 17  5  1  0  0  0  0
 17 25  1  0  0  0  0
 19 15  1  0  0  0  0
 20  4  1  0  0  0  0
 21 22  1  0  0  0  0
 23  6  1  0  0  0  0
 24 12  1  0  0  0  0
 24 26  2  0  0  0  0
 25 19  1  6  0  0  0
 25 12  1  0  0  0  0
 26 13  1  0  0  0  0
 26 10  1  0  0  0  0
 27  5  1  0  0  0  0
 28 16  1  0  0  0  0
 28 10  1  0  0  0  0
M  END
>  <MODEL>
2

>  <REMARK>
 VINA RESULT:      -8.2      2.585      6.539
  Name = 
  0 active torsions:
  status: ('A' for Active; 'I' for Inactive)
                            x       y       z     vdW  Elec       q    Type
                         _______ _______ _______ _____ _____    ______ ____

>  <TORSDO>
F 0

$$$$
=
 OpenBabel11112417413D

 28 32  0  0  1  0  0  0  0  0999 V2000
  188.7640  175.4520  145.6610 C   0  0  2  0  0  3  0  0  0  0  0  0
  187.7350  174.6060  142.9620 O   0  0  0  0  0  0  0  0  0  0  0  0
  195.3180  175.7930  144.9600 O   0  0  0  0  0  0  0  0  0  0  0  0
  187.5880  178.1070  145.1840 C   0  0  0  0  0  2  0  0  0  0  0  0
  193.8370  175.0260  143.2810 N   0  0  0  0  0  0  0  0  0  0  0  0
  189.6780  174.4940  146.4340 C   0  0  0  0  0  2  0  0  0  0  0  0
  188.3260  176.2900  141.2630 O   0  0  0  0  0  0  0  0  0  0  0  0
  188.7810  175.0520  141.9810 S   0  0  0  0  0  0  0  0  0  0  0  0
  190.4750  173.7910  140.2580 C   0  0  0  0  0  0  0  0  0  0  0  0
  190.2840  175.3460  142.7780 N   0  0  0  0  0  0  0  0  0  0  0  0
  191.5200  177.1660  147.6550 O   0  0  0  0  0  0  0  0  0  0  0  0
  191.9080  175.9100  144.1880 C   0  0  0  0  0  0  0  0  0  0  0  0
  191.5990  174.1810  141.0610 N   0  0  0  0  0  2  0  0  0  0  0  0
  189.0770  173.7430  140.8090 C   0  0  0  0  0  2  0  0  0  0  0  0
  191.5070  176.0030  147.2840 C   0  0  0  0  0  0  0  0  0  0  0  0
  189.5440  176.5530  144.9200 C   0  0  2  0  0  3  0  0  0  0  0  0
  194.1430  175.6770  144.5230 C   0  0  0  0  0  0  0  0  0  0  0  0
  190.7550  173.0910  138.8110 S   0  0  0  0  0  0  0  0  0  0  0  0
  192.6670  175.4490  146.5130 C   0  0  0  0  0  2  0  0  0  0  0  0
  188.6110  177.5360  144.2100 C   0  0  0  0  0  2  0  0  0  0  0  0
  187.6870  176.0410  146.5770 C   0  0  0  0  0  2  0  0  0  0  0  0
  186.7710  176.9790  145.8000 C   0  0  0  0  0  2  0  0  0  0  0  0
  190.3520  175.1260  147.6550 C   0  0  0  0  0  2  0  0  0  0  0  0
  192.4550  175.2680  143.1510 C   0  0  0  0  0  0  0  0  0  0  0  0
  192.9220  176.2400  145.2330 C   0  0  2  0  0  3  0  0  0  0  0  0
  191.4600  174.9060  142.2830 C   0  0  0  0  0  0  0  0  0  0  0  0
  194.7650  174.7420  142.2000 C   0  0  0  0  0  1  0  0  0  0  0  0
  190.5450  175.9790  143.9600 C   0  0  0  0  0  0  0  0  0  0  0  0
  1  6  1  1  0  0  0
  1 21  1  0  0  0  0
  4 22  1  0  0  0  0
  5 17  1  0  0  0  0
  6 23  1  0  0  0  0
  7  8  2  0  0  0  0
  8 10  1  0  0  0  0
  8  2  2  0  0  0  0
  9 14  1  0  0  0  0
  9 13  1  0  0  0  0
 10 28  1  0  0  0  0
 12 25  1  0  0  0  0
 13 26  1  0  0  0  0
 14  8  1  0  0  0  0
 15 11  2  0  0  0  0
 15 23  1  0  0  0  0
 16 20  1  6  0  0  0
 16  1  1  0  0  0  0
 17  3  2  0  0  0  0
 17 25  1  0  0  0  0
 18  9  2  0  0  0  0
 19 15  1  0  0  0  0
 20  4  1  0  0  0  0
 22 21  1  0  0  0  0
 24  5  1  0  0  0  0
 24 12  1  0  0  0  0
 25 19  1  1  0  0  0
 26 10  1  0  0  0  0
 26 24  2  0  0  0  0
 27  5  1  0  0  0  0
 28 12  2  0  0  0  0
 28 16  1  0  0  0  0
M  END
>  <MODEL>
3

>  <REMARK>
 VINA RESULT:      -7.8      2.599      5.245
  Name = 
  0 active torsions:
  status: ('A' for Active; 'I' for Inactive)
                            x       y       z     vdW  Elec       q    Type
                         _______ _______ _______ _____ _____    ______ ____

>  <TORSDO>
F 0

$$$$
=
 OpenBabel11112417413D

 28 32  0  0  1  0  0  0  0  0999 V2000
  185.6300  177.3910  145.0950 C   0  0  2  0  0  3  0  0  0  0  0  0
  185.9850  176.2410  142.3360 O   0  0  0  0  0  0  0  0  0  0  0  0
  191.5510  176.8240  147.9570 O   0  0  0  0  0  0  0  0  0  0  0  0
  185.3880  180.0520  143.8630 C   0  0  0  0  0  2  0  0  0  0  0  0
  191.0200  175.9730  145.8130 N   0  0  0  0  0  0  0  0  0  0  0  0
  185.8210  176.4700  146.3070 C   0  0  0  0  0  2  0  0  0  0  0  0
  187.6660  177.5380  141.0870 O   0  0  0  0  0  0  0  0  0  0  0  0
  187.4470  176.3900  142.0300 S   0  0  0  0  0  0  0  0  0  0  0  0
  189.5100  174.6680  141.5730 C   0  0  0  0  0  0  0  0  0  0  0  0
  188.3560  176.6290  143.4780 N   0  0  0  0  0  0  0  0  0  0  0  0
  187.2470  179.0670  148.1090 O   0  0  0  0  0  0  0  0  0  0  0  0
  189.1060  177.2190  145.4860 C   0  0  0  0  0  0  0  0  0  0  0  0
  190.1170  175.0470  142.8170 N   0  0  0  0  0  2  0  0  0  0  0  0
  188.0470  174.8790  141.2990 C   0  0  0  0  0  2  0  0  0  0  0  0
  187.2060  177.8690  147.8790 C   0  0  0  0  0  0  0  0  0  0  0  0
  186.8700  178.2530  144.7990 C   0  0  2  0  0  3  0  0  0  0  0  0
  190.7650  176.7790  146.9740 C   0  0  0  0  0  0  0  0  0  0  0  0
  190.3520  173.7110  140.5540 S   0  0  0  0  0  0  0  0  0  0  0  0
  188.4680  177.0610  147.8870 C   0  0  0  0  0  2  0  0  0  0  0  0
  186.6350  179.2100  143.6290 C   0  0  0  0  0  2  0  0  0  0  0  0
  184.3700  178.2470  145.2500 C   0  0  0  0  0  2  0  0  0  0  0  0
  184.1750  179.1470  144.0360 C   0  0  0  0  0  2  0  0  0  0  0  0
  185.8820  177.2100  147.6460 C   0  0  0  0  0  2  0  0  0  0  0  0
  189.9730  176.3540  144.9510 C   0  0  0  0  0  0  0  0  0  0  0  0
  189.4850  177.5930  146.8800 C   0  0  2  0  0  3  0  0  0  0  0  0
  189.5130  175.9760  143.7190 C   0  0  0  0  0  0  0  0  0  0  0  0
  192.2970  175.4060  145.4160 C   0  0  0  0  0  1  0  0  0  0  0  0
  188.0910  177.4120  144.5650 C   0  0  0  0  0  0  0  0  0  0  0  0
  1 21  1  1  0  0  0
  1  6  1  0  0  0  0
  4 22  1  0  0  0  0
  5 17  1  0  0  0  0
  6 23  1  0  0  0  0
  7  8  2  0  0  0  0
  8  2  2  0  0  0  0
  8 10  1  0  0  0  0
  9 13  1  0  0  0  0
 10 26  1  0  0  0  0
 10 28  1  0  0  0  0
 12 25  1  0  0  0  0
 13 26  1  0  0  0  0
 14  9  1  0  0  0  0
 14  8  1  0  0  0  0
 15 19  1  0  0  0  0
 15 11  2  0  0  0  0
 16 20  1  6  0  0  0
 16  1  1  0  0  0  0
 17  3  2  0  0  0  0
 18  9  2  0  0  0  0
 20  4  1  0  0  0  0
 22 21  1  0  0  0  0
 23 15  1  0  0  0  0
 24 12  1  0  0  0  0
 24  5  1  0  0  0  0
 25 17  1  0  0  0  0
 25 19  1  1  0  0  0
 26 24  2  0  0  0  0
 27  5  1  0  0  0  0
 28 16  1  0  0  0  0
 28 12  2  0  0  0  0
M  END
>  <MODEL>
4

>  <REMARK>
 VINA RESULT:      -7.8      2.020      5.141
  Name = 
  0 active torsions:
  status: ('A' for Active; 'I' for Inactive)
                            x       y       z     vdW  Elec       q    Type
                         _______ _______ _______ _____ _____    ______ ____

>  <TORSDO>
F 0

$$$$
=
 OpenBabel11112417413D

 28 32  0  0  1  0  0  0  0  0999 V2000
  189.6280  176.8470  144.5040 C   0  0  2  0  0  3  0  0  0  0  0  0
  192.4960  176.1210  145.0590 O   0  0  0  0  0  0  0  0  0  0  0  0
  188.0940  173.6270  138.9500 O   0  0  0  0  0  0  0  0  0  0  0  0
  188.8540  175.2160  146.8280 C   0  0  0  0  0  2  0  0  0  0  0  0
  190.2560  173.6660  139.9140 N   0  0  0  0  0  0  0  0  0  0  0  0
  189.2990  177.6230  143.2230 C   0  0  0  0  0  2  0  0  0  0  0  0
  192.7060  173.6890  145.3940 O   0  0  0  0  0  0  0  0  0  0  0  0
  192.7080  174.7980  144.3810 S   0  0  0  0  0  0  0  0  0  0  0  0
  194.2650  173.9060  142.3290 C   0  0  0  0  0  0  0  0  0  0  0  0
  191.4910  174.5160  143.1900 N   0  0  0  0  0  0  0  0  0  0  0  0
  186.3260  175.8740  142.8750 O   0  0  0  0  0  0  0  0  0  0  0  0
  189.6120  174.3900  142.0080 C   0  0  0  0  0  0  0  0  0  0  0  0
  193.0990  173.7100  141.5150 N   0  0  0  0  0  2  0  0  0  0  0  0
  194.2660  174.8280  143.5170 C   0  0  0  0  0  2  0  0  0  0  0  0
  187.2680  176.4290  142.3330 C   0  0  0  0  0  0  0  0  0  0  0  0
  189.3640  175.3360  144.3710 C   0  0  2  0  0  3  0  0  0  0  0  0
  188.8370  173.8890  139.9320 C   0  0  0  0  0  0  0  0  0  0  0  0
  195.7000  173.3590  141.7800 S   0  0  0  0  0  0  0  0  0  0  0  0
  187.8430  175.8660  141.0670 C   0  0  0  0  0  2  0  0  0  0  0  0
  189.6350  174.5910  145.6790 C   0  0  0  0  0  2  0  0  0  0  0  0
  188.8970  177.4450  145.7100 C   0  0  0  0  0  2  0  0  0  0  0  0
  189.2410  176.6810  146.9830 C   0  0  0  0  0  2  0  0  0  0  0  0
  187.8020  177.7020  142.9100 C   0  0  0  0  0  2  0  0  0  0  0  0
  190.6200  173.9580  141.2430 C   0  0  0  0  0  0  0  0  0  0  0  0
  188.3230  174.4300  141.2570 C   0  0  2  0  0  3  0  0  0  0  0  0
  191.7830  174.0440  141.9590 C   0  0  0  0  0  0  0  0  0  0  0  0
  190.9870  172.8170  138.9900 C   0  0  0  0  0  1  0  0  0  0  0  0
  190.1430  174.7310  143.2400 C   0  0  0  0  0  0  0  0  0  0  0  0
  1  6  1  6  0  0  0
  1 21  1  0  0  0  0
  3 17  2  0  0  0  0
  4 22  1  0  0  0  0
  5 17  1  0  0  0  0
  5 24  1  0  0  0  0
  8  2  2  0  0  0  0
  8  7  2  0  0  0  0
  9 14  1  0  0  0  0
 10 28  1  0  0  0  0
 10  8  1  0  0  0  0
 12 28  2  0  0  0  0
 13 26  1  0  0  0  0
 13  9  1  0  0  0  0
 14  8  1  0  0  0  0
 15 11  2  0  0  0  0
 15 23  1  0  0  0  0
 16  1  1  0  0  0  0
 16 20  1  1  0  0  0
 17 25  1  0  0  0  0
 18  9  2  0  0  0  0
 19 15  1  0  0  0  0
 20  4  1  0  0  0  0
 21 22  1  0  0  0  0
 23  6  1  0  0  0  0
 24 26  2  0  0  0  0
 24 12  1  0  0  0  0
 25 19  1  6  0  0  0
 25 12  1  0  0  0  0
 26 10  1  0  0  0  0
 27  5  1  0  0  0  0
 28 16  1  0  0  0  0
M  END
>  <MODEL>
5

>  <REMARK>
 VINA RESULT:      -7.8      3.464      6.449
  Name = 
  0 active torsions:
  status: ('A' for Active; 'I' for Inactive)
                            x       y       z     vdW  Elec       q    Type
                         _______ _______ _______ _____ _____    ______ ____

>  <TORSDO>
F 0

$$$$
=
 OpenBabel11112417413D

 28 32  0  0  1  0  0  0  0  0999 V2000
  188.4960  177.5430  145.1180 C   0  0  2  0  0  3  0  0  0  0  0  0
  190.9500  177.4930  146.8600 O   0  0  0  0  0  0  0  0  0  0  0  0
  189.5210  172.8560  140.5840 O   0  0  0  0  0  0  0  0  0  0  0  0
  186.9770  176.4120  147.3700 C   0  0  0  0  0  2  0  0  0  0  0  0
  191.1130  173.5090  142.2100 N   0  0  0  0  0  0  0  0  0  0  0  0
  188.6500  177.9160  143.6380 C   0  0  0  0  0  2  0  0  0  0  0  0
  191.1760  175.2910  147.9420 O   0  0  0  0  0  0  0  0  0  0  0  0
  191.5040  176.1040  146.7230 S   0  0  0  0  0  0  0  0  0  0  0  0
  193.8060  175.0320  145.7300 C   0  0  0  0  0  0  0  0  0  0  0  0
  190.8830  175.3320  145.3090 N   0  0  0  0  0  0  0  0  0  0  0  0
  186.1880  175.6360  142.7630 O   0  0  0  0  0  0  0  0  0  0  0  0
  189.6420  174.5930  143.6190 C   0  0  0  0  0  0  0  0  0  0  0  0
  193.0760  174.4420  144.6440 N   0  0  0  0  0  2  0  0  0  0  0  0
  193.2710  176.2000  146.5130 C   0  0  0  0  0  2  0  0  0  0  0  0
  187.2270  176.2010  142.4620 C   0  0  0  0  0  0  0  0  0  0  0  0
  188.4110  176.0230  145.3460 C   0  0  2  0  0  3  0  0  0  0  0  0
  189.7930  173.4750  141.6470 C   0  0  0  0  0  0  0  0  0  0  0  0
  195.3760  174.6320  145.9240 S   0  0  0  0  0  0  0  0  0  0  0  0
  188.2950  175.4600  141.7150 C   0  0  0  0  0  2  0  0  0  0  0  0
  188.1910  175.6770  146.8190 C   0  0  0  0  0  2  0  0  0  0  0  0
  187.3070  178.2760  145.7460 C   0  0  0  0  0  2  0  0  0  0  0  0
  187.1680  177.9160  147.2200 C   0  0  0  0  0  2  0  0  0  0  0  0
  187.3990  177.6510  142.7960 C   0  0  0  0  0  2  0  0  0  0  0  0
  190.8980  174.1740  143.4330 C   0  0  0  0  0  0  0  0  0  0  0  0
  188.7580  174.2210  142.4750 C   0  0  2  0  0  3  0  0  0  0  0  0
  191.6720  174.6350  144.4630 C   0  0  0  0  0  0  0  0  0  0  0  0
  192.2080  172.6050  141.9050 C   0  0  0  0  0  1  0  0  0  0  0  0
  189.6150  175.3100  144.8020 C   0  0  0  0  0  0  0  0  0  0  0  0
  1  6  1  6  0  0  0
  1 16  1  0  0  0  0
  1 21  1  0  0  0  0
  3 17  2  0  0  0  0
  5 24  1  0  0  0  0
  8  2  2  0  0  0  0
  8  7  2  0  0  0  0
  9 18  2  0  0  0  0
  9 14  1  0  0  0  0
 10  8  1  0  0  0  0
 12 28  2  0  0  0  0
 13  9  1  0  0  0  0
 14  8  1  0  0  0  0
 15 11  2  0  0  0  0
 15 23  1  0  0  0  0
 16 20  1  1  0  0  0
 17  5  1  0  0  0  0
 17 25  1  0  0  0  0
 19 15  1  0  0  0  0
 20  4  1  0  0  0  0
 21 22  1  0  0  0  0
 22  4  1  0  0  0  0
 23  6  1  0  0  0  0
 24 12  1  0  0  0  0
 24 26  2  0  0  0  0
 25 19  1  6  0  0  0
 25 12  1  0  0  0  0
 26 13  1  0  0  0  0
 26 10  1  0  0  0  0
 27  5  1  0  0  0  0
 28 10  1  0  0  0  0
 28 16  1  0  0  0  0
M  END
>  <MODEL>
6

>  <REMARK>
 VINA RESULT:      -7.6      3.062      6.597
  Name = 
  0 active torsions:
  status: ('A' for Active; 'I' for Inactive)
                            x       y       z     vdW  Elec       q    Type
                         _______ _______ _______ _____ _____    ______ ____

>  <TORSDO>
F 0

$$$$
=
 OpenBabel11112417413D

 28 32  0  0  1  0  0  0  0  0999 V2000
  189.9760  173.5400  144.1400 C   0  0  2  0  0  3  0  0  0  0  0  0
  189.0770  174.7810  146.7300 O   0  0  0  0  0  0  0  0  0  0  0  0
  186.7170  176.8370  139.4420 O   0  0  0  0  0  0  0  0  0  0  0  0
  192.6120  174.7790  144.5580 C   0  0  0  0  0  2  0  0  0  0  0  0
  186.3900  177.1560  141.7650 N   0  0  0  0  0  0  0  0  0  0  0  0
  188.9390  172.8230  143.2670 C   0  0  0  0  0  2  0  0  0  0  0  0
  189.6850  177.1690  146.7830 O   0  0  0  0  0  0  0  0  0  0  0  0
  188.6390  176.1730  146.3720 S   0  0  0  0  0  0  0  0  0  0  0  0
  186.2760  177.5300  146.4350 C   0  0  0  0  0  0  0  0  0  0  0  0
  188.3280  176.3010  144.6790 N   0  0  0  0  0  0  0  0  0  0  0  0
  190.5100  173.9580  140.3920 O   0  0  0  0  0  0  0  0  0  0  0  0
  188.3430  176.1430  142.4610 C   0  0  0  0  0  0  0  0  0  0  0  0
  186.2390  177.5530  145.0000 N   0  0  0  0  0  2  0  0  0  0  0  0
  187.1010  176.5300  147.1970 C   0  0  0  0  0  2  0  0  0  0  0  0
  189.4670  173.6530  140.9480 C   0  0  0  0  0  0  0  0  0  0  0  0
  190.2740  174.9710  143.6600 C   0  0  2  0  0  3  0  0  0  0  0  0
  187.1030  176.6500  140.6260 C   0  0  0  0  0  0  0  0  0  0  0  0
  185.1690  178.4000  147.2590 S   0  0  0  0  0  0  0  0  0  0  0  0
  188.2130  174.4240  140.6660 C   0  0  0  0  0  2  0  0  0  0  0  0
  191.3590  175.6440  144.5030 C   0  0  0  0  0  2  0  0  0  0  0  0
  191.2550  172.7070  144.2650 C   0  0  0  0  0  2  0  0  0  0  0  0
  192.2770  173.4150  145.1470 C   0  0  0  0  0  2  0  0  0  0  0  0
  189.4420  172.4700  141.8650 C   0  0  0  0  0  2  0  0  0  0  0  0
  187.2570  176.8330  142.8270 C   0  0  0  0  0  0  0  0  0  0  0  0
  188.3790  175.9070  140.9880 C   0  0  2  0  0  3  0  0  0  0  0  0
  187.2340  176.9240  144.1920 C   0  0  0  0  0  0  0  0  0  0  0  0
  185.3910  178.2100  141.7620 C   0  0  0  0  0  1  0  0  0  0  0  0
  189.0330  175.8150  143.6140 C   0  0  0  0  0  0  0  0  0  0  0  0
  1  6  1  6  0  0  0
  1 21  1  0  0  0  0
  3 17  2  0  0  0  0
  4 22  1  0  0  0  0
  5 24  1  0  0  0  0
  8  2  2  0  0  0  0
  8  7  2  0  0  0  0
  8 14  1  0  0  0  0
  9 14  1  0  0  0  0
  9 18  2  0  0  0  0
 10  8  1  0  0  0  0
 11 15  2  0  0  0  0
 12 24  1  0  0  0  0
 12 28  2  0  0  0  0
 13  9  1  0  0  0  0
 15 23  1  0  0  0  0
 16  1  1  0  0  0  0
 16 20  1  1  0  0  0
 17 25  1  0  0  0  0
 17  5  1  0  0  0  0
 19 15  1  0  0  0  0
 20  4  1  0  0  0  0
 21 22  1  0  0  0  0
 23  6  1  0  0  0  0
 24 26  2  0  0  0  0
 25 19  1  1  0  0  0
 25 12  1  0  0  0  0
 26 10  1  0  0  0  0
 26 13  1  0  0  0  0
 27  5  1  0  0  0  0
 28 16  1  0  0  0  0
 28 10  1  0  0  0  0
M  END
>  <MODEL>
7

>  <REMARK>
 VINA RESULT:      -7.6      2.256      4.943
  Name = 
  0 active torsions:
  status: ('A' for Active; 'I' for Inactive)
                            x       y       z     vdW  Elec       q    Type
                         _______ _______ _______ _____ _____    ______ ____

>  <TORSDO>
F 0

$$$$
=
 OpenBabel11112417413D

 28 32  0  0  1  0  0  0  0  0999 V2000
  189.3150  176.9690  144.5640 C   0  0  2  0  0  3  0  0  0  0  0  0
  191.7390  177.0860  146.3440 O   0  0  0  0  0  0  0  0  0  0  0  0
  190.4110  171.8710  140.5170 O   0  0  0  0  0  0  0  0  0  0  0  0
  187.7560  176.0580  146.8870 C   0  0  0  0  0  2  0  0  0  0  0  0
  191.9770  172.6760  142.1000 N   0  0  0  0  0  0  0  0  0  0  0  0
  189.4950  177.1990  143.0580 C   0  0  0  0  0  2  0  0  0  0  0  0
  191.9440  174.9970  147.6360 O   0  0  0  0  0  0  0  0  0  0  0  0
  192.2940  175.6900  146.3500 S   0  0  0  0  0  0  0  0  0  0  0  0
  194.6100  174.5290  145.5050 C   0  0  0  0  0  0  0  0  0  0  0  0
  191.6960  174.7860  145.0070 N   0  0  0  0  0  0  0  0  0  0  0  0
  187.0460  174.8450  142.3620 O   0  0  0  0  0  0  0  0  0  0  0  0
  190.4830  173.8900  143.3740 C   0  0  0  0  0  0  0  0  0  0  0  0
  193.8980  173.8380  144.4680 N   0  0  0  0  0  2  0  0  0  0  0  0
  194.0640  175.7660  146.1630 C   0  0  0  0  0  2  0  0  0  0  0  0
  188.0910  175.3800  142.0270 C   0  0  0  0  0  0  0  0  0  0  0  0
  189.2250  175.4780  144.9340 C   0  0  2  0  0  3  0  0  0  0  0  0
  190.6660  172.5880  141.5200 C   0  0  0  0  0  0  0  0  0  0  0  0
  196.1760  174.1490  145.7630 S   0  0  0  0  0  0  0  0  0  0  0  0
  189.1700  174.5710  141.3720 C   0  0  0  0  0  2  0  0  0  0  0  0
  188.9790  175.2740  146.4290 C   0  0  0  0  0  2  0  0  0  0  0  0
  188.1170  177.7580  145.0990 C   0  0  0  0  0  2  0  0  0  0  0  0
  187.9520  177.5410  146.5980 C   0  0  0  0  0  2  0  0  0  0  0  0
  188.2590  176.8540  142.2240 C   0  0  0  0  0  2  0  0  0  0  0  0
  191.7410  173.4550  143.2500 C   0  0  0  0  0  0  0  0  0  0  0  0
  189.6180  173.4100  142.2560 C   0  0  2  0  0  3  0  0  0  0  0  0
  192.4980  174.0120  144.2450 C   0  0  0  0  0  0  0  0  0  0  0  0
  193.0750  171.7470  141.9020 C   0  0  0  0  0  1  0  0  0  0  0  0
  190.4370  174.7160  144.4820 C   0  0  0  0  0  0  0  0  0  0  0  0
  1  6  1  6  0  0  0
  1 16  1  0  0  0  0
  1 21  1  0  0  0  0
  2  8  2  0  0  0  0
  3 17  2  0  0  0  0
  5 24  1  0  0  0  0
  8  7  2  0  0  0  0
  9 18  2  0  0  0  0
  9 14  1  0  0  0  0
 10  8  1  0  0  0  0
 12 28  2  0  0  0  0
 13  9  1  0  0  0  0
 14  8  1  0  0  0  0
 15 23  1  0  0  0  0
 15 11  2  0  0  0  0
 16 20  1  1  0  0  0
 17  5  1  0  0  0  0
 17 25  1  0  0  0  0
 19 15  1  0  0  0  0
 20  4  1  0  0  0  0
 21 22  1  0  0  0  0
 22  4  1  0  0  0  0
 23  6  1  0  0  0  0
 24 12  1  0  0  0  0
 24 26  2  0  0  0  0
 25 19  1  6  0  0  0
 25 12  1  0  0  0  0
 26 13  1  0  0  0  0
 26 10  1  0  0  0  0
 27  5  1  0  0  0  0
 28 16  1  0  0  0  0
 28 10  1  0  0  0  0
M  END
>  <MODEL>
8

>  <REMARK>
 VINA RESULT:      -7.5      3.342      6.908
  Name = 
  0 active torsions:
  status: ('A' for Active; 'I' for Inactive)
                            x       y       z     vdW  Elec       q    Type
                         _______ _______ _______ _____ _____    ______ ____

>  <TORSDO>
F 0

$$$$
=
 OpenBabel11112417413D

 28 32  0  0  1  0  0  0  0  0999 V2000
  190.9560  176.0000  145.1180 C   0  0  2  0  0  3  0  0  0  0  0  0
  192.4590  173.4260  144.6990 O   0  0  0  0  0  0  0  0  0  0  0  0
  186.9480  176.5080  139.8980 O   0  0  0  0  0  0  0  0  0  0  0  0
  189.5190  174.7020  147.3340 C   0  0  0  0  0  2  0  0  0  0  0  0
  188.5660  174.8010  140.1750 N   0  0  0  0  0  0  0  0  0  0  0  0
  191.1430  177.1360  144.1040 C   0  0  0  0  0  2  0  0  0  0  0  0
  190.8900  171.5280  144.6380 O   0  0  0  0  0  0  0  0  0  0  0  0
  191.5730  172.5880  143.8230 S   0  0  0  0  0  0  0  0  0  0  0  0
  191.7600  171.5630  141.3040 C   0  0  0  0  0  0  0  0  0  0  0  0
  190.4010  173.5670  143.0190 N   0  0  0  0  0  0  0  0  0  0  0  0
  187.8080  178.0310  144.4280 O   0  0  0  0  0  0  0  0  0  0  0  0
  188.8890  175.0910  142.4410 C   0  0  0  0  0  0  0  0  0  0  0  0
  190.7270  172.4530  140.8540 N   0  0  0  0  0  2  0  0  0  0  0  0
  192.5620  171.8320  142.5470 C   0  0  0  0  0  2  0  0  0  0  0  0
  188.7900  177.9450  143.7080 C   0  0  0  0  0  0  0  0  0  0  0  0
  189.6720  175.1860  144.8740 C   0  0  2  0  0  3  0  0  0  0  0  0
  187.7580  175.8930  140.6410 C   0  0  0  0  0  0  0  0  0  0  0  0
  192.2850  170.3990  140.2880 S   0  0  0  0  0  0  0  0  0  0  0  0
  188.6330  177.5610  142.2670 C   0  0  0  0  0  2  0  0  0  0  0  0
  189.4720  174.1030  145.9340 C   0  0  0  0  0  2  0  0  0  0  0  0
  191.0260  176.5300  146.5530 C   0  0  0  0  0  2  0  0  0  0  0  0
  190.8570  175.3950  147.5560 C   0  0  0  0  0  2  0  0  0  0  0  0
  190.1400  178.2810  144.2620 C   0  0  0  0  0  2  0  0  0  0  0  0
  189.1790  174.3570  141.3630 C   0  0  0  0  0  0  0  0  0  0  0  0
  187.9490  176.2050  142.1170 C   0  0  2  0  0  3  0  0  0  0  0  0
  190.1190  173.4230  141.7070 C   0  0  0  0  0  0  0  0  0  0  0  0
  188.3480  174.0150  138.9740 C   0  0  0  0  0  1  0  0  0  0  0  0
  189.6390  174.5970  143.4940 C   0  0  0  0  0  0  0  0  0  0  0  0
  1  6  1  6  0  0  0
  1 21  1  0  0  0  0
  3 17  2  0  0  0  0
  4 22  1  0  0  0  0
  5 17  1  0  0  0  0
  5 24  1  0  0  0  0
  6 23  1  0  0  0  0
  8  7  2  0  0  0  0
  8  2  2  0  0  0  0
  9 14  1  0  0  0  0
 10 28  1  0  0  0  0
 10  8  1  0  0  0  0
 12 28  2  0  0  0  0
 13  9  1  0  0  0  0
 13 26  1  0  0  0  0
 14  8  1  0  0  0  0
 15 23  1  0  0  0  0
 15 11  2  0  0  0  0
 16  1  1  0  0  0  0
 16 20  1  1  0  0  0
 17 25  1  0  0  0  0
 18  9  2  0  0  0  0
 19 15  1  0  0  0  0
 20  4  1  0  0  0  0
 21 22  1  0  0  0  0
 24 26  2  0  0  0  0
 24 12  1  0  0  0  0
 25 19  1  6  0  0  0
 25 12  1  0  0  0  0
 26 10  1  0  0  0  0
 27  5  1  0  0  0  0
 28 16  1  0  0  0  0
M  END
>  <MODEL>
9

>  <REMARK>
 VINA RESULT:      -7.5      3.322      5.402
  Name = 
  0 active torsions:
  status: ('A' for Active; 'I' for Inactive)
                            x       y       z     vdW  Elec       q    Type
                         _______ _______ _______ _____ _____    ______ ____

>  <TORSDO>
F 0

$$$$
