=
 OpenBabel11112417433D

 28 32  0  0  1  0  0  0  0  0999 V2000
  186.7770  178.5290  144.6410 C   0  0  2  0  0  3  0  0  0  0  0  0
  189.1880  177.4500  147.3930 O   0  0  0  0  0  0  0  0  0  0  0  0
  187.7110  173.7890  141.4570 C   0  0  0  0  0  1  0  0  0  0  0  0
  185.3110  176.5540  146.2440 C   0  0  0  0  0  2  0  0  0  0  0  0
  189.9200  174.5950  142.2190 C   0  0  2  0  0  3  0  0  0  0  0  0
  187.1450  179.1570  143.3600 N   0  0  0  0  0  2  0  0  0  0  0  0
  189.6660  175.0740  147.7510 O   0  0  0  0  0  0  0  0  0  0  0  0
  189.9740  176.2690  146.8950 S   0  0  0  0  0  0  0  0  0  0  0  0
  192.4800  175.9230  145.9660 C   0  0  2  0  0  3  0  0  0  0  0  0
  189.5440  175.8840  145.1810 C   0  0  2  0  0  3  0  0  0  0  0  0
  185.1700  177.3450  140.8140 O   0  0  0  0  0  1  0  0  0  0  0  0
  189.1130  176.7470  142.9840 C   0  0  1  0  0  3  0  0  0  0  0  0
  191.8930  176.2850  144.6170 C   0  0  0  0  0  2  0  0  0  0  0  0
  191.7030  176.6520  147.0400 C   0  0  0  0  0  2  0  0  0  0  0  0
  186.1160  177.4750  141.8290 C   0  0  1  0  0  3  0  0  0  0  0  0
  187.2540  177.0650  144.7180 C   0  0  2  0  0  3  0  0  0  0  0  0
  188.6450  174.9830  141.5120 C   0  0  2  0  0  3  0  0  0  0  0  0
  193.9270  176.3620  146.0190 C   0  0  0  0  0  1  0  0  0  0  0  0
  187.4680  177.0040  141.3220 C   0  0  0  0  0  2  0  0  0  0  0  0
  186.8110  176.4070  146.0320 C   0  0  0  0  0  2  0  0  0  0  0  0
  185.2870  178.6980  144.9800 C   0  0  0  0  0  2  0  0  0  0  0  0
  184.9490  178.0310  146.3050 C   0  0  0  0  0  2  0  0  0  0  0  0
  186.1640  178.9290  142.2910 C   0  0  0  0  0  2  0  0  0  0  0  0
  190.3290  175.8330  142.9750 C   0  0  1  0  0  3  0  0  0  0  0  0
  188.0300  176.0600  142.2750 N   0  0  2  0  0  0  0  0  0  0  0  0
  190.6950  175.4890  144.3460 N   0  0  2  0  0  0  0  0  0  0  0  0
  190.9000  174.2660  141.2840 O   0  0  0  0  0  1  0  0  0  0  0  0
  188.7820  176.9840  144.4570 C   0  0  1  0  0  3  0  0  0  0  0  0
  1 16  1  0  0  0  0
  1 21  1  6  0  0  0
  3 17  1  0  0  0  0
  4 22  1  0  0  0  0
  5 27  1  6  0  0  0
  5 24  1  0  0  0  0
  6  1  1  0  0  0  0
  8 14  1  0  0  0  0
  8  2  2  0  0  0  0
  8  7  2  0  0  0  0
  9 18  1  6  0  0  0
  9 14  1  0  0  0  0
 10  8  1  1  0  0  0
 11 15  1  0  0  0  0
 12 28  1  0  0  0  0
 13  9  1  0  0  0  0
 15 23  1  0  0  0  0
 16 20  1  0  0  0  0
 17  5  1  0  0  0  0
 17 25  1  0  0  0  0
 19 15  1  0  0  0  0
 19 25  1  0  0  0  0
 20  4  1  0  0  0  0
 21 22  1  0  0  0  0
 23  6  1  0  0  0  0
 24 12  1  0  0  0  0
 24 26  1  0  0  0  0
 25 12  1  0  0  0  0
 26 13  1  0  0  0  0
 26 10  1  0  0  0  0
 28 16  1  0  0  0  0
 28 10  1  0  0  0  0
M  END
>  <MODEL>
1

>  <REMARK>
 VINA RESULT:      -8.2      0.000      0.000
  Name = 
  0 active torsions:
  status: ('A' for Active; 'I' for Inactive)
                            x       y       z     vdW  Elec       q    Type
                         _______ _______ _______ _____ _____    ______ ____

>  <TORSDO>
F 0

$$$$
=
 OpenBabel11112417433D

 28 32  0  0  1  0  0  0  0  0999 V2000
  193.1450  174.8730  142.4710 C   0  0  2  0  0  3  0  0  0  0  0  0
  189.6460  174.6490  140.9680 O   0  0  0  0  0  0  0  0  0  0  0  0
  191.1850  175.3070  147.8970 C   0  0  0  0  0  1  0  0  0  0  0  0
  192.2740  172.1040  142.9100 C   0  0  0  0  0  2  0  0  0  0  0  0
  189.8120  176.8220  146.5090 C   0  0  2  0  0  3  0  0  0  0  0  0
  193.8350  176.1060  142.8880 N   0  0  0  0  0  2  0  0  0  0  0  0
  187.7800  173.8000  142.3100 O   0  0  0  0  0  0  0  0  0  0  0  0
  188.6500  174.9940  142.0390 S   0  0  0  0  0  0  0  0  0  0  0  0
  187.1640  177.1700  142.6070 C   0  0  2  0  0  3  0  0  0  0  0  0
  189.4870  175.4640  143.5720 C   0  0  2  0  0  3  0  0  0  0  0  0
  195.2650  175.3180  146.2040 O   0  0  0  0  0  1  0  0  0  0  0  0
  191.2670  176.7220  144.5750 C   0  0  1  0  0  3  0  0  0  0  0  0
  188.3790  177.6390  143.3830 C   0  0  0  0  0  2  0  0  0  0  0  0
  187.6330  176.3250  141.4440 C   0  0  0  0  0  2  0  0  0  0  0  0
  194.2430  175.4980  145.2740 C   0  0  1  0  0  3  0  0  0  0  0  0
  191.9360  174.5600  143.3750 C   0  0  2  0  0  3  0  0  0  0  0  0
  191.2200  176.4530  146.9040 C   0  0  2  0  0  3  0  0  0  0  0  0
  186.4130  178.3710  142.0740 C   0  0  0  0  0  1  0  0  0  0  0  0
  193.2790  176.5550  145.7830 C   0  0  0  0  0  2  0  0  0  0  0  0
  191.2650  173.2420  142.9660 C   0  0  0  0  0  2  0  0  0  0  0  0
  194.1030  173.6810  142.3090 C   0  0  0  0  0  2  0  0  0  0  0  0
  193.3500  172.4280  141.8850 C   0  0  0  0  0  2  0  0  0  0  0  0
  194.8490  175.8890  143.9290 C   0  0  0  0  0  2  0  0  0  0  0  0
  189.9140  177.2220  145.0600 C   0  0  1  0  0  3  0  0  0  0  0  0
  191.9210  176.0410  145.6960 N   0  0  2  0  0  0  0  0  0  0  0  0
  188.8510  176.5890  144.2850 N   0  0  2  0  0  0  0  0  0  0  0  0
  189.3750  177.9070  147.2690 O   0  0  0  0  0  1  0  0  0  0  0  0
  190.9690  175.7740  143.4150 C   0  0  1  0  0  3  0  0  0  0  0  0
  1 21  1  1  0  0  0
  1  6  1  0  0  0  0
  1 16  1  0  0  0  0
  2  8  2  0  0  0  0
  4 20  1  0  0  0  0
  5 17  1  0  0  0  0
  5 27  1  1  0  0  0
  6 23  1  0  0  0  0
  8  7  2  0  0  0  0
  9 18  1  6  0  0  0
  9 13  1  0  0  0  0
 10  8  1  6  0  0  0
 10 26  1  0  0  0  0
 12 24  1  0  0  0  0
 12 25  1  0  0  0  0
 13 26  1  0  0  0  0
 14  8  1  0  0  0  0
 14  9  1  0  0  0  0
 15 19  1  0  0  0  0
 15 11  1  0  0  0  0
 16 28  1  0  0  0  0
 17  3  1  0  0  0  0
 20 16  1  0  0  0  0
 22 21  1  0  0  0  0
 22  4  1  0  0  0  0
 23 15  1  0  0  0  0
 24  5  1  0  0  0  0
 25 19  1  0  0  0  0
 25 17  1  0  0  0  0
 26 24  1  0  0  0  0
 28 10  1  0  0  0  0
 28 12  1  0  0  0  0
M  END
>  <MODEL>
2

>  <REMARK>
 VINA RESULT:      -7.4      2.524      6.987
  Name = 
  0 active torsions:
  status: ('A' for Active; 'I' for Inactive)
                            x       y       z     vdW  Elec       q    Type
                         _______ _______ _______ _____ _____    ______ ____

>  <TORSDO>
F 0

$$$$
=
 OpenBabel11112417433D

 28 32  0  0  1  0  0  0  0  0999 V2000
  189.2250  177.1420  145.4510 C   0  0  2  0  0  3  0  0  0  0  0  0
  192.7350  176.4060  146.7540 O   0  0  0  0  0  0  0  0  0  0  0  0
  189.4100  172.9190  141.5000 C   0  0  0  0  0  1  0  0  0  0  0  0
  188.9410  174.8050  147.2050 C   0  0  0  0  0  2  0  0  0  0  0  0
  191.5700  174.1140  141.3830 C   0  0  2  0  0  3  0  0  0  0  0  0
  188.8910  177.9160  144.2430 N   0  0  0  0  0  2  0  0  0  0  0  0
  193.6910  174.1630  146.5210 O   0  0  0  0  0  0  0  0  0  0  0  0
  193.3990  175.4500  145.8030 S   0  0  0  0  0  0  0  0  0  0  0  0
  195.2660  175.6930  143.8750 C   0  0  2  0  0  3  0  0  0  0  0  0
  192.3290  175.0980  144.3890 C   0  0  2  0  0  3  0  0  0  0  0  0
  186.3160  175.9060  142.5120 O   0  0  0  0  0  1  0  0  0  0  0  0
  190.8500  175.9960  142.7260 C   0  0  1  0  0  3  0  0  0  0  0  0
  194.0980  176.0130  142.9630 C   0  0  0  0  0  2  0  0  0  0  0  0
  194.9330  176.1720  145.2700 C   0  0  0  0  0  2  0  0  0  0  0  0
  187.5770  176.1620  143.0480 C   0  0  1  0  0  3  0  0  0  0  0  0
  189.9130  175.8060  145.1030 C   0  0  2  0  0  3  0  0  0  0  0  0
  190.0720  174.2750  141.3370 C   0  0  2  0  0  3  0  0  0  0  0  0
  196.5000  176.4180  143.3840 C   0  0  0  0  0  1  0  0  0  0  0  0
  188.6260  176.0160  141.9600 C   0  0  0  0  0  2  0  0  0  0  0  0
  190.2000  174.9860  146.3680 C   0  0  0  0  0  2  0  0  0  0  0  0
  188.0280  176.9760  146.4010 C   0  0  0  0  0  2  0  0  0  0  0  0
  188.4140  176.1670  147.6300 C   0  0  0  0  0  2  0  0  0  0  0  0
  187.5910  177.5600  143.6590 C   0  0  0  0  0  2  0  0  0  0  0  0
  192.0670  175.3570  142.0750 C   0  0  1  0  0  3  0  0  0  0  0  0
  189.6910  175.1480  142.4390 N   0  0  2  0  0  0  0  0  0  0  0  0
  193.0450  175.0060  143.1010 N   0  0  2  0  0  0  0  0  0  0  0  0
  192.0810  174.0580  140.0870 O   0  0  0  0  0  1  0  0  0  0  0  0
  191.1640  176.0620  144.2200 C   0  0  1  0  0  3  0  0  0  0  0  0
  1 21  1  6  0  0  0
  4 22  1  0  0  0  0
  5 27  1  6  0  0  0
  5 24  1  0  0  0  0
  6  1  1  0  0  0  0
  8  7  2  0  0  0  0
  8  2  2  0  0  0  0
  9 18  1  6  0  0  0
  9 14  1  0  0  0  0
 10  8  1  1  0  0  0
 11 15  1  0  0  0  0
 12 28  1  0  0  0  0
 13 26  1  0  0  0  0
 13  9  1  0  0  0  0
 14  8  1  0  0  0  0
 15 23  1  0  0  0  0
 16  1  1  0  0  0  0
 16 20  1  0  0  0  0
 17  5  1  0  0  0  0
 17  3  1  0  0  0  0
 17 25  1  0  0  0  0
 19 25  1  0  0  0  0
 19 15  1  0  0  0  0
 20  4  1  0  0  0  0
 21 22  1  0  0  0  0
 23  6  1  0  0  0  0
 24 12  1  0  0  0  0
 24 26  1  0  0  0  0
 25 12  1  0  0  0  0
 26 10  1  0  0  0  0
 28 10  1  0  0  0  0
 28 16  1  0  0  0  0
M  END
>  <MODEL>
3

>  <REMARK>
 VINA RESULT:      -7.3      2.209      2.951
  Name = 
  0 active torsions:
  status: ('A' for Active; 'I' for Inactive)
                            x       y       z     vdW  Elec       q    Type
                         _______ _______ _______ _____ _____    ______ ____

>  <TORSDO>
F 0

$$$$
=
 OpenBabel11112417433D

 28 32  0  0  1  0  0  0  0  0999 V2000
  187.8970  176.2450  144.4250 C   0  0  2  0  0  3  0  0  0  0  0  0
  188.4040  174.0960  141.3140 O   0  0  0  0  0  0  0  0  0  0  0  0
  193.5260  176.2910  145.7590 C   0  0  0  0  0  1  0  0  0  0  0  0
  188.8860  178.0760  142.3540 C   0  0  0  0  0  2  0  0  0  0  0  0
  192.9430  173.9640  145.1660 C   0  0  2  0  0  3  0  0  0  0  0  0
  187.8280  175.7610  145.8140 N   0  0  0  0  0  2  0  0  0  0  0  0
  190.5580  174.1050  140.1470 O   0  0  0  0  0  0  0  0  0  0  0  0
  189.8100  173.5650  141.3320 S   0  0  0  0  0  0  0  0  0  0  0  0
  190.9230  171.1820  141.9190 C   0  0  2  0  0  3  0  0  0  0  0  0
  190.6700  174.0670  142.8420 C   0  0  2  0  0  3  0  0  0  0  0  0
  189.9920  178.0650  147.7290 O   0  0  0  0  0  1  0  0  0  0  0  0
  190.5480  174.3190  145.2240 C   0  0  1  0  0  3  0  0  0  0  0  0
  190.9410  171.6870  143.3480 C   0  0  0  0  0  2  0  0  0  0  0  0
  189.7370  171.7930  141.2080 C   0  0  0  0  0  2  0  0  0  0  0  0
  189.7040  177.1100  146.7560 C   0  0  1  0  0  3  0  0  0  0  0  0
  189.3080  176.0730  143.8280 C   0  0  2  0  0  3  0  0  0  0  0  0
  192.5870  175.1350  146.0460 C   0  0  2  0  0  3  0  0  0  0  0  0
  190.7750  169.6750  141.9210 C   0  0  0  0  0  1  0  0  0  0  0  0
  190.5680  175.8820  146.9830 C   0  0  0  0  0  2  0  0  0  0  0  0
  189.3790  176.6370  142.4020 C   0  0  0  0  0  2  0  0  0  0  0  0
  187.3420  177.6700  144.2630 C   0  0  0  0  0  2  0  0  0  0  0  0
  187.4370  178.1330  142.8170 C   0  0  0  0  0  2  0  0  0  0  0  0
  188.2180  176.7700  146.8080 C   0  0  0  0  0  2  0  0  0  0  0  0
  191.6220  173.3120  144.8440 C   0  0  1  0  0  3  0  0  0  0  0  0
  191.2180  175.5190  145.7330 N   0  0  2  0  0  0  0  0  0  0  0  0
  191.5390  173.0210  143.4160 N   0  0  2  0  0  0  0  0  0  0  0  0
  193.7520  173.0720  145.8680 O   0  0  0  0  0  1  0  0  0  0  0  0
  189.7610  174.5930  143.9430 C   0  0  1  0  0  3  0  0  0  0  0  0
  1 21  1  1  0  0  0
  1  6  1  0  0  0  0
  2  8  2  0  0  0  0
  3 17  1  0  0  0  0
  4 20  1  0  0  0  0
  4 22  1  0  0  0  0
  5 27  1  1  0  0  0
  5 17  1  0  0  0  0
  6 23  1  0  0  0  0
  7  8  2  0  0  0  0
  9 18  1  1  0  0  0
  9 13  1  0  0  0  0
 10  8  1  6  0  0  0
 10 26  1  0  0  0  0
 10 28  1  0  0  0  0
 12 25  1  0  0  0  0
 13 26  1  0  0  0  0
 14  8  1  0  0  0  0
 14  9  1  0  0  0  0
 15 23  1  0  0  0  0
 15 19  1  0  0  0  0
 15 11  1  0  0  0  0
 16 28  1  0  0  0  0
 16  1  1  0  0  0  0
 20 16  1  0  0  0  0
 22 21  1  0  0  0  0
 24  5  1  0  0  0  0
 24 12  1  0  0  0  0
 25 17  1  0  0  0  0
 25 19  1  0  0  0  0
 26 24  1  0  0  0  0
 28 12  1  0  0  0  0
M  END
>  <MODEL>
4

>  <REMARK>
 VINA RESULT:      -7.0      2.584      5.495
  Name = 
  0 active torsions:
  status: ('A' for Active; 'I' for Inactive)
                            x       y       z     vdW  Elec       q    Type
                         _______ _______ _______ _____ _____    ______ ____

>  <TORSDO>
F 0

$$$$
=
 OpenBabel11112417433D

 28 32  0  0  1  0  0  0  0  0999 V2000
  191.7330  175.0050  144.3270 C   0  0  2  0  0  3  0  0  0  0  0  0
  189.7330  174.0370  141.2250 O   0  0  0  0  0  0  0  0  0  0  0  0
  187.0260  176.4900  147.3460 C   0  0  0  0  0  1  0  0  0  0  0  0
  190.6410  172.3390  144.8930 C   0  0  0  0  0  2  0  0  0  0  0  0
  186.7750  177.4670  145.0900 C   0  0  2  0  0  3  0  0  0  0  0  0
  192.1120  176.3720  144.7240 N   0  0  0  0  0  2  0  0  0  0  0  0
  187.3990  173.3250  141.4360 O   0  0  0  0  0  0  0  0  0  0  0  0
  188.3190  174.5120  141.4090 S   0  0  0  0  0  0  0  0  0  0  0  0
  186.8800  176.5770  140.4470 C   0  0  2  0  0  3  0  0  0  0  0  0
  188.1410  175.4230  142.9600 C   0  0  2  0  0  3  0  0  0  0  0  0
  191.3320  176.5600  148.3320 O   0  0  0  0  0  1  0  0  0  0  0  0
  189.0720  177.0760  144.4280 C   0  0  1  0  0  3  0  0  0  0  0  0
  187.4450  177.3510  141.6210 C   0  0  0  0  0  2  0  0  0  0  0  0
  187.8940  175.5390  140.0220 C   0  0  0  0  0  2  0  0  0  0  0  0
  191.0420  176.3980  146.9790 C   0  0  1  0  0  3  0  0  0  0  0  0
  190.2100  174.7810  144.4290 C   0  0  2  0  0  3  0  0  0  0  0  0
  187.6790  177.3640  146.2930 C   0  0  2  0  0  3  0  0  0  0  0  0
  186.6290  177.5250  139.2940 C   0  0  0  0  0  1  0  0  0  0  0  0
  190.0110  177.4290  146.5570 C   0  0  0  0  0  2  0  0  0  0  0  0
  189.8380  173.3360  144.0690 C   0  0  0  0  0  2  0  0  0  0  0  0
  192.5530  173.9250  145.0520 C   0  0  0  0  0  2  0  0  0  0  0  0
  192.1250  172.5310  144.6170 C   0  0  0  0  0  2  0  0  0  0  0  0
  192.3290  176.5240  146.1690 C   0  0  0  0  0  2  0  0  0  0  0  0
  187.7130  177.5210  143.9110 C   0  0  1  0  0  3  0  0  0  0  0  0
  188.9290  176.7590  145.8520 N   0  0  2  0  0  0  0  0  0  0  0  0
  187.2620  176.6050  142.8670 N   0  0  2  0  0  0  0  0  0  0  0  0
  186.0310  178.6440  145.1560 O   0  0  0  0  0  1  0  0  0  0  0  0
  189.4540  175.8520  143.5980 C   0  0  1  0  0  3  0  0  0  0  0  0
  1 16  1  0  0  0  0
  1  6  1  0  0  0  0
  1 21  1  1  0  0  0
  2  8  2  0  0  0  0
  5 27  1  1  0  0  0
  5 17  1  0  0  0  0
  6 23  1  0  0  0  0
  8  7  2  0  0  0  0
  9 18  1  6  0  0  0
  9 13  1  0  0  0  0
 10  8  1  6  0  0  0
 10 28  1  0  0  0  0
 12 25  1  0  0  0  0
 13 26  1  0  0  0  0
 14  9  1  0  0  0  0
 14  8  1  0  0  0  0
 15 11  1  0  0  0  0
 17  3  1  0  0  0  0
 19 15  1  0  0  0  0
 20 16  1  0  0  0  0
 20  4  1  0  0  0  0
 22  4  1  0  0  0  0
 22 21  1  0  0  0  0
 23 15  1  0  0  0  0
 24 12  1  0  0  0  0
 24  5  1  0  0  0  0
 25 17  1  0  0  0  0
 25 19  1  0  0  0  0
 26 10  1  0  0  0  0
 26 24  1  0  0  0  0
 28 12  1  0  0  0  0
 28 16  1  0  0  0  0
M  END
>  <MODEL>
5

>  <REMARK>
 VINA RESULT:      -7.0      2.289      6.422
  Name = 
  0 active torsions:
  status: ('A' for Active; 'I' for Inactive)
                            x       y       z     vdW  Elec       q    Type
                         _______ _______ _______ _____ _____    ______ ____

>  <TORSDO>
F 0

$$$$
=
 OpenBabel11112417433D

 28 32  0  0  1  0  0  0  0  0999 V2000
  188.4510  175.3470  145.9080 C   0  0  2  0  0  3  0  0  0  0  0  0
  187.2350  174.5130  142.3890 O   0  0  0  0  0  0  0  0  0  0  0  0
  193.6370  177.1490  144.0840 C   0  0  0  0  0  1  0  0  0  0  0  0
  187.6920  177.9160  144.7070 C   0  0  0  0  0  2  0  0  0  0  0  0
  193.1450  175.0420  142.8920 C   0  0  2  0  0  3  0  0  0  0  0  0
  189.3180  174.5050  146.7500 N   0  0  0  0  0  2  0  0  0  0  0  0
  188.1910  175.6650  140.4500 O   0  0  0  0  0  0  0  0  0  0  0  0
  188.4130  174.5740  141.4570 S   0  0  0  0  0  0  0  0  0  0  0  0
  189.9700  172.7290  140.2590 C   0  0  2  0  0  3  0  0  0  0  0  0
  189.9370  174.9200  142.3650 C   0  0  2  0  0  3  0  0  0  0  0  0
  191.8540  176.8220  148.1130 O   0  0  0  0  0  1  0  0  0  0  0  0
  191.2700  174.4300  144.2990 C   0  0  1  0  0  3  0  0  0  0  0  0
  190.7910  172.7820  141.5310 C   0  0  0  0  0  2  0  0  0  0  0  0
  188.5260  173.0180  140.6050 C   0  0  0  0  0  2  0  0  0  0  0  0
  191.1660  176.1430  147.1090 C   0  0  1  0  0  3  0  0  0  0  0  0
  189.2050  175.8970  144.6800 C   0  0  2  0  0  3  0  0  0  0  0  0
  193.2450  175.6930  144.2480 C   0  0  2  0  0  3  0  0  0  0  0  0
  190.0660  171.3450  139.6550 C   0  0  0  0  0  1  0  0  0  0  0  0
  192.1480  175.3240  146.2900 C   0  0  0  0  0  2  0  0  0  0  0  0
  188.3060  176.8200  143.8460 C   0  0  0  0  0  2  0  0  0  0  0  0
  187.7220  176.4380  146.7090 C   0  0  0  0  0  2  0  0  0  0  0  0
  186.8440  177.2870  145.8020 C   0  0  0  0  0  2  0  0  0  0  0  0
  190.0900  175.2650  147.7420 C   0  0  0  0  0  2  0  0  0  0  0  0
  192.0120  174.0560  143.0250 C   0  0  1  0  0  3  0  0  0  0  0  0
  191.9350  175.6010  144.8780 N   0  0  2  0  0  0  0  0  0  0  0  0
  191.1110  174.1670  141.8820 N   0  0  2  0  0  0  0  0  0  0  0  0
  194.3290  174.3650  142.6020 O   0  0  0  0  0  1  0  0  0  0  0  0
  189.8340  174.7320  143.8710 C   0  0  1  0  0  3  0  0  0  0  0  0
  1 21  1  1  0  0  0
  1  6  1  0  0  0  0
  3 17  1  0  0  0  0
  4 22  1  0  0  0  0
  5 27  1  1  0  0  0
  5 24  1  0  0  0  0
  5 17  1  0  0  0  0
  6 23  1  0  0  0  0
  7  8  2  0  0  0  0
  8  2  2  0  0  0  0
  9 18  1  1  0  0  0
  9 14  1  0  0  0  0
  9 13  1  0  0  0  0
 10  8  1  6  0  0  0
 10 28  1  0  0  0  0
 12 25  1  0  0  0  0
 13 26  1  0  0  0  0
 14  8  1  0  0  0  0
 15 23  1  0  0  0  0
 15 11  1  0  0  0  0
 16  1  1  0  0  0  0
 17 25  1  0  0  0  0
 19 15  1  0  0  0  0
 20 16  1  0  0  0  0
 20  4  1  0  0  0  0
 22 21  1  0  0  0  0
 24 12  1  0  0  0  0
 25 19  1  0  0  0  0
 26 10  1  0  0  0  0
 26 24  1  0  0  0  0
 28 12  1  0  0  0  0
 28 16  1  0  0  0  0
M  END
>  <MODEL>
6

>  <REMARK>
 VINA RESULT:      -6.8      2.555      5.576
  Name = 
  0 active torsions:
  status: ('A' for Active; 'I' for Inactive)
                            x       y       z     vdW  Elec       q    Type
                         _______ _______ _______ _____ _____    ______ ____

>  <TORSDO>
F 0

$$$$
=
 OpenBabel11112417433D

 28 32  0  0  1  0  0  0  0  0999 V2000
  194.1530  174.2950  143.8610 C   0  0  2  0  0  3  0  0  0  0  0  0
  192.4430  171.8290  141.5050 O   0  0  0  0  0  0  0  0  0  0  0  0
  189.3160  175.3580  146.8520 C   0  0  0  0  0  1  0  0  0  0  0  0
  193.9370  171.7850  145.3690 C   0  0  0  0  0  2  0  0  0  0  0  0
  188.7110  175.4100  144.4570 C   0  0  2  0  0  3  0  0  0  0  0  0
  194.1150  175.7640  143.7590 N   0  0  0  0  0  2  0  0  0  0  0  0
  190.4400  170.6190  142.2300 O   0  0  0  0  0  0  0  0  0  0  0  0
  190.9580  171.9310  141.7140 S   0  0  0  0  0  0  0  0  0  0  0  0
  188.9320  173.0720  140.3520 C   0  0  2  0  0  3  0  0  0  0  0  0
  190.5620  173.2250  142.9130 C   0  0  2  0  0  3  0  0  0  0  0  0
  193.4280  176.9350  147.1970 O   0  0  0  0  0  1  0  0  0  0  0  0
  190.9960  175.4650  143.6570 C   0  0  1  0  0  3  0  0  0  0  0  0
  189.2740  174.3200  141.1410 C   0  0  0  0  0  2  0  0  0  0  0  0
  190.1980  172.2720  140.1440 C   0  0  0  0  0  2  0  0  0  0  0  0
  193.1580  176.2530  146.0120 C   0  0  1  0  0  3  0  0  0  0  0  0
  192.7740  173.7100  144.2260 C   0  0  2  0  0  3  0  0  0  0  0  0
  189.6410  175.9700  145.5030 C   0  0  2  0  0  3  0  0  0  0  0  0
  188.3710  173.4690  139.0030 C   0  0  0  0  0  1  0  0  0  0  0  0
  191.8510  176.7570  145.4270 C   0  0  0  0  0  2  0  0  0  0  0  0
  192.8440  172.1850  144.3870 C   0  0  0  0  0  2  0  0  0  0  0  0
  195.2830  173.7910  144.7740 C   0  0  0  0  0  2  0  0  0  0  0  0
  195.2840  172.2720  144.8560 C   0  0  0  0  0  2  0  0  0  0  0  0
  194.3210  176.4470  145.0430 C   0  0  0  0  0  2  0  0  0  0  0  0
  189.5500  175.3180  143.2080 C   0  0  1  0  0  3  0  0  0  0  0  0
  191.0000  175.6190  145.1140 N   0  0  2  0  0  0  0  0  0  0  0  0
  189.3640  174.0180  142.5700 N   0  0  2  0  0  0  0  0  0  0  0  0
  187.6480  176.2870  144.2480 O   0  0  0  0  0  1  0  0  0  0  0  0
  191.7040  174.1870  143.2080 C   0  0  1  0  0  3  0  0  0  0  0  0
  1 16  1  0  0  0  0
  1 21  1  1  0  0  0
  2  8  2  0  0  0  0
  5 27  1  6  0  0  0
  5 17  1  0  0  0  0
  6  1  1  0  0  0  0
  6 23  1  0  0  0  0
  8  7  2  0  0  0  0
  9 18  1  6  0  0  0
  9 13  1  0  0  0  0
 10  8  1  6  0  0  0
 10 28  1  0  0  0  0
 12 25  1  0  0  0  0
 13 26  1  0  0  0  0
 14  9  1  0  0  0  0
 14  8  1  0  0  0  0
 15 11  1  0  0  0  0
 16 20  1  0  0  0  0
 17  3  1  0  0  0  0
 19 15  1  0  0  0  0
 20  4  1  0  0  0  0
 21 22  1  0  0  0  0
 22  4  1  0  0  0  0
 23 15  1  0  0  0  0
 24 12  1  0  0  0  0
 24  5  1  0  0  0  0
 25 19  1  0  0  0  0
 25 17  1  0  0  0  0
 26 10  1  0  0  0  0
 26 24  1  0  0  0  0
 28 12  1  0  0  0  0
 28 16  1  0  0  0  0
M  END
>  <MODEL>
7

>  <REMARK>
 VINA RESULT:      -6.7      3.270      7.176
  Name = 
  0 active torsions:
  status: ('A' for Active; 'I' for Inactive)
                            x       y       z     vdW  Elec       q    Type
                         _______ _______ _______ _____ _____    ______ ____

>  <TORSDO>
F 0

$$$$
=
 OpenBabel11112417433D

 28 32  0  0  1  0  0  0  0  0999 V2000
  191.3670  177.0820  145.0340 C   0  0  2  0  0  3  0  0  0  0  0  0
  195.0540  176.3500  145.6850 O   0  0  0  0  0  0  0  0  0  0  0  0
  190.4620  172.0380  142.3490 C   0  0  0  0  0  1  0  0  0  0  0  0
  191.4160  175.2710  147.3450 C   0  0  0  0  0  2  0  0  0  0  0  0
  192.5770  172.9590  141.4640 C   0  0  2  0  0  3  0  0  0  0  0  0
  190.7870  177.5720  143.7720 N   0  0  0  0  0  2  0  0  0  0  0  0
  195.8450  174.0360  145.8290 O   0  0  0  0  0  0  0  0  0  0  0  0
  195.4410  175.1350  144.8890 S   0  0  0  0  0  0  0  0  0  0  0  0
  196.8100  174.7310  142.6030 C   0  0  2  0  0  3  0  0  0  0  0  0
  194.0570  174.5580  143.8790 C   0  0  2  0  0  3  0  0  0  0  0  0
  187.8050  175.4600  143.2160 O   0  0  0  0  0  1  0  0  0  0  0  0
  192.2630  175.1670  142.4060 C   0  0  1  0  0  3  0  0  0  0  0  0
  195.4740  174.9330  141.9170 C   0  0  0  0  0  2  0  0  0  0  0  0
  196.8330  175.5600  143.8680 C   0  0  0  0  0  2  0  0  0  0  0  0
  189.1650  175.7160  143.3800 C   0  0  1  0  0  3  0  0  0  0  0  0
  191.9040  175.6430  144.8980 C   0  0  2  0  0  3  0  0  0  0  0  0
  191.1170  173.2450  141.7070 C   0  0  2  0  0  3  0  0  0  0  0  0
  197.9210  175.1970  141.6870 C   0  0  0  0  0  1  0  0  0  0  0  0
  189.9230  175.2140  142.1640 C   0  0  0  0  0  2  0  0  0  0  0  0
  192.4490  175.1260  146.2360 C   0  0  0  0  0  2  0  0  0  0  0  0
  190.4210  177.2630  146.2330 C   0  0  0  0  0  2  0  0  0  0  0  0
  191.0540  176.7390  147.5130 C   0  0  0  0  0  2  0  0  0  0  0  0
  189.3740  177.2120  143.5960 C   0  0  0  0  0  2  0  0  0  0  0  0
  193.2690  174.2780  141.6900 C   0  0  1  0  0  3  0  0  0  0  0  0
  191.0380  174.3890  142.6040 N   0  0  2  0  0  0  0  0  0  0  0  0
  194.4460  174.0930  142.5330 N   0  0  2  0  0  0  0  0  0  0  0  0
  192.7670  172.5450  140.1460 O   0  0  0  0  0  1  0  0  0  0  0  0
  192.9210  175.5600  143.7280 C   0  0  1  0  0  3  0  0  0  0  0  0
  1 21  1  1  0  0  0
  4 22  1  0  0  0  0
  5 27  1  6  0  0  0
  5 24  1  0  0  0  0
  5 17  1  0  0  0  0
  6  1  1  0  0  0  0
  8  2  2  0  0  0  0
  8  7  2  0  0  0  0
  9 18  1  6  0  0  0
  9 14  1  0  0  0  0
 10  8  1  6  0  0  0
 11 15  1  0  0  0  0
 12 25  1  0  0  0  0
 12 28  1  0  0  0  0
 13 26  1  0  0  0  0
 13  9  1  0  0  0  0
 14  8  1  0  0  0  0
 15 23  1  0  0  0  0
 16  1  1  0  0  0  0
 16 20  1  0  0  0  0
 17  3  1  0  0  0  0
 17 25  1  0  0  0  0
 19 25  1  0  0  0  0
 19 15  1  0  0  0  0
 20  4  1  0  0  0  0
 21 22  1  0  0  0  0
 23  6  1  0  0  0  0
 24 12  1  0  0  0  0
 24 26  1  0  0  0  0
 26 10  1  0  0  0  0
 28 10  1  0  0  0  0
 28 16  1  0  0  0  0
M  END
>  <MODEL>
8

>  <REMARK>
 VINA RESULT:      -6.7      3.352      4.802
  Name = 
  0 active torsions:
  status: ('A' for Active; 'I' for Inactive)
                            x       y       z     vdW  Elec       q    Type
                         _______ _______ _______ _____ _____    ______ ____

>  <TORSDO>
F 0

$$$$
=
 OpenBabel11112417433D

 28 32  0  0  1  0  0  0  0  0999 V2000
  189.3710  175.3010  144.7390 C   0  0  2  0  0  3  0  0  0  0  0  0
  190.6500  173.6600  141.5410 O   0  0  0  0  0  0  0  0  0  0  0  0
  194.5660  177.4050  146.1730 C   0  0  0  0  0  1  0  0  0  0  0  0
  189.5910  177.4700  142.7730 C   0  0  0  0  0  2  0  0  0  0  0  0
  194.9050  175.0630  145.4630 C   0  0  2  0  0  3  0  0  0  0  0  0
  189.4910  174.7590  146.1030 N   0  0  0  0  0  2  0  0  0  0  0  0
  192.6390  174.5400  140.4150 O   0  0  0  0  0  0  0  0  0  0  0  0
  192.1520  173.6990  141.5600 S   0  0  0  0  0  0  0  0  0  0  0  0
  194.0840  171.8880  142.0570 C   0  0  2  0  0  3  0  0  0  0  0  0
  192.7600  174.4140  143.1060 C   0  0  2  0  0  3  0  0  0  0  0  0
  190.6260  177.6120  148.1610 O   0  0  0  0  0  1  0  0  0  0  0  0
  192.5540  174.4830  145.4960 C   0  0  1  0  0  3  0  0  0  0  0  0
  193.9120  172.2900  143.5080 C   0  0  0  0  0  2  0  0  0  0  0  0
  192.7540  172.0400  141.3530 C   0  0  0  0  0  2  0  0  0  0  0  0
  190.7190  176.6690  147.1390 C   0  0  1  0  0  3  0  0  0  0  0  0
  190.7410  175.7050  144.1600 C   0  0  2  0  0  3  0  0  0  0  0  0
  194.1330  175.9670  146.3900 C   0  0  2  0  0  3  0  0  0  0  0  0
  194.5180  170.4390  141.9860 C   0  0  0  0  0  1  0  0  0  0  0  0
  191.9840  175.8490  147.3250 C   0  0  0  0  0  2  0  0  0  0  0  0
  190.5920  176.3230  142.7630 C   0  0  0  0  0  2  0  0  0  0  0  0
  188.3180  176.4170  144.6340 C   0  0  0  0  0  2  0  0  0  0  0  0
  188.2290  176.9530  143.2120 C   0  0  0  0  0  2  0  0  0  0  0  0
  189.4720  175.7900  147.1490 C   0  0  0  0  0  2  0  0  0  0  0  0
  193.9290  173.9770  145.0880 C   0  0  1  0  0  3  0  0  0  0  0  0
  192.7210  175.8210  146.0700 N   0  0  2  0  0  0  0  0  0  0  0  0
  193.9600  173.7470  143.6470 N   0  0  2  0  0  0  0  0  0  0  0  0
  195.9930  174.5090  146.1380 O   0  0  0  0  0  1  0  0  0  0  0  0
  191.7210  174.5020  144.2150 C   0  0  1  0  0  3  0  0  0  0  0  0
  1 21  1  1  0  0  0
  1  6  1  0  0  0  0
  2  8  2  0  0  0  0
  3 17  1  0  0  0  0
  4 22  1  0  0  0  0
  5 27  1  1  0  0  0
  5 17  1  0  0  0  0
  6 23  1  0  0  0  0
  7  8  2  0  0  0  0
  9 18  1  1  0  0  0
  9 13  1  0  0  0  0
 10  8  1  6  0  0  0
 10 26  1  0  0  0  0
 10 28  1  0  0  0  0
 12 25  1  0  0  0  0
 13 26  1  0  0  0  0
 14  8  1  0  0  0  0
 14  9  1  0  0  0  0
 15 23  1  0  0  0  0
 15 19  1  0  0  0  0
 15 11  1  0  0  0  0
 16 28  1  0  0  0  0
 16  1  1  0  0  0  0
 20  4  1  0  0  0  0
 20 16  1  0  0  0  0
 22 21  1  0  0  0  0
 24  5  1  0  0  0  0
 24 12  1  0  0  0  0
 25 17  1  0  0  0  0
 25 19  1  0  0  0  0
 26 24  1  0  0  0  0
 28 12  1  0  0  0  0
M  END
>  <MODEL>
9

>  <REMARK>
 VINA RESULT:      -6.7      3.031      6.142
  Name = 
  0 active torsions:
  status: ('A' for Active; 'I' for Inactive)
                            x       y       z     vdW  Elec       q    Type
                         _______ _______ _______ _____ _____    ______ ____

>  <TORSDO>
F 0

$$$$
