=
 OpenBabel11112416133D

 30 35  0  0  1  0  0  0  0  0999 V2000
  186.9980  177.0630  143.9810 C   0  0  1  0  0  3  0  0  0  0  0  0
  185.0630  178.1460  145.2420 C   0  0  0  0  0  0  0  0  0  0  0  0
  189.4470  177.2430  147.5620 C   0  0  0  0  0  2  0  0  0  0  0  0
  188.3050  176.2660  144.1940 C   0  0  1  0  0  3  0  0  0  0  0  0
  186.1200  176.3120  143.1780 O   0  0  0  0  0  0  0  0  0  0  0  0
  188.5050  175.5190  140.6290 O   0  0  0  0  0  0  0  0  0  0  0  0
  191.3320  176.5280  143.0680 C   0  0  1  0  0  3  0  0  0  0  0  0
  188.0570  175.9160  141.7380 C   0  0  0  0  0  0  0  0  0  0  0  0
  191.6310  176.8000  144.5300 C   0  0  2  0  0  3  0  0  0  0  0  0
  190.6740  176.7900  146.8590 C   0  0  0  0  0  0  0  0  0  0  0  0
  186.6080  176.3320  141.8460 C   0  0  2  0  0  3  0  0  0  0  0  0
  188.9220  176.0030  142.8890 N   0  0  0  0  0  0  0  0  0  0  0  0
  184.5190  178.6990  146.4050 C   0  0  0  0  0  3  0  0  0  0  0  0
  192.7990  175.8890  144.8340 C   0  0  0  0  0  2  0  0  0  0  0  0
  192.6660  176.0900  142.4970 C   0  0  0  0  0  2  0  0  0  0  0  0
  184.3390  178.1890  144.0950 F   0  0  0  0  0  0  0  0  0  0  0  0
  188.4290  176.9340  146.4900 C   0  0  2  0  0  3  0  0  0  0  0  0
  185.2480  178.6970  147.5960 C   0  0  0  0  0  3  0  0  0  0  0  0
  186.3460  177.5690  145.2650 C   0  0  0  0  0  0  0  0  0  0  0  0
  189.1570  177.0740  145.1680 C   0  0  1  0  0  3  0  0  0  0  0  0
  191.7790  176.6520  147.4460 O   0  0  0  0  0  0  0  0  0  0  0  0
  190.5050  176.5910  145.4490 N   0  0  0  0  0  0  0  0  0  0  0  0
  193.5490  175.7090  143.5980 N   0  0  0  0  0  2  0  0  0  0  0  0
  190.4260  174.1500  143.5500 C   0  0  0  0  0  1  0  0  0  0  0  0
  186.5330  178.1530  147.6290 C   0  0  0  0  0  3  0  0  0  0  0  0
  187.0980  177.6200  146.4660 C   0  0  0  0  0  0  0  0  0  0  0  0
  190.2720  175.4590  142.7790 C   0  0  2  0  0  3  0  0  0  0  0  0
  186.3690  177.6810  141.1720 C   0  0  0  0  0  2  0  0  0  0  0  0
  184.3490  178.2960  140.5380 C   0  0  0  0  0  1  0  0  0  0  0  0
  185.4450  177.5360  140.1370 O   0  0  0  0  0  0  0  0  0  0  0  0
  1  5  1  1  0  0  0
  1  4  1  0  0  0  0
  1 19  1  0  0  0  0
  2 19  2  0  0  0  0
  2 13  1  0  0  0  0
  4 12  1  6  0  0  0
  4 20  1  0  0  0  0
  6  8  2  0  0  0  0
  7 15  1  6  0  0  0
  7  9  1  0  0  0  0
  8 11  1  0  0  0  0
  8 12  1  0  0  0  0
  9 14  1  1  0  0  0
  9 22  1  0  0  0  0
 10 21  2  0  0  0  0
 10  3  1  0  0  0  0
 11 28  1  1  0  0  0
 11  5  1  0  0  0  0
 13 18  2  0  0  0  0
 15 23  1  0  0  0  0
 16  2  1  0  0  0  0
 17  3  1  1  0  0  0
 18 25  1  0  0  0  0
 19 26  1  0  0  0  0
 20 22  1  1  0  0  0
 20 17  1  0  0  0  0
 22 10  1  0  0  0  0
 23 14  1  0  0  0  0
 26 17  1  0  0  0  0
 26 25  2  0  0  0  0
 27 12  1  0  0  0  0
 27  7  1  0  0  0  0
 27 24  1  1  0  0  0
 30 29  1  0  0  0  0
 30 28  1  0  0  0  0
M  END
>  <MODEL>
1

>  <REMARK>
 VINA RESULT:      -8.8      0.000      0.000
  Name = 
  2 active torsions:
  status: ('A' for Active; 'I' for Inactive)
    1  A    between atoms: C_11  and  C_28
    2  A    between atoms: C_28  and  O_30
                            x       y       z     vdW  Elec       q    Type
                         _______ _______ _______ _____ _____    ______ ____

>  <TORSDO>
F 2

$$$$
=
 OpenBabel11112416133D

 30 35  0  0  1  0  0  0  0  0999 V2000
  186.9800  177.0390  144.1640 C   0  0  1  0  0  3  0  0  0  0  0  0
  184.9860  178.3340  143.2410 C   0  0  0  0  0  0  0  0  0  0  0  0
  187.8190  175.4800  140.1990 C   0  0  0  0  0  2  0  0  0  0  0  0
  188.3120  176.3770  143.7430 C   0  0  1  0  0  3  0  0  0  0  0  0
  187.2380  178.0290  145.1310 O   0  0  0  0  0  0  0  0  0  0  0  0
  189.2980  175.9910  147.2340 O   0  0  0  0  0  0  0  0  0  0  0  0
  189.6910  173.4990  144.3020 C   0  0  1  0  0  3  0  0  0  0  0  0
  188.6550  176.3530  146.2120 C   0  0  0  0  0  0  0  0  0  0  0  0
  189.5090  173.3530  142.8030 C   0  0  2  0  0  3  0  0  0  0  0  0
  188.8760  174.5570  140.6840 C   0  0  0  0  0  0  0  0  0  0  0  0
  187.5580  177.3830  146.3540 C   0  0  2  0  0  3  0  0  0  0  0  0
  188.9390  175.7710  144.9240 N   0  0  0  0  0  0  0  0  0  0  0  0
  184.1570  178.7070  142.1790 C   0  0  0  0  0  3  0  0  0  0  0  0
  190.8620  172.8810  142.3200 C   0  0  0  0  0  2  0  0  0  0  0  0
  190.7810  172.5000  144.6370 C   0  0  0  0  0  2  0  0  0  0  0  0
  184.6620  178.7320  144.4960 F   0  0  0  0  0  0  0  0  0  0  0  0
  187.6440  176.3170  141.4440 C   0  0  2  0  0  3  0  0  0  0  0  0
  184.4450  178.2910  140.8770 C   0  0  0  0  0  3  0  0  0  0  0  0
  186.1290  177.5480  143.0040 C   0  0  0  0  0  0  0  0  0  0  0  0
  187.9810  175.4090  142.6110 C   0  0  1  0  0  3  0  0  0  0  0  0
  189.5130  173.7920  139.9130 O   0  0  0  0  0  0  0  0  0  0  0  0
  189.0580  174.5640  142.1060 N   0  0  0  0  0  0  0  0  0  0  0  0
  191.4800  172.1320  143.4070 N   0  0  0  0  0  2  0  0  0  0  0  0
  191.2470  175.5540  144.0550 C   0  0  0  0  0  1  0  0  0  0  0  0
  185.5600  177.4890  140.6300 C   0  0  0  0  0  3  0  0  0  0  0  0
  186.3830  177.0880  141.6870 C   0  0  0  0  0  0  0  0  0  0  0  0
  190.0950  174.8900  144.8050 C   0  0  2  0  0  3  0  0  0  0  0  0
  186.3220  176.7860  147.0230 C   0  0  0  0  0  2  0  0  0  0  0  0
  185.0730  178.4950  147.6380 C   0  0  0  0  0  1  0  0  0  0  0  0
  185.9690  177.5510  148.1340 O   0  0  0  0  0  0  0  0  0  0  0  0
  1 19  1  6  0  0  0
  1  5  1  0  0  0  0
  2 16  1  0  0  0  0
  3 10  1  0  0  0  0
  4  1  1  0  0  0  0
  4 12  1  1  0  0  0
  5 11  1  0  0  0  0
  7 15  1  6  0  0  0
  7 27  1  0  0  0  0
  8 11  1  0  0  0  0
  8  6  2  0  0  0  0
  9 14  1  6  0  0  0
  9  7  1  0  0  0  0
 10 22  1  0  0  0  0
 11 28  1  6  0  0  0
 12  8  1  0  0  0  0
 13  2  2  0  0  0  0
 14 23  1  0  0  0  0
 17  3  1  6  0  0  0
 17 26  1  0  0  0  0
 17 20  1  0  0  0  0
 18 13  1  0  0  0  0
 19  2  1  0  0  0  0
 20 22  1  6  0  0  0
 20  4  1  0  0  0  0
 21 10  2  0  0  0  0
 22  9  1  0  0  0  0
 23 15  1  0  0  0  0
 25 18  2  0  0  0  0
 25 26  1  0  0  0  0
 26 19  2  0  0  0  0
 27 24  1  6  0  0  0
 27 12  1  0  0  0  0
 28 30  1  0  0  0  0
 29 30  1  0  0  0  0
M  END
>  <MODEL>
2

>  <REMARK>
 VINA RESULT:      -7.5      1.914      4.920
  Name = 
  2 active torsions:
  status: ('A' for Active; 'I' for Inactive)
    1  A    between atoms: C_11  and  C_28
    2  A    between atoms: C_28  and  O_30
                            x       y       z     vdW  Elec       q    Type
                         _______ _______ _______ _____ _____    ______ ____

>  <TORSDO>
F 2

$$$$
=
 OpenBabel11112416133D

 30 35  0  0  1  0  0  0  0  0999 V2000
  189.3190  175.7370  143.9140 C   0  0  1  0  0  3  0  0  0  0  0  0
  191.1660  174.6870  145.3250 C   0  0  0  0  0  0  0  0  0  0  0  0
  187.9300  177.9690  147.3700 C   0  0  0  0  0  2  0  0  0  0  0  0
  188.3670  176.9520  143.8510 C   0  0  1  0  0  3  0  0  0  0  0  0
  190.1220  175.7140  142.7580 O   0  0  0  0  0  0  0  0  0  0  0  0
  187.4440  176.1330  140.4180 O   0  0  0  0  0  0  0  0  0  0  0  0
  185.1910  177.3220  143.3280 C   0  0  1  0  0  3  0  0  0  0  0  0
  188.0470  176.1160  141.5250 C   0  0  0  0  0  0  0  0  0  0  0  0
  185.2230  177.8220  144.7600 C   0  0  2  0  0  3  0  0  0  0  0  0
  186.7240  178.4800  146.6720 C   0  0  0  0  0  0  0  0  0  0  0  0
  189.3140  175.3040  141.6650 C   0  0  2  0  0  3  0  0  0  0  0  0
  187.5210  176.8360  142.6570 N   0  0  0  0  0  0  0  0  0  0  0  0
  191.8320  174.5270  146.5450 C   0  0  0  0  0  3  0  0  0  0  0  0
  184.4540  179.1220  144.7060 C   0  0  0  0  0  2  0  0  0  0  0  0
  183.9150  177.9160  142.7630 C   0  0  0  0  0  2  0  0  0  0  0  0
  191.5290  173.9100  144.2740 F   0  0  0  0  0  0  0  0  0  0  0  0
  188.6770  177.4130  146.1800 C   0  0  2  0  0  3  0  0  0  0  0  0
  191.4650  175.2910  147.6550 C   0  0  0  0  0  3  0  0  0  0  0  0
  190.1290  175.6300  145.2030 C   0  0  0  0  0  0  0  0  0  0  0  0
  187.6190  176.9920  145.1800 C   0  0  1  0  0  3  0  0  0  0  0  0
  185.8860  179.2340  147.2330 O   0  0  0  0  0  0  0  0  0  0  0  0
  186.5640  177.9890  145.3340 N   0  0  0  0  0  0  0  0  0  0  0  0
  183.4800  179.0120  143.6270 N   0  0  0  0  0  2  0  0  0  0  0  0
  186.7770  179.1910  142.4920 C   0  0  0  0  0  1  0  0  0  0  0  0
  190.4210  176.2110  147.5570 C   0  0  0  0  0  3  0  0  0  0  0  0
  189.7300  176.3620  146.3500 C   0  0  0  0  0  0  0  0  0  0  0  0
  186.3790  177.7180  142.4430 C   0  0  2  0  0  3  0  0  0  0  0  0
  189.0100  173.8080  141.7110 C   0  0  0  0  0  2  0  0  0  0  0  0
  189.9270  171.8580  142.1770 C   0  0  0  0  0  1  0  0  0  0  0  0
  190.1910  173.0800  141.5630 O   0  0  0  0  0  0  0  0  0  0  0  0
  1  5  1  6  0  0  0
  1 19  1  0  0  0  0
  2 13  1  0  0  0  0
  4 12  1  6  0  0  0
  4  1  1  0  0  0  0
  4 20  1  0  0  0  0
  6  8  2  0  0  0  0
  7 15  1  6  0  0  0
  7  9  1  0  0  0  0
  8 11  1  0  0  0  0
  8 12  1  0  0  0  0
  9 14  1  6  0  0  0
  9 22  1  0  0  0  0
 10 21  2  0  0  0  0
 10  3  1  0  0  0  0
 11 28  1  1  0  0  0
 11  5  1  0  0  0  0
 13 18  2  0  0  0  0
 15 23  1  0  0  0  0
 16  2  1  0  0  0  0
 17 26  1  0  0  0  0
 17  3  1  1  0  0  0
 19  2  2  0  0  0  0
 19 26  1  0  0  0  0
 20 22  1  6  0  0  0
 20 17  1  0  0  0  0
 22 10  1  0  0  0  0
 23 14  1  0  0  0  0
 25 18  1  0  0  0  0
 26 25  2  0  0  0  0
 27 24  1  1  0  0  0
 27 12  1  0  0  0  0
 27  7  1  0  0  0  0
 30 28  1  0  0  0  0
 30 29  1  0  0  0  0
M  END
>  <MODEL>
3

>  <REMARK>
 VINA RESULT:      -7.4      2.763      5.660
  Name = 
  2 active torsions:
  status: ('A' for Active; 'I' for Inactive)
    1  A    between atoms: C_11  and  C_28
    2  A    between atoms: C_28  and  O_30
                            x       y       z     vdW  Elec       q    Type
                         _______ _______ _______ _____ _____    ______ ____

>  <TORSDO>
F 2

$$$$
=
 OpenBabel11112416133D

 30 35  0  0  1  0  0  0  0  0999 V2000
  188.0340  175.6190  142.6730 C   0  0  1  0  0  3  0  0  0  0  0  0
  186.1570  177.3160  142.3520 C   0  0  0  0  0  0  0  0  0  0  0  0
  189.1070  177.5020  146.4360 C   0  0  0  0  0  2  0  0  0  0  0  0
  188.9300  174.9750  143.7550 C   0  0  1  0  0  3  0  0  0  0  0  0
  187.3040  174.6120  142.0140 O   0  0  0  0  0  0  0  0  0  0  0  0
  190.0940  172.4590  141.3830 O   0  0  0  0  0  0  0  0  0  0  0  0
  192.1110  174.4250  144.0340 C   0  0  1  0  0  3  0  0  0  0  0  0
  189.4270  173.4050  141.8840 C   0  0  0  0  0  0  0  0  0  0  0  0
  191.9690  175.4040  145.1840 C   0  0  2  0  0  3  0  0  0  0  0  0
  190.3280  176.6750  146.6090 C   0  0  0  0  0  0  0  0  0  0  0  0
  188.1930  173.9020  141.1660 C   0  0  2  0  0  3  0  0  0  0  0  0
  189.8510  174.0290  143.1120 N   0  0  0  0  0  0  0  0  0  0  0  0
  185.4280  178.4290  142.7820 C   0  0  0  0  0  3  0  0  0  0  0  0
  192.6790  174.7190  146.3300 C   0  0  0  0  0  2  0  0  0  0  0  0
  193.3890  173.6730  144.3500 C   0  0  0  0  0  2  0  0  0  0  0  0
  185.8940  176.7950  141.1270 F   0  0  0  0  0  0  0  0  0  0  0  0
  188.4600  176.7380  145.3050 C   0  0  2  0  0  3  0  0  0  0  0  0
  185.6910  179.0080  144.0250 C   0  0  0  0  0  3  0  0  0  0  0  0
  187.1540  176.7610  143.1750 C   0  0  0  0  0  0  0  0  0  0  0  0
  189.5950  176.1210  144.5120 C   0  0  1  0  0  3  0  0  0  0  0  0
  191.0950  176.7990  147.6000 O   0  0  0  0  0  0  0  0  0  0  0  0
  190.5900  175.7760  145.5230 N   0  0  0  0  0  0  0  0  0  0  0  0
  193.7190  173.8730  145.7600 N   0  0  0  0  0  2  0  0  0  0  0  0
  190.4920  172.7120  145.1080 C   0  0  0  0  0  1  0  0  0  0  0  0
  186.6950  178.4850  144.8420 C   0  0  0  0  0  3  0  0  0  0  0  0
  187.4490  177.3890  144.4110 C   0  0  0  0  0  0  0  0  0  0  0  0
  190.9610  173.4290  143.8440 C   0  0  2  0  0  3  0  0  0  0  0  0
  188.5640  174.7090  139.9240 C   0  0  0  0  0  2  0  0  0  0  0  0
  189.3880  173.7910  138.0970 C   0  0  0  0  0  1  0  0  0  0  0  0
  188.1910  174.0090  138.7770 O   0  0  0  0  0  0  0  0  0  0  0  0
  1  5  1  1  0  0  0
  1 19  1  0  0  0  0
  1  4  1  0  0  0  0
  2 13  2  0  0  0  0
  2 19  1  0  0  0  0
  3 10  1  0  0  0  0
  4 12  1  6  0  0  0
  4 20  1  0  0  0  0
  6  8  2  0  0  0  0
  7 15  1  1  0  0  0
  7  9  1  0  0  0  0
  8 12  1  0  0  0  0
  9 22  1  0  0  0  0
  9 14  1  1  0  0  0
 10 21  2  0  0  0  0
 11 28  1  6  0  0  0
 11  8  1  0  0  0  0
 11  5  1  0  0  0  0
 12 27  1  0  0  0  0
 13 18  1  0  0  0  0
 15 23  1  0  0  0  0
 16  2  1  0  0  0  0
 17  3  1  1  0  0  0
 18 25  2  0  0  0  0
 19 26  2  0  0  0  0
 20 17  1  0  0  0  0
 20 22  1  1  0  0  0
 22 10  1  0  0  0  0
 23 14  1  0  0  0  0
 26 25  1  0  0  0  0
 26 17  1  0  0  0  0
 27  7  1  0  0  0  0
 27 24  1  1  0  0  0
 29 30  1  0  0  0  0
 30 28  1  0  0  0  0
M  END
>  <MODEL>
4

>  <REMARK>
 VINA RESULT:      -7.4      1.988      2.888
  Name = 
  2 active torsions:
  status: ('A' for Active; 'I' for Inactive)
    1  A    between atoms: C_11  and  C_28
    2  A    between atoms: C_28  and  O_30
                            x       y       z     vdW  Elec       q    Type
                         _______ _______ _______ _____ _____    ______ ____

>  <TORSDO>
F 2

$$$$
=
 OpenBabel11112416133D

 30 35  0  0  1  0  0  0  0  0999 V2000
  188.7970  175.1480  143.1950 C   0  0  1  0  0  3  0  0  0  0  0  0
  186.6200  176.4370  143.5180 C   0  0  0  0  0  0  0  0  0  0  0  0
  190.4300  176.9820  146.7750 C   0  0  0  0  0  2  0  0  0  0  0  0
  190.0430  174.6390  143.9530 C   0  0  1  0  0  3  0  0  0  0  0  0
  188.1210  174.0540  142.6220 O   0  0  0  0  0  0  0  0  0  0  0  0
  191.0050  172.5650  141.1110 O   0  0  0  0  0  0  0  0  0  0  0  0
  193.2340  174.7410  143.4020 C   0  0  1  0  0  3  0  0  0  0  0  0
  190.3260  173.3200  141.8560 C   0  0  0  0  0  0  0  0  0  0  0  0
  193.2130  175.5990  144.6530 C   0  0  2  0  0  3  0  0  0  0  0  0
  191.7850  176.4160  146.5600 C   0  0  0  0  0  0  0  0  0  0  0  0
  188.8800  173.5950  141.5130 C   0  0  2  0  0  3  0  0  0  0  0  0
  190.9270  173.9440  143.0090 N   0  0  0  0  0  0  0  0  0  0  0  0
  185.8330  177.3480  144.2300 C   0  0  0  0  0  3  0  0  0  0  0  0
  194.3070  175.0080  145.5140 C   0  0  0  0  0  2  0  0  0  0  0  0
  194.6660  174.2520  143.3190 C   0  0  0  0  0  2  0  0  0  0  0  0
  186.1540  175.9480  142.3420 F   0  0  0  0  0  0  0  0  0  0  0  0
  189.6670  176.1710  145.7550 C   0  0  2  0  0  3  0  0  0  0  0  0
  186.2940  177.8930  145.4300 C   0  0  0  0  0  3  0  0  0  0  0  0
  187.8790  176.0520  144.0140 C   0  0  0  0  0  0  0  0  0  0  0  0
  190.6560  175.8490  144.6510 C   0  0  1  0  0  3  0  0  0  0  0  0
  192.7440  176.6360  147.3460 O   0  0  0  0  0  0  0  0  0  0  0  0
  191.9220  175.6570  145.3510 N   0  0  0  0  0  0  0  0  0  0  0  0
  195.3040  174.4310  144.6230 N   0  0  0  0  0  2  0  0  0  0  0  0
  192.2890  172.6700  144.6370 C   0  0  0  0  0  1  0  0  0  0  0  0
  187.5520  177.5410  145.9210 C   0  0  0  0  0  3  0  0  0  0  0  0
  188.3590  176.6510  145.2050 C   0  0  0  0  0  0  0  0  0  0  0  0
  192.2780  173.5430  143.3850 C   0  0  2  0  0  3  0  0  0  0  0  0
  188.7640  174.5340  140.3150 C   0  0  0  0  0  2  0  0  0  0  0  0
  189.2090  173.7900  138.2870 C   0  0  0  0  0  1  0  0  0  0  0  0
  188.1910  173.8580  139.2380 O   0  0  0  0  0  0  0  0  0  0  0  0
  1  5  1  1  0  0  0
  1  4  1  0  0  0  0
  1 19  1  0  0  0  0
  2 19  2  0  0  0  0
  2 13  1  0  0  0  0
  4 12  1  6  0  0  0
  4 20  1  0  0  0  0
  6  8  2  0  0  0  0
  7 15  1  1  0  0  0
  7  9  1  0  0  0  0
  8 12  1  0  0  0  0
  9 22  1  0  0  0  0
  9 14  1  1  0  0  0
 10  3  1  0  0  0  0
 10 21  2  0  0  0  0
 11 28  1  6  0  0  0
 11  8  1  0  0  0  0
 11  5  1  0  0  0  0
 12 27  1  0  0  0  0
 13 18  2  0  0  0  0
 15 23  1  0  0  0  0
 16  2  1  0  0  0  0
 17  3  1  1  0  0  0
 18 25  1  0  0  0  0
 19 26  1  0  0  0  0
 20 22  1  1  0  0  0
 20 17  1  0  0  0  0
 22 10  1  0  0  0  0
 23 14  1  0  0  0  0
 26 17  1  0  0  0  0
 26 25  2  0  0  0  0
 27  7  1  0  0  0  0
 27 24  1  1  0  0  0
 29 30  1  0  0  0  0
 30 28  1  0  0  0  0
M  END
>  <MODEL>
5

>  <REMARK>
 VINA RESULT:      -7.2      2.075      2.966
  Name = 
  2 active torsions:
  status: ('A' for Active; 'I' for Inactive)
    1  A    between atoms: C_11  and  C_28
    2  A    between atoms: C_28  and  O_30
                            x       y       z     vdW  Elec       q    Type
                         _______ _______ _______ _____ _____    ______ ____

>  <TORSDO>
F 2

$$$$
=
 OpenBabel11112416133D

 30 35  0  0  1  0  0  0  0  0999 V2000
  190.2720  175.5620  145.5180 C   0  0  1  0  0  3  0  0  0  0  0  0
  192.4310  174.2400  145.8260 C   0  0  0  0  0  0  0  0  0  0  0  0
  189.9800  174.1530  141.4210 C   0  0  0  0  0  2  0  0  0  0  0  0
  188.9940  175.6360  144.6510 C   0  0  1  0  0  3  0  0  0  0  0  0
  189.9100  175.3800  146.8660 O   0  0  0  0  0  0  0  0  0  0  0  0
  187.4800  178.0080  146.9730 O   0  0  0  0  0  0  0  0  0  0  0  0
  187.4360  178.0200  143.1050 C   0  0  1  0  0  3  0  0  0  0  0  0
  188.2830  177.1670  146.4850 C   0  0  0  0  0  0  0  0  0  0  0  0
  187.8360  177.2100  141.8860 C   0  0  2  0  0  3  0  0  0  0  0  0
  188.8270  175.0330  141.1020 C   0  0  0  0  0  0  0  0  0  0  0  0
  189.3850  176.6060  147.3530 C   0  0  2  0  0  3  0  0  0  0  0  0
  188.1740  176.7650  145.1050 N   0  0  0  0  0  0  0  0  0  0  0  0
  193.4250  173.3900  145.3320 C   0  0  0  0  0  3  0  0  0  0  0  0
  186.5530  177.0970  141.0930 C   0  0  0  0  0  2  0  0  0  0  0  0
  186.2700  178.8590  142.6210 C   0  0  0  0  0  2  0  0  0  0  0  0
  192.5780  174.7670  147.0670 F   0  0  0  0  0  0  0  0  0  0  0  0
  189.9980  174.3180  142.9220 C   0  0  2  0  0  3  0  0  0  0  0  0
  193.3200  172.8520  144.0470 C   0  0  0  0  0  3  0  0  0  0  0  0
  191.3070  174.5490  145.0370 C   0  0  0  0  0  0  0  0  0  0  0  0
  189.4540  175.7060  143.1980 C   0  0  1  0  0  3  0  0  0  0  0  0
  188.2840  175.0520  139.9660 O   0  0  0  0  0  0  0  0  0  0  0  0
  188.4330  175.9000  142.1730 N   0  0  0  0  0  0  0  0  0  0  0  0
  185.7510  178.2770  141.3840 N   0  0  0  0  0  2  0  0  0  0  0  0
  186.0160  176.0930  144.0940 C   0  0  0  0  0  1  0  0  0  0  0  0
  192.2250  173.1700  143.2430 C   0  0  0  0  0  3  0  0  0  0  0  0
  191.2370  174.0390  143.7160 C   0  0  0  0  0  0  0  0  0  0  0  0
  187.0150  177.2200  144.3440 C   0  0  2  0  0  3  0  0  0  0  0  0
  190.4820  177.6400  147.5920 C   0  0  0  0  0  2  0  0  0  0  0  0
  191.4840  178.0410  149.5150 C   0  0  0  0  0  1  0  0  0  0  0  0
  191.4380  177.1240  148.4670 O   0  0  0  0  0  0  0  0  0  0  0  0
  1 19  1  6  0  0  0
  1  5  1  0  0  0  0
  2 16  1  0  0  0  0
  4 12  1  1  0  0  0
  4  1  1  0  0  0  0
  5 11  1  0  0  0  0
  7 15  1  6  0  0  0
  7 27  1  0  0  0  0
  8  6  2  0  0  0  0
  8 11  1  0  0  0  0
  9 14  1  6  0  0  0
  9 22  1  0  0  0  0
  9  7  1  0  0  0  0
 10  3  1  0  0  0  0
 10 22  1  0  0  0  0
 11 28  1  6  0  0  0
 12  8  1  0  0  0  0
 13  2  1  0  0  0  0
 14 23  1  0  0  0  0
 17  3  1  6  0  0  0
 17 20  1  0  0  0  0
 17 26  1  0  0  0  0
 18 13  2  0  0  0  0
 19  2  2  0  0  0  0
 20 22  1  6  0  0  0
 20  4  1  0  0  0  0
 21 10  2  0  0  0  0
 23 15  1  0  0  0  0
 25 26  2  0  0  0  0
 25 18  1  0  0  0  0
 26 19  1  0  0  0  0
 27 24  1  6  0  0  0
 27 12  1  0  0  0  0
 28 30  1  0  0  0  0
 30 29  1  0  0  0  0
M  END
>  <MODEL>
6

>  <REMARK>
 VINA RESULT:      -7.1      2.782      6.924
  Name = 
  2 active torsions:
  status: ('A' for Active; 'I' for Inactive)
    1  A    between atoms: C_11  and  C_28
    2  A    between atoms: C_28  and  O_30
                            x       y       z     vdW  Elec       q    Type
                         _______ _______ _______ _____ _____    ______ ____

>  <TORSDO>
F 2

$$$$
=
 OpenBabel11112416133D

 30 35  0  0  1  0  0  0  0  0999 V2000
  189.3420  176.3450  144.6630 C   0  0  1  0  0  3  0  0  0  0  0  0
  187.4190  177.8520  145.3930 C   0  0  0  0  0  0  0  0  0  0  0  0
  187.4830  175.8330  140.7730 C   0  0  0  0  0  2  0  0  0  0  0  0
  190.0620  175.7970  143.4100 C   0  0  1  0  0  3  0  0  0  0  0  0
  190.2640  177.0540  145.4560 O   0  0  0  0  0  0  0  0  0  0  0  0
  192.8020  174.5280  145.4570 O   0  0  0  0  0  0  0  0  0  0  0  0
  191.0310  172.8570  142.4520 C   0  0  1  0  0  3  0  0  0  0  0  0
  191.7550  175.1440  145.1190 C   0  0  0  0  0  0  0  0  0  0  0  0
  189.9980  173.0980  141.3670 C   0  0  2  0  0  3  0  0  0  0  0  0
  188.4620  174.8060  140.3370 C   0  0  0  0  0  0  0  0  0  0  0  0
  191.1210  176.1160  146.0880 C   0  0  2  0  0  3  0  0  0  0  0  0
  191.1480  174.9050  143.8330 N   0  0  0  0  0  0  0  0  0  0  0  0
  186.2010  178.4900  145.1370 C   0  0  0  0  0  3  0  0  0  0  0  0
  190.7300  172.7500  140.0900 C   0  0  0  0  0  2  0  0  0  0  0  0
  191.9380  171.7950  141.8640 C   0  0  0  0  0  2  0  0  0  0  0  0
  187.9450  177.9210  146.6410 F   0  0  0  0  0  0  0  0  0  0  0  0
  188.1930  176.3290  142.0110 C   0  0  2  0  0  3  0  0  0  0  0  0
  185.6170  178.4150  143.8710 C   0  0  0  0  0  3  0  0  0  0  0  0
  188.0730  177.1390  144.3710 C   0  0  0  0  0  0  0  0  0  0  0  0
  188.9900  175.1510  142.5370 C   0  0  1  0  0  3  0  0  0  0  0  0
  188.4060  174.2550  139.2050 O   0  0  0  0  0  0  0  0  0  0  0  0
  189.4290  174.4510  141.3340 N   0  0  0  0  0  0  0  0  0  0  0  0
  191.7310  171.7440  140.4180 N   0  0  0  0  0  2  0  0  0  0  0  0
  192.4640  174.8920  141.7360 C   0  0  0  0  0  1  0  0  0  0  0  0
  186.2400  177.6900  142.8540 C   0  0  0  0  0  3  0  0  0  0  0  0
  187.4450  177.0260  143.1050 C   0  0  0  0  0  0  0  0  0  0  0  0
  191.8660  174.0710  142.8760 C   0  0  2  0  0  3  0  0  0  0  0  0
  190.4210  175.3820  147.2280 C   0  0  0  0  0  2  0  0  0  0  0  0
  191.5240  176.8480  148.4510 C   0  0  0  0  0  1  0  0  0  0  0  0
  191.1690  175.5010  148.3990 O   0  0  0  0  0  0  0  0  0  0  0  0
  1 19  1  6  0  0  0
  1  5  1  0  0  0  0
  2 16  1  0  0  0  0
  4 12  1  1  0  0  0
  4  1  1  0  0  0  0
  5 11  1  0  0  0  0
  7 15  1  6  0  0  0
  7 27  1  0  0  0  0
  8  6  2  0  0  0  0
  8 11  1  0  0  0  0
  9 14  1  6  0  0  0
  9  7  1  0  0  0  0
 10  3  1  0  0  0  0
 10 22  1  0  0  0  0
 11 28  1  1  0  0  0
 12  8  1  0  0  0  0
 13  2  1  0  0  0  0
 14 23  1  0  0  0  0
 17  3  1  6  0  0  0
 17 20  1  0  0  0  0
 17 26  1  0  0  0  0
 18 13  2  0  0  0  0
 19  2  2  0  0  0  0
 20 22  1  6  0  0  0
 20  4  1  0  0  0  0
 21 10  2  0  0  0  0
 22  9  1  0  0  0  0
 23 15  1  0  0  0  0
 25 26  2  0  0  0  0
 25 18  1  0  0  0  0
 26 19  1  0  0  0  0
 27 24  1  6  0  0  0
 27 12  1  0  0  0  0
 28 30  1  0  0  0  0
 30 29  1  0  0  0  0
M  END
>  <MODEL>
7

>  <REMARK>
 VINA RESULT:      -7.0      2.204      5.446
  Name = 
  2 active torsions:
  status: ('A' for Active; 'I' for Inactive)
    1  A    between atoms: C_11  and  C_28
    2  A    between atoms: C_28  and  O_30
                            x       y       z     vdW  Elec       q    Type
                         _______ _______ _______ _____ _____    ______ ____

>  <TORSDO>
F 2

$$$$
=
 OpenBabel11112416133D

 30 35  0  0  1  0  0  0  0  0999 V2000
  190.7880  174.0820  142.7570 C   0  0  1  0  0  3  0  0  0  0  0  0
  192.7930  172.7190  143.5510 C   0  0  0  0  0  0  0  0  0  0  0  0
  190.8100  176.3090  146.4840 C   0  0  0  0  0  2  0  0  0  0  0  0
  190.0470  175.4180  142.9870 C   0  0  1  0  0  3  0  0  0  0  0  0
  191.2060  174.0060  141.4150 O   0  0  0  0  0  0  0  0  0  0  0  0
  188.0530  174.9050  139.9750 O   0  0  0  0  0  0  0  0  0  0  0  0
  186.9460  176.2460  143.4300 C   0  0  1  0  0  3  0  0  0  0  0  0
  188.9430  174.7490  140.8540 C   0  0  0  0  0  0  0  0  0  0  0  0
  187.4680  176.6650  144.7920 C   0  0  2  0  0  3  0  0  0  0  0  0
  189.5400  177.0150  146.1770 C   0  0  0  0  0  0  0  0  0  0  0  0
  190.0640  173.7650  140.6080 C   0  0  2  0  0  3  0  0  0  0  0  0
  188.8810  175.4780  142.0970 N   0  0  0  0  0  0  0  0  0  0  0  0
  193.7540  172.4100  144.5180 C   0  0  0  0  0  3  0  0  0  0  0  0
  186.9140  178.0600  144.9770 C   0  0  0  0  0  2  0  0  0  0  0  0
  185.6620  177.0360  143.2720 C   0  0  0  0  0  2  0  0  0  0  0  0
  192.7150  171.9530  142.4350 F   0  0  0  0  0  0  0  0  0  0  0  0
  191.0870  175.7160  145.1230 C   0  0  2  0  0  3  0  0  0  0  0  0
  193.8430  173.1600  145.6920 C   0  0  0  0  0  3  0  0  0  0  0  0
  191.9140  173.8010  143.7480 C   0  0  0  0  0  0  0  0  0  0  0  0
  189.7330  175.4940  144.4780 C   0  0  1  0  0  3  0  0  0  0  0  0
  189.0210  177.8490  146.9670 O   0  0  0  0  0  0  0  0  0  0  0  0
  188.9270  176.6180  144.9440 N   0  0  0  0  0  0  0  0  0  0  0  0
  185.6630  178.1380  144.2330 N   0  0  0  0  0  2  0  0  0  0  0  0
  188.4730  177.9190  142.1740 C   0  0  0  0  0  1  0  0  0  0  0  0
  192.9620  174.2200  145.9140 C   0  0  0  0  0  3  0  0  0  0  0  0
  191.9790  174.5230  144.9660 C   0  0  0  0  0  0  0  0  0  0  0  0
  187.8680  176.5180  142.2360 C   0  0  2  0  0  3  0  0  0  0  0  0
  189.5720  172.3250  140.7310 C   0  0  0  0  0  2  0  0  0  0  0  0
  189.5990  171.6300  138.6390 C   0  0  0  0  0  1  0  0  0  0  0  0
  190.2770  171.5060  139.8490 O   0  0  0  0  0  0  0  0  0  0  0  0
  1  5  1  6  0  0  0
  1  4  1  0  0  0  0
  1 19  1  0  0  0  0
  2 19  2  0  0  0  0
  2 13  1  0  0  0  0
  4 12  1  6  0  0  0
  4 20  1  0  0  0  0
  6  8  2  0  0  0  0
  7 15  1  6  0  0  0
  7  9  1  0  0  0  0
  8 12  1  0  0  0  0
  9 22  1  0  0  0  0
  9 14  1  6  0  0  0
 10  3  1  0  0  0  0
 10 21  2  0  0  0  0
 11 28  1  1  0  0  0
 11  8  1  0  0  0  0
 11  5  1  0  0  0  0
 12 27  1  0  0  0  0
 13 18  2  0  0  0  0
 15 23  1  0  0  0  0
 16  2  1  0  0  0  0
 17  3  1  1  0  0  0
 18 25  1  0  0  0  0
 19 26  1  0  0  0  0
 20 22  1  6  0  0  0
 20 17  1  0  0  0  0
 22 10  1  0  0  0  0
 23 14  1  0  0  0  0
 26 17  1  0  0  0  0
 26 25  2  0  0  0  0
 27 24  1  1  0  0  0
 27  7  1  0  0  0  0
 29 30  1  0  0  0  0
 30 28  1  0  0  0  0
M  END
>  <MODEL>
8

>  <REMARK>
 VINA RESULT:      -7.0      3.064      6.058
  Name = 
  2 active torsions:
  status: ('A' for Active; 'I' for Inactive)
    1  A    between atoms: C_11  and  C_28
    2  A    between atoms: C_28  and  O_30
                            x       y       z     vdW  Elec       q    Type
                         _______ _______ _______ _____ _____    ______ ____

>  <TORSDO>
F 2

$$$$
=
 OpenBabel11112416133D

 30 35  0  0  1  0  0  0  0  0999 V2000
  188.6720  175.1300  141.4890 C   0  0  1  0  0  3  0  0  0  0  0  0
  187.0560  176.4390  140.0130 C   0  0  0  0  0  0  0  0  0  0  0  0
  187.8560  177.8250  144.7940 C   0  0  0  0  0  2  0  0  0  0  0  0
  189.0210  174.8410  142.9660 C   0  0  1  0  0  3  0  0  0  0  0  0
  188.3650  173.9210  140.8380 O   0  0  0  0  0  0  0  0  0  0  0  0
  191.2450  172.1240  141.9760 O   0  0  0  0  0  0  0  0  0  0  0  0
  191.7640  174.8300  144.6900 C   0  0  1  0  0  3  0  0  0  0  0  0
  190.3790  173.0380  141.9090 C   0  0  0  0  0  0  0  0  0  0  0  0
  191.0760  175.9760  145.4060 C   0  0  2  0  0  3  0  0  0  0  0  0
  188.9100  177.2350  145.6570 C   0  0  0  0  0  0  0  0  0  0  0  0
  189.5730  173.2030  140.6410 C   0  0  2  0  0  3  0  0  0  0  0  0
  190.1770  173.9380  143.0170 N   0  0  0  0  0  0  0  0  0  0  0  0
  186.1580  177.4930  139.8190 C   0  0  0  0  0  3  0  0  0  0  0  0
  191.2310  175.6320  146.8710 C   0  0  0  0  0  2  0  0  0  0  0  0
  192.8020  174.3480  145.6850 C   0  0  0  0  0  2  0  0  0  0  0  0
  187.3950  175.6640  138.9530 F   0  0  0  0  0  0  0  0  0  0  0  0
  187.8210  176.7750  143.7090 C   0  0  2  0  0  3  0  0  0  0  0  0
  185.8090  178.3280  140.8830 C   0  0  0  0  0  3  0  0  0  0  0  0
  187.6060  176.2030  141.2860 C   0  0  0  0  0  0  0  0  0  0  0  0
  189.2200  176.1940  143.6430 C   0  0  1  0  0  3  0  0  0  0  0  0
  189.1460  177.6560  146.8210 O   0  0  0  0  0  0  0  0  0  0  0  0
  189.6740  176.1970  145.0300 N   0  0  0  0  0  0  0  0  0  0  0  0
  192.4570  174.8570  147.0120 N   0  0  0  0  0  2  0  0  0  0  0  0
  189.9230  173.1300  145.3430 C   0  0  0  0  0  1  0  0  0  0  0  0
  186.3660  178.1230  142.1460 C   0  0  0  0  0  3  0  0  0  0  0  0
  187.2860  177.0890  142.3460 C   0  0  0  0  0  0  0  0  0  0  0  0
  190.8710  173.6570  144.2690 C   0  0  2  0  0  3  0  0  0  0  0  0
  190.4200  173.8070  139.5230 C   0  0  0  0  0  2  0  0  0  0  0  0
  190.1250  172.3440  137.9000 C   0  0  0  0  0  1  0  0  0  0  0  0
  189.7780  173.6340  138.2970 O   0  0  0  0  0  0  0  0  0  0  0  0
  1  5  1  1  0  0  0
  1  4  1  0  0  0  0
  2 19  1  0  0  0  0
  3 10  1  0  0  0  0
  4 12  1  6  0  0  0
  4 20  1  0  0  0  0
  7  9  1  0  0  0  0
  7 15  1  1  0  0  0
  8  6  2  0  0  0  0
  8 12  1  0  0  0  0
  9 14  1  1  0  0  0
 10 21  2  0  0  0  0
 11 28  1  6  0  0  0
 11  5  1  0  0  0  0
 11  8  1  0  0  0  0
 12 27  1  0  0  0  0
 13  2  2  0  0  0  0
 13 18  1  0  0  0  0
 14 23  1  0  0  0  0
 15 23  1  0  0  0  0
 16  2  1  0  0  0  0
 17  3  1  1  0  0  0
 18 25  2  0  0  0  0
 19  1  1  0  0  0  0
 19 26  2  0  0  0  0
 20 17  1  0  0  0  0
 20 22  1  1  0  0  0
 22  9  1  0  0  0  0
 22 10  1  0  0  0  0
 25 26  1  0  0  0  0
 26 17  1  0  0  0  0
 27  7  1  0  0  0  0
 27 24  1  1  0  0  0
 29 30  1  0  0  0  0
 30 28  1  0  0  0  0
M  END
>  <MODEL>
9

>  <REMARK>
 VINA RESULT:      -6.9      2.565      4.336
  Name = 
  2 active torsions:
  status: ('A' for Active; 'I' for Inactive)
    1  A    between atoms: C_11  and  C_28
    2  A    between atoms: C_28  and  O_30
                            x       y       z     vdW  Elec       q    Type
                         _______ _______ _______ _____ _____    ______ ____

>  <TORSDO>
F 2

$$$$
