=
 OpenBabel11112417383D

 28 32  0  0  1  0  0  0  0  0999 V2000
  185.8240  178.1740  144.8640 C   0  0  0  0  0  0  0  0  0  0  0  0
  190.7020  178.4690  144.3660 O   0  0  0  0  0  0  0  0  0  0  0  0
  187.8260  175.0460  139.5330 C   0  0  0  0  0  1  0  0  0  0  0  0
  186.3260  177.0500  147.4060 C   0  0  0  0  0  3  0  0  0  0  0  0
  188.6740  174.2770  141.5710 C   0  0  2  0  0  3  0  0  0  0  0  0
  185.1490  178.4250  143.7770 N   0  0  0  0  0  0  0  0  0  0  0  0
  189.7970  177.6650  146.5210 O   0  0  0  0  0  0  0  0  0  0  0  0
  190.3170  177.2600  145.1720 S   0  0  0  0  0  0  0  0  0  0  0  0
  191.6710  174.8890  144.8220 C   0  0  0  0  0  0  0  0  0  0  0  0
  189.1430  176.3100  144.3060 C   0  0  0  0  0  0  0  0  0  0  0  0
  185.2360  178.1090  140.1390 C   0  0  0  0  0  1  0  0  0  0  0  0
  187.3080  175.6500  142.9340 C   0  0  2  0  0  3  0  0  0  0  0  0
  190.6590  174.4160  144.1490 N   0  0  0  0  0  0  0  0  0  0  0  0
  191.6780  176.2190  145.3580 N   0  0  0  0  0  2  0  0  0  0  0  0
  185.9820  178.2240  141.4520 C   0  0  2  0  0  3  0  0  0  0  0  0
  186.8230  177.0690  144.9930 C   0  0  0  0  0  0  0  0  0  0  0  0
  188.3230  175.4800  140.8310 N   0  0  0  0  0  0  0  0  0  0  0  0
  192.8620  174.0270  145.0310 C   0  0  0  0  0  1  0  0  0  0  0  0
  187.3380  177.5250  141.3240 C   0  0  0  0  0  2  0  0  0  0  0  0
  187.0050  176.5240  146.2060 C   0  0  0  0  0  3  0  0  0  0  0  0
  185.3920  178.8110  146.0700 N   0  0  0  0  0  2  0  0  0  0  0  0
  185.5930  178.1630  147.3330 C   0  0  0  0  0  3  0  0  0  0  0  0
  185.1310  177.6230  142.5600 C   0  0  0  0  0  2  0  0  0  0  0  0
  188.3290  174.5230  143.0310 C   0  0  2  0  0  3  0  0  0  0  0  0
  187.2350  176.0670  141.5090 N   0  0  2  0  0  0  0  0  0  0  0  0
  189.4340  175.1110  143.8520 C   0  0  0  0  0  0  0  0  0  0  0  0
  190.1160  173.8610  141.3000 C   0  0  0  0  0  1  0  0  0  0  0  0
  187.7970  176.7680  143.8740 C   0  0  1  0  0  3  0  0  0  0  0  0
  1 16  1  0  0  0  0
  1 21  1  0  0  0  0
  2  8  2  0  0  0  0
  3 17  1  0  0  0  0
  5 27  1  1  0  0  0
  5 24  1  0  0  0  0
  6  1  2  0  0  0  0
  8 14  1  0  0  0  0
  8  7  2  0  0  0  0
  9 18  1  0  0  0  0
  9 14  1  0  0  0  0
 10  8  1  0  0  0  0
 11 15  1  0  0  0  0
 12 24  1  0  0  0  0
 12 28  1  0  0  0  0
 13  9  2  0  0  0  0
 15 23  1  0  0  0  0
 16 20  2  0  0  0  0
 17 25  1  0  0  0  0
 17  5  1  0  0  0  0
 19 15  1  0  0  0  0
 19 25  1  0  0  0  0
 20  4  1  0  0  0  0
 21 22  1  0  0  0  0
 22  4  2  0  0  0  0
 23  6  1  0  0  0  0
 24 26  1  0  0  0  0
 25 12  1  0  0  0  0
 26 13  1  0  0  0  0
 26 10  2  0  0  0  0
 28 10  1  0  0  0  0
 28 16  1  0  0  0  0
M  END
>  <MODEL>
1

>  <REMARK>
 VINA RESULT:      -8.7      0.000      0.000
  Name = 
  0 active torsions:
  status: ('A' for Active; 'I' for Inactive)
                            x       y       z     vdW  Elec       q    Type
                         _______ _______ _______ _____ _____    ______ ____

>  <TORSDO>
F 0

$$$$
=
 OpenBabel11112417383D

 28 32  0  0  1  0  0  0  0  0999 V2000
  185.8290  177.4450  142.9030 C   0  0  0  0  0  0  0  0  0  0  0  0
  188.4210  173.2900  142.5190 O   0  0  0  0  0  0  0  0  0  0  0  0
  190.3810  177.0920  147.5240 C   0  0  0  0  0  1  0  0  0  0  0  0
  186.5950  177.9630  140.2340 C   0  0  0  0  0  3  0  0  0  0  0  0
  191.1390  177.0720  145.3140 C   0  0  2  0  0  3  0  0  0  0  0  0
  185.4280  177.7280  144.1100 N   0  0  0  0  0  0  0  0  0  0  0  0
  188.2000  174.7150  140.5120 O   0  0  0  0  0  0  0  0  0  0  0  0
  189.0470  174.3900  141.7090 S   0  0  0  0  0  0  0  0  0  0  0  0
  191.7870  174.6430  141.6250 C   0  0  0  0  0  0  0  0  0  0  0  0
  189.3000  175.7980  142.7010 C   0  0  0  0  0  0  0  0  0  0  0  0
  186.3420  177.4590  147.6360 C   0  0  0  0  0  1  0  0  0  0  0  0
  189.0300  177.5170  144.3320 C   0  0  2  0  0  3  0  0  0  0  0  0
  191.7130  175.6640  142.4330 N   0  0  0  0  0  0  0  0  0  0  0  0
  190.6250  173.9190  141.1980 N   0  0  0  0  0  2  0  0  0  0  0  0
  186.4490  176.9290  146.2220 C   0  0  2  0  0  3  0  0  0  0  0  0
  187.2640  177.2970  142.5100 C   0  0  0  0  0  0  0  0  0  0  0  0
  190.0920  176.5760  146.1940 N   0  0  0  0  0  0  0  0  0  0  0  0
  193.1200  174.2080  141.1360 C   0  0  0  0  0  1  0  0  0  0  0  0
  187.8000  176.2300  146.0460 C   0  0  0  0  0  2  0  0  0  0  0  0
  187.6040  177.5970  141.2460 C   0  0  0  0  0  3  0  0  0  0  0  0
  184.8680  177.5490  141.8470 N   0  0  0  0  0  2  0  0  0  0  0  0
  185.2930  177.8980  140.5240 C   0  0  0  0  0  3  0  0  0  0  0  0
  186.2710  178.0820  145.2460 C   0  0  0  0  0  2  0  0  0  0  0  0
  190.5010  177.3610  143.9640 C   0  0  2  0  0  3  0  0  0  0  0  0
  188.8910  177.1820  145.7730 N   0  0  2  0  0  0  0  0  0  0  0  0
  190.5100  176.2140  143.0020 C   0  0  0  0  0  0  0  0  0  0  0  0
  192.3330  176.1240  145.2830 C   0  0  0  0  0  1  0  0  0  0  0  0
  188.2430  176.5700  143.4050 C   0  0  1  0  0  3  0  0  0  0  0  0
  1  6  2  0  0  0  0
  4 22  2  0  0  0  0
  4 20  1  0  0  0  0
  5 27  1  6  0  0  0
  5 17  1  0  0  0  0
  6 23  1  0  0  0  0
  7  8  2  0  0  0  0
  8  2  2  0  0  0  0
  8 10  1  0  0  0  0
  9 13  2  0  0  0  0
 10 26  2  0  0  0  0
 10 28  1  0  0  0  0
 12 25  1  0  0  0  0
 13 26  1  0  0  0  0
 14  9  1  0  0  0  0
 14  8  1  0  0  0  0
 15 11  1  0  0  0  0
 16  1  1  0  0  0  0
 16 28  1  0  0  0  0
 17  3  1  0  0  0  0
 18  9  1  0  0  0  0
 19 15  1  0  0  0  0
 20 16  2  0  0  0  0
 21  1  1  0  0  0  0
 22 21  1  0  0  0  0
 23 15  1  0  0  0  0
 24 12  1  0  0  0  0
 24  5  1  0  0  0  0
 25 19  1  0  0  0  0
 25 17  1  0  0  0  0
 26 24  1  0  0  0  0
 28 12  1  0  0  0  0
M  END
>  <MODEL>
2

>  <REMARK>
 VINA RESULT:      -8.4      2.479      4.793
  Name = 
  0 active torsions:
  status: ('A' for Active; 'I' for Inactive)
                            x       y       z     vdW  Elec       q    Type
                         _______ _______ _______ _____ _____    ______ ____

>  <TORSDO>
F 0

$$$$
=
 OpenBabel11112417383D

 28 32  0  0  1  0  0  0  0  0999 V2000
  189.9860  174.5880  143.6300 C   0  0  0  0  0  0  0  0  0  0  0  0
  188.3280  178.5590  141.2600 O   0  0  0  0  0  0  0  0  0  0  0  0
  186.6920  178.4990  147.6380 C   0  0  0  0  0  1  0  0  0  0  0  0
  188.5830  173.0690  141.7050 C   0  0  0  0  0  3  0  0  0  0  0  0
  185.5090  177.6440  145.8120 C   0  0  2  0  0  3  0  0  0  0  0  0
  190.5610  174.8360  144.7720 N   0  0  0  0  0  0  0  0  0  0  0  0
  187.8100  176.3350  140.3130 O   0  0  0  0  0  0  0  0  0  0  0  0
  187.3240  177.4420  141.2050 S   0  0  0  0  0  0  0  0  0  0  0  0
  184.6390  177.9970  141.4480 C   0  0  0  0  0  0  0  0  0  0  0  0
  186.9880  176.8550  142.8080 C   0  0  0  0  0  0  0  0  0  0  0  0
  190.4890  177.0690  147.6620 C   0  0  0  0  0  1  0  0  0  0  0  0
  187.2180  176.1760  145.0830 C   0  0  2  0  0  3  0  0  0  0  0  0
  184.6590  177.5400  142.6690 N   0  0  0  0  0  0  0  0  0  0  0  0
  185.8130  178.0370  140.6260 N   0  0  0  0  0  2  0  0  0  0  0  0
  190.2030  176.8340  146.1940 C   0  0  2  0  0  3  0  0  0  0  0  0
  188.5670  174.9360  143.3130 C   0  0  0  0  0  0  0  0  0  0  0  0
  186.7990  178.1780  146.2210 N   0  0  0  0  0  0  0  0  0  0  0  0
  183.3580  178.5030  140.8910 C   0  0  0  0  0  1  0  0  0  0  0  0
  189.0290  177.7150  145.7620 C   0  0  0  0  0  2  0  0  0  0  0  0
  187.9120  174.1650  142.4290 C   0  0  0  0  0  3  0  0  0  0  0  0
  190.6580  173.6990  142.7320 N   0  0  0  0  0  2  0  0  0  0  0  0
  189.8990  172.8840  141.8290 C   0  0  0  0  0  3  0  0  0  0  0  0
  189.9200  175.3550  145.9740 C   0  0  0  0  0  2  0  0  0  0  0  0
  185.7720  176.5540  144.7860 C   0  0  2  0  0  3  0  0  0  0  0  0
  187.7260  177.1220  146.1100 N   0  0  2  0  0  0  0  0  0  0  0  0
  185.8070  177.0180  143.3630 C   0  0  0  0  0  0  0  0  0  0  0  0
  184.5680  178.7560  145.3590 C   0  0  0  0  0  1  0  0  0  0  0  0
  187.9770  176.2620  143.7450 C   0  0  1  0  0  3  0  0  0  0  0  0
  1  6  2  0  0  0  0
  4 22  2  0  0  0  0
  4 20  1  0  0  0  0
  5 27  1  6  0  0  0
  5 17  1  0  0  0  0
  6 23  1  0  0  0  0
  7  8  2  0  0  0  0
  8  2  2  0  0  0  0
  8 10  1  0  0  0  0
  9 13  2  0  0  0  0
 10 26  2  0  0  0  0
 10 28  1  0  0  0  0
 12 25  1  0  0  0  0
 13 26  1  0  0  0  0
 14  8  1  0  0  0  0
 14  9  1  0  0  0  0
 15 11  1  0  0  0  0
 16  1  1  0  0  0  0
 16 28  1  0  0  0  0
 17  3  1  0  0  0  0
 18  9  1  0  0  0  0
 19 25  1  0  0  0  0
 19 15  1  0  0  0  0
 20 16  2  0  0  0  0
 21  1  1  0  0  0  0
 22 21  1  0  0  0  0
 23 15  1  0  0  0  0
 24 12  1  0  0  0  0
 24  5  1  0  0  0  0
 25 17  1  0  0  0  0
 26 24  1  0  0  0  0
 28 12  1  0  0  0  0
M  END
>  <MODEL>
3

>  <REMARK>
 VINA RESULT:      -8.2      2.275      6.478
  Name = 
  0 active torsions:
  status: ('A' for Active; 'I' for Inactive)
                            x       y       z     vdW  Elec       q    Type
                         _______ _______ _______ _____ _____    ______ ____

>  <TORSDO>
F 0

$$$$
=
 OpenBabel11112417383D

 28 32  0  0  1  0  0  0  0  0999 V2000
  190.8040  174.0040  141.9410 C   0  0  0  0  0  0  0  0  0  0  0  0
  188.7660  178.4630  141.6340 O   0  0  0  0  0  0  0  0  0  0  0  0
  190.7930  176.9730  147.7190 C   0  0  0  0  0  1  0  0  0  0  0  0
  188.3790  173.0150  140.8810 C   0  0  0  0  0  3  0  0  0  0  0  0
  188.7050  176.6010  146.7360 C   0  0  2  0  0  3  0  0  0  0  0  0
  191.9290  173.9630  142.5960 N   0  0  0  0  0  0  0  0  0  0  0  0
  187.4920  176.5370  140.7560 O   0  0  0  0  0  0  0  0  0  0  0  0
  187.7310  177.4200  141.9460 S   0  0  0  0  0  0  0  0  0  0  0  0
  185.7100  177.9830  143.7290 C   0  0  0  0  0  0  0  0  0  0  0  0
  188.2160  176.4870  143.3330 C   0  0  0  0  0  0  0  0  0  0  0  0
  193.7490  175.4650  145.3840 C   0  0  0  0  0  1  0  0  0  0  0  0
  189.5160  175.2930  144.9370 C   0  0  2  0  0  3  0  0  0  0  0  0
  186.3080  177.2550  144.6300 N   0  0  0  0  0  0  0  0  0  0  0  0
  186.2560  178.1780  142.4170 N   0  0  0  0  0  2  0  0  0  0  0  0
  192.6930  175.5860  144.3060 C   0  0  2  0  0  3  0  0  0  0  0  0
  189.5070  174.4580  142.5300 C   0  0  0  0  0  0  0  0  0  0  0  0
  190.0790  176.9870  146.4500 N   0  0  0  0  0  0  0  0  0  0  0  0
  184.4240  178.6430  144.0740 C   0  0  0  0  0  1  0  0  0  0  0  0
  191.6190  176.5780  144.7600 C   0  0  0  0  0  2  0  0  0  0  0  0
  188.3730  173.9330  142.0360 C   0  0  0  0  0  3  0  0  0  0  0  0
  190.7490  173.3280  140.6800 N   0  0  0  0  0  2  0  0  0  0  0  0
  189.5130  172.7680  140.2210 C   0  0  0  0  0  3  0  0  0  0  0  0
  192.1150  174.2080  144.0210 C   0  0  0  0  0  2  0  0  0  0  0  0
  188.2110  175.7710  145.5630 C   0  0  2  0  0  3  0  0  0  0  0  0
  190.6300  175.9590  145.6590 N   0  0  2  0  0  0  0  0  0  0  0  0
  187.5540  176.5520  144.4670 C   0  0  0  0  0  0  0  0  0  0  0  0
  187.8500  177.8150  147.0860 C   0  0  0  0  0  1  0  0  0  0  0  0
  189.4480  175.6640  143.4420 C   0  0  1  0  0  3  0  0  0  0  0  0
  1 16  1  0  0  0  0
  1  6  2  0  0  0  0
  2  8  2  0  0  0  0
  4 20  1  0  0  0  0
  5 27  1  6  0  0  0
  6 23  1  0  0  0  0
  7  8  2  0  0  0  0
  8 14  1  0  0  0  0
  8 10  1  0  0  0  0
  9 18  1  0  0  0  0
  9 13  2  0  0  0  0
 10 28  1  0  0  0  0
 10 26  2  0  0  0  0
 12 24  1  0  0  0  0
 12 25  1  0  0  0  0
 14  9  1  0  0  0  0
 15 19  1  0  0  0  0
 15 11  1  0  0  0  0
 16 28  1  0  0  0  0
 17  5  1  0  0  0  0
 17  3  1  0  0  0  0
 19 25  1  0  0  0  0
 20 16  2  0  0  0  0
 21  1  1  0  0  0  0
 22 21  1  0  0  0  0
 22  4  2  0  0  0  0
 23 15  1  0  0  0  0
 24  5  1  0  0  0  0
 25 17  1  0  0  0  0
 26 13  1  0  0  0  0
 26 24  1  0  0  0  0
 28 12  1  0  0  0  0
M  END
>  <MODEL>
4

>  <REMARK>
 VINA RESULT:      -7.9      2.233      6.569
  Name = 
  0 active torsions:
  status: ('A' for Active; 'I' for Inactive)
                            x       y       z     vdW  Elec       q    Type
                         _______ _______ _______ _____ _____    ______ ____

>  <TORSDO>
F 0

$$$$
=
 OpenBabel11112417383D

 28 32  0  0  1  0  0  0  0  0999 V2000
  190.6130  174.1170  141.1920 C   0  0  0  0  0  0  0  0  0  0  0  0
  188.2570  177.9910  143.0800 O   0  0  0  0  0  0  0  0  0  0  0  0
  193.6770  176.3830  146.4540 C   0  0  0  0  0  1  0  0  0  0  0  0
  188.1820  172.7110  141.4960 C   0  0  0  0  0  3  0  0  0  0  0  0
  191.4820  175.6430  146.7660 C   0  0  2  0  0  3  0  0  0  0  0  0
  191.9020  174.2690  141.0710 N   0  0  0  0  0  0  0  0  0  0  0  0
  186.9630  175.9250  142.6740 O   0  0  0  0  0  0  0  0  0  0  0  0
  187.7520  176.7100  143.6820 S   0  0  0  0  0  0  0  0  0  0  0  0
  187.1410  176.6020  146.3640 C   0  0  0  0  0  0  0  0  0  0  0  0
  189.0800  175.7750  144.3070 C   0  0  0  0  0  0  0  0  0  0  0  0
  194.8190  175.8510  142.5970 C   0  0  0  0  0  1  0  0  0  0  0  0
  191.2160  174.7520  144.5870 C   0  0  2  0  0  3  0  0  0  0  0  0
  188.2440  175.9410  146.5840 N   0  0  0  0  0  0  0  0  0  0  0  0
  186.7680  177.0530  145.0550 N   0  0  0  0  0  2  0  0  0  0  0  0
  193.3240  175.8370  142.3600 C   0  0  2  0  0  3  0  0  0  0  0  0
  189.8790  174.1940  142.4920 C   0  0  0  0  0  0  0  0  0  0  0  0
  192.3520  176.3640  145.8490 N   0  0  0  0  0  0  0  0  0  0  0  0
  186.2440  176.9060  147.5080 C   0  0  0  0  0  1  0  0  0  0  0  0
  192.6190  176.5000  143.5460 C   0  0  0  0  0  2  0  0  0  0  0  0
  188.7520  173.4760  142.6220 C   0  0  0  0  0  3  0  0  0  0  0  0
  189.9040  173.5820  140.0700 N   0  0  0  0  0  2  0  0  0  0  0  0
  188.7190  172.8020  140.2780 C   0  0  0  0  0  3  0  0  0  0  0  0
  192.8680  174.4000  142.1550 C   0  0  0  0  0  2  0  0  0  0  0  0
  190.4940  174.8490  145.9270 C   0  0  2  0  0  3  0  0  0  0  0  0
  192.4480  175.5790  144.6820 N   0  0  2  0  0  0  0  0  0  0  0  0
  189.2230  175.5660  145.5970 C   0  0  0  0  0  0  0  0  0  0  0  0
  190.8600  176.5830  147.7940 C   0  0  0  0  0  1  0  0  0  0  0  0
  190.2250  175.2520  143.5180 C   0  0  1  0  0  3  0  0  0  0  0  0
  1 16  1  0  0  0  0
  2  8  2  0  0  0  0
  4 20  1  0  0  0  0
  5 27  1  1  0  0  0
  6  1  2  0  0  0  0
  6 23  1  0  0  0  0
  7  8  2  0  0  0  0
  8 10  1  0  0  0  0
  8 14  1  0  0  0  0
  9 13  2  0  0  0  0
  9 18  1  0  0  0  0
 10 26  2  0  0  0  0
 12 25  1  0  0  0  0
 12 24  1  0  0  0  0
 14  9  1  0  0  0  0
 15 11  1  0  0  0  0
 15 19  1  0  0  0  0
 16 20  2  0  0  0  0
 16 28  1  0  0  0  0
 17  3  1  0  0  0  0
 17  5  1  0  0  0  0
 19 25  1  0  0  0  0
 21 22  1  0  0  0  0
 21  1  1  0  0  0  0
 22  4  2  0  0  0  0
 23 15  1  0  0  0  0
 24  5  1  0  0  0  0
 25 17  1  0  0  0  0
 26 24  1  0  0  0  0
 26 13  1  0  0  0  0
 28 10  1  0  0  0  0
 28 12  1  0  0  0  0
M  END
>  <MODEL>
5

>  <REMARK>
 VINA RESULT:      -7.9      2.663      6.351
  Name = 
  0 active torsions:
  status: ('A' for Active; 'I' for Inactive)
                            x       y       z     vdW  Elec       q    Type
                         _______ _______ _______ _____ _____    ______ ____

>  <TORSDO>
F 0

$$$$
=
 OpenBabel11112417383D

 28 32  0  0  1  0  0  0  0  0999 V2000
  193.3400  174.4210  144.7810 C   0  0  0  0  0  0  0  0  0  0  0  0
  188.9410  174.1660  146.9540 O   0  0  0  0  0  0  0  0  0  0  0  0
  188.5660  174.1710  140.3810 C   0  0  0  0  0  1  0  0  0  0  0  0
  193.7400  176.7910  146.2640 C   0  0  0  0  0  3  0  0  0  0  0  0
  188.5300  175.9850  141.8530 C   0  0  2  0  0  3  0  0  0  0  0  0
  193.5160  173.5730  143.8070 N   0  0  0  0  0  0  0  0  0  0  0  0
  190.4760  175.9790  147.6380 O   0  0  0  0  0  0  0  0  0  0  0  0
  189.3460  175.5950  146.7260 S   0  0  0  0  0  0  0  0  0  0  0  0
  187.4650  177.4430  145.9360 C   0  0  0  0  0  0  0  0  0  0  0  0
  189.7740  175.8400  145.0570 C   0  0  0  0  0  0  0  0  0  0  0  0
  191.7960  171.8220  141.1030 C   0  0  0  0  0  1  0  0  0  0  0  0
  190.6280  175.5270  142.8530 C   0  0  2  0  0  3  0  0  0  0  0  0
  187.9470  177.4080  144.7240 N   0  0  0  0  0  0  0  0  0  0  0  0
  187.9990  176.6370  146.9950 N   0  0  0  0  0  2  0  0  0  0  0  0
  191.7390  172.4950  142.4580 C   0  0  2  0  0  3  0  0  0  0  0  0
  192.2680  175.4640  144.8000 C   0  0  0  0  0  0  0  0  0  0  0  0
  188.7950  174.5570  141.7660 N   0  0  0  0  0  0  0  0  0  0  0  0
  186.3170  178.3400  146.2280 C   0  0  0  0  0  1  0  0  0  0  0  0
  190.3400  173.0790  142.6730 C   0  0  0  0  0  2  0  0  0  0  0  0
  192.5090  176.6000  145.4750 C   0  0  0  0  0  3  0  0  0  0  0  0
  194.3850  174.5380  145.7520 N   0  0  0  0  0  2  0  0  0  0  0  0
  194.6060  175.7870  146.4190 C   0  0  0  0  0  3  0  0  0  0  0  0
  192.8200  173.5630  142.5260 C   0  0  0  0  0  2  0  0  0  0  0  0
  189.5190  176.5720  142.8480 C   0  0  2  0  0  3  0  0  0  0  0  0
  190.1720  174.3860  142.0160 N   0  0  2  0  0  0  0  0  0  0  0  0
  189.0460  176.5990  144.2680 C   0  0  0  0  0  0  0  0  0  0  0  0
  187.0600  176.2590  142.1530 C   0  0  0  0  0  1  0  0  0  0  0  0
  190.8670  175.1460  144.3270 C   0  0  1  0  0  3  0  0  0  0  0  0
  1 16  1  0  0  0  0
  1 21  1  0  0  0  0
  3 17  1  0  0  0  0
  4 22  2  0  0  0  0
  5 27  1  1  0  0  0
  5 24  1  0  0  0  0
  6  1  2  0  0  0  0
  8  2  2  0  0  0  0
  8 14  1  0  0  0  0
  8  7  2  0  0  0  0
  9 18  1  0  0  0  0
  9 14  1  0  0  0  0
 10  8  1  0  0  0  0
 11 15  1  0  0  0  0
 12 28  1  0  0  0  0
 13  9  2  0  0  0  0
 15 23  1  0  0  0  0
 15 19  1  0  0  0  0
 16 20  2  0  0  0  0
 17  5  1  0  0  0  0
 17 25  1  0  0  0  0
 20  4  1  0  0  0  0
 21 22  1  0  0  0  0
 23  6  1  0  0  0  0
 24 12  1  0  0  0  0
 24 26  1  0  0  0  0
 25 19  1  0  0  0  0
 25 12  1  0  0  0  0
 26 13  1  0  0  0  0
 26 10  2  0  0  0  0
 28 16  1  0  0  0  0
 28 10  1  0  0  0  0
M  END
>  <MODEL>
6

>  <REMARK>
 VINA RESULT:      -7.6      2.175      5.839
  Name = 
  0 active torsions:
  status: ('A' for Active; 'I' for Inactive)
                            x       y       z     vdW  Elec       q    Type
                         _______ _______ _______ _____ _____    ______ ____

>  <TORSDO>
F 0

$$$$
=
 OpenBabel11112417383D

 28 32  0  0  1  0  0  0  0  0999 V2000
  187.6640  176.5740  144.8960 C   0  0  0  0  0  0  0  0  0  0  0  0
  188.9410  172.0220  143.5610 O   0  0  0  0  0  0  0  0  0  0  0  0
  194.0930  175.7320  145.3090 C   0  0  0  0  0  1  0  0  0  0  0  0
  186.4500  176.7910  142.3550 C   0  0  0  0  0  3  0  0  0  0  0  0
  193.1400  175.4490  143.1940 C   0  0  2  0  0  3  0  0  0  0  0  0
  188.2170  176.9930  145.9990 N   0  0  0  0  0  0  0  0  0  0  0  0
  187.5360  173.3400  142.0130 O   0  0  0  0  0  0  0  0  0  0  0  0
  188.9390  172.9480  142.3780 S   0  0  0  0  0  0  0  0  0  0  0  0
  190.8990  172.7250  140.4570 C   0  0  0  0  0  0  0  0  0  0  0  0
  189.9160  174.3500  142.7090 C   0  0  0  0  0  0  0  0  0  0  0  0
  191.2570  176.7870  148.0130 C   0  0  0  0  0  1  0  0  0  0  0  0
  190.9730  176.1850  143.8050 C   0  0  2  0  0  3  0  0  0  0  0  0
  191.4800  173.7910  140.9340 N   0  0  0  0  0  0  0  0  0  0  0  0
  189.7010  172.1850  141.0320 N   0  0  0  0  0  2  0  0  0  0  0  0
  190.3290  176.1610  146.9930 C   0  0  2  0  0  3  0  0  0  0  0  0
  188.4290  176.1600  143.6810 C   0  0  0  0  0  0  0  0  0  0  0  0
  192.9340  175.1920  144.6110 N   0  0  0  0  0  0  0  0  0  0  0  0
  191.5010  172.0400  139.2850 C   0  0  0  0  0  1  0  0  0  0  0  0
  191.1340  175.2340  146.0800 C   0  0  0  0  0  2  0  0  0  0  0  0
  187.8430  176.3200  142.4830 C   0  0  0  0  0  3  0  0  0  0  0  0
  186.2550  176.7760  144.7450 N   0  0  0  0  0  2  0  0  0  0  0  0
  185.6940  176.9660  143.4400 C   0  0  0  0  0  3  0  0  0  0  0  0
  189.6320  177.2670  146.2130 C   0  0  0  0  0  2  0  0  0  0  0  0
  191.7820  175.7590  142.5850 C   0  0  2  0  0  3  0  0  0  0  0  0
  191.8230  175.9670  145.0040 N   0  0  2  0  0  0  0  0  0  0  0  0
  191.0370  174.5710  142.0590 C   0  0  0  0  0  0  0  0  0  0  0  0
  193.9090  174.3100  142.5310 C   0  0  0  0  0  1  0  0  0  0  0  0
  189.6900  175.3320  143.8010 C   0  0  1  0  0  3  0  0  0  0  0  0
  1  6  2  0  0  0  0
  4 20  1  0  0  0  0
  4 22  2  0  0  0  0
  5 27  1  6  0  0  0
  5 17  1  0  0  0  0
  6 23  1  0  0  0  0
  7  8  2  0  0  0  0
  8 10  1  0  0  0  0
  8  2  2  0  0  0  0
  9 13  2  0  0  0  0
  9 14  1  0  0  0  0
 10 28  1  0  0  0  0
 12 25  1  0  0  0  0
 13 26  1  0  0  0  0
 14  8  1  0  0  0  0
 15 11  1  0  0  0  0
 16 28  1  0  0  0  0
 16  1  1  0  0  0  0
 17 25  1  0  0  0  0
 17  3  1  0  0  0  0
 18  9  1  0  0  0  0
 19 15  1  0  0  0  0
 20 16  2  0  0  0  0
 21  1  1  0  0  0  0
 22 21  1  0  0  0  0
 23 15  1  0  0  0  0
 24  5  1  0  0  0  0
 24 12  1  0  0  0  0
 25 19  1  0  0  0  0
 26 24  1  0  0  0  0
 26 10  2  0  0  0  0
 28 12  1  0  0  0  0
M  END
>  <MODEL>
7

>  <REMARK>
 VINA RESULT:      -7.5      2.884      5.281
  Name = 
  0 active torsions:
  status: ('A' for Active; 'I' for Inactive)
                            x       y       z     vdW  Elec       q    Type
                         _______ _______ _______ _____ _____    ______ ____

>  <TORSDO>
F 0

$$$$
=
 OpenBabel11112417383D

 28 32  0  0  1  0  0  0  0  0999 V2000
  187.0030  177.4740  144.7100 C   0  0  0  0  0  0  0  0  0  0  0  0
  191.9030  177.4790  144.3740 O   0  0  0  0  0  0  0  0  0  0  0  0
  189.0090  173.8320  139.7190 C   0  0  0  0  0  1  0  0  0  0  0  0
  187.3590  176.5340  147.3500 C   0  0  0  0  0  3  0  0  0  0  0  0
  189.7460  173.1860  141.8400 C   0  0  2  0  0  3  0  0  0  0  0  0
  186.3790  177.6720  143.5830 N   0  0  0  0  0  0  0  0  0  0  0  0
  190.8850  176.8980  146.5490 O   0  0  0  0  0  0  0  0  0  0  0  0
  191.4270  176.3600  145.2560 S   0  0  0  0  0  0  0  0  0  0  0  0
  192.6630  173.9030  145.1430 C   0  0  0  0  0  0  0  0  0  0  0  0
  190.2330  175.4050  144.4240 C   0  0  0  0  0  0  0  0  0  0  0  0
  186.5680  177.0630  139.9870 C   0  0  0  0  0  1  0  0  0  0  0  0
  188.4110  174.7320  143.0400 C   0  0  2  0  0  3  0  0  0  0  0  0
  191.6490  173.4290  144.4720 N   0  0  0  0  0  0  0  0  0  0  0  0
  192.7230  175.2690  145.5740 N   0  0  0  0  0  2  0  0  0  0  0  0
  187.2760  177.2440  141.3130 C   0  0  2  0  0  3  0  0  0  0  0  0
  187.9360  176.3340  144.9620 C   0  0  0  0  0  0  0  0  0  0  0  0
  189.4850  174.3430  140.9970 N   0  0  0  0  0  0  0  0  0  0  0  0
  193.7980  173.0000  145.4630 C   0  0  0  0  0  1  0  0  0  0  0  0
  188.5960  176.4690  141.2910 C   0  0  0  0  0  2  0  0  0  0  0  0
  188.0480  175.8790  146.2210 C   0  0  0  0  0  3  0  0  0  0  0  0
  186.5660  178.2270  145.8470 N   0  0  0  0  0  2  0  0  0  0  0  0
  186.6900  177.6730  147.1630 C   0  0  0  0  0  3  0  0  0  0  0  0
  186.3570  176.7770  142.4330 C   0  0  0  0  0  2  0  0  0  0  0  0
  189.3670  173.5660  143.2630 C   0  0  2  0  0  3  0  0  0  0  0  0
  188.4090  175.0370  141.5860 N   0  0  2  0  0  0  0  0  0  0  0  0
  190.4740  174.1600  144.0760 C   0  0  0  0  0  0  0  0  0  0  0  0
  191.1720  172.6770  141.6570 C   0  0  0  0  0  1  0  0  0  0  0  0
  188.9290  175.8950  143.9080 C   0  0  1  0  0  3  0  0  0  0  0  0
  1 16  1  0  0  0  0
  1 21  1  0  0  0  0
  2  8  2  0  0  0  0
  3 17  1  0  0  0  0
  5 27  1  1  0  0  0
  5 24  1  0  0  0  0
  6  1  2  0  0  0  0
  8 14  1  0  0  0  0
  8  7  2  0  0  0  0
  9 18  1  0  0  0  0
  9 14  1  0  0  0  0
 10  8  1  0  0  0  0
 11 15  1  0  0  0  0
 12 24  1  0  0  0  0
 12 28  1  0  0  0  0
 13  9  2  0  0  0  0
 15 23  1  0  0  0  0
 16 20  2  0  0  0  0
 17 25  1  0  0  0  0
 17  5  1  0  0  0  0
 19 15  1  0  0  0  0
 19 25  1  0  0  0  0
 20  4  1  0  0  0  0
 21 22  1  0  0  0  0
 22  4  2  0  0  0  0
 23  6  1  0  0  0  0
 24 26  1  0  0  0  0
 25 12  1  0  0  0  0
 26 10  2  0  0  0  0
 26 13  1  0  0  0  0
 28 10  1  0  0  0  0
 28 16  1  0  0  0  0
M  END
>  <MODEL>
8

>  <REMARK>
 VINA RESULT:      -7.5      1.261      1.466
  Name = 
  0 active torsions:
  status: ('A' for Active; 'I' for Inactive)
                            x       y       z     vdW  Elec       q    Type
                         _______ _______ _______ _____ _____    ______ ____

>  <TORSDO>
F 0

$$$$
=
 OpenBabel11112417383D

 28 32  0  0  1  0  0  0  0  0999 V2000
  187.5300  176.0310  140.2600 C   0  0  0  0  0  0  0  0  0  0  0  0
  191.5840  177.2110  142.7710 O   0  0  0  0  0  0  0  0  0  0  0  0
  191.2210  170.7940  141.3400 C   0  0  0  0  0  1  0  0  0  0  0  0
  186.0830  177.1770  142.3980 C   0  0  0  0  0  3  0  0  0  0  0  0
  190.4350  171.9220  143.2300 C   0  0  2  0  0  3  0  0  0  0  0  0
  187.7340  175.2630  139.2260 N   0  0  0  0  0  0  0  0  0  0  0  0
  189.3990  177.9190  143.6850 O   0  0  0  0  0  0  0  0  0  0  0  0
  190.4590  176.8550  143.7030 S   0  0  0  0  0  0  0  0  0  0  0  0
  190.9730  175.3970  145.9800 C   0  0  0  0  0  0  0  0  0  0  0  0
  189.7980  175.3020  143.2810 C   0  0  0  0  0  0  0  0  0  0  0  0
  189.8340  172.5570  137.9580 C   0  0  0  0  0  1  0  0  0  0  0  0
  189.0210  173.4110  142.0520 C   0  0  2  0  0  3  0  0  0  0  0  0
  190.4620  174.3400  145.4130 N   0  0  0  0  0  0  0  0  0  0  0  0
  191.0630  176.6590  145.3060 N   0  0  0  0  0  2  0  0  0  0  0  0
  189.6620  173.7460  138.8810 C   0  0  2  0  0  3  0  0  0  0  0  0
  187.8760  175.6540  141.6640 C   0  0  0  0  0  0  0  0  0  0  0  0
  190.9650  172.1180  141.8900 N   0  0  0  0  0  0  0  0  0  0  0  0
  191.4890  175.2900  147.3690 C   0  0  0  0  0  1  0  0  0  0  0  0
  190.5480  173.5590  140.1150 C   0  0  0  0  0  2  0  0  0  0  0  0
  187.1380  176.1790  142.6560 C   0  0  0  0  0  3  0  0  0  0  0  0
  186.6890  177.1750  140.0770 N   0  0  0  0  0  2  0  0  0  0  0  0
  185.9070  177.6710  141.1700 C   0  0  0  0  0  3  0  0  0  0  0  0
  188.1910  173.8790  139.2480 C   0  0  0  0  0  2  0  0  0  0  0  0
  189.3950  173.0030  143.4720 C   0  0  2  0  0  3  0  0  0  0  0  0
  189.9250  172.6850  141.1240 N   0  0  2  0  0  0  0  0  0  0  0  0
  189.9230  174.2650  144.0800 C   0  0  0  0  0  0  0  0  0  0  0  0
  191.5560  171.8490  144.2630 C   0  0  0  0  0  1  0  0  0  0  0  0
  189.1740  174.9430  141.9810 C   0  0  1  0  0  3  0  0  0  0  0  0
  1 16  1  0  0  0  0
  2  8  2  0  0  0  0
  3 17  1  0  0  0  0
  4 20  1  0  0  0  0
  5 24  1  0  0  0  0
  5 27  1  1  0  0  0
  6 23  1  0  0  0  0
  6  1  2  0  0  0  0
  7  8  2  0  0  0  0
  8 14  1  0  0  0  0
  9 18  1  0  0  0  0
 10  8  1  0  0  0  0
 10 26  2  0  0  0  0
 11 15  1  0  0  0  0
 12 24  1  0  0  0  0
 13  9  2  0  0  0  0
 14  9  1  0  0  0  0
 15 23  1  0  0  0  0
 15 19  1  0  0  0  0
 16 28  1  0  0  0  0
 16 20  2  0  0  0  0
 17  5  1  0  0  0  0
 19 25  1  0  0  0  0
 21  1  1  0  0  0  0
 21 22  1  0  0  0  0
 22  4  2  0  0  0  0
 24 26  1  0  0  0  0
 25 17  1  0  0  0  0
 25 12  1  0  0  0  0
 26 13  1  0  0  0  0
 28 12  1  0  0  0  0
 28 10  1  0  0  0  0
M  END
>  <MODEL>
9

>  <REMARK>
 VINA RESULT:      -6.9      2.522      4.253
  Name = 
  0 active torsions:
  status: ('A' for Active; 'I' for Inactive)
                            x       y       z     vdW  Elec       q    Type
                         _______ _______ _______ _____ _____    ______ ____

>  <TORSDO>
F 0

$$$$
