=
 OpenBabel11112416573D

 31 35  0  0  1  0  0  0  0  0999 V2000
  184.6460  178.2760  146.6300 C   0  0  0  0  0  0  0  0  0  0  0  0
  187.3590  177.3500  144.0810 C   0  0  0  0  0  0  0  0  0  0  0  0
  186.8130  177.5020  142.7720 C   0  0  0  0  0  0  0  0  0  0  0  0
  184.9580  177.9570  141.2520 C   0  0  0  0  0  0  0  0  0  0  0  0
  186.5870  177.5720  145.3530 C   0  0  0  0  0  0  0  0  0  0  0  0
  185.4630  178.1790  147.8800 C   0  0  0  0  0  2  0  0  0  0  0  0
  185.4610  177.8120  142.5470 C   0  0  0  0  0  3  0  0  0  0  0  0
  189.3520  176.7750  145.5050 C   0  0  0  0  0  0  0  0  0  0  0  0
  183.4470  178.6530  146.6640 O   0  0  0  0  0  0  0  0  0  0  0  0
  188.9940  177.0270  141.8200 C   0  0  0  0  0  3  0  0  0  0  0  0
  183.2690  178.3440  141.0100 Cl  0  0  0  0  0  0  0  0  0  0  0  0
  188.4550  176.5240  146.6770 C   0  0  0  0  0  2  0  0  0  0  0  0
  188.7310  177.0070  144.1860 C   0  0  0  0  0  0  0  0  0  0  0  0
  190.6500  176.6960  145.5930 N   0  0  0  0  0  0  0  0  0  0  0  0
  185.3070  177.9740  145.3570 C   0  0  0  0  0  3  0  0  0  0  0  0
  185.8010  177.7940  140.1530 C   0  0  0  0  0  3  0  0  0  0  0  0
  187.3040  177.5170  146.7000 C   0  0  2  0  0  3  0  0  0  0  0  0
  186.4170  177.1520  147.7400 O   0  0  0  0  0  0  0  0  0  0  0  0
  189.4950  176.8680  143.0680 N   0  0  0  0  0  0  0  0  0  0  0  0
  187.6520  177.3370  141.6430 C   0  0  0  0  0  0  0  0  0  0  0  0
  187.1470  177.4840  140.3490 C   0  0  0  0  0  3  0  0  0  0  0  0
  191.1540  176.9620  147.8790 O   0  0  0  0  0  0  0  0  0  0  0  0
  191.4380  176.4400  146.7690 C   0  0  0  0  0  0  0  0  0  0  0  0
  194.6990  174.1760  145.1070 C   0  0  1  0  0  3  0  0  0  0  0  0
  192.3000  174.3430  145.7850 C   0  0  0  0  0  2  0  0  0  0  0  0
  194.1920  177.3290  147.0240 O   0  0  0  0  0  1  0  0  0  0  0  0
  195.7940  173.3200  145.0120 O   0  0  0  0  0  1  0  0  0  0  0  0
  193.5050  173.4140  145.6720 C   0  0  0  0  0  2  0  0  0  0  0  0
  193.8550  176.2930  146.1520 C   0  0  2  0  0  3  0  0  0  0  0  0
  192.6270  175.5390  146.6800 C   0  0  1  0  0  3  0  0  0  0  0  0
  195.0460  175.3480  146.0180 C   0  0  0  0  0  2  0  0  0  0  0  0
  1  9  2  0  0  0  0
  1  6  1  0  0  0  0
  2 13  1  0  0  0  0
  2  5  1  0  0  0  0
  3  2  2  0  0  0  0
  4  7  2  0  0  0  0
  5 15  2  0  0  0  0
  5 17  1  0  0  0  0
  7  3  1  0  0  0  0
  8 14  2  0  0  0  0
  8 12  1  0  0  0  0
 10 19  1  0  0  0  0
 11  4  1  0  0  0  0
 13  8  1  0  0  0  0
 14 23  1  0  0  0  0
 15  1  1  0  0  0  0
 16 21  2  0  0  0  0
 16  4  1  0  0  0  0
 17 12  1  6  0  0  0
 17 18  1  0  0  0  0
 18  6  1  0  0  0  0
 19 13  2  0  0  0  0
 20 10  2  0  0  0  0
 20  3  1  0  0  0  0
 21 20  1  0  0  0  0
 23 22  2  0  0  0  0
 24 27  1  1  0  0  0
 24 28  1  0  0  0  0
 24 31  1  0  0  0  0
 25 30  1  0  0  0  0
 28 25  1  0  0  0  0
 29 30  1  0  0  0  0
 29 26  1  1  0  0  0
 30 23  1  6  0  0  0
 31 29  1  0  0  0  0
M  END
>  <MODEL>
1

>  <REMARK>
 VINA RESULT:      -9.5      0.000      0.000
  Name = 
  2 active torsions:
  status: ('A' for Active; 'I' for Inactive)
    1  A    between atoms: C_5  and  N_16
    2  A    between atoms: C_5  and  C_30
                            x       y       z     vdW  Elec       q    Type
                         _______ _______ _______ _____ _____    ______ ____

>  <TORSDO>
F 2

$$$$
=
 OpenBabel11112416573D

 31 35  0  0  1  0  0  0  0  0999 V2000
  184.8470  178.0250  146.9050 C   0  0  0  0  0  0  0  0  0  0  0  0
  186.9500  177.4380  143.7510 C   0  0  0  0  0  0  0  0  0  0  0  0
  186.1200  177.6600  142.6130 C   0  0  0  0  0  0  0  0  0  0  0  0
  183.9570  178.1310  141.5850 C   0  0  0  0  0  0  0  0  0  0  0  0
  186.4750  177.5220  145.1770 C   0  0  0  0  0  0  0  0  0  0  0  0
  185.9270  177.8750  147.9310 C   0  0  0  0  0  2  0  0  0  0  0  0
  184.7420  177.9150  142.7190 C   0  0  0  0  0  3  0  0  0  0  0  0
  189.2300  176.8610  144.6460 C   0  0  0  0  0  0  0  0  0  0  0  0
  183.6740  178.3350  147.2350 O   0  0  0  0  0  0  0  0  0  0  0  0
  188.0470  177.3730  141.1670 C   0  0  0  0  0  3  0  0  0  0  0  0
  182.2450  178.4480  141.7550 Cl  0  0  0  0  0  0  0  0  0  0  0  0
  188.6270  176.4750  145.9620 C   0  0  0  0  0  2  0  0  0  0  0  0
  188.3220  177.1600  143.5210 C   0  0  0  0  0  0  0  0  0  0  0  0
  190.5170  176.8440  144.4390 N   0  0  0  0  0  0  0  0  0  0  0  0
  185.2160  177.8550  145.4970 C   0  0  0  0  0  3  0  0  0  0  0  0
  184.5380  178.0980  140.3160 C   0  0  0  0  0  3  0  0  0  0  0  0
  187.4780  177.4020  146.3230 C   0  0  2  0  0  3  0  0  0  0  0  0
  186.8590  176.9130  147.4970 O   0  0  0  0  0  0  0  0  0  0  0  0
  188.8200  177.1470  142.2550 N   0  0  0  0  0  0  0  0  0  0  0  0
  186.6900  177.6250  141.3170 C   0  0  0  0  0  0  0  0  0  0  0  0
  185.9030  177.8440  140.1830 C   0  0  0  0  0  3  0  0  0  0  0  0
  191.4180  176.7770  146.6150 O   0  0  0  0  0  0  0  0  0  0  0  0
  191.5560  176.5410  145.3860 C   0  0  0  0  0  0  0  0  0  0  0  0
  195.5500  174.9380  145.4240 C   0  0  1  0  0  3  0  0  0  0  0  0
  193.9980  176.8830  145.2100 C   0  0  0  0  0  2  0  0  0  0  0  0
  192.0500  173.6840  145.1970 O   0  0  0  0  0  1  0  0  0  0  0  0
  196.7550  174.3940  144.9840 O   0  0  0  0  0  1  0  0  0  0  0  0
  195.3170  176.2800  144.7400 C   0  0  0  0  0  2  0  0  0  0  0  0
  193.0740  174.5620  145.5520 C   0  0  2  0  0  3  0  0  0  0  0  0
  192.8370  175.9350  144.9080 C   0  0  1  0  0  3  0  0  0  0  0  0
  194.4090  173.9810  145.0950 C   0  0  0  0  0  2  0  0  0  0  0  0
  1  9  2  0  0  0  0
  1  6  1  0  0  0  0
  2  5  1  0  0  0  0
  3  7  1  0  0  0  0
  3  2  2  0  0  0  0
  4 11  1  0  0  0  0
  4  7  2  0  0  0  0
  5 15  2  0  0  0  0
  5 17  1  0  0  0  0
  8 12  1  0  0  0  0
 10 20  2  0  0  0  0
 10 19  1  0  0  0  0
 13  2  1  0  0  0  0
 13  8  1  0  0  0  0
 14  8  2  0  0  0  0
 14 23  1  0  0  0  0
 15  1  1  0  0  0  0
 16  4  1  0  0  0  0
 17 12  1  6  0  0  0
 17 18  1  0  0  0  0
 18  6  1  0  0  0  0
 19 13  2  0  0  0  0
 20  3  1  0  0  0  0
 21 16  2  0  0  0  0
 21 20  1  0  0  0  0
 23 22  2  0  0  0  0
 24 27  1  6  0  0  0
 28 25  1  0  0  0  0
 28 24  1  0  0  0  0
 29 26  1  6  0  0  0
 30 25  1  0  0  0  0
 30 23  1  1  0  0  0
 30 29  1  0  0  0  0
 31 24  1  0  0  0  0
 31 29  1  0  0  0  0
M  END
>  <MODEL>
2

>  <REMARK>
 VINA RESULT:      -9.0      1.142      1.576
  Name = 
  2 active torsions:
  status: ('A' for Active; 'I' for Inactive)
    1  A    between atoms: C_5  and  N_16
    2  A    between atoms: C_5  and  C_30
                            x       y       z     vdW  Elec       q    Type
                         _______ _______ _______ _____ _____    ______ ____

>  <TORSDO>
F 2

$$$$
=
 OpenBabel11112416573D

 31 35  0  0  1  0  0  0  0  0999 V2000
  188.3070  175.2090  140.9050 C   0  0  0  0  0  0  0  0  0  0  0  0
  187.5500  176.8800  144.2730 C   0  0  0  0  0  0  0  0  0  0  0  0
  186.2800  177.5220  144.1780 C   0  0  0  0  0  0  0  0  0  0  0  0
  184.3120  178.2270  142.9170 C   0  0  0  0  0  0  0  0  0  0  0  0
  188.2210  176.1550  143.1380 C   0  0  0  0  0  0  0  0  0  0  0  0
  189.5770  174.5100  141.2760 C   0  0  0  0  0  2  0  0  0  0  0  0
  185.5560  177.5940  142.9760 C   0  0  0  0  0  3  0  0  0  0  0  0
  189.5450  176.3040  145.6940 C   0  0  0  0  0  0  0  0  0  0  0  0
  187.7940  175.0670  139.7650 O   0  0  0  0  0  0  0  0  0  0  0  0
  186.3920  178.0680  146.5400 C   0  0  0  0  0  3  0  0  0  0  0  0
  183.4390  178.2970  141.4030 Cl  0  0  0  0  0  0  0  0  0  0  0  0
  190.3590  176.0470  144.4630 C   0  0  0  0  0  2  0  0  0  0  0  0
  188.2020  176.8950  145.5330 C   0  0  0  0  0  0  0  0  0  0  0  0
  190.0190  176.1170  146.8930 N   0  0  0  0  0  0  0  0  0  0  0  0
  187.6490  176.0200  141.9330 C   0  0  0  0  0  3  0  0  0  0  0  0
  183.7660  178.8010  144.0650 C   0  0  0  0  0  3  0  0  0  0  0  0
  189.5160  175.3850  143.3850 C   0  0  2  0  0  3  0  0  0  0  0  0
  190.2900  175.2920  142.2050 O   0  0  0  0  0  0  0  0  0  0  0  0
  187.6060  177.4720  146.6120 N   0  0  0  0  0  0  0  0  0  0  0  0
  185.7100  178.1140  145.3320 C   0  0  0  0  0  0  0  0  0  0  0  0
  184.4650  178.7450  145.2710 C   0  0  0  0  0  3  0  0  0  0  0  0
  191.5150  175.0760  148.3870 O   0  0  0  0  0  0  0  0  0  0  0  0
  191.3090  175.5940  147.2580 C   0  0  0  0  0  0  0  0  0  0  0  0
  195.2710  175.2880  145.6050 C   0  0  1  0  0  3  0  0  0  0  0  0
  193.5260  176.5980  146.8210 C   0  0  0  0  0  2  0  0  0  0  0  0
  192.0290  173.4620  145.4200 O   0  0  0  0  0  1  0  0  0  0  0  0
  196.3340  175.3740  144.7080 O   0  0  0  0  0  1  0  0  0  0  0  0
  194.6940  176.6790  145.8440 C   0  0  0  0  0  2  0  0  0  0  0  0
  193.0110  174.2730  145.9910 C   0  0  2  0  0  3  0  0  0  0  0  0
  192.4390  175.6670  146.2810 C   0  0  1  0  0  3  0  0  0  0  0  0
  194.1960  174.3700  145.0340 C   0  0  0  0  0  2  0  0  0  0  0  0
  1  6  1  0  0  0  0
  1 15  1  0  0  0  0
  2 13  1  0  0  0  0
  3  2  2  0  0  0  0
  3 20  1  0  0  0  0
  4  7  2  0  0  0  0
  4 16  1  0  0  0  0
  5 17  1  0  0  0  0
  5  2  1  0  0  0  0
  6 18  1  0  0  0  0
  7  3  1  0  0  0  0
  8 14  2  0  0  0  0
  9  1  2  0  0  0  0
 10 19  1  0  0  0  0
 11  4  1  0  0  0  0
 12  8  1  0  0  0  0
 13  8  1  0  0  0  0
 13 19  2  0  0  0  0
 14 23  1  0  0  0  0
 15  5  2  0  0  0  0
 16 21  2  0  0  0  0
 17 12  1  1  0  0  0
 18 17  1  0  0  0  0
 20 10  2  0  0  0  0
 21 20  1  0  0  0  0
 23 22  2  0  0  0  0
 24 27  1  6  0  0  0
 24 28  1  0  0  0  0
 28 25  1  0  0  0  0
 29 26  1  6  0  0  0
 29 30  1  0  0  0  0
 30 25  1  0  0  0  0
 30 23  1  1  0  0  0
 31 24  1  0  0  0  0
 31 29  1  0  0  0  0
M  END
>  <MODEL>
3

>  <REMARK>
 VINA RESULT:      -8.8      2.453      4.048
  Name = 
  2 active torsions:
  status: ('A' for Active; 'I' for Inactive)
    1  A    between atoms: C_5  and  N_16
    2  A    between atoms: C_5  and  C_30
                            x       y       z     vdW  Elec       q    Type
                         _______ _______ _______ _____ _____    ______ ____

>  <TORSDO>
F 2

$$$$
=
 OpenBabel11112416573D

 31 35  0  0  1  0  0  0  0  0999 V2000
  191.4160  170.9950  142.6270 C   0  0  0  0  0  0  0  0  0  0  0  0
  191.6520  174.4260  144.3260 C   0  0  0  0  0  0  0  0  0  0  0  0
  192.9390  174.5370  144.9300 C   0  0  0  0  0  0  0  0  0  0  0  0
  195.1090  173.6140  145.5620 C   0  0  0  0  0  0  0  0  0  0  0  0
  191.1580  173.2020  143.6020 C   0  0  0  0  0  0  0  0  0  0  0  0
  190.0820  171.1560  141.9680 C   0  0  0  0  0  2  0  0  0  0  0  0
  193.8540  173.4720  144.9650 C   0  0  0  0  0  3  0  0  0  0  0  0
  189.4320  175.4990  143.8260 C   0  0  0  0  0  0  0  0  0  0  0  0
  192.1060  169.9580  142.4530 O   0  0  0  0  0  0  0  0  0  0  0  0
  192.4510  176.8410  145.5140 C   0  0  0  0  0  3  0  0  0  0  0  0
  196.2230  172.2660  145.5860 Cl  0  0  0  0  0  0  0  0  0  0  0  0
  188.8260  174.1530  143.5740 C   0  0  0  0  0  2  0  0  0  0  0  0
  190.8000  175.5580  144.3770 C   0  0  0  0  0  0  0  0  0  0  0  0
  188.7600  176.6050  143.6700 N   0  0  0  0  0  0  0  0  0  0  0  0
  191.9180  172.1100  143.4340 C   0  0  0  0  0  3  0  0  0  0  0  0
  195.4740  174.8310  146.1380 C   0  0  0  0  0  3  0  0  0  0  0  0
  189.8170  173.2370  142.8730 C   0  0  2  0  0  3  0  0  0  0  0  0
  189.2470  171.9460  142.7840 O   0  0  0  0  0  0  0  0  0  0  0  0
  191.2260  176.7160  144.9530 N   0  0  0  0  0  0  0  0  0  0  0  0
  193.3260  175.7640  145.5230 C   0  0  0  0  0  0  0  0  0  0  0  0
  194.5820  175.9050  146.1180 C   0  0  0  0  0  3  0  0  0  0  0  0
  187.1210  176.5690  141.9770 O   0  0  0  0  0  0  0  0  0  0  0  0
  187.4120  176.7550  143.1880 C   0  0  0  0  0  0  0  0  0  0  0  0
  185.4460  178.3190  146.6820 C   0  0  1  0  0  3  0  0  0  0  0  0
  186.5250  176.4190  145.4710 C   0  0  0  0  0  2  0  0  0  0  0  0
  186.0250  179.3070  143.1380 O   0  0  0  0  0  1  0  0  0  0  0  0
  184.4410  178.6660  147.5840 O   0  0  0  0  0  1  0  0  0  0  0  0
  185.4320  176.8110  146.4610 C   0  0  0  0  0  2  0  0  0  0  0  0
  186.2920  178.6640  144.3470 C   0  0  2  0  0  3  0  0  0  0  0  0
  186.3270  177.1440  144.1400 C   0  0  1  0  0  3  0  0  0  0  0  0
  185.2130  179.0410  145.3590 C   0  0  0  0  0  2  0  0  0  0  0  0
  1 15  1  0  0  0  0
  2 13  2  0  0  0  0
  2  3  1  0  0  0  0
  3  7  2  0  0  0  0
  3 20  1  0  0  0  0
  4 11  1  0  0  0  0
  4 16  2  0  0  0  0
  5  2  1  0  0  0  0
  6  1  1  0  0  0  0
  6 18  1  0  0  0  0
  7  4  1  0  0  0  0
  8 13  1  0  0  0  0
  9  1  2  0  0  0  0
 10 20  1  0  0  0  0
 12  8  1  0  0  0  0
 13 19  1  0  0  0  0
 14  8  2  0  0  0  0
 15  5  2  0  0  0  0
 17 12  1  1  0  0  0
 17  5  1  0  0  0  0
 18 17  1  0  0  0  0
 19 10  2  0  0  0  0
 20 21  2  0  0  0  0
 21 16  1  0  0  0  0
 22 23  2  0  0  0  0
 23 14  1  0  0  0  0
 24 27  1  1  0  0  0
 25 28  1  0  0  0  0
 28 24  1  0  0  0  0
 29 26  1  6  0  0  0
 29 31  1  0  0  0  0
 30 23  1  6  0  0  0
 30 29  1  0  0  0  0
 30 25  1  0  0  0  0
 31 24  1  0  0  0  0
M  END
>  <MODEL>
4

>  <REMARK>
 VINA RESULT:      -8.4      3.942      8.562
  Name = 
  2 active torsions:
  status: ('A' for Active; 'I' for Inactive)
    1  A    between atoms: C_5  and  N_16
    2  A    between atoms: C_5  and  C_30
                            x       y       z     vdW  Elec       q    Type
                         _______ _______ _______ _____ _____    ______ ____

>  <TORSDO>
F 2

$$$$
=
 OpenBabel11112416573D

 31 35  0  0  1  0  0  0  0  0999 V2000
  190.8750  173.6230  140.4510 C   0  0  0  0  0  0  0  0  0  0  0  0
  192.3230  175.4030  143.5240 C   0  0  0  0  0  0  0  0  0  0  0  0
  193.7250  175.5700  143.3240 C   0  0  0  0  0  0  0  0  0  0  0  0
  195.7770  175.2100  142.0520 C   0  0  0  0  0  0  0  0  0  0  0  0
  191.4060  174.7010  142.5590 C   0  0  0  0  0  0  0  0  0  0  0  0
  189.4240  173.6810  140.8150 C   0  0  0  0  0  2  0  0  0  0  0  0
  194.4030  175.0260  142.2200 C   0  0  0  0  0  3  0  0  0  0  0  0
  190.3200  175.7890  144.9970 C   0  0  0  0  0  0  0  0  0  0  0  0
  191.2510  173.1430  139.3510 O   0  0  0  0  0  0  0  0  0  0  0  0
  193.8510  176.8640  145.3730 C   0  0  0  0  0  3  0  0  0  0  0  0
  196.5870  174.5180  140.6640 Cl  0  0  0  0  0  0  0  0  0  0  0  0
  189.5770  174.6980  144.2900 C   0  0  0  0  0  2  0  0  0  0  0  0
  191.7520  175.9720  144.6920 C   0  0  0  0  0  0  0  0  0  0  0  0
  189.7710  176.5100  145.9340 N   0  0  0  0  0  0  0  0  0  0  0  0
  191.8380  174.1980  141.3930 C   0  0  0  0  0  3  0  0  0  0  0  0
  196.5030  175.9470  142.9880 C   0  0  0  0  0  3  0  0  0  0  0  0
  189.8990  174.6980  142.8040 C   0  0  2  0  0  3  0  0  0  0  0  0
  189.2850  173.5700  142.2120 O   0  0  0  0  0  0  0  0  0  0  0  0
  192.5220  176.6820  145.5600 N   0  0  0  0  0  0  0  0  0  0  0  0
  194.4800  176.3110  144.2660 C   0  0  0  0  0  0  0  0  0  0  0  0
  195.8540  176.4970  144.0940 C   0  0  0  0  0  3  0  0  0  0  0  0
  188.0420  175.6080  147.2560 O   0  0  0  0  0  0  0  0  0  0  0  0
  188.4120  176.4570  146.4030 C   0  0  0  0  0  0  0  0  0  0  0  0
  184.6330  178.1600  145.2460 C   0  0  1  0  0  3  0  0  0  0  0  0
  186.6470  176.7860  144.7030 C   0  0  0  0  0  2  0  0  0  0  0  0
  187.1370  178.5390  147.9770 O   0  0  0  0  0  1  0  0  0  0  0  0
  183.6920  179.0470  144.7280 O   0  0  0  0  0  1  0  0  0  0  0  0
  185.6080  177.7540  144.1470 C   0  0  0  0  0  2  0  0  0  0  0  0
  186.4370  177.8820  146.9640 C   0  0  2  0  0  3  0  0  0  0  0  0
  187.4070  177.4250  145.8660 C   0  0  1  0  0  3  0  0  0  0  0  0
  185.3870  178.8290  146.3900 C   0  0  0  0  0  2  0  0  0  0  0  0
  1  6  1  0  0  0  0
  1 15  1  0  0  0  0
  2 13  1  0  0  0  0
  3  2  2  0  0  0  0
  3 20  1  0  0  0  0
  4  7  2  0  0  0  0
  4 16  1  0  0  0  0
  5 17  1  0  0  0  0
  5  2  1  0  0  0  0
  6 18  1  0  0  0  0
  7  3  1  0  0  0  0
  8 14  2  0  0  0  0
  9  1  2  0  0  0  0
 10 19  1  0  0  0  0
 11  4  1  0  0  0  0
 12  8  1  0  0  0  0
 13  8  1  0  0  0  0
 13 19  2  0  0  0  0
 14 23  1  0  0  0  0
 15  5  2  0  0  0  0
 16 21  2  0  0  0  0
 17 12  1  1  0  0  0
 18 17  1  0  0  0  0
 20 10  2  0  0  0  0
 21 20  1  0  0  0  0
 23 22  2  0  0  0  0
 24 27  1  6  0  0  0
 24 31  1  0  0  0  0
 25 30  1  0  0  0  0
 28 25  1  0  0  0  0
 28 24  1  0  0  0  0
 29 26  1  1  0  0  0
 30 23  1  1  0  0  0
 30 29  1  0  0  0  0
 31 29  1  0  0  0  0
M  END
>  <MODEL>
5

>  <REMARK>
 VINA RESULT:      -8.4      3.788      8.118
  Name = 
  2 active torsions:
  status: ('A' for Active; 'I' for Inactive)
    1  A    between atoms: C_5  and  N_16
    2  A    between atoms: C_5  and  C_30
                            x       y       z     vdW  Elec       q    Type
                         _______ _______ _______ _____ _____    ______ ____

>  <TORSDO>
F 2

$$$$
=
 OpenBabel11112416573D

 31 35  0  0  1  0  0  0  0  0999 V2000
  191.0500  176.5880  147.3060 C   0  0  0  0  0  0  0  0  0  0  0  0
  188.4320  176.2400  144.5240 C   0  0  0  0  0  0  0  0  0  0  0  0
  187.2920  177.0170  144.8840 C   0  0  0  0  0  0  0  0  0  0  0  0
  186.0470  178.4180  146.4490 C   0  0  0  0  0  0  0  0  0  0  0  0
  189.6560  176.0800  145.3850 C   0  0  0  0  0  0  0  0  0  0  0  0
  192.1680  175.8280  146.6650 C   0  0  0  0  0  2  0  0  0  0  0  0
  187.1760  177.6610  146.1280 C   0  0  0  0  0  3  0  0  0  0  0  0
  189.5430  174.7420  142.8350 C   0  0  0  0  0  0  0  0  0  0  0  0
  191.2020  177.1550  148.4180 O   0  0  0  0  0  0  0  0  0  0  0  0
  186.2950  176.5330  142.7260 C   0  0  0  0  0  3  0  0  0  0  0  0
  185.9380  179.2070  148.0070 Cl  0  0  0  0  0  0  0  0  0  0  0  0
  190.4740  174.2280  143.8890 C   0  0  0  0  0  2  0  0  0  0  0  0
  188.4250  175.6100  143.2530 C   0  0  0  0  0  0  0  0  0  0  0  0
  189.6300  174.3710  141.5890 N   0  0  0  0  0  0  0  0  0  0  0  0
  189.7890  176.6980  146.5680 C   0  0  0  0  0  3  0  0  0  0  0  0
  185.0070  178.5460  145.5270 C   0  0  0  0  0  3  0  0  0  0  0  0
  190.8770  175.3390  144.8460 C   0  0  2  0  0  3  0  0  0  0  0  0
  191.6390  174.7740  145.8940 O   0  0  0  0  0  0  0  0  0  0  0  0
  187.3760  175.7830  142.4040 N   0  0  0  0  0  0  0  0  0  0  0  0
  186.2240  177.1550  143.9640 C   0  0  0  0  0  0  0  0  0  0  0  0
  185.0960  177.9140  144.2860 C   0  0  0  0  0  3  0  0  0  0  0  0
  191.7980  173.8870  140.8030 O   0  0  0  0  0  0  0  0  0  0  0  0
  190.6140  173.5050  140.9950 C   0  0  0  0  0  0  0  0  0  0  0  0
  190.8200  169.5940  139.2110 C   0  0  1  0  0  3  0  0  0  0  0  0
  190.2180  172.0140  139.0640 C   0  0  0  0  0  2  0  0  0  0  0  0
  191.1130  171.1300  142.5920 O   0  0  0  0  0  1  0  0  0  0  0  0
  190.4600  168.3090  138.8100 O   0  0  0  0  0  1  0  0  0  0  0  0
  189.8380  170.6030  138.6270 C   0  0  0  0  0  2  0  0  0  0  0  0
  191.1790  171.0790  141.1990 C   0  0  2  0  0  3  0  0  0  0  0  0
  190.2290  172.1190  140.5890 C   0  0  1  0  0  3  0  0  0  0  0  0
  190.8050  169.6750  140.7340 C   0  0  0  0  0  2  0  0  0  0  0  0
  1  9  2  0  0  0  0
  2  3  1  0  0  0  0
  2  5  1  0  0  0  0
  3  7  1  0  0  0  0
  4 11  1  0  0  0  0
  5 15  2  0  0  0  0
  6  1  1  0  0  0  0
  7  4  2  0  0  0  0
  8 13  1  0  0  0  0
  8 12  1  0  0  0  0
 10 20  1  0  0  0  0
 13  2  2  0  0  0  0
 14  8  2  0  0  0  0
 15  1  1  0  0  0  0
 16  4  1  0  0  0  0
 17 12  1  6  0  0  0
 17  5  1  0  0  0  0
 17 18  1  0  0  0  0
 18  6  1  0  0  0  0
 19 10  2  0  0  0  0
 19 13  1  0  0  0  0
 20 21  1  0  0  0  0
 20  3  2  0  0  0  0
 21 16  2  0  0  0  0
 22 23  2  0  0  0  0
 23 14  1  0  0  0  0
 24 27  1  1  0  0  0
 24 31  1  0  0  0  0
 25 30  1  0  0  0  0
 28 25  1  0  0  0  0
 28 24  1  0  0  0  0
 29 26  1  1  0  0  0
 30 23  1  6  0  0  0
 30 29  1  0  0  0  0
 31 29  1  0  0  0  0
M  END
>  <MODEL>
6

>  <REMARK>
 VINA RESULT:      -8.3      4.172      6.060
  Name = 
  2 active torsions:
  status: ('A' for Active; 'I' for Inactive)
    1  A    between atoms: C_5  and  N_16
    2  A    between atoms: C_5  and  C_30
                            x       y       z     vdW  Elec       q    Type
                         _______ _______ _______ _____ _____    ______ ____

>  <TORSDO>
F 2

$$$$
=
 OpenBabel11112416573D

 31 35  0  0  1  0  0  0  0  0999 V2000
  190.7940  176.5980  147.2810 C   0  0  0  0  0  0  0  0  0  0  0  0
  188.0750  176.3780  144.5850 C   0  0  0  0  0  0  0  0  0  0  0  0
  187.0170  177.2650  144.9430 C   0  0  0  0  0  0  0  0  0  0  0  0
  185.9450  178.8260  146.4830 C   0  0  0  0  0  0  0  0  0  0  0  0
  189.3050  176.1440  145.4190 C   0  0  0  0  0  0  0  0  0  0  0  0
  191.8230  175.7190  146.6410 C   0  0  0  0  0  2  0  0  0  0  0  0
  186.9950  177.9620  146.1630 C   0  0  0  0  0  3  0  0  0  0  0  0
  189.0020  174.7270  142.9270 C   0  0  0  0  0  0  0  0  0  0  0  0
  191.0280  177.1910  148.3650 O   0  0  0  0  0  0  0  0  0  0  0  0
  185.9190  176.7900  142.8320 C   0  0  0  0  0  3  0  0  0  0  0  0
  185.9510  179.6790  148.0110 Cl  0  0  0  0  0  0  0  0  0  0  0  0
  189.9160  174.1720  143.9760 C   0  0  0  0  0  2  0  0  0  0  0  0
  187.9760  175.7050  143.3400 C   0  0  0  0  0  0  0  0  0  0  0  0
  189.0200  174.3040  141.6950 N   0  0  0  0  0  0  0  0  0  0  0  0
  189.5260  176.7910  146.5730 C   0  0  0  0  0  3  0  0  0  0  0  0
  184.8930  179.0100  145.5850 C   0  0  0  0  0  3  0  0  0  0  0  0
  190.4410  175.2790  144.8770 C   0  0  2  0  0  3  0  0  0  0  0  0
  191.1820  174.6880  145.9260 O   0  0  0  0  0  0  0  0  0  0  0  0
  186.9220  175.9380  142.5120 N   0  0  0  0  0  0  0  0  0  0  0  0
  185.9390  177.4620  144.0470 C   0  0  0  0  0  0  0  0  0  0  0  0
  184.8910  178.3280  144.3680 C   0  0  0  0  0  3  0  0  0  0  0  0
  189.6580  172.1000  141.1570 O   0  0  0  0  0  0  0  0  0  0  0  0
  189.9070  173.3340  141.1100 C   0  0  0  0  0  0  0  0  0  0  0  0
  193.7260  173.2140  139.1300 C   0  0  1  0  0  3  0  0  0  0  0  0
  192.3760  173.3200  141.2290 C   0  0  0  0  0  2  0  0  0  0  0  0
  190.1520  173.7900  138.2510 O   0  0  0  0  0  1  0  0  0  0  0  0
  194.9050  173.6320  138.5180 O   0  0  0  0  0  1  0  0  0  0  0  0
  193.6660  173.7670  140.5500 C   0  0  0  0  0  2  0  0  0  0  0  0
  191.2240  173.2810  138.9870 C   0  0  2  0  0  3  0  0  0  0  0  0
  191.1590  173.7910  140.4330 C   0  0  1  0  0  3  0  0  0  0  0  0
  192.5300  173.7120  138.3260 C   0  0  0  0  0  2  0  0  0  0  0  0
  1  9  2  0  0  0  0
  2  3  1  0  0  0  0
  2  5  1  0  0  0  0
  3  7  1  0  0  0  0
  4 11  1  0  0  0  0
  5 15  2  0  0  0  0
  6  1  1  0  0  0  0
  7  4  2  0  0  0  0
  8 13  1  0  0  0  0
  8 12  1  0  0  0  0
 10 20  1  0  0  0  0
 13  2  2  0  0  0  0
 14  8  2  0  0  0  0
 15  1  1  0  0  0  0
 16  4  1  0  0  0  0
 17 12  1  6  0  0  0
 17  5  1  0  0  0  0
 17 18  1  0  0  0  0
 18  6  1  0  0  0  0
 19 10  2  0  0  0  0
 19 13  1  0  0  0  0
 20 21  1  0  0  0  0
 20  3  2  0  0  0  0
 21 16  2  0  0  0  0
 23 22  2  0  0  0  0
 23 14  1  0  0  0  0
 24 27  1  6  0  0  0
 24 28  1  0  0  0  0
 28 25  1  0  0  0  0
 29 26  1  6  0  0  0
 29 30  1  0  0  0  0
 30 23  1  1  0  0  0
 30 25  1  0  0  0  0
 31 29  1  0  0  0  0
 31 24  1  0  0  0  0
M  END
>  <MODEL>
7

>  <REMARK>
 VINA RESULT:      -8.3      3.890      5.690
  Name = 
  2 active torsions:
  status: ('A' for Active; 'I' for Inactive)
    1  A    between atoms: C_5  and  N_16
    2  A    between atoms: C_5  and  C_30
                            x       y       z     vdW  Elec       q    Type
                         _______ _______ _______ _____ _____    ______ ____

>  <TORSDO>
F 2

$$$$
=
 OpenBabel11112416573D

 31 35  0  0  1  0  0  0  0  0999 V2000
  185.6190  177.7190  141.0490 C   0  0  0  0  0  0  0  0  0  0  0  0
  187.5040  176.5360  144.1730 C   0  0  0  0  0  0  0  0  0  0  0  0
  186.7500  176.9180  145.3220 C   0  0  0  0  0  0  0  0  0  0  0  0
  184.8720  178.0630  146.3820 C   0  0  0  0  0  0  0  0  0  0  0  0
  187.1180  176.8660  142.7560 C   0  0  0  0  0  0  0  0  0  0  0  0
  186.4990  177.1070  140.0050 C   0  0  0  0  0  2  0  0  0  0  0  0
  185.5910  177.7090  145.2380 C   0  0  0  0  0  3  0  0  0  0  0  0
  189.5380  175.3790  143.2480 C   0  0  0  0  0  0  0  0  0  0  0  0
  184.5690  178.3360  140.7350 O   0  0  0  0  0  0  0  0  0  0  0  0
  188.3110  175.7120  146.7340 C   0  0  0  0  0  3  0  0  0  0  0  0
  183.4330  179.0480  146.2390 Cl  0  0  0  0  0  0  0  0  0  0  0  0
  189.3890  176.1280  141.9590 C   0  0  0  0  0  2  0  0  0  0  0  0
  188.6740  175.7610  144.3820 C   0  0  0  0  0  0  0  0  0  0  0  0
  190.4630  174.4790  143.4270 N   0  0  0  0  0  0  0  0  0  0  0  0
  185.9910  177.5260  142.4530 C   0  0  0  0  0  3  0  0  0  0  0  0
  185.3000  177.6300  147.6370 C   0  0  0  0  0  3  0  0  0  0  0  0
  187.9230  176.2910  141.5930 C   0  0  2  0  0  3  0  0  0  0  0  0
  187.8350  177.1180  140.4500 O   0  0  0  0  0  0  0  0  0  0  0  0
  189.0280  175.3710  145.6360 N   0  0  0  0  0  0  0  0  0  0  0  0
  187.1700  176.4920  146.6050 C   0  0  0  0  0  0  0  0  0  0  0  0
  186.4490  176.8450  147.7480 C   0  0  0  0  0  3  0  0  0  0  0  0
  191.0760  173.2930  141.4850 O   0  0  0  0  0  0  0  0  0  0  0  0
  191.4220  174.0010  142.4670 C   0  0  0  0  0  0  0  0  0  0  0  0
  194.9850  176.0880  143.6820 C   0  0  1  0  0  3  0  0  0  0  0  0
  193.1420  175.7240  142.0360 C   0  0  0  0  0  2  0  0  0  0  0  0
  193.1050  173.0120  144.6200 O   0  0  0  0  0  1  0  0  0  0  0  0
  196.3290  176.4260  143.8240 O   0  0  0  0  0  1  0  0  0  0  0  0
  194.6110  176.0980  142.2040 C   0  0  0  0  0  2  0  0  0  0  0  0
  193.2800  174.3000  144.1120 C   0  0  2  0  0  3  0  0  0  0  0  0
  192.8680  174.3440  142.6340 C   0  0  1  0  0  3  0  0  0  0  0  0
  194.7440  174.7020  144.2710 C   0  0  0  0  0  2  0  0  0  0  0  0
  1 15  1  0  0  0  0
  2 13  2  0  0  0  0
  2  3  1  0  0  0  0
  3 20  1  0  0  0  0
  4 16  2  0  0  0  0
  5  2  1  0  0  0  0
  6 18  1  0  0  0  0
  6  1  1  0  0  0  0
  7  3  2  0  0  0  0
  7  4  1  0  0  0  0
  8 14  2  0  0  0  0
  8 13  1  0  0  0  0
  9  1  2  0  0  0  0
 11  4  1  0  0  0  0
 12  8  1  0  0  0  0
 13 19  1  0  0  0  0
 15  5  2  0  0  0  0
 16 21  1  0  0  0  0
 17 12  1  1  0  0  0
 17  5  1  0  0  0  0
 18 17  1  0  0  0  0
 19 10  2  0  0  0  0
 20 10  1  0  0  0  0
 20 21  2  0  0  0  0
 22 23  2  0  0  0  0
 23 14  1  0  0  0  0
 24 27  1  6  0  0  0
 24 31  1  0  0  0  0
 25 28  1  0  0  0  0
 25 30  1  0  0  0  0
 28 24  1  0  0  0  0
 29 31  1  0  0  0  0
 29 26  1  6  0  0  0
 30 23  1  1  0  0  0
 30 29  1  0  0  0  0
M  END
>  <MODEL>
8

>  <REMARK>
 VINA RESULT:      -8.2      2.883      4.769
  Name = 
  2 active torsions:
  status: ('A' for Active; 'I' for Inactive)
    1  A    between atoms: C_5  and  N_16
    2  A    between atoms: C_5  and  C_30
                            x       y       z     vdW  Elec       q    Type
                         _______ _______ _______ _____ _____    ______ ____

>  <TORSDO>
F 2

$$$$
=
 OpenBabel11112416573D

 31 35  0  0  1  0  0  0  0  0999 V2000
  188.5520  174.1420  139.4680 C   0  0  0  0  0  0  0  0  0  0  0  0
  188.8640  176.0190  142.7990 C   0  0  0  0  0  0  0  0  0  0  0  0
  187.7590  176.9130  142.9130 C   0  0  0  0  0  0  0  0  0  0  0  0
  185.7590  177.9900  142.0190 C   0  0  0  0  0  0  0  0  0  0  0  0
  189.1240  175.1390  141.6050 C   0  0  0  0  0  0  0  0  0  0  0  0
  189.7020  173.1980  139.6280 C   0  0  0  0  0  2  0  0  0  0  0  0
  186.8320  177.1080  141.8750 C   0  0  0  0  0  3  0  0  0  0  0  0
  190.9500  175.0660  143.8340 C   0  0  0  0  0  0  0  0  0  0  0  0
  187.7970  174.0840  138.4640 O   0  0  0  0  0  0  0  0  0  0  0  0
  188.4660  177.4810  145.1630 C   0  0  0  0  0  3  0  0  0  0  0  0
  184.6240  178.2060  140.7050 Cl  0  0  0  0  0  0  0  0  0  0  0  0
  191.4230  174.6110  142.4870 C   0  0  0  0  0  2  0  0  0  0  0  0
  189.7520  175.9250  143.9010 C   0  0  0  0  0  0  0  0  0  0  0  0
  191.6140  174.8120  144.9260 N   0  0  0  0  0  0  0  0  0  0  0  0
  188.3000  175.0990  140.5480 C   0  0  0  0  0  3  0  0  0  0  0  0
  185.5900  178.6950  143.2110 C   0  0  0  0  0  3  0  0  0  0  0  0
  190.2580  174.1180  141.6430 C   0  0  2  0  0  3  0  0  0  0  0  0
  190.7360  173.8330  140.3430 O   0  0  0  0  0  0  0  0  0  0  0  0
  189.5210  176.6420  145.0350 N   0  0  0  0  0  0  0  0  0  0  0  0
  187.5730  177.6410  144.1130 C   0  0  0  0  0  0  0  0  0  0  0  0
  186.4970  178.5210  144.2560 C   0  0  0  0  0  3  0  0  0  0  0  0
  192.7810  172.8010  145.3080 O   0  0  0  0  0  0  0  0  0  0  0  0
  192.8170  174.0360  145.0640 C   0  0  0  0  0  0  0  0  0  0  0  0
  195.9740  176.4970  143.4830 C   0  0  1  0  0  3  0  0  0  0  0  0
  194.7830  174.3040  143.5880 C   0  0  0  0  0  2  0  0  0  0  0  0
  193.5150  176.5810  146.2790 O   0  0  0  0  0  1  0  0  0  0  0  0
  197.2180  177.1050  143.3310 O   0  0  0  0  0  1  0  0  0  0  0  0
  196.1380  174.9820  143.4180 C   0  0  0  0  0  2  0  0  0  0  0  0
  194.0160  176.2280  145.0260 C   0  0  2  0  0  3  0  0  0  0  0  0
  194.1480  174.7030  144.9210 C   0  0  1  0  0  3  0  0  0  0  0  0
  195.3730  176.8970  144.8260 C   0  0  0  0  0  2  0  0  0  0  0  0
  1  6  1  0  0  0  0
  1 15  1  0  0  0  0
  2  3  2  0  0  0  0
  2 13  1  0  0  0  0
  3 20  1  0  0  0  0
  4 16  1  0  0  0  0
  5 17  1  0  0  0  0
  5  2  1  0  0  0  0
  6 18  1  0  0  0  0
  7  4  2  0  0  0  0
  7  3  1  0  0  0  0
  8 13  1  0  0  0  0
  8 14  2  0  0  0  0
  9  1  2  0  0  0  0
 11  4  1  0  0  0  0
 12  8  1  0  0  0  0
 13 19  2  0  0  0  0
 14 23  1  0  0  0  0
 15  5  2  0  0  0  0
 16 21  2  0  0  0  0
 17 12  1  1  0  0  0
 18 17  1  0  0  0  0
 19 10  1  0  0  0  0
 20 21  1  0  0  0  0
 20 10  2  0  0  0  0
 23 22  2  0  0  0  0
 24 27  1  1  0  0  0
 24 31  1  0  0  0  0
 25 30  1  0  0  0  0
 28 24  1  0  0  0  0
 28 25  1  0  0  0  0
 29 26  1  1  0  0  0
 30 29  1  0  0  0  0
 30 23  1  6  0  0  0
 31 29  1  0  0  0  0
M  END
>  <MODEL>
9

>  <REMARK>
 VINA RESULT:      -8.1      3.057      4.786
  Name = 
  2 active torsions:
  status: ('A' for Active; 'I' for Inactive)
    1  A    between atoms: C_5  and  N_16
    2  A    between atoms: C_5  and  C_30
                            x       y       z     vdW  Elec       q    Type
                         _______ _______ _______ _____ _____    ______ ____

>  <TORSDO>
F 2

$$$$
