=
 OpenBabel11112416213D

 30 35  0  0  1  0  0  0  0  0999 V2000
  188.3110  175.8810  143.8690 C   0  0  0  0  0  0  0  0  0  0  0  0
  186.0000  176.9690  144.0910 C   0  0  0  0  0  0  0  0  0  0  0  0
  189.5230  177.4980  147.5490 N   0  0  0  0  0  2  0  0  0  0  0  0
  189.6050  175.6380  144.4000 C   0  0  0  0  0  0  0  0  0  0  0  0
  187.9160  175.1670  142.6070 C   0  0  0  0  0  2  0  0  0  0  0  0
  191.1760  174.0270  141.5260 O   0  0  0  0  0  0  0  0  0  0  0  0
  192.7690  175.7050  144.4660 C   0  0  1  0  0  3  0  0  0  0  0  0
  190.3140  174.6220  142.2300 C   0  0  0  0  0  0  0  0  0  0  0  0
  192.3930  176.5570  145.6790 C   0  0  2  0  0  3  0  0  0  0  0  0
  190.8260  176.9330  147.6270 C   0  0  0  0  0  0  0  0  0  0  0  0
  189.0520  175.1430  141.5940 C   0  0  1  0  0  3  0  0  0  0  0  0
  190.5760  174.8920  143.6210 N   0  0  0  0  0  0  0  0  0  0  0  0
  185.0630  177.6160  144.9560 N   0  0  0  0  0  0  0  0  0  0  0  0
  193.6420  176.5460  146.5440 C   0  0  0  0  0  2  0  0  0  0  0  0
  194.2010  175.2730  144.6980 C   0  0  0  0  0  2  0  0  0  0  0  0
  185.6260  176.6250  142.9390 O   0  0  0  0  0  0  0  0  0  0  0  0
  189.0150  176.9970  146.3230 C   0  0  0  0  0  0  0  0  0  0  0  0
  185.4060  178.1480  146.0890 C   0  0  0  0  0  3  0  0  0  0  0  0
  187.3790  176.6980  144.5740 C   0  0  0  0  0  0  0  0  0  0  0  0
  189.9180  176.1950  145.6530 C   0  0  0  0  0  0  0  0  0  0  0  0
  191.5790  177.1180  148.6190 O   0  0  0  0  0  0  0  0  0  0  0  0
  191.1730  176.0520  146.4600 C   0  0  1  0  0  3  0  0  0  0  0  0
  194.7630  176.1560  145.7050 N   0  0  0  0  0  2  0  0  0  0  0  0
  191.7490  173.6100  145.2240 O   0  0  0  0  0  1  0  0  0  0  0  0
  186.8330  178.2030  146.5570 C   0  0  0  0  0  2  0  0  0  0  0  0
  187.7470  177.2640  145.8140 C   0  0  0  0  0  0  0  0  0  0  0  0
  191.8830  174.4910  144.1470 C   0  0  2  0  0  3  0  0  0  0  0  0
  188.6490  174.3760  140.3680 C   0  0  0  0  0  3  0  0  0  0  0  0
  187.9230  172.4330  139.2550 O   0  0  0  0  0  1  0  0  0  0  0  0
  188.2880  173.0970  140.4180 C   0  0  0  0  0  3  0  0  0  0  0  0
  1  4  2  0  0  0  0
  1 19  1  0  0  0  0
  2 19  1  0  0  0  0
  2 13  1  0  0  0  0
  3 10  1  0  0  0  0
  4 20  1  0  0  0  0
  5  1  1  0  0  0  0
  6  8  2  0  0  0  0
  7 15  1  1  0  0  0
  7  9  1  0  0  0  0
  8 12  1  0  0  0  0
  9 22  1  0  0  0  0
  9 14  1  1  0  0  0
 10 21  2  0  0  0  0
 11 28  1  6  0  0  0
 11  8  1  0  0  0  0
 11  5  1  0  0  0  0
 12 27  1  0  0  0  0
 12  4  1  0  0  0  0
 13 18  2  0  0  0  0
 15 23  1  0  0  0  0
 16  2  2  0  0  0  0
 17  3  1  0  0  0  0
 18 25  1  0  0  0  0
 19 26  2  0  0  0  0
 20 17  2  0  0  0  0
 22 20  1  6  0  0  0
 22 10  1  0  0  0  0
 23 14  1  0  0  0  0
 26 17  1  0  0  0  0
 26 25  1  0  0  0  0
 27  7  1  0  0  0  0
 27 24  1  1  0  0  0
 28 30  2  0  0  0  0
 29 30  1  0  0  0  0
M  END
>  <MODEL>
1

>  <REMARK>
 VINA RESULT:      -8.7      0.000      0.000
  Name = 
  1 active torsions:
  status: ('A' for Active; 'I' for Inactive)
    1  A    between atoms: C_11  and  C_28
                            x       y       z     vdW  Elec       q    Type
                         _______ _______ _______ _____ _____    ______ ____

>  <TORSDO>
F 1

$$$$
=
 OpenBabel11112416213D

 30 35  0  0  1  0  0  0  0  0999 V2000
  188.5200  177.3100  145.6760 C   0  0  0  0  0  0  0  0  0  0  0  0
  186.4120  178.3310  146.7210 C   0  0  0  0  0  0  0  0  0  0  0  0
  186.5290  176.7170  142.0270 N   0  0  0  0  0  2  0  0  0  0  0  0
  189.1740  176.7360  144.5540 C   0  0  0  0  0  0  0  0  0  0  0  0
  189.3360  177.5990  146.9030 C   0  0  0  0  0  2  0  0  0  0  0  0
  192.2840  175.6490  146.1250 O   0  0  0  0  0  0  0  0  0  0  0  0
  190.7140  174.4960  142.9320 C   0  0  1  0  0  3  0  0  0  0  0  0
  191.1220  176.1260  145.9940 C   0  0  0  0  0  0  0  0  0  0  0  0
  189.4130  174.6460  142.1400 C   0  0  2  0  0  3  0  0  0  0  0  0
  187.6060  176.1820  141.2660 C   0  0  0  0  0  0  0  0  0  0  0  0
  190.3070  176.4670  147.2130 C   0  0  1  0  0  3  0  0  0  0  0  0
  190.5360  176.2520  144.6830 N   0  0  0  0  0  0  0  0  0  0  0  0
  185.1130  178.8830  146.4920 N   0  0  0  0  0  0  0  0  0  0  0  0
  189.7420  174.0740  140.7720 C   0  0  0  0  0  2  0  0  0  0  0  0
  191.6950  173.8400  141.9850 C   0  0  0  0  0  2  0  0  0  0  0  0
  186.9110  178.4110  147.8730 O   0  0  0  0  0  0  0  0  0  0  0  0
  187.1100  176.9640  143.2970 C   0  0  0  0  0  0  0  0  0  0  0  0
  184.4580  178.6990  145.3860 C   0  0  0  0  0  3  0  0  0  0  0  0
  187.1500  177.6970  145.5960 C   0  0  0  0  0  0  0  0  0  0  0  0
  188.4400  176.6000  143.3620 C   0  0  0  0  0  0  0  0  0  0  0  0
  187.4820  175.8780  140.0510 O   0  0  0  0  0  0  0  0  0  0  0  0
  188.8960  176.0860  142.0290 C   0  0  1  0  0  3  0  0  0  0  0  0
  190.9260  173.2410  140.9080 N   0  0  0  0  0  2  0  0  0  0  0  0
  191.5430  176.7800  142.6110 O   0  0  0  0  0  1  0  0  0  0  0  0
  184.9730  177.8240  144.2770 C   0  0  0  0  0  2  0  0  0  0  0  0
  186.4420  177.5130  144.3880 C   0  0  0  0  0  0  0  0  0  0  0  0
  191.3210  175.7650  143.5480 C   0  0  2  0  0  3  0  0  0  0  0  0
  191.1480  176.8080  148.4100 C   0  0  0  0  0  3  0  0  0  0  0  0
  191.7970  178.2090  150.1850 O   0  0  0  0  0  1  0  0  0  0  0  0
  190.9940  177.9420  149.0850 C   0  0  0  0  0  3  0  0  0  0  0  0
  1  5  1  0  0  0  0
  2 16  2  0  0  0  0
  3 17  1  0  0  0  0
  4 12  1  0  0  0  0
  4  1  2  0  0  0  0
  5 11  1  0  0  0  0
  7 15  1  6  0  0  0
  7 27  1  0  0  0  0
  8  6  2  0  0  0  0
  8 11  1  0  0  0  0
  9 14  1  6  0  0  0
  9  7  1  0  0  0  0
 10  3  1  0  0  0  0
 11 28  1  1  0  0  0
 12  8  1  0  0  0  0
 13  2  1  0  0  0  0
 14 23  1  0  0  0  0
 17 20  2  0  0  0  0
 17 26  1  0  0  0  0
 18 13  2  0  0  0  0
 19  1  1  0  0  0  0
 19  2  1  0  0  0  0
 20  4  1  0  0  0  0
 21 10  2  0  0  0  0
 22 10  1  6  0  0  0
 22  9  1  0  0  0  0
 22 20  1  0  0  0  0
 23 15  1  0  0  0  0
 25 26  1  0  0  0  0
 25 18  1  0  0  0  0
 26 19  2  0  0  0  0
 27 24  1  6  0  0  0
 27 12  1  0  0  0  0
 28 30  2  0  0  0  0
 30 29  1  0  0  0  0
M  END
>  <MODEL>
2

>  <REMARK>
 VINA RESULT:      -8.7      2.011      5.536
  Name = 
  1 active torsions:
  status: ('A' for Active; 'I' for Inactive)
    1  A    between atoms: C_11  and  C_28
                            x       y       z     vdW  Elec       q    Type
                         _______ _______ _______ _____ _____    ______ ____

>  <TORSDO>
F 1

$$$$
=
 OpenBabel11112416213D

 30 35  0  0  1  0  0  0  0  0999 V2000
  186.6560  177.3470  144.3180 C   0  0  0  0  0  0  0  0  0  0  0  0
  185.3330  178.7290  146.0250 C   0  0  0  0  0  0  0  0  0  0  0  0
  189.5240  176.3490  147.2180 N   0  0  0  0  0  2  0  0  0  0  0  0
  187.7670  176.5160  144.0130 C   0  0  0  0  0  0  0  0  0  0  0  0
  185.6140  177.5550  143.2570 C   0  0  0  0  0  2  0  0  0  0  0  0
  187.4410  176.3310  140.3820 O   0  0  0  0  0  0  0  0  0  0  0  0
  190.4330  175.6740  142.5300 C   0  0  1  0  0  3  0  0  0  0  0  0
  187.2230  176.6670  141.5800 C   0  0  0  0  0  0  0  0  0  0  0  0
  190.8910  175.8120  143.9830 C   0  0  2  0  0  3  0  0  0  0  0  0
  190.3530  175.5010  146.4340 C   0  0  0  0  0  0  0  0  0  0  0  0
  186.2400  177.7670  141.8850 C   0  0  1  0  0  3  0  0  0  0  0  0
  187.9820  176.0700  142.6490 N   0  0  0  0  0  0  0  0  0  0  0  0
  185.1250  179.0400  147.4050 N   0  0  0  0  0  0  0  0  0  0  0  0
  192.1740  175.0020  144.0490 C   0  0  0  0  0  2  0  0  0  0  0  0
  191.4790  174.8150  141.8520 C   0  0  0  0  0  2  0  0  0  0  0  0
  184.5170  179.1690  145.1730 O   0  0  0  0  0  0  0  0  0  0  0  0
  188.5010  176.7400  146.3170 C   0  0  0  0  0  0  0  0  0  0  0  0
  185.9990  178.7690  148.3250 C   0  0  0  0  0  3  0  0  0  0  0  0
  186.4870  177.8790  145.6300 C   0  0  0  0  0  0  0  0  0  0  0  0
  188.6640  176.2100  145.0530 C   0  0  0  0  0  0  0  0  0  0  0  0
  191.3590  174.9160  146.9150 O   0  0  0  0  0  0  0  0  0  0  0  0
  189.8720  175.3230  145.0220 C   0  0  1  0  0  3  0  0  0  0  0  0
  192.6650  174.8320  142.6910 N   0  0  0  0  0  2  0  0  0  0  0  0
  188.8130  173.8690  142.8790 O   0  0  0  0  0  1  0  0  0  0  0  0
  187.3440  178.1750  148.0110 C   0  0  0  0  0  2  0  0  0  0  0  0
  187.4300  177.5710  146.6350 C   0  0  0  0  0  0  0  0  0  0  0  0
  189.0260  175.1130  142.2770 C   0  0  2  0  0  3  0  0  0  0  0  0
  185.1760  177.9160  140.8370 C   0  0  0  0  0  3  0  0  0  0  0  0
  182.9600  178.2920  140.1380 O   0  0  0  0  0  1  0  0  0  0  0  0
  183.9060  178.1620  141.1450 C   0  0  0  0  0  3  0  0  0  0  0  0
  1 19  1  0  0  0  0
  2 13  1  0  0  0  0
  4  1  2  0  0  0  0
  4 20  1  0  0  0  0
  5  1  1  0  0  0  0
  6  8  2  0  0  0  0
  7 15  1  6  0  0  0
  7  9  1  0  0  0  0
  8 11  1  0  0  0  0
  8 12  1  0  0  0  0
  9 14  1  6  0  0  0
  9 22  1  0  0  0  0
 10 21  2  0  0  0  0
 10  3  1  0  0  0  0
 11 28  1  6  0  0  0
 11  5  1  0  0  0  0
 12  4  1  0  0  0  0
 13 18  2  0  0  0  0
 15 23  1  0  0  0  0
 16  2  2  0  0  0  0
 17 26  1  0  0  0  0
 17  3  1  0  0  0  0
 19  2  1  0  0  0  0
 19 26  2  0  0  0  0
 20 17  2  0  0  0  0
 22 20  1  1  0  0  0
 22 10  1  0  0  0  0
 23 14  1  0  0  0  0
 25 18  1  0  0  0  0
 26 25  1  0  0  0  0
 27  7  1  0  0  0  0
 27 12  1  0  0  0  0
 27 24  1  1  0  0  0
 28 30  2  0  0  0  0
 29 30  1  0  0  0  0
M  END
>  <MODEL>
3

>  <REMARK>
 VINA RESULT:      -8.5      2.099      3.425
  Name = 
  1 active torsions:
  status: ('A' for Active; 'I' for Inactive)
    1  A    between atoms: C_11  and  C_28
                            x       y       z     vdW  Elec       q    Type
                         _______ _______ _______ _____ _____    ______ ____

>  <TORSDO>
F 1

$$$$
=
 OpenBabel11112416213D

 30 35  0  0  1  0  0  0  0  0999 V2000
  189.3500  175.6400  143.6680 C   0  0  0  0  0  0  0  0  0  0  0  0
  190.9670  174.6190  145.3760 C   0  0  0  0  0  0  0  0  0  0  0  0
  187.4100  177.8280  146.6810 N   0  0  0  0  0  2  0  0  0  0  0  0
  188.2610  176.5050  143.3790 C   0  0  0  0  0  0  0  0  0  0  0  0
  190.0640  174.9890  142.5180 C   0  0  0  0  0  2  0  0  0  0  0  0
  187.6490  175.6050  139.8950 O   0  0  0  0  0  0  0  0  0  0  0  0
  185.3700  177.2760  142.3460 C   0  0  1  0  0  3  0  0  0  0  0  0
  188.1450  175.5930  141.0560 C   0  0  0  0  0  0  0  0  0  0  0  0
  185.2960  177.6240  143.8340 C   0  0  2  0  0  3  0  0  0  0  0  0
  186.4700  178.5330  145.8800 C   0  0  0  0  0  0  0  0  0  0  0  0
  189.0910  174.4920  141.4580 C   0  0  1  0  0  3  0  0  0  0  0  0
  187.7340  176.5740  142.0280 N   0  0  0  0  0  0  0  0  0  0  0  0
  191.5010  174.6830  146.7010 N   0  0  0  0  0  0  0  0  0  0  0  0
  184.1350  178.5990  143.9310 C   0  0  0  0  0  2  0  0  0  0  0  0
  184.2500  178.0530  141.6880 C   0  0  0  0  0  2  0  0  0  0  0  0
  191.4990  173.8400  144.5440 O   0  0  0  0  0  0  0  0  0  0  0  0
  188.1340  177.0520  145.7400 C   0  0  0  0  0  0  0  0  0  0  0  0
  190.9160  175.3290  147.6630 C   0  0  0  0  0  3  0  0  0  0  0  0
  189.8140  175.4820  145.0070 C   0  0  0  0  0  0  0  0  0  0  0  0
  187.6880  177.2220  144.4450 C   0  0  0  0  0  0  0  0  0  0  0  0
  185.6680  179.3720  146.3680 O   0  0  0  0  0  0  0  0  0  0  0  0
  186.5810  178.2310  144.4120 C   0  0  1  0  0  3  0  0  0  0  0  0
  183.3230  178.4480  142.7350 N   0  0  0  0  0  2  0  0  0  0  0  0
  187.1520  178.8460  141.7440 O   0  0  0  0  0  1  0  0  0  0  0  0
  189.5830  176.0010  147.4910 C   0  0  0  0  0  2  0  0  0  0  0  0
  189.1880  176.1970  146.0510 C   0  0  0  0  0  0  0  0  0  0  0  0
  186.7010  177.5290  141.6220 C   0  0  2  0  0  3  0  0  0  0  0  0
  189.8340  173.8980  140.2970 C   0  0  0  0  0  3  0  0  0  0  0  0
  190.2880  172.1760  138.7580 O   0  0  0  0  0  1  0  0  0  0  0  0
  189.5720  172.6790  139.8350 C   0  0  0  0  0  3  0  0  0  0  0  0
  1 19  1  0  0  0  0
  2 13  1  0  0  0  0
  4  1  2  0  0  0  0
  4 20  1  0  0  0  0
  5  1  1  0  0  0  0
  6  8  2  0  0  0  0
  7 15  1  6  0  0  0
  7  9  1  0  0  0  0
  8 11  1  0  0  0  0
  8 12  1  0  0  0  0
  9 14  1  6  0  0  0
  9 22  1  0  0  0  0
 10 21  2  0  0  0  0
 10  3  1  0  0  0  0
 11 28  1  6  0  0  0
 11  5  1  0  0  0  0
 12  4  1  0  0  0  0
 13 18  2  0  0  0  0
 15 23  1  0  0  0  0
 16  2  2  0  0  0  0
 17 26  1  0  0  0  0
 17  3  1  0  0  0  0
 19  2  1  0  0  0  0
 19 26  2  0  0  0  0
 20 17  2  0  0  0  0
 22 20  1  1  0  0  0
 22 10  1  0  0  0  0
 23 14  1  0  0  0  0
 25 18  1  0  0  0  0
 26 25  1  0  0  0  0
 27 24  1  1  0  0  0
 27 12  1  0  0  0  0
 27  7  1  0  0  0  0
 29 30  1  0  0  0  0
 30 28  2  0  0  0  0
M  END
>  <MODEL>
4

>  <REMARK>
 VINA RESULT:      -8.4      2.177      5.621
  Name = 
  1 active torsions:
  status: ('A' for Active; 'I' for Inactive)
    1  A    between atoms: C_11  and  C_28
                            x       y       z     vdW  Elec       q    Type
                         _______ _______ _______ _____ _____    ______ ____

>  <TORSDO>
F 1

$$$$
=
 OpenBabel11112416213D

 30 35  0  0  1  0  0  0  0  0999 V2000
  188.3820  175.8070  142.3510 C   0  0  0  0  0  0  0  0  0  0  0  0
  186.8240  176.8300  140.5900 C   0  0  0  0  0  0  0  0  0  0  0  0
  186.7760  178.2840  145.3370 N   0  0  0  0  0  2  0  0  0  0  0  0
  188.8340  175.7430  143.6950 C   0  0  0  0  0  0  0  0  0  0  0  0
  188.9220  174.8040  141.3720 C   0  0  0  0  0  2  0  0  0  0  0  0
  191.7340  173.5650  143.2840 O   0  0  0  0  0  0  0  0  0  0  0  0
  190.9300  175.9410  146.0590 C   0  0  1  0  0  3  0  0  0  0  0  0
  190.7310  174.2760  142.9960 C   0  0  0  0  0  0  0  0  0  0  0  0
  189.9250  177.0390  146.4120 C   0  0  2  0  0  3  0  0  0  0  0  0
  187.5150  177.8010  146.4530 C   0  0  0  0  0  0  0  0  0  0  0  0
  190.4180  174.5860  141.5550 C   0  0  1  0  0  3  0  0  0  0  0  0
  189.9420  174.8730  144.0430 N   0  0  0  0  0  0  0  0  0  0  0  0
  185.6620  177.6260  140.3410 N   0  0  0  0  0  0  0  0  0  0  0  0
  190.1400  177.2770  147.8970 C   0  0  0  0  0  2  0  0  0  0  0  0
  191.6640  175.6290  147.3450 C   0  0  0  0  0  2  0  0  0  0  0  0
  187.3530  176.2130  139.6290 O   0  0  0  0  0  0  0  0  0  0  0  0
  187.2470  177.4920  144.2590 C   0  0  0  0  0  0  0  0  0  0  0  0
  185.1520  178.4210  141.2320 C   0  0  0  0  0  3  0  0  0  0  0  0
  187.3640  176.7310  141.9710 C   0  0  0  0  0  0  0  0  0  0  0  0
  188.2210  176.5900  144.6370 C   0  0  0  0  0  0  0  0  0  0  0  0
  187.3330  178.2410  147.6180 O   0  0  0  0  0  0  0  0  0  0  0  0
  188.4620  176.6850  146.1130 C   0  0  1  0  0  3  0  0  0  0  0  0
  191.4460  176.7440  148.2510 N   0  0  0  0  0  2  0  0  0  0  0  0
  189.3830  174.0450  146.1850 O   0  0  0  0  0  1  0  0  0  0  0  0
  185.7850  178.6360  142.5790 C   0  0  0  0  0  2  0  0  0  0  0  0
  186.7990  177.5850  142.9430 C   0  0  0  0  0  0  0  0  0  0  0  0
  190.3830  174.6550  145.4220 C   0  0  2  0  0  3  0  0  0  0  0  0
  190.9180  173.5390  140.6030 C   0  0  0  0  0  3  0  0  0  0  0  0
  190.6560  171.6090  139.2820 O   0  0  0  0  0  1  0  0  0  0  0  0
  190.1440  172.5520  140.1630 C   0  0  0  0  0  3  0  0  0  0  0  0
  1  4  1  0  0  0  0
  2 19  1  0  0  0  0
  3 10  1  0  0  0  0
  4 12  1  0  0  0  0
  4 20  2  0  0  0  0
  5 11  1  0  0  0  0
  5  1  1  0  0  0  0
  7  9  1  0  0  0  0
  7 15  1  1  0  0  0
  8  6  2  0  0  0  0
  8 12  1  0  0  0  0
  9 14  1  1  0  0  0
 10 21  2  0  0  0  0
 11 28  1  6  0  0  0
 11  8  1  0  0  0  0
 12 27  1  0  0  0  0
 13  2  1  0  0  0  0
 13 18  2  0  0  0  0
 14 23  1  0  0  0  0
 15 23  1  0  0  0  0
 16  2  2  0  0  0  0
 17 20  1  0  0  0  0
 17  3  1  0  0  0  0
 18 25  1  0  0  0  0
 19  1  2  0  0  0  0
 19 26  1  0  0  0  0
 22 20  1  6  0  0  0
 22  9  1  0  0  0  0
 22 10  1  0  0  0  0
 25 26  1  0  0  0  0
 26 17  2  0  0  0  0
 27  7  1  0  0  0  0
 27 24  1  1  0  0  0
 29 30  1  0  0  0  0
 30 28  2  0  0  0  0
M  END
>  <MODEL>
5

>  <REMARK>
 VINA RESULT:      -8.1      2.095      3.012
  Name = 
  1 active torsions:
  status: ('A' for Active; 'I' for Inactive)
    1  A    between atoms: C_11  and  C_28
                            x       y       z     vdW  Elec       q    Type
                         _______ _______ _______ _____ _____    ______ ____

>  <TORSDO>
F 1

$$$$
=
 OpenBabel11112416213D

 30 35  0  0  1  0  0  0  0  0999 V2000
  188.9640  176.1940  144.9040 C   0  0  0  0  0  0  0  0  0  0  0  0
  190.1250  176.9860  147.0490 C   0  0  0  0  0  0  0  0  0  0  0  0
  192.0460  173.4460  144.1460 N   0  0  0  0  0  2  0  0  0  0  0  0
  188.9410  175.3420  143.7680 C   0  0  0  0  0  0  0  0  0  0  0  0
  187.7650  177.0600  145.1670 C   0  0  0  0  0  2  0  0  0  0  0  0
  186.1220  176.7860  141.9540 O   0  0  0  0  0  0  0  0  0  0  0  0
  188.9000  174.6260  140.6860 C   0  0  1  0  0  3  0  0  0  0  0  0
  187.0100  176.6250  142.8370 C   0  0  0  0  0  0  0  0  0  0  0  0
  190.2310  174.0300  141.1480 C   0  0  2  0  0  3  0  0  0  0  0  0
  191.5280  172.8440  142.9660 C   0  0  0  0  0  0  0  0  0  0  0  0
  187.2290  177.6840  143.8850 C   0  0  1  0  0  3  0  0  0  0  0  0
  187.8800  175.4770  142.7870 N   0  0  0  0  0  0  0  0  0  0  0  0
  191.1360  176.7240  148.0260 N   0  0  0  0  0  0  0  0  0  0  0  0
  190.5690  173.0010  140.0830 C   0  0  0  0  0  2  0  0  0  0  0  0
  188.5660  173.9210  139.3890 C   0  0  0  0  0  2  0  0  0  0  0  0
  189.3050  177.9170  147.2590 O   0  0  0  0  0  0  0  0  0  0  0  0
  191.0570  174.4000  144.4940 C   0  0  0  0  0  0  0  0  0  0  0  0
  192.1170  175.9000  147.8170 C   0  0  0  0  0  3  0  0  0  0  0  0
  190.0520  176.1450  145.8250 C   0  0  0  0  0  0  0  0  0  0  0  0
  190.0000  174.4310  143.6070 C   0  0  0  0  0  0  0  0  0  0  0  0
  192.1190  171.9000  142.3800 O   0  0  0  0  0  0  0  0  0  0  0  0
  190.1940  173.3920  142.5440 C   0  0  1  0  0  3  0  0  0  0  0  0
  189.7910  173.3140  138.8960 N   0  0  0  0  0  2  0  0  0  0  0  0
  187.4360  173.2610  142.0990 O   0  0  0  0  0  1  0  0  0  0  0  0
  192.3230  175.2070  146.4990 C   0  0  0  0  0  2  0  0  0  0  0  0
  191.1110  175.2380  145.6060 C   0  0  0  0  0  0  0  0  0  0  0  0
  187.7140  174.5590  141.6590 C   0  0  2  0  0  3  0  0  0  0  0  0
  186.0000  178.4980  144.1690 C   0  0  0  0  0  3  0  0  0  0  0  0
  184.0570  179.0010  145.3970 O   0  0  0  0  0  1  0  0  0  0  0  0
  185.1810  178.2170  145.1770 C   0  0  0  0  0  3  0  0  0  0  0  0
  1  5  1  0  0  0  0
  1 19  1  0  0  0  0
  2 16  2  0  0  0  0
  2 13  1  0  0  0  0
  3 17  1  0  0  0  0
  4  1  2  0  0  0  0
  6  8  2  0  0  0  0
  7 15  1  6  0  0  0
  7  9  1  0  0  0  0
  7 27  1  0  0  0  0
  8 11  1  0  0  0  0
  9 14  1  6  0  0  0
  9 22  1  0  0  0  0
 10  3  1  0  0  0  0
 11 28  1  1  0  0  0
 11  5  1  0  0  0  0
 12  8  1  0  0  0  0
 12  4  1  0  0  0  0
 17 26  1  0  0  0  0
 18 13  2  0  0  0  0
 19  2  1  0  0  0  0
 20  4  1  0  0  0  0
 20 17  2  0  0  0  0
 21 10  2  0  0  0  0
 22 10  1  1  0  0  0
 22 20  1  0  0  0  0
 23 15  1  0  0  0  0
 23 14  1  0  0  0  0
 25 18  1  0  0  0  0
 26 19  2  0  0  0  0
 26 25  1  0  0  0  0
 27 24  1  1  0  0  0
 27 12  1  0  0  0  0
 28 30  2  0  0  0  0
 30 29  1  0  0  0  0
M  END
>  <MODEL>
6

>  <REMARK>
 VINA RESULT:      -8.0      1.960      5.786
  Name = 
  1 active torsions:
  status: ('A' for Active; 'I' for Inactive)
    1  A    between atoms: C_11  and  C_28
                            x       y       z     vdW  Elec       q    Type
                         _______ _______ _______ _____ _____    ______ ____

>  <TORSDO>
F 1

$$$$
=
 OpenBabel11112416213D

 30 35  0  0  1  0  0  0  0  0999 V2000
  189.2820  176.3640  145.1000 C   0  0  0  0  0  0  0  0  0  0  0  0
  187.0080  177.5040  145.4260 C   0  0  0  0  0  0  0  0  0  0  0  0
  188.1450  174.9830  141.3010 N   0  0  0  0  0  2  0  0  0  0  0  0
  190.1620  175.5980  144.2900 C   0  0  0  0  0  0  0  0  0  0  0  0
  189.8090  176.9210  146.3920 C   0  0  0  0  0  2  0  0  0  0  0  0
  192.8320  174.9530  146.6950 O   0  0  0  0  0  0  0  0  0  0  0  0
  191.9950  173.1300  143.5380 C   0  0  1  0  0  3  0  0  0  0  0  0
  191.7340  175.3550  146.2170 C   0  0  0  0  0  0  0  0  0  0  0  0
  190.9050  173.0740  142.4660 C   0  0  2  0  0  3  0  0  0  0  0  0
  189.3560  174.3420  140.9220 C   0  0  0  0  0  0  0  0  0  0  0  0
  190.6730  175.9080  147.1310 C   0  0  1  0  0  3  0  0  0  0  0  0
  191.4550  175.1950  144.8120 N   0  0  0  0  0  0  0  0  0  0  0  0
  185.7990  177.9550  144.8090 N   0  0  0  0  0  0  0  0  0  0  0  0
  191.5220  172.2490  141.3490 C   0  0  0  0  0  2  0  0  0  0  0  0
  193.1540  172.3300  142.9840 C   0  0  0  0  0  2  0  0  0  0  0  0
  187.2400  177.8310  146.6180 O   0  0  0  0  0  0  0  0  0  0  0  0
  188.4320  175.5000  142.5910 C   0  0  0  0  0  0  0  0  0  0  0  0
  185.4040  177.5310  143.6470 C   0  0  0  0  0  3  0  0  0  0  0  0
  187.9690  176.6820  144.6440 C   0  0  0  0  0  0  0  0  0  0  0  0
  189.7090  175.2010  143.0190 C   0  0  0  0  0  0  0  0  0  0  0  0
  189.5010  173.7960  139.7960 O   0  0  0  0  0  0  0  0  0  0  0  0
  190.4430  174.4450  141.9530 C   0  0  1  0  0  3  0  0  0  0  0  0
  192.6350  171.5010  141.9090 N   0  0  0  0  0  2  0  0  0  0  0  0
  192.9030  175.3280  142.9500 O   0  0  0  0  0  1  0  0  0  0  0  0
  186.1410  176.4680  142.8810 C   0  0  0  0  0  2  0  0  0  0  0  0
  187.5440  176.2340  143.3730 C   0  0  0  0  0  0  0  0  0  0  0  0
  192.4670  174.5160  144.0010 C   0  0  2  0  0  3  0  0  0  0  0  0
  191.2310  176.5100  148.3880 C   0  0  0  0  0  3  0  0  0  0  0  0
  191.5660  178.2900  149.8910 O   0  0  0  0  0  1  0  0  0  0  0  0
  191.0280  177.7820  148.7170 C   0  0  0  0  0  3  0  0  0  0  0  0
  1  5  1  0  0  0  0
  2 16  2  0  0  0  0
  3 17  1  0  0  0  0
  4 12  1  0  0  0  0
  4  1  2  0  0  0  0
  5 11  1  0  0  0  0
  7 15  1  6  0  0  0
  7 27  1  0  0  0  0
  8  6  2  0  0  0  0
  8 11  1  0  0  0  0
  9 14  1  6  0  0  0
  9  7  1  0  0  0  0
 10  3  1  0  0  0  0
 11 28  1  1  0  0  0
 12  8  1  0  0  0  0
 13  2  1  0  0  0  0
 14 23  1  0  0  0  0
 17 20  2  0  0  0  0
 17 26  1  0  0  0  0
 18 13  2  0  0  0  0
 19  1  1  0  0  0  0
 19  2  1  0  0  0  0
 20  4  1  0  0  0  0
 21 10  2  0  0  0  0
 22 10  1  6  0  0  0
 22  9  1  0  0  0  0
 22 20  1  0  0  0  0
 23 15  1  0  0  0  0
 25 26  1  0  0  0  0
 25 18  1  0  0  0  0
 26 19  2  0  0  0  0
 27 24  1  6  0  0  0
 27 12  1  0  0  0  0
 28 30  2  0  0  0  0
 30 29  1  0  0  0  0
M  END
>  <MODEL>
7

>  <REMARK>
 VINA RESULT:      -7.8      1.865      5.427
  Name = 
  1 active torsions:
  status: ('A' for Active; 'I' for Inactive)
    1  A    between atoms: C_11  and  C_28
                            x       y       z     vdW  Elec       q    Type
                         _______ _______ _______ _____ _____    ______ ____

>  <TORSDO>
F 1

$$$$
=
 OpenBabel11112416213D

 30 35  0  0  1  0  0  0  0  0999 V2000
  190.8280  175.0950  143.7800 C   0  0  0  0  0  0  0  0  0  0  0  0
  193.2160  174.1770  143.9580 C   0  0  0  0  0  0  0  0  0  0  0  0
  191.2570  177.1590  147.4110 N   0  0  0  0  0  2  0  0  0  0  0  0
  189.7800  175.8900  144.3140 C   0  0  0  0  0  0  0  0  0  0  0  0
  190.6370  174.4900  142.4180 C   0  0  0  0  0  2  0  0  0  0  0  0
  187.0650  174.9530  142.0610 O   0  0  0  0  0  0  0  0  0  0  0  0
  186.8940  176.4790  145.4720 C   0  0  1  0  0  3  0  0  0  0  0  0
  188.2040  174.9720  142.6070 C   0  0  0  0  0  0  0  0  0  0  0  0
  187.8030  176.8220  146.6540 C   0  0  2  0  0  3  0  0  0  0  0  0
  189.9900  177.8030  147.4560 C   0  0  0  0  0  0  0  0  0  0  0  0
  189.2300  173.9330  142.2420 C   0  0  1  0  0  3  0  0  0  0  0  0
  188.4910  175.9260  143.6490 N   0  0  0  0  0  0  0  0  0  0  0  0
  194.4880  174.2750  144.6040 N   0  0  0  0  0  0  0  0  0  0  0  0
  186.9510  177.7230  147.5310 C   0  0  0  0  0  2  0  0  0  0  0  0
  185.5840  177.1840  145.7470 C   0  0  0  0  0  2  0  0  0  0  0  0
  193.1030  173.4330  142.9490 O   0  0  0  0  0  0  0  0  0  0  0  0
  191.2160  176.4290  146.1960 C   0  0  0  0  0  0  0  0  0  0  0  0
  194.6530  174.8830  145.7380 C   0  0  0  0  0  3  0  0  0  0  0  0
  192.0670  174.9670  144.4740 C   0  0  0  0  0  0  0  0  0  0  0  0
  190.0200  176.5700  145.5220 C   0  0  0  0  0  0  0  0  0  0  0  0
  189.6720  178.5900  148.3860 O   0  0  0  0  0  0  0  0  0  0  0  0
  189.1200  177.5090  146.2680 C   0  0  1  0  0  3  0  0  0  0  0  0
  185.5590  177.5210  147.1600 N   0  0  0  0  0  2  0  0  0  0  0  0
  187.7600  178.1580  143.9110 O   0  0  0  0  0  1  0  0  0  0  0  0
  193.5080  175.4710  146.5150 C   0  0  0  0  0  2  0  0  0  0  0  0
  192.2530  175.6420  145.7000 C   0  0  0  0  0  0  0  0  0  0  0  0
  187.4030  176.8140  144.0630 C   0  0  2  0  0  3  0  0  0  0  0  0
  189.0500  173.3860  140.8560 C   0  0  0  0  0  3  0  0  0  0  0  0
  189.4990  171.8430  139.1360 O   0  0  0  0  0  1  0  0  0  0  0  0
  189.7020  172.3090  140.4280 C   0  0  0  0  0  3  0  0  0  0  0  0
  1  4  2  0  0  0  0
  1 19  1  0  0  0  0
  2 19  1  0  0  0  0
  2 13  1  0  0  0  0
  3 10  1  0  0  0  0
  4 20  1  0  0  0  0
  5  1  1  0  0  0  0
  6  8  2  0  0  0  0
  7 15  1  1  0  0  0
  7  9  1  0  0  0  0
  8 12  1  0  0  0  0
  9 14  1  1  0  0  0
 10 21  2  0  0  0  0
 11 28  1  6  0  0  0
 11  5  1  0  0  0  0
 11  8  1  0  0  0  0
 12 27  1  0  0  0  0
 12  4  1  0  0  0  0
 13 18  2  0  0  0  0
 15 23  1  0  0  0  0
 16  2  2  0  0  0  0
 17  3  1  0  0  0  0
 18 25  1  0  0  0  0
 19 26  2  0  0  0  0
 20 17  2  0  0  0  0
 22 20  1  6  0  0  0
 22  9  1  0  0  0  0
 22 10  1  0  0  0  0
 23 14  1  0  0  0  0
 26 17  1  0  0  0  0
 26 25  1  0  0  0  0
 27 24  1  1  0  0  0
 27  7  1  0  0  0  0
 29 30  1  0  0  0  0
 30 28  2  0  0  0  0
M  END
>  <MODEL>
8

>  <REMARK>
 VINA RESULT:      -7.7      1.487      5.270
  Name = 
  1 active torsions:
  status: ('A' for Active; 'I' for Inactive)
    1  A    between atoms: C_11  and  C_28
                            x       y       z     vdW  Elec       q    Type
                         _______ _______ _______ _____ _____    ______ ____

>  <TORSDO>
F 1

$$$$
=
 OpenBabel11112416213D

 30 35  0  0  1  0  0  0  0  0999 V2000
  189.1030  175.3250  141.8550 C   0  0  0  0  0  0  0  0  0  0  0  0
  189.1300  173.6980  139.8730 C   0  0  0  0  0  0  0  0  0  0  0  0
  192.6970  173.7310  143.3270 N   0  0  0  0  0  2  0  0  0  0  0  0
  189.7120  175.8250  143.0360 C   0  0  0  0  0  0  0  0  0  0  0  0
  187.8850  176.0310  141.3310 C   0  0  0  0  0  2  0  0  0  0  0  0
  187.0510  178.0130  144.2420 O   0  0  0  0  0  0  0  0  0  0  0  0
  189.9210  176.5170  146.1170 C   0  0  1  0  0  3  0  0  0  0  0  0
  187.6650  177.1680  143.5320 C   0  0  0  0  0  0  0  0  0  0  0  0
  191.0440  175.4950  145.9290 C   0  0  2  0  0  3  0  0  0  0  0  0
  192.8800  174.5840  144.4500 C   0  0  0  0  0  0  0  0  0  0  0  0
  186.9310  176.4170  142.4530 C   0  0  1  0  0  3  0  0  0  0  0  0
  189.0410  176.8490  143.8160 N   0  0  0  0  0  0  0  0  0  0  0  0
  189.8970  172.7710  139.1000 N   0  0  0  0  0  0  0  0  0  0  0  0
  191.9640  175.7310  147.1140 C   0  0  0  0  0  2  0  0  0  0  0  0
  190.2530  177.2580  147.3940 C   0  0  0  0  0  2  0  0  0  0  0  0
  187.9930  174.0410  139.4570 O   0  0  0  0  0  0  0  0  0  0  0  0
  191.4920  174.2000  142.7450 C   0  0  0  0  0  0  0  0  0  0  0  0
  190.9990  172.2400  139.5330 C   0  0  0  0  0  3  0  0  0  0  0  0
  189.6970  174.2490  141.1320 C   0  0  0  0  0  0  0  0  0  0  0  0
  190.9310  175.2510  143.4420 C   0  0  0  0  0  0  0  0  0  0  0  0
  193.8880  174.4990  145.1990 O   0  0  0  0  0  0  0  0  0  0  0  0
  191.8050  175.6220  144.6020 C   0  0  1  0  0  3  0  0  0  0  0  0
  191.2120  176.4510  148.1290 N   0  0  0  0  0  2  0  0  0  0  0  0
  190.7930  178.2290  144.5980 O   0  0  0  0  0  1  0  0  0  0  0  0
  191.5280  172.4890  140.9180 C   0  0  0  0  0  2  0  0  0  0  0  0
  190.9050  173.6820  141.5940 C   0  0  0  0  0  0  0  0  0  0  0  0
  189.6570  177.5040  144.9710 C   0  0  2  0  0  3  0  0  0  0  0  0
  185.7520  177.1690  141.9070 C   0  0  0  0  0  3  0  0  0  0  0  0
  184.7160  178.6000  140.3520 O   0  0  0  0  0  1  0  0  0  0  0  0
  185.8360  177.9250  140.8160 C   0  0  0  0  0  3  0  0  0  0  0  0
  1  4  1  0  0  0  0
  2 19  1  0  0  0  0
  3 10  1  0  0  0  0
  4 20  2  0  0  0  0
  4 12  1  0  0  0  0
  5  1  1  0  0  0  0
  5 11  1  0  0  0  0
  7 15  1  1  0  0  0
  8 12  1  0  0  0  0
  8  6  2  0  0  0  0
  9  7  1  0  0  0  0
  9 14  1  1  0  0  0
 10 22  1  0  0  0  0
 10 21  2  0  0  0  0
 11 28  1  6  0  0  0
 11  8  1  0  0  0  0
 12 27  1  0  0  0  0
 13 18  2  0  0  0  0
 13  2  1  0  0  0  0
 14 23  1  0  0  0  0
 15 23  1  0  0  0  0
 16  2  2  0  0  0  0
 17  3  1  0  0  0  0
 17 20  1  0  0  0  0
 18 25  1  0  0  0  0
 19 26  1  0  0  0  0
 19  1  2  0  0  0  0
 22 20  1  6  0  0  0
 22  9  1  0  0  0  0
 25 26  1  0  0  0  0
 26 17  2  0  0  0  0
 27 24  1  6  0  0  0
 27  7  1  0  0  0  0
 29 30  1  0  0  0  0
 30 28  2  0  0  0  0
M  END
>  <MODEL>
9

>  <REMARK>
 VINA RESULT:      -7.6      2.202      5.174
  Name = 
  1 active torsions:
  status: ('A' for Active; 'I' for Inactive)
    1  A    between atoms: C_11  and  C_28
                            x       y       z     vdW  Elec       q    Type
                         _______ _______ _______ _____ _____    ______ ____

>  <TORSDO>
F 1

$$$$
