=
 OpenBabel11112416283D

 32 37  0  0  1  0  0  0  0  0999 V2000
  187.5850  177.7030  143.1830 C   0  0  1  0  0  3  0  0  0  0  0  0
  185.8730  178.7180  147.8250 C   0  0  0  0  0  2  0  0  0  0  0  0
  184.4790  178.4400  147.2980 C   0  0  0  0  0  2  0  0  0  0  0  0
  186.0520  177.8490  141.1950 C   0  0  0  0  0  0  0  0  0  0  0  0
  184.7850  178.0560  140.8460 C   0  0  0  0  0  0  0  0  0  0  0  0
  189.8460  176.8250  142.9480 C   0  0  0  0  0  3  0  0  0  0  0  0
  189.0840  177.5170  145.1590 C   0  0  0  0  0  3  0  0  0  0  0  0
  182.5370  178.1170  141.1530 N   0  0  0  0  0  0  0  0  0  0  0  0
  186.8770  177.9420  146.9850 C   0  0  0  0  0  2  0  0  0  0  0  0
  187.7920  177.8360  144.6090 N   0  0  0  0  0  0  0  0  0  0  0  0
  186.7020  178.1630  145.4970 C   0  0  0  0  0  0  0  0  0  0  0  0
  185.3740  178.7910  143.5090 C   0  0  2  0  0  3  0  0  0  0  0  0
  182.7250  177.6940  139.8160 N   0  0  0  0  0  0  0  0  0  0  0  0
  190.0640  177.0210  144.3970 C   0  0  0  0  0  0  0  0  0  0  0  0
  184.1330  177.6480  139.6530 N   0  0  0  0  0  0  0  0  0  0  0  0
  184.3720  178.9820  145.8800 C   0  0  0  0  0  2  0  0  0  0  0  0
  185.5040  178.5270  144.9870 C   0  0  0  0  0  0  0  0  0  0  0  0
  183.9910  178.5940  143.0370 N   0  0  0  0  0  2  0  0  0  0  0  0
  188.6840  177.1390  142.3760 C   0  0  0  0  0  3  0  0  0  0  0  0
  186.9670  177.3960  140.2510 O   0  0  0  0  0  1  0  0  0  0  0  0
  181.2410  178.1490  141.8050 C   0  0  0  0  0  1  0  0  0  0  0  0
  186.4060  178.0670  142.6370 C   0  0  0  0  0  0  0  0  0  0  0  0
  183.7760  178.3700  141.7780 C   0  0  0  0  0  0  0  0  0  0  0  0
  191.4830  175.4700  145.8870 C   0  0  2  0  0  3  0  0  0  0  0  0
  191.4070  176.7390  145.0190 C   0  0  1  0  0  3  0  0  0  0  0  0
  192.0290  175.4640  144.4760 C   0  0  1  0  0  3  0  0  0  0  0  0
  193.4780  175.5810  144.5190 N   0  0  0  0  0  2  0  0  0  0  0  0
  194.2330  176.0330  143.3960 C   0  0  0  0  0  0  0  0  0  0  0  0
  193.6590  176.3470  142.3190 O   0  0  0  0  0  0  0  0  0  0  0  0
  195.7120  176.1320  143.4960 C   0  0  0  0  0  1  0  0  0  0  0  0
  190.2400  174.6330  145.9270 C   0  0  0  0  0  3  0  0  0  0  0  0
  189.5240  174.5550  147.0430 C   0  0  0  0  0  2  0  0  0  0  0  0
  1 19  1  1  0  0  0
  1 10  1  0  0  0  0
  3  2  1  0  0  0  0
  4 22  2  0  0  0  0
  5  4  1  0  0  0  0
  5 23  2  0  0  0  0
  6 14  1  0  0  0  0
  8 23  1  0  0  0  0
  8 21  1  0  0  0  0
  9  2  1  0  0  0  0
 10  7  1  0  0  0  0
 10 11  1  0  0  0  0
 11  9  1  0  0  0  0
 12 22  1  6  0  0  0
 12 17  1  0  0  0  0
 13  8  1  0  0  0  0
 14  7  2  0  0  0  0
 15 13  2  0  0  0  0
 15  5  1  0  0  0  0
 16  3  1  0  0  0  0
 17 11  2  0  0  0  0
 17 16  1  0  0  0  0
 18 12  1  0  0  0  0
 19  6  2  0  0  0  0
 20  4  1  0  0  0  0
 22  1  1  0  0  0  0
 23 18  1  0  0  0  0
 24 31  1  6  0  0  0
 25 14  1  6  0  0  0
 25 24  1  0  0  0  0
 26 27  1  1  0  0  0
 26 25  1  0  0  0  0
 26 24  1  0  0  0  0
 28 30  1  0  0  0  0
 28 27  1  0  0  0  0
 29 28  2  0  0  0  0
 31 32  2  0  0  0  0
M  END
>  <MODEL>
1

>  <REMARK>
 VINA RESULT:      -9.5      0.000      0.000
  Name = 
  3 active torsions:
  status: ('A' for Active; 'I' for Inactive)
    1  A    between atoms: C_1  and  C_16
    2  A    between atoms: C_10  and  C_17
    3  A    between atoms: C_20  and  N_29
                            x       y       z     vdW  Elec       q    Type
                         _______ _______ _______ _____ _____    ______ ____

>  <TORSDO>
F 3

$$$$
=
 OpenBabel11112416283D

 32 37  0  0  1  0  0  0  0  0999 V2000
  187.9820  175.2650  141.0490 C   0  0  1  0  0  3  0  0  0  0  0  0
  189.8800  173.3030  145.2980 C   0  0  0  0  0  2  0  0  0  0  0  0
  190.8380  172.5160  144.4260 C   0  0  0  0  0  2  0  0  0  0  0  0
  188.2960  174.0910  138.8480 C   0  0  0  0  0  0  0  0  0  0  0  0
  188.8970  173.0500  138.2760 C   0  0  0  0  0  0  0  0  0  0  0  0
  186.9870  177.4880  141.1420 C   0  0  0  0  0  3  0  0  0  0  0  0
  187.7150  176.4440  143.2220 C   0  0  0  0  0  3  0  0  0  0  0  0
  190.4570  171.4140  138.0800 N   0  0  0  0  0  0  0  0  0  0  0  0
  189.4710  174.5680  144.5570 C   0  0  0  0  0  2  0  0  0  0  0  0
  188.1950  175.3080  142.4790 N   0  0  0  0  0  0  0  0  0  0  0  0
  188.9790  174.2990  143.1500 C   0  0  0  0  0  0  0  0  0  0  0  0
  188.8300  172.9300  141.0980 C   0  0  2  0  0  3  0  0  0  0  0  0
  190.2040  171.8550  136.7600 N   0  0  0  0  0  0  0  0  0  0  0  0
  187.1570  177.4940  142.6110 C   0  0  0  0  0  0  0  0  0  0  0  0
  189.2400  172.8860  136.9090 N   0  0  0  0  0  0  0  0  0  0  0  0
  190.1050  172.0680  143.1700 C   0  0  0  0  0  2  0  0  0  0  0  0
  189.3780  173.1970  142.4760 C   0  0  0  0  0  0  0  0  0  0  0  0
  189.7440  172.0930  140.2980 N   0  0  0  0  0  2  0  0  0  0  0  0
  187.3770  176.4470  140.4060 C   0  0  0  0  0  3  0  0  0  0  0  0
  187.6970  175.0660  138.0570 O   0  0  0  0  0  1  0  0  0  0  0  0
  191.5060  170.4690  138.4180 C   0  0  0  0  0  1  0  0  0  0  0  0
  188.3570  174.1780  140.3440 C   0  0  0  0  0  0  0  0  0  0  0  0
  189.6500  172.1080  139.0050 C   0  0  0  0  0  0  0  0  0  0  0  0
  185.1190  178.8770  143.3680 C   0  0  2  0  0  3  0  0  0  0  0  0
  186.6390  178.6390  143.4420 C   0  0  1  0  0  3  0  0  0  0  0  0
  185.7240  178.1630  144.5580 C   0  0  1  0  0  3  0  0  0  0  0  0
  185.8160  179.0850  145.6780 N   0  0  0  0  0  2  0  0  0  0  0  0
  186.1360  178.6440  146.9970 C   0  0  0  0  0  0  0  0  0  0  0  0
  186.3520  177.4240  147.2320 O   0  0  0  0  0  0  0  0  0  0  0  0
  186.2150  179.6310  148.1040 C   0  0  0  0  0  1  0  0  0  0  0  0
  184.3430  177.8850  142.5550 C   0  0  0  0  0  3  0  0  0  0  0  0
  183.2530  178.2690  141.8990 C   0  0  0  0  0  2  0  0  0  0  0  0
  1 19  1  6  0  0  0
  1 10  1  0  0  0  0
  3  2  1  0  0  0  0
  4 22  2  0  0  0  0
  5  4  1  0  0  0  0
  5 23  2  0  0  0  0
  6 14  1  0  0  0  0
  8 21  1  0  0  0  0
  8 23  1  0  0  0  0
  9  2  1  0  0  0  0
 10 11  1  0  0  0  0
 10  7  1  0  0  0  0
 11  9  1  0  0  0  0
 12 18  1  6  0  0  0
 12 17  1  0  0  0  0
 13 15  2  0  0  0  0
 13  8  1  0  0  0  0
 14  7  2  0  0  0  0
 15  5  1  0  0  0  0
 16  3  1  0  0  0  0
 17 11  2  0  0  0  0
 17 16  1  0  0  0  0
 19  6  2  0  0  0  0
 20  4  1  0  0  0  0
 22  1  1  0  0  0  0
 22 12  1  0  0  0  0
 23 18  1  0  0  0  0
 24 31  1  6  0  0  0
 24 25  1  0  0  0  0
 24 26  1  0  0  0  0
 25 14  1  6  0  0  0
 25 26  1  0  0  0  0
 26 27  1  1  0  0  0
 27 28  1  0  0  0  0
 28 29  2  0  0  0  0
 28 30  1  0  0  0  0
 32 31  2  0  0  0  0
M  END
>  <MODEL>
2

>  <REMARK>
 VINA RESULT:      -7.9      4.245      7.469
  Name = 
  3 active torsions:
  status: ('A' for Active; 'I' for Inactive)
    1  A    between atoms: C_1  and  C_16
    2  A    between atoms: C_10  and  C_17
    3  A    between atoms: C_20  and  N_29
                            x       y       z     vdW  Elec       q    Type
                         _______ _______ _______ _____ _____    ______ ____

>  <TORSDO>
F 3

$$$$
=
 OpenBabel11112416283D

 32 37  0  0  1  0  0  0  0  0999 V2000
  188.4440  176.0170  142.6130 C   0  0  1  0  0  3  0  0  0  0  0  0
  192.1190  175.6080  146.0530 C   0  0  0  0  0  2  0  0  0  0  0  0
  191.0870  175.9790  147.0990 C   0  0  0  0  0  2  0  0  0  0  0  0
  186.3780  177.3650  143.1030 C   0  0  0  0  0  0  0  0  0  0  0  0
  185.7640  178.0540  144.0610 C   0  0  0  0  0  0  0  0  0  0  0  0
  188.6010  174.6770  140.5840 C   0  0  0  0  0  3  0  0  0  0  0  0
  190.4680  174.6480  142.1520 C   0  0  0  0  0  3  0  0  0  0  0  0
  185.2820  178.6480  146.1980 N   0  0  0  0  0  0  0  0  0  0  0  0
  191.4080  174.9600  144.8730 C   0  0  0  0  0  2  0  0  0  0  0  0
  189.7350  175.5200  143.0330 N   0  0  0  0  0  0  0  0  0  0  0  0
  190.2430  175.7820  144.3580 C   0  0  0  0  0  0  0  0  0  0  0  0
  188.4770  177.4900  144.6140 C   0  0  2  0  0  3  0  0  0  0  0  0
  184.0590  178.7420  145.4950 N   0  0  0  0  0  0  0  0  0  0  0  0
  189.9460  174.2220  140.9970 C   0  0  0  0  0  0  0  0  0  0  0  0
  184.3800  178.3510  144.1690 N   0  0  0  0  0  0  0  0  0  0  0  0
  190.1550  177.0340  146.5200 C   0  0  0  0  0  2  0  0  0  0  0  0
  189.5970  176.6490  145.1680 C   0  0  0  0  0  0  0  0  0  0  0  0
  187.5310  177.9080  145.6660 N   0  0  0  0  0  2  0  0  0  0  0  0
  187.8920  175.5140  141.3400 C   0  0  0  0  0  3  0  0  0  0  0  0
  185.7050  177.0670  141.9230 O   0  0  0  0  0  1  0  0  0  0  0  0
  185.3890  178.8040  147.6370 C   0  0  0  0  0  1  0  0  0  0  0  0
  187.7730  176.8930  143.3900 C   0  0  0  0  0  0  0  0  0  0  0  0
  186.3290  178.2630  145.3350 C   0  0  0  0  0  0  0  0  0  0  0  0
  190.8890  171.8690  140.5360 C   0  0  2  0  0  3  0  0  0  0  0  0
  190.7720  173.3410  140.0970 C   0  0  1  0  0  3  0  0  0  0  0  0
  189.9330  172.2630  139.4310 C   0  0  1  0  0  3  0  0  0  0  0  0
  190.5190  171.9270  138.1440 N   0  0  0  0  0  2  0  0  0  0  0  0
  190.2400  170.6920  137.4850 C   0  0  0  0  0  0  0  0  0  0  0  0
  189.4670  169.8450  138.0080 O   0  0  0  0  0  0  0  0  0  0  0  0
  190.8690  170.4010  136.1710 C   0  0  0  0  0  1  0  0  0  0  0  0
  190.0940  171.4860  141.7470 C   0  0  0  0  0  3  0  0  0  0  0  0
  190.7080  171.0030  142.8230 C   0  0  0  0  0  2  0  0  0  0  0  0
  1 19  1  1  0  0  0
  1 10  1  0  0  0  0
  1 22  1  0  0  0  0
  2  3  1  0  0  0  0
  4 22  2  0  0  0  0
  4  5  1  0  0  0  0
  5 15  1  0  0  0  0
  5 23  2  0  0  0  0
  6 14  1  0  0  0  0
  6 19  2  0  0  0  0
  7 10  1  0  0  0  0
  8 21  1  0  0  0  0
  9  2  1  0  0  0  0
 10 11  1  0  0  0  0
 11  9  1  0  0  0  0
 11 17  2  0  0  0  0
 12 22  1  6  0  0  0
 12 17  1  0  0  0  0
 12 18  1  0  0  0  0
 13  8  1  0  0  0  0
 14  7  2  0  0  0  0
 15 13  2  0  0  0  0
 16  3  1  0  0  0  0
 17 16  1  0  0  0  0
 20  4  1  0  0  0  0
 23 18  1  0  0  0  0
 23  8  1  0  0  0  0
 24 31  1  1  0  0  0
 25 24  1  0  0  0  0
 25 14  1  1  0  0  0
 26 27  1  6  0  0  0
 26 25  1  0  0  0  0
 26 24  1  0  0  0  0
 28 29  2  0  0  0  0
 28 27  1  0  0  0  0
 30 28  1  0  0  0  0
 31 32  2  0  0  0  0
M  END
>  <MODEL>
3

>  <REMARK>
 VINA RESULT:      -7.8      3.950      5.611
  Name = 
  3 active torsions:
  status: ('A' for Active; 'I' for Inactive)
    1  A    between atoms: C_1  and  C_16
    2  A    between atoms: C_10  and  C_17
    3  A    between atoms: C_20  and  N_29
                            x       y       z     vdW  Elec       q    Type
                         _______ _______ _______ _____ _____    ______ ____

>  <TORSDO>
F 3

$$$$
=
 OpenBabel11112416283D

 32 37  0  0  1  0  0  0  0  0999 V2000
  190.9110  176.0790  145.5120 C   0  0  1  0  0  3  0  0  0  0  0  0
  189.8270  173.9710  141.0530 C   0  0  0  0  0  2  0  0  0  0  0  0
  188.5840  174.8380  141.0220 C   0  0  0  0  0  2  0  0  0  0  0  0
  189.1060  177.1650  146.8850 C   0  0  0  0  0  0  0  0  0  0  0  0
  187.8190  177.5010  146.8700 C   0  0  0  0  0  0  0  0  0  0  0  0
  193.2500  176.2460  146.1770 C   0  0  0  0  0  3  0  0  0  0  0  0
  192.6990  175.0440  144.1280 C   0  0  0  0  0  3  0  0  0  0  0  0
  185.8270  178.0180  145.9130 N   0  0  0  0  0  0  0  0  0  0  0  0
  190.8820  174.6600  141.9070 C   0  0  0  0  0  2  0  0  0  0  0  0
  191.3090  175.3650  144.3190 N   0  0  0  0  0  0  0  0  0  0  0  0
  190.3620  175.0780  143.2680 C   0  0  0  0  0  0  0  0  0  0  0  0
  188.5530  175.6790  144.8390 C   0  0  2  0  0  3  0  0  0  0  0  0
  185.9150  178.8330  147.0660 N   0  0  0  0  0  0  0  0  0  0  0  0
  193.6370  175.4640  144.9840 C   0  0  0  0  0  0  0  0  0  0  0  0
  187.1720  178.5050  147.6370 N   0  0  0  0  0  0  0  0  0  0  0  0
  188.0120  174.9280  142.4300 C   0  0  0  0  0  2  0  0  0  0  0  0
  189.0460  175.3160  143.4630 C   0  0  0  0  0  0  0  0  0  0  0  0
  187.2970  176.4510  144.7850 N   0  0  0  0  0  2  0  0  0  0  0  0
  191.9740  176.5400  146.4260 C   0  0  0  0  0  3  0  0  0  0  0  0
  189.9340  177.6370  147.8980 O   0  0  0  0  0  1  0  0  0  0  0  0
  184.7670  178.1420  144.9290 C   0  0  0  0  0  1  0  0  0  0  0  0
  189.6060  176.3250  145.7470 C   0  0  0  0  0  0  0  0  0  0  0  0
  186.9590  177.1850  145.7990 C   0  0  0  0  0  0  0  0  0  0  0  0
  195.4510  173.6500  145.2240 C   0  0  2  0  0  3  0  0  0  0  0  0
  195.0720  175.0670  144.7550 C   0  0  1  0  0  3  0  0  0  0  0  0
  195.1950  173.9270  143.7580 C   0  0  1  0  0  3  0  0  0  0  0  0
  196.4650  174.0370  143.0590 N   0  0  0  0  0  2  0  0  0  0  0  0
  196.6120  174.8260  141.8790 C   0  0  0  0  0  0  0  0  0  0  0  0
  195.6330  175.4590  141.4020 O   0  0  0  0  0  0  0  0  0  0  0  0
  197.9340  174.9010  141.2050 C   0  0  0  0  0  1  0  0  0  0  0  0
  194.3250  172.8200  145.7610 C   0  0  0  0  0  3  0  0  0  0  0  0
  194.1950  171.5510  145.3860 C   0  0  0  0  0  2  0  0  0  0  0  0
  1 22  1  0  0  0  0
  1 19  1  6  0  0  0
  2  9  1  0  0  0  0
  3  2  1  0  0  0  0
  3 16  1  0  0  0  0
  4 20  1  0  0  0  0
  5  4  1  0  0  0  0
  5 15  1  0  0  0  0
  6 19  2  0  0  0  0
  7 10  1  0  0  0  0
  7 14  2  0  0  0  0
  8 13  1  0  0  0  0
  9 11  1  0  0  0  0
 10  1  1  0  0  0  0
 11 17  2  0  0  0  0
 11 10  1  0  0  0  0
 12 17  1  6  0  0  0
 12 22  1  0  0  0  0
 13 15  2  0  0  0  0
 14  6  1  0  0  0  0
 16 17  1  0  0  0  0
 18 12  1  0  0  0  0
 18 23  1  0  0  0  0
 21  8  1  0  0  0  0
 22  4  2  0  0  0  0
 23  8  1  0  0  0  0
 23  5  2  0  0  0  0
 24 31  1  1  0  0  0
 25 14  1  1  0  0  0
 25 24  1  0  0  0  0
 26 27  1  6  0  0  0
 26 25  1  0  0  0  0
 26 24  1  0  0  0  0
 28 27  1  0  0  0  0
 29 28  2  0  0  0  0
 30 28  1  0  0  0  0
 32 31  2  0  0  0  0
M  END
>  <MODEL>
4

>  <REMARK>
 VINA RESULT:      -7.5      3.247      5.606
  Name = 
  3 active torsions:
  status: ('A' for Active; 'I' for Inactive)
    1  A    between atoms: C_1  and  C_16
    2  A    between atoms: C_10  and  C_17
    3  A    between atoms: C_20  and  N_29
                            x       y       z     vdW  Elec       q    Type
                         _______ _______ _______ _____ _____    ______ ____

>  <TORSDO>
F 3

$$$$
=
 OpenBabel11112416283D

 32 37  0  0  1  0  0  0  0  0999 V2000
  190.5590  174.0720  144.0830 C   0  0  1  0  0  3  0  0  0  0  0  0
  194.1920  176.7670  146.3310 C   0  0  0  0  0  2  0  0  0  0  0  0
  195.1890  175.7980  145.7280 C   0  0  0  0  0  2  0  0  0  0  0  0
  190.9790  171.6930  143.3870 C   0  0  0  0  0  0  0  0  0  0  0  0
  191.9250  170.7600  143.3110 C   0  0  0  0  0  0  0  0  0  0  0  0
  188.4930  175.2040  143.4600 C   0  0  0  0  0  3  0  0  0  0  0  0
  190.1660  176.4400  144.7330 C   0  0  0  0  0  3  0  0  0  0  0  0
  194.0510  169.9750  143.1930 N   0  0  0  0  0  0  0  0  0  0  0  0
  192.9480  176.7980  145.4530 C   0  0  0  0  0  2  0  0  0  0  0  0
  191.0360  175.2930  144.6950 N   0  0  0  0  0  0  0  0  0  0  0  0
  192.3980  175.4180  145.1560 C   0  0  0  0  0  0  0  0  0  0  0  0
  192.6140  172.9660  144.9370 C   0  0  2  0  0  3  0  0  0  0  0  0
  193.2810  169.1050  142.3850 N   0  0  0  0  0  0  0  0  0  0  0  0
  188.9670  176.4280  144.1410 C   0  0  0  0  0  0  0  0  0  0  0  0
  191.9620  169.6240  142.4620 N   0  0  0  0  0  0  0  0  0  0  0  0
  194.5970  174.3970  145.7630 C   0  0  0  0  0  2  0  0  0  0  0  0
  193.2010  174.3310  145.1860 C   0  0  0  0  0  0  0  0  0  0  0  0
  193.6240  172.0190  144.4290 N   0  0  0  0  0  2  0  0  0  0  0  0
  189.2380  174.1000  143.4270 C   0  0  0  0  0  3  0  0  0  0  0  0
  189.7510  171.4860  142.7670 O   0  0  0  0  0  1  0  0  0  0  0  0
  195.4990  169.9130  143.2750 C   0  0  0  0  0  1  0  0  0  0  0  0
  191.3280  172.9650  144.1020 C   0  0  0  0  0  0  0  0  0  0  0  0
  193.2370  170.9630  143.7840 C   0  0  0  0  0  0  0  0  0  0  0  0
  187.7070  178.3050  142.9050 C   0  0  2  0  0  3  0  0  0  0  0  0
  188.0840  177.6440  144.2440 C   0  0  1  0  0  3  0  0  0  0  0  0
  186.7180  177.4090  143.6210 C   0  0  1  0  0  3  0  0  0  0  0  0
  185.7320  178.2300  144.3040 N   0  0  0  0  0  2  0  0  0  0  0  0
  185.0670  177.7850  145.4860 C   0  0  0  0  0  0  0  0  0  0  0  0
  185.3180  176.6520  145.9770 O   0  0  0  0  0  0  0  0  0  0  0  0
  184.0670  178.6660  146.1430 C   0  0  0  0  0  1  0  0  0  0  0  0
  188.1900  177.6010  141.6730 C   0  0  0  0  0  3  0  0  0  0  0  0
  187.3590  177.3850  140.6590 C   0  0  0  0  0  2  0  0  0  0  0  0
  1 19  1  6  0  0  0
  1 22  1  0  0  0  0
  1 10  1  0  0  0  0
  3 16  1  0  0  0  0
  3  2  1  0  0  0  0
  4 22  2  0  0  0  0
  5  4  1  0  0  0  0
  5 23  2  0  0  0  0
  6 14  1  0  0  0  0
  8 21  1  0  0  0  0
  8 23  1  0  0  0  0
  9  2  1  0  0  0  0
 10  7  1  0  0  0  0
 10 11  1  0  0  0  0
 11 17  2  0  0  0  0
 11  9  1  0  0  0  0
 12 22  1  6  0  0  0
 12 17  1  0  0  0  0
 13 15  2  0  0  0  0
 13  8  1  0  0  0  0
 14  7  2  0  0  0  0
 15  5  1  0  0  0  0
 17 16  1  0  0  0  0
 18 12  1  0  0  0  0
 19  6  2  0  0  0  0
 20  4  1  0  0  0  0
 23 18  1  0  0  0  0
 24 31  1  6  0  0  0
 24 26  1  0  0  0  0
 24 25  1  0  0  0  0
 25 14  1  6  0  0  0
 26 25  1  0  0  0  0
 26 27  1  1  0  0  0
 27 28  1  0  0  0  0
 28 29  2  0  0  0  0
 28 30  1  0  0  0  0
 32 31  2  0  0  0  0
M  END
>  <MODEL>
5

>  <REMARK>
 VINA RESULT:      -7.5      3.486      8.924
  Name = 
  3 active torsions:
  status: ('A' for Active; 'I' for Inactive)
    1  A    between atoms: C_1  and  C_16
    2  A    between atoms: C_10  and  C_17
    3  A    between atoms: C_20  and  N_29
                            x       y       z     vdW  Elec       q    Type
                         _______ _______ _______ _____ _____    ______ ____

>  <TORSDO>
F 3

$$$$
=
 OpenBabel11112416283D

 32 37  0  0  1  0  0  0  0  0999 V2000
  188.5590  175.2930  143.3850 C   0  0  1  0  0  3  0  0  0  0  0  0
  192.1850  175.2890  146.9000 C   0  0  0  0  0  2  0  0  0  0  0  0
  191.2000  175.9800  147.8200 C   0  0  0  0  0  2  0  0  0  0  0  0
  186.6410  176.9130  143.5290 C   0  0  0  0  0  0  0  0  0  0  0  0
  186.1020  177.8520  144.3010 C   0  0  0  0  0  0  0  0  0  0  0  0
  188.5750  173.5300  141.7020 C   0  0  0  0  0  3  0  0  0  0  0  0
  190.4350  173.6630  143.2730 C   0  0  0  0  0  3  0  0  0  0  0  0
  185.6890  178.9460  146.2470 N   0  0  0  0  0  0  0  0  0  0  0  0
  191.4090  174.4710  145.8770 C   0  0  0  0  0  2  0  0  0  0  0  0
  189.7950  174.7750  143.9280 N   0  0  0  0  0  0  0  0  0  0  0  0
  190.3320  175.2700  145.1740 C   0  0  0  0  0  0  0  0  0  0  0  0
  188.7460  177.1590  145.0150 C   0  0  2  0  0  3  0  0  0  0  0  0
  184.4790  179.0030  145.5170 N   0  0  0  0  0  0  0  0  0  0  0  0
  189.8680  173.0480  142.2300 C   0  0  0  0  0  0  0  0  0  0  0  0
  184.7560  178.3010  144.3150 N   0  0  0  0  0  0  0  0  0  0  0  0
  190.3770  176.9690  147.0060 C   0  0  0  0  0  2  0  0  0  0  0  0
  189.7780  176.3540  145.7610 C   0  0  0  0  0  0  0  0  0  0  0  0
  187.8510  177.8880  145.9320 N   0  0  0  0  0  2  0  0  0  0  0  0
  187.9560  174.5790  142.2430 C   0  0  0  0  0  3  0  0  0  0  0  0
  185.9380  176.4300  142.4300 O   0  0  0  0  0  1  0  0  0  0  0  0
  185.8150  179.4030  147.6190 C   0  0  0  0  0  1  0  0  0  0  0  0
  187.9830  176.3790  143.9380 C   0  0  0  0  0  0  0  0  0  0  0  0
  186.6900  178.2790  145.5090 C   0  0  0  0  0  0  0  0  0  0  0  0
  191.6260  172.3260  140.4910 C   0  0  2  0  0  3  0  0  0  0  0  0
  190.5990  171.9130  141.5610 C   0  0  1  0  0  3  0  0  0  0  0  0
  192.0850  171.9280  141.8780 C   0  0  1  0  0  3  0  0  0  0  0  0
  192.5960  170.5680  141.8450 N   0  0  0  0  0  2  0  0  0  0  0  0
  192.7100  169.7750  143.0260 C   0  0  0  0  0  0  0  0  0  0  0  0
  192.3670  170.2370  144.1470 O   0  0  0  0  0  0  0  0  0  0  0  0
  193.2410  168.3900  142.9330 C   0  0  0  0  0  1  0  0  0  0  0  0
  191.8310  173.8010  140.3200 C   0  0  0  0  0  3  0  0  0  0  0  0
  193.0390  174.3300  140.4870 C   0  0  0  0  0  2  0  0  0  0  0  0
  1 19  1  1  0  0  0
  1 10  1  0  0  0  0
  1 22  1  0  0  0  0
  2  3  1  0  0  0  0
  4 22  2  0  0  0  0
  4  5  1  0  0  0  0
  5 15  1  0  0  0  0
  5 23  2  0  0  0  0
  6 14  1  0  0  0  0
  6 19  2  0  0  0  0
  7 10  1  0  0  0  0
  8 21  1  0  0  0  0
  9  2  1  0  0  0  0
 10 11  1  0  0  0  0
 11 17  2  0  0  0  0
 11  9  1  0  0  0  0
 12 22  1  1  0  0  0
 12 17  1  0  0  0  0
 12 18  1  0  0  0  0
 13  8  1  0  0  0  0
 14  7  2  0  0  0  0
 15 13  2  0  0  0  0
 16  3  1  0  0  0  0
 17 16  1  0  0  0  0
 20  4  1  0  0  0  0
 23 18  1  0  0  0  0
 23  8  1  0  0  0  0
 24 31  1  1  0  0  0
 24 25  1  0  0  0  0
 24 26  1  0  0  0  0
 25 26  1  0  0  0  0
 25 14  1  1  0  0  0
 26 27  1  6  0  0  0
 27 28  1  0  0  0  0
 28 29  2  0  0  0  0
 30 28  1  0  0  0  0
 31 32  2  0  0  0  0
M  END
>  <MODEL>
6

>  <REMARK>
 VINA RESULT:      -7.5      3.411      5.373
  Name = 
  3 active torsions:
  status: ('A' for Active; 'I' for Inactive)
    1  A    between atoms: C_1  and  C_16
    2  A    between atoms: C_10  and  C_17
    3  A    between atoms: C_20  and  N_29
                            x       y       z     vdW  Elec       q    Type
                         _______ _______ _______ _____ _____    ______ ____

>  <TORSDO>
F 3

$$$$
=
 OpenBabel11112416283D

 32 37  0  0  1  0  0  0  0  0999 V2000
  188.6350  174.3930  140.7550 C   0  0  1  0  0  3  0  0  0  0  0  0
  191.6510  171.3300  143.4070 C   0  0  0  0  0  2  0  0  0  0  0  0
  192.4060  171.0710  142.1190 C   0  0  0  0  0  2  0  0  0  0  0  0
  188.4590  174.1640  138.2570 C   0  0  0  0  0  0  0  0  0  0  0  0
  188.9600  173.5080  137.2140 C   0  0  0  0  0  0  0  0  0  0  0  0
  187.5620  176.2500  141.9130 C   0  0  0  0  0  3  0  0  0  0  0  0
  188.8490  174.6430  143.2200 C   0  0  0  0  0  3  0  0  0  0  0  0
  190.5180  172.3140  136.0750 N   0  0  0  0  0  0  0  0  0  0  0  0
  190.9930  172.7000  143.3210 C   0  0  0  0  0  2  0  0  0  0  0  0
  189.1950  173.9430  142.0100 N   0  0  0  0  0  0  0  0  0  0  0  0
  190.1820  172.8910  142.0560 C   0  0  0  0  0  0  0  0  0  0  0  0
  189.6090  172.3580  139.7120 C   0  0  2  0  0  3  0  0  0  0  0  0
  189.9160  173.1610  135.1160 N   0  0  0  0  0  0  0  0  0  0  0  0
  188.0930  175.7450  143.1970 C   0  0  0  0  0  0  0  0  0  0  0  0
  188.9600  173.9070  135.8520 N   0  0  0  0  0  0  0  0  0  0  0  0
  191.4110  171.0060  140.9690 C   0  0  0  0  0  2  0  0  0  0  0  0
  190.4660  172.1850  140.9380 C   0  0  0  0  0  0  0  0  0  0  0  0
  190.3420  172.0200  138.4780 N   0  0  0  0  0  2  0  0  0  0  0  0
  187.8180  175.6210  140.7660 C   0  0  0  0  0  3  0  0  0  0  0  0
  187.6230  175.2570  138.0530 O   0  0  0  0  0  1  0  0  0  0  0  0
  191.6730  171.4820  135.7910 C   0  0  0  0  0  1  0  0  0  0  0  0
  188.8870  173.7080  139.6210 C   0  0  0  0  0  0  0  0  0  0  0  0
  189.9270  172.4910  137.3440 C   0  0  0  0  0  0  0  0  0  0  0  0
  188.6840  177.5350  144.9530 C   0  0  2  0  0  3  0  0  0  0  0  0
  187.7310  176.4160  144.4970 C   0  0  1  0  0  3  0  0  0  0  0  0
  187.3620  177.8770  144.3000 C   0  0  1  0  0  3  0  0  0  0  0  0
  186.4070  178.2720  145.3220 N   0  0  0  0  0  2  0  0  0  0  0  0
  185.0000  178.2600  145.0860 C   0  0  0  0  0  0  0  0  0  0  0  0
  184.5370  177.9020  143.9700 O   0  0  0  0  0  0  0  0  0  0  0  0
  184.0690  178.6760  146.1670 C   0  0  0  0  0  1  0  0  0  0  0  0
  189.7930  177.8740  144.0040 C   0  0  0  0  0  3  0  0  0  0  0  0
  191.0570  177.6380  144.3420 C   0  0  0  0  0  2  0  0  0  0  0  0
  1 19  1  6  0  0  0
  1 10  1  0  0  0  0
  3  2  1  0  0  0  0
  4 22  2  0  0  0  0
  5 23  2  0  0  0  0
  5  4  1  0  0  0  0
  6 14  1  0  0  0  0
  8 23  1  0  0  0  0
  9  2  1  0  0  0  0
 10 11  1  0  0  0  0
 10  7  1  0  0  0  0
 11  9  1  0  0  0  0
 12 18  1  6  0  0  0
 12 17  1  0  0  0  0
 13 15  2  0  0  0  0
 13  8  1  0  0  0  0
 14  7  2  0  0  0  0
 15  5  1  0  0  0  0
 16  3  1  0  0  0  0
 17 16  1  0  0  0  0
 17 11  2  0  0  0  0
 19  6  2  0  0  0  0
 20  4  1  0  0  0  0
 21  8  1  0  0  0  0
 22 12  1  0  0  0  0
 22  1  1  0  0  0  0
 23 18  1  0  0  0  0
 24 31  1  6  0  0  0
 25 14  1  6  0  0  0
 25 24  1  0  0  0  0
 26 25  1  0  0  0  0
 26 24  1  0  0  0  0
 26 27  1  1  0  0  0
 28 27  1  0  0  0  0
 28 30  1  0  0  0  0
 29 28  2  0  0  0  0
 31 32  2  0  0  0  0
M  END
>  <MODEL>
7

>  <REMARK>
 VINA RESULT:      -7.4      4.785      7.869
  Name = 
  3 active torsions:
  status: ('A' for Active; 'I' for Inactive)
    1  A    between atoms: C_1  and  C_16
    2  A    between atoms: C_10  and  C_17
    3  A    between atoms: C_20  and  N_29
                            x       y       z     vdW  Elec       q    Type
                         _______ _______ _______ _____ _____    ______ ____

>  <TORSDO>
F 3

$$$$
=
 OpenBabel11112416283D

 32 37  0  0  1  0  0  0  0  0999 V2000
  189.0880  174.9060  142.2020 C   0  0  1  0  0  3  0  0  0  0  0  0
  189.5910  175.0290  147.2260 C   0  0  0  0  0  2  0  0  0  0  0  0
  188.2140  175.6580  147.2800 C   0  0  0  0  0  2  0  0  0  0  0  0
  187.4560  176.4280  141.0440 C   0  0  0  0  0  0  0  0  0  0  0  0
  186.5030  177.3290  141.2670 C   0  0  0  0  0  0  0  0  0  0  0  0
  190.2660  173.1700  140.9620 C   0  0  0  0  0  3  0  0  0  0  0  0
  190.6670  173.3710  143.3590 C   0  0  0  0  0  3  0  0  0  0  0  0
  184.8840  178.3730  142.4670 N   0  0  0  0  0  0  0  0  0  0  0  0
  189.6960  174.1880  145.9610 C   0  0  0  0  0  2  0  0  0  0  0  0
  189.7050  174.4410  143.4250 N   0  0  0  0  0  0  0  0  0  0  0  0
  189.2890  174.9440  144.7120 C   0  0  0  0  0  0  0  0  0  0  0  0
  188.0940  176.7550  143.5310 C   0  0  2  0  0  3  0  0  0  0  0  0
  184.4270  178.3820  141.1280 N   0  0  0  0  0  0  0  0  0  0  0  0
  190.9350  172.7430  142.2090 C   0  0  0  0  0  0  0  0  0  0  0  0
  185.4450  177.7110  140.4020 N   0  0  0  0  0  0  0  0  0  0  0  0
  188.0640  176.6170  146.1070 C   0  0  0  0  0  2  0  0  0  0  0  0
  188.4380  175.9910  144.7830 C   0  0  0  0  0  0  0  0  0  0  0  0
  186.7850  177.4270  143.6400 N   0  0  0  0  0  2  0  0  0  0  0  0
  189.3960  174.1800  140.9550 C   0  0  0  0  0  3  0  0  0  0  0  0
  187.6490  175.9270  139.7600 O   0  0  0  0  0  1  0  0  0  0  0  0
  184.0750  178.8170  143.5870 C   0  0  0  0  0  1  0  0  0  0  0  0
  188.2410  175.9550  142.2320 C   0  0  0  0  0  0  0  0  0  0  0  0
  186.1530  177.7670  142.5610 C   0  0  0  0  0  0  0  0  0  0  0  0
  193.4070  172.1120  141.8450 C   0  0  2  0  0  3  0  0  0  0  0  0
  191.9770  171.6560  142.1910 C   0  0  1  0  0  3  0  0  0  0  0  0
  193.0160  171.8450  143.2830 C   0  0  1  0  0  3  0  0  0  0  0  0
  193.5280  170.5470  143.6890 N   0  0  0  0  0  2  0  0  0  0  0  0
  194.1640  170.3450  144.9500 C   0  0  0  0  0  0  0  0  0  0  0  0
  194.3030  171.3010  145.7610 O   0  0  0  0  0  0  0  0  0  0  0  0
  194.6700  168.9960  145.3120 C   0  0  0  0  0  1  0  0  0  0  0  0
  193.5920  173.5880  141.6620 C   0  0  0  0  0  3  0  0  0  0  0  0
  194.5160  174.2360  142.3640 C   0  0  0  0  0  2  0  0  0  0  0  0
  1 19  1  1  0  0  0
  1 22  1  0  0  0  0
  1 10  1  0  0  0  0
  2  3  1  0  0  0  0
  4  5  1  0  0  0  0
  4 22  2  0  0  0  0
  5 23  2  0  0  0  0
  6 14  1  0  0  0  0
  7 10  1  0  0  0  0
  8 23  1  0  0  0  0
  8 21  1  0  0  0  0
  9  2  1  0  0  0  0
 10 11  1  0  0  0  0
 11 17  2  0  0  0  0
 11  9  1  0  0  0  0
 12 22  1  6  0  0  0
 12 18  1  0  0  0  0
 12 17  1  0  0  0  0
 13  8  1  0  0  0  0
 14  7  2  0  0  0  0
 15 13  2  0  0  0  0
 15  5  1  0  0  0  0
 16  3  1  0  0  0  0
 17 16  1  0  0  0  0
 19  6  2  0  0  0  0
 20  4  1  0  0  0  0
 23 18  1  0  0  0  0
 24 31  1  1  0  0  0
 24 25  1  0  0  0  0
 24 26  1  0  0  0  0
 25 14  1  1  0  0  0
 25 26  1  0  0  0  0
 26 27  1  6  0  0  0
 27 28  1  0  0  0  0
 28 30  1  0  0  0  0
 28 29  2  0  0  0  0
 31 32  2  0  0  0  0
M  END
>  <MODEL>
8

>  <REMARK>
 VINA RESULT:      -7.4      3.138      4.375
  Name = 
  3 active torsions:
  status: ('A' for Active; 'I' for Inactive)
    1  A    between atoms: C_1  and  C_16
    2  A    between atoms: C_10  and  C_17
    3  A    between atoms: C_20  and  N_29
                            x       y       z     vdW  Elec       q    Type
                         _______ _______ _______ _____ _____    ______ ____

>  <TORSDO>
F 3

$$$$
=
 OpenBabel11112416283D

 32 37  0  0  1  0  0  0  0  0999 V2000
  192.8850  173.9850  145.2200 C   0  0  1  0  0  3  0  0  0  0  0  0
  189.6590  171.5620  142.1820 C   0  0  0  0  0  2  0  0  0  0  0  0
  190.6710  170.4370  142.1170 C   0  0  0  0  0  2  0  0  0  0  0  0
  195.3280  173.3910  145.2230 C   0  0  0  0  0  0  0  0  0  0  0  0
  196.2130  172.5350  144.7180 C   0  0  0  0  0  0  0  0  0  0  0  0
  191.9840  175.5520  146.8540 C   0  0  0  0  0  3  0  0  0  0  0  0
  190.4600  174.5370  145.2440 C   0  0  0  0  0  3  0  0  0  0  0  0
  196.9040  170.5880  143.7800 N   0  0  0  0  0  0  0  0  0  0  0  0
  189.8460  172.3140  143.4930 C   0  0  0  0  0  2  0  0  0  0  0  0
  191.5520  173.7730  144.6990 N   0  0  0  0  0  0  0  0  0  0  0  0
  191.2820  172.7320  143.7360 C   0  0  0  0  0  0  0  0  0  0  0  0
  193.7190  172.5270  143.3890 C   0  0  2  0  0  3  0  0  0  0  0  0
  197.9410  170.9710  144.6620 N   0  0  0  0  0  0  0  0  0  0  0  0
  190.6360  175.3700  146.2740 C   0  0  0  0  0  0  0  0  0  0  0  0
  197.4800  172.1790  145.2480 N   0  0  0  0  0  0  0  0  0  0  0  0
  192.0700  171.0350  142.0790 C   0  0  0  0  0  2  0  0  0  0  0  0
  192.3060  172.0550  143.1710 C   0  0  0  0  0  0  0  0  0  0  0  0
  194.6930  171.4300  143.2380 N   0  0  0  0  0  2  0  0  0  0  0  0
  193.0390  174.9020  146.3660 C   0  0  0  0  0  3  0  0  0  0  0  0
  195.7020  174.2470  146.2550 O   0  0  0  0  0  1  0  0  0  0  0  0
  196.8810  169.3150  143.0830 C   0  0  0  0  0  1  0  0  0  0  0  0
  193.9330  173.3350  144.6740 C   0  0  0  0  0  0  0  0  0  0  0  0
  195.8650  171.5420  143.7810 C   0  0  0  0  0  0  0  0  0  0  0  0
  189.2470  177.5330  146.0940 C   0  0  2  0  0  3  0  0  0  0  0  0
  189.4650  176.1720  146.7800 C   0  0  1  0  0  3  0  0  0  0  0  0
  188.3910  176.3420  145.7180 C   0  0  1  0  0  3  0  0  0  0  0  0
  187.0940  176.4580  146.3630 N   0  0  0  0  0  2  0  0  0  0  0  0
  186.0490  177.2640  145.8180 C   0  0  0  0  0  0  0  0  0  0  0  0
  186.2230  177.9070  144.7480 O   0  0  0  0  0  0  0  0  0  0  0  0
  184.7420  177.3470  146.5210 C   0  0  0  0  0  1  0  0  0  0  0  0
  190.1690  177.8420  144.9540 C   0  0  0  0  0  3  0  0  0  0  0  0
  189.7000  177.8930  143.7110 C   0  0  0  0  0  2  0  0  0  0  0  0
  1 19  1  1  0  0  0
  2  9  1  0  0  0  0
  3  2  1  0  0  0  0
  4 20  1  0  0  0  0
  5  4  1  0  0  0  0
  5 15  1  0  0  0  0
  7 14  2  0  0  0  0
  8 23  1  0  0  0  0
  8 13  1  0  0  0  0
  9 11  1  0  0  0  0
 10  1  1  0  0  0  0
 10  7  1  0  0  0  0
 11 10  1  0  0  0  0
 12 17  1  1  0  0  0
 12 22  1  0  0  0  0
 13 15  2  0  0  0  0
 14  6  1  0  0  0  0
 16  3  1  0  0  0  0
 16 17  1  0  0  0  0
 17 11  2  0  0  0  0
 18 12  1  0  0  0  0
 18 23  1  0  0  0  0
 19  6  2  0  0  0  0
 21  8  1  0  0  0  0
 22  1  1  0  0  0  0
 22  4  2  0  0  0  0
 23  5  2  0  0  0  0
 24 31  1  6  0  0  0
 24 25  1  0  0  0  0
 25 14  1  6  0  0  0
 26 24  1  0  0  0  0
 26 27  1  1  0  0  0
 26 25  1  0  0  0  0
 28 27  1  0  0  0  0
 28 30  1  0  0  0  0
 29 28  2  0  0  0  0
 32 31  2  0  0  0  0
M  END
>  <MODEL>
9

>  <REMARK>
 VINA RESULT:      -7.2      3.687     10.008
  Name = 
  3 active torsions:
  status: ('A' for Active; 'I' for Inactive)
    1  A    between atoms: C_1  and  C_16
    2  A    between atoms: C_10  and  C_17
    3  A    between atoms: C_20  and  N_29
                            x       y       z     vdW  Elec       q    Type
                         _______ _______ _______ _____ _____    ______ ____

>  <TORSDO>
F 3

$$$$
