=
 OpenBabel11112416313D

 32 37  0  0  1  0  0  0  0  0999 V2000
  190.8150  173.0310  143.8100 C   0  0  0  0  0  2  0  0  0  0  0  0
  187.6390  177.4580  142.4070 C   0  0  1  0  0  3  0  0  0  0  0  0
  186.9990  176.6080  146.8810 C   0  0  0  0  0  2  0  0  0  0  0  0
  186.3620  177.9540  147.2370 C   0  0  0  0  0  2  0  0  0  0  0  0
  185.4840  177.5420  141.0530 C   0  0  1  0  0  3  0  0  0  0  0  0
  184.0360  177.9140  141.1180 C   0  0  0  0  0  0  0  0  0  0  0  0
  189.0450  175.4220  142.3990 C   0  0  1  0  0  3  0  0  0  0  0  0
  189.7680  177.5180  143.6050 C   0  0  0  0  0  2  0  0  0  0  0  0
  182.1260  178.5660  141.9240 N   0  0  0  0  0  0  0  0  0  0  0  0
  191.2660  175.5090  143.6170 C   0  0  0  0  0  2  0  0  0  0  0  0
  187.6020  176.5720  145.4690 C   0  0  0  0  0  2  0  0  0  0  0  0
  188.3890  178.0330  143.5380 N   0  0  2  0  0  0  0  0  0  0  0  0
  187.6830  177.9710  144.8360 C   0  0  1  0  0  3  0  0  0  0  0  0
  185.4580  178.0590  143.5960 C   0  0  1  0  0  3  0  0  0  0  0  0
  181.9450  178.1220  140.6880 N   0  0  0  0  0  0  0  0  0  0  0  0
  189.3160  173.1390  143.5620 C   0  0  0  0  0  2  0  0  0  0  0  0
  189.8250  175.9860  143.5960 C   0  0  2  0  0  3  0  0  0  0  0  0
  183.0970  177.7050  140.1700 N   0  0  0  0  0  0  0  0  0  0  0  0
  189.0620  173.8930  142.2610 C   0  0  0  0  0  2  0  0  0  0  0  0
  191.3760  174.2740  144.5010 C   0  0  2  0  0  3  0  0  0  0  0  0
  185.5020  178.4660  146.0830 C   0  0  0  0  0  2  0  0  0  0  0  0
  186.2850  178.6230  144.7620 C   0  0  1  0  0  3  0  0  0  0  0  0
  184.1330  178.8320  143.4720 C   0  0  0  0  0  2  0  0  0  0  0  0
  187.6120  175.9270  142.4400 C   0  0  0  0  0  2  0  0  0  0  0  0
  186.0930  178.0600  139.7610 C   0  0  0  0  0  1  0  0  0  0  0  0
  181.0750  179.1010  142.7710 C   0  0  0  0  0  1  0  0  0  0  0  0
  186.2580  178.1120  142.2670 C   0  0  1  0  0  3  0  0  0  0  0  0
  183.4230  178.4250  142.2250 C   0  0  0  0  0  0  0  0  0  0  0  0
  192.7730  174.0560  144.8410 N   0  0  0  0  0  2  0  0  0  0  0  0
  193.4760  174.8770  145.7760 C   0  0  0  0  0  0  0  0  0  0  0  0
  192.9050  175.8520  146.3320 O   0  0  0  0  0  0  0  0  0  0  0  0
  194.8960  174.5790  146.0930 C   0  0  0  0  0  1  0  0  0  0  0  0
  1 20  1  0  0  0  0
  2 24  1  1  0  0  0
  2 12  1  0  0  0  0
  3  4  1  0  0  0  0
  5 25  1  6  0  0  0
  5  6  1  0  0  0  0
  5 27  1  0  0  0  0
  6 28  2  0  0  0  0
  7 19  1  1  0  0  0
  7 24  1  0  0  0  0
  7 17  1  0  0  0  0
  9 28  1  0  0  0  0
  9 26  1  0  0  0  0
 10 20  1  0  0  0  0
 11  3  1  0  0  0  0
 12  8  1  1  0  0  0
 12 13  1  0  0  0  0
 13 11  1  6  0  0  0
 14 23  1  6  0  0  0
 14 22  1  0  0  0  0
 15  9  1  0  0  0  0
 16  1  1  0  0  0  0
 17  8  1  6  0  0  0
 17 10  1  0  0  0  0
 18 15  2  0  0  0  0
 18  6  1  0  0  0  0
 19 16  1  0  0  0  0
 20 29  1  6  0  0  0
 21  4  1  0  0  0  0
 22 13  1  0  0  0  0
 22 21  1  1  0  0  0
 27  2  1  0  0  0  0
 27 14  1  0  0  0  0
 28 23  1  0  0  0  0
 29 30  1  0  0  0  0
 30 32  1  0  0  0  0
 30 31  2  0  0  0  0
M  END
>  <MODEL>
1

>  <REMARK>
 VINA RESULT:      -9.1      0.000      0.000
  Name = 
  1 active torsions:
  status: ('A' for Active; 'I' for Inactive)
    1  A    between atoms: C_20  and  N_29
                            x       y       z     vdW  Elec       q    Type
                         _______ _______ _______ _____ _____    ______ ____

>  <TORSDO>
F 1

$$$$
=
 OpenBabel11112416313D

 32 37  0  0  1  0  0  0  0  0999 V2000
  195.1740  175.4860  145.1970 C   0  0  0  0  0  2  0  0  0  0  0  0
  189.5490  175.4040  145.0810 C   0  0  1  0  0  3  0  0  0  0  0  0
  191.0770  174.1660  140.9240 C   0  0  0  0  0  2  0  0  0  0  0  0
  189.7650  173.5580  140.4170 C   0  0  0  0  0  2  0  0  0  0  0  0
  187.9010  177.3450  145.0400 C   0  0  1  0  0  3  0  0  0  0  0  0
  186.8140  177.9830  144.2340 C   0  0  0  0  0  0  0  0  0  0  0  0
  191.9260  175.7910  145.6470 C   0  0  1  0  0  3  0  0  0  0  0  0
  191.0280  173.4660  145.2520 C   0  0  0  0  0  2  0  0  0  0  0  0
  185.4520  178.3780  142.5880 N   0  0  0  0  0  0  0  0  0  0  0  0
  193.4410  173.7700  145.8550 C   0  0  0  0  0  2  0  0  0  0  0  0
  191.0580  174.4950  142.4230 C   0  0  0  0  0  2  0  0  0  0  0  0
  189.8330  174.0370  144.6080 N   0  0  2  0  0  0  0  0  0  0  0  0
  189.8380  173.8870  143.1370 C   0  0  1  0  0  3  0  0  0  0  0  0
  188.1790  175.8130  142.9630 C   0  0  1  0  0  3  0  0  0  0  0  0
  185.3580  179.3610  143.4720 N   0  0  0  0  0  0  0  0  0  0  0  0
  194.1780  176.4700  144.5960 C   0  0  0  0  0  2  0  0  0  0  0  0
  192.2520  174.3810  145.1350 C   0  0  2  0  0  3  0  0  0  0  0  0
  186.1890  179.1520  144.4890 N   0  0  0  0  0  0  0  0  0  0  0  0
  193.0910  176.7910  145.6170 C   0  0  0  0  0  2  0  0  0  0  0  0
  194.7090  174.0370  145.0540 C   0  0  2  0  0  3  0  0  0  0  0  0
  188.5660  174.3340  140.9600 C   0  0  0  0  0  2  0  0  0  0  0  0
  188.5230  174.3890  142.5020 C   0  0  1  0  0  3  0  0  0  0  0  0
  186.7960  176.2190  142.4220 C   0  0  0  0  0  2  0  0  0  0  0  0
  190.7370  176.3500  144.8830 C   0  0  0  0  0  2  0  0  0  0  0  0
  187.4860  177.2700  146.4990 C   0  0  0  0  0  1  0  0  0  0  0  0
  184.6750  178.2910  141.3640 C   0  0  0  0  0  1  0  0  0  0  0  0
  188.2240  175.9260  144.5100 C   0  0  1  0  0  3  0  0  0  0  0  0
  186.3730  177.5130  143.0310 C   0  0  0  0  0  0  0  0  0  0  0  0
  195.7580  173.1390  145.5120 N   0  0  0  0  0  2  0  0  0  0  0  0
  196.0370  171.8910  144.8730 C   0  0  0  0  0  0  0  0  0  0  0  0
  195.3540  171.5060  143.8870 O   0  0  0  0  0  0  0  0  0  0  0  0
  197.1400  171.0370  145.3810 C   0  0  0  0  0  1  0  0  0  0  0  0
  2 24  1  6  0  0  0
  3 11  1  0  0  0  0
  4  3  1  0  0  0  0
  4 21  1  0  0  0  0
  5 25  1  1  0  0  0
  6 18  1  0  0  0  0
  6  5  1  0  0  0  0
  7 24  1  6  0  0  0
  9 28  1  0  0  0  0
  9 15  1  0  0  0  0
 12  2  1  0  0  0  0
 12  8  1  6  0  0  0
 13 11  1  6  0  0  0
 13 12  1  0  0  0  0
 14 23  1  1  0  0  0
 14 27  1  0  0  0  0
 15 18  2  0  0  0  0
 16  1  1  0  0  0  0
 16 19  1  0  0  0  0
 17  8  1  1  0  0  0
 17  7  1  0  0  0  0
 17 10  1  0  0  0  0
 19  7  1  0  0  0  0
 20  1  1  0  0  0  0
 20 29  1  1  0  0  0
 20 10  1  0  0  0  0
 22 21  1  6  0  0  0
 22 14  1  0  0  0  0
 22 13  1  0  0  0  0
 23 28  1  0  0  0  0
 26  9  1  0  0  0  0
 27  5  1  0  0  0  0
 27  2  1  0  0  0  0
 28  6  2  0  0  0  0
 30 32  1  0  0  0  0
 30 29  1  0  0  0  0
 31 30  2  0  0  0  0
M  END
>  <MODEL>
2

>  <REMARK>
 VINA RESULT:      -8.9      2.181      4.944
  Name = 
  1 active torsions:
  status: ('A' for Active; 'I' for Inactive)
    1  A    between atoms: C_20  and  N_29
                            x       y       z     vdW  Elec       q    Type
                         _______ _______ _______ _____ _____    ______ ____

>  <TORSDO>
F 1

$$$$
=
 OpenBabel11112416313D

 32 37  0  0  1  0  0  0  0  0999 V2000
  186.6660  176.9670  146.4160 C   0  0  0  0  0  2  0  0  0  0  0  0
  191.7970  176.4050  144.1770 C   0  0  1  0  0  3  0  0  0  0  0  0
  189.2200  172.8800  142.7330 C   0  0  0  0  0  2  0  0  0  0  0  0
  190.1270  172.4470  141.5770 C   0  0  0  0  0  2  0  0  0  0  0  0
  193.9800  175.7020  145.2860 C   0  0  1  0  0  3  0  0  0  0  0  0
  195.0580  174.6650  145.2690 C   0  0  0  0  0  0  0  0  0  0  0  0
  189.8430  177.0430  145.5540 C   0  0  1  0  0  3  0  0  0  0  0  0
  189.7950  177.2160  143.0360 C   0  0  0  0  0  2  0  0  0  0  0  0
  196.1560  172.8650  144.7440 N   0  0  0  0  0  0  0  0  0  0  0  0
  187.7840  177.9160  144.3590 C   0  0  0  0  0  2  0  0  0  0  0  0
  189.6190  174.2280  143.3510 C   0  0  0  0  0  2  0  0  0  0  0  0
  190.9780  176.3440  142.9530 N   0  0  2  0  0  0  0  0  0  0  0  0
  190.6590  174.9730  142.4980 C   0  0  1  0  0  3  0  0  0  0  0  0
  192.8230  174.1470  143.5600 C   0  0  1  0  0  3  0  0  0  0  0  0
  196.7400  173.4390  145.7860 N   0  0  0  0  0  0  0  0  0  0  0  0
  187.8160  176.0410  146.7890 C   0  0  0  0  0  2  0  0  0  0  0  0
  188.9630  176.9600  144.2980 C   0  0  2  0  0  3  0  0  0  0  0  0
  196.0830  174.5410  146.1380 N   0  0  0  0  0  0  0  0  0  0  0  0
  189.1110  176.8420  146.8880 C   0  0  0  0  0  2  0  0  0  0  0  0
  186.5670  177.1820  144.9060 C   0  0  2  0  0  3  0  0  0  0  0  0
  191.5970  172.6570  141.9380 C   0  0  0  0  0  2  0  0  0  0  0  0
  191.9300  174.1180  142.3090 C   0  0  1  0  0  3  0  0  0  0  0  0
  194.1410  173.4010  143.2800 C   0  0  0  0  0  2  0  0  0  0  0  0
  190.9950  176.0590  145.4350 C   0  0  0  0  0  2  0  0  0  0  0  0
  194.5960  177.0870  145.3810 C   0  0  0  0  0  1  0  0  0  0  0  0
  196.6230  171.6490  144.1020 C   0  0  0  0  0  1  0  0  0  0  0  0
  193.0970  175.6040  144.0180 C   0  0  1  0  0  3  0  0  0  0  0  0
  195.0870  173.6010  144.4150 C   0  0  0  0  0  0  0  0  0  0  0  0
  185.3710  177.9520  144.5980 N   0  0  0  0  0  2  0  0  0  0  0  0
  184.7250  177.8960  143.3240 C   0  0  0  0  0  0  0  0  0  0  0  0
  185.1920  177.1830  142.3970 O   0  0  0  0  0  0  0  0  0  0  0  0
  183.4930  178.6910  143.0910 C   0  0  0  0  0  1  0  0  0  0  0  0
  1 16  1  0  0  0  0
  2 24  1  1  0  0  0
  3 11  1  0  0  0  0
  4 21  1  0  0  0  0
  4  3  1  0  0  0  0
  5 25  1  6  0  0  0
  6  5  1  0  0  0  0
  6 18  1  0  0  0  0
  7 24  1  6  0  0  0
  7 19  1  0  0  0  0
  9 15  1  0  0  0  0
 10 20  1  0  0  0  0
 12  8  1  1  0  0  0
 12  2  1  0  0  0  0
 13 12  1  0  0  0  0
 13 11  1  1  0  0  0
 14 23  1  6  0  0  0
 14 27  1  0  0  0  0
 15 18  2  0  0  0  0
 16 19  1  0  0  0  0
 17  8  1  6  0  0  0
 17 10  1  0  0  0  0
 17  7  1  0  0  0  0
 20 29  1  1  0  0  0
 20  1  1  0  0  0  0
 22 21  1  1  0  0  0
 22 13  1  0  0  0  0
 22 14  1  0  0  0  0
 23 28  1  0  0  0  0
 26  9  1  0  0  0  0
 27  2  1  0  0  0  0
 27  5  1  0  0  0  0
 28  9  1  0  0  0  0
 28  6  2  0  0  0  0
 30 29  1  0  0  0  0
 31 30  2  0  0  0  0
 32 30  1  0  0  0  0
M  END
>  <MODEL>
3

>  <REMARK>
 VINA RESULT:      -8.8      2.752      9.158
  Name = 
  1 active torsions:
  status: ('A' for Active; 'I' for Inactive)
    1  A    between atoms: C_20  and  N_29
                            x       y       z     vdW  Elec       q    Type
                         _______ _______ _______ _____ _____    ______ ____

>  <TORSDO>
F 1

$$$$
=
 OpenBabel11112416313D

 32 37  0  0  1  0  0  0  0  0999 V2000
  187.4860  176.6960  146.6920 C   0  0  0  0  0  2  0  0  0  0  0  0
  192.3710  175.3480  144.2450 C   0  0  1  0  0  3  0  0  0  0  0  0
  189.2940  172.1040  143.1660 C   0  0  0  0  0  2  0  0  0  0  0  0
  190.0730  171.4910  141.9980 C   0  0  0  0  0  2  0  0  0  0  0  0
  194.5080  174.4380  145.2890 C   0  0  1  0  0  3  0  0  0  0  0  0
  195.4460  173.2720  145.2870 C   0  0  0  0  0  0  0  0  0  0  0  0
  190.5930  176.3130  145.6710 C   0  0  1  0  0  3  0  0  0  0  0  0
  190.4230  176.3410  143.1530 C   0  0  0  0  0  2  0  0  0  0  0  0
  196.2780  171.3180  144.8300 N   0  0  0  0  0  0  0  0  0  0  0  0
  188.5950  177.3700  144.5240 C   0  0  0  0  0  2  0  0  0  0  0  0
  189.8940  173.4240  143.6730 C   0  0  0  0  0  2  0  0  0  0  0  0
  191.4820  175.3200  143.0700 N   0  0  2  0  0  0  0  0  0  0  0  0
  190.9680  173.9780  142.7220 C   0  0  1  0  0  3  0  0  0  0  0  0
  193.0690  172.9450  143.7290 C   0  0  1  0  0  3  0  0  0  0  0  0
  196.9880  171.8730  145.8020 N   0  0  0  0  0  0  0  0  0  0  0  0
  188.5320  175.6540  147.0680 C   0  0  0  0  0  2  0  0  0  0  0  0
  189.6390  176.2690  144.4680 C   0  0  2  0  0  3  0  0  0  0  0  0
  196.4950  173.0690  146.1110 N   0  0  0  0  0  0  0  0  0  0  0  0
  189.9200  176.2870  147.0500 C   0  0  0  0  0  2  0  0  0  0  0  0
  187.3290  176.8330  145.1770 C   0  0  2  0  0  3  0  0  0  0  0  0
  191.5760  171.5320  142.2710 C   0  0  0  0  0  2  0  0  0  0  0  0
  192.1100  172.9570  142.5280 C   0  0  1  0  0  3  0  0  0  0  0  0
  194.2650  172.0210  143.4340 C   0  0  0  0  0  2  0  0  0  0  0  0
  191.6050  175.1840  145.5610 C   0  0  0  0  0  2  0  0  0  0  0  0
  195.2970  175.7360  145.2620 C   0  0  0  0  0  1  0  0  0  0  0  0
  196.5520  170.0160  144.2470 C   0  0  0  0  0  1  0  0  0  0  0  0
  193.5480  174.3800  144.0750 C   0  0  1  0  0  3  0  0  0  0  0  0
  195.2920  172.1650  144.5060 C   0  0  0  0  0  0  0  0  0  0  0  0
  186.2230  177.7300  144.8790 N   0  0  0  0  0  2  0  0  0  0  0  0
  185.3930  177.5730  143.7260 C   0  0  0  0  0  0  0  0  0  0  0  0
  185.6090  176.6480  142.8990 O   0  0  0  0  0  0  0  0  0  0  0  0
  184.2660  178.5130  143.4990 C   0  0  0  0  0  1  0  0  0  0  0  0
  1 16  1  0  0  0  0
  2 24  1  1  0  0  0
  3 11  1  0  0  0  0
  4 21  1  0  0  0  0
  4  3  1  0  0  0  0
  5 25  1  6  0  0  0
  6  5  1  0  0  0  0
  6 18  1  0  0  0  0
  7 24  1  1  0  0  0
  7 19  1  0  0  0  0
  9 15  1  0  0  0  0
 10 20  1  0  0  0  0
 12  8  1  1  0  0  0
 12  2  1  0  0  0  0
 13 12  1  0  0  0  0
 13 11  1  1  0  0  0
 14 23  1  6  0  0  0
 14 27  1  0  0  0  0
 15 18  2  0  0  0  0
 17  8  1  6  0  0  0
 17 10  1  0  0  0  0
 17  7  1  0  0  0  0
 19 16  1  0  0  0  0
 20 29  1  1  0  0  0
 20  1  1  0  0  0  0
 22 21  1  1  0  0  0
 22 13  1  0  0  0  0
 22 14  1  0  0  0  0
 23 28  1  0  0  0  0
 26  9  1  0  0  0  0
 27  2  1  0  0  0  0
 27  5  1  0  0  0  0
 28  9  1  0  0  0  0
 28  6  2  0  0  0  0
 30 29  1  0  0  0  0
 31 30  2  0  0  0  0
 32 30  1  0  0  0  0
M  END
>  <MODEL>
4

>  <REMARK>
 VINA RESULT:      -8.5      2.866      9.493
  Name = 
  1 active torsions:
  status: ('A' for Active; 'I' for Inactive)
    1  A    between atoms: C_20  and  N_29
                            x       y       z     vdW  Elec       q    Type
                         _______ _______ _______ _____ _____    ______ ____

>  <TORSDO>
F 1

$$$$
=
 OpenBabel11112416313D

 32 37  0  0  1  0  0  0  0  0999 V2000
  195.7290  174.5460  145.4590 C   0  0  0  0  0  2  0  0  0  0  0  0
  190.1800  174.5920  144.5280 C   0  0  1  0  0  3  0  0  0  0  0  0
  192.2880  173.7510  140.5280 C   0  0  0  0  0  2  0  0  0  0  0  0
  191.0610  173.2250  139.7780 C   0  0  0  0  0  2  0  0  0  0  0  0
  188.5670  176.5610  144.4510 C   0  0  1  0  0  3  0  0  0  0  0  0
  187.6120  177.3000  143.5670 C   0  0  0  0  0  0  0  0  0  0  0  0
  192.4520  174.8710  145.4670 C   0  0  1  0  0  3  0  0  0  0  0  0
  191.6080  172.6160  144.7080 C   0  0  0  0  0  2  0  0  0  0  0  0
  186.5050  177.8870  141.7920 N   0  0  0  0  0  0  0  0  0  0  0  0
  193.9100  172.8080  145.6800 C   0  0  0  0  0  2  0  0  0  0  0  0
  192.0530  173.9270  142.0350 C   0  0  0  0  0  2  0  0  0  0  0  0
  190.5220  173.2740  143.9610 N   0  0  2  0  0  0  0  0  0  0  0  0
  190.7400  173.2750  142.4990 C   0  0  1  0  0  3  0  0  0  0  0  0
  189.1350  175.2430  142.2890 C   0  0  1  0  0  3  0  0  0  0  0  0
  186.2900  178.7780  142.7500 N   0  0  0  0  0  0  0  0  0  0  0  0
  194.8360  175.6060  144.8260 C   0  0  0  0  0  2  0  0  0  0  0  0
  192.8410  173.5130  144.8640 C   0  0  2  0  0  3  0  0  0  0  0  0
  186.9640  178.4500  143.8490 N   0  0  0  0  0  0  0  0  0  0  0  0
  193.6150  175.8440  145.7070 C   0  0  0  0  0  2  0  0  0  0  0  0
  195.2810  173.1290  145.1020 C   0  0  2  0  0  3  0  0  0  0  0  0
  189.8000  173.9670  140.2200 C   0  0  0  0  0  2  0  0  0  0  0  0
  189.5340  173.8650  141.7370 C   0  0  1  0  0  3  0  0  0  0  0  0
  187.8470  175.7300  141.5990 C   0  0  0  0  0  2  0  0  0  0  0  0
  191.3900  175.5280  144.6010 C   0  0  0  0  0  2  0  0  0  0  0  0
  187.9440  176.3460  145.8200 C   0  0  0  0  0  1  0  0  0  0  0  0
  185.9140  177.9410  140.4670 C   0  0  0  0  0  1  0  0  0  0  0  0
  188.9550  175.1970  143.8290 C   0  0  1  0  0  3  0  0  0  0  0  0
  187.3480  176.9640  142.2720 C   0  0  0  0  0  0  0  0  0  0  0  0
  196.2480  172.1680  145.6100 N   0  0  0  0  0  2  0  0  0  0  0  0
  196.6070  170.9840  144.8940 C   0  0  0  0  0  0  0  0  0  0  0  0
  196.0710  170.7140  143.7870 O   0  0  0  0  0  0  0  0  0  0  0  0
  197.6210  170.0600  145.4640 C   0  0  0  0  0  1  0  0  0  0  0  0
  2 24  1  6  0  0  0
  3 11  1  0  0  0  0
  4 21  1  0  0  0  0
  4  3  1  0  0  0  0
  5 25  1  1  0  0  0
  6 18  1  0  0  0  0
  6  5  1  0  0  0  0
  7 24  1  6  0  0  0
  7 19  1  0  0  0  0
  9 28  1  0  0  0  0
  9 15  1  0  0  0  0
 12  2  1  0  0  0  0
 12  8  1  1  0  0  0
 13 11  1  1  0  0  0
 13 12  1  0  0  0  0
 14 23  1  6  0  0  0
 14 27  1  0  0  0  0
 15 18  2  0  0  0  0
 16  1  1  0  0  0  0
 16 19  1  0  0  0  0
 17  8  1  1  0  0  0
 17  7  1  0  0  0  0
 17 10  1  0  0  0  0
 20  1  1  0  0  0  0
 20 29  1  1  0  0  0
 20 10  1  0  0  0  0
 22 21  1  6  0  0  0
 22 14  1  0  0  0  0
 22 13  1  0  0  0  0
 23 28  1  0  0  0  0
 26  9  1  0  0  0  0
 27  5  1  0  0  0  0
 27  2  1  0  0  0  0
 28  6  2  0  0  0  0
 30 32  1  0  0  0  0
 30 29  1  0  0  0  0
 31 30  2  0  0  0  0
M  END
>  <MODEL>
5

>  <REMARK>
 VINA RESULT:      -8.1      2.587      5.659
  Name = 
  1 active torsions:
  status: ('A' for Active; 'I' for Inactive)
    1  A    between atoms: C_20  and  N_29
                            x       y       z     vdW  Elec       q    Type
                         _______ _______ _______ _____ _____    ______ ____

>  <TORSDO>
F 1

$$$$
=
 OpenBabel11112416313D

 32 37  0  0  1  0  0  0  0  0999 V2000
  184.9060  177.6150  145.6860 C   0  0  0  0  0  2  0  0  0  0  0  0
  190.1090  176.9610  143.6470 C   0  0  1  0  0  3  0  0  0  0  0  0
  187.5010  173.5400  142.0190 C   0  0  0  0  0  2  0  0  0  0  0  0
  188.4440  173.1080  140.8910 C   0  0  0  0  0  2  0  0  0  0  0  0
  192.2240  176.1750  144.8270 C   0  0  1  0  0  3  0  0  0  0  0  0
  193.2750  175.1100  144.8300 C   0  0  0  0  0  0  0  0  0  0  0  0
  188.1170  177.6230  144.9560 C   0  0  1  0  0  3  0  0  0  0  0  0
  188.1770  177.8520  142.4430 C   0  0  0  0  0  2  0  0  0  0  0  0
  194.3450  173.2920  144.3100 N   0  0  0  0  0  0  0  0  0  0  0  0
  186.1330  178.5770  143.6990 C   0  0  0  0  0  2  0  0  0  0  0  0
  187.9100  174.8630  142.6830 C   0  0  0  0  0  2  0  0  0  0  0  0
  189.3400  176.9490  142.3890 N   0  0  2  0  0  0  0  0  0  0  0  0
  189.0030  175.5980  141.8900 C   0  0  1  0  0  3  0  0  0  0  0  0
  191.0990  174.6910  143.0200 C   0  0  1  0  0  3  0  0  0  0  0  0
  194.9010  173.8280  145.3880 N   0  0  0  0  0  0  0  0  0  0  0  0
  186.0150  176.6500  146.0850 C   0  0  0  0  0  2  0  0  0  0  0  0
  187.2870  177.5910  143.6640 C   0  0  2  0  0  3  0  0  0  0  0  0
  194.2600  174.9390  145.7370 N   0  0  0  0  0  0  0  0  0  0  0  0
  187.3250  177.4130  146.2550 C   0  0  0  0  0  2  0  0  0  0  0  0
  184.8750  177.8660  144.1780 C   0  0  2  0  0  3  0  0  0  0  0  0
  189.9030  173.2700  141.3160 C   0  0  0  0  0  2  0  0  0  0  0  0
  190.2590  174.7130  141.7340 C   0  0  1  0  0  3  0  0  0  0  0  0
  192.4080  173.9150  142.7770 C   0  0  0  0  0  2  0  0  0  0  0  0
  189.2460  176.6100  144.8630 C   0  0  0  0  0  2  0  0  0  0  0  0
  192.8730  177.5410  144.9790 C   0  0  0  0  0  1  0  0  0  0  0  0
  194.8060  172.0780  143.6600 C   0  0  0  0  0  1  0  0  0  0  0  0
  191.3920  176.1290  143.5220 C   0  0  1  0  0  3  0  0  0  0  0  0
  193.3110  174.0640  143.9550 C   0  0  0  0  0  0  0  0  0  0  0  0
  183.7140  178.6740  143.8400 N   0  0  0  0  0  2  0  0  0  0  0  0
  183.0470  178.5750  142.5800 C   0  0  0  0  0  0  0  0  0  0  0  0
  183.4640  177.7870  141.6910 O   0  0  0  0  0  0  0  0  0  0  0  0
  181.8520  179.4160  142.3140 C   0  0  0  0  0  1  0  0  0  0  0  0
  1 16  1  0  0  0  0
  2 24  1  1  0  0  0
  3 11  1  0  0  0  0
  4 21  1  0  0  0  0
  4  3  1  0  0  0  0
  5  6  1  0  0  0  0
  5 25  1  6  0  0  0
  6 18  1  0  0  0  0
  7 24  1  6  0  0  0
  7 19  1  0  0  0  0
  9 15  1  0  0  0  0
 10 20  1  0  0  0  0
 12  8  1  1  0  0  0
 12  2  1  0  0  0  0
 13 12  1  0  0  0  0
 13 11  1  1  0  0  0
 14 23  1  6  0  0  0
 14 27  1  0  0  0  0
 15 18  2  0  0  0  0
 16 19  1  0  0  0  0
 17  8  1  6  0  0  0
 17 10  1  0  0  0  0
 17  7  1  0  0  0  0
 20 29  1  1  0  0  0
 20  1  1  0  0  0  0
 22 21  1  1  0  0  0
 22 13  1  0  0  0  0
 22 14  1  0  0  0  0
 23 28  1  0  0  0  0
 26  9  1  0  0  0  0
 27  2  1  0  0  0  0
 27  5  1  0  0  0  0
 28  9  1  0  0  0  0
 28  6  2  0  0  0  0
 30 29  1  0  0  0  0
 31 30  2  0  0  0  0
 32 30  1  0  0  0  0
M  END
>  <MODEL>
6

>  <REMARK>
 VINA RESULT:      -7.7      2.595      8.619
  Name = 
  1 active torsions:
  status: ('A' for Active; 'I' for Inactive)
    1  A    between atoms: C_20  and  N_29
                            x       y       z     vdW  Elec       q    Type
                         _______ _______ _______ _____ _____    ______ ____

>  <TORSDO>
F 1

$$$$
=
 OpenBabel11112416313D

 32 37  0  0  1  0  0  0  0  0999 V2000
  188.7120  175.6370  146.3370 C   0  0  0  0  0  2  0  0  0  0  0  0
  194.0010  175.0370  144.5130 C   0  0  1  0  0  3  0  0  0  0  0  0
  191.1750  173.5650  141.1960 C   0  0  0  0  0  2  0  0  0  0  0  0
  192.1990  173.5820  140.0580 C   0  0  0  0  0  2  0  0  0  0  0  0
  195.7670  173.3340  145.1960 C   0  0  1  0  0  3  0  0  0  0  0  0
  196.6280  172.2230  144.6840 C   0  0  0  0  0  0  0  0  0  0  0  0
  191.9590  175.3400  145.8770 C   0  0  1  0  0  3  0  0  0  0  0  0
  192.4340  176.8010  143.8740 C   0  0  0  0  0  2  0  0  0  0  0  0
  197.4720  170.7470  143.3310 N   0  0  0  0  0  0  0  0  0  0  0  0
  190.3600  177.1950  145.2240 C   0  0  0  0  0  2  0  0  0  0  0  0
  191.6770  174.2430  142.4790 C   0  0  0  0  0  2  0  0  0  0  0  0
  193.4390  175.8310  143.4050 N   0  0  2  0  0  0  0  0  0  0  0  0
  192.9780  175.0300  142.2500 C   0  0  1  0  0  3  0  0  0  0  0  0
  194.7130  173.2550  142.8260 C   0  0  1  0  0  3  0  0  0  0  0  0
  197.9340  170.5260  144.5540 N   0  0  0  0  0  0  0  0  0  0  0  0
  189.5860  174.3960  146.2160 C   0  0  0  0  0  2  0  0  0  0  0  0
  191.3400  176.1480  144.7260 C   0  0  2  0  0  3  0  0  0  0  0  0
  197.4250  171.4100  145.4090 N   0  0  0  0  0  0  0  0  0  0  0  0
  190.9570  174.6690  146.8270 C   0  0  0  0  0  2  0  0  0  0  0  0
  188.9500  176.6220  145.1920 C   0  0  2  0  0  3  0  0  0  0  0  0
  193.5840  173.1920  140.5730 C   0  0  0  0  0  2  0  0  0  0  0  0
  194.0910  174.1070  141.7080 C   0  0  1  0  0  3  0  0  0  0  0  0
  195.9080  172.4570  142.2710 C   0  0  0  0  0  2  0  0  0  0  0  0
  192.9210  174.3060  145.3150 C   0  0  0  0  0  2  0  0  0  0  0  0
  196.5870  174.2580  146.0800 C   0  0  0  0  0  1  0  0  0  0  0  0
  197.8340  169.9690  142.1590 C   0  0  0  0  0  1  0  0  0  0  0  0
  195.1450  174.1370  144.0270 C   0  0  1  0  0  3  0  0  0  0  0  0
  196.6340  171.7900  143.3900 C   0  0  0  0  0  0  0  0  0  0  0  0
  187.9920  177.7140  145.2790 N   0  0  0  0  0  2  0  0  0  0  0  0
  186.9060  177.8600  144.3610 C   0  0  0  0  0  0  0  0  0  0  0  0
  186.7510  177.0470  143.4120 O   0  0  0  0  0  0  0  0  0  0  0  0
  185.9510  178.9870  144.5270 C   0  0  0  0  0  1  0  0  0  0  0  0
  2 24  1  6  0  0  0
  3 11  1  0  0  0  0
  4 21  1  0  0  0  0
  4  3  1  0  0  0  0
  5 25  1  1  0  0  0
  6  5  1  0  0  0  0
  6 18  1  0  0  0  0
  7 24  1  6  0  0  0
  7 19  1  0  0  0  0
  9 28  1  0  0  0  0
  9 15  1  0  0  0  0
 12  8  1  1  0  0  0
 12  2  1  0  0  0  0
 13 11  1  1  0  0  0
 13 12  1  0  0  0  0
 14 23  1  6  0  0  0
 14 27  1  0  0  0  0
 15 18  2  0  0  0  0
 16  1  1  0  0  0  0
 16 19  1  0  0  0  0
 17  8  1  1  0  0  0
 17 10  1  0  0  0  0
 17  7  1  0  0  0  0
 20 10  1  0  0  0  0
 20 29  1  1  0  0  0
 20  1  1  0  0  0  0
 22 21  1  6  0  0  0
 22 13  1  0  0  0  0
 22 14  1  0  0  0  0
 23 28  1  0  0  0  0
 26  9  1  0  0  0  0
 27  2  1  0  0  0  0
 27  5  1  0  0  0  0
 28  6  2  0  0  0  0
 30 32  1  0  0  0  0
 30 29  1  0  0  0  0
 31 30  2  0  0  0  0
M  END
>  <MODEL>
7

>  <REMARK>
 VINA RESULT:      -7.4      3.468     10.147
  Name = 
  1 active torsions:
  status: ('A' for Active; 'I' for Inactive)
    1  A    between atoms: C_20  and  N_29
                            x       y       z     vdW  Elec       q    Type
                         _______ _______ _______ _____ _____    ______ ____

>  <TORSDO>
F 1

$$$$
=
 OpenBabel11112416313D

 32 37  0  0  1  0  0  0  0  0999 V2000
  187.7080  177.7930  143.0930 C   0  0  0  0  0  2  0  0  0  0  0  0
  191.0970  173.3980  144.0210 C   0  0  1  0  0  3  0  0  0  0  0  0
  193.1730  177.1660  145.6480 C   0  0  0  0  0  2  0  0  0  0  0  0
  194.2130  176.4460  146.5130 C   0  0  0  0  0  2  0  0  0  0  0  0
  192.5120  172.0690  142.3740 C   0  0  1  0  0  3  0  0  0  0  0  0
  193.9170  171.6790  142.0350 C   0  0  0  0  0  0  0  0  0  0  0  0
  189.3360  174.9330  143.2050 C   0  0  1  0  0  3  0  0  0  0  0  0
  189.6810  174.5150  145.6700 C   0  0  0  0  0  2  0  0  0  0  0  0
  196.0870  171.5880  142.1050 N   0  0  0  0  0  0  0  0  0  0  0  0
  187.8520  176.0590  144.9240 C   0  0  0  0  0  2  0  0  0  0  0  0
  192.0860  176.2320  145.0970 C   0  0  0  0  0  2  0  0  0  0  0  0
  191.0080  173.9440  145.3880 N   0  0  2  0  0  0  0  0  0  0  0  0
  192.1200  174.8450  145.7610 C   0  0  1  0  0  3  0  0  0  0  0  0
  193.6420  173.5870  144.1500 C   0  0  1  0  0  3  0  0  0  0  0  0
  195.6620  170.9530  141.0210 N   0  0  0  0  0  0  0  0  0  0  0  0
  188.9720  177.3440  142.3720 C   0  0  0  0  0  2  0  0  0  0  0  0
  189.2440  175.5370  144.6140 C   0  0  2  0  0  3  0  0  0  0  0  0
  194.3350  171.0010  140.9450 N   0  0  0  0  0  0  0  0  0  0  0  0
  188.8860  175.8530  142.0610 C   0  0  0  0  0  2  0  0  0  0  0  0
  187.7860  177.5450  144.6000 C   0  0  2  0  0  3  0  0  0  0  0  0
  194.6610  175.1460  145.8470 C   0  0  0  0  0  2  0  0  0  0  0  0
  193.4960  174.1740  145.5620 C   0  0  1  0  0  3  0  0  0  0  0  0
  194.9650  172.8080  144.0410 C   0  0  0  0  0  2  0  0  0  0  0  0
  190.7520  174.4400  142.9520 C   0  0  0  0  0  2  0  0  0  0  0  0
  191.6030  170.8550  142.2830 C   0  0  0  0  0  1  0  0  0  0  0  0
  197.4800  171.7160  142.4930 C   0  0  0  0  0  1  0  0  0  0  0  0
  192.4340  172.6800  143.7940 C   0  0  1  0  0  3  0  0  0  0  0  0
  195.0140  172.0710  142.7450 C   0  0  0  0  0  0  0  0  0  0  0  0
  186.6200  178.1220  145.2520 N   0  0  0  0  0  2  0  0  0  0  0  0
  186.5340  178.2900  146.6680 C   0  0  0  0  0  0  0  0  0  0  0  0
  187.4730  177.9160  147.4190 O   0  0  0  0  0  0  0  0  0  0  0  0
  185.3220  178.9100  147.2620 C   0  0  0  0  0  1  0  0  0  0  0  0
  1 20  1  0  0  0  0
  2 24  1  6  0  0  0
  2 12  1  0  0  0  0
  3  4  1  0  0  0  0
  5 25  1  1  0  0  0
  5 27  1  0  0  0  0
  6  5  1  0  0  0  0
  6 28  2  0  0  0  0
  7 19  1  6  0  0  0
  7 17  1  0  0  0  0
  9 26  1  0  0  0  0
  9 28  1  0  0  0  0
 11  3  1  0  0  0  0
 12  8  1  6  0  0  0
 12 13  1  0  0  0  0
 13 11  1  6  0  0  0
 14 23  1  1  0  0  0
 14 22  1  0  0  0  0
 15  9  1  0  0  0  0
 16  1  1  0  0  0  0
 17 10  1  1  0  0  0
 17  8  1  0  0  0  0
 18 15  2  0  0  0  0
 18  6  1  0  0  0  0
 19 16  1  0  0  0  0
 20 10  1  0  0  0  0
 20 29  1  1  0  0  0
 21  4  1  0  0  0  0
 22 13  1  0  0  0  0
 22 21  1  6  0  0  0
 24  7  1  0  0  0  0
 27  2  1  0  0  0  0
 27 14  1  0  0  0  0
 28 23  1  0  0  0  0
 29 30  1  0  0  0  0
 30 32  1  0  0  0  0
 30 31  2  0  0  0  0
M  END
>  <MODEL>
8

>  <REMARK>
 VINA RESULT:      -7.3      3.075      8.902
  Name = 
  1 active torsions:
  status: ('A' for Active; 'I' for Inactive)
    1  A    between atoms: C_20  and  N_29
                            x       y       z     vdW  Elec       q    Type
                         _______ _______ _______ _____ _____    ______ ____

>  <TORSDO>
F 1

$$$$
=
 OpenBabel11112416313D

 32 37  0  0  1  0  0  0  0  0999 V2000
  187.2640  178.1540  142.8880 C   0  0  0  0  0  2  0  0  0  0  0  0
  190.5820  173.6100  142.9240 C   0  0  1  0  0  3  0  0  0  0  0  0
  192.9230  177.0980  144.7970 C   0  0  0  0  0  2  0  0  0  0  0  0
  194.0160  176.2540  145.4590 C   0  0  0  0  0  2  0  0  0  0  0  0
  191.7920  172.4740  140.9930 C   0  0  1  0  0  3  0  0  0  0  0  0
  193.1450  172.1030  140.4720 C   0  0  0  0  0  0  0  0  0  0  0  0
  188.8020  175.2720  142.4820 C   0  0  1  0  0  3  0  0  0  0  0  0
  189.3650  174.5360  144.8300 C   0  0  0  0  0  2  0  0  0  0  0  0
  195.3080  171.9600  140.3170 N   0  0  0  0  0  0  0  0  0  0  0  0
  187.5250  176.1980  144.4650 C   0  0  0  0  0  2  0  0  0  0  0  0
  191.7590  176.2640  144.2430 C   0  0  0  0  0  2  0  0  0  0  0  0
  190.6410  173.9790  144.3500 N   0  0  2  0  0  0  0  0  0  0  0  0
  191.8110  174.8040  144.7220 C   0  0  1  0  0  3  0  0  0  0  0  0
  193.1330  173.7310  142.8250 C   0  0  1  0  0  3  0  0  0  0  0  0
  194.7620  171.4780  139.2090 N   0  0  0  0  0  0  0  0  0  0  0  0
  188.4390  177.7750  141.9960 C   0  0  0  0  0  2  0  0  0  0  0  0
  188.8630  175.6930  143.9570 C   0  0  2  0  0  3  0  0  0  0  0  0
  193.4360  171.5610  139.2710 N   0  0  0  0  0  0  0  0  0  0  0  0
  188.2750  176.3380  141.5120 C   0  0  0  0  0  2  0  0  0  0  0  0
  187.4750  177.7140  144.3370 C   0  0  2  0  0  3  0  0  0  0  0  0
  194.3580  175.0410  144.5960 C   0  0  0  0  0  2  0  0  0  0  0  0
  193.1410  174.1360  144.3070 C   0  0  1  0  0  3  0  0  0  0  0  0
  194.4150  172.9460  142.4900 C   0  0  0  0  0  2  0  0  0  0  0  0
  190.1710  174.7860  142.0320 C   0  0  0  0  0  2  0  0  0  0  0  0
  190.8400  171.2990  140.8400 C   0  0  0  0  0  1  0  0  0  0  0  0
  196.7350  172.0110  140.5800 C   0  0  0  0  0  1  0  0  0  0  0  0
  191.8680  172.9010  142.4790 C   0  0  1  0  0  3  0  0  0  0  0  0
  194.3170  172.3790  141.1140 C   0  0  0  0  0  0  0  0  0  0  0  0
  186.3960  178.2260  145.1670 N   0  0  0  0  0  2  0  0  0  0  0  0
  186.4830  178.2900  146.5920 C   0  0  0  0  0  0  0  0  0  0  0  0
  187.5090  177.8740  147.1930 O   0  0  0  0  0  0  0  0  0  0  0  0
  185.3500  178.8480  147.3730 C   0  0  0  0  0  1  0  0  0  0  0  0
  1 20  1  0  0  0  0
  2 24  1  6  0  0  0
  2 12  1  0  0  0  0
  3  4  1  0  0  0  0
  5 25  1  1  0  0  0
  5 27  1  0  0  0  0
  6  5  1  0  0  0  0
  6 28  2  0  0  0  0
  7 19  1  6  0  0  0
  7 17  1  0  0  0  0
  9 26  1  0  0  0  0
  9 28  1  0  0  0  0
 11  3  1  0  0  0  0
 12 13  1  0  0  0  0
 12  8  1  6  0  0  0
 13 11  1  6  0  0  0
 14 23  1  1  0  0  0
 14 22  1  0  0  0  0
 15 18  2  0  0  0  0
 15  9  1  0  0  0  0
 16  1  1  0  0  0  0
 17 10  1  1  0  0  0
 17  8  1  0  0  0  0
 18  6  1  0  0  0  0
 19 16  1  0  0  0  0
 20 10  1  0  0  0  0
 20 29  1  1  0  0  0
 21  4  1  0  0  0  0
 22 21  1  6  0  0  0
 22 13  1  0  0  0  0
 24  7  1  0  0  0  0
 27 14  1  0  0  0  0
 27  2  1  0  0  0  0
 28 23  1  0  0  0  0
 29 30  1  0  0  0  0
 30 31  2  0  0  0  0
 30 32  1  0  0  0  0
M  END
>  <MODEL>
9

>  <REMARK>
 VINA RESULT:      -7.0      3.109      8.509
  Name = 
  1 active torsions:
  status: ('A' for Active; 'I' for Inactive)
    1  A    between atoms: C_20  and  N_29
                            x       y       z     vdW  Elec       q    Type
                         _______ _______ _______ _____ _____    ______ ____

>  <TORSDO>
F 1

$$$$
