=
 OpenBabel11112417153D

 37 42  0  0  1  0  0  0  0  0999 V2000
  195.0010  175.9030  144.4710 C   0  0  1  0  0  0  0  0  0  0  0  0
  190.9450  175.4970  145.5930 C   0  0  1  0  0  3  0  0  0  0  0  0
  189.8980  177.7960  143.7350 C   0  0  0  0  0  1  0  0  0  0  0  0
  193.2540  176.0040  146.3560 C   0  0  2  0  0  3  0  0  0  0  0  0
  190.3010  175.3230  144.2200 C   0  0  1  0  0  3  0  0  0  0  0  0
  192.2840  175.9790  145.1960 C   0  0  1  0  0  3  0  0  0  0  0  0
  189.2750  176.4060  143.8450 C   0  0  1  0  0  3  0  0  0  0  0  0
  192.7280  176.9240  147.3790 N   0  0  0  0  0  2  0  0  0  0  0  0
  192.6970  175.1640  144.0840 N   0  0  2  0  0  0  0  0  0  0  0  0
  195.4540  174.6030  144.7050 O   0  0  0  0  0  1  0  0  0  0  0  0
  188.9420  176.3450  146.9430 C   0  0  0  0  0  2  0  0  0  0  0  0
  191.3400  176.5900  147.7660 C   0  0  0  0  0  2  0  0  0  0  0  0
  193.8240  175.8690  143.4770 C   0  0  0  0  0  2  0  0  0  0  0  0
  190.4060  176.5580  146.5420 C   0  0  1  0  0  3  0  0  0  0  0  0
  191.4970  175.2170  143.2420 C   0  0  1  0  0  3  0  0  0  0  0  0
  194.5820  176.5510  145.8100 C   0  0  0  0  0  2  0  0  0  0  0  0
  188.0510  176.3590  144.7910 C   0  0  1  0  0  3  0  0  0  0  0  0
  196.1280  176.7150  143.8680 C   0  0  0  0  0  1  0  0  0  0  0  0
  188.1930  175.6190  145.9910 O   0  0  0  0  0  0  0  0  0  0  0  0
  191.0380  172.8540  143.2240 O   0  0  0  0  0  0  0  0  0  0  0  0
  191.8530  171.8510  142.8050 N   0  0  0  0  0  0  0  0  0  0  0  0
  190.8070  171.6740  140.5860 C   0  0  2  0  0  3  0  0  0  0  0  0
  191.0720  170.9860  141.9260 C   0  0  0  0  0  2  0  0  0  0  0  0
  189.7750  172.8040  140.7100 C   0  0  1  0  0  3  0  0  0  0  0  0
  188.6510  172.3900  141.4310 O   0  0  0  0  0  1  0  0  0  0  0  0
  190.3310  174.1120  141.2900 C   0  0  0  0  0  2  0  0  0  0  0  0
  190.3480  170.7290  139.6690 O   0  0  0  0  0  1  0  0  0  0  0  0
  191.3690  173.9420  142.4060 C   0  0  1  0  0  3  0  0  0  0  0  0
  193.3380  171.7030  144.7210 C   0  0  0  0  0  1  0  0  0  0  0  0
  192.1860  171.0580  143.9770 C   0  0  0  0  0  2  0  0  0  0  0  0
  186.7190  178.1930  143.6640 C   0  0  0  0  0  3  0  0  0  0  0  0
  187.1030  177.5240  144.8350 C   0  0  0  0  0  0  0  0  0  0  0  0
  186.5910  177.9400  146.0690 C   0  0  0  0  0  3  0  0  0  0  0  0
  185.2110  179.4180  147.3310 F   0  0  0  0  0  0  0  0  0  0  0  0
  185.3240  179.6840  144.9650 C   0  0  0  0  0  3  0  0  0  0  0  0
  185.7040  179.0190  146.1340 C   0  0  0  0  0  0  0  0  0  0  0  0
  185.8310  179.2700  143.7290 C   0  0  0  0  0  3  0  0  0  0  0  0
  1 18  1  6  0  0  0
  1 10  1  0  0  0  0
  1 16  1  0  0  0  0
  2 14  1  0  0  0  0
  3  7  1  0  0  0  0
  4  8  1  0  0  0  0
  5  2  1  0  0  0  0
  6  2  1  0  0  0  0
  6  4  1  0  0  0  0
  7  5  1  0  0  0  0
  7 17  1  0  0  0  0
  8 12  1  0  0  0  0
  9  6  1  0  0  0  0
 13  9  1  0  0  0  0
 13  1  1  0  0  0  0
 14 11  1  0  0  0  0
 14 12  1  0  0  0  0
 15  9  1  0  0  0  0
 15  5  1  0  0  0  0
 16  4  1  0  0  0  0
 17 32  1  0  0  0  0
 17 19  1  0  0  0  0
 19 11  1  0  0  0  0
 21 20  1  0  0  0  0
 21 30  1  0  0  0  0
 22 24  1  0  0  0  0
 22 23  1  0  0  0  0
 23 21  1  0  0  0  0
 24 26  1  0  0  0  0
 24 25  1  0  0  0  0
 26 28  1  0  0  0  0
 27 22  1  0  0  0  0
 28 20  1  0  0  0  0
 28 15  1  0  0  0  0
 30 29  1  0  0  0  0
 31 37  2  0  0  0  0
 31 32  1  0  0  0  0
 32 33  2  0  0  0  0
 33 36  1  0  0  0  0
 35 36  2  0  0  0  0
 36 34  1  0  0  0  0
 37 35  1  0  0  0  0
M  END
>  <MODEL>
1

>  <REMARK>
 VINA RESULT:      -9.2      0.000      0.000
  Name = 
  3 active torsions:
  status: ('A' for Active; 'I' for Inactive)
    1  A    between atoms: N_4  and  C_37
    2  A    between atoms: C_21  and  C_27
    3  A    between atoms: C_23  and  C_30
                            x       y       z     vdW  Elec       q    Type
                         _______ _______ _______ _____ _____    ______ ____

>  <TORSDO>
F 3

$$$$
=
 OpenBabel11112417153D

 37 42  0  0  1  0  0  0  0  0999 V2000
  195.1670  175.9470  144.4200 C   0  0  1  0  0  0  0  0  0  0  0  0
  191.0810  175.4790  145.3950 C   0  0  1  0  0  3  0  0  0  0  0  0
  190.0800  177.8460  143.5980 C   0  0  0  0  0  1  0  0  0  0  0  0
  193.3610  175.9640  146.2510 C   0  0  2  0  0  3  0  0  0  0  0  0
  190.4810  175.3570  143.9960 C   0  0  1  0  0  3  0  0  0  0  0  0
  192.4280  175.9820  145.0610 C   0  0  1  0  0  3  0  0  0  0  0  0
  189.4610  176.4510  143.6330 C   0  0  1  0  0  3  0  0  0  0  0  0
  192.7980  176.8400  147.2930 N   0  0  0  0  0  2  0  0  0  0  0  0
  192.8810  175.2140  143.9300 N   0  0  2  0  0  0  0  0  0  0  0  0
  195.6200  174.6410  144.6150 O   0  0  0  0  0  1  0  0  0  0  0  0
  189.0310  176.2630  146.7140 C   0  0  0  0  0  2  0  0  0  0  0  0
  191.4000  176.4850  147.6210 C   0  0  0  0  0  2  0  0  0  0  0  0
  194.0220  175.9480  143.3880 C   0  0  0  0  0  2  0  0  0  0  0  0
  190.5060  176.4990  146.3680 C   0  0  1  0  0  3  0  0  0  0  0  0
  191.7070  175.2960  143.0530 C   0  0  1  0  0  3  0  0  0  0  0  0
  194.7030  176.5380  145.7700 C   0  0  0  0  0  2  0  0  0  0  0  0
  188.2080  176.3610  144.5370 C   0  0  1  0  0  3  0  0  0  0  0  0
  196.3080  176.7870  143.8860 C   0  0  0  0  0  1  0  0  0  0  0  0
  188.3160  175.5730  145.7100 O   0  0  0  0  0  0  0  0  0  0  0  0
  190.3140  173.5310  142.1940 O   0  0  0  0  0  0  0  0  0  0  0  0
  190.4900  172.1910  142.3300 N   0  0  0  0  0  0  0  0  0  0  0  0
  191.5330  171.9130  140.1200 C   0  0  2  0  0  3  0  0  0  0  0  0
  190.3320  171.5880  141.0100 C   0  0  0  0  0  2  0  0  0  0  0  0
  191.5350  173.3790  139.6640 C   0  0  1  0  0  3  0  0  0  0  0  0
  190.2810  173.7640  139.1820 O   0  0  0  0  0  1  0  0  0  0  0  0
  192.0300  174.3740  140.7220 C   0  0  0  0  0  2  0  0  0  0  0  0
  191.5100  171.0810  139.0010 O   0  0  0  0  0  1  0  0  0  0  0  0
  191.6130  174.0550  142.1630 C   0  0  1  0  0  3  0  0  0  0  0  0
  189.6920  171.9380  144.6100 C   0  0  0  0  0  1  0  0  0  0  0  0
  189.3910  171.6990  143.1440 C   0  0  0  0  0  2  0  0  0  0  0  0
  186.8360  178.1780  143.4320 C   0  0  0  0  0  3  0  0  0  0  0  0
  187.2530  177.5180  144.5970 C   0  0  0  0  0  0  0  0  0  0  0  0
  186.7690  177.9390  145.8410 C   0  0  0  0  0  3  0  0  0  0  0  0
  185.4090  179.4140  147.1280 F   0  0  0  0  0  0  0  0  0  0  0  0
  185.4620  179.6660  144.7580 C   0  0  0  0  0  3  0  0  0  0  0  0
  185.8750  179.0110  145.9210 C   0  0  0  0  0  0  0  0  0  0  0  0
  185.9410  179.2490  143.5130 C   0  0  0  0  0  3  0  0  0  0  0  0
  1 18  1  6  0  0  0
  1 10  1  0  0  0  0
  1 16  1  0  0  0  0
  2 14  1  0  0  0  0
  3  7  1  0  0  0  0
  4  8  1  0  0  0  0
  5  2  1  0  0  0  0
  6  2  1  0  0  0  0
  6  4  1  0  0  0  0
  7  5  1  0  0  0  0
  7 17  1  0  0  0  0
  8 12  1  0  0  0  0
  9  6  1  0  0  0  0
 13  9  1  0  0  0  0
 13  1  1  0  0  0  0
 14 11  1  0  0  0  0
 14 12  1  0  0  0  0
 15  9  1  0  0  0  0
 15  5  1  0  0  0  0
 16  4  1  0  0  0  0
 17 32  1  0  0  0  0
 17 19  1  0  0  0  0
 19 11  1  0  0  0  0
 20 21  1  0  0  0  0
 21 30  1  0  0  0  0
 22 23  1  0  0  0  0
 23 21  1  0  0  0  0
 24 22  1  0  0  0  0
 24 26  1  0  0  0  0
 25 24  1  0  0  0  0
 26 28  1  0  0  0  0
 27 22  1  0  0  0  0
 28 20  1  0  0  0  0
 28 15  1  0  0  0  0
 30 29  1  0  0  0  0
 31 37  2  0  0  0  0
 31 32  1  0  0  0  0
 32 33  2  0  0  0  0
 33 36  1  0  0  0  0
 35 36  2  0  0  0  0
 36 34  1  0  0  0  0
 37 35  1  0  0  0  0
M  END
>  <MODEL>
2

>  <REMARK>
 VINA RESULT:      -9.1      1.035      1.163
  Name = 
  3 active torsions:
  status: ('A' for Active; 'I' for Inactive)
    1  A    between atoms: N_4  and  C_37
    2  A    between atoms: C_21  and  C_27
    3  A    between atoms: C_23  and  C_30
                            x       y       z     vdW  Elec       q    Type
                         _______ _______ _______ _____ _____    ______ ____

>  <TORSDO>
F 3

$$$$
=
 OpenBabel11112417153D

 37 42  0  0  1  0  0  0  0  0999 V2000
  195.1150  175.9230  144.0270 C   0  0  1  0  0  0  0  0  0  0  0  0
  191.2480  175.3520  145.6360 C   0  0  1  0  0  3  0  0  0  0  0  0
  189.9140  177.6860  144.0210 C   0  0  0  0  0  1  0  0  0  0  0  0
  193.6220  175.9000  146.1200 C   0  0  2  0  0  3  0  0  0  0  0  0
  190.4380  175.2100  144.3490 C   0  0  1  0  0  3  0  0  0  0  0  0
  192.5120  175.8890  145.0930 C   0  0  1  0  0  3  0  0  0  0  0  0
  189.3450  176.2760  144.1530 C   0  0  1  0  0  3  0  0  0  0  0  0
  193.2070  176.7650  147.2390 N   0  0  0  0  0  2  0  0  0  0  0  0
  192.8000  175.1300  143.9050 N   0  0  2  0  0  0  0  0  0  0  0  0
  195.6270  174.6300  144.1470 O   0  0  0  0  0  1  0  0  0  0  0  0
  189.4130  176.0880  147.2630 C   0  0  0  0  0  2  0  0  0  0  0  0
  191.8890  176.3750  147.7840 C   0  0  0  0  0  2  0  0  0  0  0  0
  193.8220  175.8910  143.1890 C   0  0  0  0  0  2  0  0  0  0  0  0
  190.8080  176.3610  146.6880 C   0  0  1  0  0  3  0  0  0  0  0  0
  191.5010  175.1770  143.2240 C   0  0  1  0  0  3  0  0  0  0  0  0
  194.8550  176.5080  145.4330 C   0  0  0  0  0  2  0  0  0  0  0  0
  188.2530  176.1560  145.2440 C   0  0  1  0  0  3  0  0  0  0  0  0
  196.1340  176.7910  143.3190 C   0  0  0  0  0  1  0  0  0  0  0  0
  188.5670  175.3750  146.3850 O   0  0  0  0  0  0  0  0  0  0  0  0
  190.9600  172.8320  143.1600 O   0  0  0  0  0  0  0  0  0  0  0  0
  191.7240  171.8150  142.6850 N   0  0  0  0  0  0  0  0  0  0  0  0
  190.5950  171.7360  140.5020 C   0  0  2  0  0  3  0  0  0  0  0  0
  190.8840  171.0020  141.8120 C   0  0  0  0  0  2  0  0  0  0  0  0
  189.6080  172.8960  140.6930 C   0  0  1  0  0  3  0  0  0  0  0  0
  188.4970  172.5000  141.4430 O   0  0  0  0  0  1  0  0  0  0  0  0
  190.2290  174.1670  141.2880 C   0  0  0  0  0  2  0  0  0  0  0  0
  190.0720  170.8320  139.5770 O   0  0  0  0  0  1  0  0  0  0  0  0
  191.3000  173.9310  142.3600 C   0  0  1  0  0  3  0  0  0  0  0  0
  193.1600  171.6480  144.6380 C   0  0  0  0  0  1  0  0  0  0  0  0
  192.0710  170.9790  143.8220 C   0  0  0  0  0  2  0  0  0  0  0  0
  186.8340  177.6250  146.7380 C   0  0  0  0  0  3  0  0  0  0  0  0
  187.2890  177.2890  145.4550 C   0  0  0  0  0  0  0  0  0  0  0  0
  186.8460  178.0220  144.3500 C   0  0  0  0  0  3  0  0  0  0  0  0
  185.5270  179.7910  143.4480 F   0  0  0  0  0  0  0  0  0  0  0  0
  185.5000  179.4150  145.8020 C   0  0  0  0  0  3  0  0  0  0  0  0
  185.9530  179.0830  144.5220 C   0  0  0  0  0  0  0  0  0  0  0  0
  185.9410  178.6870  146.9110 C   0  0  0  0  0  3  0  0  0  0  0  0
  1 18  1  6  0  0  0
  1 10  1  0  0  0  0
  1 16  1  0  0  0  0
  2 14  1  0  0  0  0
  3  7  1  0  0  0  0
  4  8  1  0  0  0  0
  5  2  1  0  0  0  0
  6  2  1  0  0  0  0
  6  4  1  0  0  0  0
  7  5  1  0  0  0  0
  7 17  1  0  0  0  0
  8 12  1  0  0  0  0
  9  6  1  0  0  0  0
 13  9  1  0  0  0  0
 13  1  1  0  0  0  0
 14 11  1  0  0  0  0
 14 12  1  0  0  0  0
 15  9  1  0  0  0  0
 15  5  1  0  0  0  0
 16  4  1  0  0  0  0
 17 32  1  0  0  0  0
 17 19  1  0  0  0  0
 19 11  1  0  0  0  0
 21 20  1  0  0  0  0
 21 30  1  0  0  0  0
 22 24  1  0  0  0  0
 22 23  1  0  0  0  0
 23 21  1  0  0  0  0
 24 26  1  0  0  0  0
 24 25  1  0  0  0  0
 26 28  1  0  0  0  0
 27 22  1  0  0  0  0
 28 20  1  0  0  0  0
 28 15  1  0  0  0  0
 30 29  1  0  0  0  0
 31 37  1  0  0  0  0
 32 31  2  0  0  0  0
 33 36  2  0  0  0  0
 33 32  1  0  0  0  0
 34 36  1  0  0  0  0
 35 37  2  0  0  0  0
 36 35  1  0  0  0  0
M  END
>  <MODEL>
3

>  <REMARK>
 VINA RESULT:      -9.1      0.786      1.123
  Name = 
  3 active torsions:
  status: ('A' for Active; 'I' for Inactive)
    1  A    between atoms: N_4  and  C_37
    2  A    between atoms: C_21  and  C_27
    3  A    between atoms: C_23  and  C_30
                            x       y       z     vdW  Elec       q    Type
                         _______ _______ _______ _____ _____    ______ ____

>  <TORSDO>
F 3

$$$$
=
 OpenBabel11112417153D

 37 42  0  0  1  0  0  0  0  0999 V2000
  194.9410  175.6610  143.6370 C   0  0  1  0  0  0  0  0  0  0  0  0
  191.1820  175.2530  145.5280 C   0  0  1  0  0  3  0  0  0  0  0  0
  189.7790  177.5200  143.8770 C   0  0  0  0  0  1  0  0  0  0  0  0
  193.5910  175.7810  145.8230 C   0  0  2  0  0  3  0  0  0  0  0  0
  190.2860  175.0560  144.3070 C   0  0  1  0  0  3  0  0  0  0  0  0
  192.4140  175.7350  144.8730 C   0  0  1  0  0  3  0  0  0  0  0  0
  189.1980  176.1300  144.1240 C   0  0  1  0  0  3  0  0  0  0  0  0
  193.2660  176.7140  146.9160 N   0  0  0  0  0  2  0  0  0  0  0  0
  192.6110  174.9060  143.7130 N   0  0  2  0  0  0  0  0  0  0  0  0
  195.4400  174.3670  143.7960 O   0  0  0  0  0  1  0  0  0  0  0  0
  189.4710  176.1120  147.2290 C   0  0  0  0  0  2  0  0  0  0  0  0
  191.9810  176.3790  147.5690 C   0  0  0  0  0  2  0  0  0  0  0  0
  193.5940  175.6070  142.8900 C   0  0  0  0  0  2  0  0  0  0  0  0
  190.8290  176.3250  146.5490 C   0  0  1  0  0  3  0  0  0  0  0  0
  191.2700  174.9420  143.1180 C   0  0  1  0  0  3  0  0  0  0  0  0
  194.7840  176.3260  145.0230 C   0  0  0  0  0  2  0  0  0  0  0  0
  188.1800  176.0910  145.2900 C   0  0  1  0  0  3  0  0  0  0  0  0
  195.9240  176.4690  142.8170 C   0  0  0  0  0  1  0  0  0  0  0  0
  188.5570  175.3680  146.4490 O   0  0  0  0  0  0  0  0  0  0  0  0
  190.6630  173.9500  141.0100 O   0  0  0  0  0  0  0  0  0  0  0  0
  189.5910  173.1610  140.7390 N   0  0  0  0  0  0  0  0  0  0  0  0
  190.8560  171.0590  140.9190 C   0  0  2  0  0  3  0  0  0  0  0  0
  190.0740  171.9990  140.0000 C   0  0  0  0  0  2  0  0  0  0  0  0
  192.2290  171.6310  141.2980 C   0  0  1  0  0  3  0  0  0  0  0  0
  192.9090  172.1100  140.1750 O   0  0  0  0  0  1  0  0  0  0  0  0
  192.1920  172.7010  142.3970 C   0  0  0  0  0  2  0  0  0  0  0  0
  191.0280  169.8320  140.2800 O   0  0  0  0  0  1  0  0  0  0  0  0
  190.9920  173.6540  142.3390 C   0  0  1  0  0  3  0  0  0  0  0  0
  188.1610  175.1140  140.5390 C   0  0  0  0  0  1  0  0  0  0  0  0
  188.7360  173.9040  139.8300 C   0  0  0  0  0  2  0  0  0  0  0  0
  186.7800  177.5830  146.7800 C   0  0  0  0  0  3  0  0  0  0  0  0
  187.2510  177.2520  145.5010 C   0  0  0  0  0  0  0  0  0  0  0  0
  186.8550  178.0170  144.3990 C   0  0  0  0  0  3  0  0  0  0  0  0
  185.6130  179.8430  143.5010 F   0  0  0  0  0  0  0  0  0  0  0  0
  185.5260  179.4320  145.8470 C   0  0  0  0  0  3  0  0  0  0  0  0
  185.9940  179.1050  144.5720 C   0  0  0  0  0  0  0  0  0  0  0  0
  185.9200  178.6710  146.9530 C   0  0  0  0  0  3  0  0  0  0  0  0
  1 18  1  6  0  0  0
  1 10  1  0  0  0  0
  1 16  1  0  0  0  0
  2 14  1  0  0  0  0
  3  7  1  0  0  0  0
  4  8  1  0  0  0  0
  5  2  1  0  0  0  0
  6  2  1  0  0  0  0
  6  4  1  0  0  0  0
  7  5  1  0  0  0  0
  7 17  1  0  0  0  0
  8 12  1  0  0  0  0
  9  6  1  0  0  0  0
 13  1  1  0  0  0  0
 13  9  1  0  0  0  0
 14 11  1  0  0  0  0
 14 12  1  0  0  0  0
 15  9  1  0  0  0  0
 15  5  1  0  0  0  0
 16  4  1  0  0  0  0
 17 32  1  0  0  0  0
 17 19  1  0  0  0  0
 19 11  1  0  0  0  0
 20 28  1  0  0  0  0
 21 20  1  0  0  0  0
 22 24  1  0  0  0  0
 23 21  1  0  0  0  0
 23 22  1  0  0  0  0
 24 26  1  0  0  0  0
 25 24  1  0  0  0  0
 27 22  1  0  0  0  0
 28 26  1  0  0  0  0
 28 15  1  0  0  0  0
 30 29  1  0  0  0  0
 30 21  1  0  0  0  0
 31 37  1  0  0  0  0
 32 31  2  0  0  0  0
 33 36  2  0  0  0  0
 33 32  1  0  0  0  0
 34 36  1  0  0  0  0
 35 37  2  0  0  0  0
 36 35  1  0  0  0  0
M  END
>  <MODEL>
4

>  <REMARK>
 VINA RESULT:      -8.6      1.370      2.344
  Name = 
  3 active torsions:
  status: ('A' for Active; 'I' for Inactive)
    1  A    between atoms: N_4  and  C_37
    2  A    between atoms: C_21  and  C_27
    3  A    between atoms: C_23  and  C_30
                            x       y       z     vdW  Elec       q    Type
                         _______ _______ _______ _____ _____    ______ ____

>  <TORSDO>
F 3

$$$$
=
 OpenBabel11112417153D

 37 42  0  0  1  0  0  0  0  0999 V2000
  191.9570  170.9890  142.5120 C   0  0  1  0  0  0  0  0  0  0  0  0
  189.8780  174.6690  142.5640 C   0  0  1  0  0  3  0  0  0  0  0  0
  189.3160  174.6420  145.6490 C   0  0  0  0  0  1  0  0  0  0  0  0
  189.9340  172.3450  141.6880 C   0  0  2  0  0  3  0  0  0  0  0  0
  190.6750  175.4150  143.6310 C   0  0  1  0  0  3  0  0  0  0  0  0
  190.3660  173.2930  142.7850 C   0  0  1  0  0  3  0  0  0  0  0  0
  189.8620  175.8360  144.8690 C   0  0  1  0  0  3  0  0  0  0  0  0
  188.4610  172.3040  141.6680 N   0  0  0  0  0  2  0  0  0  0  0  0
  191.7910  173.3900  142.9670 N   0  0  2  0  0  0  0  0  0  0  0  0
  192.7790  171.1840  141.4010 O   0  0  0  0  0  1  0  0  0  0  0  0
  187.6560  175.9370  142.6690 C   0  0  0  0  0  2  0  0  0  0  0  0
  187.8680  173.6540  141.5610 C   0  0  0  0  0  2  0  0  0  0  0  0
  192.2030  172.1110  143.5400 C   0  0  0  0  0  2  0  0  0  0  0  0
  188.3630  174.5780  142.6900 C   0  0  1  0  0  3  0  0  0  0  0  0
  191.8700  174.4820  143.9450 C   0  0  1  0  0  3  0  0  0  0  0  0
  190.4800  170.9580  142.0620 C   0  0  0  0  0  2  0  0  0  0  0  0
  188.7720  176.8680  144.4900 C   0  0  1  0  0  3  0  0  0  0  0  0
  192.3010  169.6590  143.1490 C   0  0  0  0  0  1  0  0  0  0  0  0
  188.4670  177.0060  143.1120 O   0  0  0  0  0  0  0  0  0  0  0  0
  193.8610  175.3160  145.0120 O   0  0  0  0  0  0  0  0  0  0  0  0
  194.2760  176.6050  145.1060 N   0  0  0  0  0  0  0  0  0  0  0  0
  195.8330  176.4380  143.2090 C   0  0  2  0  0  3  0  0  0  0  0  0
  195.6820  176.6450  144.7170 C   0  0  0  0  0  2  0  0  0  0  0  0
  195.5590  174.9870  142.7940 C   0  0  1  0  0  3  0  0  0  0  0  0
  196.2400  174.0850  143.6160 O   0  0  0  0  0  1  0  0  0  0  0  0
  194.0720  174.6180  142.7120 C   0  0  0  0  0  2  0  0  0  0  0  0
  197.1270  176.7920  142.8260 O   0  0  0  0  0  1  0  0  0  0  0  0
  193.1820  175.2520  143.7870 C   0  0  1  0  0  3  0  0  0  0  0  0
  192.9210  176.4870  147.1180 C   0  0  0  0  0  1  0  0  0  0  0  0
  194.2250  176.9660  146.5120 C   0  0  0  0  0  2  0  0  0  0  0  0
  186.3600  176.6610  145.2270 C   0  0  0  0  0  3  0  0  0  0  0  0
  187.6540  177.1520  145.4520 C   0  0  0  0  0  0  0  0  0  0  0  0
  187.9150  177.9160  146.5940 C   0  0  0  0  0  3  0  0  0  0  0  0
  187.1490  178.9290  148.6110 F   0  0  0  0  0  0  0  0  0  0  0  0
  185.6030  177.6990  147.2790 C   0  0  0  0  0  3  0  0  0  0  0  0
  186.8920  178.1890  147.5060 C   0  0  0  0  0  0  0  0  0  0  0  0
  185.3360  176.9340  146.1390 C   0  0  0  0  0  3  0  0  0  0  0  0
  1 18  1  1  0  0  0
  1 13  1  0  0  0  0
  2 14  1  0  0  0  0
  2  6  1  0  0  0  0
  2  5  1  0  0  0  0
  4 16  1  0  0  0  0
  4  6  1  0  0  0  0
  5 15  1  0  0  0  0
  5  7  1  0  0  0  0
  6  9  1  0  0  0  0
  7  3  1  0  0  0  0
  8  4  1  0  0  0  0
  9 13  1  0  0  0  0
  9 15  1  0  0  0  0
 10  1  1  0  0  0  0
 11 14  1  0  0  0  0
 11 19  1  0  0  0  0
 12  8  1  0  0  0  0
 12 14  1  0  0  0  0
 16  1  1  0  0  0  0
 17  7  1  0  0  0  0
 17 32  1  0  0  0  0
 19 17  1  0  0  0  0
 20 21  1  0  0  0  0
 21 30  1  0  0  0  0
 22 23  1  0  0  0  0
 23 21  1  0  0  0  0
 24 22  1  0  0  0  0
 24 25  1  0  0  0  0
 26 24  1  0  0  0  0
 26 28  1  0  0  0  0
 27 22  1  0  0  0  0
 28 15  1  0  0  0  0
 28 20  1  0  0  0  0
 30 29  1  0  0  0  0
 31 32  2  0  0  0  0
 31 37  1  0  0  0  0
 32 33  1  0  0  0  0
 33 36  2  0  0  0  0
 35 36  1  0  0  0  0
 36 34  1  0  0  0  0
 37 35  2  0  0  0  0
M  END
>  <MODEL>
5

>  <REMARK>
 VINA RESULT:      -8.5      1.920      5.188
  Name = 
  3 active torsions:
  status: ('A' for Active; 'I' for Inactive)
    1  A    between atoms: N_4  and  C_37
    2  A    between atoms: C_21  and  C_27
    3  A    between atoms: C_23  and  C_30
                            x       y       z     vdW  Elec       q    Type
                         _______ _______ _______ _____ _____    ______ ____

>  <TORSDO>
F 3

$$$$
=
 OpenBabel11112417153D

 37 42  0  0  1  0  0  0  0  0999 V2000
  191.8720  170.9950  142.3320 C   0  0  1  0  0  0  0  0  0  0  0  0
  190.1060  174.8240  142.6340 C   0  0  1  0  0  3  0  0  0  0  0  0
  189.3150  174.5420  145.6550 C   0  0  0  0  0  1  0  0  0  0  0  0
  190.0350  172.6030  141.5240 C   0  0  2  0  0  3  0  0  0  0  0  0
  190.8800  175.3860  143.8240 C   0  0  1  0  0  3  0  0  0  0  0  0
  190.4610  173.3950  142.7400 C   0  0  1  0  0  3  0  0  0  0  0  0
  190.0150  175.7530  145.0420 C   0  0  1  0  0  3  0  0  0  0  0  0
  188.5690  172.6970  141.4020 N   0  0  0  0  0  2  0  0  0  0  0  0
  191.8710  173.3450  143.0250 N   0  0  2  0  0  0  0  0  0  0  0  0
  192.7880  171.2240  141.3040 O   0  0  0  0  0  1  0  0  0  0  0  0
  187.9960  176.2710  142.7250 C   0  0  0  0  0  2  0  0  0  0  0  0
  188.1000  174.0990  141.3990 C   0  0  0  0  0  2  0  0  0  0  0  0
  192.1320  171.9830  143.4860 C   0  0  0  0  0  2  0  0  0  0  0  0
  188.5840  174.8580  142.6490 C   0  0  1  0  0  3  0  0  0  0  0  0
  191.9670  174.3220  144.1160 C   0  0  1  0  0  3  0  0  0  0  0  0
  190.4350  171.1420  141.7840 C   0  0  0  0  0  2  0  0  0  0  0  0
  189.0460  176.9120  144.7030 C   0  0  1  0  0  3  0  0  0  0  0  0
  192.0550  169.5830  142.8460 C   0  0  0  0  0  1  0  0  0  0  0  0
  188.8570  177.2130  143.3310 O   0  0  0  0  0  0  0  0  0  0  0  0
  194.3540  174.0090  144.1140 O   0  0  0  0  0  0  0  0  0  0  0  0
  195.2490  174.4310  145.0440 N   0  0  0  0  0  0  0  0  0  0  0  0
  195.9040  176.4360  143.7780 C   0  0  2  0  0  3  0  0  0  0  0  0
  196.3470  175.0830  144.3370 C   0  0  0  0  0  2  0  0  0  0  0  0
  194.9620  176.2850  142.5760 C   0  0  1  0  0  3  0  0  0  0  0  0
  195.4600  175.3630  141.6510 O   0  0  0  0  0  1  0  0  0  0  0  0
  193.5110  175.9430  142.9430 C   0  0  0  0  0  2  0  0  0  0  0  0
  197.0300  177.1630  143.3940 O   0  0  0  0  0  1  0  0  0  0  0  0
  193.3470  174.9830  144.1270 C   0  0  1  0  0  3  0  0  0  0  0  0
  197.1920  173.5430  146.2010 C   0  0  0  0  0  1  0  0  0  0  0  0
  195.8050  173.2420  145.6670 C   0  0  0  0  0  2  0  0  0  0  0  0
  186.6000  176.7210  145.3250 C   0  0  0  0  0  3  0  0  0  0  0  0
  187.8860  177.1990  145.6140 C   0  0  0  0  0  0  0  0  0  0  0  0
  188.1000  177.9520  146.7730 C   0  0  0  0  0  3  0  0  0  0  0  0
  187.2490  178.9580  148.7590 F   0  0  0  0  0  0  0  0  0  0  0  0
  185.7560  177.7510  147.3470 C   0  0  0  0  0  3  0  0  0  0  0  0
  187.0370  178.2280  147.6380 C   0  0  0  0  0  0  0  0  0  0  0  0
  185.5370  176.9960  146.1900 C   0  0  0  0  0  3  0  0  0  0  0  0
  1 18  1  1  0  0  0
  1 13  1  0  0  0  0
  2 14  1  0  0  0  0
  2  6  1  0  0  0  0
  2  5  1  0  0  0  0
  4 16  1  0  0  0  0
  4  6  1  0  0  0  0
  5 15  1  0  0  0  0
  5  7  1  0  0  0  0
  6  9  1  0  0  0  0
  7  3  1  0  0  0  0
  8  4  1  0  0  0  0
  9 13  1  0  0  0  0
  9 15  1  0  0  0  0
 10  1  1  0  0  0  0
 11 19  1  0  0  0  0
 12  8  1  0  0  0  0
 12 14  1  0  0  0  0
 14 11  1  0  0  0  0
 15 28  1  0  0  0  0
 16  1  1  0  0  0  0
 17  7  1  0  0  0  0
 17 32  1  0  0  0  0
 19 17  1  0  0  0  0
 20 28  1  0  0  0  0
 20 21  1  0  0  0  0
 21 30  1  0  0  0  0
 22 23  1  0  0  0  0
 23 21  1  0  0  0  0
 24 26  1  0  0  0  0
 24 22  1  0  0  0  0
 25 24  1  0  0  0  0
 26 28  1  0  0  0  0
 27 22  1  0  0  0  0
 30 29  1  0  0  0  0
 31 32  2  0  0  0  0
 31 37  1  0  0  0  0
 32 33  1  0  0  0  0
 33 36  2  0  0  0  0
 35 36  1  0  0  0  0
 36 34  1  0  0  0  0
 37 35  2  0  0  0  0
M  END
>  <MODEL>
6

>  <REMARK>
 VINA RESULT:      -8.4      2.091      5.047
  Name = 
  3 active torsions:
  status: ('A' for Active; 'I' for Inactive)
    1  A    between atoms: N_4  and  C_37
    2  A    between atoms: C_21  and  C_27
    3  A    between atoms: C_23  and  C_30
                            x       y       z     vdW  Elec       q    Type
                         _______ _______ _______ _____ _____    ______ ____

>  <TORSDO>
F 3

$$$$
=
 OpenBabel11112417153D

 37 42  0  0  1  0  0  0  0  0999 V2000
  190.5740  175.7360  146.1950 C   0  0  1  0  0  0  0  0  0  0  0  0
  190.7720  174.8400  142.0690 C   0  0  1  0  0  3  0  0  0  0  0  0
  189.5710  171.9550  142.3400 C   0  0  0  0  0  1  0  0  0  0  0  0
  192.0530  175.4250  144.1140 C   0  0  2  0  0  3  0  0  0  0  0  0
  189.3210  174.4390  141.8090 C   0  0  1  0  0  3  0  0  0  0  0  0
  190.7900  174.8170  143.5450 C   0  0  1  0  0  3  0  0  0  0  0  0
  189.1290  172.9950  141.3130 C   0  0  1  0  0  3  0  0  0  0  0  0
  193.2020  174.6360  143.6360 N   0  0  0  0  0  2  0  0  0  0  0  0
  189.5710  175.4480  143.9780 N   0  0  2  0  0  0  0  0  0  0  0  0
  190.4650  177.1270  146.1420 O   0  0  0  0  0  1  0  0  0  0  0  0
  191.9410  173.6380  140.1340 C   0  0  0  0  0  2  0  0  0  0  0  0
  193.2110  174.5050  142.1630 C   0  0  0  0  0  2  0  0  0  0  0  0
  189.4260  175.0980  145.3890 C   0  0  0  0  0  2  0  0  0  0  0  0
  191.8930  173.9020  141.6430 C   0  0  1  0  0  3  0  0  0  0  0  0
  188.5880  174.7570  143.1350 C   0  0  1  0  0  3  0  0  0  0  0  0
  191.9510  175.3050  145.6430 C   0  0  0  0  0  2  0  0  0  0  0  0
  189.7790  172.7960  139.9230 C   0  0  1  0  0  3  0  0  0  0  0  0
  190.4650  175.2910  147.6380 C   0  0  0  0  0  1  0  0  0  0  0  0
  190.6920  173.7910  139.4910 O   0  0  0  0  0  0  0  0  0  0  0  0
  187.2210  176.5860  143.8980 O   0  0  0  0  0  0  0  0  0  0  0  0
  185.8870  176.5780  144.1520 N   0  0  0  0  0  0  0  0  0  0  0  0
  185.2740  177.5400  141.9740 C   0  0  2  0  0  3  0  0  0  0  0  0
  185.3040  177.7400  143.4900 C   0  0  0  0  0  2  0  0  0  0  0  0
  186.6720  177.6440  141.3490 C   0  0  1  0  0  3  0  0  0  0  0  0
  187.3560  178.7700  141.8150 O   0  0  0  0  0  1  0  0  0  0  0  0
  187.5380  176.3870  141.5140 C   0  0  0  0  0  2  0  0  0  0  0  0
  184.4410  178.5010  141.4020 O   0  0  0  0  0  1  0  0  0  0  0  0
  187.3870  175.6620  142.8570 C   0  0  1  0  0  3  0  0  0  0  0  0
  186.8550  177.6610  146.0990 C   0  0  0  0  0  1  0  0  0  0  0  0
  185.7270  176.7920  145.5810 C   0  0  0  0  0  2  0  0  0  0  0  0
  189.4540  170.9730  138.1980 C   0  0  0  0  0  3  0  0  0  0  0  0
  190.0160  171.4050  139.4070 C   0  0  0  0  0  0  0  0  0  0  0  0
  190.8170  170.5310  140.1490 C   0  0  0  0  0  3  0  0  0  0  0  0
  191.8320  168.3900  140.4090 F   0  0  0  0  0  0  0  0  0  0  0  0
  190.4930  168.8050  138.4810 C   0  0  0  0  0  3  0  0  0  0  0  0
  191.0550  169.2330  139.6870 C   0  0  0  0  0  0  0  0  0  0  0  0
  189.6920  169.6760  137.7350 C   0  0  0  0  0  3  0  0  0  0  0  0
  1 18  1  1  0  0  0
  2  6  1  0  0  0  0
  4 16  1  0  0  0  0
  5  2  1  0  0  0  0
  5 15  1  0  0  0  0
  6  9  1  0  0  0  0
  6  4  1  0  0  0  0
  7  5  1  0  0  0  0
  7  3  1  0  0  0  0
  8  4  1  0  0  0  0
  9 13  1  0  0  0  0
 10  1  1  0  0  0  0
 11 14  1  0  0  0  0
 12  8  1  0  0  0  0
 13  1  1  0  0  0  0
 14  2  1  0  0  0  0
 14 12  1  0  0  0  0
 15  9  1  0  0  0  0
 16  1  1  0  0  0  0
 17  7  1  0  0  0  0
 19 17  1  0  0  0  0
 19 11  1  0  0  0  0
 20 21  1  0  0  0  0
 21 30  1  0  0  0  0
 22 23  1  0  0  0  0
 23 21  1  0  0  0  0
 24 26  1  0  0  0  0
 24 25  1  0  0  0  0
 24 22  1  0  0  0  0
 26 28  1  0  0  0  0
 27 22  1  0  0  0  0
 28 15  1  0  0  0  0
 28 20  1  0  0  0  0
 30 29  1  0  0  0  0
 31 32  1  0  0  0  0
 32 17  1  0  0  0  0
 32 33  2  0  0  0  0
 35 36  2  0  0  0  0
 36 33  1  0  0  0  0
 36 34  1  0  0  0  0
 37 31  2  0  0  0  0
 37 35  1  0  0  0  0
M  END
>  <MODEL>
7

>  <REMARK>
 VINA RESULT:      -8.0      3.558      7.481
  Name = 
  3 active torsions:
  status: ('A' for Active; 'I' for Inactive)
    1  A    between atoms: N_4  and  C_37
    2  A    between atoms: C_21  and  C_27
    3  A    between atoms: C_23  and  C_30
                            x       y       z     vdW  Elec       q    Type
                         _______ _______ _______ _____ _____    ______ ____

>  <TORSDO>
F 3

$$$$
=
 OpenBabel11112417153D

 37 42  0  0  1  0  0  0  0  0999 V2000
  190.9940  175.7420  146.5680 C   0  0  1  0  0  0  0  0  0  0  0  0
  191.1070  174.8400  142.4390 C   0  0  1  0  0  3  0  0  0  0  0  0
  189.8720  171.9730  142.7340 C   0  0  0  0  0  1  0  0  0  0  0  0
  192.4320  175.4090  144.4620 C   0  0  2  0  0  3  0  0  0  0  0  0
  189.6470  174.4590  142.2060 C   0  0  1  0  0  3  0  0  0  0  0  0
  191.1520  174.8180  143.9150 C   0  0  1  0  0  3  0  0  0  0  0  0
  189.4260  173.0170  141.7150 C   0  0  1  0  0  3  0  0  0  0  0  0
  193.5610  174.6040  143.9640 N   0  0  0  0  0  2  0  0  0  0  0  0
  189.9490  175.4660  144.3690 N   0  0  2  0  0  0  0  0  0  0  0  0
  190.9040  177.1340  146.5150 O   0  0  0  0  0  1  0  0  0  0  0  0
  192.2250  173.6210  140.4850 C   0  0  0  0  0  2  0  0  0  0  0  0
  193.5430  174.4710  142.4910 C   0  0  0  0  0  2  0  0  0  0  0  0
  189.8240  175.1180  145.7830 C   0  0  0  0  0  2  0  0  0  0  0  0
  192.2080  173.8870  141.9950 C   0  0  1  0  0  3  0  0  0  0  0  0
  188.9420  174.7880  143.5440 C   0  0  1  0  0  3  0  0  0  0  0  0
  192.3550  175.2910  145.9920 C   0  0  0  0  0  2  0  0  0  0  0  0
  190.0490  172.8090  140.3130 C   0  0  1  0  0  3  0  0  0  0  0  0
  190.9050  175.2990  148.0130 C   0  0  0  0  0  1  0  0  0  0  0  0
  190.9680  173.7900  139.8650 O   0  0  0  0  0  0  0  0  0  0  0  0
  187.9250  176.9330  143.9470 O   0  0  0  0  0  0  0  0  0  0  0  0
  186.7200  177.1880  144.5210 N   0  0  0  0  0  0  0  0  0  0  0  0
  185.5480  177.4710  142.3780 C   0  0  2  0  0  3  0  0  0  0  0  0
  186.0190  178.1420  143.6690 C   0  0  0  0  0  2  0  0  0  0  0  0
  186.7110  177.1780  141.4210 C   0  0  1  0  0  3  0  0  0  0  0  0
  187.5440  178.2910  141.2760 O   0  0  0  0  0  1  0  0  0  0  0  0
  187.5370  175.9360  141.7850 C   0  0  0  0  0  2  0  0  0  0  0  0
  184.6250  178.3010  141.7420 O   0  0  0  0  0  1  0  0  0  0  0  0
  187.7480  175.7100  143.2870 C   0  0  1  0  0  3  0  0  0  0  0  0
  186.7760  176.9140  146.9350 C   0  0  0  0  0  1  0  0  0  0  0  0
  186.9850  177.8700  145.7770 C   0  0  0  0  0  2  0  0  0  0  0  0
  190.8160  170.4150  140.6040 C   0  0  0  0  0  3  0  0  0  0  0  0
  190.2570  171.4140  139.7950 C   0  0  0  0  0  0  0  0  0  0  0  0
  189.8790  171.1120  138.4830 C   0  0  0  0  0  3  0  0  0  0  0  0
  189.6910  169.5310  136.7080 F   0  0  0  0  0  0  0  0  0  0  0  0
  190.6170  168.8260  138.7880 C   0  0  0  0  0  3  0  0  0  0  0  0
  190.0590  169.8200  137.9800 C   0  0  0  0  0  0  0  0  0  0  0  0
  190.9950  169.1230  140.1010 C   0  0  0  0  0  3  0  0  0  0  0  0
  1 18  1  1  0  0  0
  2  6  1  0  0  0  0
  4 16  1  0  0  0  0
  5  2  1  0  0  0  0
  5 15  1  0  0  0  0
  6  9  1  0  0  0  0
  6  4  1  0  0  0  0
  7  5  1  0  0  0  0
  7  3  1  0  0  0  0
  8  4  1  0  0  0  0
  9 13  1  0  0  0  0
 10  1  1  0  0  0  0
 11 14  1  0  0  0  0
 12  8  1  0  0  0  0
 13  1  1  0  0  0  0
 14  2  1  0  0  0  0
 14 12  1  0  0  0  0
 15  9  1  0  0  0  0
 16  1  1  0  0  0  0
 17  7  1  0  0  0  0
 19 17  1  0  0  0  0
 19 11  1  0  0  0  0
 20 21  1  0  0  0  0
 21 30  1  0  0  0  0
 22 23  1  0  0  0  0
 23 21  1  0  0  0  0
 24 26  1  0  0  0  0
 24 22  1  0  0  0  0
 25 24  1  0  0  0  0
 26 28  1  0  0  0  0
 27 22  1  0  0  0  0
 28 15  1  0  0  0  0
 28 20  1  0  0  0  0
 30 29  1  0  0  0  0
 32 17  1  0  0  0  0
 32 31  2  0  0  0  0
 33 32  1  0  0  0  0
 34 36  1  0  0  0  0
 35 37  2  0  0  0  0
 36 33  2  0  0  0  0
 36 35  1  0  0  0  0
 37 31  1  0  0  0  0
M  END
>  <MODEL>
8

>  <REMARK>
 VINA RESULT:      -7.9      3.516      7.384
  Name = 
  3 active torsions:
  status: ('A' for Active; 'I' for Inactive)
    1  A    between atoms: N_4  and  C_37
    2  A    between atoms: C_21  and  C_27
    3  A    between atoms: C_23  and  C_30
                            x       y       z     vdW  Elec       q    Type
                         _______ _______ _______ _____ _____    ______ ____

>  <TORSDO>
F 3

$$$$
=
 OpenBabel11112417153D

 37 42  0  0  1  0  0  0  0  0999 V2000
  191.3610  170.7320  141.1470 C   0  0  1  0  0  0  0  0  0  0  0  0
  190.4690  174.7420  142.1450 C   0  0  1  0  0  3  0  0  0  0  0  0
  189.3170  174.0850  144.9870 C   0  0  0  0  0  1  0  0  0  0  0  0
  190.0250  172.8570  140.5890 C   0  0  2  0  0  3  0  0  0  0  0  0
  191.2170  174.8630  143.4710 C   0  0  1  0  0  3  0  0  0  0  0  0
  190.4840  173.2760  141.9680 C   0  0  1  0  0  3  0  0  0  0  0  0
  190.3290  175.1870  144.6860 C   0  0  1  0  0  3  0  0  0  0  0  0
  188.6380  173.3200  140.4040 N   0  0  0  0  0  2  0  0  0  0  0  0
  191.8090  172.8360  142.3200 N   0  0  2  0  0  0  0  0  0  0  0  0
  192.4100  170.9270  140.2470 O   0  0  0  0  0  1  0  0  0  0  0  0
  188.7360  176.6070  142.4150 C   0  0  0  0  0  2  0  0  0  0  0  0
  188.4960  174.7690  140.6690 C   0  0  0  0  0  2  0  0  0  0  0  0
  191.7090  171.3890  142.4970 C   0  0  0  0  0  2  0  0  0  0  0  0
  189.0000  175.1350  142.0770 C   0  0  1  0  0  3  0  0  0  0  0  0
  192.0020  173.5350  143.5960 C   0  0  1  0  0  3  0  0  0  0  0  0
  190.0590  171.3210  140.5590 C   0  0  0  0  0  2  0  0  0  0  0  0
  189.6840  176.5870  144.5420 C   0  0  1  0  0  3  0  0  0  0  0  0
  191.1700  169.2450  141.3620 C   0  0  0  0  0  1  0  0  0  0  0  0
  189.7150  177.1810  143.2560 O   0  0  0  0  0  0  0  0  0  0  0  0
  193.7630  175.1750  143.5460 O   0  0  0  0  0  0  0  0  0  0  0  0
  194.9120  175.1410  142.8210 N   0  0  0  0  0  0  0  0  0  0  0  0
  196.2820  174.2980  144.6810 C   0  0  2  0  0  3  0  0  0  0  0  0
  196.0130  175.4600  143.7240 C   0  0  0  0  0  2  0  0  0  0  0  0
  195.1890  174.1630  145.7500 C   0  0  1  0  0  3  0  0  0  0  0  0
  194.8960  175.3980  146.3370 O   0  0  0  0  0  1  0  0  0  0  0  0
  193.9010  173.4850  145.2620 C   0  0  0  0  0  2  0  0  0  0  0  0
  197.5150  174.4930  145.3040 O   0  0  0  0  0  1  0  0  0  0  0  0
  193.4850  173.8310  143.8280 C   0  0  1  0  0  3  0  0  0  0  0  0
  194.7060  175.6640  140.4580 C   0  0  0  0  0  1  0  0  0  0  0  0
  194.8380  176.2280  141.8590 C   0  0  0  0  0  2  0  0  0  0  0  0
  187.2250  176.5320  145.1340 C   0  0  0  0  0  3  0  0  0  0  0  0
  188.5270  176.9640  145.4220 C   0  0  0  0  0  0  0  0  0  0  0  0
  188.7600  177.7550  146.5520 C   0  0  0  0  0  3  0  0  0  0  0  0
  187.9290  178.8800  148.4820 F   0  0  0  0  0  0  0  0  0  0  0  0
  186.4010  177.6830  147.0990 C   0  0  0  0  0  3  0  0  0  0  0  0
  187.6990  178.1140  147.3890 C   0  0  0  0  0  0  0  0  0  0  0  0
  186.1640  176.8900  145.9710 C   0  0  0  0  0  3  0  0  0  0  0  0
  1 18  1  1  0  0  0
  1 13  1  0  0  0  0
  2  5  1  0  0  0  0
  4  6  1  0  0  0  0
  5 15  1  0  0  0  0
  5  7  1  0  0  0  0
  6  2  1  0  0  0  0
  6  9  1  0  0  0  0
  7  3  1  0  0  0  0
  8  4  1  0  0  0  0
  8 12  1  0  0  0  0
  9 13  1  0  0  0  0
  9 15  1  0  0  0  0
 10  1  1  0  0  0  0
 11 19  1  0  0  0  0
 12 14  1  0  0  0  0
 14  2  1  0  0  0  0
 14 11  1  0  0  0  0
 15 28  1  0  0  0  0
 16  4  1  0  0  0  0
 16  1  1  0  0  0  0
 17  7  1  0  0  0  0
 17 32  1  0  0  0  0
 19 17  1  0  0  0  0
 20 28  1  0  0  0  0
 21 20  1  0  0  0  0
 21 23  1  0  0  0  0
 22 27  1  0  0  0  0
 22 24  1  0  0  0  0
 23 22  1  0  0  0  0
 24 25  1  0  0  0  0
 26 24  1  0  0  0  0
 28 26  1  0  0  0  0
 29 30  1  0  0  0  0
 30 21  1  0  0  0  0
 31 32  2  0  0  0  0
 31 37  1  0  0  0  0
 32 33  1  0  0  0  0
 33 36  2  0  0  0  0
 35 36  1  0  0  0  0
 36 34  1  0  0  0  0
 37 35  2  0  0  0  0
M  END
>  <MODEL>
9

>  <REMARK>
 VINA RESULT:      -7.7      2.233      5.501
  Name = 
  3 active torsions:
  status: ('A' for Active; 'I' for Inactive)
    1  A    between atoms: N_4  and  C_37
    2  A    between atoms: C_21  and  C_27
    3  A    between atoms: C_23  and  C_30
                            x       y       z     vdW  Elec       q    Type
                         _______ _______ _______ _____ _____    ______ ____

>  <TORSDO>
F 3

$$$$
