=
 OpenBabel11112416473D

 31 35  0  0  1  0  0  0  0  0999 V2000
  187.5490  176.4540  141.1280 C   0  0  0  0  0  0  0  0  0  0  0  0
  188.9550  176.8940  144.5990 C   0  0  2  0  0  3  0  0  0  0  0  0
  187.7950  177.5410  145.3430 C   0  0  0  0  0  0  0  0  0  0  0  0
  185.7190  178.8140  145.3690 C   0  0  0  0  0  0  0  0  0  0  0  0
  188.6390  176.2770  143.2430 C   0  0  0  0  0  0  0  0  0  0  0  0
  188.1920  175.3060  140.6670 C   0  0  0  0  0  3  0  0  0  0  0  0
  186.7400  178.1720  144.6650 C   0  0  0  0  0  3  0  0  0  0  0  0
  190.8610  175.2350  144.8020 C   0  0  2  0  0  3  0  0  0  0  0  0
  186.6050  177.1830  140.2430 C   0  0  0  0  0  1  0  0  0  0  0  0
  188.8960  177.0490  147.4710 O   0  0  0  0  0  0  0  0  0  0  0  0
  184.6020  179.4590  144.6330 C   0  0  0  0  0  1  0  0  0  0  0  0
  190.3180  174.3860  143.6560 C   0  0  0  0  0  2  0  0  0  0  0  0
  189.6760  175.8880  145.5120 C   0  0  1  0  0  3  0  0  0  0  0  0
  187.7960  176.9140  142.3820 N   0  0  0  0  0  0  0  0  0  0  0  0
  185.7500  178.8530  146.7640 C   0  0  0  0  0  3  0  0  0  0  0  0
  189.3440  175.1360  142.7860 C   0  0  0  0  0  0  0  0  0  0  0  0
  189.0920  174.6490  141.5020 C   0  0  0  0  0  3  0  0  0  0  0  0
  190.0630  176.5470  146.8260 C   0  0  0  0  0  2  0  0  0  0  0  0
  187.8360  177.6210  146.7550 C   0  0  0  0  0  0  0  0  0  0  0  0
  186.8080  178.2590  147.4540 C   0  0  0  0  0  3  0  0  0  0  0  0
  191.7940  176.2310  144.2770 N   0  0  0  0  0  2  0  0  0  0  0  0
  193.1910  175.3670  142.6310 O   0  0  0  0  0  1  0  0  0  0  0  0
  193.0660  175.5750  144.0090 C   0  0  1  0  0  3  0  0  0  0  0  0
  196.3030  174.5110  145.4790 C   0  0  1  0  0  3  0  0  0  0  0  0
  195.4860  176.2890  143.6430 C   0  0  0  0  0  2  0  0  0  0  0  0
  193.5440  176.4830  146.7210 O   0  0  0  0  0  1  0  0  0  0  0  0
  196.7740  173.1310  145.8850 C   0  0  0  0  0  1  0  0  0  0  0  0
  196.1190  174.5730  143.6670 S   0  0  0  0  0  0  0  0  0  0  0  0
  194.6050  176.2010  145.9290 N   0  0  0  0  0  0  0  0  0  0  0  0
  194.2390  176.4400  144.5210 C   0  0  2  0  0  3  0  0  0  0  0  0
  194.9690  174.8040  146.1480 C   0  0  0  0  0  2  0  0  0  0  0  0
  1 14  1  0  0  0  0
  2  5  1  6  0  0  0
  2  3  1  0  0  0  0
  2 13  1  0  0  0  0
  3 19  1  0  0  0  0
  4 15  2  0  0  0  0
  6  1  2  0  0  0  0
  6 17  1  0  0  0  0
  7  3  2  0  0  0  0
  7  4  1  0  0  0  0
  8 21  1  6  0  0  0
  8 13  1  0  0  0  0
  9  1  1  0  0  0  0
 11  4  1  0  0  0  0
 12  8  1  0  0  0  0
 13 18  1  1  0  0  0
 14  5  2  0  0  0  0
 15 20  1  0  0  0  0
 16  5  1  0  0  0  0
 16 12  1  0  0  0  0
 17 16  2  0  0  0  0
 18 10  1  0  0  0  0
 19 20  2  0  0  0  0
 19 10  1  0  0  0  0
 23 22  1  6  0  0  0
 23 21  1  0  0  0  0
 24 27  1  6  0  0  0
 24 31  1  0  0  0  0
 25 28  1  0  0  0  0
 25 30  1  0  0  0  0
 28 24  1  0  0  0  0
 29 31  1  0  0  0  0
 29 26  1  0  0  0  0
 30 23  1  6  0  0  0
 30 29  1  0  0  0  0
M  END
>  <MODEL>
1

>  <REMARK>
 VINA RESULT:      -8.6      0.000      0.000
  Name = 
  3 active torsions:
  status: ('A' for Active; 'I' for Inactive)
    1  A    between atoms: C_5  and  N_16
    2  A    between atoms: C_5  and  C_30
    3  A    between atoms: C_10  and  N_16
                            x       y       z     vdW  Elec       q    Type
                         _______ _______ _______ _____ _____    ______ ____

>  <TORSDO>
F 3

$$$$
=
 OpenBabel11112416473D

 31 35  0  0  1  0  0  0  0  0999 V2000
  187.1740  176.6360  141.0930 C   0  0  0  0  0  0  0  0  0  0  0  0
  188.3670  176.3220  144.6570 C   0  0  2  0  0  3  0  0  0  0  0  0
  187.1780  176.8470  145.4480 C   0  0  0  0  0  0  0  0  0  0  0  0
  185.1350  178.1620  145.6120 C   0  0  0  0  0  0  0  0  0  0  0  0
  188.1230  176.0000  143.1880 C   0  0  0  0  0  0  0  0  0  0  0  0
  187.8170  175.5810  140.4470 C   0  0  0  0  0  3  0  0  0  0  0  0
  186.1830  177.6380  144.8520 C   0  0  0  0  0  3  0  0  0  0  0  0
  190.2170  174.5880  144.6290 C   0  0  2  0  0  3  0  0  0  0  0  0
  186.3050  177.5600  140.3210 C   0  0  0  0  0  1  0  0  0  0  0  0
  188.1300  175.9000  147.4930 O   0  0  0  0  0  0  0  0  0  0  0  0
  184.0820  178.9810  144.9580 C   0  0  0  0  0  1  0  0  0  0  0  0
  189.7280  174.0060  143.3050 C   0  0  0  0  0  2  0  0  0  0  0  0
  189.0050  175.1280  145.3870 C   0  0  1  0  0  3  0  0  0  0  0  0
  187.3510  176.8260  142.4260 N   0  0  0  0  0  0  0  0  0  0  0  0
  185.0790  177.9200  146.9850 C   0  0  0  0  0  3  0  0  0  0  0  0
  188.8290  174.9490  142.5500 C   0  0  0  0  0  0  0  0  0  0  0  0
  188.6470  174.7390  141.1820 C   0  0  0  0  0  3  0  0  0  0  0  0
  189.3240  175.4960  146.8270 C   0  0  0  0  0  2  0  0  0  0  0  0
  187.1320  176.6410  146.8470 C   0  0  0  0  0  0  0  0  0  0  0  0
  186.0770  177.1620  147.6010 C   0  0  0  0  0  3  0  0  0  0  0  0
  191.2040  175.6350  144.3700 N   0  0  0  0  0  2  0  0  0  0  0  0
  192.3630  174.4120  145.9720 O   0  0  0  0  0  1  0  0  0  0  0  0
  192.5110  175.1530  144.7950 C   0  0  1  0  0  3  0  0  0  0  0  0
  195.8300  175.4680  143.1660 C   0  0  1  0  0  3  0  0  0  0  0  0
  194.3550  173.4890  144.2190 C   0  0  0  0  0  2  0  0  0  0  0  0
  192.4390  175.5780  141.9280 O   0  0  0  0  0  1  0  0  0  0  0  0
  196.8620  176.5700  143.2770 C   0  0  0  0  0  1  0  0  0  0  0  0
  195.6960  174.6070  144.7660 S   0  0  0  0  0  0  0  0  0  0  0  0
  193.5370  175.0080  142.4770 N   0  0  0  0  0  0  0  0  0  0  0  0
  193.1480  174.2740  143.6950 C   0  0  2  0  0  3  0  0  0  0  0  0
  194.4870  176.0730  142.7860 C   0  0  0  0  0  2  0  0  0  0  0  0
  1 14  1  0  0  0  0
  2  5  1  6  0  0  0
  2 13  1  0  0  0  0
  2  3  1  0  0  0  0
  3 19  1  0  0  0  0
  4 15  2  0  0  0  0
  6  1  2  0  0  0  0
  6 17  1  0  0  0  0
  7  3  2  0  0  0  0
  7  4  1  0  0  0  0
  8 21  1  6  0  0  0
  8 13  1  0  0  0  0
  9  1  1  0  0  0  0
 11  4  1  0  0  0  0
 12  8  1  0  0  0  0
 13 18  1  1  0  0  0
 14  5  2  0  0  0  0
 15 20  1  0  0  0  0
 16  5  1  0  0  0  0
 16 12  1  0  0  0  0
 17 16  2  0  0  0  0
 18 10  1  0  0  0  0
 19 10  1  0  0  0  0
 19 20  2  0  0  0  0
 21 23  1  0  0  0  0
 23 22  1  1  0  0  0
 24 27  1  1  0  0  0
 24 28  1  0  0  0  0
 25 28  1  0  0  0  0
 26 29  1  0  0  0  0
 29 31  1  0  0  0  0
 29 30  1  0  0  0  0
 30 25  1  0  0  0  0
 30 23  1  1  0  0  0
 31 24  1  0  0  0  0
M  END
>  <MODEL>
2

>  <REMARK>
 VINA RESULT:      -8.2      1.462      2.016
  Name = 
  3 active torsions:
  status: ('A' for Active; 'I' for Inactive)
    1  A    between atoms: C_5  and  N_16
    2  A    between atoms: C_5  and  C_30
    3  A    between atoms: C_10  and  N_16
                            x       y       z     vdW  Elec       q    Type
                         _______ _______ _______ _____ _____    ______ ____

>  <TORSDO>
F 3

$$$$
=
 OpenBabel11112416473D

 31 35  0  0  1  0  0  0  0  0999 V2000
  185.5530  177.9610  146.6860 C   0  0  0  0  0  0  0  0  0  0  0  0
  186.9970  176.7640  143.4140 C   0  0  2  0  0  3  0  0  0  0  0  0
  186.0140  177.3270  142.3960 C   0  0  0  0  0  0  0  0  0  0  0  0
  183.8180  178.1940  141.8030 C   0  0  0  0  0  0  0  0  0  0  0  0
  186.9090  177.3180  144.8300 C   0  0  0  0  0  0  0  0  0  0  0  0
  186.6800  178.1270  147.4890 C   0  0  0  0  0  3  0  0  0  0  0  0
  184.7240  177.7410  142.7640 C   0  0  0  0  0  3  0  0  0  0  0  0
  189.4450  176.2770  143.8600 C   0  0  2  0  0  3  0  0  0  0  0  0
  184.2000  178.2170  147.2420 C   0  0  0  0  0  1  0  0  0  0  0  0
  187.6170  176.8680  140.6060 O   0  0  0  0  0  0  0  0  0  0  0  0
  182.4640  178.6460  142.2150 C   0  0  0  0  0  1  0  0  0  0  0  0
  189.4520  177.1640  145.1040 C   0  0  0  0  0  2  0  0  0  0  0  0
  188.4330  176.8540  142.8720 C   0  0  1  0  0  3  0  0  0  0  0  0
  185.6920  177.5510  145.3970 N   0  0  0  0  0  0  0  0  0  0  0  0
  184.1820  178.2200  140.4560 C   0  0  0  0  0  3  0  0  0  0  0  0
  188.0690  177.4310  145.6360 C   0  0  0  0  0  0  0  0  0  0  0  0
  187.9400  177.8590  146.9580 C   0  0  0  0  0  3  0  0  0  0  0  0
  188.5210  176.2160  141.4950 C   0  0  0  0  0  2  0  0  0  0  0  0
  186.3590  177.3190  141.0250 C   0  0  0  0  0  0  0  0  0  0  0  0
  185.4500  177.7810  140.0680 C   0  0  0  0  0  3  0  0  0  0  0  0
  189.1110  174.9050  144.2380 N   0  0  0  0  0  2  0  0  0  0  0  0
  191.2500  174.1830  144.7960 O   0  0  0  0  0  1  0  0  0  0  0  0
  190.2200  174.0400  143.8600 C   0  0  1  0  0  3  0  0  0  0  0  0
  191.1550  171.3800  141.4470 C   0  0  1  0  0  3  0  0  0  0  0  0
  190.9080  171.5970  144.1100 C   0  0  0  0  0  2  0  0  0  0  0  0
  188.0170  172.9300  142.3360 O   0  0  0  0  0  1  0  0  0  0  0  0
  191.9590  171.4740  140.1680 C   0  0  0  0  0  1  0  0  0  0  0  0
  192.2440  171.7250  142.8670 S   0  0  0  0  0  0  0  0  0  0  0  0
  189.1220  172.1740  142.5320 N   0  0  0  0  0  0  0  0  0  0  0  0
  189.7610  172.5660  143.8030 C   0  0  2  0  0  3  0  0  0  0  0  0
  190.0210  172.3930  141.4020 C   0  0  0  0  0  2  0  0  0  0  0  0
  1  9  1  0  0  0  0
  1  6  1  0  0  0  0
  2  3  1  6  0  0  0
  2  5  1  0  0  0  0
  3  7  1  0  0  0  0
  4 11  1  0  0  0  0
  4  7  2  0  0  0  0
  5 14  1  0  0  0  0
  5 16  2  0  0  0  0
  8 21  1  1  0  0  0
  8 12  1  0  0  0  0
 10 19  1  0  0  0  0
 10 18  1  0  0  0  0
 12 16  1  0  0  0  0
 13 18  1  6  0  0  0
 13  2  1  0  0  0  0
 13  8  1  0  0  0  0
 14  1  2  0  0  0  0
 15  4  1  0  0  0  0
 16 17  1  0  0  0  0
 17  6  2  0  0  0  0
 19  3  2  0  0  0  0
 20 15  2  0  0  0  0
 20 19  1  0  0  0  0
 23 21  1  0  0  0  0
 23 22  1  1  0  0  0
 24 27  1  6  0  0  0
 24 28  1  0  0  0  0
 26 29  1  0  0  0  0
 28 25  1  0  0  0  0
 29 30  1  0  0  0  0
 30 23  1  6  0  0  0
 30 25  1  0  0  0  0
 31 24  1  0  0  0  0
 31 29  1  0  0  0  0
M  END
>  <MODEL>
3

>  <REMARK>
 VINA RESULT:      -7.9      3.234      5.488
  Name = 
  3 active torsions:
  status: ('A' for Active; 'I' for Inactive)
    1  A    between atoms: C_5  and  N_16
    2  A    between atoms: C_5  and  C_30
    3  A    between atoms: C_10  and  N_16
                            x       y       z     vdW  Elec       q    Type
                         _______ _______ _______ _____ _____    ______ ____

>  <TORSDO>
F 3

$$$$
=
 OpenBabel11112416473D

 31 35  0  0  1  0  0  0  0  0999 V2000
  188.6480  174.3960  140.1160 C   0  0  0  0  0  0  0  0  0  0  0  0
  189.0540  176.5090  143.2140 C   0  0  2  0  0  3  0  0  0  0  0  0
  187.7280  177.2530  143.2790 C   0  0  0  0  0  0  0  0  0  0  0  0
  185.7070  178.1120  142.2270 C   0  0  0  0  0  0  0  0  0  0  0  0
  189.1260  175.3200  142.2630 C   0  0  0  0  0  0  0  0  0  0  0  0
  189.4060  173.2620  140.4010 C   0  0  0  0  0  3  0  0  0  0  0  0
  186.8890  177.3700  142.1600 C   0  0  0  0  0  3  0  0  0  0  0  0
  190.8550  175.3850  144.6000 C   0  0  2  0  0  3  0  0  0  0  0  0
  187.9690  174.5240  138.8010 C   0  0  0  0  0  1  0  0  0  0  0  0
  188.2170  177.9040  145.5860 O   0  0  0  0  0  0  0  0  0  0  0  0
  184.8230  178.2070  141.0370 C   0  0  0  0  0  1  0  0  0  0  0  0
  190.6540  174.0520  143.8830 C   0  0  0  0  0  2  0  0  0  0  0  0
  189.5140  176.1160  144.6270 C   0  0  1  0  0  3  0  0  0  0  0  0
  188.5400  175.3910  141.0350 N   0  0  0  0  0  0  0  0  0  0  0  0
  185.3590  178.7650  143.4100 C   0  0  0  0  0  3  0  0  0  0  0  0
  189.9430  174.2020  142.5640 C   0  0  0  0  0  0  0  0  0  0  0  0
  190.0540  173.1700  141.6310 C   0  0  0  0  0  3  0  0  0  0  0  0
  189.5220  177.3330  145.5390 C   0  0  0  0  0  2  0  0  0  0  0  0
  187.3850  177.9520  144.4600 C   0  0  0  0  0  0  0  0  0  0  0  0
  186.1970  178.6860  144.5230 C   0  0  0  0  0  3  0  0  0  0  0  0
  191.8830  176.1630  143.9110 N   0  0  0  0  0  2  0  0  0  0  0  0
  193.4400  174.9400  142.6920 O   0  0  0  0  0  1  0  0  0  0  0  0
  193.1370  175.4260  143.9680 C   0  0  1  0  0  3  0  0  0  0  0  0
  196.3670  174.4960  145.5420 C   0  0  1  0  0  3  0  0  0  0  0  0
  195.5460  176.1850  143.6240 C   0  0  0  0  0  2  0  0  0  0  0  0
  193.5370  176.4450  146.6530 O   0  0  0  0  0  1  0  0  0  0  0  0
  196.8620  173.1440  146.0090 C   0  0  0  0  0  1  0  0  0  0  0  0
  196.2200  174.4870  143.7250 S   0  0  0  0  0  0  0  0  0  0  0  0
  194.6200  176.1600  145.8940 N   0  0  0  0  0  0  0  0  0  0  0  0
  194.2780  176.3380  144.4710 C   0  0  2  0  0  3  0  0  0  0  0  0
  195.0130  174.7810  146.1730 C   0  0  0  0  0  2  0  0  0  0  0  0
  1  6  2  0  0  0  0
  1 14  1  0  0  0  0
  2  5  1  6  0  0  0
  2  3  1  0  0  0  0
  2 13  1  0  0  0  0
  3 19  1  0  0  0  0
  4 15  2  0  0  0  0
  5 16  1  0  0  0  0
  6 17  1  0  0  0  0
  7  4  1  0  0  0  0
  7  3  2  0  0  0  0
  8 21  1  6  0  0  0
  8 13  1  0  0  0  0
  9  1  1  0  0  0  0
 11  4  1  0  0  0  0
 12  8  1  0  0  0  0
 13 18  1  1  0  0  0
 14  5  2  0  0  0  0
 15 20  1  0  0  0  0
 16 12  1  0  0  0  0
 17 16  2  0  0  0  0
 18 10  1  0  0  0  0
 19 20  2  0  0  0  0
 19 10  1  0  0  0  0
 21 23  1  0  0  0  0
 23 22  1  6  0  0  0
 24 27  1  1  0  0  0
 24 31  1  0  0  0  0
 25 28  1  0  0  0  0
 25 30  1  0  0  0  0
 28 24  1  0  0  0  0
 29 31  1  0  0  0  0
 29 26  1  0  0  0  0
 30 23  1  6  0  0  0
 30 29  1  0  0  0  0
M  END
>  <MODEL>
4

>  <REMARK>
 VINA RESULT:      -7.7      1.240      1.865
  Name = 
  3 active torsions:
  status: ('A' for Active; 'I' for Inactive)
    1  A    between atoms: C_5  and  N_16
    2  A    between atoms: C_5  and  C_30
    3  A    between atoms: C_10  and  N_16
                            x       y       z     vdW  Elec       q    Type
                         _______ _______ _______ _____ _____    ______ ____

>  <TORSDO>
F 3

$$$$
=
 OpenBabel11112416473D

 31 35  0  0  1  0  0  0  0  0999 V2000
  191.0830  176.5680  146.7730 C   0  0  0  0  0  0  0  0  0  0  0  0
  188.1640  176.1840  144.4170 C   0  0  2  0  0  3  0  0  0  0  0  0
  187.1170  177.0970  145.0400 C   0  0  0  0  0  0  0  0  0  0  0  0
  186.1970  178.3020  146.9450 C   0  0  0  0  0  0  0  0  0  0  0  0
  189.5920  176.3330  144.9250 C   0  0  0  0  0  0  0  0  0  0  0  0
  192.1890  176.3970  145.9410 C   0  0  0  0  0  3  0  0  0  0  0  0
  187.2020  177.5170  146.3770 C   0  0  0  0  0  3  0  0  0  0  0  0
  189.1330  175.3590  142.2240 C   0  0  2  0  0  3  0  0  0  0  0  0
  191.2760  176.7910  148.2280 C   0  0  0  0  0  1  0  0  0  0  0  0
  185.8110  176.9960  142.9740 O   0  0  0  0  0  0  0  0  0  0  0  0
  186.3160  178.7520  148.3560 C   0  0  0  0  0  1  0  0  0  0  0  0
  190.5280  175.8650  142.5860 C   0  0  0  0  0  2  0  0  0  0  0  0
  188.1080  176.2810  142.8830 C   0  0  1  0  0  3  0  0  0  0  0  0
  189.8280  176.5170  146.2550 N   0  0  0  0  0  0  0  0  0  0  0  0
  185.0810  178.6620  146.1900 C   0  0  0  0  0  3  0  0  0  0  0  0
  190.6940  176.1070  144.0630 C   0  0  0  0  0  0  0  0  0  0  0  0
  191.9880  176.1660  144.5830 C   0  0  0  0  0  3  0  0  0  0  0  0
  186.6910  176.0410  142.3880 C   0  0  0  0  0  2  0  0  0  0  0  0
  185.9630  177.4340  144.2960 C   0  0  0  0  0  0  0  0  0  0  0  0
  184.9630  178.2270  144.8680 C   0  0  0  0  0  3  0  0  0  0  0  0
  188.9820  173.9750  142.6680 N   0  0  0  0  0  2  0  0  0  0  0  0
  188.3170  173.5580  140.4800 O   0  0  0  0  0  1  0  0  0  0  0  0
  189.1380  173.1000  141.5150 C   0  0  1  0  0  3  0  0  0  0  0  0
  191.1540  170.2590  140.2350 C   0  0  1  0  0  3  0  0  0  0  0  0
  190.7300  172.8170  139.5440 C   0  0  0  0  0  2  0  0  0  0  0  0
  191.4830  172.4450  143.0900 O   0  0  0  0  0  1  0  0  0  0  0  0
  190.8160  168.7850  140.1720 C   0  0  0  0  0  1  0  0  0  0  0  0
  190.0660  171.1730  139.0930 S   0  0  0  0  0  0  0  0  0  0  0  0
  191.4670  172.1220  141.7760 N   0  0  0  0  0  0  0  0  0  0  0  0
  190.6110  173.0770  141.0490 C   0  0  2  0  0  3  0  0  0  0  0  0
  190.9540  170.7600  141.6570 C   0  0  0  0  0  2  0  0  0  0  0  0
  1  9  1  0  0  0  0
  2  5  1  1  0  0  0
  2  3  1  0  0  0  0
  3  7  1  0  0  0  0
  4 11  1  0  0  0  0
  5 14  2  0  0  0  0
  6  1  2  0  0  0  0
  7  4  2  0  0  0  0
  8 12  1  0  0  0  0
  8 21  1  1  0  0  0
  8 13  1  0  0  0  0
 10 19  1  0  0  0  0
 12 16  1  0  0  0  0
 13 18  1  6  0  0  0
 13  2  1  0  0  0  0
 14  1  1  0  0  0  0
 15  4  1  0  0  0  0
 16 17  2  0  0  0  0
 16  5  1  0  0  0  0
 17  6  1  0  0  0  0
 18 10  1  0  0  0  0
 19 20  1  0  0  0  0
 19  3  2  0  0  0  0
 20 15  2  0  0  0  0
 23 22  1  6  0  0  0
 23 21  1  0  0  0  0
 24 27  1  1  0  0  0
 24 31  1  0  0  0  0
 25 30  1  0  0  0  0
 28 25  1  0  0  0  0
 28 24  1  0  0  0  0
 29 26  1  0  0  0  0
 30 23  1  1  0  0  0
 30 29  1  0  0  0  0
 31 29  1  0  0  0  0
M  END
>  <MODEL>
5

>  <REMARK>
 VINA RESULT:      -7.7      3.152      5.310
  Name = 
  3 active torsions:
  status: ('A' for Active; 'I' for Inactive)
    1  A    between atoms: C_5  and  N_16
    2  A    between atoms: C_5  and  C_30
    3  A    between atoms: C_10  and  N_16
                            x       y       z     vdW  Elec       q    Type
                         _______ _______ _______ _____ _____    ______ ____

>  <TORSDO>
F 3

$$$$
=
 OpenBabel11112416473D

 31 35  0  0  1  0  0  0  0  0999 V2000
  185.4290  178.0080  146.7670 C   0  0  0  0  0  0  0  0  0  0  0  0
  186.9780  176.8030  143.5460 C   0  0  2  0  0  3  0  0  0  0  0  0
  186.0390  177.3780  142.4950 C   0  0  0  0  0  0  0  0  0  0  0  0
  183.8750  178.2690  141.8240 C   0  0  0  0  0  0  0  0  0  0  0  0
  186.8440  177.3550  144.9600 C   0  0  0  0  0  0  0  0  0  0  0  0
  186.5280  178.1610  147.6110 C   0  0  0  0  0  3  0  0  0  0  0  0
  184.7410  177.8040  142.8160 C   0  0  0  0  0  3  0  0  0  0  0  0
  189.4030  176.2900  144.0800 C   0  0  2  0  0  3  0  0  0  0  0  0
  184.0600  178.2770  147.2740 C   0  0  0  0  0  1  0  0  0  0  0  0
  187.7010  176.9060  140.7630 O   0  0  0  0  0  0  0  0  0  0  0  0
  182.5110  178.7340  142.1880 C   0  0  0  0  0  1  0  0  0  0  0  0
  189.3740  177.1740  145.3250 C   0  0  0  0  0  2  0  0  0  0  0  0
  188.4340  176.8800  143.0570 C   0  0  1  0  0  3  0  0  0  0  0  0
  185.6100  177.5990  145.4830 N   0  0  0  0  0  0  0  0  0  0  0  0
  184.2880  178.2930  140.4920 C   0  0  0  0  0  3  0  0  0  0  0  0
  187.9750  177.4550  145.8070 C   0  0  0  0  0  0  0  0  0  0  0  0
  187.8030  177.8820  147.1250 C   0  0  0  0  0  3  0  0  0  0  0  0
  188.5660  176.2430  141.6830 C   0  0  0  0  0  2  0  0  0  0  0  0
  186.4330  177.3700  141.1370 C   0  0  0  0  0  0  0  0  0  0  0  0
  185.5640  177.8430  140.1490 C   0  0  0  0  0  3  0  0  0  0  0  0
  189.0420  174.9210  144.4420 N   0  0  0  0  0  2  0  0  0  0  0  0
  189.9460  172.8580  145.0200 O   0  0  0  0  0  1  0  0  0  0  0  0
  190.2560  174.2050  144.8070 C   0  0  1  0  0  3  0  0  0  0  0  0
  193.5050  172.4470  144.4390 C   0  0  1  0  0  3  0  0  0  0  0  0
  191.4230  173.0500  142.8560 C   0  0  0  0  0  2  0  0  0  0  0  0
  192.5900  175.9250  144.7670 O   0  0  0  0  0  1  0  0  0  0  0  0
  194.2260  171.5350  145.4080 C   0  0  0  0  0  1  0  0  0  0  0  0
  191.9760  171.6330  143.8720 S   0  0  0  0  0  0  0  0  0  0  0  0
  192.6590  174.7170  144.1620 N   0  0  0  0  0  0  0  0  0  0  0  0
  191.3160  174.3310  143.6900 C   0  0  2  0  0  3  0  0  0  0  0  0
  193.1690  173.7560  145.1370 C   0  0  0  0  0  2  0  0  0  0  0  0
  1  9  1  0  0  0  0
  1  6  1  0  0  0  0
  2  3  1  6  0  0  0
  2  5  1  0  0  0  0
  3  7  1  0  0  0  0
  4 11  1  0  0  0  0
  4  7  2  0  0  0  0
  5 14  1  0  0  0  0
  5 16  2  0  0  0  0
  8 21  1  1  0  0  0
  8 12  1  0  0  0  0
 10 19  1  0  0  0  0
 10 18  1  0  0  0  0
 12 16  1  0  0  0  0
 13 18  1  6  0  0  0
 13  2  1  0  0  0  0
 13  8  1  0  0  0  0
 14  1  2  0  0  0  0
 15  4  1  0  0  0  0
 16 17  1  0  0  0  0
 17  6  2  0  0  0  0
 19  3  2  0  0  0  0
 20 15  2  0  0  0  0
 20 19  1  0  0  0  0
 21 23  1  0  0  0  0
 23 22  1  6  0  0  0
 24 31  1  0  0  0  0
 24 27  1  1  0  0  0
 25 30  1  0  0  0  0
 25 28  1  0  0  0  0
 28 24  1  0  0  0  0
 29 26  1  0  0  0  0
 29 31  1  0  0  0  0
 30 29  1  0  0  0  0
 30 23  1  1  0  0  0
M  END
>  <MODEL>
6

>  <REMARK>
 VINA RESULT:      -7.6      2.538      4.646
  Name = 
  3 active torsions:
  status: ('A' for Active; 'I' for Inactive)
    1  A    between atoms: C_5  and  N_16
    2  A    between atoms: C_5  and  C_30
    3  A    between atoms: C_10  and  N_16
                            x       y       z     vdW  Elec       q    Type
                         _______ _______ _______ _____ _____    ______ ____

>  <TORSDO>
F 3

$$$$
=
 OpenBabel11112416473D

 31 35  0  0  1  0  0  0  0  0999 V2000
  191.1110  176.5680  146.9050 C   0  0  0  0  0  0  0  0  0  0  0  0
  188.3810  176.1020  144.3450 C   0  0  2  0  0  3  0  0  0  0  0  0
  187.2720  176.9960  144.8810 C   0  0  0  0  0  0  0  0  0  0  0  0
  186.1890  178.1940  146.7030 C   0  0  0  0  0  0  0  0  0  0  0  0
  189.7650  176.2870  144.9550 C   0  0  0  0  0  0  0  0  0  0  0  0
  192.2780  176.4160  146.1580 C   0  0  0  0  0  3  0  0  0  0  0  0
  187.2500  177.4270  146.2170 C   0  0  0  0  0  3  0  0  0  0  0  0
  189.5270  175.2830  142.2360 C   0  0  2  0  0  3  0  0  0  0  0  0
  191.1920  176.8060  148.3690 C   0  0  0  0  0  1  0  0  0  0  0  0
  186.1240  176.8500  142.7270 O   0  0  0  0  0  0  0  0  0  0  0  0
  186.1940  178.6570  148.1150 C   0  0  0  0  0  1  0  0  0  0  0  0
  190.8800  175.8220  142.6950 C   0  0  0  0  0  2  0  0  0  0  0  0
  188.4360  176.1860  142.8100 C   0  0  1  0  0  3  0  0  0  0  0  0
  189.8990  176.4860  146.2970 N   0  0  0  0  0  0  0  0  0  0  0  0
  185.1230  178.5230  145.8650 C   0  0  0  0  0  3  0  0  0  0  0  0
  190.9320  176.0790  144.1780 C   0  0  0  0  0  0  0  0  0  0  0  0
  192.1830  176.1700  144.7900 C   0  0  0  0  0  3  0  0  0  0  0  0
  187.0650  175.9110  142.2150 C   0  0  0  0  0  2  0  0  0  0  0  0
  186.1680  177.3020  144.0520 C   0  0  0  0  0  0  0  0  0  0  0  0
  185.1130  178.0760  144.5420 C   0  0  0  0  0  3  0  0  0  0  0  0
  189.3730  173.8990  142.6810 N   0  0  0  0  0  2  0  0  0  0  0  0
  191.2690  172.5850  142.9700 O   0  0  0  0  0  1  0  0  0  0  0  0
  190.3800  173.0860  142.0140 C   0  0  1  0  0  3  0  0  0  0  0  0
  191.1420  171.7500  138.6360 C   0  0  1  0  0  3  0  0  0  0  0  0
  190.6690  170.7330  141.0740 C   0  0  0  0  0  2  0  0  0  0  0  0
  188.1970  173.2320  140.1100 O   0  0  0  0  0  1  0  0  0  0  0  0
  192.0730  172.2890  137.5710 C   0  0  0  0  0  1  0  0  0  0  0  0
  192.1250  171.1890  140.0640 S   0  0  0  0  0  0  0  0  0  0  0  0
  189.1530  172.2900  139.9380 N   0  0  0  0  0  0  0  0  0  0  0  0
  189.7150  171.9190  141.2500 C   0  0  2  0  0  3  0  0  0  0  0  0
  190.1810  172.8490  139.0650 C   0  0  0  0  0  2  0  0  0  0  0  0
  1  9  1  0  0  0  0
  2  3  1  1  0  0  0
  2  5  1  0  0  0  0
  3  7  1  0  0  0  0
  4 11  1  0  0  0  0
  5 14  2  0  0  0  0
  6  1  2  0  0  0  0
  7  4  2  0  0  0  0
  8 21  1  1  0  0  0
  8 12  1  0  0  0  0
  8 13  1  0  0  0  0
 10 19  1  0  0  0  0
 12 16  1  0  0  0  0
 13 18  1  6  0  0  0
 13  2  1  0  0  0  0
 14  1  1  0  0  0  0
 15  4  1  0  0  0  0
 16 17  2  0  0  0  0
 16  5  1  0  0  0  0
 17  6  1  0  0  0  0
 18 10  1  0  0  0  0
 19 20  1  0  0  0  0
 19  3  2  0  0  0  0
 20 15  2  0  0  0  0
 23 21  1  0  0  0  0
 23 22  1  1  0  0  0
 24 27  1  6  0  0  0
 24 31  1  0  0  0  0
 24 28  1  0  0  0  0
 25 30  1  0  0  0  0
 28 25  1  0  0  0  0
 29 26  1  0  0  0  0
 29 30  1  0  0  0  0
 30 23  1  6  0  0  0
 31 29  1  0  0  0  0
M  END
>  <MODEL>
7

>  <REMARK>
 VINA RESULT:      -7.6      3.029      5.593
  Name = 
  3 active torsions:
  status: ('A' for Active; 'I' for Inactive)
    1  A    between atoms: C_5  and  N_16
    2  A    between atoms: C_5  and  C_30
    3  A    between atoms: C_10  and  N_16
                            x       y       z     vdW  Elec       q    Type
                         _______ _______ _______ _____ _____    ______ ____

>  <TORSDO>
F 3

$$$$
=
 OpenBabel11112416473D

 31 35  0  0  1  0  0  0  0  0999 V2000
  188.3420  174.3290  139.9420 C   0  0  0  0  0  0  0  0  0  0  0  0
  188.5010  176.3090  143.1480 C   0  0  2  0  0  3  0  0  0  0  0  0
  187.2110  177.1160  143.1000 C   0  0  0  0  0  0  0  0  0  0  0  0
  185.3590  178.1100  141.8720 C   0  0  0  0  0  0  0  0  0  0  0  0
  188.6220  175.1520  142.1640 C   0  0  0  0  0  0  0  0  0  0  0  0
  189.0110  173.1500  140.2620 C   0  0  0  0  0  3  0  0  0  0  0  0
  186.5060  177.3140  141.9030 C   0  0  0  0  0  3  0  0  0  0  0  0
  190.0870  175.0500  144.6750 C   0  0  2  0  0  3  0  0  0  0  0  0
  187.8180  174.5370  138.5680 C   0  0  0  0  0  1  0  0  0  0  0  0
  187.4730  177.6610  145.4710 O   0  0  0  0  0  0  0  0  0  0  0  0
  184.6160  178.2910  140.5980 C   0  0  0  0  0  1  0  0  0  0  0  0
  189.9050  173.7550  143.8870 C   0  0  0  0  0  2  0  0  0  0  0  0
  188.7850  175.8450  144.5870 C   0  0  1  0  0  3  0  0  0  0  0  0
  188.1780  175.2960  140.8840 N   0  0  0  0  0  0  0  0  0  0  0  0
  184.9130  178.7380  143.0350 C   0  0  0  0  0  3  0  0  0  0  0  0
  189.3500  173.9850  142.5060 C   0  0  0  0  0  0  0  0  0  0  0  0
  189.5160  172.9820  141.5500 C   0  0  0  0  0  3  0  0  0  0  0  0
  188.7480  177.0270  145.5420 C   0  0  0  0  0  2  0  0  0  0  0  0
  186.7720  177.7890  144.2640 C   0  0  0  0  0  0  0  0  0  0  0  0
  185.6200  178.5790  144.2280 C   0  0  0  0  0  3  0  0  0  0  0  0
  191.2170  175.8000  144.1320 N   0  0  0  0  0  2  0  0  0  0  0  0
  192.0070  175.0510  146.1860 O   0  0  0  0  0  1  0  0  0  0  0  0
  192.4020  175.4800  144.9150 C   0  0  1  0  0  3  0  0  0  0  0  0
  195.8780  175.6110  143.6210 C   0  0  1  0  0  3  0  0  0  0  0  0
  194.4050  173.9110  145.0840 C   0  0  0  0  0  2  0  0  0  0  0  0
  192.6750  175.0020  142.0680 O   0  0  0  0  0  1  0  0  0  0  0  0
  196.8160  176.7910  143.4870 C   0  0  0  0  0  1  0  0  0  0  0  0
  195.5920  175.2690  145.3880 S   0  0  0  0  0  0  0  0  0  0  0  0
  193.7260  174.7380  142.8790 N   0  0  0  0  0  0  0  0  0  0  0  0
  193.2290  174.3760  144.2190 C   0  0  2  0  0  3  0  0  0  0  0  0
  194.5610  175.9350  142.9340 C   0  0  0  0  0  2  0  0  0  0  0  0
  1  6  2  0  0  0  0
  1 14  1  0  0  0  0
  2  5  1  6  0  0  0
  2 13  1  0  0  0  0
  3  2  1  0  0  0  0
  3 19  1  0  0  0  0
  4  7  1  0  0  0  0
  4 15  2  0  0  0  0
  5 16  1  0  0  0  0
  6 17  1  0  0  0  0
  7  3  2  0  0  0  0
  8 21  1  6  0  0  0
  9  1  1  0  0  0  0
 10 18  1  0  0  0  0
 11  4  1  0  0  0  0
 12  8  1  0  0  0  0
 13  8  1  0  0  0  0
 13 18  1  1  0  0  0
 14  5  2  0  0  0  0
 15 20  1  0  0  0  0
 16 12  1  0  0  0  0
 17 16  2  0  0  0  0
 19 10  1  0  0  0  0
 20 19  2  0  0  0  0
 21 23  1  0  0  0  0
 23 22  1  1  0  0  0
 24 27  1  1  0  0  0
 24 28  1  0  0  0  0
 25 28  1  0  0  0  0
 26 29  1  0  0  0  0
 29 31  1  0  0  0  0
 29 30  1  0  0  0  0
 30 23  1  1  0  0  0
 30 25  1  0  0  0  0
 31 24  1  0  0  0  0
M  END
>  <MODEL>
8

>  <REMARK>
 VINA RESULT:      -7.4      1.706      2.757
  Name = 
  3 active torsions:
  status: ('A' for Active; 'I' for Inactive)
    1  A    between atoms: C_5  and  N_16
    2  A    between atoms: C_5  and  C_30
    3  A    between atoms: C_10  and  N_16
                            x       y       z     vdW  Elec       q    Type
                         _______ _______ _______ _____ _____    ______ ____

>  <TORSDO>
F 3

$$$$
=
 OpenBabel11112416473D

 31 35  0  0  1  0  0  0  0  0999 V2000
  193.4940  176.4380  145.6770 C   0  0  0  0  0  0  0  0  0  0  0  0
  190.4680  175.6450  143.5700 C   0  0  2  0  0  3  0  0  0  0  0  0
  191.0750  174.8900  142.3960 C   0  0  0  0  0  0  0  0  0  0  0  0
  192.9650  174.3210  140.9700 C   0  0  0  0  0  0  0  0  0  0  0  0
  191.3600  175.8460  144.7890 C   0  0  0  0  0  0  0  0  0  0  0  0
  192.9880  176.4360  146.9750 C   0  0  0  0  0  3  0  0  0  0  0  0
  192.4420  174.9710  142.0900 C   0  0  0  0  0  3  0  0  0  0  0  0
  188.4730  175.7650  145.1310 C   0  0  2  0  0  3  0  0  0  0  0  0
  194.9250  176.7560  145.4380 C   0  0  0  0  0  1  0  0  0  0  0  0
  188.8450  174.1190  141.7500 O   0  0  0  0  0  0  0  0  0  0  0  0
  194.4190  174.4040  140.6760 C   0  0  0  0  0  1  0  0  0  0  0  0
  189.3550  175.5800  146.3630 C   0  0  0  0  0  2  0  0  0  0  0  0
  189.1210  175.0170  143.9670 C   0  0  1  0  0  3  0  0  0  0  0  0
  192.6760  176.1610  144.6280 N   0  0  0  0  0  0  0  0  0  0  0  0
  192.1220  173.5960  140.1270 C   0  0  0  0  0  3  0  0  0  0  0  0
  190.8060  175.8840  146.0930 C   0  0  0  0  0  0  0  0  0  0  0  0
  191.6380  176.1580  147.1790 C   0  0  0  0  0  3  0  0  0  0  0  0
  188.2110  174.9070  142.7550 C   0  0  0  0  0  2  0  0  0  0  0  0
  190.2240  174.1860  141.5130 C   0  0  0  0  0  0  0  0  0  0  0  0
  190.7540  173.5310  140.3970 C   0  0  0  0  0  3  0  0  0  0  0  0
  188.3240  177.1900  144.8430 N   0  0  0  0  0  2  0  0  0  0  0  0
  186.1940  177.4260  145.7450 O   0  0  0  0  0  1  0  0  0  0  0  0
  186.9230  177.4580  144.5520 C   0  0  1  0  0  3  0  0  0  0  0  0
  184.2530  178.6680  142.2750 C   0  0  1  0  0  3  0  0  0  0  0  0
  185.5600  179.6090  144.4220 C   0  0  0  0  0  2  0  0  0  0  0  0
  187.8220  178.2480  141.9100 O   0  0  0  0  0  1  0  0  0  0  0  0
  183.1130  177.9080  141.6320 C   0  0  0  0  0  1  0  0  0  0  0  0
  183.9910  178.7320  144.0780 S   0  0  0  0  0  0  0  0  0  0  0  0
  186.6850  178.7910  142.4040 N   0  0  0  0  0  0  0  0  0  0  0  0
  186.7660  178.8380  143.8750 C   0  0  2  0  0  3  0  0  0  0  0  0
  185.5650  177.9630  141.9650 C   0  0  0  0  0  2  0  0  0  0  0  0
  1  6  1  0  0  0  0
  2  3  1  6  0  0  0
  2 13  1  0  0  0  0
  2  5  1  0  0  0  0
  4  7  2  0  0  0  0
  5 16  2  0  0  0  0
  6 17  2  0  0  0  0
  7  3  1  0  0  0  0
  8 21  1  6  0  0  0
  8 12  1  0  0  0  0
  9  1  1  0  0  0  0
 10 18  1  0  0  0  0
 11  4  1  0  0  0  0
 13 18  1  6  0  0  0
 13  8  1  0  0  0  0
 14  5  1  0  0  0  0
 14  1  2  0  0  0  0
 15 20  2  0  0  0  0
 15  4  1  0  0  0  0
 16 12  1  0  0  0  0
 16 17  1  0  0  0  0
 19 10  1  0  0  0  0
 19  3  2  0  0  0  0
 20 19  1  0  0  0  0
 23 21  1  0  0  0  0
 23 22  1  1  0  0  0
 24 27  1  6  0  0  0
 24 28  1  0  0  0  0
 26 29  1  0  0  0  0
 28 25  1  0  0  0  0
 29 30  1  0  0  0  0
 30 25  1  0  0  0  0
 30 23  1  1  0  0  0
 31 24  1  0  0  0  0
 31 29  1  0  0  0  0
M  END
>  <MODEL>
9

>  <REMARK>
 VINA RESULT:      -7.3      3.351      8.153
  Name = 
  3 active torsions:
  status: ('A' for Active; 'I' for Inactive)
    1  A    between atoms: C_5  and  N_16
    2  A    between atoms: C_5  and  C_30
    3  A    between atoms: C_10  and  N_16
                            x       y       z     vdW  Elec       q    Type
                         _______ _______ _______ _____ _____    ______ ____

>  <TORSDO>
F 3

$$$$
