=
 OpenBabel11112416553D

 31 35  0  0  1  0  0  0  0  0999 V2000
  184.5450  178.4510  146.2040 C   0  0  0  0  0  0  0  0  0  0  0  0
  187.1250  177.1630  143.7810 C   0  0  0  0  0  0  0  0  0  0  0  0
  186.5960  177.3340  142.4690 C   0  0  0  0  0  0  0  0  0  0  0  0
  190.5390  175.8140  147.5700 O   0  0  0  0  0  0  0  0  0  0  0  0
  191.0320  175.5330  146.4460 C   0  0  0  0  0  0  0  0  0  0  0  0
  184.8520  178.0410  140.9130 C   0  0  0  0  0  0  0  0  0  0  0  0
  186.4510  177.5290  144.9860 C   0  0  0  0  0  0  0  0  0  0  0  0
  185.1930  178.2200  147.4170 C   0  0  0  0  0  3  0  0  0  0  0  0
  185.3300  177.8930  142.2160 C   0  0  0  0  0  3  0  0  0  0  0  0
  189.0010  176.3850  145.1490 C   0  0  0  0  0  0  0  0  0  0  0  0
  183.3100  179.0070  146.1900 F   0  0  0  0  0  0  0  0  0  0  0  0
  188.5980  176.3840  141.5540 N   0  0  0  0  0  0  0  0  0  0  0  0
  183.2720  178.7410  140.6370 Cl  0  0  0  0  0  0  0  0  0  0  0  0
  188.3290  176.7460  146.2720 N   0  0  0  0  0  0  0  0  0  0  0  0
  188.4160  176.5860  143.8920 C   0  0  0  0  0  0  0  0  0  0  0  0
  190.3070  175.8000  145.2380 N   0  0  0  0  0  2  0  0  0  0  0  0
  185.1700  178.1080  145.0030 C   0  0  0  0  0  3  0  0  0  0  0  0
  185.6330  177.6340  139.8320 C   0  0  0  0  0  3  0  0  0  0  0  0
  187.0940  177.3020  146.2290 C   0  0  0  0  0  0  0  0  0  0  0  0
  186.4650  177.6470  147.4290 C   0  0  0  0  0  3  0  0  0  0  0  0
  189.1000  176.2200  142.7750 N   0  0  0  0  0  0  0  0  0  0  0  0
  187.3750  176.9260  141.3590 C   0  0  0  0  0  0  0  0  0  0  0  0
  186.8930  177.0760  140.0550 C   0  0  0  0  0  3  0  0  0  0  0  0
  193.8320  175.6860  143.9860 C   0  0  1  0  0  3  0  0  0  0  0  0
  193.5270  175.9390  146.4630 C   0  0  0  0  0  2  0  0  0  0  0  0
  191.5460  173.1350  145.1820 O   0  0  0  0  0  1  0  0  0  0  0  0
  193.8740  176.3780  142.7770 O   0  0  0  0  0  1  0  0  0  0  0  0
  193.6860  176.6780  145.1350 C   0  0  0  0  0  2  0  0  0  0  0  0
  192.5980  173.9880  145.2460 N   0  0  0  0  0  0  0  0  0  0  0  0
  192.4010  174.9020  146.3890 C   0  0  2  0  0  3  0  0  0  0  0  0
  192.6460  174.7270  143.9840 C   0  0  0  0  0  2  0  0  0  0  0  0
  1  8  1  0  0  0  0
  2 15  1  0  0  0  0
  2  7  1  0  0  0  0
  3  2  2  0  0  0  0
  5  4  2  0  0  0  0
  6  9  2  0  0  0  0
  7 17  1  0  0  0  0
  7 19  2  0  0  0  0
  8 20  2  0  0  0  0
  9  3  1  0  0  0  0
 10 16  1  0  0  0  0
 10 14  2  0  0  0  0
 11  1  1  0  0  0  0
 12 21  1  0  0  0  0
 13  6  1  0  0  0  0
 15 10  1  0  0  0  0
 16  5  1  0  0  0  0
 17  1  2  0  0  0  0
 18 23  2  0  0  0  0
 18  6  1  0  0  0  0
 19 14  1  0  0  0  0
 19 20  1  0  0  0  0
 21 15  2  0  0  0  0
 22 12  2  0  0  0  0
 22  3  1  0  0  0  0
 23 22  1  0  0  0  0
 24 27  1  6  0  0  0
 24 28  1  0  0  0  0
 26 29  1  0  0  0  0
 28 25  1  0  0  0  0
 29 30  1  0  0  0  0
 30  5  1  6  0  0  0
 30 25  1  0  0  0  0
 31 24  1  0  0  0  0
 31 29  1  0  0  0  0
M  END
>  <MODEL>
1

>  <REMARK>
 VINA RESULT:      -9.8      0.000      0.000
  Name = 
  1 active torsions:
  status: ('A' for Active; 'I' for Inactive)
    1  A    between atoms: C_5  and  C_30
                            x       y       z     vdW  Elec       q    Type
                         _______ _______ _______ _____ _____    ______ ____

>  <TORSDO>
F 1

$$$$
=
 OpenBabel11112416553D

 31 35  0  0  1  0  0  0  0  0999 V2000
  184.8900  178.0850  146.8200 C   0  0  0  0  0  0  0  0  0  0  0  0
  186.8600  177.6600  143.6390 C   0  0  0  0  0  0  0  0  0  0  0  0
  185.9500  177.8140  142.5530 C   0  0  0  0  0  0  0  0  0  0  0  0
  191.4270  176.8340  146.1480 O   0  0  0  0  0  0  0  0  0  0  0  0
  191.6190  176.7760  144.9050 C   0  0  0  0  0  0  0  0  0  0  0  0
  183.7240  178.2210  141.6360 C   0  0  0  0  0  0  0  0  0  0  0  0
  186.5060  177.7500  145.0200 C   0  0  0  0  0  0  0  0  0  0  0  0
  185.8950  177.9100  147.7710 C   0  0  0  0  0  3  0  0  0  0  0  0
  184.5790  178.0780  142.7300 C   0  0  0  0  0  3  0  0  0  0  0  0
  189.1700  177.2330  144.3320 C   0  0  0  0  0  0  0  0  0  0  0  0
  183.6190  178.3320  147.2160 F   0  0  0  0  0  0  0  0  0  0  0  0
  187.7500  177.4490  141.0120 N   0  0  0  0  0  0  0  0  0  0  0  0
  182.0240  178.5480  141.8950 Cl  0  0  0  0  0  0  0  0  0  0  0  0
  188.7940  177.3250  145.6330 N   0  0  0  0  0  0  0  0  0  0  0  0
  188.2170  177.3980  143.3180 C   0  0  0  0  0  0  0  0  0  0  0  0
  190.5350  176.9680  143.9850 N   0  0  0  0  0  2  0  0  0  0  0  0
  185.1950  178.0050  145.4600 C   0  0  0  0  0  3  0  0  0  0  0  0
  184.2220  178.1060  140.3400 C   0  0  0  0  0  3  0  0  0  0  0  0
  187.5140  177.5750  146.0010 C   0  0  0  0  0  0  0  0  0  0  0  0
  187.2040  177.6550  147.3620 C   0  0  0  0  0  3  0  0  0  0  0  0
  188.6070  177.3030  142.0190 N   0  0  0  0  0  0  0  0  0  0  0  0
  186.4380  177.7000  141.2300 C   0  0  0  0  0  0  0  0  0  0  0  0
  185.5790  177.8450  140.1370 C   0  0  0  0  0  3  0  0  0  0  0  0
  193.7170  173.6970  144.7250 C   0  0  1  0  0  3  0  0  0  0  0  0
  193.0110  175.5500  143.1880 C   0  0  0  0  0  2  0  0  0  0  0  0
  193.8650  176.8560  146.5040 O   0  0  0  0  0  1  0  0  0  0  0  0
  193.3980  172.4160  145.1690 O   0  0  0  0  0  1  0  0  0  0  0  0
  192.7530  174.1060  143.6170 C   0  0  0  0  0  2  0  0  0  0  0  0
  193.9510  176.0300  145.4320 N   0  0  0  0  0  0  0  0  0  0  0  0
  193.0100  176.4950  144.3950 C   0  0  2  0  0  3  0  0  0  0  0  0
  193.6090  174.6810  145.8860 C   0  0  0  0  0  2  0  0  0  0  0  0
  1 11  1  0  0  0  0
  1  8  1  0  0  0  0
  2  7  1  0  0  0  0
  3  9  1  0  0  0  0
  3  2  2  0  0  0  0
  5  4  2  0  0  0  0
  6 13  1  0  0  0  0
  6  9  2  0  0  0  0
  7 17  1  0  0  0  0
  7 19  2  0  0  0  0
 10 14  2  0  0  0  0
 12 22  2  0  0  0  0
 12 21  1  0  0  0  0
 14 19  1  0  0  0  0
 15  2  1  0  0  0  0
 15 10  1  0  0  0  0
 16 10  1  0  0  0  0
 16  5  1  0  0  0  0
 17  1  2  0  0  0  0
 18  6  1  0  0  0  0
 19 20  1  0  0  0  0
 20  8  2  0  0  0  0
 21 15  2  0  0  0  0
 22  3  1  0  0  0  0
 23 18  2  0  0  0  0
 23 22  1  0  0  0  0
 24 27  1  1  0  0  0
 24 31  1  0  0  0  0
 25 28  1  0  0  0  0
 25 30  1  0  0  0  0
 28 24  1  0  0  0  0
 29 31  1  0  0  0  0
 29 26  1  0  0  0  0
 30  5  1  1  0  0  0
 30 29  1  0  0  0  0
M  END
>  <MODEL>
2

>  <REMARK>
 VINA RESULT:      -9.7      1.403      1.979
  Name = 
  1 active torsions:
  status: ('A' for Active; 'I' for Inactive)
    1  A    between atoms: C_5  and  C_30
                            x       y       z     vdW  Elec       q    Type
                         _______ _______ _______ _____ _____    ______ ____

>  <TORSDO>
F 1

$$$$
=
 OpenBabel11112416553D

 31 35  0  0  1  0  0  0  0  0999 V2000
  188.0240  177.0630  141.5530 C   0  0  0  0  0  0  0  0  0  0  0  0
  185.5050  178.1290  144.1420 C   0  0  0  0  0  0  0  0  0  0  0  0
  186.1600  178.0990  145.4080 C   0  0  0  0  0  0  0  0  0  0  0  0
  181.6340  178.8120  140.6230 O   0  0  0  0  0  0  0  0  0  0  0  0
  181.2030  179.0830  141.7740 C   0  0  0  0  0  0  0  0  0  0  0  0
  188.1080  177.7100  146.8280 C   0  0  0  0  0  0  0  0  0  0  0  0
  186.1190  177.7920  142.8970 C   0  0  0  0  0  0  0  0  0  0  0  0
  187.2510  177.1410  140.3950 C   0  0  0  0  0  3  0  0  0  0  0  0
  187.5070  177.7260  145.5690 C   0  0  0  0  0  3  0  0  0  0  0  0
  183.4330  178.5790  142.9170 C   0  0  0  0  0  0  0  0  0  0  0  0
  189.3190  176.6740  141.4790 F   0  0  0  0  0  0  0  0  0  0  0  0
  184.1310  178.8260  146.4580 N   0  0  0  0  0  0  0  0  0  0  0  0
  189.7860  177.2400  146.9900 Cl  0  0  0  0  0  0  0  0  0  0  0  0
  184.0520  178.2500  141.7550 N   0  0  0  0  0  0  0  0  0  0  0  0
  184.1430  178.5250  144.1230 C   0  0  0  0  0  0  0  0  0  0  0  0
  182.0570  178.9810  142.9220 N   0  0  0  0  0  2  0  0  0  0  0  0
  187.4610  177.3850  142.7900 C   0  0  0  0  0  3  0  0  0  0  0  0
  187.3720  178.0690  147.9570 C   0  0  0  0  0  3  0  0  0  0  0  0
  185.3500  177.8650  141.7090 C   0  0  0  0  0  0  0  0  0  0  0  0
  185.9180  177.5410  140.4730 C   0  0  0  0  0  3  0  0  0  0  0  0
  183.5120  178.8570  145.2810 N   0  0  0  0  0  0  0  0  0  0  0  0
  185.4290  178.4600  146.5650 C   0  0  0  0  0  0  0  0  0  0  0  0
  186.0340  178.4430  147.8250 C   0  0  0  0  0  3  0  0  0  0  0  0
  177.9920  177.9130  140.2790 C   0  0  1  0  0  3  0  0  0  0  0  0
  178.8940  178.4230  142.5640 C   0  0  0  0  0  2  0  0  0  0  0  0
  179.9890  180.9390  140.1340 O   0  0  0  0  0  1  0  0  0  0  0  0
  177.8030  176.9010  139.3400 O   0  0  0  0  0  1  0  0  0  0  0  0
  178.5730  177.3190  141.5570 C   0  0  0  0  0  2  0  0  0  0  0  0
  179.1520  180.0300  140.6920 N   0  0  0  0  0  0  0  0  0  0  0  0
  179.7660  179.5140  141.9310 C   0  0  2  0  0  3  0  0  0  0  0  0
  178.9520  178.9570  139.7170 C   0  0  0  0  0  2  0  0  0  0  0  0
  1 17  1  0  0  0  0
  2  3  1  0  0  0  0
  3  9  2  0  0  0  0
  3 22  1  0  0  0  0
  4  5  2  0  0  0  0
  5 16  1  0  0  0  0
  6 13  1  0  0  0  0
  6 18  2  0  0  0  0
  7  2  1  0  0  0  0
  8 20  1  0  0  0  0
  8  1  2  0  0  0  0
  9  6  1  0  0  0  0
 10 16  1  0  0  0  0
 10 15  1  0  0  0  0
 11  1  1  0  0  0  0
 12 22  1  0  0  0  0
 14 10  2  0  0  0  0
 15  2  2  0  0  0  0
 15 21  1  0  0  0  0
 17  7  2  0  0  0  0
 19 14  1  0  0  0  0
 19  7  1  0  0  0  0
 20 19  2  0  0  0  0
 21 12  2  0  0  0  0
 22 23  2  0  0  0  0
 23 18  1  0  0  0  0
 24 27  1  6  0  0  0
 24 28  1  0  0  0  0
 26 29  1  0  0  0  0
 28 25  1  0  0  0  0
 29 30  1  0  0  0  0
 30  5  1  6  0  0  0
 30 25  1  0  0  0  0
 31 24  1  0  0  0  0
 31 29  1  0  0  0  0
M  END
>  <MODEL>
3

>  <REMARK>
 VINA RESULT:      -9.0      6.124      9.864
  Name = 
  1 active torsions:
  status: ('A' for Active; 'I' for Inactive)
    1  A    between atoms: C_5  and  C_30
                            x       y       z     vdW  Elec       q    Type
                         _______ _______ _______ _____ _____    ______ ____

>  <TORSDO>
F 1

$$$$
=
 OpenBabel11112416553D

 31 35  0  0  1  0  0  0  0  0999 V2000
  191.5540  176.2550  146.3950 C   0  0  0  0  0  0  0  0  0  0  0  0
  188.3490  176.1380  144.4210 C   0  0  0  0  0  0  0  0  0  0  0  0
  187.3820  176.9020  145.1360 C   0  0  0  0  0  0  0  0  0  0  0  0
  190.3830  173.1150  140.6050 O   0  0  0  0  0  0  0  0  0  0  0  0
  189.1780  173.3630  140.3420 C   0  0  0  0  0  0  0  0  0  0  0  0
  186.6830  178.2900  147.0200 C   0  0  0  0  0  0  0  0  0  0  0  0
  189.7000  175.9340  144.8380 C   0  0  0  0  0  0  0  0  0  0  0  0
  192.3830  175.4790  145.5860 C   0  0  0  0  0  3  0  0  0  0  0  0
  187.6610  177.5510  146.3530 C   0  0  0  0  0  3  0  0  0  0  0  0
  188.8270  174.7700  142.4470 C   0  0  0  0  0  0  0  0  0  0  0  0
  192.0340  176.7910  147.5420 F   0  0  0  0  0  0  0  0  0  0  0  0
  185.7620  176.4160  143.4380 N   0  0  0  0  0  0  0  0  0  0  0  0
  187.0670  179.0830  148.5320 Cl  0  0  0  0  0  0  0  0  0  0  0  0
  190.1020  174.5990  142.8770 N   0  0  0  0  0  0  0  0  0  0  0  0
  187.9330  175.5370  143.2050 C   0  0  0  0  0  0  0  0  0  0  0  0
  188.3850  174.1710  141.2210 N   0  0  0  0  0  2  0  0  0  0  0  0
  190.2260  176.4780  146.0230 C   0  0  0  0  0  3  0  0  0  0  0  0
  185.4010  178.3970  146.4820 C   0  0  0  0  0  3  0  0  0  0  0  0
  190.5580  175.1480  144.0290 C   0  0  0  0  0  0  0  0  0  0  0  0
  191.8860  174.9270  144.4060 C   0  0  0  0  0  3  0  0  0  0  0  0
  186.6570  175.7000  142.7630 N   0  0  0  0  0  0  0  0  0  0  0  0
  186.0760  177.0220  144.6060 C   0  0  0  0  0  0  0  0  0  0  0  0
  185.0980  177.7630  145.2760 C   0  0  0  0  0  3  0  0  0  0  0  0
  190.4220  172.9540  136.8490 C   0  0  1  0  0  3  0  0  0  0  0  0
  189.3160  171.5370  138.5980 C   0  0  0  0  0  2  0  0  0  0  0  0
  187.8170  174.8800  138.4820 O   0  0  0  0  0  1  0  0  0  0  0  0
  191.6530  173.3460  136.3260 O   0  0  0  0  0  1  0  0  0  0  0  0
  190.6410  171.9040  137.9320 C   0  0  0  0  0  2  0  0  0  0  0  0
  188.4140  173.7660  137.9900 N   0  0  0  0  0  0  0  0  0  0  0  0
  188.5750  172.7890  139.0840 C   0  0  2  0  0  3  0  0  0  0  0  0
  189.7130  174.1650  137.4460 C   0  0  0  0  0  2  0  0  0  0  0  0
  1 11  1  0  0  0  0
  2  7  1  0  0  0  0
  2  3  1  0  0  0  0
  3  9  1  0  0  0  0
  5  4  2  0  0  0  0
  5 16  1  0  0  0  0
  6 13  1  0  0  0  0
  7 17  2  0  0  0  0
  8  1  2  0  0  0  0
  9  6  2  0  0  0  0
 10 14  2  0  0  0  0
 10 15  1  0  0  0  0
 12 22  1  0  0  0  0
 14 19  1  0  0  0  0
 15  2  2  0  0  0  0
 16 10  1  0  0  0  0
 17  1  1  0  0  0  0
 18  6  1  0  0  0  0
 19 20  2  0  0  0  0
 19  7  1  0  0  0  0
 20  8  1  0  0  0  0
 21 15  1  0  0  0  0
 21 12  2  0  0  0  0
 22  3  2  0  0  0  0
 22 23  1  0  0  0  0
 23 18  2  0  0  0  0
 24 27  1  1  0  0  0
 24 31  1  0  0  0  0
 24 28  1  0  0  0  0
 25 30  1  0  0  0  0
 28 25  1  0  0  0  0
 29 26  1  0  0  0  0
 29 30  1  0  0  0  0
 30  5  1  1  0  0  0
 31 29  1  0  0  0  0
M  END
>  <MODEL>
4

>  <REMARK>
 VINA RESULT:      -8.7      4.205      6.440
  Name = 
  1 active torsions:
  status: ('A' for Active; 'I' for Inactive)
    1  A    between atoms: C_5  and  C_30
                            x       y       z     vdW  Elec       q    Type
                         _______ _______ _______ _____ _____    ______ ____

>  <TORSDO>
F 1

$$$$
=
 OpenBabel11112416553D

 31 35  0  0  1  0  0  0  0  0999 V2000
  185.8410  177.5410  141.1150 C   0  0  0  0  0  0  0  0  0  0  0  0
  187.5910  176.9220  144.3920 C   0  0  0  0  0  0  0  0  0  0  0  0
  186.7200  177.3680  145.4280 C   0  0  0  0  0  0  0  0  0  0  0  0
  191.8890  174.8680  142.1260 O   0  0  0  0  0  0  0  0  0  0  0  0
  192.0370  174.8670  143.3760 C   0  0  0  0  0  0  0  0  0  0  0  0
  184.6320  178.3510  146.2270 C   0  0  0  0  0  0  0  0  0  0  0  0
  187.2960  176.9820  142.9960 C   0  0  0  0  0  0  0  0  0  0  0  0
  186.7960  177.0640  140.2180 C   0  0  0  0  0  3  0  0  0  0  0  0
  185.4520  177.9260  145.1810 C   0  0  0  0  0  3  0  0  0  0  0  0
  189.7500  175.9190  143.8200 C   0  0  0  0  0  0  0  0  0  0  0  0
  184.6710  178.0450  140.6540 F   0  0  0  0  0  0  0  0  0  0  0  0
  188.3520  176.7170  147.0590 N   0  0  0  0  0  0  0  0  0  0  0  0
  183.0610  179.0410  145.8810 Cl  0  0  0  0  0  0  0  0  0  0  0  0
  189.4330  175.9940  142.5030 N   0  0  0  0  0  0  0  0  0  0  0  0
  188.8420  176.3780  144.7820 C   0  0  0  0  0  0  0  0  0  0  0  0
  191.0090  175.3740  144.2370 N   0  0  0  0  0  2  0  0  0  0  0  0
  186.0910  177.4990  142.4880 C   0  0  0  0  0  3  0  0  0  0  0  0
  185.0630  178.2250  147.5470 C   0  0  0  0  0  3  0  0  0  0  0  0
  188.2550  176.5020  142.0690 C   0  0  0  0  0  0  0  0  0  0  0  0
  188.0000  176.5450  140.6950 C   0  0  0  0  0  3  0  0  0  0  0  0
  189.1710  176.2980  146.0990 N   0  0  0  0  0  0  0  0  0  0  0  0
  187.1400  177.2480  146.7740 C   0  0  0  0  0  0  0  0  0  0  0  0
  186.3160  177.6750  147.8200 C   0  0  0  0  0  3  0  0  0  0  0  0
  194.3100  176.0210  146.1000 C   0  0  1  0  0  3  0  0  0  0  0  0
  193.1650  173.8950  145.4190 C   0  0  0  0  0  2  0  0  0  0  0  0
  194.5380  175.6340  142.5000 O   0  0  0  0  0  1  0  0  0  0  0  0
  194.1910  177.1650  146.8880 O   0  0  0  0  0  1  0  0  0  0  0  0
  193.1170  175.1050  146.3520 C   0  0  0  0  0  2  0  0  0  0  0  0
  194.4810  175.2250  143.7910 N   0  0  0  0  0  0  0  0  0  0  0  0
  193.3200  174.3290  143.9560 C   0  0  2  0  0  3  0  0  0  0  0  0
  194.3490  176.4180  144.6280 C   0  0  0  0  0  2  0  0  0  0  0  0
  1 17  1  0  0  0  0
  2 15  2  0  0  0  0
  2  3  1  0  0  0  0
  3 22  1  0  0  0  0
  4  5  2  0  0  0  0
  5 16  1  0  0  0  0
  6 18  2  0  0  0  0
  7  2  1  0  0  0  0
  8 20  1  0  0  0  0
  8  1  2  0  0  0  0
  9  3  2  0  0  0  0
  9  6  1  0  0  0  0
 10 16  1  0  0  0  0
 10 15  1  0  0  0  0
 11  1  1  0  0  0  0
 13  6  1  0  0  0  0
 14 10  2  0  0  0  0
 15 21  1  0  0  0  0
 17  7  2  0  0  0  0
 18 23  1  0  0  0  0
 19 14  1  0  0  0  0
 19  7  1  0  0  0  0
 20 19  2  0  0  0  0
 21 12  2  0  0  0  0
 22 12  1  0  0  0  0
 22 23  2  0  0  0  0
 24 28  1  0  0  0  0
 24 27  1  1  0  0  0
 25 28  1  0  0  0  0
 26 29  1  0  0  0  0
 29 30  1  0  0  0  0
 29 31  1  0  0  0  0
 30  5  1  1  0  0  0
 30 25  1  0  0  0  0
 31 24  1  0  0  0  0
M  END
>  <MODEL>
5

>  <REMARK>
 VINA RESULT:      -8.6      1.937      4.415
  Name = 
  1 active torsions:
  status: ('A' for Active; 'I' for Inactive)
    1  A    between atoms: C_5  and  C_30
                            x       y       z     vdW  Elec       q    Type
                         _______ _______ _______ _____ _____    ______ ____

>  <TORSDO>
F 1

$$$$
=
 OpenBabel11112416553D

 31 35  0  0  1  0  0  0  0  0999 V2000
  185.5360  177.9160  140.8700 C   0  0  0  0  0  0  0  0  0  0  0  0
  187.4880  176.4800  143.7530 C   0  0  0  0  0  0  0  0  0  0  0  0
  186.8330  176.8860  144.9520 C   0  0  0  0  0  0  0  0  0  0  0  0
  191.0610  174.1500  140.6490 O   0  0  0  0  0  0  0  0  0  0  0  0
  191.3420  173.9170  141.8540 C   0  0  0  0  0  0  0  0  0  0  0  0
  185.0620  178.0530  146.1620 C   0  0  0  0  0  0  0  0  0  0  0  0
  187.0590  176.8190  142.4340 C   0  0  0  0  0  0  0  0  0  0  0  0
  186.2840  177.4430  139.7920 C   0  0  0  0  0  3  0  0  0  0  0  0
  185.6710  177.6790  144.9630 C   0  0  0  0  0  3  0  0  0  0  0  0
  189.3500  175.2440  142.7530 C   0  0  0  0  0  0  0  0  0  0  0  0
  184.4370  178.6750  140.6510 F   0  0  0  0  0  0  0  0  0  0  0  0
  188.4830  175.7120  146.2340 N   0  0  0  0  0  0  0  0  0  0  0  0
  183.6170  179.0400  146.1370 Cl  0  0  0  0  0  0  0  0  0  0  0  0
  188.9110  175.5870  141.5160 N   0  0  0  0  0  0  0  0  0  0  0  0
  188.6520  175.6800  143.8870 C   0  0  0  0  0  0  0  0  0  0  0  0
  190.5240  174.4360  142.9120 N   0  0  0  0  0  2  0  0  0  0  0  0
  185.9220  177.6060  142.1760 C   0  0  0  0  0  3  0  0  0  0  0  0
  185.6030  177.6400  147.3790 C   0  0  0  0  0  3  0  0  0  0  0  0
  187.8070  176.3480  141.3260 C   0  0  0  0  0  0  0  0  0  0  0  0
  187.4170  176.6610  140.0200 C   0  0  0  0  0  3  0  0  0  0  0  0
  189.1020  175.3280  145.1210 N   0  0  0  0  0  0  0  0  0  0  0  0
  187.3680  176.4760  146.1960 C   0  0  0  0  0  0  0  0  0  0  0  0
  186.7550  176.8520  147.3960 C   0  0  0  0  0  3  0  0  0  0  0  0
  193.4570  173.5110  144.9000 C   0  0  1  0  0  3  0  0  0  0  0  0
  192.2830  172.0310  143.2490 C   0  0  0  0  0  2  0  0  0  0  0  0
  193.9260  174.8340  141.5540 O   0  0  0  0  0  1  0  0  0  0  0  0
  193.3270  174.1600  146.1260 O   0  0  0  0  0  1  0  0  0  0  0  0
  192.2160  172.6660  144.6380 C   0  0  0  0  0  2  0  0  0  0  0  0
  193.7620  173.8750  142.4980 N   0  0  0  0  0  0  0  0  0  0  0  0
  192.5590  173.0850  142.1700 C   0  0  2  0  0  3  0  0  0  0  0  0
  193.6160  174.5460  143.7900 C   0  0  0  0  0  2  0  0  0  0  0  0
  1 17  1  0  0  0  0
  2 15  2  0  0  0  0
  2  3  1  0  0  0  0
  3  9  2  0  0  0  0
  3 22  1  0  0  0  0
  4  5  2  0  0  0  0
  5 16  1  0  0  0  0
  6 18  2  0  0  0  0
  7  2  1  0  0  0  0
  8 20  1  0  0  0  0
  8  1  2  0  0  0  0
  9  6  1  0  0  0  0
 10 16  1  0  0  0  0
 10 15  1  0  0  0  0
 11  1  1  0  0  0  0
 13  6  1  0  0  0  0
 14 10  2  0  0  0  0
 15 21  1  0  0  0  0
 17  7  2  0  0  0  0
 18 23  1  0  0  0  0
 19 14  1  0  0  0  0
 19  7  1  0  0  0  0
 20 19  2  0  0  0  0
 21 12  2  0  0  0  0
 22 12  1  0  0  0  0
 22 23  2  0  0  0  0
 24 27  1  1  0  0  0
 25 28  1  0  0  0  0
 26 29  1  0  0  0  0
 28 24  1  0  0  0  0
 29 31  1  0  0  0  0
 30  5  1  1  0  0  0
 30 29  1  0  0  0  0
 30 25  1  0  0  0  0
 31 24  1  0  0  0  0
M  END
>  <MODEL>
6

>  <REMARK>
 VINA RESULT:      -8.5      2.185      4.721
  Name = 
  1 active torsions:
  status: ('A' for Active; 'I' for Inactive)
    1  A    between atoms: C_5  and  C_30
                            x       y       z     vdW  Elec       q    Type
                         _______ _______ _______ _____ _____    ______ ____

>  <TORSDO>
F 1

$$$$
=
 OpenBabel11112416553D

 31 35  0  0  1  0  0  0  0  0999 V2000
  190.7970  177.1520  147.6430 C   0  0  0  0  0  0  0  0  0  0  0  0
  188.8120  176.2130  144.5830 C   0  0  0  0  0  0  0  0  0  0  0  0
  187.5590  176.8860  144.6680 C   0  0  0  0  0  0  0  0  0  0  0  0
  192.6030  173.1080  142.6300 O   0  0  0  0  0  0  0  0  0  0  0  0
  191.6170  173.1030  141.8480 C   0  0  0  0  0  0  0  0  0  0  0  0
  185.9700  178.3710  145.7800 C   0  0  0  0  0  0  0  0  0  0  0  0
  189.8560  176.3070  145.5540 C   0  0  0  0  0  0  0  0  0  0  0  0
  191.9700  176.4310  147.4210 C   0  0  0  0  0  3  0  0  0  0  0  0
  187.2100  177.7310  145.7380 C   0  0  0  0  0  3  0  0  0  0  0  0
  190.2410  174.6970  143.2960 C   0  0  0  0  0  0  0  0  0  0  0  0
  190.6700  177.9130  148.7560 F   0  0  0  0  0  0  0  0  0  0  0  0
  186.9050  175.9010  142.5830 N   0  0  0  0  0  0  0  0  0  0  0  0
  185.5710  179.4150  147.1270 Cl  0  0  0  0  0  0  0  0  0  0  0  0
  191.2080  174.8110  144.2410 N   0  0  0  0  0  0  0  0  0  0  0  0
  189.0340  175.3910  143.4480 C   0  0  0  0  0  0  0  0  0  0  0  0
  190.4430  173.8720  142.1410 N   0  0  0  0  0  2  0  0  0  0  0  0
  189.7530  177.0880  146.7180 C   0  0  0  0  0  3  0  0  0  0  0  0
  185.0510  178.1800  144.7500 C   0  0  0  0  0  3  0  0  0  0  0  0
  191.0550  175.5810  145.3450 C   0  0  0  0  0  0  0  0  0  0  0  0
  192.0980  175.6480  146.2740 C   0  0  0  0  0  3  0  0  0  0  0  0
  188.0720  175.2680  142.4950 N   0  0  0  0  0  0  0  0  0  0  0  0
  186.6130  176.7040  143.6320 C   0  0  0  0  0  0  0  0  0  0  0  0
  185.3720  177.3470  143.6770 C   0  0  0  0  0  3  0  0  0  0  0  0
  189.4030  172.7540  138.8650 C   0  0  1  0  0  3  0  0  0  0  0  0
  191.8410  173.1240  139.3290 C   0  0  0  0  0  2  0  0  0  0  0  0
  190.4410  170.6190  141.6100 O   0  0  0  0  0  1  0  0  0  0  0  0
  188.1910  173.3960  138.6180 O   0  0  0  0  0  1  0  0  0  0  0  0
  190.5190  173.7900  138.9490 C   0  0  0  0  0  2  0  0  0  0  0  0
  190.5810  171.3030  140.4470 N   0  0  0  0  0  0  0  0  0  0  0  0
  191.6880  172.2690  140.5930 C   0  0  2  0  0  3  0  0  0  0  0  0
  189.3160  171.9880  140.1820 C   0  0  0  0  0  2  0  0  0  0  0  0
  1 11  1  0  0  0  0
  2  3  1  0  0  0  0
  2  7  1  0  0  0  0
  3  9  1  0  0  0  0
  5 16  1  0  0  0  0
  5  4  2  0  0  0  0
  6 13  1  0  0  0  0
  7 17  1  0  0  0  0
  8  1  1  0  0  0  0
  9  6  2  0  0  0  0
 10 15  1  0  0  0  0
 10 14  2  0  0  0  0
 12 22  1  0  0  0  0
 14 19  1  0  0  0  0
 15  2  2  0  0  0  0
 16 10  1  0  0  0  0
 17  1  2  0  0  0  0
 18  6  1  0  0  0  0
 19  7  2  0  0  0  0
 19 20  1  0  0  0  0
 20  8  2  0  0  0  0
 21 12  2  0  0  0  0
 21 15  1  0  0  0  0
 22 23  1  0  0  0  0
 22  3  2  0  0  0  0
 23 18  2  0  0  0  0
 24 27  1  1  0  0  0
 24 28  1  0  0  0  0
 24 31  1  0  0  0  0
 25 30  1  0  0  0  0
 28 25  1  0  0  0  0
 29 30  1  0  0  0  0
 29 26  1  0  0  0  0
 30  5  1  1  0  0  0
 31 29  1  0  0  0  0
M  END
>  <MODEL>
7

>  <REMARK>
 VINA RESULT:      -8.4      3.592      5.276
  Name = 
  1 active torsions:
  status: ('A' for Active; 'I' for Inactive)
    1  A    between atoms: C_5  and  C_30
                            x       y       z     vdW  Elec       q    Type
                         _______ _______ _______ _____ _____    ______ ____

>  <TORSDO>
F 1

$$$$
=
 OpenBabel11112416553D

 31 35  0  0  1  0  0  0  0  0999 V2000
  190.7880  176.7870  147.1720 C   0  0  0  0  0  0  0  0  0  0  0  0
  188.4010  176.4470  144.2780 C   0  0  0  0  0  0  0  0  0  0  0  0
  187.2220  177.1750  144.6140 C   0  0  0  0  0  0  0  0  0  0  0  0
  191.6900  173.4510  141.4440 O   0  0  0  0  0  0  0  0  0  0  0  0
  190.6250  173.6250  140.7970 C   0  0  0  0  0  0  0  0  0  0  0  0
  185.8910  178.5660  146.1160 C   0  0  0  0  0  0  0  0  0  0  0  0
  189.5520  176.3280  145.1150 C   0  0  0  0  0  0  0  0  0  0  0  0
  191.8680  176.0390  146.7040 C   0  0  0  0  0  3  0  0  0  0  0  0
  187.0650  177.8670  145.8290 C   0  0  0  0  0  3  0  0  0  0  0  0
  189.5510  175.0610  142.6200 C   0  0  0  0  0  0  0  0  0  0  0  0
  190.8480  177.3760  148.3900 F   0  0  0  0  0  0  0  0  0  0  0  0
  186.2600  176.5600  142.5060 N   0  0  0  0  0  0  0  0  0  0  0  0
  185.7310  179.4160  147.6380 Cl  0  0  0  0  0  0  0  0  0  0  0  0
  190.6250  174.9710  143.4430 N   0  0  0  0  0  0  0  0  0  0  0  0
  188.4270  175.7960  143.0180 C   0  0  0  0  0  0  0  0  0  0  0  0
  189.5550  174.4100  141.3420 N   0  0  0  0  0  2  0  0  0  0  0  0
  189.6440  176.9280  146.3840 C   0  0  0  0  0  3  0  0  0  0  0  0
  184.8490  178.5910  145.1910 C   0  0  0  0  0  3  0  0  0  0  0  0
  190.6600  175.5710  144.6570 C   0  0  0  0  0  0  0  0  0  0  0  0
  191.8030  175.4330  145.4500 C   0  0  0  0  0  3  0  0  0  0  0  0
  187.3560  175.8780  142.1840 N   0  0  0  0  0  0  0  0  0  0  0  0
  186.1530  177.2100  143.6870 C   0  0  0  0  0  0  0  0  0  0  0  0
  184.9790  177.9120  143.9780 C   0  0  0  0  0  3  0  0  0  0  0  0
  192.0990  170.5830  139.2200 C   0  0  1  0  0  3  0  0  0  0  0  0
  189.8260  171.6070  139.5010 C   0  0  0  0  0  2  0  0  0  0  0  0
  192.3210  174.1660  138.6900 O   0  0  0  0  0  1  0  0  0  0  0  0
  193.0100  169.6860  139.7750 O   0  0  0  0  0  1  0  0  0  0  0  0
  190.8030  170.5520  140.0220 C   0  0  0  0  0  2  0  0  0  0  0  0
  191.7420  172.9400  138.6630 N   0  0  0  0  0  0  0  0  0  0  0  0
  190.4860  172.9890  139.4370 C   0  0  2  0  0  3  0  0  0  0  0  0
  192.6870  171.9910  139.2510 C   0  0  0  0  0  2  0  0  0  0  0  0
  1 11  1  0  0  0  0
  2  3  1  0  0  0  0
  2  7  1  0  0  0  0
  3  9  1  0  0  0  0
  5 16  1  0  0  0  0
  5  4  2  0  0  0  0
  6 13  1  0  0  0  0
  7 17  1  0  0  0  0
  8  1  1  0  0  0  0
  9  6  2  0  0  0  0
 10 15  1  0  0  0  0
 10 14  2  0  0  0  0
 12 22  1  0  0  0  0
 14 19  1  0  0  0  0
 15  2  2  0  0  0  0
 16 10  1  0  0  0  0
 17  1  2  0  0  0  0
 18  6  1  0  0  0  0
 19  7  2  0  0  0  0
 19 20  1  0  0  0  0
 20  8  2  0  0  0  0
 21 12  2  0  0  0  0
 21 15  1  0  0  0  0
 22 23  1  0  0  0  0
 22  3  2  0  0  0  0
 23 18  2  0  0  0  0
 24 31  1  0  0  0  0
 24 27  1  1  0  0  0
 24 28  1  0  0  0  0
 25 28  1  0  0  0  0
 29 26  1  0  0  0  0
 29 31  1  0  0  0  0
 29 30  1  0  0  0  0
 30 25  1  0  0  0  0
 30  5  1  1  0  0  0
M  END
>  <MODEL>
8

>  <REMARK>
 VINA RESULT:      -8.2      3.851      5.619
  Name = 
  1 active torsions:
  status: ('A' for Active; 'I' for Inactive)
    1  A    between atoms: C_5  and  C_30
                            x       y       z     vdW  Elec       q    Type
                         _______ _______ _______ _____ _____    ______ ____

>  <TORSDO>
F 1

$$$$
=
 OpenBabel11112416553D

 31 35  0  0  1  0  0  0  0  0999 V2000
  188.0830  174.5380  138.9470 C   0  0  0  0  0  0  0  0  0  0  0  0
  188.3870  176.0270  142.3930 C   0  0  0  0  0  0  0  0  0  0  0  0
  187.2990  176.9320  142.5600 C   0  0  0  0  0  0  0  0  0  0  0  0
  192.7580  173.3200  143.5740 O   0  0  0  0  0  0  0  0  0  0  0  0
  192.4410  174.0470  144.5520 C   0  0  0  0  0  0  0  0  0  0  0  0
  185.2820  178.0620  141.7730 C   0  0  0  0  0  0  0  0  0  0  0  0
  188.6320  175.2550  141.2160 C   0  0  0  0  0  0  0  0  0  0  0  0
  189.1930  173.6940  138.9320 C   0  0  0  0  0  3  0  0  0  0  0  0
  186.3310  177.1660  141.5660 C   0  0  0  0  0  3  0  0  0  0  0  0
  190.3830  175.0170  143.3860 C   0  0  0  0  0  0  0  0  0  0  0  0
  187.2720  174.6110  137.8640 F   0  0  0  0  0  0  0  0  0  0  0  0
  188.0820  177.4420  144.7680 N   0  0  0  0  0  0  0  0  0  0  0  0
  184.0970  178.3270  140.5130 Cl  0  0  0  0  0  0  0  0  0  0  0  0
  190.5830  174.3000  142.2520 N   0  0  0  0  0  0  0  0  0  0  0  0
  189.2890  175.8870  143.4780 C   0  0  0  0  0  0  0  0  0  0  0  0
  191.2830  174.8910  144.4950 N   0  0  0  0  0  2  0  0  0  0  0  0
  187.8080  175.3100  140.0780 C   0  0  0  0  0  3  0  0  0  0  0  0
  185.1760  178.7450  142.9840 C   0  0  0  0  0  3  0  0  0  0  0  0
  189.7550  174.3920  141.1830 C   0  0  0  0  0  0  0  0  0  0  0  0
  190.0260  173.6210  140.0480 C   0  0  0  0  0  3  0  0  0  0  0  0
  189.1010  176.5990  144.6210 N   0  0  0  0  0  0  0  0  0  0  0  0
  187.1750  177.6350  143.7830 C   0  0  0  0  0  0  0  0  0  0  0  0
  186.1220  178.5320  143.9880 C   0  0  0  0  0  3  0  0  0  0  0  0
  194.5660  176.5980  146.2530 C   0  0  1  0  0  3  0  0  0  0  0  0
  192.7820  174.9530  146.8880 C   0  0  0  0  0  2  0  0  0  0  0  0
  195.1390  173.4710  144.5040 O   0  0  0  0  0  1  0  0  0  0  0  0
  194.8000  177.9160  145.8650 O   0  0  0  0  0  1  0  0  0  0  0  0
  193.0850  176.4160  146.5650 C   0  0  0  0  0  2  0  0  0  0  0  0
  194.7380  174.2660  145.5270 N   0  0  0  0  0  0  0  0  0  0  0  0
  193.3060  174.0230  145.7870 C   0  0  2  0  0  3  0  0  0  0  0  0
  194.9720  175.6540  145.1260 C   0  0  0  0  0  2  0  0  0  0  0  0
  1 17  1  0  0  0  0
  2  3  2  0  0  0  0
  2 15  1  0  0  0  0
  3 22  1  0  0  0  0
  4  5  2  0  0  0  0
  6 18  1  0  0  0  0
  7  2  1  0  0  0  0
  8  1  2  0  0  0  0
  8 20  1  0  0  0  0
  9  6  2  0  0  0  0
  9  3  1  0  0  0  0
 10 15  1  0  0  0  0
 10 16  1  0  0  0  0
 11  1  1  0  0  0  0
 13  6  1  0  0  0  0
 14 10  2  0  0  0  0
 15 21  2  0  0  0  0
 16  5  1  0  0  0  0
 17  7  2  0  0  0  0
 18 23  2  0  0  0  0
 19  7  1  0  0  0  0
 19 14  1  0  0  0  0
 20 19  2  0  0  0  0
 21 12  1  0  0  0  0
 22 23  1  0  0  0  0
 22 12  2  0  0  0  0
 24 27  1  6  0  0  0
 24 28  1  0  0  0  0
 26 29  1  0  0  0  0
 28 25  1  0  0  0  0
 29 30  1  0  0  0  0
 30  5  1  6  0  0  0
 30 25  1  0  0  0  0
 31 29  1  0  0  0  0
 31 24  1  0  0  0  0
M  END
>  <MODEL>
9

>  <REMARK>
 VINA RESULT:      -8.2      2.803      4.632
  Name = 
  1 active torsions:
  status: ('A' for Active; 'I' for Inactive)
    1  A    between atoms: C_5  and  C_30
                            x       y       z     vdW  Elec       q    Type
                         _______ _______ _______ _____ _____    ______ ____

>  <TORSDO>
F 1

$$$$
