=
 OpenBabel11112416233D

 30 35  0  0  1  0  0  0  0  0999 V2000
  189.8470  174.3360  144.5030 C   0  0  2  0  0  3  0  0  0  0  0  0
  191.1700  172.7100  143.0530 C   0  0  0  0  0  0  0  0  0  0  0  0
  187.8340  175.6570  141.0140 N   0  0  0  0  0  2  0  0  0  0  0  0
  188.5970  175.1770  144.5690 N   0  0  1  0  0  0  0  0  0  0  0  0
  191.0960  175.0780  145.0010 C   0  0  0  0  0  2  0  0  0  0  0  0
  188.9190  174.5930  147.4330 O   0  0  0  0  0  1  0  0  0  0  0  0
  186.8690  177.8760  145.1970 N   0  0  0  0  0  0  0  0  0  0  0  0
  189.5080  175.7280  146.8720 C   0  0  1  0  0  3  0  0  0  0  0  0
  187.2520  178.0670  143.8090 C   0  0  2  0  0  3  0  0  0  0  0  0
  187.1070  176.7320  141.5920 C   0  0  0  0  0  0  0  0  0  0  0  0
  190.9550  175.4130  146.4860 C   0  0  2  0  0  3  0  0  0  0  0  0
  188.7110  176.2000  145.6440 C   0  0  2  0  0  3  0  0  0  0  0  0
  191.4760  172.1710  141.8420 N   0  0  0  0  0  0  0  0  0  0  0  0
  186.2520  179.0830  143.2690 C   0  0  0  0  0  2  0  0  0  0  0  0
  185.7680  178.7150  145.6210 C   0  0  0  0  0  2  0  0  0  0  0  0
  191.8620  172.3140  144.1490 F   0  0  0  0  0  0  0  0  0  0  0  0
  188.2430  174.8730  142.1620 C   0  0  2  0  0  3  0  0  0  0  0  0
  190.8080  172.5200  140.7110 C   0  0  0  0  0  3  0  0  0  0  0  0
  190.1480  173.6710  143.1610 C   0  0  0  0  0  0  0  0  0  0  0  0
  188.4180  175.8750  143.2810 C   0  0  1  0  0  3  0  0  0  0  0  0
  186.4440  177.5450  140.8960 O   0  0  0  0  0  0  0  0  0  0  0  0
  187.1500  176.7140  143.0920 C   0  0  1  0  0  3  0  0  0  0  0  0
  185.5170  179.6640  144.4680 C   0  0  0  0  0  2  0  0  0  0  0  0
  186.7530  176.4220  147.0210 O   0  0  0  0  0  0  0  0  0  0  0  0
  189.7720  173.4500  140.7700 C   0  0  0  0  0  3  0  0  0  0  0  0
  189.4590  174.0440  141.9960 C   0  0  0  0  0  0  0  0  0  0  0  0
  187.3960  176.8250  146.0140 C   0  0  0  0  0  0  0  0  0  0  0  0
  191.7740  176.4990  146.7970 O   0  0  0  0  0  0  0  0  0  0  0  0
  194.1210  176.7620  146.5260 C   0  0  0  0  0  1  0  0  0  0  0  0
  192.8020  176.4540  145.8520 C   0  0  0  0  0  2  0  0  0  0  0  0
  1  4  1  0  0  0  0
  1  5  1  6  0  0  0
  2 19  1  0  0  0  0
  2 16  1  0  0  0  0
  3 10  1  0  0  0  0
  3 17  1  0  0  0  0
  4 12  1  0  0  0  0
  5 11  1  0  0  0  0
  7 15  1  0  0  0  0
  7 27  1  0  0  0  0
  8  6  1  0  0  0  0
  9  7  1  0  0  0  0
 10 22  1  0  0  0  0
 11 28  1  0  0  0  0
 11  8  1  0  0  0  0
 12 27  1  0  0  0  0
 12  8  1  0  0  0  0
 13  2  2  0  0  0  0
 14  9  1  0  0  0  0
 14 23  1  0  0  0  0
 17 20  1  0  0  0  0
 18 25  2  0  0  0  0
 18 13  1  0  0  0  0
 19  1  1  0  0  0  0
 20  4  1  0  0  0  0
 21 10  2  0  0  0  0
 22 20  1  0  0  0  0
 22  9  1  0  0  0  0
 23 15  1  0  0  0  0
 25 26  1  0  0  0  0
 26 17  1  0  0  0  0
 26 19  2  0  0  0  0
 27 24  2  0  0  0  0
 30 29  1  0  0  0  0
 30 28  1  0  0  0  0
M  END
>  <MODEL>
1

>  <REMARK>
 VINA RESULT:      -8.3      0.000      0.000
  Name = 
  2 active torsions:
  status: ('A' for Active; 'I' for Inactive)
    1  A    between atoms: C_11  and  O_28
    2  A    between atoms: O_28  and  C_30
                            x       y       z     vdW  Elec       q    Type
                         _______ _______ _______ _____ _____    ______ ____

>  <TORSDO>
F 2

$$$$
=
 OpenBabel11112416233D

 30 35  0  0  1  0  0  0  0  0999 V2000
  186.9750  176.6770  144.3010 C   0  0  2  0  0  3  0  0  0  0  0  0
  185.2420  177.9910  145.6290 C   0  0  0  0  0  0  0  0  0  0  0  0
  189.7240  177.2950  147.4690 N   0  0  0  0  0  2  0  0  0  0  0  0
  188.2660  175.9030  144.4060 N   0  0  1  0  0  0  0  0  0  0  0  0
  186.9480  177.6390  143.1040 C   0  0  0  0  0  2  0  0  0  0  0  0
  187.0540  174.4880  142.1300 O   0  0  0  0  0  1  0  0  0  0  0  0
  191.2760  175.0210  143.4970 N   0  0  0  0  0  0  0  0  0  0  0  0
  187.8760  175.5960  141.9170 C   0  0  1  0  0  3  0  0  0  0  0  0
  191.5360  176.1090  144.4240 C   0  0  2  0  0  3  0  0  0  0  0  0
  190.8770  176.7420  146.8500 C   0  0  0  0  0  0  0  0  0  0  0  0
  187.0140  176.8540  141.7940 C   0  0  2  0  0  3  0  0  0  0  0  0
  188.8900  175.7450  143.0640 C   0  0  2  0  0  3  0  0  0  0  0  0
  184.8690  178.7030  146.7270 N   0  0  0  0  0  0  0  0  0  0  0  0
  192.9810  175.9030  144.8640 C   0  0  0  0  0  2  0  0  0  0  0  0
  192.4260  174.1790  143.2460 C   0  0  0  0  0  2  0  0  0  0  0  0
  184.3670  177.8500  144.6020 F   0  0  0  0  0  0  0  0  0  0  0  0
  188.6340  176.7830  146.6640 C   0  0  2  0  0  3  0  0  0  0  0  0
  185.6990  178.8660  147.7920 C   0  0  0  0  0  3  0  0  0  0  0  0
  186.5220  177.4130  145.5610 C   0  0  0  0  0  0  0  0  0  0  0  0
  189.2030  176.6440  145.2710 C   0  0  1  0  0  3  0  0  0  0  0  0
  192.0220  176.8240  147.3680 O   0  0  0  0  0  0  0  0  0  0  0  0
  190.5500  175.9880  145.5940 C   0  0  1  0  0  3  0  0  0  0  0  0
  193.5890  174.8700  143.9280 C   0  0  0  0  0  2  0  0  0  0  0  0
  189.7140  173.5340  142.6010 O   0  0  0  0  0  0  0  0  0  0  0  0
  186.9690  178.2930  147.7820 C   0  0  0  0  0  3  0  0  0  0  0  0
  187.3890  177.5860  146.6520 C   0  0  0  0  0  0  0  0  0  0  0  0
  189.9640  174.6950  143.0260 C   0  0  0  0  0  0  0  0  0  0  0  0
  187.5180  177.6770  140.7860 O   0  0  0  0  0  0  0  0  0  0  0  0
  185.2540  177.9140  140.1050 C   0  0  0  0  0  1  0  0  0  0  0  0
  186.6520  177.4920  139.7070 C   0  0  0  0  0  2  0  0  0  0  0  0
  1  5  1  6  0  0  0
  1  4  1  0  0  0  0
  1 19  1  0  0  0  0
  2 13  1  0  0  0  0
  4 20  1  0  0  0  0
  7  9  1  0  0  0  0
  8  6  1  0  0  0  0
  8 12  1  0  0  0  0
  9 14  1  0  0  0  0
  9 22  1  0  0  0  0
 10 21  2  0  0  0  0
 10  3  1  0  0  0  0
 11  8  1  0  0  0  0
 11  5  1  0  0  0  0
 12  4  1  0  0  0  0
 13 18  2  0  0  0  0
 15  7  1  0  0  0  0
 15 23  1  0  0  0  0
 16  2  1  0  0  0  0
 17  3  1  0  0  0  0
 19  2  2  0  0  0  0
 19 26  1  0  0  0  0
 20 22  1  0  0  0  0
 20 17  1  0  0  0  0
 22 10  1  0  0  0  0
 23 14  1  0  0  0  0
 24 27  2  0  0  0  0
 25 18  1  0  0  0  0
 26 17  1  0  0  0  0
 26 25  2  0  0  0  0
 27 12  1  0  0  0  0
 27  7  1  0  0  0  0
 28 11  1  0  0  0  0
 30 29  1  0  0  0  0
 30 28  1  0  0  0  0
M  END
>  <MODEL>
2

>  <REMARK>
 VINA RESULT:      -8.1      2.646      7.008
  Name = 
  2 active torsions:
  status: ('A' for Active; 'I' for Inactive)
    1  A    between atoms: C_11  and  O_28
    2  A    between atoms: O_28  and  C_30
                            x       y       z     vdW  Elec       q    Type
                         _______ _______ _______ _____ _____    ______ ____

>  <TORSDO>
F 2

$$$$
=
 OpenBabel11112416233D

 30 35  0  0  1  0  0  0  0  0999 V2000
  189.5290  174.7810  143.8080 C   0  0  2  0  0  3  0  0  0  0  0  0
  190.5080  173.4710  141.8530 C   0  0  0  0  0  0  0  0  0  0  0  0
  186.7190  176.4840  141.1290 N   0  0  0  0  0  2  0  0  0  0  0  0
  188.3110  175.5280  144.2910 N   0  0  1  0  0  0  0  0  0  0  0  0
  190.8430  175.5140  144.1160 C   0  0  0  0  0  2  0  0  0  0  0  0
  189.3140  174.5450  146.8740 O   0  0  0  0  0  1  0  0  0  0  0  0
  186.7190  177.9950  145.7190 N   0  0  0  0  0  0  0  0  0  0  0  0
  189.7280  175.7840  146.3810 C   0  0  1  0  0  3  0  0  0  0  0  0
  186.7590  178.4130  144.3280 C   0  0  2  0  0  3  0  0  0  0  0  0
  186.1250  177.4160  142.0210 C   0  0  0  0  0  0  0  0  0  0  0  0
  191.0490  175.6160  145.6270 C   0  0  2  0  0  3  0  0  0  0  0  0
  188.6520  176.3840  145.4590 C   0  0  2  0  0  3  0  0  0  0  0  0
  190.5320  173.1360  140.5340 N   0  0  0  0  0  0  0  0  0  0  0  0
  185.6360  179.4370  144.2000 C   0  0  0  0  0  2  0  0  0  0  0  0
  185.7300  178.6960  146.5110 C   0  0  0  0  0  2  0  0  0  0  0  0
  191.4490  172.9580  142.6840 F   0  0  0  0  0  0  0  0  0  0  0  0
  187.4050  175.5640  142.0130 C   0  0  2  0  0  3  0  0  0  0  0  0
  189.6080  173.6090  139.6570 C   0  0  0  0  0  3  0  0  0  0  0  0
  189.5190  174.3420  142.3440 C   0  0  0  0  0  0  0  0  0  0  0  0
  187.8160  176.3970  143.2060 C   0  0  1  0  0  3  0  0  0  0  0  0
  185.2970  178.2820  141.6340 O   0  0  0  0  0  0  0  0  0  0  0  0
  186.5210  177.1780  143.4490 C   0  0  1  0  0  3  0  0  0  0  0  0
  185.1920  179.7890  145.6120 C   0  0  0  0  0  2  0  0  0  0  0  0
  187.0700  176.2830  147.2670 O   0  0  0  0  0  0  0  0  0  0  0  0
  188.5940  174.4570  140.1000 C   0  0  0  0  0  3  0  0  0  0  0  0
  188.5660  174.8420  141.4430 C   0  0  0  0  0  0  0  0  0  0  0  0
  187.4480  176.8680  146.2160 C   0  0  0  0  0  0  0  0  0  0  0  0
  191.8940  176.6910  145.9090 O   0  0  0  0  0  0  0  0  0  0  0  0
  194.1920  176.6480  146.5130 C   0  0  0  0  0  1  0  0  0  0  0  0
  192.7890  176.2020  146.8630 C   0  0  0  0  0  2  0  0  0  0  0  0
  1  5  1  6  0  0  0
  1  4  1  0  0  0  0
  2 19  1  0  0  0  0
  2 16  1  0  0  0  0
  3 17  1  0  0  0  0
  3 10  1  0  0  0  0
  4 12  1  0  0  0  0
  5 11  1  0  0  0  0
  7 27  1  0  0  0  0
  7 15  1  0  0  0  0
  8  6  1  0  0  0  0
  9  7  1  0  0  0  0
 10 22  1  0  0  0  0
 11 28  1  0  0  0  0
 11  8  1  0  0  0  0
 12 27  1  0  0  0  0
 12  8  1  0  0  0  0
 13  2  2  0  0  0  0
 14  9  1  0  0  0  0
 14 23  1  0  0  0  0
 17 20  1  0  0  0  0
 18 25  2  0  0  0  0
 18 13  1  0  0  0  0
 19  1  1  0  0  0  0
 20 22  1  0  0  0  0
 20  4  1  0  0  0  0
 21 10  2  0  0  0  0
 22  9  1  0  0  0  0
 23 15  1  0  0  0  0
 25 26  1  0  0  0  0
 26 17  1  0  0  0  0
 26 19  2  0  0  0  0
 27 24  2  0  0  0  0
 28 30  1  0  0  0  0
 29 30  1  0  0  0  0
M  END
>  <MODEL>
3

>  <REMARK>
 VINA RESULT:      -8.1      1.010      1.119
  Name = 
  2 active torsions:
  status: ('A' for Active; 'I' for Inactive)
    1  A    between atoms: C_11  and  O_28
    2  A    between atoms: O_28  and  C_30
                            x       y       z     vdW  Elec       q    Type
                         _______ _______ _______ _____ _____    ______ ____

>  <TORSDO>
F 2

$$$$
=
 OpenBabel11112416233D

 30 35  0  0  1  0  0  0  0  0999 V2000
  187.8670  177.3750  143.6970 C   0  0  2  0  0  3  0  0  0  0  0  0
  186.0970  178.6640  142.3920 C   0  0  0  0  0  0  0  0  0  0  0  0
  188.1920  174.7010  140.4230 N   0  0  0  0  0  2  0  0  0  0  0  0
  189.0080  176.3960  143.5710 N   0  0  1  0  0  0  0  0  0  0  0  0
  186.9260  177.0520  144.8670 C   0  0  0  0  0  2  0  0  0  0  0  0
  189.9350  177.8970  145.9240 O   0  0  0  0  0  1  0  0  0  0  0  0
  190.7740  173.7780  144.4020 N   0  0  0  0  0  0  0  0  0  0  0  0
  189.1370  176.7610  146.0790 C   0  0  1  0  0  3  0  0  0  0  0  0
  189.8370  173.2290  143.4370 C   0  0  2  0  0  3  0  0  0  0  0  0
  189.0680  173.7550  141.0180 C   0  0  0  0  0  0  0  0  0  0  0  0
  187.6710  177.1810  146.1950 C   0  0  2  0  0  3  0  0  0  0  0  0
  189.3320  175.7990  144.8950 C   0  0  2  0  0  3  0  0  0  0  0  0
  185.3220  178.8390  141.2880 N   0  0  0  0  0  0  0  0  0  0  0  0
  190.4920  171.9400  142.9550 C   0  0  0  0  0  2  0  0  0  0  0  0
  191.9290  172.9390  144.6380 C   0  0  0  0  0  2  0  0  0  0  0  0
  185.9400  179.4960  143.4510 F   0  0  0  0  0  0  0  0  0  0  0  0
  188.3230  175.8640  141.2780 C   0  0  2  0  0  3  0  0  0  0  0  0
  185.4440  178.0440  140.1920 C   0  0  0  0  0  3  0  0  0  0  0  0
  187.0460  177.6260  142.4340 C   0  0  0  0  0  0  0  0  0  0  0  0
  188.6110  175.3100  142.6550 C   0  0  1  0  0  3  0  0  0  0  0  0
  189.3570  172.6640  140.4600 O   0  0  0  0  0  0  0  0  0  0  0  0
  189.6610  174.2500  142.3050 C   0  0  1  0  0  3  0  0  0  0  0  0
  191.6490  171.6480  143.8980 C   0  0  0  0  0  2  0  0  0  0  0  0
  191.6820  175.6890  145.3910 O   0  0  0  0  0  0  0  0  0  0  0  0
  186.3860  177.0170  140.1750 C   0  0  0  0  0  3  0  0  0  0  0  0
  187.1710  176.7940  141.3090 C   0  0  0  0  0  0  0  0  0  0  0  0
  190.6650  175.1060  144.9260 C   0  0  0  0  0  0  0  0  0  0  0  0
  187.0320  176.4050  147.1630 O   0  0  0  0  0  0  0  0  0  0  0  0
  186.4350  178.5430  148.0130 C   0  0  0  0  0  1  0  0  0  0  0  0
  185.9460  177.1760  147.5810 C   0  0  0  0  0  2  0  0  0  0  0  0
  1  5  1  1  0  0  0
  2 19  1  0  0  0  0
  2 16  1  0  0  0  0
  3 10  1  0  0  0  0
  3 17  1  0  0  0  0
  4  1  1  0  0  0  0
  4 12  1  0  0  0  0
  5 11  1  0  0  0  0
  6  8  1  0  0  0  0
  7 15  1  0  0  0  0
  7 27  1  0  0  0  0
  8 11  1  0  0  0  0
  9  7  1  0  0  0  0
 10 22  1  0  0  0  0
 11 28  1  0  0  0  0
 12 27  1  0  0  0  0
 12  8  1  0  0  0  0
 13  2  2  0  0  0  0
 14  9  1  0  0  0  0
 14 23  1  0  0  0  0
 17 26  1  0  0  0  0
 17 20  1  0  0  0  0
 18 13  1  0  0  0  0
 19  1  1  0  0  0  0
 20  4  1  0  0  0  0
 21 10  2  0  0  0  0
 22 20  1  0  0  0  0
 22  9  1  0  0  0  0
 23 15  1  0  0  0  0
 25 18  2  0  0  0  0
 25 26  1  0  0  0  0
 26 19  2  0  0  0  0
 27 24  2  0  0  0  0
 28 30  1  0  0  0  0
 30 29  1  0  0  0  0
M  END
>  <MODEL>
4

>  <REMARK>
 VINA RESULT:      -7.8      2.618      5.693
  Name = 
  2 active torsions:
  status: ('A' for Active; 'I' for Inactive)
    1  A    between atoms: C_11  and  O_28
    2  A    between atoms: O_28  and  C_30
                            x       y       z     vdW  Elec       q    Type
                         _______ _______ _______ _____ _____    ______ ____

>  <TORSDO>
F 2

$$$$
=
 OpenBabel11112416233D

 30 35  0  0  1  0  0  0  0  0999 V2000
  189.6240  176.1580  143.4930 C   0  0  2  0  0  3  0  0  0  0  0  0
  191.9340  175.3340  144.1870 C   0  0  0  0  0  0  0  0  0  0  0  0
  189.0830  177.6460  147.4260 N   0  0  0  0  0  2  0  0  0  0  0  0
  188.5110  177.1140  143.8420 N   0  0  1  0  0  0  0  0  0  0  0  0
  189.1170  174.7570  143.1220 C   0  0  0  0  0  2  0  0  0  0  0  0
  188.1520  177.0220  140.9250 O   0  0  0  0  0  1  0  0  0  0  0  0
  185.4050  178.0040  144.3110 N   0  0  0  0  0  0  0  0  0  0  0  0
  187.4730  176.1220  141.7500 C   0  0  1  0  0  3  0  0  0  0  0  0
  185.8050  177.5580  145.6350 C   0  0  2  0  0  3  0  0  0  0  0  0
  187.7240  178.0430  147.3080 C   0  0  0  0  0  0  0  0  0  0  0  0
  188.2730  174.8210  141.8490 C   0  0  2  0  0  3  0  0  0  0  0  0
  187.2540  176.7290  143.1460 C   0  0  2  0  0  3  0  0  0  0  0  0
  192.9130  175.1750  145.1190 N   0  0  0  0  0  0  0  0  0  0  0  0
  184.8060  178.2140  146.5810 C   0  0  0  0  0  2  0  0  0  0  0  0
  184.2110  178.8240  144.3070 C   0  0  0  0  0  2  0  0  0  0  0  0
  192.1030  174.8040  142.9510 F   0  0  0  0  0  0  0  0  0  0  0  0
  189.5090  177.5000  146.0490 C   0  0  2  0  0  3  0  0  0  0  0  0
  192.8050  175.6960  146.3700 C   0  0  0  0  0  3  0  0  0  0  0  0
  190.7590  176.0380  144.5080 C   0  0  0  0  0  0  0  0  0  0  0  0
  188.2720  177.0640  145.2980 C   0  0  1  0  0  3  0  0  0  0  0  0
  187.0510  178.4330  148.2980 O   0  0  0  0  0  0  0  0  0  0  0  0
  187.2420  178.0330  145.8870 C   0  0  1  0  0  3  0  0  0  0  0  0
  183.6800  178.7720  145.7240 C   0  0  0  0  0  2  0  0  0  0  0  0
  186.0670  178.5640  142.1440 O   0  0  0  0  0  0  0  0  0  0  0  0
  191.6700  176.4220  146.7290 C   0  0  0  0  0  3  0  0  0  0  0  0
  190.6360  176.5710  145.8020 C   0  0  0  0  0  0  0  0  0  0  0  0
  186.2160  177.8150  143.1470 C   0  0  0  0  0  0  0  0  0  0  0  0
  187.4040  173.7290  141.8120 O   0  0  0  0  0  0  0  0  0  0  0  0
  188.3180  172.8360  139.8080 C   0  0  0  0  0  1  0  0  0  0  0  0
  188.1720  172.6780  141.3070 C   0  0  0  0  0  2  0  0  0  0  0  0
  1  5  1  1  0  0  0
  1  4  1  0  0  0  0
  1 19  1  0  0  0  0
  2 19  2  0  0  0  0
  2 13  1  0  0  0  0
  4 20  1  0  0  0  0
  6  8  1  0  0  0  0
  7  9  1  0  0  0  0
  8 11  1  0  0  0  0
  8 12  1  0  0  0  0
  9 22  1  0  0  0  0
  9 14  1  0  0  0  0
 10  3  1  0  0  0  0
 10 21  2  0  0  0  0
 11  5  1  0  0  0  0
 12 27  1  0  0  0  0
 12  4  1  0  0  0  0
 13 18  2  0  0  0  0
 15  7  1  0  0  0  0
 15 23  1  0  0  0  0
 16  2  1  0  0  0  0
 17  3  1  0  0  0  0
 18 25  1  0  0  0  0
 19 26  1  0  0  0  0
 20 22  1  0  0  0  0
 20 17  1  0  0  0  0
 22 10  1  0  0  0  0
 23 14  1  0  0  0  0
 24 27  2  0  0  0  0
 26 17  1  0  0  0  0
 26 25  2  0  0  0  0
 27  7  1  0  0  0  0
 28 11  1  0  0  0  0
 29 30  1  0  0  0  0
 30 28  1  0  0  0  0
M  END
>  <MODEL>
5

>  <REMARK>
 VINA RESULT:      -7.7      2.237      4.985
  Name = 
  2 active torsions:
  status: ('A' for Active; 'I' for Inactive)
    1  A    between atoms: C_11  and  O_28
    2  A    between atoms: O_28  and  C_30
                            x       y       z     vdW  Elec       q    Type
                         _______ _______ _______ _____ _____    ______ ____

>  <TORSDO>
F 2

$$$$
=
 OpenBabel11112416233D

 30 35  0  0  1  0  0  0  0  0999 V2000
  188.3030  175.6800  143.9430 C   0  0  2  0  0  3  0  0  0  0  0  0
  186.9390  176.8250  145.7670 C   0  0  0  0  0  0  0  0  0  0  0  0
  191.8310  176.9280  145.9370 N   0  0  0  0  0  2  0  0  0  0  0  0
  189.6590  175.1120  143.6050 N   0  0  1  0  0  0  0  0  0  0  0  0
  187.7120  176.5360  142.8120 C   0  0  0  0  0  2  0  0  0  0  0  0
  187.9890  173.3690  141.9260 O   0  0  0  0  0  1  0  0  0  0  0  0
  192.2780  174.6120  141.7200 N   0  0  0  0  0  0  0  0  0  0  0  0
  188.4980  174.5660  141.4160 C   0  0  1  0  0  3  0  0  0  0  0  0
  192.6590  175.7920  142.4760 C   0  0  2  0  0  3  0  0  0  0  0  0
  192.7750  176.5040  144.9650 C   0  0  0  0  0  0  0  0  0  0  0  0
  187.4530  175.6720  141.5780 C   0  0  2  0  0  3  0  0  0  0  0  0
  189.8040  174.9470  142.1330 C   0  0  2  0  0  3  0  0  0  0  0  0
  186.8540  177.5550  146.9110 N   0  0  0  0  0  0  0  0  0  0  0  0
  194.1800  175.8330  142.3870 C   0  0  0  0  0  2  0  0  0  0  0  0
  193.3940  173.9300  141.0990 C   0  0  0  0  0  2  0  0  0  0  0  0
  185.8020  176.4820  145.1130 F   0  0  0  0  0  0  0  0  0  0  0  0
  190.6290  176.2040  145.5750 C   0  0  2  0  0  3  0  0  0  0  0  0
  187.9600  177.9170  147.6150 C   0  0  0  0  0  3  0  0  0  0  0  0
  188.1950  176.4360  145.2660 C   0  0  0  0  0  0  0  0  0  0  0  0
  190.7030  176.0450  144.0730 C   0  0  1  0  0  3  0  0  0  0  0  0
  193.9990  176.7900  145.0490 O   0  0  0  0  0  0  0  0  0  0  0  0
  192.1660  175.6180  143.9180 C   0  0  1  0  0  3  0  0  0  0  0  0
  194.5910  174.8310  141.3180 C   0  0  0  0  0  2  0  0  0  0  0  0
  190.7680  172.8510  141.4560 O   0  0  0  0  0  0  0  0  0  0  0  0
  189.2260  177.5360  147.1730 C   0  0  0  0  0  3  0  0  0  0  0  0
  189.3420  176.8140  145.9820 C   0  0  0  0  0  0  0  0  0  0  0  0
  190.9550  174.0640  141.7440 C   0  0  0  0  0  0  0  0  0  0  0  0
  187.4420  176.4810  140.4410 O   0  0  0  0  0  0  0  0  0  0  0  0
  185.5710  177.9160  140.1380 C   0  0  0  0  0  1  0  0  0  0  0  0
  186.8790  177.6870  140.8650 C   0  0  0  0  0  2  0  0  0  0  0  0
  1  5  1  6  0  0  0
  1 19  1  0  0  0  0
  2 13  1  0  0  0  0
  4  1  1  0  0  0  0
  4 20  1  0  0  0  0
  7 27  1  0  0  0  0
  7  9  1  0  0  0  0
  8 11  1  0  0  0  0
  8  6  1  0  0  0  0
  8 12  1  0  0  0  0
  9 22  1  0  0  0  0
 10 21  2  0  0  0  0
 10  3  1  0  0  0  0
 11  5  1  0  0  0  0
 12  4  1  0  0  0  0
 13 18  2  0  0  0  0
 14  9  1  0  0  0  0
 15 23  1  0  0  0  0
 15  7  1  0  0  0  0
 16  2  1  0  0  0  0
 17  3  1  0  0  0  0
 17 26  1  0  0  0  0
 19  2  2  0  0  0  0
 19 26  1  0  0  0  0
 20 17  1  0  0  0  0
 22 20  1  0  0  0  0
 22 10  1  0  0  0  0
 23 14  1  0  0  0  0
 24 27  2  0  0  0  0
 25 18  1  0  0  0  0
 26 25  2  0  0  0  0
 27 12  1  0  0  0  0
 28 30  1  0  0  0  0
 28 11  1  0  0  0  0
 29 30  1  0  0  0  0
M  END
>  <MODEL>
6

>  <REMARK>
 VINA RESULT:      -7.0      2.803      6.887
  Name = 
  2 active torsions:
  status: ('A' for Active; 'I' for Inactive)
    1  A    between atoms: C_11  and  O_28
    2  A    between atoms: O_28  and  C_30
                            x       y       z     vdW  Elec       q    Type
                         _______ _______ _______ _____ _____    ______ ____

>  <TORSDO>
F 2

$$$$
=
 OpenBabel11112416233D

 30 35  0  0  1  0  0  0  0  0999 V2000
  188.6360  174.7850  143.4500 C   0  0  2  0  0  3  0  0  0  0  0  0
  186.7450  176.4920  143.5390 C   0  0  0  0  0  0  0  0  0  0  0  0
  190.6310  176.9870  146.4740 N   0  0  0  0  0  2  0  0  0  0  0  0
  189.8100  174.2210  144.2100 N   0  0  1  0  0  0  0  0  0  0  0  0
  188.9500  175.0480  141.9700 C   0  0  0  0  0  2  0  0  0  0  0  0
  189.0490  171.8280  142.6820 O   0  0  0  0  0  1  0  0  0  0  0  0
  192.8770  173.1570  144.5660 N   0  0  0  0  0  0  0  0  0  0  0  0
  189.9760  172.7330  142.1610 C   0  0  1  0  0  3  0  0  0  0  0  0
  192.9970  174.5690  144.8900 C   0  0  2  0  0  3  0  0  0  0  0  0
  191.8510  176.2610  146.4840 C   0  0  0  0  0  0  0  0  0  0  0  0
  189.2560  173.7330  141.2530 C   0  0  2  0  0  3  0  0  0  0  0  0
  190.7100  173.4660  143.2970 C   0  0  2  0  0  3  0  0  0  0  0  0
  186.1840  177.6260  144.0400 N   0  0  0  0  0  0  0  0  0  0  0  0
  194.2860  174.6710  145.6980 C   0  0  0  0  0  2  0  0  0  0  0  0
  193.9910  172.3560  145.0260 C   0  0  0  0  0  2  0  0  0  0  0  0
  186.1180  175.8310  142.5340 F   0  0  0  0  0  0  0  0  0  0  0  0
  189.7180  176.0990  145.7850 C   0  0  2  0  0  3  0  0  0  0  0  0
  186.7600  178.3220  145.0550 C   0  0  0  0  0  3  0  0  0  0  0  0
  187.9630  176.0150  144.0570 C   0  0  0  0  0  0  0  0  0  0  0  0
  190.5770  175.3330  144.8050 C   0  0  1  0  0  3  0  0  0  0  0  0
  192.8510  176.6380  147.1500 O   0  0  0  0  0  0  0  0  0  0  0  0
  191.7650  174.9800  145.7070 C   0  0  1  0  0  3  0  0  0  0  0  0
  195.0150  173.3450  145.5430 C   0  0  0  0  0  2  0  0  0  0  0  0
  191.4570  171.3490  144.1580 O   0  0  0  0  0  0  0  0  0  0  0  0
  187.9550  177.8780  145.6180 C   0  0  0  0  0  3  0  0  0  0  0  0
  188.5690  176.7340  145.0990 C   0  0  0  0  0  0  0  0  0  0  0  0
  191.6860  172.5820  144.0180 C   0  0  0  0  0  0  0  0  0  0  0  0
  190.0340  173.9900  140.1230 O   0  0  0  0  0  0  0  0  0  0  0  0
  188.3870  172.8020  138.8880 C   0  0  0  0  0  1  0  0  0  0  0  0
  189.8430  172.8810  139.2970 C   0  0  0  0  0  2  0  0  0  0  0  0
  1  5  1  6  0  0  0
  1 19  1  0  0  0  0
  1  4  1  0  0  0  0
  2 13  2  0  0  0  0
  2 19  1  0  0  0  0
  3 10  1  0  0  0  0
  4 20  1  0  0  0  0
  7  9  1  0  0  0  0
  7 15  1  0  0  0  0
  8  6  1  0  0  0  0
  8 12  1  0  0  0  0
  9 14  1  0  0  0  0
  9 22  1  0  0  0  0
 10 21  2  0  0  0  0
 11  5  1  0  0  0  0
 11  8  1  0  0  0  0
 12 27  1  0  0  0  0
 12  4  1  0  0  0  0
 13 18  1  0  0  0  0
 15 23  1  0  0  0  0
 16  2  1  0  0  0  0
 17  3  1  0  0  0  0
 18 25  2  0  0  0  0
 19 26  2  0  0  0  0
 20 22  1  0  0  0  0
 20 17  1  0  0  0  0
 22 10  1  0  0  0  0
 23 14  1  0  0  0  0
 26 25  1  0  0  0  0
 26 17  1  0  0  0  0
 27 24  2  0  0  0  0
 27  7  1  0  0  0  0
 28 11  1  0  0  0  0
 29 30  1  0  0  0  0
 30 28  1  0  0  0  0
M  END
>  <MODEL>
7

>  <REMARK>
 VINA RESULT:      -7.0      2.686      6.827
  Name = 
  2 active torsions:
  status: ('A' for Active; 'I' for Inactive)
    1  A    between atoms: C_11  and  O_28
    2  A    between atoms: O_28  and  C_30
                            x       y       z     vdW  Elec       q    Type
                         _______ _______ _______ _____ _____    ______ ____

>  <TORSDO>
F 2

$$$$
=
 OpenBabel11112416233D

 30 35  0  0  1  0  0  0  0  0999 V2000
  191.4940  173.8190  145.3240 C   0  0  2  0  0  3  0  0  0  0  0  0
  193.0440  171.9480  144.5540 C   0  0  0  0  0  0  0  0  0  0  0  0
  189.6730  173.7510  141.4960 N   0  0  0  0  0  2  0  0  0  0  0  0
  190.1840  174.5140  145.0460 N   0  0  1  0  0  0  0  0  0  0  0  0
  192.6410  174.7980  145.6150 C   0  0  0  0  0  2  0  0  0  0  0  0
  190.3190  174.9140  147.9560 O   0  0  0  0  0  1  0  0  0  0  0  0
  188.2160  177.0920  144.6680 N   0  0  0  0  0  0  0  0  0  0  0  0
  190.8660  175.8600  147.0860 C   0  0  1  0  0  3  0  0  0  0  0  0
  188.6940  176.8630  143.3150 C   0  0  2  0  0  3  0  0  0  0  0  0
  188.8250  174.8790  141.6530 C   0  0  0  0  0  0  0  0  0  0  0  0
  192.3580  175.5770  146.8990 C   0  0  2  0  0  3  0  0  0  0  0  0
  190.1360  175.8330  145.7320 C   0  0  2  0  0  3  0  0  0  0  0  0
  193.4850  171.0810  143.6030 N   0  0  0  0  0  0  0  0  0  0  0  0
  187.6680  177.5520  142.4230 C   0  0  0  0  0  2  0  0  0  0  0  0
  187.0270  177.9140  144.7370 C   0  0  0  0  0  2  0  0  0  0  0  0
  193.6740  171.9940  145.7530 F   0  0  0  0  0  0  0  0  0  0  0  0
  190.0450  173.4200  142.8560 C   0  0  2  0  0  3  0  0  0  0  0  0
  192.8850  170.9820  142.3870 C   0  0  0  0  0  3  0  0  0  0  0  0
  191.9480  172.7910  144.2900 C   0  0  0  0  0  0  0  0  0  0  0  0
  190.0560  174.7400  143.5930 C   0  0  1  0  0  3  0  0  0  0  0  0
  188.1600  175.3580  140.6960 O   0  0  0  0  0  0  0  0  0  0  0  0
  188.7490  175.3490  143.0760 C   0  0  1  0  0  3  0  0  0  0  0  0
  186.7980  178.4140  143.3260 C   0  0  0  0  0  2  0  0  0  0  0  0
  188.0630  176.2980  146.8590 O   0  0  0  0  0  0  0  0  0  0  0  0
  191.7810  171.7790  142.0860 C   0  0  0  0  0  3  0  0  0  0  0  0
  191.3290  172.7020  143.0330 C   0  0  0  0  0  0  0  0  0  0  0  0
  188.7540  176.4150  145.8100 C   0  0  0  0  0  0  0  0  0  0  0  0
  193.0680  176.7780  146.8790 O   0  0  0  0  0  0  0  0  0  0  0  0
  194.9340  177.7380  145.7630 C   0  0  0  0  0  1  0  0  0  0  0  0
  193.7950  176.7440  145.6870 C   0  0  0  0  0  2  0  0  0  0  0  0
  1  5  1  6  0  0  0
  2 16  1  0  0  0  0
  3 10  1  0  0  0  0
  3 17  1  0  0  0  0
  4  1  1  0  0  0  0
  4 12  1  0  0  0  0
  5 11  1  0  0  0  0
  7 15  1  0  0  0  0
  7 27  1  0  0  0  0
  8  6  1  0  0  0  0
  9  7  1  0  0  0  0
 10 22  1  0  0  0  0
 11  8  1  0  0  0  0
 12 27  1  0  0  0  0
 12  8  1  0  0  0  0
 13  2  2  0  0  0  0
 14  9  1  0  0  0  0
 14 23  1  0  0  0  0
 17 26  1  0  0  0  0
 17 20  1  0  0  0  0
 18 13  1  0  0  0  0
 19  2  1  0  0  0  0
 19  1  1  0  0  0  0
 20  4  1  0  0  0  0
 21 10  2  0  0  0  0
 22  9  1  0  0  0  0
 22 20  1  0  0  0  0
 23 15  1  0  0  0  0
 25 18  2  0  0  0  0
 25 26  1  0  0  0  0
 26 19  2  0  0  0  0
 27 24  2  0  0  0  0
 28 11  1  0  0  0  0
 30 29  1  0  0  0  0
 30 28  1  0  0  0  0
M  END
>  <MODEL>
8

>  <REMARK>
 VINA RESULT:      -7.0      1.578      2.100
  Name = 
  2 active torsions:
  status: ('A' for Active; 'I' for Inactive)
    1  A    between atoms: C_11  and  O_28
    2  A    between atoms: O_28  and  C_30
                            x       y       z     vdW  Elec       q    Type
                         _______ _______ _______ _____ _____    ______ ____

>  <TORSDO>
F 2

$$$$
=
 OpenBabel11112416233D

 30 35  0  0  1  0  0  0  0  0999 V2000
  193.2390  173.8020  145.4250 C   0  0  2  0  0  3  0  0  0  0  0  0
  194.5320  171.6060  145.3750 C   0  0  0  0  0  0  0  0  0  0  0  0
  190.2220  171.9640  143.0820 N   0  0  0  0  0  2  0  0  0  0  0  0
  191.8770  174.4240  145.2400 N   0  0  1  0  0  0  0  0  0  0  0  0
  194.3610  174.6040  144.7470 C   0  0  0  0  0  2  0  0  0  0  0  0
  192.9810  176.2940  147.2220 O   0  0  0  0  0  1  0  0  0  0  0  0
  189.7610  176.6560  144.1450 N   0  0  0  0  0  0  0  0  0  0  0  0
  193.1430  176.5350  145.8560 C   0  0  1  0  0  3  0  0  0  0  0  0
  189.7570  175.6710  143.0760 C   0  0  2  0  0  3  0  0  0  0  0  0
  189.4180  173.1120  142.8470 C   0  0  0  0  0  0  0  0  0  0  0  0
  194.4930  175.9800  145.3980 C   0  0  2  0  0  3  0  0  0  0  0  0
  191.9950  175.8960  145.0560 C   0  0  2  0  0  3  0  0  0  0  0  0
  194.6670  170.3110  144.9820 N   0  0  0  0  0  0  0  0  0  0  0  0
  188.4500  175.9160  142.3300 C   0  0  0  0  0  2  0  0  0  0  0  0
  188.6230  177.5510  144.1190 C   0  0  0  0  0  2  0  0  0  0  0  0
  195.5320  172.1930  146.0770 F   0  0  0  0  0  0  0  0  0  0  0  0
  191.0560  172.3620  144.1970 C   0  0  2  0  0  3  0  0  0  0  0  0
  193.6920  169.6660  144.2870 C   0  0  0  0  0  3  0  0  0  0  0  0
  193.3680  172.3260  145.0520 C   0  0  0  0  0  0  0  0  0  0  0  0
  191.2470  173.8530  144.0340 C   0  0  1  0  0  3  0  0  0  0  0  0
  188.4400  173.0950  142.0540 O   0  0  0  0  0  0  0  0  0  0  0  0
  189.8090  174.2750  143.7100 C   0  0  1  0  0  3  0  0  0  0  0  0
  187.8970  177.2450  142.8250 C   0  0  0  0  0  2  0  0  0  0  0  0
  190.4130  177.1890  146.3220 O   0  0  0  0  0  0  0  0  0  0  0  0
  192.5100  170.3300  143.9620 C   0  0  0  0  0  3  0  0  0  0  0  0
  192.3600  171.6710  144.3260 C   0  0  0  0  0  0  0  0  0  0  0  0
  190.6930  176.6240  145.2300 C   0  0  0  0  0  0  0  0  0  0  0  0
  195.0850  176.8650  144.4950 O   0  0  0  0  0  0  0  0  0  0  0  0
  197.0300  176.7830  143.1310 C   0  0  0  0  0  1  0  0  0  0  0  0
  195.7950  176.0510  143.6100 C   0  0  0  0  0  2  0  0  0  0  0  0
  1  5  1  6  0  0  0
  2 16  1  0  0  0  0
  3 17  1  0  0  0  0
  4  1  1  0  0  0  0
  5 11  1  0  0  0  0
  7 27  1  0  0  0  0
  8  6  1  0  0  0  0
  9 22  1  0  0  0  0
  9  7  1  0  0  0  0
 10  3  1  0  0  0  0
 10 22  1  0  0  0  0
 11  8  1  0  0  0  0
 12 27  1  0  0  0  0
 12  4  1  0  0  0  0
 12  8  1  0  0  0  0
 13  2  2  0  0  0  0
 14 23  1  0  0  0  0
 14  9  1  0  0  0  0
 15  7  1  0  0  0  0
 17 26  1  0  0  0  0
 18 13  1  0  0  0  0
 19  2  1  0  0  0  0
 19  1  1  0  0  0  0
 20 17  1  0  0  0  0
 20  4  1  0  0  0  0
 21 10  2  0  0  0  0
 22 20  1  0  0  0  0
 23 15  1  0  0  0  0
 25 18  2  0  0  0  0
 25 26  1  0  0  0  0
 26 19  2  0  0  0  0
 27 24  2  0  0  0  0
 28 11  1  0  0  0  0
 29 30  1  0  0  0  0
 30 28  1  0  0  0  0
M  END
>  <MODEL>
9

>  <REMARK>
 VINA RESULT:      -6.9      2.733      4.084
  Name = 
  2 active torsions:
  status: ('A' for Active; 'I' for Inactive)
    1  A    between atoms: C_11  and  O_28
    2  A    between atoms: O_28  and  C_30
                            x       y       z     vdW  Elec       q    Type
                         _______ _______ _______ _____ _____    ______ ____

>  <TORSDO>
F 2

$$$$
