=
 OpenBabel11112418013D

 34 41  0  0  1  0  0  0  0  0999 V2000
  189.0940  175.5770  142.7400 C   0  0  0  0  0  0  0  0  0  0  0  0
  191.3230  174.3360  142.4480 C   0  0  0  0  0  3  0  0  0  0  0  0
  184.5290  178.7900  146.2820 C   0  0  0  0  0  0  0  0  0  0  0  0
  187.1200  176.9380  143.1680 C   0  0  0  0  0  0  0  0  0  0  0  0
  186.6220  177.8780  145.3990 C   0  0  0  0  0  0  0  0  0  0  0  0
  185.9500  178.5760  147.6910 C   0  0  0  0  0  2  0  0  0  0  0  0
  184.5350  178.5290  147.7020 O   0  0  0  0  0  0  0  0  0  0  0  0
  184.0760  179.0610  143.9340 C   0  0  0  0  0  3  0  0  0  0  0  0
  190.7320  175.1860  144.5670 C   0  0  0  0  0  0  0  0  0  0  0  0
  192.4570  175.0700  147.1580 C   0  0  0  0  0  3  0  0  0  0  0  0
  187.6460  176.9550  146.0200 C   0  0  0  0  0  3  0  0  0  0  0  0
  185.2320  178.6140  143.4200 C   0  0  0  0  0  3  0  0  0  0  0  0
  189.8350  175.8750  145.5290 C   0  0  1  0  0  3  0  0  0  0  0  0
  192.4490  174.0920  143.4480 C   0  0  0  0  0  3  0  0  0  0  0  0
  186.3110  177.8030  144.0740 C   0  0  0  0  0  0  0  0  0  0  0  0
  183.6310  178.8800  145.3210 C   0  0  0  0  0  3  0  0  0  0  0  0
  192.8190  174.6710  145.9340 C   0  0  0  0  0  0  0  0  0  0  0  0
  188.2850  176.2980  143.6330 C   0  0  0  0  0  0  0  0  0  0  0  0
  186.0020  178.9230  146.2980 C   0  0  2  0  0  3  0  0  0  0  0  0
  188.6660  176.3930  145.0640 C   0  0  0  0  0  0  0  0  0  0  0  0
  187.5560  176.0560  140.9370 C   0  0  0  0  0  3  0  0  0  0  0  0
  191.1950  175.6210  147.6490 C   0  0  0  0  0  3  0  0  0  0  0  0
  186.7650  176.8000  141.8150 C   0  0  0  0  0  3  0  0  0  0  0  0
  190.1060  175.9600  146.9740 C   0  0  0  0  0  3  0  0  0  0  0  0
  191.9510  174.6810  144.7390 C   0  0  0  0  0  0  0  0  0  0  0  0
  188.7250  175.4510  141.3960 C   0  0  0  0  0  3  0  0  0  0  0  0
  190.3050  175.0040  143.2300 N   0  0  0  0  0  0  0  0  0  0  0  0
  194.1190  174.1750  145.7430 O   0  0  0  0  0  0  0  0  0  0  0  0
  195.2980  174.9770  145.7930 C   0  0  0  0  0  2  0  0  0  0  0  0
  196.8140  172.1170  146.2130 O   0  0  0  0  0  0  0  0  0  0  0  0
  195.9890  173.1600  144.2640 C   0  0  0  0  0  2  0  0  0  0  0  0
  196.4800  174.2300  145.1960 C   0  0  2  0  0  3  0  0  0  0  0  0
  196.5360  171.8850  144.8590 C   0  0  0  0  0  2  0  0  0  0  0  0
  197.1960  173.4640  146.2840 C   0  0  0  0  0  2  0  0  0  0  0  0
  1 27  1  0  0  0  0
  1 18  1  0  0  0  0
  2 27  1  0  0  0  0
  2 14  2  0  0  0  0
  3 19  1  0  0  0  0
  3  7  1  0  0  0  0
  4 18  2  0  0  0  0
  4 15  1  0  0  0  0
  5 11  1  0  0  0  0
  5 19  1  0  0  0  0
  6  7  1  0  0  0  0
  8 16  1  0  0  0  0
  9 25  2  0  0  0  0
  9 13  1  0  0  0  0
 10 22  1  0  0  0  0
 12  8  2  0  0  0  0
 12 15  1  0  0  0  0
 13 24  1  1  0  0  0
 14 25  1  0  0  0  0
 15  5  2  0  0  0  0
 16  3  2  0  0  0  0
 17 10  2  0  0  0  0
 18 20  1  0  0  0  0
 19  6  1  1  0  0  0
 20 13  1  0  0  0  0
 20 11  2  0  0  0  0
 21 26  1  0  0  0  0
 21 23  2  0  0  0  0
 23  4  1  0  0  0  0
 24 22  2  0  0  0  0
 25 17  1  0  0  0  0
 26  1  2  0  0  0  0
 27  9  1  0  0  0  0
 28 29  1  0  0  0  0
 28 17  1  0  0  0  0
 30 34  1  0  0  0  0
 31 33  1  0  0  0  0
 31 32  1  0  0  0  0
 32 29  1  1  0  0  0
 32 34  1  0  0  0  0
 33 30  1  0  0  0  0
M  END
>  <MODEL>
1

>  <REMARK>
 VINA RESULT:      -9.6      0.000      0.000
  Name = 
  3 active torsions:
  status: ('A' for Active; 'I' for Inactive)
    1  A    between atoms: C_17  and  O_28
    2  A    between atoms: O_28  and  C_29
    3  A    between atoms: C_29  and  C_32
                            x       y       z     vdW  Elec       q    Type
                         _______ _______ _______ _____ _____    ______ ____

>  <TORSDO>
F 3

$$$$
=
 OpenBabel11112418013D

 34 41  0  0  1  0  0  0  0  0999 V2000
  189.0630  175.5430  142.6080 C   0  0  0  0  0  0  0  0  0  0  0  0
  191.2610  174.2840  142.1860 C   0  0  0  0  0  3  0  0  0  0  0  0
  184.7080  178.7320  146.4270 C   0  0  0  0  0  0  0  0  0  0  0  0
  187.1270  176.9170  143.1570 C   0  0  0  0  0  0  0  0  0  0  0  0
  186.7460  177.8160  145.4270 C   0  0  0  0  0  0  0  0  0  0  0  0
  186.1920  178.4740  147.7620 C   0  0  0  0  0  2  0  0  0  0  0  0
  184.7780  178.4410  147.8390 O   0  0  0  0  0  0  0  0  0  0  0  0
  184.1480  179.0560  144.1090 C   0  0  0  0  0  3  0  0  0  0  0  0
  190.7800  175.0970  144.3480 C   0  0  0  0  0  0  0  0  0  0  0  0
  192.6250  174.9090  146.8510 C   0  0  0  0  0  3  0  0  0  0  0  0
  187.7880  176.8690  145.9810 C   0  0  0  0  0  3  0  0  0  0  0  0
  185.2730  178.6070  143.5310 C   0  0  0  0  0  3  0  0  0  0  0  0
  189.9380  175.7750  145.3650 C   0  0  1  0  0  3  0  0  0  0  0  0
  192.4290  174.0080  143.1270 C   0  0  0  0  0  3  0  0  0  0  0  0
  186.3720  177.7720  144.1170 C   0  0  0  0  0  0  0  0  0  0  0  0
  183.7660  178.8510  145.5120 C   0  0  0  0  0  3  0  0  0  0  0  0
  192.9230  174.5320  145.6030 C   0  0  0  0  0  0  0  0  0  0  0  0
  188.3050  176.2540  143.5530 C   0  0  0  0  0  0  0  0  0  0  0  0
  186.1820  178.8480  146.3750 C   0  0  2  0  0  3  0  0  0  0  0  0
  188.7550  176.3160  144.9660 C   0  0  0  0  0  0  0  0  0  0  0  0
  187.4470  176.0750  140.8910 C   0  0  0  0  0  3  0  0  0  0  0  0
  191.3940  175.4640  147.4120 C   0  0  0  0  0  3  0  0  0  0  0  0
  186.7070  176.8100  141.8190 C   0  0  0  0  0  3  0  0  0  0  0  0
  190.2780  175.8280  146.7960 C   0  0  0  0  0  3  0  0  0  0  0  0
  192.0000  174.5750  144.4520 C   0  0  0  0  0  0  0  0  0  0  0  0
  188.6300  175.4490  141.2810 C   0  0  0  0  0  3  0  0  0  0  0  0
  190.2890  174.9470  143.0290 N   0  0  0  0  0  0  0  0  0  0  0  0
  194.2070  174.0260  145.3410 O   0  0  0  0  0  0  0  0  0  0  0  0
  195.3790  174.8330  145.2290 C   0  0  0  0  0  2  0  0  0  0  0  0
  196.8590  176.9850  143.2710 O   0  0  0  0  0  0  0  0  0  0  0  0
  197.3270  174.7150  143.7080 C   0  0  0  0  0  2  0  0  0  0  0  0
  195.8400  174.9090  143.7820 C   0  0  2  0  0  3  0  0  0  0  0  0
  197.8260  175.9900  143.0750 C   0  0  0  0  0  2  0  0  0  0  0  0
  195.6300  176.3100  143.2570 C   0  0  0  0  0  2  0  0  0  0  0  0
  1 27  1  0  0  0  0
  1 18  1  0  0  0  0
  2 27  1  0  0  0  0
  2 14  2  0  0  0  0
  3  7  1  0  0  0  0
  4 18  2  0  0  0  0
  4 15  1  0  0  0  0
  5 11  1  0  0  0  0
  5 19  1  0  0  0  0
  6  7  1  0  0  0  0
  8 16  1  0  0  0  0
  9 25  2  0  0  0  0
  9 13  1  0  0  0  0
 10 22  1  0  0  0  0
 12  8  2  0  0  0  0
 12 15  1  0  0  0  0
 13 24  1  1  0  0  0
 14 25  1  0  0  0  0
 15  5  2  0  0  0  0
 16  3  2  0  0  0  0
 17 10  2  0  0  0  0
 18 20  1  0  0  0  0
 19  3  1  0  0  0  0
 19  6  1  1  0  0  0
 20 13  1  0  0  0  0
 20 11  2  0  0  0  0
 21 26  1  0  0  0  0
 21 23  2  0  0  0  0
 23  4  1  0  0  0  0
 24 22  2  0  0  0  0
 25 17  1  0  0  0  0
 26  1  2  0  0  0  0
 27  9  1  0  0  0  0
 28 17  1  0  0  0  0
 29 28  1  0  0  0  0
 31 32  1  0  0  0  0
 32 29  1  1  0  0  0
 33 30  1  0  0  0  0
 33 31  1  0  0  0  0
 34 30  1  0  0  0  0
 34 32  1  0  0  0  0
M  END
>  <MODEL>
2

>  <REMARK>
 VINA RESULT:      -9.6      1.179      1.564
  Name = 
  3 active torsions:
  status: ('A' for Active; 'I' for Inactive)
    1  A    between atoms: C_17  and  O_28
    2  A    between atoms: O_28  and  C_29
    3  A    between atoms: C_29  and  C_32
                            x       y       z     vdW  Elec       q    Type
                         _______ _______ _______ _____ _____    ______ ____

>  <TORSDO>
F 3

$$$$
=
 OpenBabel11112418013D

 34 41  0  0  1  0  0  0  0  0999 V2000
  192.4710  175.9850  145.2090 C   0  0  0  0  0  0  0  0  0  0  0  0
  190.6630  177.7020  144.5910 C   0  0  0  0  0  3  0  0  0  0  0  0
  195.0440  169.8970  145.3640 C   0  0  0  0  0  0  0  0  0  0  0  0
  194.1570  174.2580  145.5390 C   0  0  0  0  0  0  0  0  0  0  0  0
  193.8460  171.9390  144.7430 C   0  0  0  0  0  0  0  0  0  0  0  0
  193.4260  169.5430  144.2210 C   0  0  0  0  0  2  0  0  0  0  0  0
  194.1020  168.8110  145.2280 O   0  0  0  0  0  0  0  0  0  0  0  0
  196.7170  171.5040  146.0060 C   0  0  0  0  0  3  0  0  0  0  0  0
  190.3980  175.4480  143.9480 C   0  0  0  0  0  0  0  0  0  0  0  0
  188.0580  174.2640  142.2670 C   0  0  0  0  0  3  0  0  0  0  0  0
  192.3710  172.2040  144.5370 C   0  0  0  0  0  3  0  0  0  0  0  0
  196.1070  172.6390  145.6300 C   0  0  0  0  0  3  0  0  0  0  0  0
  190.8000  174.0200  143.8790 C   0  0  1  0  0  3  0  0  0  0  0  0
  189.3930  177.5340  143.7630 C   0  0  0  0  0  3  0  0  0  0  0  0
  194.6640  172.8760  145.3010 C   0  0  0  0  0  0  0  0  0  0  0  0
  196.0740  170.1900  146.1330 C   0  0  0  0  0  3  0  0  0  0  0  0
  188.2630  175.5520  142.5620 C   0  0  0  0  0  0  0  0  0  0  0  0
  192.8870  174.6500  145.0740 C   0  0  0  0  0  0  0  0  0  0  0  0
  194.3820  170.6140  144.2530 C   0  0  2  0  0  3  0  0  0  0  0  0
  191.9900  173.6580  144.4310 C   0  0  0  0  0  0  0  0  0  0  0  0
  194.5380  176.5300  146.3370 C   0  0  0  0  0  3  0  0  0  0  0  0
  188.8040  173.0650  142.6500 C   0  0  0  0  0  3  0  0  0  0  0  0
  194.9690  175.2120  146.1760 C   0  0  0  0  0  3  0  0  0  0  0  0
  189.9450  172.9620  143.3160 C   0  0  0  0  0  3  0  0  0  0  0  0
  189.3490  176.0710  143.4170 C   0  0  0  0  0  0  0  0  0  0  0  0
  193.2930  176.9210  145.8460 C   0  0  0  0  0  3  0  0  0  0  0  0
  191.2090  176.3630  144.6610 N   0  0  0  0  0  0  0  0  0  0  0  0
  187.3740  176.5100  142.0490 O   0  0  0  0  0  0  0  0  0  0  0  0
  186.0460  176.7120  142.5310 C   0  0  0  0  0  2  0  0  0  0  0  0
  183.7290  178.7080  143.6730 O   0  0  0  0  0  0  0  0  0  0  0  0
  186.0730  178.9550  143.5720 C   0  0  0  0  0  2  0  0  0  0  0  0
  185.6340  178.1670  142.3730 C   0  0  2  0  0  3  0  0  0  0  0  0
  184.7850  179.5070  144.1330 C   0  0  0  0  0  2  0  0  0  0  0  0
  184.1270  178.2710  142.4010 C   0  0  0  0  0  2  0  0  0  0  0  0
  1 26  1  0  0  0  0
  2 27  1  0  0  0  0
  3 16  2  0  0  0  0
  4 23  2  0  0  0  0
  5 15  2  0  0  0  0
  6  7  1  0  0  0  0
  7  3  1  0  0  0  0
  8 16  1  0  0  0  0
  9 27  1  0  0  0  0
 10 17  2  0  0  0  0
 10 22  1  0  0  0  0
 11  5  1  0  0  0  0
 12  8  2  0  0  0  0
 13 24  1  1  0  0  0
 13  9  1  0  0  0  0
 13 20  1  0  0  0  0
 14  2  2  0  0  0  0
 15  4  1  0  0  0  0
 15 12  1  0  0  0  0
 17 25  1  0  0  0  0
 18  1  2  0  0  0  0
 18  4  1  0  0  0  0
 19  6  1  1  0  0  0
 19  5  1  0  0  0  0
 19  3  1  0  0  0  0
 20 11  2  0  0  0  0
 20 18  1  0  0  0  0
 22 24  2  0  0  0  0
 23 21  1  0  0  0  0
 25 14  1  0  0  0  0
 25  9  2  0  0  0  0
 26 21  2  0  0  0  0
 27  1  1  0  0  0  0
 28 29  1  0  0  0  0
 28 17  1  0  0  0  0
 30 33  1  0  0  0  0
 31 33  1  0  0  0  0
 32 34  1  0  0  0  0
 32 29  1  1  0  0  0
 32 31  1  0  0  0  0
 34 30  1  0  0  0  0
M  END
>  <MODEL>
3

>  <REMARK>
 VINA RESULT:      -8.7      2.311      9.569
  Name = 
  3 active torsions:
  status: ('A' for Active; 'I' for Inactive)
    1  A    between atoms: C_17  and  O_28
    2  A    between atoms: O_28  and  C_29
    3  A    between atoms: C_29  and  C_32
                            x       y       z     vdW  Elec       q    Type
                         _______ _______ _______ _____ _____    ______ ____

>  <TORSDO>
F 3

$$$$
=
 OpenBabel11112418013D

 34 41  0  0  1  0  0  0  0  0999 V2000
  192.0390  176.4180  145.7820 C   0  0  0  0  0  0  0  0  0  0  0  0
  189.7850  176.7990  146.9530 C   0  0  0  0  0  3  0  0  0  0  0  0
  195.8210  174.9090  140.5740 C   0  0  0  0  0  0  0  0  0  0  0  0
  194.0740  176.2030  144.4610 C   0  0  0  0  0  0  0  0  0  0  0  0
  194.0310  175.7080  142.0400 C   0  0  0  0  0  0  0  0  0  0  0  0
  194.0170  174.9160  139.6820 C   0  0  0  0  0  2  0  0  0  0  0  0
  195.1850  174.1280  139.5390 O   0  0  0  0  0  0  0  0  0  0  0  0
  197.1820  175.8460  142.3230 C   0  0  0  0  0  3  0  0  0  0  0  0
  189.8270  176.2330  144.6640 C   0  0  0  0  0  0  0  0  0  0  0  0
  187.3660  175.9820  142.7720 C   0  0  0  0  0  3  0  0  0  0  0  0
  192.5760  175.3070  142.1440 C   0  0  0  0  0  3  0  0  0  0  0  0
  196.2250  176.3410  143.1240 C   0  0  0  0  0  3  0  0  0  0  0  0
  190.4930  175.8690  143.3880 C   0  0  0  0  0  0  0  0  0  0  0  0
  188.3700  176.7970  146.3830 C   0  0  0  0  0  3  0  0  0  0  0  0
  194.7560  176.0390  143.1460 C   0  0  0  0  0  0  0  0  0  0  0  0
  196.9690  174.9000  141.2210 C   0  0  0  0  0  3  0  0  0  0  0  0
  187.3610  176.3870  144.0460 C   0  0  0  0  0  0  0  0  0  0  0  0
  192.6700  176.1520  144.5560 C   0  0  0  0  0  0  0  0  0  0  0  0
  194.6270  175.7790  140.6540 C   0  0  2  0  0  3  0  0  0  0  0  0
  191.8540  175.8280  143.3590 C   0  0  0  0  0  0  0  0  0  0  0  0
  194.1910  176.7080  146.8440 C   0  0  0  0  0  3  0  0  0  0  0  0
  188.4610  175.5180  141.9210 C   0  0  0  0  0  3  0  0  0  0  0  0
  194.8220  176.4760  145.6200 C   0  0  0  0  0  3  0  0  0  0  0  0
  189.7620  175.4750  142.1730 C   0  0  0  0  0  3  0  0  0  0  0  0
  188.5400  176.4320  144.9340 C   0  0  1  0  0  3  0  0  0  0  0  0
  192.7990  176.6880  146.9250 C   0  0  0  0  0  3  0  0  0  0  0  0
  190.6120  176.4300  145.8250 N   0  0  0  0  0  0  0  0  0  0  0  0
  186.1440  176.7870  144.6210 O   0  0  0  0  0  0  0  0  0  0  0  0
  185.2010  177.6490  143.9850 C   0  0  0  0  0  2  0  0  0  0  0  0
  184.9710  178.1020  147.2100 O   0  0  0  0  0  0  0  0  0  0  0  0
  185.9350  179.4410  145.5240 C   0  0  0  0  0  2  0  0  0  0  0  0
  184.7420  178.7400  144.9400 C   0  0  2  0  0  3  0  0  0  0  0  0
  185.7910  179.2200  147.0090 C   0  0  0  0  0  2  0  0  0  0  0  0
  184.0670  178.1130  146.1370 C   0  0  0  0  0  2  0  0  0  0  0  0
  1 27  1  0  0  0  0
  1 26  1  0  0  0  0
  3 19  1  0  0  0  0
  3 16  2  0  0  0  0
  4 18  1  0  0  0  0
  4 23  2  0  0  0  0
  5 11  1  0  0  0  0
  5 15  2  0  0  0  0
  7  6  1  0  0  0  0
  7  3  1  0  0  0  0
  8 12  2  0  0  0  0
  9 25  1  0  0  0  0
  9 27  1  0  0  0  0
 10 17  2  0  0  0  0
 11 20  2  0  0  0  0
 12 15  1  0  0  0  0
 13  9  2  0  0  0  0
 14  2  2  0  0  0  0
 15  4  1  0  0  0  0
 16  8  1  0  0  0  0
 17 28  1  0  0  0  0
 17 25  1  0  0  0  0
 18  1  2  0  0  0  0
 19  6  1  6  0  0  0
 19  5  1  0  0  0  0
 20 13  1  0  0  0  0
 20 18  1  0  0  0  0
 21 26  2  0  0  0  0
 22 24  2  0  0  0  0
 22 10  1  0  0  0  0
 23 21  1  0  0  0  0
 24 13  1  0  0  0  0
 25 14  1  6  0  0  0
 27  2  1  0  0  0  0
 29 28  1  0  0  0  0
 31 33  1  0  0  0  0
 32 29  1  6  0  0  0
 32 31  1  0  0  0  0
 32 34  1  0  0  0  0
 33 30  1  0  0  0  0
 34 30  1  0  0  0  0
M  END
>  <MODEL>
4

>  <REMARK>
 VINA RESULT:      -8.7      2.429      9.268
  Name = 
  3 active torsions:
  status: ('A' for Active; 'I' for Inactive)
    1  A    between atoms: C_17  and  O_28
    2  A    between atoms: O_28  and  C_29
    3  A    between atoms: C_29  and  C_32
                            x       y       z     vdW  Elec       q    Type
                         _______ _______ _______ _____ _____    ______ ____

>  <TORSDO>
F 3

$$$$
=
 OpenBabel11112418013D

 34 41  0  0  1  0  0  0  0  0999 V2000
  190.0470  174.6420  144.4550 C   0  0  0  0  0  0  0  0  0  0  0  0
  191.4260  173.0650  142.9690 C   0  0  0  0  0  3  0  0  0  0  0  0
  185.2340  179.0400  145.5490 C   0  0  0  0  0  0  0  0  0  0  0  0
  188.5150  176.0340  145.7390 C   0  0  0  0  0  0  0  0  0  0  0  0
  186.5960  177.1930  144.6990 C   0  0  0  0  0  0  0  0  0  0  0  0
  184.8480  178.6000  143.6240 C   0  0  0  0  0  2  0  0  0  0  0  0
  184.7880  179.7860  144.3960 O   0  0  0  0  0  0  0  0  0  0  0  0
  186.0820  178.2240  147.6480 C   0  0  0  0  0  3  0  0  0  0  0  0
  189.6330  174.2770  142.0320 C   0  0  0  0  0  0  0  0  0  0  0  0
  188.6200  174.1110  139.0910 C   0  0  0  0  0  3  0  0  0  0  0  0
  187.1800  176.9360  143.3270 C   0  0  0  0  0  3  0  0  0  0  0  0
  186.7980  177.1720  147.2180 C   0  0  0  0  0  3  0  0  0  0  0  0
  188.5100  175.2480  142.0700 C   0  0  1  0  0  3  0  0  0  0  0  0
  191.2410  172.6870  141.5030 C   0  0  0  0  0  3  0  0  0  0  0  0
  187.2710  176.8500  145.8320 C   0  0  0  0  0  0  0  0  0  0  0  0
  185.5510  179.3000  146.8020 C   0  0  0  0  0  3  0  0  0  0  0  0
  189.5760  173.3660  139.6540 C   0  0  0  0  0  0  0  0  0  0  0  0
  188.9350  175.4980  144.5060 C   0  0  0  0  0  0  0  0  0  0  0  0
  185.2110  177.7930  144.7550 C   0  0  2  0  0  3  0  0  0  0  0  0
  188.1970  175.8270  143.2610 C   0  0  0  0  0  0  0  0  0  0  0  0
  190.3800  174.9080  146.8340 C   0  0  0  0  0  3  0  0  0  0  0  0
  187.8170  175.2060  139.6350 C   0  0  0  0  0  3  0  0  0  0  0  0
  189.2560  175.7340  146.8950 C   0  0  0  0  0  3  0  0  0  0  0  0
  187.7660  175.6770  140.8740 C   0  0  0  0  0  3  0  0  0  0  0  0
  190.0770  173.5160  141.0350 C   0  0  0  0  0  0  0  0  0  0  0  0
  190.7720  174.3540  145.6160 C   0  0  0  0  0  3  0  0  0  0  0  0
  190.3990  174.0580  143.2010 N   0  0  0  0  0  0  0  0  0  0  0  0
  190.1900  172.3640  138.8850 O   0  0  0  0  0  0  0  0  0  0  0  0
  190.2200  172.3540  137.4580 C   0  0  0  0  0  2  0  0  0  0  0  0
  191.4800  169.4720  136.5830 O   0  0  0  0  0  0  0  0  0  0  0  0
  189.6910  170.0050  138.0260 C   0  0  0  0  0  2  0  0  0  0  0  0
  189.7200  171.0220  136.9210 C   0  0  2  0  0  3  0  0  0  0  0  0
  190.6190  168.9190  137.5410 C   0  0  0  0  0  2  0  0  0  0  0  0
  190.7240  170.4630  135.9400 C   0  0  0  0  0  2  0  0  0  0  0  0
  1 18  2  0  0  0  0
  1 26  1  0  0  0  0
  2 27  1  0  0  0  0
  3 16  2  0  0  0  0
  4 15  1  0  0  0  0
  4 23  2  0  0  0  0
  5 19  1  0  0  0  0
  5 15  2  0  0  0  0
  6  7  1  0  0  0  0
  7  3  1  0  0  0  0
  9 13  1  0  0  0  0
  9 27  1  0  0  0  0
 10 22  1  0  0  0  0
 10 17  2  0  0  0  0
 11  5  1  0  0  0  0
 12  8  2  0  0  0  0
 13 24  1  6  0  0  0
 13 20  1  0  0  0  0
 14  2  2  0  0  0  0
 15 12  1  0  0  0  0
 16  8  1  0  0  0  0
 17 25  1  0  0  0  0
 18  4  1  0  0  0  0
 19  6  1  6  0  0  0
 19  3  1  0  0  0  0
 20 11  2  0  0  0  0
 20 18  1  0  0  0  0
 21 23  1  0  0  0  0
 22 24  2  0  0  0  0
 25 14  1  0  0  0  0
 25  9  2  0  0  0  0
 26 21  2  0  0  0  0
 27  1  1  0  0  0  0
 28 17  1  0  0  0  0
 29 28  1  0  0  0  0
 30 33  1  0  0  0  0
 32 29  1  1  0  0  0
 32 31  1  0  0  0  0
 33 31  1  0  0  0  0
 34 30  1  0  0  0  0
 34 32  1  0  0  0  0
M  END
>  <MODEL>
5

>  <REMARK>
 VINA RESULT:      -8.7      3.667      6.134
  Name = 
  3 active torsions:
  status: ('A' for Active; 'I' for Inactive)
    1  A    between atoms: C_17  and  O_28
    2  A    between atoms: O_28  and  C_29
    3  A    between atoms: C_29  and  C_32
                            x       y       z     vdW  Elec       q    Type
                         _______ _______ _______ _____ _____    ______ ____

>  <TORSDO>
F 3

$$$$
=
 OpenBabel11112418013D

 34 41  0  0  1  0  0  0  0  0999 V2000
  189.7870  174.6370  142.2000 C   0  0  0  0  0  0  0  0  0  0  0  0
  192.0450  173.4380  142.4400 C   0  0  0  0  0  3  0  0  0  0  0  0
  184.8620  178.4740  144.3790 C   0  0  0  0  0  0  0  0  0  0  0  0
  187.7670  175.9940  142.0860 C   0  0  0  0  0  0  0  0  0  0  0  0
  187.0410  177.4420  143.9530 C   0  0  0  0  0  0  0  0  0  0  0  0
  186.1380  178.6650  145.9230 C   0  0  0  0  0  2  0  0  0  0  0  0
  184.7290  178.5740  145.8130 O   0  0  0  0  0  0  0  0  0  0  0  0
  184.6430  178.1370  142.0060 C   0  0  0  0  0  3  0  0  0  0  0  0
  191.2380  174.7680  144.2140 C   0  0  0  0  0  0  0  0  0  0  0  0
  192.6980  175.3580  146.9010 C   0  0  0  0  0  3  0  0  0  0  0  0
  188.0070  176.7380  144.8800 C   0  0  0  0  0  3  0  0  0  0  0  0
  185.8490  177.6150  141.7310 C   0  0  0  0  0  3  0  0  0  0  0  0
  190.2440  175.6430  144.8830 C   0  0  1  0  0  3  0  0  0  0  0  0
  193.0670  173.4890  143.5710 C   0  0  0  0  0  3  0  0  0  0  0  0
  186.8640  177.0300  142.6660 C   0  0  0  0  0  0  0  0  0  0  0  0
  184.0630  178.2910  143.3460 C   0  0  0  0  0  3  0  0  0  0  0  0
  193.1830  174.6800  145.8550 C   0  0  0  0  0  0  0  0  0  0  0  0
  188.8860  175.5300  142.8050 C   0  0  0  0  0  0  0  0  0  0  0  0
  186.3260  178.6560  144.4990 C   0  0  2  0  0  3  0  0  0  0  0  0
  189.1220  175.9900  144.1950 C   0  0  0  0  0  0  0  0  0  0  0  0
  188.4310  174.6000  140.1990 C   0  0  0  0  0  3  0  0  0  0  0  0
  191.3880  175.9710  147.1180 C   0  0  0  0  0  3  0  0  0  0  0  0
  187.5500  175.5120  140.7840 C   0  0  0  0  0  3  0  0  0  0  0  0
  190.3690  176.0940  146.2790 C   0  0  0  0  0  3  0  0  0  0  0  0
  192.4380  174.3630  144.6210 C   0  0  0  0  0  0  0  0  0  0  0  0
  189.5550  174.1680  140.9030 C   0  0  0  0  0  3  0  0  0  0  0  0
  190.9480  174.2450  142.9310 N   0  0  0  0  0  0  0  0  0  0  0  0
  194.5000  174.1960  145.9180 O   0  0  0  0  0  0  0  0  0  0  0  0
  195.6620  175.0100  145.7590 C   0  0  0  0  0  2  0  0  0  0  0  0
  196.3370  171.8530  145.2790 O   0  0  0  0  0  0  0  0  0  0  0  0
  196.7710  173.7490  143.9430 C   0  0  0  0  0  2  0  0  0  0  0  0
  196.8650  174.1590  145.3840 C   0  0  2  0  0  3  0  0  0  0  0  0
  196.7560  172.2410  143.9990 C   0  0  0  0  0  2  0  0  0  0  0  0
  196.8140  172.8520  146.1400 C   0  0  0  0  0  2  0  0  0  0  0  0
  1 18  1  0  0  0  0
  1 27  1  0  0  0  0
  2 27  1  0  0  0  0
  2 14  2  0  0  0  0
  3 19  1  0  0  0  0
  3  7  1  0  0  0  0
  4 15  2  0  0  0  0
  4 18  1  0  0  0  0
  5 19  1  0  0  0  0
  5 11  2  0  0  0  0
  7  6  1  0  0  0  0
  8 16  1  0  0  0  0
  9 25  2  0  0  0  0
  9 13  1  0  0  0  0
 10 22  1  0  0  0  0
 12  8  2  0  0  0  0
 12 15  1  0  0  0  0
 13 24  1  1  0  0  0
 14 25  1  0  0  0  0
 15  5  1  0  0  0  0
 16  3  2  0  0  0  0
 17 28  1  0  0  0  0
 17 10  2  0  0  0  0
 18 20  2  0  0  0  0
 19  6  1  1  0  0  0
 20 11  1  0  0  0  0
 20 13  1  0  0  0  0
 21 23  2  0  0  0  0
 21 26  1  0  0  0  0
 23  4  1  0  0  0  0
 24 22  2  0  0  0  0
 25 17  1  0  0  0  0
 26  1  2  0  0  0  0
 27  9  1  0  0  0  0
 29 28  1  0  0  0  0
 30 34  1  0  0  0  0
 31 33  1  0  0  0  0
 31 32  1  0  0  0  0
 32 29  1  1  0  0  0
 32 34  1  0  0  0  0
 33 30  1  0  0  0  0
M  END
>  <MODEL>
6

>  <REMARK>
 VINA RESULT:      -8.5      0.981      1.338
  Name = 
  3 active torsions:
  status: ('A' for Active; 'I' for Inactive)
    1  A    between atoms: C_17  and  O_28
    2  A    between atoms: O_28  and  C_29
    3  A    between atoms: C_29  and  C_32
                            x       y       z     vdW  Elec       q    Type
                         _______ _______ _______ _____ _____    ______ ____

>  <TORSDO>
F 3

$$$$
=
 OpenBabel11112418013D

 34 41  0  0  1  0  0  0  0  0999 V2000
  189.2960  177.2770  146.3600 C   0  0  0  0  0  0  0  0  0  0  0  0
  191.4680  176.6600  147.5840 C   0  0  0  0  0  3  0  0  0  0  0  0
  185.5140  177.9110  140.9740 C   0  0  0  0  0  0  0  0  0  0  0  0
  187.2660  177.6250  145.0590 C   0  0  0  0  0  0  0  0  0  0  0  0
  187.1600  177.1770  142.6310 C   0  0  0  0  0  0  0  0  0  0  0  0
  187.1190  177.0220  140.1480 C   0  0  0  0  0  2  0  0  0  0  0  0
  186.2180  178.0280  139.7200 O   0  0  0  0  0  0  0  0  0  0  0  0
  184.1600  178.1390  142.9510 C   0  0  0  0  0  3  0  0  0  0  0  0
  191.3170  176.3480  145.2510 C   0  0  0  0  0  0  0  0  0  0  0  0
  193.5010  175.1220  143.4000 C   0  0  0  0  0  3  0  0  0  0  0  0
  188.6700  177.1140  142.5730 C   0  0  0  0  0  3  0  0  0  0  0  0
  185.0220  177.6940  143.8780 C   0  0  0  0  0  3  0  0  0  0  0  0
  190.6360  176.4170  143.9330 C   0  0  0  0  0  0  0  0  0  0  0  0
  192.7450  176.0160  147.0530 C   0  0  0  0  0  3  0  0  0  0  0  0
  186.5070  177.5090  143.7810 C   0  0  0  0  0  0  0  0  0  0  0  0
  184.5020  178.5090  141.5720 C   0  0  0  0  0  3  0  0  0  0  0  0
  193.5420  175.2220  144.7320 C   0  0  0  0  0  0  0  0  0  0  0  0
  188.6260  177.2670  145.1250 C   0  0  0  0  0  0  0  0  0  0  0  0
  186.4070  176.8020  141.3760 C   0  0  2  0  0  3  0  0  0  0  0  0
  189.3520  176.8670  143.8930 C   0  0  0  0  0  0  0  0  0  0  0  0
  187.2940  178.0730  147.4560 C   0  0  0  0  0  3  0  0  0  0  0  0
  192.4920  175.5650  142.4380 C   0  0  0  0  0  3  0  0  0  0  0  0
  186.6150  178.0340  146.2360 C   0  0  0  0  0  3  0  0  0  0  0  0
  191.2990  176.1000  142.6580 C   0  0  0  0  0  3  0  0  0  0  0  0
  192.5150  175.8690  145.5740 C   0  0  1  0  0  3  0  0  0  0  0  0
  188.6320  177.6870  147.5210 C   0  0  0  0  0  3  0  0  0  0  0  0
  190.6530  176.8370  146.4010 N   0  0  0  0  0  0  0  0  0  0  0  0
  194.6520  174.6970  145.4140 O   0  0  0  0  0  0  0  0  0  0  0  0
  195.9220  174.4550  144.8100 C   0  0  0  0  0  2  0  0  0  0  0  0
  197.2220  171.6780  145.9320 O   0  0  0  0  0  0  0  0  0  0  0  0
  195.0560  172.1600  145.1300 C   0  0  0  0  0  2  0  0  0  0  0  0
  196.0370  173.0040  144.3680 C   0  0  2  0  0  3  0  0  0  0  0  0
  195.9260  171.1530  145.8420 C   0  0  0  0  0  2  0  0  0  0  0  0
  197.3840  172.4560  144.7760 C   0  0  0  0  0  2  0  0  0  0  0  0
  1 27  1  0  0  0  0
  1 26  1  0  0  0  0
  3 19  1  0  0  0  0
  3 16  2  0  0  0  0
  4 18  1  0  0  0  0
  4 23  2  0  0  0  0
  5 15  2  0  0  0  0
  7  6  1  0  0  0  0
  7  3  1  0  0  0  0
  8 12  2  0  0  0  0
  9 25  1  0  0  0  0
  9 27  1  0  0  0  0
 10 17  2  0  0  0  0
 11  5  1  0  0  0  0
 11 20  2  0  0  0  0
 13  9  2  0  0  0  0
 14  2  2  0  0  0  0
 15 12  1  0  0  0  0
 15  4  1  0  0  0  0
 16  8  1  0  0  0  0
 17 28  1  0  0  0  0
 17 25  1  0  0  0  0
 18  1  2  0  0  0  0
 19  6  1  6  0  0  0
 19  5  1  0  0  0  0
 20 13  1  0  0  0  0
 20 18  1  0  0  0  0
 21 26  2  0  0  0  0
 22 24  2  0  0  0  0
 22 10  1  0  0  0  0
 23 21  1  0  0  0  0
 24 13  1  0  0  0  0
 25 14  1  1  0  0  0
 27  2  1  0  0  0  0
 29 28  1  0  0  0  0
 31 33  1  0  0  0  0
 32 34  1  0  0  0  0
 32 29  1  1  0  0  0
 32 31  1  0  0  0  0
 33 30  1  0  0  0  0
 34 30  1  0  0  0  0
M  END
>  <MODEL>
7

>  <REMARK>
 VINA RESULT:      -8.2      2.005      3.877
  Name = 
  3 active torsions:
  status: ('A' for Active; 'I' for Inactive)
    1  A    between atoms: C_17  and  O_28
    2  A    between atoms: O_28  and  C_29
    3  A    between atoms: C_29  and  C_32
                            x       y       z     vdW  Elec       q    Type
                         _______ _______ _______ _____ _____    ______ ____

>  <TORSDO>
F 3

$$$$
=
 OpenBabel11112418013D

 34 41  0  0  1  0  0  0  0  0999 V2000
  190.6980  174.8600  145.1730 C   0  0  0  0  0  0  0  0  0  0  0  0
  192.3180  173.1710  144.1150 C   0  0  0  0  0  3  0  0  0  0  0  0
  185.3280  178.7160  145.1600 C   0  0  0  0  0  0  0  0  0  0  0  0
  188.9570  176.3030  146.0790 C   0  0  0  0  0  0  0  0  0  0  0  0
  186.9440  176.9160  144.7830 C   0  0  0  0  0  0  0  0  0  0  0  0
  185.0690  177.7830  143.3950 C   0  0  0  0  0  2  0  0  0  0  0  0
  184.8320  179.1000  143.8600 O   0  0  0  0  0  0  0  0  0  0  0  0
  186.1990  178.5420  147.3970 C   0  0  0  0  0  3  0  0  0  0  0  0
  190.4200  173.8780  142.9070 C   0  0  0  0  0  0  0  0  0  0  0  0
  189.5400  172.8840  140.0890 C   0  0  0  0  0  3  0  0  0  0  0  0
  187.6030  176.4200  143.5160 C   0  0  0  0  0  3  0  0  0  0  0  0
  187.0570  177.5230  147.2350 C   0  0  0  0  0  3  0  0  0  0  0  0
  189.1810  174.6720  142.7060 C   0  0  1  0  0  3  0  0  0  0  0  0
  192.2350  172.4340  142.7820 C   0  0  0  0  0  3  0  0  0  0  0  0
  187.6160  176.9450  145.9690 C   0  0  0  0  0  0  0  0  0  0  0  0
  185.5650  179.3060  146.3150 C   0  0  0  0  0  3  0  0  0  0  0  0
  190.5640  172.4270  140.8190 C   0  0  0  0  0  0  0  0  0  0  0  0
  189.4850  175.5490  145.0130 C   0  0  0  0  0  0  0  0  0  0  0  0
  185.4920  177.3230  144.6890 C   0  0  2  0  0  3  0  0  0  0  0  0
  188.7550  175.4710  143.7230 C   0  0  0  0  0  0  0  0  0  0  0  0
  190.9100  175.7270  147.4200 C   0  0  0  0  0  3  0  0  0  0  0  0
  188.5850  173.9600  140.3510 C   0  0  0  0  0  3  0  0  0  0  0  0
  189.6890  176.3870  147.2760 C   0  0  0  0  0  3  0  0  0  0  0  0
  188.4320  174.7020  141.4400 C   0  0  0  0  0  3  0  0  0  0  0  0
  190.9920  172.9670  142.1250 C   0  0  0  0  0  0  0  0  0  0  0  0
  191.4120  174.9550  146.3720 C   0  0  0  0  0  3  0  0  0  0  0  0
  191.1650  174.0460  144.0980 N   0  0  0  0  0  0  0  0  0  0  0  0
  191.3270  171.3610  140.3150 O   0  0  0  0  0  0  0  0  0  0  0  0
  190.7860  170.2660  139.5770 C   0  0  0  0  0  2  0  0  0  0  0  0
  193.1650  169.1690  141.5250 O   0  0  0  0  0  0  0  0  0  0  0  0
  190.8250  168.8850  141.6290 C   0  0  0  0  0  2  0  0  0  0  0  0
  191.2260  168.9430  140.1830 C   0  0  2  0  0  3  0  0  0  0  0  0
  192.1350  168.7150  142.3600 C   0  0  0  0  0  2  0  0  0  0  0  0
  192.7350  168.8800  140.2210 C   0  0  0  0  0  2  0  0  0  0  0  0
  1 26  1  0  0  0  0
  3 16  2  0  0  0  0
  4 23  2  0  0  0  0
  5 15  2  0  0  0  0
  6  7  1  0  0  0  0
  7  3  1  0  0  0  0
  9 27  1  0  0  0  0
 10 22  1  0  0  0  0
 10 17  2  0  0  0  0
 11 20  2  0  0  0  0
 11  5  1  0  0  0  0
 12  8  2  0  0  0  0
 13 24  1  6  0  0  0
 13  9  1  0  0  0  0
 13 20  1  0  0  0  0
 14  2  2  0  0  0  0
 15  4  1  0  0  0  0
 15 12  1  0  0  0  0
 16  8  1  0  0  0  0
 17 25  1  0  0  0  0
 18  1  2  0  0  0  0
 18  4  1  0  0  0  0
 19  6  1  6  0  0  0
 19  5  1  0  0  0  0
 19  3  1  0  0  0  0
 20 18  1  0  0  0  0
 22 24  2  0  0  0  0
 23 21  1  0  0  0  0
 25 14  1  0  0  0  0
 25  9  2  0  0  0  0
 26 21  2  0  0  0  0
 27  2  1  0  0  0  0
 27  1  1  0  0  0  0
 28 17  1  0  0  0  0
 29 28  1  0  0  0  0
 30 33  1  0  0  0  0
 31 33  1  0  0  0  0
 32 29  1  1  0  0  0
 32 34  1  0  0  0  0
 32 31  1  0  0  0  0
 34 30  1  0  0  0  0
M  END
>  <MODEL>
8

>  <REMARK>
 VINA RESULT:      -8.2      2.998      5.141
  Name = 
  3 active torsions:
  status: ('A' for Active; 'I' for Inactive)
    1  A    between atoms: C_17  and  O_28
    2  A    between atoms: O_28  and  C_29
    3  A    between atoms: C_29  and  C_32
                            x       y       z     vdW  Elec       q    Type
                         _______ _______ _______ _____ _____    ______ ____

>  <TORSDO>
F 3

$$$$
=
 OpenBabel11112418013D

 34 41  0  0  1  0  0  0  0  0999 V2000
  190.8900  173.9470  141.0880 C   0  0  0  0  0  0  0  0  0  0  0  0
  188.3340  174.1050  141.2840 C   0  0  0  0  0  3  0  0  0  0  0  0
  197.0660  175.7170  142.6480 C   0  0  0  0  0  0  0  0  0  0  0  0
  193.3200  173.8070  141.1780 C   0  0  0  0  0  0  0  0  0  0  0  0
  194.6690  175.2210  142.6910 C   0  0  0  0  0  0  0  0  0  0  0  0
  196.0550  176.8370  143.9800 C   0  0  0  0  0  2  0  0  0  0  0  0
  197.2210  177.0410  143.2020 O   0  0  0  0  0  0  0  0  0  0  0  0
  197.1010  173.6670  141.3880 C   0  0  0  0  0  3  0  0  0  0  0  0
  189.6930  175.4860  142.6290 C   0  0  0  0  0  0  0  0  0  0  0  0
  188.7190  177.5030  144.7940 C   0  0  0  0  0  3  0  0  0  0  0  0
  193.4720  176.1140  142.9300 C   0  0  0  0  0  3  0  0  0  0  0  0
  195.8000  173.3400  141.4360 C   0  0  0  0  0  3  0  0  0  0  0  0
  190.9900  176.0240  143.1110 C   0  0  1  0  0  3  0  0  0  0  0  0
  187.4720  174.9370  142.2290 C   0  0  0  0  0  3  0  0  0  0  0  0
  194.6210  174.1930  141.7970 C   0  0  0  0  0  0  0  0  0  0  0  0
  197.6680  174.9750  141.7390 C   0  0  0  0  0  3  0  0  0  0  0  0
  187.9630  176.6530  144.0900 C   0  0  0  0  0  0  0  0  0  0  0  0
  192.1150  174.4010  141.6030 C   0  0  0  0  0  0  0  0  0  0  0  0
  195.9000  175.4820  143.5280 C   0  0  2  0  0  3  0  0  0  0  0  0
  192.1370  175.4970  142.6020 C   0  0  0  0  0  0  0  0  0  0  0  0
  192.0520  172.3700  139.6710 C   0  0  0  0  0  3  0  0  0  0  0  0
  190.1560  177.7670  144.7480 C   0  0  0  0  0  3  0  0  0  0  0  0
  193.2700  172.7950  140.2030 C   0  0  0  0  0  3  0  0  0  0  0  0
  191.1020  177.1510  144.0520 C   0  0  0  0  0  3  0  0  0  0  0  0
  188.4520  175.7560  143.0240 C   0  0  0  0  0  0  0  0  0  0  0  0
  190.8590  172.9380  140.1190 C   0  0  0  0  0  3  0  0  0  0  0  0
  189.6850  174.5200  141.5950 N   0  0  0  0  0  0  0  0  0  0  0  0
  186.5840  176.6060  144.3480 O   0  0  0  0  0  0  0  0  0  0  0  0
  185.7050  177.7230  144.2210 C   0  0  0  0  0  2  0  0  0  0  0  0
  186.1240  177.1020  147.3990 O   0  0  0  0  0  0  0  0  0  0  0  0
  185.6060  179.1070  146.2690 C   0  0  0  0  0  2  0  0  0  0  0  0
  184.9640  177.9720  145.5260 C   0  0  2  0  0  3  0  0  0  0  0  0
  186.0250  178.4880  147.5800 C   0  0  0  0  0  2  0  0  0  0  0  0
  185.1450  176.7860  146.4440 C   0  0  0  0  0  2  0  0  0  0  0  0
  1 27  1  0  0  0  0
  1 18  1  0  0  0  0
  2 27  1  0  0  0  0
  2 14  2  0  0  0  0
  3  7  1  0  0  0  0
  3 19  1  0  0  0  0
  4 18  2  0  0  0  0
  4 15  1  0  0  0  0
  5 11  1  0  0  0  0
  5 19  1  0  0  0  0
  7  6  1  0  0  0  0
  8 12  2  0  0  0  0
  8 16  1  0  0  0  0
  9 25  2  0  0  0  0
  9 13  1  0  0  0  0
 12 15  1  0  0  0  0
 13 24  1  6  0  0  0
 14 25  1  0  0  0  0
 15  5  2  0  0  0  0
 16  3  2  0  0  0  0
 17 28  1  0  0  0  0
 17 10  2  0  0  0  0
 18 20  1  0  0  0  0
 19  6  1  6  0  0  0
 20 11  2  0  0  0  0
 20 13  1  0  0  0  0
 21 26  1  0  0  0  0
 21 23  2  0  0  0  0
 22 10  1  0  0  0  0
 23  4  1  0  0  0  0
 24 22  2  0  0  0  0
 25 17  1  0  0  0  0
 26  1  2  0  0  0  0
 27  9  1  0  0  0  0
 29 28  1  0  0  0  0
 30 33  1  0  0  0  0
 31 33  1  0  0  0  0
 32 29  1  6  0  0  0
 32 31  1  0  0  0  0
 32 34  1  0  0  0  0
 34 30  1  0  0  0  0
M  END
>  <MODEL>
9

>  <REMARK>
 VINA RESULT:      -8.2      2.454      8.852
  Name = 
  3 active torsions:
  status: ('A' for Active; 'I' for Inactive)
    1  A    between atoms: C_17  and  O_28
    2  A    between atoms: O_28  and  C_29
    3  A    between atoms: C_29  and  C_32
                            x       y       z     vdW  Elec       q    Type
                         _______ _______ _______ _____ _____    ______ ____

>  <TORSDO>
F 3

$$$$
