=
 OpenBabel11112417473D

 34 41  0  0  1  0  0  0  0  0999 V2000
  189.7530  173.8810  143.6140 C   0  0  0  0  0  0  0  0  0  0  0  0
  191.7010  172.3750  143.8310 N   0  0  0  0  0  2  0  0  0  0  0  0
  185.9260  178.3310  145.5620 C   0  0  2  0  0  3  0  0  0  0  0  0
  188.1330  175.5940  143.1220 C   0  0  0  0  0  0  0  0  0  0  0  0
  188.1760  177.8250  144.3240 C   0  0  1  0  0  3  0  0  0  0  0  0
  186.8620  176.4600  146.0700 C   0  0  0  0  0  2  0  0  0  0  0  0
  185.4290  176.9650  146.0090 C   0  0  0  0  0  2  0  0  0  0  0  0
  185.2810  177.6280  143.1570 C   0  0  0  0  0  2  0  0  0  0  0  0
  191.5140  174.1990  145.3910 C   0  0  2  0  0  3  0  0  0  0  0  0
  194.2730  175.9180  145.6620 C   0  0  0  0  0  2  0  0  0  0  0  0
  189.6570  177.5220  144.5740 C   0  0  0  0  0  2  0  0  0  0  0  0
  186.5930  177.4470  142.4130 C   0  0  0  0  0  2  0  0  0  0  0  0
  191.3380  175.7170  145.1640 C   0  0  1  0  0  3  0  0  0  0  0  0
  192.9150  172.3900  144.6450 C   0  0  0  0  0  2  0  0  0  0  0  0
  187.6160  176.9260  143.3070 N   0  0  0  0  0  0  0  0  0  0  0  0
  185.3850  178.7550  144.1820 C   0  0  0  0  0  2  0  0  0  0  0  0
  193.9970  174.6640  144.8120 C   0  0  1  0  0  3  0  0  0  0  0  0
  189.2490  175.1650  143.8570 C   0  0  0  0  0  0  0  0  0  0  0  0
  187.3700  177.8310  145.6390 C   0  0  2  0  0  3  0  0  0  0  0  0
  189.8570  176.0460  144.9240 C   0  0  2  0  0  3  0  0  0  0  0  0
  188.0900  173.5240  141.9720 C   0  0  0  0  0  3  0  0  0  0  0  0
  193.2830  176.1400  146.8090 C   0  0  0  0  0  2  0  0  0  0  0  0
  187.5820  174.7630  142.1950 N   0  0  0  0  0  0  0  0  0  0  0  0
  191.8860  176.5480  146.3330 C   0  0  0  0  0  2  0  0  0  0  0  0
  192.9570  173.6990  145.4280 C   0  0  1  0  0  3  0  0  0  0  0  0
  189.1710  173.0920  142.6720 N   0  0  0  0  0  0  0  0  0  0  0  0
  190.9200  173.4340  144.3120 N   0  0  0  0  0  0  0  0  0  0  0  0
  193.6410  175.0400  143.5120 O   0  0  0  0  0  0  0  0  0  0  0  0
  194.4200  176.1630  143.2270 C   0  0  0  0  0  2  0  0  0  0  0  0
  196.6410  176.0620  140.3610 O   0  0  0  0  0  0  0  0  0  0  0  0
  194.6540  175.1980  140.8930 O   0  0  0  0  0  0  0  0  0  0  0  0
  195.1440  175.9460  141.9470 C   0  0  0  0  0  0  0  0  0  0  0  0
  195.6000  175.2450  139.8370 C   0  0  0  0  0  2  0  0  0  0  0  0
  196.3160  176.4680  141.6470 C   0  0  0  0  0  3  0  0  0  0  0  0
  1 18  1  0  0  0  0
  1 27  1  0  0  0  0
  2 27  1  0  0  0  0
  2 14  1  0  0  0  0
  3 16  1  6  0  0  0
  3 19  1  0  0  0  0
  3  7  1  0  0  0  0
  4 15  1  0  0  0  0
  4 18  2  0  0  0  0
  5 11  1  1  0  0  0
  5 19  1  0  0  0  0
  7  6  1  0  0  0  0
  8 16  1  0  0  0  0
  9 27  1  6  0  0  0
  9 25  1  0  0  0  0
 10 22  1  0  0  0  0
 12  8  1  0  0  0  0
 12 15  1  0  0  0  0
 13  9  1  0  0  0  0
 13 24  1  1  0  0  0
 15  5  1  0  0  0  0
 17 28  1  6  0  0  0
 17 25  1  0  0  0  0
 17 10  1  0  0  0  0
 18 20  1  0  0  0  0
 19  6  1  6  0  0  0
 20 11  1  6  0  0  0
 20 13  1  0  0  0  0
 21 23  2  0  0  0  0
 21 26  1  0  0  0  0
 23  4  1  0  0  0  0
 24 22  1  0  0  0  0
 25 14  1  6  0  0  0
 26  1  2  0  0  0  0
 29 28  1  0  0  0  0
 30 34  1  0  0  0  0
 31 32  1  0  0  0  0
 32 29  1  0  0  0  0
 33 30  1  0  0  0  0
 33 31  1  0  0  0  0
 34 32  2  0  0  0  0
M  END
>  <MODEL>
1

>  <REMARK>
 VINA RESULT:      -9.0      0.000      0.000
  Name = 
  3 active torsions:
  status: ('A' for Active; 'I' for Inactive)
    1  A    between atoms: C_17  and  O_28
    2  A    between atoms: O_28  and  C_29
    3  A    between atoms: C_29  and  C_32
                            x       y       z     vdW  Elec       q    Type
                         _______ _______ _______ _____ _____    ______ ____

>  <TORSDO>
F 3

$$$$
=
 OpenBabel11112417473D

 34 41  0  0  1  0  0  0  0  0999 V2000
  190.0290  176.5670  144.8230 C   0  0  0  0  0  0  0  0  0  0  0  0
  192.1190  175.5820  143.9450 N   0  0  0  0  0  2  0  0  0  0  0  0
  184.3660  178.9910  144.2620 C   0  0  2  0  0  3  0  0  0  0  0  0
  187.8840  177.0900  145.7880 C   0  0  0  0  0  0  0  0  0  0  0  0
  185.7410  176.7730  144.4720 C   0  0  1  0  0  3  0  0  0  0  0  0
  186.4080  179.0990  143.5880 C   0  0  0  0  0  2  0  0  0  0  0  0
  185.4230  180.0820  144.2030 C   0  0  0  0  0  2  0  0  0  0  0  0
  184.9570  178.7440  146.7700 C   0  0  0  0  0  2  0  0  0  0  0  0
  190.2450  175.7560  142.4450 C   0  0  2  0  0  3  0  0  0  0  0  0
  189.6300  172.9680  140.8650 C   0  0  0  0  0  2  0  0  0  0  0  0
  186.5420  175.7590  143.6480 C   0  0  0  0  0  2  0  0  0  0  0  0
  185.6550  177.4010  146.9010 C   0  0  0  0  0  2  0  0  0  0  0  0
  188.7870  175.2620  142.5770 C   0  0  1  0  0  3  0  0  0  0  0  0
  192.4870  174.9180  142.6960 C   0  0  0  0  0  2  0  0  0  0  0  0
  186.4460  177.1220  145.7110 N   0  0  0  0  0  0  0  0  0  0  0  0
  183.8740  178.6950  145.6940 C   0  0  0  0  0  2  0  0  0  0  0  0
  190.7560  173.2810  141.8680 C   0  0  1  0  0  3  0  0  0  0  0  0
  188.6350  176.6320  144.6940 C   0  0  0  0  0  0  0  0  0  0  0  0
  185.3490  178.0040  143.6290 C   0  0  2  0  0  3  0  0  0  0  0  0
  187.9620  176.2700  143.3900 C   0  0  2  0  0  3  0  0  0  0  0  0
  189.8740  177.3710  147.0410 C   0  0  0  0  0  3  0  0  0  0  0  0
  188.9820  174.2020  140.2310 C   0  0  0  0  0  2  0  0  0  0  0  0
  188.5220  177.4450  146.9360 N   0  0  0  0  0  0  0  0  0  0  0  0
  188.1300  175.0120  141.2120 C   0  0  0  0  0  2  0  0  0  0  0  0
  191.2300  174.7520  141.8470 C   0  0  1  0  0  3  0  0  0  0  0  0
  190.6180  176.9280  145.9940 N   0  0  0  0  0  0  0  0  0  0  0  0
  190.8170  176.0580  143.7420 N   0  0  0  0  0  0  0  0  0  0  0  0
  190.3700  172.8850  143.1530 O   0  0  0  0  0  0  0  0  0  0  0  0
  190.6640  171.5220  143.2230 C   0  0  0  0  0  2  0  0  0  0  0  0
  193.9250  170.4840  144.4240 O   0  0  0  0  0  0  0  0  0  0  0  0
  192.5550  172.2110  144.7660 O   0  0  0  0  0  0  0  0  0  0  0  0
  191.9990  171.3380  143.8490 C   0  0  0  0  0  0  0  0  0  0  0  0
  193.8140  171.6930  145.1660 C   0  0  0  0  0  2  0  0  0  0  0  0
  192.7940  170.3080  143.6400 C   0  0  0  0  0  3  0  0  0  0  0  0
  1 26  1  0  0  0  0
  3  7  1  1  0  0  0
  3 16  1  0  0  0  0
  4 23  2  0  0  0  0
  5 11  1  6  0  0  0
  5 15  1  0  0  0  0
  6  7  1  0  0  0  0
  8 12  1  0  0  0  0
  9 13  1  0  0  0  0
  9 27  1  1  0  0  0
 10 17  1  0  0  0  0
 13 24  1  6  0  0  0
 13 20  1  0  0  0  0
 14  2  1  0  0  0  0
 15  4  1  0  0  0  0
 15 12  1  0  0  0  0
 16  8  1  0  0  0  0
 17 28  1  1  0  0  0
 18  1  2  0  0  0  0
 18  4  1  0  0  0  0
 19  6  1  1  0  0  0
 19  3  1  0  0  0  0
 19  5  1  0  0  0  0
 20 11  1  1  0  0  0
 20 18  1  0  0  0  0
 22 10  1  0  0  0  0
 22 24  1  0  0  0  0
 23 21  1  0  0  0  0
 25 17  1  0  0  0  0
 25  9  1  0  0  0  0
 25 14  1  1  0  0  0
 26 21  2  0  0  0  0
 27  2  1  0  0  0  0
 27  1  1  0  0  0  0
 28 29  1  0  0  0  0
 29 32  1  0  0  0  0
 30 33  1  0  0  0  0
 31 33  1  0  0  0  0
 32 31  1  0  0  0  0
 34 32  2  0  0  0  0
 34 30  1  0  0  0  0
M  END
>  <MODEL>
2

>  <REMARK>
 VINA RESULT:      -8.7      2.816      4.721
  Name = 
  3 active torsions:
  status: ('A' for Active; 'I' for Inactive)
    1  A    between atoms: C_17  and  O_28
    2  A    between atoms: O_28  and  C_29
    3  A    between atoms: C_29  and  C_32
                            x       y       z     vdW  Elec       q    Type
                         _______ _______ _______ _____ _____    ______ ____

>  <TORSDO>
F 3

$$$$
=
 OpenBabel11112417473D

 34 41  0  0  1  0  0  0  0  0999 V2000
  190.9640  172.9220  143.8000 C   0  0  0  0  0  0  0  0  0  0  0  0
  192.8600  171.4550  144.4050 N   0  0  0  0  0  2  0  0  0  0  0  0
  187.3830  177.9240  144.4460 C   0  0  2  0  0  3  0  0  0  0  0  0
  189.3940  174.4920  142.8660 C   0  0  0  0  0  0  0  0  0  0  0  0
  189.5660  176.9720  143.3590 C   0  0  1  0  0  3  0  0  0  0  0  0
  188.2650  176.2400  145.4580 C   0  0  0  0  0  2  0  0  0  0  0  0
  186.8500  176.7720  145.2850 C   0  0  0  0  0  2  0  0  0  0  0  0
  186.6270  176.5800  142.3680 C   0  0  0  0  0  2  0  0  0  0  0  0
  192.7980  173.6610  145.3660 C   0  0  2  0  0  3  0  0  0  0  0  0
  195.6300  175.2520  145.0570 C   0  0  0  0  0  2  0  0  0  0  0  0
  191.0430  176.6860  143.6530 C   0  0  0  0  0  2  0  0  0  0  0  0
  187.9030  176.1280  141.6800 C   0  0  0  0  0  2  0  0  0  0  0  0
  192.6740  175.0540  144.7080 C   0  0  1  0  0  3  0  0  0  0  0  0
  194.1020  171.6500  145.1510 C   0  0  0  0  0  2  0  0  0  0  0  0
  188.9370  175.8430  142.6640 N   0  0  0  0  0  0  0  0  0  0  0  0
  186.8100  177.9520  143.0150 C   0  0  0  0  0  2  0  0  0  0  0  0
  195.2760  173.8190  144.6190 C   0  0  1  0  0  3  0  0  0  0  0  0
  190.5190  174.2440  143.6680 C   0  0  0  0  0  0  0  0  0  0  0  0
  188.8090  177.3990  144.6330 C   0  0  2  0  0  3  0  0  0  0  0  0
  191.1990  175.3680  144.4160 C   0  0  2  0  0  3  0  0  0  0  0  0
  189.2310  172.1810  142.3740 C   0  0  0  0  0  3  0  0  0  0  0  0
  194.6910  175.8460  146.1110 C   0  0  0  0  0  2  0  0  0  0  0  0
  188.7790  173.4540  142.2360 N   0  0  0  0  0  0  0  0  0  0  0  0
  193.2950  176.1630  145.5680 C   0  0  0  0  0  2  0  0  0  0  0  0
  194.2220  173.1270  145.5150 C   0  0  1  0  0  3  0  0  0  0  0  0
  190.3180  171.9210  143.1450 N   0  0  0  0  0  0  0  0  0  0  0  0
  192.1370  172.6440  144.5720 N   0  0  0  0  0  0  0  0  0  0  0  0
  194.8870  173.8160  143.2750 O   0  0  0  0  0  0  0  0  0  0  0  0
  195.7970  174.6540  142.6270 C   0  0  0  0  0  2  0  0  0  0  0  0
  194.0900  175.1620  139.4660 O   0  0  0  0  0  0  0  0  0  0  0  0
  196.2040  174.9170  140.1370 O   0  0  0  0  0  0  0  0  0  0  0  0
  195.3520  174.8720  141.2250 C   0  0  0  0  0  0  0  0  0  0  0  0
  195.4220  175.1060  138.9680 C   0  0  0  0  0  2  0  0  0  0  0  0
  194.0980  175.0100  140.8460 C   0  0  0  0  0  3  0  0  0  0  0  0
  1 27  1  0  0  0  0
  2 27  1  0  0  0  0
  2 14  1  0  0  0  0
  3 16  1  6  0  0  0
  3 19  1  0  0  0  0
  3  7  1  0  0  0  0
  4 18  2  0  0  0  0
  5 11  1  1  0  0  0
  5 19  1  0  0  0  0
  7  6  1  0  0  0  0
  8 16  1  0  0  0  0
  9 27  1  6  0  0  0
  9 25  1  0  0  0  0
 10 22  1  0  0  0  0
 12  8  1  0  0  0  0
 12 15  1  0  0  0  0
 13  9  1  0  0  0  0
 13 24  1  1  0  0  0
 15  4  1  0  0  0  0
 15  5  1  0  0  0  0
 17 28  1  6  0  0  0
 17 10  1  0  0  0  0
 17 25  1  0  0  0  0
 18  1  1  0  0  0  0
 18 20  1  0  0  0  0
 19  6  1  1  0  0  0
 20 11  1  6  0  0  0
 20 13  1  0  0  0  0
 21 26  1  0  0  0  0
 23 21  2  0  0  0  0
 23  4  1  0  0  0  0
 24 22  1  0  0  0  0
 25 14  1  6  0  0  0
 26  1  2  0  0  0  0
 29 28  1  0  0  0  0
 30 34  1  0  0  0  0
 31 32  1  0  0  0  0
 32 29  1  0  0  0  0
 33 30  1  0  0  0  0
 33 31  1  0  0  0  0
 34 32  2  0  0  0  0
M  END
>  <MODEL>
3

>  <REMARK>
 VINA RESULT:      -7.9      1.394      1.765
  Name = 
  3 active torsions:
  status: ('A' for Active; 'I' for Inactive)
    1  A    between atoms: C_17  and  O_28
    2  A    between atoms: O_28  and  C_29
    3  A    between atoms: C_29  and  C_32
                            x       y       z     vdW  Elec       q    Type
                         _______ _______ _______ _____ _____    ______ ____

>  <TORSDO>
F 3

$$$$
=
 OpenBabel11112417473D

 34 41  0  0  1  0  0  0  0  0999 V2000
  189.2700  174.9620  141.7550 C   0  0  0  0  0  0  0  0  0  0  0  0
  188.1710  177.1750  141.8200 N   0  0  0  0  0  2  0  0  0  0  0  0
  193.5330  170.8230  143.4720 C   0  0  2  0  0  3  0  0  0  0  0  0
  189.9820  172.6690  141.9550 C   0  0  0  0  0  0  0  0  0  0  0  0
  191.1880  171.8460  144.0260 C   0  0  1  0  0  3  0  0  0  0  0  0
  193.2040  172.8280  142.7600 C   0  0  0  0  0  2  0  0  0  0  0  0
  194.0260  171.6380  142.2860 C   0  0  0  0  0  2  0  0  0  0  0  0
  191.8590  169.7140  141.8390 C   0  0  0  0  0  2  0  0  0  0  0  0
  189.7540  176.6570  143.5580 C   0  0  2  0  0  3  0  0  0  0  0  0
  188.5990  177.2830  146.5440 C   0  0  0  0  0  2  0  0  0  0  0  0
  190.5160  173.0250  144.7370 C   0  0  0  0  0  2  0  0  0  0  0  0
  190.4870  170.2260  142.2420 C   0  0  0  0  0  2  0  0  0  0  0  0
  189.8390  175.4620  144.5330 C   0  0  1  0  0  3  0  0  0  0  0  0
  188.1460  178.2730  142.7840 C   0  0  0  0  0  2  0  0  0  0  0  0
  190.5760  171.6000  142.7150 N   0  0  0  0  0  0  0  0  0  0  0  0
  192.7630  169.5520  143.0600 C   0  0  0  0  0  2  0  0  0  0  0  0
  187.9230  177.5140  145.1810 C   0  0  1  0  0  3  0  0  0  0  0  0
  189.8990  173.9580  142.5030 C   0  0  0  0  0  0  0  0  0  0  0  0
  192.7180  172.0230  143.9590 C   0  0  2  0  0  3  0  0  0  0  0  0
  190.5220  174.2700  143.8450 C   0  0  2  0  0  3  0  0  0  0  0  0
  188.8360  173.4140  140.0200 C   0  0  0  0  0  3  0  0  0  0  0  0
  190.1210  177.1310  146.4820 C   0  0  0  0  0  2  0  0  0  0  0  0
  189.4470  172.4280  140.7270 N   0  0  0  0  0  0  0  0  0  0  0  0
  190.5730  175.8200  145.8320 C   0  0  0  0  0  2  0  0  0  0  0  0
  188.9080  177.8380  144.0330 C   0  0  1  0  0  3  0  0  0  0  0  0
  188.7440  174.6680  140.5360 N   0  0  0  0  0  0  0  0  0  0  0  0
  189.1260  176.2740  142.3090 N   0  0  0  0  0  0  0  0  0  0  0  0
  187.1080  176.4210  144.8640 O   0  0  0  0  0  0  0  0  0  0  0  0
  185.8900  176.6730  145.4980 C   0  0  0  0  0  2  0  0  0  0  0  0
  183.6850  179.1100  143.9630 O   0  0  0  0  0  0  0  0  0  0  0  0
  184.8930  177.3670  143.2710 O   0  0  0  0  0  0  0  0  0  0  0  0
  185.0560  177.5480  144.6320 C   0  0  0  0  0  0  0  0  0  0  0  0
  184.0070  178.3670  142.7930 C   0  0  0  0  0  2  0  0  0  0  0  0
  184.3440  178.5710  145.0580 C   0  0  0  0  0  3  0  0  0  0  0  0
  1 27  1  0  0  0  0
  1 18  1  0  0  0  0
  2 27  1  0  0  0  0
  2 14  1  0  0  0  0
  3  7  1  6  0  0  0
  3 19  1  0  0  0  0
  4 18  2  0  0  0  0
  4 15  1  0  0  0  0
  5 11  1  6  0  0  0
  7  6  1  0  0  0  0
  8 12  1  0  0  0  0
  8 16  1  0  0  0  0
  9 27  1  6  0  0  0
  9 25  1  0  0  0  0
  9 13  1  0  0  0  0
 12 15  1  0  0  0  0
 13 24  1  1  0  0  0
 15  5  1  0  0  0  0
 16  3  1  0  0  0  0
 17 28  1  6  0  0  0
 17 10  1  0  0  0  0
 18 20  1  0  0  0  0
 19  6  1  6  0  0  0
 19  5  1  0  0  0  0
 20 13  1  0  0  0  0
 20 11  1  1  0  0  0
 21 26  1  0  0  0  0
 21 23  2  0  0  0  0
 22 10  1  0  0  0  0
 23  4  1  0  0  0  0
 24 22  1  0  0  0  0
 25 14  1  6  0  0  0
 25 17  1  0  0  0  0
 26  1  2  0  0  0  0
 28 29  1  0  0  0  0
 30 34  1  0  0  0  0
 31 32  1  0  0  0  0
 32 34  2  0  0  0  0
 32 29  1  0  0  0  0
 33 31  1  0  0  0  0
 33 30  1  0  0  0  0
M  END
>  <MODEL>
4

>  <REMARK>
 VINA RESULT:      -7.6      3.380      7.547
  Name = 
  3 active torsions:
  status: ('A' for Active; 'I' for Inactive)
    1  A    between atoms: C_17  and  O_28
    2  A    between atoms: O_28  and  C_29
    3  A    between atoms: C_29  and  C_32
                            x       y       z     vdW  Elec       q    Type
                         _______ _______ _______ _____ _____    ______ ____

>  <TORSDO>
F 3

$$$$
=
 OpenBabel11112417473D

 34 41  0  0  1  0  0  0  0  0999 V2000
  192.4510  175.9380  145.4590 C   0  0  0  0  0  0  0  0  0  0  0  0
  190.1410  175.9910  146.3380 N   0  0  0  0  0  2  0  0  0  0  0  0
  197.0060  173.6750  141.9410 C   0  0  2  0  0  3  0  0  0  0  0  0
  194.5620  176.2420  144.3400 C   0  0  0  0  0  0  0  0  0  0  0  0
  194.9620  175.3090  142.0180 C   0  0  1  0  0  3  0  0  0  0  0  0
  195.4890  173.1930  143.3900 C   0  0  0  0  0  2  0  0  0  0  0  0
  196.9950  172.9970  143.3020 C   0  0  0  0  0  2  0  0  0  0  0  0
  197.8310  175.8030  143.1600 C   0  0  0  0  0  2  0  0  0  0  0  0
  190.5760  174.6200  144.4080 C   0  0  2  0  0  3  0  0  0  0  0  0
  188.4380  175.1220  141.9950 C   0  0  0  0  0  2  0  0  0  0  0  0
  193.4380  175.3520  141.8710 C   0  0  0  0  0  2  0  0  0  0  0  0
  196.6770  176.7880  143.1000 C   0  0  0  0  0  2  0  0  0  0  0  0
  191.2250  174.9560  143.0470 C   0  0  1  0  0  3  0  0  0  0  0  0
  188.8610  175.4620  145.8710 C   0  0  0  0  0  2  0  0  0  0  0  0
  195.4040  176.0860  143.1820 N   0  0  0  0  0  0  0  0  0  0  0  0
  197.8820  174.9430  141.8990 C   0  0  0  0  0  2  0  0  0  0  0  0
  188.4800  175.7610  143.3950 C   0  0  1  0  0  3  0  0  0  0  0  0
  193.2580  175.7240  144.3350 C   0  0  0  0  0  0  0  0  0  0  0  0
  195.4890  173.8590  142.0200 C   0  0  2  0  0  3  0  0  0  0  0  0
  192.7550  174.9050  143.1670 C   0  0  2  0  0  3  0  0  0  0  0  0
  194.2000  177.1410  146.5010 C   0  0  0  0  0  3  0  0  0  0  0  0
  189.2310  173.8180  141.8670 C   0  0  0  0  0  2  0  0  0  0  0  0
  195.0010  176.9410  145.4220 N   0  0  0  0  0  0  0  0  0  0  0  0
  190.7470  174.0220  141.9260 C   0  0  0  0  0  2  0  0  0  0  0  0
  189.0660  174.8420  144.4920 C   0  0  1  0  0  3  0  0  0  0  0  0
  192.9340  176.6490  146.5130 N   0  0  0  0  0  0  0  0  0  0  0  0
  191.1000  175.4640  145.4630 N   0  0  0  0  0  0  0  0  0  0  0  0
  189.1550  176.9860  143.3370 O   0  0  0  0  0  0  0  0  0  0  0  0
  188.4330  177.7610  142.4280 C   0  0  0  0  0  2  0  0  0  0  0  0
  185.2280  179.1350  143.4250 O   0  0  0  0  0  0  0  0  0  0  0  0
  187.1030  178.5040  144.4560 O   0  0  0  0  0  0  0  0  0  0  0  0
  187.2160  178.2950  143.0940 C   0  0  0  0  0  0  0  0  0  0  0  0
  185.8190  179.0510  144.7160 C   0  0  0  0  0  2  0  0  0  0  0  0
  186.1180  178.6680  142.4690 C   0  0  0  0  0  3  0  0  0  0  0  0
  1 27  1  0  0  0  0
  1 26  1  0  0  0  0
  3 16  1  1  0  0  0
  3 19  1  0  0  0  0
  3  7  1  0  0  0  0
  4 23  2  0  0  0  0
  5 11  1  1  0  0  0
  5 19  1  0  0  0  0
  5 15  1  0  0  0  0
  7  6  1  0  0  0  0
  9 25  1  0  0  0  0
  9 27  1  1  0  0  0
 10 17  1  0  0  0  0
 12  8  1  0  0  0  0
 12 15  1  0  0  0  0
 13 24  1  6  0  0  0
 13 20  1  0  0  0  0
 13  9  1  0  0  0  0
 14  2  1  0  0  0  0
 15  4  1  0  0  0  0
 16  8  1  0  0  0  0
 17 28  1  6  0  0  0
 17 25  1  0  0  0  0
 18  4  1  0  0  0  0
 18  1  2  0  0  0  0
 19  6  1  1  0  0  0
 20 11  1  6  0  0  0
 20 18  1  0  0  0  0
 21 26  2  0  0  0  0
 22 24  1  0  0  0  0
 22 10  1  0  0  0  0
 23 21  1  0  0  0  0
 25 14  1  1  0  0  0
 27  2  1  0  0  0  0
 29 32  1  0  0  0  0
 29 28  1  0  0  0  0
 30 33  1  0  0  0  0
 31 33  1  0  0  0  0
 32 31  1  0  0  0  0
 34 32  2  0  0  0  0
 34 30  1  0  0  0  0
M  END
>  <MODEL>
5

>  <REMARK>
 VINA RESULT:      -7.6      3.180      8.038
  Name = 
  3 active torsions:
  status: ('A' for Active; 'I' for Inactive)
    1  A    between atoms: C_17  and  O_28
    2  A    between atoms: O_28  and  C_29
    3  A    between atoms: C_29  and  C_32
                            x       y       z     vdW  Elec       q    Type
                         _______ _______ _______ _____ _____    ______ ____

>  <TORSDO>
F 3

$$$$
=
 OpenBabel11112417473D

 34 41  0  0  1  0  0  0  0  0999 V2000
  191.4350  172.9180  143.2060 C   0  0  0  0  0  0  0  0  0  0  0  0
  189.0800  173.1070  142.4770 N   0  0  0  0  0  2  0  0  0  0  0  0
  197.2380  174.9640  143.8340 C   0  0  2  0  0  3  0  0  0  0  0  0
  193.5600  172.8330  144.3370 C   0  0  0  0  0  0  0  0  0  0  0  0
  194.8410  174.9510  144.8850 C   0  0  1  0  0  3  0  0  0  0  0  0
  195.6210  174.6350  142.4510 C   0  0  0  0  0  2  0  0  0  0  0  0
  197.0780  174.2020  142.5270 C   0  0  0  0  0  2  0  0  0  0  0  0
  196.9900  172.6840  145.0340 C   0  0  0  0  0  2  0  0  0  0  0  0
  190.4260  175.1030  142.4520 C   0  0  2  0  0  3  0  0  0  0  0  0
  188.9670  177.6280  143.9150 C   0  0  0  0  0  2  0  0  0  0  0  0
  193.4780  175.6480  144.8080 C   0  0  0  0  0  2  0  0  0  0  0  0
  195.6430  172.7300  145.7360 C   0  0  0  0  0  2  0  0  0  0  0  0
  191.2750  175.7710  143.5570 C   0  0  1  0  0  3  0  0  0  0  0  0
  188.2070  174.2280  142.1320 C   0  0  0  0  0  2  0  0  0  0  0  0
  194.6860  173.4930  144.9480 N   0  0  0  0  0  0  0  0  0  0  0  0
  197.6460  174.0630  145.0180 C   0  0  0  0  0  2  0  0  0  0  0  0
  188.4290  176.2040  143.6840 C   0  0  1  0  0  3  0  0  0  0  0  0
  192.5380  173.5920  143.7460 C   0  0  0  0  0  0  0  0  0  0  0  0
  195.7780  175.4130  143.7510 C   0  0  2  0  0  3  0  0  0  0  0  0
  192.6520  175.0960  143.6430 C   0  0  2  0  0  3  0  0  0  0  0  0
  192.3670  170.8450  143.8550 C   0  0  0  0  0  3  0  0  0  0  0  0
  190.1350  178.0220  143.0060 C   0  0  0  0  0  2  0  0  0  0  0  0
  193.4490  171.4780  144.3800 N   0  0  0  0  0  0  0  0  0  0  0  0
  191.4350  177.2820  143.3350 C   0  0  0  0  0  2  0  0  0  0  0  0
  188.9590  175.5280  142.3990 C   0  0  1  0  0  3  0  0  0  0  0  0
  191.3680  171.5620  143.2800 N   0  0  0  0  0  0  0  0  0  0  0  0
  190.3540  173.6680  142.6410 N   0  0  0  0  0  0  0  0  0  0  0  0
  188.6710  175.4160  144.8150 O   0  0  0  0  0  0  0  0  0  0  0  0
  188.4780  176.2670  145.9050 C   0  0  0  0  0  2  0  0  0  0  0  0
  191.1520  175.3530  148.1790 O   0  0  0  0  0  0  0  0  0  0  0  0
  190.3840  177.2390  147.2680 O   0  0  0  0  0  0  0  0  0  0  0  0
  189.6400  176.1600  146.8250 C   0  0  0  0  0  0  0  0  0  0  0  0
  191.3830  176.7560  148.1530 C   0  0  0  0  0  2  0  0  0  0  0  0
  190.0780  175.0380  147.3580 C   0  0  0  0  0  3  0  0  0  0  0  0
  1 26  2  0  0  0  0
  1 18  1  0  0  0  0
  2 27  1  0  0  0  0
  3  7  1  6  0  0  0
  3 16  1  0  0  0  0
  4 23  1  0  0  0  0
  4 15  1  0  0  0  0
  5 11  1  6  0  0  0
  5 15  1  0  0  0  0
  6  7  1  0  0  0  0
  8 12  1  0  0  0  0
  9 27  1  1  0  0  0
  9 13  1  0  0  0  0
 13 24  1  6  0  0  0
 13 20  1  0  0  0  0
 14  2  1  0  0  0  0
 15 12  1  0  0  0  0
 16  8  1  0  0  0  0
 17 10  1  0  0  0  0
 17 28  1  1  0  0  0
 18  4  2  0  0  0  0
 19  6  1  6  0  0  0
 19  3  1  0  0  0  0
 19  5  1  0  0  0  0
 20 18  1  0  0  0  0
 20 11  1  1  0  0  0
 21 23  2  0  0  0  0
 22 24  1  0  0  0  0
 22 10  1  0  0  0  0
 25 14  1  1  0  0  0
 25  9  1  0  0  0  0
 25 17  1  0  0  0  0
 26 21  1  0  0  0  0
 27  1  1  0  0  0  0
 28 29  1  0  0  0  0
 29 32  1  0  0  0  0
 31 33  1  0  0  0  0
 32 31  1  0  0  0  0
 32 34  2  0  0  0  0
 33 30  1  0  0  0  0
 34 30  1  0  0  0  0
M  END
>  <MODEL>
6

>  <REMARK>
 VINA RESULT:      -7.5      2.950      7.368
  Name = 
  3 active torsions:
  status: ('A' for Active; 'I' for Inactive)
    1  A    between atoms: C_17  and  O_28
    2  A    between atoms: O_28  and  C_29
    3  A    between atoms: C_29  and  C_32
                            x       y       z     vdW  Elec       q    Type
                         _______ _______ _______ _____ _____    ______ ____

>  <TORSDO>
F 3

$$$$
=
 OpenBabel11112417473D

 34 41  0  0  1  0  0  0  0  0999 V2000
  193.2060  176.1650  142.9640 C   0  0  0  0  0  0  0  0  0  0  0  0
  191.4420  177.8970  142.9470 N   0  0  0  0  0  2  0  0  0  0  0  0
  196.9980  172.1220  145.7080 C   0  0  2  0  0  3  0  0  0  0  0  0
  194.5850  174.1930  142.8430 C   0  0  0  0  0  0  0  0  0  0  0  0
  194.6020  172.4880  144.7180 C   0  0  1  0  0  3  0  0  0  0  0  0
  196.3040  174.1600  145.6890 C   0  0  0  0  0  2  0  0  0  0  0  0
  197.6630  173.4840  145.5900 C   0  0  0  0  0  2  0  0  0  0  0  0
  197.2430  171.9310  143.1390 C   0  0  0  0  0  2  0  0  0  0  0  0
  191.7800  176.6580  144.9840 C   0  0  2  0  0  3  0  0  0  0  0  0
  189.0000  175.4820  146.2220 C   0  0  0  0  0  2  0  0  0  0  0  0
  193.2160  173.0400  145.0680 C   0  0  0  0  0  2  0  0  0  0  0  0
  195.8340  172.0310  142.5800 C   0  0  0  0  0  2  0  0  0  0  0  0
  191.8020  175.1380  145.2580 C   0  0  1  0  0  3  0  0  0  0  0  0
  190.3980  178.2970  143.8890 C   0  0  0  0  0  2  0  0  0  0  0  0
  195.0300  172.9360  143.3870 N   0  0  0  0  0  0  0  0  0  0  0  0
  197.2470  171.2140  144.4870 C   0  0  0  0  0  2  0  0  0  0  0  0
  189.2060  176.3530  144.9690 C   0  0  1  0  0  3  0  0  0  0  0  0
  193.6540  174.9730  143.5470 C   0  0  0  0  0  0  0  0  0  0  0  0
  195.6310  172.8000  145.8240 C   0  0  2  0  0  3  0  0  0  0  0  0
  193.1880  174.5640  144.9260 C   0  0  2  0  0  3  0  0  0  0  0  0
  194.5650  175.7640  141.0710 C   0  0  0  0  0  3  0  0  0  0  0  0
  190.1630  175.5130  147.2170 C   0  0  0  0  0  2  0  0  0  0  0  0
  195.0160  174.6070  141.6210 N   0  0  0  0  0  0  0  0  0  0  0  0
  191.4180  174.8010  146.7050 C   0  0  0  0  0  2  0  0  0  0  0  0
  190.4060  177.3230  145.0640 C   0  0  1  0  0  3  0  0  0  0  0  0
  193.6630  176.5310  141.7360 N   0  0  0  0  0  0  0  0  0  0  0  0
  192.2200  176.9560  143.6360 N   0  0  0  0  0  0  0  0  0  0  0  0
  189.2930  175.5390  143.8340 O   0  0  0  0  0  0  0  0  0  0  0  0
  187.9720  175.3180  143.4370 C   0  0  0  0  0  2  0  0  0  0  0  0
  187.3270  177.8150  140.8860 O   0  0  0  0  0  0  0  0  0  0  0  0
  186.6260  177.4150  142.9670 O   0  0  0  0  0  0  0  0  0  0  0  0
  187.5240  176.4400  142.5720 C   0  0  0  0  0  0  0  0  0  0  0  0
  186.4680  178.3320  141.8950 C   0  0  0  0  0  2  0  0  0  0  0  0
  187.9520  176.6640  141.3470 C   0  0  0  0  0  3  0  0  0  0  0  0
  1 18  1  0  0  0  0
  1 27  1  0  0  0  0
  2 27  1  0  0  0  0
  2 14  1  0  0  0  0
  3 16  1  6  0  0  0
  3 19  1  0  0  0  0
  4 15  1  0  0  0  0
  4 18  2  0  0  0  0
  5 11  1  1  0  0  0
  5 19  1  0  0  0  0
  7  6  1  0  0  0  0
  7  3  1  0  0  0  0
  8 16  1  0  0  0  0
  9 27  1  6  0  0  0
  9 25  1  0  0  0  0
  9 13  1  0  0  0  0
 10 22  1  0  0  0  0
 12  8  1  0  0  0  0
 12 15  1  0  0  0  0
 13 24  1  1  0  0  0
 15  5  1  0  0  0  0
 17 28  1  6  0  0  0
 17 25  1  0  0  0  0
 17 10  1  0  0  0  0
 18 20  1  0  0  0  0
 19  6  1  6  0  0  0
 20 11  1  6  0  0  0
 20 13  1  0  0  0  0
 21 23  2  0  0  0  0
 21 26  1  0  0  0  0
 23  4  1  0  0  0  0
 24 22  1  0  0  0  0
 25 14  1  6  0  0  0
 26  1  2  0  0  0  0
 29 28  1  0  0  0  0
 30 34  1  0  0  0  0
 30 33  1  0  0  0  0
 32 31  1  0  0  0  0
 32 29  1  0  0  0  0
 33 31  1  0  0  0  0
 34 32  2  0  0  0  0
M  END
>  <MODEL>
7

>  <REMARK>
 VINA RESULT:      -7.4      3.198      7.740
  Name = 
  3 active torsions:
  status: ('A' for Active; 'I' for Inactive)
    1  A    between atoms: C_17  and  O_28
    2  A    between atoms: O_28  and  C_29
    3  A    between atoms: C_29  and  C_32
                            x       y       z     vdW  Elec       q    Type
                         _______ _______ _______ _____ _____    ______ ____

>  <TORSDO>
F 3

$$$$
=
 OpenBabel11112417473D

 34 41  0  0  1  0  0  0  0  0999 V2000
  193.1420  175.2450  143.3890 C   0  0  0  0  0  0  0  0  0  0  0  0
  193.5720  176.5630  145.4350 N   0  0  0  0  0  2  0  0  0  0  0  0
  190.8380  170.4300  140.2630 C   0  0  2  0  0  3  0  0  0  0  0  0
  192.3940  174.2770  141.3140 C   0  0  0  0  0  0  0  0  0  0  0  0
  190.3270  172.8130  141.2180 C   0  0  1  0  0  3  0  0  0  0  0  0
  192.0390  171.0320  141.9460 C   0  0  0  0  0  2  0  0  0  0  0  0
  192.2520  170.1330  140.7380 C   0  0  0  0  0  2  0  0  0  0  0  0
  191.8950  172.1130  138.6050 C   0  0  0  0  0  2  0  0  0  0  0  0
  191.9510  174.7880  145.5640 C   0  0  2  0  0  3  0  0  0  0  0  0
  189.1460  175.7370  146.9340 C   0  0  0  0  0  2  0  0  0  0  0  0
  189.9010  173.5430  142.4970 C   0  0  0  0  0  2  0  0  0  0  0  0
  191.4970  173.4910  139.1030 C   0  0  0  0  0  2  0  0  0  0  0  0
  190.6980  174.4910  144.7110 C   0  0  1  0  0  3  0  0  0  0  0  0
  192.9550  176.6210  146.7590 C   0  0  0  0  0  2  0  0  0  0  0  0
  191.4380  173.5080  140.5580 N   0  0  0  0  0  0  0  0  0  0  0  0
  190.7890  171.0940  138.8720 C   0  0  0  0  0  2  0  0  0  0  0  0
  190.4330  176.5510  146.7080 C   0  0  1  0  0  3  0  0  0  0  0  0
  192.2200  174.4490  142.6950 C   0  0  0  0  0  0  0  0  0  0  0  0
  190.6160  171.3220  141.4860 C   0  0  2  0  0  3  0  0  0  0  0  0
  191.0990  173.7480  143.4280 C   0  0  2  0  0  3  0  0  0  0  0  0
  194.3150  175.6610  141.3780 C   0  0  0  0  0  3  0  0  0  0  0  0
  189.3370  174.2180  146.8880 C   0  0  0  0  0  2  0  0  0  0  0  0
  193.4360  174.8890  140.6880 N   0  0  0  0  0  0  0  0  0  0  0  0
  189.6430  173.6880  145.4850 C   0  0  0  0  0  2  0  0  0  0  0  0
  191.7300  175.7110  146.7620 C   0  0  1  0  0  3  0  0  0  0  0  0
  194.1620  175.8400  142.7160 N   0  0  0  0  0  0  0  0  0  0  0  0
  192.9630  175.4790  144.7900 N   0  0  0  0  0  0  0  0  0  0  0  0
  190.3370  177.2690  145.5110 O   0  0  0  0  0  0  0  0  0  0  0  0
  188.9770  177.5410  145.3520 C   0  0  0  0  0  2  0  0  0  0  0  0
  188.9350  178.0450  141.7600 O   0  0  0  0  0  0  0  0  0  0  0  0
  187.4410  178.1090  143.4160 O   0  0  0  0  0  0  0  0  0  0  0  0
  188.6880  177.7780  143.9140 C   0  0  0  0  0  0  0  0  0  0  0  0
  187.5570  178.2900  142.0130 C   0  0  0  0  0  2  0  0  0  0  0  0
  189.5840  177.7420  142.9490 C   0  0  0  0  0  3  0  0  0  0  0  0
  1 27  1  0  0  0  0
  2 14  1  0  0  0  0
  3 16  1  6  0  0  0
  3  7  1  0  0  0  0
  3 19  1  0  0  0  0
  4 18  1  0  0  0  0
  5 19  1  0  0  0  0
  5 11  1  1  0  0  0
  7  6  1  0  0  0  0
  8 16  1  0  0  0  0
  8 12  1  0  0  0  0
  9 27  1  6  0  0  0
  9 25  1  0  0  0  0
 12 15  1  0  0  0  0
 13 24  1  1  0  0  0
 13  9  1  0  0  0  0
 15  5  1  0  0  0  0
 15  4  1  0  0  0  0
 17 28  1  6  0  0  0
 17 25  1  0  0  0  0
 17 10  1  0  0  0  0
 18  1  2  0  0  0  0
 18 20  1  0  0  0  0
 19  6  1  1  0  0  0
 20 11  1  6  0  0  0
 20 13  1  0  0  0  0
 21 26  2  0  0  0  0
 22 10  1  0  0  0  0
 23  4  2  0  0  0  0
 23 21  1  0  0  0  0
 24 22  1  0  0  0  0
 25 14  1  6  0  0  0
 26  1  1  0  0  0  0
 27  2  1  0  0  0  0
 29 28  1  0  0  0  0
 30 33  1  0  0  0  0
 30 34  1  0  0  0  0
 31 32  1  0  0  0  0
 32 29  1  0  0  0  0
 33 31  1  0  0  0  0
 34 32  2  0  0  0  0
M  END
>  <MODEL>
8

>  <REMARK>
 VINA RESULT:      -7.4      3.271      6.447
  Name = 
  3 active torsions:
  status: ('A' for Active; 'I' for Inactive)
    1  A    between atoms: C_17  and  O_28
    2  A    between atoms: O_28  and  C_29
    3  A    between atoms: C_29  and  C_32
                            x       y       z     vdW  Elec       q    Type
                         _______ _______ _______ _____ _____    ______ ____

>  <TORSDO>
F 3

$$$$
=
 OpenBabel11112417473D

 34 41  0  0  1  0  0  0  0  0999 V2000
  193.2100  176.1400  142.9760 C   0  0  0  0  0  0  0  0  0  0  0  0
  191.4100  177.8330  142.9170 N   0  0  0  0  0  2  0  0  0  0  0  0
  197.0390  172.1990  145.8160 C   0  0  2  0  0  3  0  0  0  0  0  0
  194.6330  174.1980  142.8950 C   0  0  0  0  0  0  0  0  0  0  0  0
  194.6540  172.5070  144.7820 C   0  0  1  0  0  3  0  0  0  0  0  0
  196.3030  174.2220  145.7690 C   0  0  0  0  0  2  0  0  0  0  0  0
  197.6780  173.5750  145.6990 C   0  0  0  0  0  2  0  0  0  0  0  0
  197.3330  171.9960  143.2520 C   0  0  0  0  0  2  0  0  0  0  0  0
  191.7390  176.6180  144.9680 C   0  0  2  0  0  3  0  0  0  0  0  0
  188.9640  175.3900  146.1670 C   0  0  0  0  0  2  0  0  0  0  0  0
  193.2510  173.0310  145.1040 C   0  0  0  0  0  2  0  0  0  0  0  0
  195.9320  172.0610  142.6690 C   0  0  0  0  0  2  0  0  0  0  0  0
  191.7890  175.1000  145.2540 C   0  0  1  0  0  3  0  0  0  0  0  0
  190.3420  178.2180  143.8370 C   0  0  0  0  0  2  0  0  0  0  0  0
  195.0950  172.9540  143.4560 N   0  0  0  0  0  0  0  0  0  0  0  0
  197.3290  171.2880  144.6060 C   0  0  0  0  0  2  0  0  0  0  0  0
  189.1730  176.2570  144.9120 C   0  0  1  0  0  3  0  0  0  0  0  0
  193.6730  174.9620  143.5760 C   0  0  0  0  0  0  0  0  0  0  0  0
  195.6570  172.8490  145.9030 C   0  0  2  0  0  3  0  0  0  0  0  0
  193.1930  174.5540  144.9510 C   0  0  2  0  0  3  0  0  0  0  0  0
  194.6100  175.7550  141.1100 C   0  0  0  0  0  3  0  0  0  0  0  0
  190.1090  175.4540  147.1820 C   0  0  0  0  0  2  0  0  0  0  0  0
  195.0760  174.6120  141.6760 N   0  0  0  0  0  0  0  0  0  0  0  0
  191.3870  174.7650  146.6970 C   0  0  0  0  0  2  0  0  0  0  0  0
  190.3500  177.2530  145.0190 C   0  0  1  0  0  3  0  0  0  0  0  0
  193.6800  176.5070  141.7540 N   0  0  0  0  0  0  0  0  0  0  0  0
  192.1960  176.9150  143.6250 N   0  0  0  0  0  0  0  0  0  0  0  0
  189.2970  175.4370  143.7840 O   0  0  0  0  0  0  0  0  0  0  0  0
  188.0770  175.5460  143.1130 C   0  0  0  0  0  2  0  0  0  0  0  0
  188.1280  172.9930  140.5360 O   0  0  0  0  0  0  0  0  0  0  0  0
  188.3060  175.2160  140.6090 O   0  0  0  0  0  0  0  0  0  0  0  0
  188.1160  174.7130  141.8830 C   0  0  0  0  0  0  0  0  0  0  0  0
  188.3180  174.1280  139.6990 C   0  0  0  0  0  2  0  0  0  0  0  0
  188.0150  173.4000  141.8590 C   0  0  0  0  0  3  0  0  0  0  0  0
  1 18  1  0  0  0  0
  1 27  1  0  0  0  0
  2 27  1  0  0  0  0
  2 14  1  0  0  0  0
  3 16  1  6  0  0  0
  3 19  1  0  0  0  0
  4 15  1  0  0  0  0
  4 18  2  0  0  0  0
  5 11  1  1  0  0  0
  5 19  1  0  0  0  0
  7  6  1  0  0  0  0
  7  3  1  0  0  0  0
  8 16  1  0  0  0  0
  9 27  1  6  0  0  0
  9 25  1  0  0  0  0
  9 13  1  0  0  0  0
 10 22  1  0  0  0  0
 12  8  1  0  0  0  0
 12 15  1  0  0  0  0
 13 24  1  1  0  0  0
 15  5  1  0  0  0  0
 17 28  1  6  0  0  0
 17 25  1  0  0  0  0
 17 10  1  0  0  0  0
 18 20  1  0  0  0  0
 19  6  1  6  0  0  0
 20 11  1  6  0  0  0
 20 13  1  0  0  0  0
 21 23  2  0  0  0  0
 21 26  1  0  0  0  0
 23  4  1  0  0  0  0
 24 22  1  0  0  0  0
 25 14  1  6  0  0  0
 26  1  2  0  0  0  0
 29 28  1  0  0  0  0
 30 34  1  0  0  0  0
 31 32  1  0  0  0  0
 32 29  1  0  0  0  0
 33 30  1  0  0  0  0
 33 31  1  0  0  0  0
 34 32  2  0  0  0  0
M  END
>  <MODEL>
9

>  <REMARK>
 VINA RESULT:      -7.3      3.111      7.587
  Name = 
  3 active torsions:
  status: ('A' for Active; 'I' for Inactive)
    1  A    between atoms: C_17  and  O_28
    2  A    between atoms: O_28  and  C_29
    3  A    between atoms: C_29  and  C_32
                            x       y       z     vdW  Elec       q    Type
                         _______ _______ _______ _____ _____    ______ ____

>  <TORSDO>
F 3

$$$$
