=
 OpenBabel11112416383D

 32 37  0  0  1  0  0  0  0  0999 V2000
  194.8060  172.8670  141.3640 C   0  0  0  0  0  3  0  0  0  0  0  0
  190.0280  174.8500  143.2500 C   0  0  0  0  0  0  0  0  0  0  0  0
  191.1670  176.2650  147.8790 C   0  0  0  0  0  3  0  0  0  0  0  0
  190.2830  177.3410  147.7890 C   0  0  0  0  0  3  0  0  0  0  0  0
  188.0970  176.0430  142.1390 C   0  0  0  0  0  0  0  0  0  0  0  0
  187.1400  177.0490  142.1750 C   0  0  0  0  0  0  0  0  0  0  0  0
  192.1710  174.1840  142.2350 N   0  0  2  0  0  0  0  0  0  0  0  0
  191.6260  173.5490  144.5800 C   0  0  0  0  0  2  0  0  0  0  0  0
  185.9200  178.8230  142.9700 C   0  0  1  0  0  3  0  0  0  0  0  0
  193.6530  172.6680  143.5450 C   0  0  0  0  0  2  0  0  0  0  0  0
  191.2750  175.3610  146.8200 C   0  0  0  0  0  3  0  0  0  0  0  0
  190.6090  174.5900  144.5660 N   0  0  0  0  0  0  0  0  0  0  0  0
  190.5020  175.5250  145.6580 C   0  0  1  0  0  3  0  0  0  0  0  0
  188.7730  176.7730  144.3720 C   0  0  0  0  0  0  0  0  0  0  0  0
  185.5050  178.3900  141.6270 N   0  0  0  0  0  0  0  0  0  0  0  0
  194.0000  173.6970  140.6970 C   0  0  0  0  0  3  0  0  0  0  0  0
  192.7340  173.8920  143.5760 C   0  0  1  0  0  3  0  0  0  0  0  0
  186.1880  177.4030  141.1930 N   0  0  0  0  0  0  0  0  0  0  0  0
  193.2190  174.7650  141.4000 C   0  0  0  0  0  2  0  0  0  0  0  0
  194.9800  172.9510  142.8500 C   0  0  1  0  0  3  0  0  0  0  0  0
  189.5060  177.5100  146.6420 C   0  0  0  0  0  3  0  0  0  0  0  0
  189.6100  176.6080  145.5730 C   0  0  0  0  0  0  0  0  0  0  0  0
  187.8100  177.7470  144.3410 N   0  0  0  0  0  0  0  0  0  0  0  0
  191.1630  175.2460  142.3160 C   0  0  0  0  0  2  0  0  0  0  0  0
  188.2110  175.2120  141.0300 O   0  0  0  0  0  1  0  0  0  0  0  0
  184.8330  178.6060  143.9090 N   0  0  0  0  0  1  0  0  0  0  0  0
  188.9420  175.8980  143.2620 C   0  0  0  0  0  0  0  0  0  0  0  0
  187.0180  177.8660  143.2470 C   0  0  0  0  0  0  0  0  0  0  0  0
  195.9720  171.9720  143.2690 N   0  0  0  0  0  2  0  0  0  0  0  0
  196.9740  172.2620  144.2460 C   0  0  0  0  0  0  0  0  0  0  0  0
  197.0480  173.4040  144.7720 O   0  0  0  0  0  0  0  0  0  0  0  0
  197.9410  171.2060  144.6410 C   0  0  0  0  0  1  0  0  0  0  0  0
  1 20  1  0  0  0  0
  2 27  2  0  0  0  0
  2 12  1  0  0  0  0
  4  3  1  0  0  0  0
  5  6  2  0  0  0  0
  5 27  1  0  0  0  0
  6 28  1  0  0  0  0
  7 19  1  6  0  0  0
  7 24  1  0  0  0  0
  7 17  1  0  0  0  0
  9 28  1  0  0  0  0
  9 26  1  1  0  0  0
 11  3  2  0  0  0  0
 12  8  1  0  0  0  0
 12 13  1  0  0  0  0
 13 11  1  1  0  0  0
 14 22  2  0  0  0  0
 15  9  1  0  0  0  0
 16  1  2  0  0  0  0
 16 19  1  0  0  0  0
 17 10  1  6  0  0  0
 17  8  1  0  0  0  0
 18 15  2  0  0  0  0
 18  6  1  0  0  0  0
 20 29  1  1  0  0  0
 20 10  1  0  0  0  0
 21  4  2  0  0  0  0
 22 13  1  0  0  0  0
 22 21  1  0  0  0  0
 23 14  1  0  0  0  0
 24  2  1  0  0  0  0
 25  5  1  0  0  0  0
 27 14  1  0  0  0  0
 28 23  2  0  0  0  0
 29 30  1  0  0  0  0
 30 32  1  0  0  0  0
 30 31  2  0  0  0  0
M  END
>  <MODEL>
1

>  <REMARK>
 VINA RESULT:      -7.8      0.000      0.000
  Name = 
  1 active torsions:
  status: ('A' for Active; 'I' for Inactive)
    1  A    between atoms: C_20  and  N_29
                            x       y       z     vdW  Elec       q    Type
                         _______ _______ _______ _____ _____    ______ ____

>  <TORSDO>
F 1

$$$$
=
 OpenBabel11112416383D

 32 37  0  0  1  0  0  0  0  0999 V2000
  185.8270  178.3300  144.2190 C   0  0  0  0  0  3  0  0  0  0  0  0
  189.7340  174.5170  143.5050 C   0  0  0  0  0  0  0  0  0  0  0  0
  189.5580  173.6560  138.6100 C   0  0  0  0  0  3  0  0  0  0  0  0
  190.9390  173.4540  138.5770 C   0  0  0  0  0  3  0  0  0  0  0  0
  191.9350  174.0650  144.6610 C   0  0  0  0  0  0  0  0  0  0  0  0
  193.2770  173.7160  144.5720 C   0  0  0  0  0  0  0  0  0  0  0  0
  188.1940  176.4010  143.8830 N   0  0  2  0  0  0  0  0  0  0  0  0
  187.5870  174.5600  142.3200 C   0  0  0  0  0  2  0  0  0  0  0  0
  195.2750  173.0960  143.6280 C   0  0  1  0  0  3  0  0  0  0  0  0
  185.9340  176.2780  142.8390 C   0  0  0  0  0  2  0  0  0  0  0  0
  188.9200  173.9030  139.8280 C   0  0  0  0  0  3  0  0  0  0  0  0
  188.9970  174.2030  142.2810 N   0  0  0  0  0  0  0  0  0  0  0  0
  189.6550  173.9530  141.0240 C   0  0  0  0  0  0  0  0  0  0  0  0
  191.8220  173.7660  142.2370 C   0  0  0  0  0  0  0  0  0  0  0  0
  195.3530  173.2720  145.0870 N   0  0  0  0  0  0  0  0  0  0  0  0
  187.0540  178.3770  144.7460 C   0  0  0  0  0  3  0  0  0  0  0  0
  187.4360  176.0490  142.6560 C   0  0  1  0  0  3  0  0  0  0  0  0
  194.2370  173.6160  145.6030 N   0  0  0  0  0  0  0  0  0  0  0  0
  188.2460  177.8560  144.0030 C   0  0  0  0  0  2  0  0  0  0  0  0
  185.5670  177.7580  142.8590 C   0  0  1  0  0  3  0  0  0  0  0  0
  191.6790  173.4960  139.7590 C   0  0  0  0  0  2  0  0  0  0  0  0
  191.0450  173.7460  140.9860 C   0  0  0  0  0  0  0  0  0  0  0  0
  193.1510  173.4330  142.2200 N   0  0  0  0  0  0  0  0  0  0  0  0
  189.6020  176.0130  143.7510 C   0  0  0  0  0  2  0  0  0  0  0  0
  191.3620  174.3710  145.8900 O   0  0  0  0  0  1  0  0  0  0  0  0
  195.5290  171.7050  143.2920 N   0  0  0  0  0  1  0  0  0  0  0  0
  191.1830  174.0970  143.4650 C   0  0  0  0  0  0  0  0  0  0  0  0
  193.8490  173.4170  143.3820 C   0  0  0  0  0  0  0  0  0  0  0  0
  184.1560  177.9190  142.5370 N   0  0  0  0  0  2  0  0  0  0  0  0
  183.6970  178.2070  141.2150 C   0  0  0  0  0  0  0  0  0  0  0  0
  184.5140  178.3570  140.2680 O   0  0  0  0  0  0  0  0  0  0  0  0
  182.2400  178.3360  140.9560 C   0  0  0  0  0  1  0  0  0  0  0  0
  1 16  2  0  0  0  0
  2 24  1  0  0  0  0
  3 11  1  0  0  0  0
  4  3  2  0  0  0  0
  4 21  1  0  0  0  0
  5 25  1  0  0  0  0
  6  5  2  0  0  0  0
  6 18  1  0  0  0  0
  7 24  1  6  0  0  0
  7 19  1  0  0  0  0
  9 26  1  1  0  0  0
  9 15  1  0  0  0  0
 10 20  1  0  0  0  0
 11 13  2  0  0  0  0
 12  8  1  0  0  0  0
 12  2  1  0  0  0  0
 13 12  1  0  0  0  0
 14 27  1  0  0  0  0
 15 18  2  0  0  0  0
 17  8  1  1  0  0  0
 17 10  1  0  0  0  0
 17  7  1  0  0  0  0
 19 16  1  0  0  0  0
 20 29  1  1  0  0  0
 20  1  1  0  0  0  0
 21 22  1  0  0  0  0
 22 13  1  0  0  0  0
 22 14  2  0  0  0  0
 23 14  1  0  0  0  0
 23 28  2  0  0  0  0
 27  2  2  0  0  0  0
 27  5  1  0  0  0  0
 28  9  1  0  0  0  0
 28  6  1  0  0  0  0
 30 29  1  0  0  0  0
 31 30  2  0  0  0  0
 32 30  1  0  0  0  0
M  END
>  <MODEL>
2

>  <REMARK>
 VINA RESULT:      -7.7      2.478      8.995
  Name = 
  1 active torsions:
  status: ('A' for Active; 'I' for Inactive)
    1  A    between atoms: C_20  and  N_29
                            x       y       z     vdW  Elec       q    Type
                         _______ _______ _______ _____ _____    ______ ____

>  <TORSDO>
F 1

$$$$
=
 OpenBabel11112416383D

 32 37  0  0  1  0  0  0  0  0999 V2000
  185.1370  178.2910  140.5070 C   0  0  0  0  0  3  0  0  0  0  0  0
  189.4650  177.5620  143.8320 C   0  0  0  0  0  0  0  0  0  0  0  0
  187.4250  175.4870  147.8640 C   0  0  0  0  0  3  0  0  0  0  0  0
  188.5680  174.7120  148.0680 C   0  0  0  0  0  3  0  0  0  0  0  0
  191.9040  177.0570  143.4030 C   0  0  0  0  0  0  0  0  0  0  0  0
  193.0530  176.3580  143.7490 C   0  0  0  0  0  0  0  0  0  0  0  0
  187.6410  177.6900  142.1820 N   0  0  2  0  0  0  0  0  0  0  0  0
  187.2290  178.2440  144.5740 C   0  0  0  0  0  2  0  0  0  0  0  0
  194.4320  174.9310  144.9040 C   0  0  1  0  0  3  0  0  0  0  0  0
  185.4540  178.6120  142.9410 C   0  0  0  0  0  2  0  0  0  0  0  0
  187.3890  176.4140  146.8200 C   0  0  0  0  0  3  0  0  0  0  0  0
  188.4590  177.5330  144.8920 N   0  0  0  0  0  0  0  0  0  0  0  0
  188.4930  176.5740  145.9680 C   0  0  1  0  0  3  0  0  0  0  0  0
  190.8190  175.9750  145.3090 C   0  0  0  0  0  0  0  0  0  0  0  0
  195.0940  175.5790  143.7610 N   0  0  0  0  0  0  0  0  0  0  0  0
  186.3150  177.7800  140.1380 C   0  0  0  0  0  3  0  0  0  0  0  0
  186.6340  177.6950  143.2720 C   0  0  1  0  0  3  0  0  0  0  0  0
  194.3200  176.3700  143.1250 N   0  0  0  0  0  0  0  0  0  0  0  0
  187.1180  176.9150  141.0600 C   0  0  0  0  0  2  0  0  0  0  0  0
  184.5480  178.0320  141.8600 C   0  0  1  0  0  3  0  0  0  0  0  0
  189.6730  174.8670  147.2300 C   0  0  0  0  0  3  0  0  0  0  0  0
  189.6440  175.7940  146.1780 C   0  0  0  0  0  0  0  0  0  0  0  0
  191.9850  175.3140  145.5930 N   0  0  0  0  0  0  0  0  0  0  0  0
  188.8400  176.9480  142.5880 C   0  0  0  0  0  2  0  0  0  0  0  0
  191.8980  177.9160  142.3100 O   0  0  0  0  0  1  0  0  0  0  0  0
  195.0650  175.3610  146.1390 N   0  0  0  0  0  1  0  0  0  0  0  0
  190.7510  176.8610  144.1970 C   0  0  0  0  0  0  0  0  0  0  0  0
  193.0730  175.5160  144.8100 C   0  0  0  0  0  0  0  0  0  0  0  0
  183.2340  178.6550  141.9340 N   0  0  0  0  0  2  0  0  0  0  0  0
  182.1870  178.3540  141.0100 C   0  0  0  0  0  0  0  0  0  0  0  0
  182.3760  177.5410  140.0660 O   0  0  0  0  0  0  0  0  0  0  0  0
  180.8640  179.0130  141.1600 C   0  0  0  0  0  1  0  0  0  0  0  0
  1 20  1  0  0  0  0
  2 27  2  0  0  0  0
  2 12  1  0  0  0  0
  3  4  1  0  0  0  0
  5  6  2  0  0  0  0
  5 27  1  0  0  0  0
  6 28  1  0  0  0  0
  7 19  1  6  0  0  0
  7 24  1  0  0  0  0
  7 17  1  0  0  0  0
  8 12  1  0  0  0  0
  9 26  1  1  0  0  0
 11  3  2  0  0  0  0
 12 13  1  0  0  0  0
 13 22  1  0  0  0  0
 13 11  1  1  0  0  0
 14 23  1  0  0  0  0
 14 22  2  0  0  0  0
 15  9  1  0  0  0  0
 16  1  2  0  0  0  0
 16 19  1  0  0  0  0
 17 10  1  6  0  0  0
 17  8  1  0  0  0  0
 18  6  1  0  0  0  0
 18 15  2  0  0  0  0
 20 29  1  6  0  0  0
 20 10  1  0  0  0  0
 21  4  2  0  0  0  0
 22 21  1  0  0  0  0
 24  2  1  0  0  0  0
 25  5  1  0  0  0  0
 27 14  1  0  0  0  0
 28  9  1  0  0  0  0
 28 23  2  0  0  0  0
 30 32  1  0  0  0  0
 30 29  1  0  0  0  0
 31 30  2  0  0  0  0
M  END
>  <MODEL>
3

>  <REMARK>
 VINA RESULT:      -7.6      2.857      8.532
  Name = 
  1 active torsions:
  status: ('A' for Active; 'I' for Inactive)
    1  A    between atoms: C_20  and  N_29
                            x       y       z     vdW  Elec       q    Type
                         _______ _______ _______ _____ _____    ______ ____

>  <TORSDO>
F 1

$$$$
=
 OpenBabel11112416383D

 32 37  0  0  1  0  0  0  0  0999 V2000
  195.6830  175.1300  145.4980 C   0  0  0  0  0  3  0  0  0  0  0  0
  190.5100  176.8910  144.8270 C   0  0  0  0  0  0  0  0  0  0  0  0
  189.0020  174.3860  140.8040 C   0  0  0  0  0  3  0  0  0  0  0  0
  187.7080  174.2970  141.3210 C   0  0  0  0  0  3  0  0  0  0  0  0
  188.7160  177.6300  146.4460 C   0  0  0  0  0  0  0  0  0  0  0  0
  187.3800  177.6200  146.8280 C   0  0  0  0  0  0  0  0  0  0  0  0
  192.7330  175.9750  145.3590 N   0  0  2  0  0  0  0  0  0  0  0  0
  192.0800  176.4290  143.0000 C   0  0  0  0  0  2  0  0  0  0  0  0
  185.1330  177.1550  146.7660 C   0  0  1  0  0  3  0  0  0  0  0  0
  194.3700  175.7460  143.4930 C   0  0  0  0  0  2  0  0  0  0  0  0
  189.9840  175.0930  141.5030 C   0  0  0  0  0  3  0  0  0  0  0  0
  190.6940  176.4470  143.4460 N   0  0  0  0  0  0  0  0  0  0  0  0
  189.6830  175.7150  142.7260 C   0  0  0  0  0  0  0  0  0  0  0  0
  188.0440  176.2990  144.5070 C   0  0  0  0  0  0  0  0  0  0  0  0
  185.5270  177.9570  147.9340 N   0  0  0  0  0  0  0  0  0  0  0  0
  194.7760  175.2430  146.4720 C   0  0  0  0  0  3  0  0  0  0  0  0
  192.9190  175.5620  143.9460 C   0  0  1  0  0  3  0  0  0  0  0  0
  186.7780  178.2120  147.9600 N   0  0  0  0  0  0  0  0  0  0  0  0
  193.3250  174.9610  146.2280 C   0  0  0  0  0  2  0  0  0  0  0  0
  195.3090  174.7150  144.1080 C   0  0  1  0  0  3  0  0  0  0  0  0
  187.3970  174.9160  142.5320 C   0  0  0  0  0  2  0  0  0  0  0  0
  188.3780  175.6250  143.2410 C   0  0  0  0  0  0  0  0  0  0  0  0
  186.7450  176.3260  144.9440 N   0  0  0  0  0  0  0  0  0  0  0  0
  191.3120  175.9570  145.7210 C   0  0  0  0  0  2  0  0  0  0  0  0
  189.6690  178.2890  147.2140 O   0  0  0  0  0  1  0  0  0  0  0  0
  184.2450  177.9330  145.9190 N   0  0  0  0  0  1  0  0  0  0  0  0
  189.0640  176.9490  145.2580 C   0  0  0  0  0  0  0  0  0  0  0  0
  186.4420  176.9810  146.0910 C   0  0  0  0  0  0  0  0  0  0  0  0
  196.5170  174.6090  143.3020 N   0  0  0  0  0  2  0  0  0  0  0  0
  196.6900  173.6010  142.3040 C   0  0  0  0  0  0  0  0  0  0  0  0
  195.7950  172.7390  142.0980 O   0  0  0  0  0  0  0  0  0  0  0  0
  197.9410  173.5670  141.5040 C   0  0  0  0  0  1  0  0  0  0  0  0
  1 16  2  0  0  0  0
  2 27  2  0  0  0  0
  2 24  1  0  0  0  0
  3  4  2  0  0  0  0
  3 11  1  0  0  0  0
  4 21  1  0  0  0  0
  5  6  2  0  0  0  0
  5 25  1  0  0  0  0
  6 18  1  0  0  0  0
  7 24  1  1  0  0  0
  7 19  1  0  0  0  0
  8 12  1  0  0  0  0
  9 26  1  6  0  0  0
  9 15  1  0  0  0  0
 10 17  1  0  0  0  0
 10 20  1  0  0  0  0
 11 13  2  0  0  0  0
 12  2  1  0  0  0  0
 13 22  1  0  0  0  0
 13 12  1  0  0  0  0
 14 23  1  0  0  0  0
 14 27  1  0  0  0  0
 15 18  2  0  0  0  0
 17  8  1  6  0  0  0
 17  7  1  0  0  0  0
 19 16  1  0  0  0  0
 20 29  1  6  0  0  0
 20  1  1  0  0  0  0
 21 22  1  0  0  0  0
 22 14  2  0  0  0  0
 23 28  2  0  0  0  0
 27  5  1  0  0  0  0
 28  9  1  0  0  0  0
 28  6  1  0  0  0  0
 30 29  1  0  0  0  0
 31 30  2  0  0  0  0
 32 30  1  0  0  0  0
M  END
>  <MODEL>
4

>  <REMARK>
 VINA RESULT:      -7.5      2.652      4.325
  Name = 
  1 active torsions:
  status: ('A' for Active; 'I' for Inactive)
    1  A    between atoms: C_20  and  N_29
                            x       y       z     vdW  Elec       q    Type
                         _______ _______ _______ _____ _____    ______ ____

>  <TORSDO>
F 1

$$$$
=
 OpenBabel11112416383D

 32 37  0  0  1  0  0  0  0  0999 V2000
  186.6620  176.1540  142.9250 C   0  0  0  0  0  3  0  0  0  0  0  0
  192.0820  175.5170  142.1900 C   0  0  0  0  0  0  0  0  0  0  0  0
  193.9360  176.5340  146.6900 C   0  0  0  0  0  3  0  0  0  0  0  0
  194.9420  175.5830  146.5120 C   0  0  0  0  0  3  0  0  0  0  0  0
  193.4550  173.9950  140.7110 C   0  0  0  0  0  0  0  0  0  0  0  0
  194.5600  173.1690  140.5540 C   0  0  0  0  0  0  0  0  0  0  0  0
  189.6360  175.5250  142.4840 N   0  0  2  0  0  0  0  0  0  0  0  0
  191.0530  177.2510  143.5850 C   0  0  0  0  0  2  0  0  0  0  0  0
  196.5020  172.0590  141.0720 C   0  0  1  0  0  3  0  0  0  0  0  0
  188.6240  177.4410  143.7150 C   0  0  0  0  0  2  0  0  0  0  0  0
  193.0320  176.7930  145.6580 C   0  0  0  0  0  3  0  0  0  0  0  0
  192.1930  176.3730  143.3700 N   0  0  0  0  0  0  0  0  0  0  0  0
  193.1230  176.1030  144.4380 C   0  0  1  0  0  3  0  0  0  0  0  0
  194.2630  174.4400  142.9760 C   0  0  0  0  0  0  0  0  0  0  0  0
  196.0240  171.7860  139.7080 N   0  0  0  0  0  0  0  0  0  0  0  0
  187.2380  175.1290  142.2900 C   0  0  0  0  0  3  0  0  0  0  0  0
  189.7650  176.4220  143.6590 C   0  0  1  0  0  3  0  0  0  0  0  0
  194.9450  172.4080  139.4280 N   0  0  0  0  0  0  0  0  0  0  0  0
  188.5570  174.5740  142.7330 C   0  0  0  0  0  2  0  0  0  0  0  0
  187.2950  176.8090  144.1150 C   0  0  1  0  0  3  0  0  0  0  0  0
  195.0450  174.8950  145.3030 C   0  0  0  0  0  3  0  0  0  0  0  0
  194.1390  175.1480  144.2610 C   0  0  0  0  0  0  0  0  0  0  0  0
  195.3290  173.6090  142.7550 N   0  0  0  0  0  0  0  0  0  0  0  0
  190.8240  174.6740  142.3500 C   0  0  0  0  0  2  0  0  0  0  0  0
  192.5430  174.1650  139.6750 O   0  0  0  0  0  1  0  0  0  0  0  0
  197.7800  172.7460  141.0120 N   0  0  0  0  0  1  0  0  0  0  0  0
  193.2930  174.6470  141.9540 C   0  0  0  0  0  0  0  0  0  0  0  0
  195.4550  172.9920  141.5540 C   0  0  0  0  0  0  0  0  0  0  0  0
  186.3980  177.8340  144.6280 N   0  0  0  0  0  2  0  0  0  0  0  0
  185.4360  177.5720  145.6510 C   0  0  0  0  0  0  0  0  0  0  0  0
  185.3130  176.4170  146.1390 O   0  0  0  0  0  0  0  0  0  0  0  0
  184.5670  178.6730  146.1410 C   0  0  0  0  0  1  0  0  0  0  0  0
  1 20  1  0  0  0  0
  2 24  1  0  0  0  0
  2 12  1  0  0  0  0
  4  3  1  0  0  0  0
  5 27  1  0  0  0  0
  6  5  2  0  0  0  0
  6 28  1  0  0  0  0
  7 24  1  1  0  0  0
  7 19  1  0  0  0  0
  7 17  1  0  0  0  0
  9 26  1  6  0  0  0
  9 28  1  0  0  0  0
 10 20  1  0  0  0  0
 11  3  2  0  0  0  0
 12  8  1  0  0  0  0
 12 13  1  0  0  0  0
 13 11  1  6  0  0  0
 14 22  2  0  0  0  0
 15  9  1  0  0  0  0
 16 19  1  0  0  0  0
 16  1  2  0  0  0  0
 17  8  1  6  0  0  0
 17 10  1  0  0  0  0
 18 15  2  0  0  0  0
 18  6  1  0  0  0  0
 20 29  1  6  0  0  0
 21  4  2  0  0  0  0
 22 13  1  0  0  0  0
 22 21  1  0  0  0  0
 23 14  1  0  0  0  0
 25  5  1  0  0  0  0
 27  2  2  0  0  0  0
 27 14  1  0  0  0  0
 28 23  2  0  0  0  0
 29 30  1  0  0  0  0
 30 31  2  0  0  0  0
 30 32  1  0  0  0  0
M  END
>  <MODEL>
5

>  <REMARK>
 VINA RESULT:      -7.4      2.602      8.135
  Name = 
  1 active torsions:
  status: ('A' for Active; 'I' for Inactive)
    1  A    between atoms: C_20  and  N_29
                            x       y       z     vdW  Elec       q    Type
                         _______ _______ _______ _____ _____    ______ ____

>  <TORSDO>
F 1

$$$$
=
 OpenBabel11112416383D

 32 37  0  0  1  0  0  0  0  0999 V2000
  186.7090  177.8410  144.3320 C   0  0  0  0  0  3  0  0  0  0  0  0
  190.4220  174.0040  142.9880 C   0  0  0  0  0  0  0  0  0  0  0  0
  189.8420  173.5770  138.0690 C   0  0  0  0  0  3  0  0  0  0  0  0
  191.2080  173.3420  137.9080 C   0  0  0  0  0  3  0  0  0  0  0  0
  192.6900  173.3960  143.9230 C   0  0  0  0  0  0  0  0  0  0  0  0
  194.0090  173.0220  143.6990 C   0  0  0  0  0  0  0  0  0  0  0  0
  188.9780  175.8880  143.6460 N   0  0  2  0  0  0  0  0  0  0  0  0
  188.1930  174.2060  141.9870 C   0  0  0  0  0  2  0  0  0  0  0  0
  195.9070  172.4340  142.5500 C   0  0  1  0  0  3  0  0  0  0  0  0
  186.6420  175.9150  142.7790 C   0  0  0  0  0  2  0  0  0  0  0  0
  189.3080  173.7330  139.3500 C   0  0  0  0  0  3  0  0  0  0  0  0
  189.5840  173.8170  141.8060 N   0  0  0  0  0  0  0  0  0  0  0  0
  190.1340  173.6600  140.4830 C   0  0  0  0  0  0  0  0  0  0  0  0
  192.3810  173.3120  141.4990 C   0  0  0  0  0  0  0  0  0  0  0  0
  196.1030  172.4810  144.0070 N   0  0  0  0  0  0  0  0  0  0  0  0
  187.9740  177.8100  144.7610 C   0  0  0  0  0  3  0  0  0  0  0  0
  188.1170  175.6630  142.4580 C   0  0  1  0  0  3  0  0  0  0  0  0
  195.0420  172.8080  144.6380 N   0  0  0  0  0  0  0  0  0  0  0  0
  189.0870  177.3250  143.8840 C   0  0  0  0  0  2  0  0  0  0  0  0
  186.3260  177.3960  142.9530 C   0  0  1  0  0  3  0  0  0  0  0  0
  192.0380  173.2620  139.0270 C   0  0  0  0  0  2  0  0  0  0  0  0
  191.5100  173.4210  140.3170 C   0  0  0  0  0  0  0  0  0  0  0  0
  193.6930  172.9480  141.3480 N   0  0  0  0  0  0  0  0  0  0  0  0
  190.3590  175.4760  143.3700 C   0  0  0  0  0  2  0  0  0  0  0  0
  192.2240  173.6100  145.2160 O   0  0  0  0  0  1  0  0  0  0  0  0
  196.0890  171.0720  142.0780 N   0  0  0  0  0  1  0  0  0  0  0  0
  191.8500  173.5520  142.7980 C   0  0  0  0  0  0  0  0  0  0  0  0
  194.4770  172.8130  142.4460 C   0  0  0  0  0  0  0  0  0  0  0  0
  184.9010  177.6210  142.7590 N   0  0  0  0  0  2  0  0  0  0  0  0
  184.3570  178.0830  141.5210 C   0  0  0  0  0  0  0  0  0  0  0  0
  185.1080  178.3390  140.5430 O   0  0  0  0  0  0  0  0  0  0  0  0
  182.8890  178.2690  141.3890 C   0  0  0  0  0  1  0  0  0  0  0  0
  1 16  2  0  0  0  0
  2 24  1  0  0  0  0
  3 11  1  0  0  0  0
  4  3  2  0  0  0  0
  4 21  1  0  0  0  0
  5 25  1  0  0  0  0
  6  5  2  0  0  0  0
  6 18  1  0  0  0  0
  7 24  1  6  0  0  0
  7 19  1  0  0  0  0
  9 26  1  1  0  0  0
  9 15  1  0  0  0  0
 10 20  1  0  0  0  0
 11 13  2  0  0  0  0
 12  8  1  0  0  0  0
 12  2  1  0  0  0  0
 13 12  1  0  0  0  0
 14 27  1  0  0  0  0
 15 18  2  0  0  0  0
 17  8  1  1  0  0  0
 17 10  1  0  0  0  0
 17  7  1  0  0  0  0
 19 16  1  0  0  0  0
 20 29  1  1  0  0  0
 20  1  1  0  0  0  0
 21 22  1  0  0  0  0
 22 13  1  0  0  0  0
 22 14  2  0  0  0  0
 23 14  1  0  0  0  0
 23 28  2  0  0  0  0
 27  2  2  0  0  0  0
 27  5  1  0  0  0  0
 28  9  1  0  0  0  0
 28  6  1  0  0  0  0
 30 29  1  0  0  0  0
 31 30  2  0  0  0  0
 32 30  1  0  0  0  0
M  END
>  <MODEL>
6

>  <REMARK>
 VINA RESULT:      -7.2      2.348      9.030
  Name = 
  1 active torsions:
  status: ('A' for Active; 'I' for Inactive)
    1  A    between atoms: C_20  and  N_29
                            x       y       z     vdW  Elec       q    Type
                         _______ _______ _______ _____ _____    ______ ____

>  <TORSDO>
F 1

$$$$
=
 OpenBabel11112416383D

 32 37  0  0  1  0  0  0  0  0999 V2000
  186.6910  176.7910  140.7810 C   0  0  0  0  0  3  0  0  0  0  0  0
  191.6450  176.4740  143.1640 C   0  0  0  0  0  0  0  0  0  0  0  0
  190.5480  176.5680  148.0130 C   0  0  0  0  0  3  0  0  0  0  0  0
  191.6090  175.7050  148.2900 C   0  0  0  0  0  3  0  0  0  0  0  0
  193.8050  175.3370  142.5080 C   0  0  0  0  0  0  0  0  0  0  0  0
  194.9190  174.5940  142.8780 C   0  0  0  0  0  0  0  0  0  0  0  0
  189.4700  176.3510  142.0140 N   0  0  2  0  0  0  0  0  0  0  0  0
  189.7840  177.8450  143.9820 C   0  0  0  0  0  2  0  0  0  0  0  0
  196.3890  173.4540  144.2230 C   0  0  1  0  0  3  0  0  0  0  0  0
  187.6870  177.9350  142.7370 C   0  0  0  0  0  2  0  0  0  0  0  0
  190.3360  177.0150  146.7070 C   0  0  0  0  0  3  0  0  0  0  0  0
  190.9660  177.0640  144.3160 N   0  0  0  0  0  0  0  0  0  0  0  0
  191.1810  176.6010  145.6640 C   0  0  1  0  0  3  0  0  0  0  0  0
  193.1600  175.3160  144.8670 C   0  0  0  0  0  0  0  0  0  0  0  0
  196.7860  173.4620  142.8060 N   0  0  0  0  0  0  0  0  0  0  0  0
  187.6600  175.9390  140.4330 C   0  0  0  0  0  3  0  0  0  0  0  0
  188.8010  176.9840  143.1790 C   0  0  1  0  0  3  0  0  0  0  0  0
  195.9630  174.0990  142.0660 N   0  0  0  0  0  0  0  0  0  0  0  0
  188.5800  175.3390  141.4520 C   0  0  0  0  0  2  0  0  0  0  0  0
  186.4640  177.1960  142.2060 C   0  0  1  0  0  3  0  0  0  0  0  0
  192.4580  175.2910  147.2620 C   0  0  0  0  0  3  0  0  0  0  0  0
  192.2500  175.7330  145.9470 C   0  0  0  0  0  0  0  0  0  0  0  0
  194.2770  174.5810  145.1620 N   0  0  0  0  0  0  0  0  0  0  0  0
  190.6420  175.5820  142.4460 C   0  0  0  0  0  2  0  0  0  0  0  0
  193.6010  175.6970  141.1810 O   0  0  0  0  0  1  0  0  0  0  0  0
  197.3760  174.1740  145.0090 N   0  0  0  0  0  1  0  0  0  0  0  0
  192.8950  175.7070  143.5230 C   0  0  0  0  0  0  0  0  0  0  0  0
  195.1290  174.2340  144.1660 C   0  0  0  0  0  0  0  0  0  0  0  0
  185.2970  178.0650  142.2720 N   0  0  0  0  0  2  0  0  0  0  0  0
  184.5240  178.2240  143.4630 C   0  0  0  0  0  0  0  0  0  0  0  0
  184.8170  177.5880  144.5110 O   0  0  0  0  0  0  0  0  0  0  0  0
  183.3580  179.1440  143.4640 C   0  0  0  0  0  1  0  0  0  0  0  0
  1 20  1  0  0  0  0
  2 27  2  0  0  0  0
  2 12  1  0  0  0  0
  3  4  1  0  0  0  0
  5  6  2  0  0  0  0
  5 27  1  0  0  0  0
  6 28  1  0  0  0  0
  7 19  1  1  0  0  0
  7 24  1  0  0  0  0
  7 17  1  0  0  0  0
  8 12  1  0  0  0  0
  9 26  1  1  0  0  0
 11  3  2  0  0  0  0
 12 13  1  0  0  0  0
 13 22  1  0  0  0  0
 13 11  1  1  0  0  0
 14 23  1  0  0  0  0
 14 22  2  0  0  0  0
 15  9  1  0  0  0  0
 16  1  2  0  0  0  0
 16 19  1  0  0  0  0
 17 10  1  6  0  0  0
 17  8  1  0  0  0  0
 18 15  2  0  0  0  0
 18  6  1  0  0  0  0
 20 29  1  6  0  0  0
 20 10  1  0  0  0  0
 21  4  2  0  0  0  0
 22 21  1  0  0  0  0
 24  2  1  0  0  0  0
 25  5  1  0  0  0  0
 27 14  1  0  0  0  0
 28  9  1  0  0  0  0
 28 23  2  0  0  0  0
 29 30  1  0  0  0  0
 30 32  1  0  0  0  0
 30 31  2  0  0  0  0
M  END
>  <MODEL>
7

>  <REMARK>
 VINA RESULT:      -7.2      2.204      8.048
  Name = 
  1 active torsions:
  status: ('A' for Active; 'I' for Inactive)
    1  A    between atoms: C_20  and  N_29
                            x       y       z     vdW  Elec       q    Type
                         _______ _______ _______ _____ _____    ______ ____

>  <TORSDO>
F 1

$$$$
=
 OpenBabel11112416383D

 32 37  0  0  1  0  0  0  0  0999 V2000
  195.2440  174.1940  145.5470 C   0  0  0  0  0  3  0  0  0  0  0  0
  190.6420  176.0060  143.1270 C   0  0  0  0  0  0  0  0  0  0  0  0
  189.5410  172.3380  139.9560 C   0  0  0  0  0  3  0  0  0  0  0  0
  188.1760  172.5500  140.1540 C   0  0  0  0  0  3  0  0  0  0  0  0
  188.7150  177.4300  143.9330 C   0  0  0  0  0  0  0  0  0  0  0  0
  187.3480  177.6710  143.9720 C   0  0  0  0  0  0  0  0  0  0  0  0
  192.5480  175.1690  144.4430 N   0  0  2  0  0  0  0  0  0  0  0  0
  192.4340  174.7820  141.9860 C   0  0  0  0  0  2  0  0  0  0  0  0
  185.1080  177.4010  143.5470 C   0  0  1  0  0  3  0  0  0  0  0  0
  194.4500  174.1410  143.2030 C   0  0  0  0  0  2  0  0  0  0  0  0
  190.4730  173.1680  140.5830 C   0  0  0  0  0  3  0  0  0  0  0  0
  191.0110  175.0760  142.0620 N   0  0  0  0  0  0  0  0  0  0  0  0
  190.0500  174.2160  141.4170 C   0  0  0  0  0  0  0  0  0  0  0  0
  188.2180  175.5430  142.4600 C   0  0  0  0  0  0  0  0  0  0  0  0
  185.3970  178.5400  144.4320 N   0  0  0  0  0  0  0  0  0  0  0  0
  194.1980  174.7290  146.1840 C   0  0  0  0  0  3  0  0  0  0  0  0
  192.9300  174.2550  143.3380 C   0  0  1  0  0  3  0  0  0  0  0  0
  186.6450  178.6820  144.6630 N   0  0  0  0  0  0  0  0  0  0  0  0
  192.7940  174.4980  145.7170 C   0  0  0  0  0  2  0  0  0  0  0  0
  195.0790  173.3320  144.3320 C   0  0  1  0  0  3  0  0  0  0  0  0
  187.7440  173.5920  140.9760 C   0  0  0  0  0  2  0  0  0  0  0  0
  188.6740  174.4280  141.6120 C   0  0  0  0  0  0  0  0  0  0  0  0
  186.8820  175.8340  142.5440 N   0  0  0  0  0  0  0  0  0  0  0  0
  191.1000  175.4010  144.4470 C   0  0  0  0  0  2  0  0  0  0  0  0
  189.5990  178.2440  144.6330 O   0  0  0  0  0  1  0  0  0  0  0  0
  184.5330  177.8860  142.3040 N   0  0  0  0  0  1  0  0  0  0  0  0
  189.1690  176.3370  143.1620 C   0  0  0  0  0  0  0  0  0  0  0  0
  186.4760  176.8860  143.2960 C   0  0  0  0  0  0  0  0  0  0  0  0
  196.3840  172.8410  143.9170 N   0  0  0  0  0  2  0  0  0  0  0  0
  196.5840  171.5180  143.4150 C   0  0  0  0  0  0  0  0  0  0  0  0
  195.6220  170.7080  143.3360 O   0  0  0  0  0  0  0  0  0  0  0  0
  197.9410  171.0910  142.9890 C   0  0  0  0  0  1  0  0  0  0  0  0
  1 16  2  0  0  0  0
  2 27  2  0  0  0  0
  2 24  1  0  0  0  0
  3  4  2  0  0  0  0
  3 11  1  0  0  0  0
  4 21  1  0  0  0  0
  5  6  2  0  0  0  0
  5 25  1  0  0  0  0
  6 18  1  0  0  0  0
  7 24  1  6  0  0  0
  7 19  1  0  0  0  0
  8 12  1  0  0  0  0
  9 26  1  6  0  0  0
  9 15  1  0  0  0  0
 10 17  1  0  0  0  0
 10 20  1  0  0  0  0
 11 13  2  0  0  0  0
 12  2  1  0  0  0  0
 13 22  1  0  0  0  0
 13 12  1  0  0  0  0
 14 23  1  0  0  0  0
 14 27  1  0  0  0  0
 15 18  2  0  0  0  0
 17  8  1  6  0  0  0
 17  7  1  0  0  0  0
 19 16  1  0  0  0  0
 20 29  1  6  0  0  0
 20  1  1  0  0  0  0
 21 22  1  0  0  0  0
 22 14  2  0  0  0  0
 23 28  2  0  0  0  0
 27  5  1  0  0  0  0
 28  9  1  0  0  0  0
 28  6  1  0  0  0  0
 30 29  1  0  0  0  0
 31 30  2  0  0  0  0
 32 30  1  0  0  0  0
M  END
>  <MODEL>
8

>  <REMARK>
 VINA RESULT:      -7.0      2.145      3.947
  Name = 
  1 active torsions:
  status: ('A' for Active; 'I' for Inactive)
    1  A    between atoms: C_20  and  N_29
                            x       y       z     vdW  Elec       q    Type
                         _______ _______ _______ _____ _____    ______ ____

>  <TORSDO>
F 1

$$$$
=
 OpenBabel11112416383D

 32 37  0  0  1  0  0  0  0  0999 V2000
  186.2290  177.6440  144.0700 C   0  0  0  0  0  3  0  0  0  0  0  0
  189.6720  174.5110  141.1300 C   0  0  0  0  0  0  0  0  0  0  0  0
  192.3290  172.1960  144.6380 C   0  0  0  0  0  3  0  0  0  0  0  0
  192.4080  171.0480  143.8480 C   0  0  0  0  0  3  0  0  0  0  0  0
  189.4600  173.3360  138.9030 C   0  0  0  0  0  0  0  0  0  0  0  0
  189.6970  172.2120  138.1230 C   0  0  0  0  0  0  0  0  0  0  0  0
  187.9270  175.7450  142.3540 N   0  0  2  0  0  0  0  0  0  0  0  0
  190.2680  175.6820  143.2010 C   0  0  0  0  0  2  0  0  0  0  0  0
  190.4510  170.1230  137.5420 C   0  0  1  0  0  3  0  0  0  0  0  0
  188.6320  177.1070  144.3190 C   0  0  0  0  0  2  0  0  0  0  0  0
  191.6980  173.3400  144.1440 C   0  0  0  0  0  3  0  0  0  0  0  0
  190.4880  174.5270  142.3430 N   0  0  0  0  0  0  0  0  0  0  0  0
  191.1360  173.3460  142.8560 C   0  0  0  0  0  0  0  0  0  0  0  0
  190.6610  172.1940  140.7000 C   0  0  0  0  0  0  0  0  0  0  0  0
  189.7310  170.8020  136.4540 N   0  0  0  0  0  0  0  0  0  0  0  0
  185.8800  176.8860  143.0270 C   0  0  0  0  0  3  0  0  0  0  0  0
  188.7820  175.7820  143.5670 C   0  0  1  0  0  3  0  0  0  0  0  0
  189.3160  171.9630  136.7860 N   0  0  0  0  0  0  0  0  0  0  0  0
  186.5360  175.5660  142.7620 C   0  0  0  0  0  2  0  0  0  0  0  0
  187.2930  177.2240  145.0380 C   0  0  1  0  0  3  0  0  0  0  0  0
  191.8580  171.0450  142.5650 C   0  0  0  0  0  2  0  0  0  0  0  0
  191.2200  172.1880  142.0630 C   0  0  0  0  0  0  0  0  0  0  0  0
  190.8580  171.1160  139.8780 N   0  0  0  0  0  0  0  0  0  0  0  0
  188.2120  174.5470  141.5560 C   0  0  0  0  0  2  0  0  0  0  0  0
  188.7630  174.4230  138.3860 O   0  0  0  0  0  1  0  0  0  0  0  0
  191.8370  169.9220  137.1570 N   0  0  0  0  0  1  0  0  0  0  0  0
  189.9470  173.3320  140.2290 C   0  0  0  0  0  0  0  0  0  0  0  0
  190.3720  171.1450  138.6130 C   0  0  0  0  0  0  0  0  0  0  0  0
  187.3890  178.2150  146.0990 N   0  0  0  0  0  2  0  0  0  0  0  0
  186.6950  178.0820  147.3410 C   0  0  0  0  0  0  0  0  0  0  0  0
  185.9410  177.0960  147.5550 O   0  0  0  0  0  0  0  0  0  0  0  0
  186.8580  179.1240  148.3870 C   0  0  0  0  0  1  0  0  0  0  0  0
  1 20  1  0  0  0  0
  2 24  1  0  0  0  0
  2 12  1  0  0  0  0
  4  3  2  0  0  0  0
  5 27  1  0  0  0  0
  6 28  1  0  0  0  0
  6  5  2  0  0  0  0
  7 24  1  6  0  0  0
  7 19  1  0  0  0  0
  7 17  1  0  0  0  0
  9 26  1  6  0  0  0
  9 28  1  0  0  0  0
 10 20  1  0  0  0  0
 11  3  1  0  0  0  0
 12 13  1  0  0  0  0
 12  8  1  0  0  0  0
 13 11  2  0  0  0  0
 14 22  2  0  0  0  0
 15 18  2  0  0  0  0
 15  9  1  0  0  0  0
 16  1  2  0  0  0  0
 17  8  1  6  0  0  0
 17 10  1  0  0  0  0
 18  6  1  0  0  0  0
 19 16  1  0  0  0  0
 20 29  1  1  0  0  0
 21  4  1  0  0  0  0
 22 21  1  0  0  0  0
 22 13  1  0  0  0  0
 23 14  1  0  0  0  0
 25  5  1  0  0  0  0
 27 14  1  0  0  0  0
 27  2  2  0  0  0  0
 28 23  2  0  0  0  0
 29 30  1  0  0  0  0
 30 31  2  0  0  0  0
 30 32  1  0  0  0  0
M  END
>  <MODEL>
9

>  <REMARK>
 VINA RESULT:      -6.9      3.608      7.884
  Name = 
  1 active torsions:
  status: ('A' for Active; 'I' for Inactive)
    1  A    between atoms: C_20  and  N_29
                            x       y       z     vdW  Elec       q    Type
                         _______ _______ _______ _____ _____    ______ ____

>  <TORSDO>
F 1

$$$$
