=
 OpenBabel11112416473D

 31 35  0  0  1  0  0  0  0  0999 V2000
  184.4540  178.4040  146.1470 C   0  0  0  0  0  0  0  0  0  0  0  0
  187.0530  176.8010  144.0810 C   0  0  0  0  0  0  0  0  0  0  0  0
  186.6220  177.0540  142.6710 C   0  0  0  0  0  0  0  0  0  0  0  0
  185.0150  177.8430  141.0190 C   0  0  0  0  0  0  0  0  0  0  0  0
  186.3270  177.2610  145.2110 C   0  0  0  0  0  0  0  0  0  0  0  0
  184.9180  178.1690  147.4410 C   0  0  0  0  0  3  0  0  0  0  0  0
  185.3570  177.5710  142.3450 C   0  0  0  0  0  3  0  0  0  0  0  0
  188.7490  175.8670  145.5930 C   0  0  0  0  0  0  0  0  0  0  0  0
  183.2980  179.0830  145.9560 F   0  0  0  0  0  0  0  0  0  0  0  0
  188.7880  176.2630  141.9180 O   0  0  0  0  0  0  0  0  0  0  0  0
  183.6730  178.3930  140.6950 C   0  0  0  0  0  1  0  0  0  0  0  0
  188.0170  176.3260  146.6910 C   0  0  0  0  0  3  0  0  0  0  0  0
  188.2750  176.1120  144.2920 C   0  0  0  0  0  0  0  0  0  0  0  0
  185.1600  177.9520  145.0750 N   0  0  0  0  0  0  0  0  0  0  0  0
  185.9400  177.6130  139.9990 C   0  0  0  0  0  3  0  0  0  0  0  0
  186.8240  177.0140  146.5110 C   0  0  0  0  0  0  0  0  0  0  0  0
  186.1110  177.4710  147.6200 C   0  0  0  0  0  3  0  0  0  0  0  0
  189.0290  175.5350  143.1210 C   0  0  0  0  0  2  0  0  0  0  0  0
  187.5340  176.8000  141.6300 C   0  0  0  0  0  0  0  0  0  0  0  0
  187.1990  177.0930  140.3040 C   0  0  0  0  0  3  0  0  0  0  0  0
  191.5210  176.8800  145.4340 O   0  0  0  0  0  0  0  0  0  0  0  0
  191.3130  175.6660  145.6960 C   0  0  0  0  0  0  0  0  0  0  0  0
  189.9780  175.1450  145.7730 N   0  0  0  0  0  2  0  0  0  0  0  0
  194.8150  175.5080  144.2590 C   0  0  1  0  0  3  0  0  0  0  0  0
  193.6890  175.5140  146.5040 C   0  0  0  0  0  2  0  0  0  0  0  0
  191.7900  173.3250  144.1010 O   0  0  0  0  0  1  0  0  0  0  0  0
  195.4630  176.3430  143.2650 N   0  0  0  0  0  1  0  0  0  0  0  0
  194.3880  176.3680  145.4450 C   0  0  0  0  0  2  0  0  0  0  0  0
  192.8970  173.9540  144.6730 C   0  0  2  0  0  3  0  0  0  0  0  0
  192.4890  174.7600  145.9190 C   0  0  2  0  0  3  0  0  0  0  0  0
  193.6000  174.8270  143.6350 C   0  0  0  0  0  2  0  0  0  0  0  0
  1  6  1  0  0  0  0
  2 13  2  0  0  0  0
  2  5  1  0  0  0  0
  3  2  1  0  0  0  0
  4  7  2  0  0  0  0
  5 16  2  0  0  0  0
  6 17  2  0  0  0  0
  7  3  1  0  0  0  0
  8 23  1  0  0  0  0
  8 12  2  0  0  0  0
  9  1  1  0  0  0  0
 10 18  1  0  0  0  0
 11  4  1  0  0  0  0
 13  8  1  0  0  0  0
 14  5  1  0  0  0  0
 14  1  2  0  0  0  0
 15 20  2  0  0  0  0
 15  4  1  0  0  0  0
 16 12  1  0  0  0  0
 16 17  1  0  0  0  0
 18 13  1  0  0  0  0
 19 10  1  0  0  0  0
 19  3  2  0  0  0  0
 20 19  1  0  0  0  0
 21 22  2  0  0  0  0
 22 23  1  0  0  0  0
 24 27  1  6  0  0  0
 24 28  1  0  0  0  0
 28 25  1  0  0  0  0
 29 26  1  6  0  0  0
 29 30  1  0  0  0  0
 30 22  1  6  0  0  0
 30 25  1  0  0  0  0
 31 24  1  0  0  0  0
 31 29  1  0  0  0  0
M  END
>  <MODEL>
1

>  <REMARK>
 VINA RESULT:      -9.9      0.000      0.000
  Name = 
  2 active torsions:
  status: ('A' for Active; 'I' for Inactive)
    1  A    between atoms: C_5  and  C_30
    2  A    between atoms: C_10  and  N_16
                            x       y       z     vdW  Elec       q    Type
                         _______ _______ _______ _____ _____    ______ ____

>  <TORSDO>
F 2

$$$$
=
 OpenBabel11112416473D

 31 35  0  0  1  0  0  0  0  0999 V2000
  184.5900  178.4400  146.5040 C   0  0  0  0  0  0  0  0  0  0  0  0
  186.7440  177.3660  143.7100 C   0  0  0  0  0  0  0  0  0  0  0  0
  185.9020  177.5640  142.4900 C   0  0  0  0  0  0  0  0  0  0  0  0
  183.7920  178.0840  141.3890 C   0  0  0  0  0  0  0  0  0  0  0  0
  186.2940  177.6680  145.0230 C   0  0  0  0  0  0  0  0  0  0  0  0
  185.4270  178.2680  147.6060 C   0  0  0  0  0  3  0  0  0  0  0  0
  184.5290  177.8530  142.5530 C   0  0  0  0  0  3  0  0  0  0  0  0
  188.9240  176.7230  144.6430 C   0  0  0  0  0  0  0  0  0  0  0  0
  183.3300  178.9050  146.6790 F   0  0  0  0  0  0  0  0  0  0  0  0
  187.8750  177.1870  141.1290 O   0  0  0  0  0  0  0  0  0  0  0  0
  182.3410  178.3900  141.4780 C   0  0  0  0  0  1  0  0  0  0  0  0
  188.4590  177.0240  145.9260 C   0  0  0  0  0  3  0  0  0  0  0  0
  188.0730  176.9030  143.5370 C   0  0  0  0  0  0  0  0  0  0  0  0
  185.0360  178.1420  145.2540 N   0  0  0  0  0  0  0  0  0  0  0  0
  184.4220  178.0420  140.1440 C   0  0  0  0  0  3  0  0  0  0  0  0
  187.1650  177.4900  146.1210 C   0  0  0  0  0  0  0  0  0  0  0  0
  186.7230  177.7910  147.4090 C   0  0  0  0  0  3  0  0  0  0  0  0
  188.5580  176.4930  142.1700 C   0  0  0  0  0  2  0  0  0  0  0  0
  186.5190  177.4960  141.2260 C   0  0  0  0  0  0  0  0  0  0  0  0
  185.7850  177.7500  140.0630 C   0  0  0  0  0  3  0  0  0  0  0  0
  189.8920  173.9340  144.7600 O   0  0  0  0  0  0  0  0  0  0  0  0
  190.6970  174.8640  144.4920 C   0  0  0  0  0  0  0  0  0  0  0  0
  190.2570  176.2290  144.4350 N   0  0  0  0  0  2  0  0  0  0  0  0
  193.9780  176.1790  145.8550 C   0  0  1  0  0  3  0  0  0  0  0  0
  192.8240  173.9780  145.4970 C   0  0  0  0  0  2  0  0  0  0  0  0
  192.2870  176.2260  142.5260 O   0  0  0  0  0  1  0  0  0  0  0  0
  194.2430  177.2250  146.8250 N   0  0  0  0  0  1  0  0  0  0  0  0
  193.1310  175.0890  146.5030 C   0  0  0  0  0  2  0  0  0  0  0  0
  192.9480  175.6820  143.6280 C   0  0  2  0  0  3  0  0  0  0  0  0
  192.1380  174.5260  144.2410 C   0  0  2  0  0  3  0  0  0  0  0  0
  193.2480  176.7740  144.6540 C   0  0  0  0  0  2  0  0  0  0  0  0
  1  9  1  0  0  0  0
  1  6  1  0  0  0  0
  2  5  1  0  0  0  0
  3  7  1  0  0  0  0
  3  2  1  0  0  0  0
  4 11  1  0  0  0  0
  4  7  2  0  0  0  0
  5 14  1  0  0  0  0
  5 16  2  0  0  0  0
  8 12  2  0  0  0  0
 10 19  1  0  0  0  0
 10 18  1  0  0  0  0
 12 16  1  0  0  0  0
 13  2  2  0  0  0  0
 13  8  1  0  0  0  0
 14  1  2  0  0  0  0
 15  4  1  0  0  0  0
 16 17  1  0  0  0  0
 17  6  2  0  0  0  0
 18 13  1  0  0  0  0
 19  3  2  0  0  0  0
 20 15  2  0  0  0  0
 20 19  1  0  0  0  0
 22 21  2  0  0  0  0
 23 22  1  0  0  0  0
 23  8  1  0  0  0  0
 24 28  1  0  0  0  0
 24 27  1  1  0  0  0
 25 28  1  0  0  0  0
 29 26  1  6  0  0  0
 29 30  1  0  0  0  0
 29 31  1  0  0  0  0
 30 22  1  1  0  0  0
 30 25  1  0  0  0  0
 31 24  1  0  0  0  0
M  END
>  <MODEL>
2

>  <REMARK>
 VINA RESULT:      -9.6      1.372      1.716
  Name = 
  2 active torsions:
  status: ('A' for Active; 'I' for Inactive)
    1  A    between atoms: C_5  and  C_30
    2  A    between atoms: C_10  and  N_16
                            x       y       z     vdW  Elec       q    Type
                         _______ _______ _______ _____ _____    ______ ____

>  <TORSDO>
F 2

$$$$
=
 OpenBabel11112416473D

 31 35  0  0  1  0  0  0  0  0999 V2000
  184.6070  178.4280  146.5000 C   0  0  0  0  0  0  0  0  0  0  0  0
  186.9320  177.4760  143.8000 C   0  0  0  0  0  0  0  0  0  0  0  0
  186.1360  177.6380  142.5450 C   0  0  0  0  0  0  0  0  0  0  0  0
  184.0530  178.0580  141.3530 C   0  0  0  0  0  0  0  0  0  0  0  0
  186.4100  177.7480  145.0930 C   0  0  0  0  0  0  0  0  0  0  0  0
  185.4020  178.2920  147.6370 C   0  0  0  0  0  3  0  0  0  0  0  0
  184.7490  177.8570  142.5480 C   0  0  0  0  0  3  0  0  0  0  0  0
  189.0980  176.9360  144.8270 C   0  0  0  0  0  0  0  0  0  0  0  0
  183.3190  178.8280  146.6190 F   0  0  0  0  0  0  0  0  0  0  0  0
  188.1830  177.3660  141.2710 O   0  0  0  0  0  0  0  0  0  0  0  0
  182.5870  178.2920  141.3780 C   0  0  0  0  0  1  0  0  0  0  0  0
  188.5630  177.2070  146.0890 C   0  0  0  0  0  3  0  0  0  0  0  0
  188.2890  177.0800  143.6850 C   0  0  0  0  0  0  0  0  0  0  0  0
  185.1220  178.1580  145.2690 N   0  0  0  0  0  0  0  0  0  0  0  0
  184.7390  178.0530  140.1370 C   0  0  0  0  0  3  0  0  0  0  0  0
  187.2400  177.6080  146.2270 C   0  0  0  0  0  0  0  0  0  0  0  0
  186.7270  177.8800  147.4960 C   0  0  0  0  0  3  0  0  0  0  0  0
  188.8530  176.7000  142.3400 C   0  0  0  0  0  2  0  0  0  0  0  0
  186.8100  177.6070  141.3090 C   0  0  0  0  0  0  0  0  0  0  0  0
  186.1170  177.8300  140.1160 C   0  0  0  0  0  3  0  0  0  0  0  0
  191.4470  178.5310  144.0040 O   0  0  0  0  0  0  0  0  0  0  0  0
  191.5850  177.3100  144.2810 C   0  0  0  0  0  0  0  0  0  0  0  0
  190.4620  176.5100  144.6770 N   0  0  0  0  0  2  0  0  0  0  0  0
  192.8800  173.7530  144.4430 C   0  0  1  0  0  3  0  0  0  0  0  0
  193.0760  175.7730  142.9630 C   0  0  0  0  0  2  0  0  0  0  0  0
  193.2220  176.7930  146.5830 O   0  0  0  0  0  1  0  0  0  0  0  0
  192.1720  172.5020  144.6390 N   0  0  0  0  0  1  0  0  0  0  0  0
  192.3550  174.4420  143.1870 C   0  0  0  0  0  2  0  0  0  0  0  0
  193.4030  175.9770  145.4660 C   0  0  2  0  0  3  0  0  0  0  0  0
  192.9510  176.6940  144.1820 C   0  0  2  0  0  3  0  0  0  0  0  0
  192.6750  174.6480  145.6620 C   0  0  0  0  0  2  0  0  0  0  0  0
  1  9  1  0  0  0  0
  1  6  1  0  0  0  0
  2  5  1  0  0  0  0
  3  7  1  0  0  0  0
  3  2  1  0  0  0  0
  4 11  1  0  0  0  0
  4  7  2  0  0  0  0
  5 14  1  0  0  0  0
  5 16  2  0  0  0  0
  8 12  2  0  0  0  0
 10 19  1  0  0  0  0
 10 18  1  0  0  0  0
 12 16  1  0  0  0  0
 13  2  2  0  0  0  0
 13  8  1  0  0  0  0
 14  1  2  0  0  0  0
 15  4  1  0  0  0  0
 16 17  1  0  0  0  0
 17  6  2  0  0  0  0
 18 13  1  0  0  0  0
 19  3  2  0  0  0  0
 20 15  2  0  0  0  0
 20 19  1  0  0  0  0
 21 22  2  0  0  0  0
 22 23  1  0  0  0  0
 23  8  1  0  0  0  0
 24 27  1  1  0  0  0
 24 31  1  0  0  0  0
 25 28  1  0  0  0  0
 25 30  1  0  0  0  0
 28 24  1  0  0  0  0
 29 31  1  0  0  0  0
 29 26  1  1  0  0  0
 30 22  1  1  0  0  0
 30 29  1  0  0  0  0
M  END
>  <MODEL>
3

>  <REMARK>
 VINA RESULT:      -9.5      1.634      2.051
  Name = 
  2 active torsions:
  status: ('A' for Active; 'I' for Inactive)
    1  A    between atoms: C_5  and  C_30
    2  A    between atoms: C_10  and  N_16
                            x       y       z     vdW  Elec       q    Type
                         _______ _______ _______ _____ _____    ______ ____

>  <TORSDO>
F 2

$$$$
=
 OpenBabel11112416473D

 31 35  0  0  1  0  0  0  0  0999 V2000
  185.1960  177.7090  146.6600 C   0  0  0  0  0  0  0  0  0  0  0  0
  186.8070  176.6800  143.5060 C   0  0  0  0  0  0  0  0  0  0  0  0
  185.8940  177.1870  142.4350 C   0  0  0  0  0  0  0  0  0  0  0  0
  183.8160  178.2090  141.6830 C   0  0  0  0  0  0  0  0  0  0  0  0
  186.5610  176.8690  144.8920 C   0  0  0  0  0  0  0  0  0  0  0  0
  186.0960  177.2440  147.6170 C   0  0  0  0  0  3  0  0  0  0  0  0
  184.6130  177.6950  142.7070 C   0  0  0  0  0  3  0  0  0  0  0  0
  188.9130  175.5480  144.0710 C   0  0  0  0  0  0  0  0  0  0  0  0
  184.0700  178.3550  147.0470 F   0  0  0  0  0  0  0  0  0  0  0  0
  187.6090  176.6690  140.7990 O   0  0  0  0  0  0  0  0  0  0  0  0
  182.4650  178.7460  141.9910 C   0  0  0  0  0  1  0  0  0  0  0  0
  188.6500  175.7430  145.4290 C   0  0  0  0  0  3  0  0  0  0  0  0
  188.0010  176.0230  143.1110 C   0  0  0  0  0  0  0  0  0  0  0  0
  185.4450  177.5150  145.3360 N   0  0  0  0  0  0  0  0  0  0  0  0
  184.2930  178.2330  140.3710 C   0  0  0  0  0  3  0  0  0  0  0  0
  187.4930  176.3930  145.8410 C   0  0  0  0  0  0  0  0  0  0  0  0
  187.2520  176.5840  147.2020 C   0  0  0  0  0  3  0  0  0  0  0  0
  188.2550  175.7300  141.6550 C   0  0  0  0  0  2  0  0  0  0  0  0
  186.3520  177.1900  141.1040 C   0  0  0  0  0  0  0  0  0  0  0  0
  185.5610  177.7250  140.0830 C   0  0  0  0  0  3  0  0  0  0  0  0
  189.4560  172.6430  144.0290 O   0  0  0  0  0  0  0  0  0  0  0  0
  190.3340  173.4500  143.6230 C   0  0  0  0  0  0  0  0  0  0  0  0
  190.1010  174.8650  143.6380 N   0  0  0  0  0  2  0  0  0  0  0  0
  193.5520  175.0470  142.4200 C   0  0  1  0  0  3  0  0  0  0  0  0
  192.8070  173.2880  144.0500 C   0  0  0  0  0  2  0  0  0  0  0  0
  190.8660  172.9910  140.8380 O   0  0  0  0  0  1  0  0  0  0  0  0
  193.9150  176.4450  142.2820 N   0  0  0  0  0  1  0  0  0  0  0  0
  193.2060  174.7550  143.8770 C   0  0  0  0  0  2  0  0  0  0  0  0
  191.9540  173.2740  141.6660 C   0  0  2  0  0  3  0  0  0  0  0  0
  191.6430  172.9070  143.1270 C   0  0  2  0  0  3  0  0  0  0  0  0
  192.3580  174.7400  141.5210 C   0  0  0  0  0  2  0  0  0  0  0  0
  1  9  1  0  0  0  0
  1  6  1  0  0  0  0
  2  5  1  0  0  0  0
  3  7  1  0  0  0  0
  3  2  1  0  0  0  0
  4 11  1  0  0  0  0
  4  7  2  0  0  0  0
  5 14  1  0  0  0  0
  5 16  2  0  0  0  0
  8 12  2  0  0  0  0
 10 19  1  0  0  0  0
 10 18  1  0  0  0  0
 12 16  1  0  0  0  0
 13  2  2  0  0  0  0
 13  8  1  0  0  0  0
 14  1  2  0  0  0  0
 15  4  1  0  0  0  0
 16 17  1  0  0  0  0
 17  6  2  0  0  0  0
 18 13  1  0  0  0  0
 19  3  2  0  0  0  0
 20 15  2  0  0  0  0
 20 19  1  0  0  0  0
 22 23  1  0  0  0  0
 22 21  2  0  0  0  0
 23  8  1  0  0  0  0
 24 27  1  1  0  0  0
 24 28  1  0  0  0  0
 28 25  1  0  0  0  0
 29 26  1  6  0  0  0
 29 30  1  0  0  0  0
 30 22  1  1  0  0  0
 30 25  1  0  0  0  0
 31 29  1  0  0  0  0
 31 24  1  0  0  0  0
M  END
>  <MODEL>
4

>  <REMARK>
 VINA RESULT:      -8.8      1.668      2.147
  Name = 
  2 active torsions:
  status: ('A' for Active; 'I' for Inactive)
    1  A    between atoms: C_5  and  C_30
    2  A    between atoms: C_10  and  N_16
                            x       y       z     vdW  Elec       q    Type
                         _______ _______ _______ _____ _____    ______ ____

>  <TORSDO>
F 2

$$$$
=
 OpenBabel11112416473D

 31 35  0  0  1  0  0  0  0  0999 V2000
  194.3610  175.5060  145.0320 C   0  0  0  0  0  0  0  0  0  0  0  0
  190.9020  175.5750  143.7580 C   0  0  0  0  0  0  0  0  0  0  0  0
  190.9790  174.9030  142.4240 C   0  0  0  0  0  0  0  0  0  0  0  0
  192.2260  173.9180  140.5780 C   0  0  0  0  0  0  0  0  0  0  0  0
  192.0280  175.7570  144.6040 C   0  0  0  0  0  0  0  0  0  0  0  0
  194.2290  176.1100  146.2820 C   0  0  0  0  0  3  0  0  0  0  0  0
  192.1990  174.5950  141.7990 C   0  0  0  0  0  3  0  0  0  0  0  0
  189.4870  176.6160  145.4750 C   0  0  0  0  0  0  0  0  0  0  0  0
  195.5770  175.0800  144.6130 F   0  0  0  0  0  0  0  0  0  0  0  0
  188.5550  174.8440  142.3680 O   0  0  0  0  0  0  0  0  0  0  0  0
  193.5260  173.5980  139.9340 C   0  0  0  0  0  1  0  0  0  0  0  0
  190.6080  176.7880  146.2900 C   0  0  0  0  0  3  0  0  0  0  0  0
  189.6300  176.0030  144.2170 C   0  0  0  0  0  0  0  0  0  0  0  0
  193.2730  175.3430  144.2320 N   0  0  0  0  0  0  0  0  0  0  0  0
  191.0320  173.5280  139.9690 C   0  0  0  0  0  3  0  0  0  0  0  0
  191.8630  176.3660  145.8680 C   0  0  0  0  0  0  0  0  0  0  0  0
  192.9700  176.5410  146.7000 C   0  0  0  0  0  3  0  0  0  0  0  0
  188.4280  175.9040  143.3140 C   0  0  0  0  0  2  0  0  0  0  0  0
  189.7820  174.5300  141.7850 C   0  0  0  0  0  0  0  0  0  0  0  0
  189.8110  173.8320  140.5740 C   0  0  0  0  0  3  0  0  0  0  0  0
  187.7660  175.5040  147.6050 O   0  0  0  0  0  0  0  0  0  0  0  0
  187.3770  176.5040  146.9440 C   0  0  0  0  0  0  0  0  0  0  0  0
  188.1880  177.0610  145.9000 N   0  0  0  0  0  2  0  0  0  0  0  0
  185.1760  179.0620  145.2220 C   0  0  1  0  0  3  0  0  0  0  0  0
  184.9900  176.7550  146.1960 C   0  0  0  0  0  2  0  0  0  0  0  0
  187.0850  178.9450  148.4290 O   0  0  0  0  0  1  0  0  0  0  0  0
  185.3830  179.8080  143.9950 N   0  0  0  0  0  1  0  0  0  0  0  0
  185.1930  177.5670  144.9160 C   0  0  0  0  0  2  0  0  0  0  0  0
  186.0830  178.6210  147.5130 C   0  0  2  0  0  3  0  0  0  0  0  0
  186.0380  177.1050  147.2590 C   0  0  2  0  0  3  0  0  0  0  0  0
  186.2770  179.4100  146.2190 C   0  0  0  0  0  2  0  0  0  0  0  0
  1  6  1  0  0  0  0
  2 13  2  0  0  0  0
  2  5  1  0  0  0  0
  3  2  1  0  0  0  0
  4  7  2  0  0  0  0
  5 16  2  0  0  0  0
  6 17  2  0  0  0  0
  7  3  1  0  0  0  0
  8 23  1  0  0  0  0
  8 12  2  0  0  0  0
  9  1  1  0  0  0  0
 10 18  1  0  0  0  0
 11  4  1  0  0  0  0
 13  8  1  0  0  0  0
 14  5  1  0  0  0  0
 14  1  2  0  0  0  0
 15 20  2  0  0  0  0
 15  4  1  0  0  0  0
 16 12  1  0  0  0  0
 16 17  1  0  0  0  0
 18 13  1  0  0  0  0
 19 10  1  0  0  0  0
 19  3  2  0  0  0  0
 20 19  1  0  0  0  0
 22 21  2  0  0  0  0
 23 22  1  0  0  0  0
 24 27  1  6  0  0  0
 24 31  1  0  0  0  0
 25 30  1  0  0  0  0
 28 24  1  0  0  0  0
 28 25  1  0  0  0  0
 29 26  1  1  0  0  0
 30 22  1  6  0  0  0
 30 29  1  0  0  0  0
 31 29  1  0  0  0  0
M  END
>  <MODEL>
5

>  <REMARK>
 VINA RESULT:      -8.5      3.308      7.247
  Name = 
  2 active torsions:
  status: ('A' for Active; 'I' for Inactive)
    1  A    between atoms: C_5  and  C_30
    2  A    between atoms: C_10  and  N_16
                            x       y       z     vdW  Elec       q    Type
                         _______ _______ _______ _____ _____    ______ ____

>  <TORSDO>
F 2

$$$$
=
 OpenBabel11112416473D

 31 35  0  0  1  0  0  0  0  0999 V2000
  184.9230  178.1670  146.7050 C   0  0  0  0  0  0  0  0  0  0  0  0
  186.5680  177.1930  143.5510 C   0  0  0  0  0  0  0  0  0  0  0  0
  185.5790  177.5460  142.4870 C   0  0  0  0  0  0  0  0  0  0  0  0
  183.3790  178.2900  141.7530 C   0  0  0  0  0  0  0  0  0  0  0  0
  186.3340  177.4130  144.9350 C   0  0  0  0  0  0  0  0  0  0  0  0
  185.8930  177.8500  147.6550 C   0  0  0  0  0  3  0  0  0  0  0  0
  184.2540  177.9160  142.7740 C   0  0  0  0  0  3  0  0  0  0  0  0
  188.8040  176.3360  144.1010 C   0  0  0  0  0  0  0  0  0  0  0  0
  183.7400  178.6960  147.0970 F   0  0  0  0  0  0  0  0  0  0  0  0
  187.3020  177.1580  140.8250 O   0  0  0  0  0  0  0  0  0  0  0  0
  181.9820  178.6810  142.0770 C   0  0  0  0  0  1  0  0  0  0  0  0
  188.5510  176.5570  145.4570 C   0  0  0  0  0  3  0  0  0  0  0  0
  187.8200  176.6620  143.1500 C   0  0  0  0  0  0  0  0  0  0  0  0
  185.1620  177.9460  145.3840 N   0  0  0  0  0  0  0  0  0  0  0  0
  183.8190  178.3120  140.4280 C   0  0  0  0  0  3  0  0  0  0  0  0
  187.3370  177.0890  145.8750 C   0  0  0  0  0  0  0  0  0  0  0  0
  187.1080  177.3090  147.2340 C   0  0  0  0  0  3  0  0  0  0  0  0
  188.0730  176.3360  141.7000 C   0  0  0  0  0  2  0  0  0  0  0  0
  186.0010  177.5440  141.1450 C   0  0  0  0  0  0  0  0  0  0  0  0
  185.1300  177.9410  140.1250 C   0  0  0  0  0  3  0  0  0  0  0  0
  189.8150  173.5830  144.4640 O   0  0  0  0  0  0  0  0  0  0  0  0
  190.5140  174.4300  143.8480 C   0  0  0  0  0  0  0  0  0  0  0  0
  190.0520  175.7760  143.6630 N   0  0  0  0  0  2  0  0  0  0  0  0
  191.6260  172.2980  140.9200 C   0  0  1  0  0  3  0  0  0  0  0  0
  192.1020  174.5590  141.9030 C   0  0  0  0  0  2  0  0  0  0  0  0
  191.8060  171.9890  144.6370 O   0  0  0  0  0  1  0  0  0  0  0  0
  190.8470  171.5890  139.9220 N   0  0  0  0  0  1  0  0  0  0  0  0
  191.3030  173.7880  140.8510 C   0  0  0  0  0  2  0  0  0  0  0  0
  192.1000  172.4950  143.3700 C   0  0  2  0  0  3  0  0  0  0  0  0
  191.8540  174.0130  143.3140 C   0  0  2  0  0  3  0  0  0  0  0  0
  191.2980  171.7490  142.3050 C   0  0  0  0  0  2  0  0  0  0  0  0
  1  9  1  0  0  0  0
  1  6  1  0  0  0  0
  2  5  1  0  0  0  0
  3  7  1  0  0  0  0
  3  2  1  0  0  0  0
  4 11  1  0  0  0  0
  4  7  2  0  0  0  0
  5 14  1  0  0  0  0
  5 16  2  0  0  0  0
  8 12  2  0  0  0  0
 10 19  1  0  0  0  0
 10 18  1  0  0  0  0
 12 16  1  0  0  0  0
 13  2  2  0  0  0  0
 13  8  1  0  0  0  0
 14  1  2  0  0  0  0
 15  4  1  0  0  0  0
 16 17  1  0  0  0  0
 17  6  2  0  0  0  0
 18 13  1  0  0  0  0
 19  3  2  0  0  0  0
 20 15  2  0  0  0  0
 20 19  1  0  0  0  0
 22 21  2  0  0  0  0
 23 22  1  0  0  0  0
 23  8  1  0  0  0  0
 24 27  1  6  0  0  0
 24 31  1  0  0  0  0
 25 30  1  0  0  0  0
 28 24  1  0  0  0  0
 28 25  1  0  0  0  0
 29 26  1  1  0  0  0
 30 29  1  0  0  0  0
 30 22  1  6  0  0  0
 31 29  1  0  0  0  0
M  END
>  <MODEL>
6

>  <REMARK>
 VINA RESULT:      -8.5      2.130      2.834
  Name = 
  2 active torsions:
  status: ('A' for Active; 'I' for Inactive)
    1  A    between atoms: C_5  and  C_30
    2  A    between atoms: C_10  and  N_16
                            x       y       z     vdW  Elec       q    Type
                         _______ _______ _______ _____ _____    ______ ____

>  <TORSDO>
F 2

$$$$
=
 OpenBabel11112416473D

 31 35  0  0  1  0  0  0  0  0999 V2000
  190.5830  177.0710  147.3050 C   0  0  0  0  0  0  0  0  0  0  0  0
  188.5930  176.0180  144.3840 C   0  0  0  0  0  0  0  0  0  0  0  0
  187.3000  176.7580  144.5250 C   0  0  0  0  0  0  0  0  0  0  0  0
  185.7570  178.1830  145.7580 C   0  0  0  0  0  0  0  0  0  0  0  0
  189.6640  176.1420  145.3080 C   0  0  0  0  0  0  0  0  0  0  0  0
  191.7810  176.3840  147.1090 C   0  0  0  0  0  3  0  0  0  0  0  0
  186.9500  177.4610  145.6890 C   0  0  0  0  0  3  0  0  0  0  0  0
  189.9740  174.4950  143.0400 C   0  0  0  0  0  0  0  0  0  0  0  0
  190.4320  177.8720  148.3860 F   0  0  0  0  0  0  0  0  0  0  0  0
  186.7210  176.0740  142.2700 O   0  0  0  0  0  0  0  0  0  0  0  0
  185.4060  178.9230  146.9970 C   0  0  0  0  0  1  0  0  0  0  0  0
  191.0140  174.6290  143.9630 C   0  0  0  0  0  3  0  0  0  0  0  0
  188.7710  175.1950  143.2430 C   0  0  0  0  0  0  0  0  0  0  0  0
  189.5660  176.9380  146.4110 N   0  0  0  0  0  0  0  0  0  0  0  0
  184.9010  178.2230  144.6560 C   0  0  0  0  0  3  0  0  0  0  0  0
  190.8680  175.4390  145.0830 C   0  0  0  0  0  0  0  0  0  0  0  0
  191.9220  175.5640  145.9900 C   0  0  0  0  0  3  0  0  0  0  0  0
  187.6280  174.9730  142.2860 C   0  0  0  0  0  2  0  0  0  0  0  0
  186.4140  176.7830  143.4310 C   0  0  0  0  0  0  0  0  0  0  0  0
  185.2300  177.5240  143.4930 C   0  0  0  0  0  3  0  0  0  0  0  0
  189.6170  171.5680  142.8480 O   0  0  0  0  0  0  0  0  0  0  0  0
  189.9270  172.2290  141.8220 C   0  0  0  0  0  0  0  0  0  0  0  0
  190.1130  173.6500  141.8860 N   0  0  0  0  0  2  0  0  0  0  0  0
  191.7300  173.0450  138.5920 C   0  0  1  0  0  3  0  0  0  0  0  0
  191.5810  171.1690  140.2540 C   0  0  0  0  0  2  0  0  0  0  0  0
  188.1600  172.5900  139.5860 O   0  0  0  0  0  1  0  0  0  0  0  0
  192.4900  174.2210  138.2090 N   0  0  0  0  0  1  0  0  0  0  0  0
  192.3710  172.4050  139.8190 C   0  0  0  0  0  2  0  0  0  0  0  0
  189.4790  172.2240  139.3150 C   0  0  2  0  0  3  0  0  0  0  0  0
  190.1090  171.5040  140.5200 C   0  0  2  0  0  3  0  0  0  0  0  0
  190.2900  173.4480  138.8960 C   0  0  0  0  0  2  0  0  0  0  0  0
  1  9  1  0  0  0  0
  2  3  1  0  0  0  0
  2  5  1  0  0  0  0
  3  7  1  0  0  0  0
  4 11  1  0  0  0  0
  5 14  1  0  0  0  0
  6  1  1  0  0  0  0
  7  4  2  0  0  0  0
  8 13  1  0  0  0  0
  8 12  2  0  0  0  0
 10 18  1  0  0  0  0
 10 19  1  0  0  0  0
 12 16  1  0  0  0  0
 13  2  2  0  0  0  0
 14  1  2  0  0  0  0
 15  4  1  0  0  0  0
 16  5  2  0  0  0  0
 16 17  1  0  0  0  0
 17  6  2  0  0  0  0
 18 13  1  0  0  0  0
 19 20  1  0  0  0  0
 19  3  2  0  0  0  0
 20 15  2  0  0  0  0
 22 23  1  0  0  0  0
 22 21  2  0  0  0  0
 23  8  1  0  0  0  0
 24 27  1  1  0  0  0
 24 31  1  0  0  0  0
 24 28  1  0  0  0  0
 25 30  1  0  0  0  0
 28 25  1  0  0  0  0
 29 26  1  1  0  0  0
 29 30  1  0  0  0  0
 30 22  1  1  0  0  0
 31 29  1  0  0  0  0
M  END
>  <MODEL>
7

>  <REMARK>
 VINA RESULT:      -8.5      3.354      5.254
  Name = 
  2 active torsions:
  status: ('A' for Active; 'I' for Inactive)
    1  A    between atoms: C_5  and  C_30
    2  A    between atoms: C_10  and  N_16
                            x       y       z     vdW  Elec       q    Type
                         _______ _______ _______ _____ _____    ______ ____

>  <TORSDO>
F 2

$$$$
=
 OpenBabel11112416473D

 31 35  0  0  1  0  0  0  0  0999 V2000
  185.8130  177.5340  141.1090 C   0  0  0  0  0  0  0  0  0  0  0  0
  187.6560  176.5070  144.1340 C   0  0  0  0  0  0  0  0  0  0  0  0
  186.7930  176.9560  145.2700 C   0  0  0  0  0  0  0  0  0  0  0  0
  184.8730  178.1500  146.1750 C   0  0  0  0  0  0  0  0  0  0  0  0
  187.3100  176.7020  142.7700 C   0  0  0  0  0  0  0  0  0  0  0  0
  186.6380  177.0660  140.0870 C   0  0  0  0  0  3  0  0  0  0  0  0
  185.6840  177.8000  145.0940 C   0  0  0  0  0  3  0  0  0  0  0  0
  189.6920  175.3350  143.4140 C   0  0  0  0  0  0  0  0  0  0  0  0
  184.6620  178.1810  140.8070 F   0  0  0  0  0  0  0  0  0  0  0  0
  188.1910  175.6670  146.7760 O   0  0  0  0  0  0  0  0  0  0  0  0
  183.7020  179.0410  145.9670 C   0  0  0  0  0  1  0  0  0  0  0  0
  189.3340  175.5400  142.0800 C   0  0  0  0  0  3  0  0  0  0  0  0
  188.8510  175.8070  144.4390 C   0  0  0  0  0  0  0  0  0  0  0  0
  186.1620  177.3430  142.4100 N   0  0  0  0  0  0  0  0  0  0  0  0
  185.1530  177.6520  147.4490 C   0  0  0  0  0  3  0  0  0  0  0  0
  188.1620  176.2120  141.7550 C   0  0  0  0  0  0  0  0  0  0  0  0
  187.8190  176.4000  140.4150 C   0  0  0  0  0  3  0  0  0  0  0  0
  189.2930  175.6560  145.8720 C   0  0  0  0  0  2  0  0  0  0  0  0
  187.0810  176.4850  146.5640 C   0  0  0  0  0  0  0  0  0  0  0  0
  186.2560  176.8190  147.6420 C   0  0  0  0  0  3  0  0  0  0  0  0
  192.3920  176.4690  143.8100 O   0  0  0  0  0  0  0  0  0  0  0  0
  192.2070  175.2320  143.9500 C   0  0  0  0  0  0  0  0  0  0  0  0
  190.9080  174.6520  143.7580 N   0  0  0  0  0  2  0  0  0  0  0  0
  195.9630  175.7240  143.9130 C   0  0  1  0  0  3  0  0  0  0  0  0
  194.1730  174.9380  145.4890 C   0  0  0  0  0  2  0  0  0  0  0  0
  193.5580  173.5710  142.0360 O   0  0  0  0  0  1  0  0  0  0  0  0
  196.7580  176.8700  143.5130 N   0  0  0  0  0  1  0  0  0  0  0  0
  195.0340  176.1250  145.0550 C   0  0  0  0  0  2  0  0  0  0  0  0
  194.2960  174.0300  143.1280 C   0  0  2  0  0  3  0  0  0  0  0  0
  193.3740  174.3610  144.3150 C   0  0  2  0  0  3  0  0  0  0  0  0
  195.1510  175.2280  142.7200 C   0  0  0  0  0  2  0  0  0  0  0  0
  1 14  1  0  0  0  0
  2 13  2  0  0  0  0
  2  3  1  0  0  0  0
  3 19  1  0  0  0  0
  4 15  2  0  0  0  0
  5  2  1  0  0  0  0
  6 17  1  0  0  0  0
  6  1  2  0  0  0  0
  7  3  2  0  0  0  0
  7  4  1  0  0  0  0
  8 23  1  0  0  0  0
  8 13  1  0  0  0  0
  9  1  1  0  0  0  0
 11  4  1  0  0  0  0
 12  8  2  0  0  0  0
 13 18  1  0  0  0  0
 14  5  2  0  0  0  0
 15 20  1  0  0  0  0
 16 12  1  0  0  0  0
 16  5  1  0  0  0  0
 17 16  2  0  0  0  0
 18 10  1  0  0  0  0
 19 10  1  0  0  0  0
 19 20  2  0  0  0  0
 21 22  2  0  0  0  0
 23 22  1  0  0  0  0
 24 27  1  6  0  0  0
 24 28  1  0  0  0  0
 28 25  1  0  0  0  0
 29 26  1  6  0  0  0
 29 30  1  0  0  0  0
 30 22  1  6  0  0  0
 30 25  1  0  0  0  0
 31 29  1  0  0  0  0
 31 24  1  0  0  0  0
M  END
>  <MODEL>
8

>  <REMARK>
 VINA RESULT:      -8.4      1.788      4.083
  Name = 
  2 active torsions:
  status: ('A' for Active; 'I' for Inactive)
    1  A    between atoms: C_5  and  C_30
    2  A    between atoms: C_10  and  N_16
                            x       y       z     vdW  Elec       q    Type
                         _______ _______ _______ _____ _____    ______ ____

>  <TORSDO>
F 2

$$$$
=
 OpenBabel11112416473D

 31 35  0  0  1  0  0  0  0  0999 V2000
  190.6140  172.3960  141.5480 C   0  0  0  0  0  0  0  0  0  0  0  0
  189.9480  175.1580  143.8990 C   0  0  0  0  0  0  0  0  0  0  0  0
  191.1370  175.1730  144.8070 C   0  0  0  0  0  0  0  0  0  0  0  0
  193.2200  174.2300  145.6440 C   0  0  0  0  0  0  0  0  0  0  0  0
  189.8000  174.2380  142.8270 C   0  0  0  0  0  0  0  0  0  0  0  0
  189.5010  172.4450  140.7110 C   0  0  0  0  0  3  0  0  0  0  0  0
  192.0970  174.1480  144.8190 C   0  0  0  0  0  3  0  0  0  0  0  0
  187.8190  176.2000  143.2530 C   0  0  0  0  0  0  0  0  0  0  0  0
  191.5750  171.4630  141.3420 F   0  0  0  0  0  0  0  0  0  0  0  0
  190.3740  177.3010  145.6870 O   0  0  0  0  0  0  0  0  0  0  0  0
  194.2260  173.1360  145.6390 C   0  0  0  0  0  1  0  0  0  0  0  0
  187.6920  175.2840  142.2060 C   0  0  0  0  0  3  0  0  0  0  0  0
  188.9480  176.1450  144.0910 C   0  0  0  0  0  0  0  0  0  0  0  0
  190.7390  173.2820  142.5730 N   0  0  0  0  0  0  0  0  0  0  0  0
  193.4060  175.3460  146.4610 C   0  0  0  0  0  3  0  0  0  0  0  0
  188.6640  174.3140  141.9900 C   0  0  0  0  0  0  0  0  0  0  0  0
  188.5220  173.4130  140.9350 C   0  0  0  0  0  3  0  0  0  0  0  0
  189.0290  177.0830  145.2670 C   0  0  0  0  0  2  0  0  0  0  0  0
  191.3220  176.2790  145.6570 C   0  0  0  0  0  0  0  0  0  0  0  0
  192.4590  176.3710  146.4660 C   0  0  0  0  0  3  0  0  0  0  0  0
  187.2230  178.6260  141.6740 O   0  0  0  0  0  0  0  0  0  0  0  0
  186.5410  178.3640  142.7000 C   0  0  0  0  0  0  0  0  0  0  0  0
  186.8120  177.1970  143.4890 N   0  0  0  0  0  2  0  0  0  0  0  0
  184.5510  178.8820  145.8820 C   0  0  1  0  0  3  0  0  0  0  0  0
  185.8640  180.2420  144.2280 C   0  0  0  0  0  2  0  0  0  0  0  0
  183.7630  177.6860  142.4330 O   0  0  0  0  0  1  0  0  0  0  0  0
  184.6190  178.1940  147.1570 N   0  0  0  0  0  1  0  0  0  0  0  0
  185.9030  179.5190  145.5760 C   0  0  0  0  0  2  0  0  0  0  0  0
  184.1140  178.5940  143.4340 C   0  0  2  0  0  3  0  0  0  0  0  0
  185.4370  179.3020  143.0950 C   0  0  2  0  0  3  0  0  0  0  0  0
  184.1750  177.8880  144.7870 C   0  0  0  0  0  2  0  0  0  0  0  0
  1 14  1  0  0  0  0
  2 13  2  0  0  0  0
  2  3  1  0  0  0  0
  3  7  2  0  0  0  0
  3 19  1  0  0  0  0
  4 15  2  0  0  0  0
  5  2  1  0  0  0  0
  6 17  1  0  0  0  0
  6  1  2  0  0  0  0
  7  4  1  0  0  0  0
  8 23  1  0  0  0  0
  8 13  1  0  0  0  0
  9  1  1  0  0  0  0
 11  4  1  0  0  0  0
 12  8  2  0  0  0  0
 13 18  1  0  0  0  0
 14  5  2  0  0  0  0
 15 20  1  0  0  0  0
 16 12  1  0  0  0  0
 16  5  1  0  0  0  0
 17 16  2  0  0  0  0
 18 10  1  0  0  0  0
 19 10  1  0  0  0  0
 19 20  2  0  0  0  0
 21 22  2  0  0  0  0
 22 23  1  0  0  0  0
 24 27  1  1  0  0  0
 25 28  1  0  0  0  0
 28 24  1  0  0  0  0
 29 26  1  6  0  0  0
 29 31  1  0  0  0  0
 30 22  1  1  0  0  0
 30 29  1  0  0  0  0
 30 25  1  0  0  0  0
 31 24  1  0  0  0  0
M  END
>  <MODEL>
9

>  <REMARK>
 VINA RESULT:      -8.0      3.165      8.096
  Name = 
  2 active torsions:
  status: ('A' for Active; 'I' for Inactive)
    1  A    between atoms: C_5  and  C_30
    2  A    between atoms: C_10  and  N_16
                            x       y       z     vdW  Elec       q    Type
                         _______ _______ _______ _____ _____    ______ ____

>  <TORSDO>
F 2

$$$$
