=
 OpenBabel11112417433D

 28 32  0  0  1  0  0  0  0  0999 V2000
  190.3090  174.6330  141.9150 C   0  0  2  0  0  3  0  0  0  0  0  0
  187.8270  178.6780  142.4460 O   0  0  0  0  0  1  0  0  0  0  0  0
  188.7210  174.6440  147.8080 O   0  0  0  0  0  0  0  0  0  0  0  0
  188.6450  172.2740  142.5110 C   0  0  0  0  0  2  0  0  0  0  0  0
  187.5150  176.2580  146.5980 N   0  0  0  0  0  0  0  0  0  0  0  0
  191.7790  175.6630  142.2850 S   0  0  0  0  0  0  0  0  0  0  0  0
  187.7430  177.1210  140.6610 C   0  0  0  0  0  1  0  0  0  0  0  0
  187.1580  177.5350  141.9990 C   0  0  1  0  0  0  0  0  0  0  0  0
  184.7740  177.6360  142.9930 C   0  0  2  0  0  3  0  0  0  0  0  0
  187.3220  176.3860  143.0180 C   0  0  2  0  0  3  0  0  0  0  0  0
  193.2520  176.6990  145.6720 C   0  0  0  0  0  1  0  0  0  0  0  0
  189.0330  176.5610  144.7880 C   0  0  1  0  0  3  0  0  0  0  0  0
  185.5490  177.7370  144.2990 C   0  0  0  0  0  2  0  0  0  0  0  0
  185.6770  177.8830  141.7770 C   0  0  0  0  0  2  0  0  0  0  0  0
  191.9590  176.1570  145.0990 C   0  0  2  0  0  3  0  0  0  0  0  0
  189.2610  174.6600  143.0400 C   0  0  2  0  0  3  0  0  0  0  0  0
  188.6180  175.4030  146.8080 C   0  0  0  0  0  0  0  0  0  0  0  0
  183.7290  178.5580  142.9920 O   0  0  0  0  0  1  0  0  0  0  0  0
  190.9850  175.8620  146.2350 C   0  0  0  0  0  2  0  0  0  0  0  0
  188.1110  173.6750  142.7770 C   0  0  0  0  0  2  0  0  0  0  0  0
  190.7650  173.2050  141.6020 C   0  0  0  0  0  2  0  0  0  0  0  0
  189.5760  172.3020  141.3080 C   0  0  0  0  0  2  0  0  0  0  0  0
  192.3150  174.6730  144.1070 S   0  0  0  0  0  0  0  0  0  0  0  0
  187.6870  177.0150  145.3710 C   0  0  1  0  0  3  0  0  0  0  0  0
  189.6070  175.4670  145.7130 C   0  0  2  0  0  3  0  0  0  0  0  0
  186.6170  176.6440  144.3600 C   0  0  2  0  0  3  0  0  0  0  0  0
  186.4450  176.4810  147.5560 C   0  0  0  0  0  1  0  0  0  0  0  0
  188.7880  176.1010  143.3440 C   0  0  1  0  0  3  0  0  0  0  0  0
  1 21  1  1  0  0  0
  1  6  1  0  0  0  0
  1 16  1  0  0  0  0
  4 20  1  0  0  0  0
  5 17  1  0  0  0  0
  5 27  1  0  0  0  0
  6 23  1  0  0  0  0
  8  7  1  6  0  0  0
  8  2  1  0  0  0  0
  8 10  1  0  0  0  0
  9 18  1  1  0  0  0
  9 13  1  0  0  0  0
 10 28  1  0  0  0  0
 10 26  1  0  0  0  0
 12 24  1  0  0  0  0
 12 25  1  0  0  0  0
 13 26  1  0  0  0  0
 14  8  1  0  0  0  0
 14  9  1  0  0  0  0
 15 11  1  0  0  0  0
 15 19  1  0  0  0  0
 16 28  1  0  0  0  0
 17  3  2  0  0  0  0
 20 16  1  0  0  0  0
 22 21  1  0  0  0  0
 22  4  1  0  0  0  0
 23 15  1  0  0  0  0
 24  5  1  0  0  0  0
 25 19  1  0  0  0  0
 25 17  1  0  0  0  0
 26 24  1  0  0  0  0
 28 12  1  0  0  0  0
M  END
>  <MODEL>
1

>  <REMARK>
 VINA RESULT:      -8.0      0.000      0.000
  Name = 
  0 active torsions:
  status: ('A' for Active; 'I' for Inactive)
                            x       y       z     vdW  Elec       q    Type
                         _______ _______ _______ _____ _____    ______ ____

>  <TORSDO>
F 0

$$$$
=
 OpenBabel11112417433D

 28 32  0  0  1  0  0  0  0  0999 V2000
  190.2980  175.7430  144.3050 C   0  0  2  0  0  3  0  0  0  0  0  0
  185.7210  175.7150  145.6680 O   0  0  0  0  0  1  0  0  0  0  0  0
  187.2540  177.5650  139.3390 O   0  0  0  0  0  0  0  0  0  0  0  0
  191.1650  178.4530  143.5330 C   0  0  0  0  0  2  0  0  0  0  0  0
  185.8810  177.6160  141.2460 N   0  0  0  0  0  0  0  0  0  0  0  0
  190.0200  173.9860  143.8610 S   0  0  0  0  0  0  0  0  0  0  0  0
  187.6150  176.4690  146.8780 C   0  0  0  0  0  1  0  0  0  0  0  0
  186.4920  176.8510  145.9310 C   0  0  1  0  0  0  0  0  0  0  0  0
  184.9150  178.8870  145.7030 C   0  0  2  0  0  3  0  0  0  0  0  0
  187.0840  177.4120  144.6200 C   0  0  2  0  0  3  0  0  0  0  0  0
  188.5620  172.4770  140.6490 C   0  0  0  0  0  1  0  0  0  0  0  0
  187.0520  176.0270  142.5770 C   0  0  1  0  0  3  0  0  0  0  0  0
  184.6860  178.2890  144.3220 C   0  0  0  0  0  2  0  0  0  0  0  0
  185.6120  177.8930  146.6410 C   0  0  0  0  0  2  0  0  0  0  0  0
  188.6150  173.8060  141.3720 C   0  0  2  0  0  3  0  0  0  0  0  0
  189.3500  176.7050  143.5680 C   0  0  2  0  0  3  0  0  0  0  0  0
  186.9920  177.1620  140.5030 C   0  0  0  0  0  0  0  0  0  0  0  0
  183.6950  179.2730  146.2560 O   0  0  0  0  0  1  0  0  0  0  0  0
  187.9530  174.8780  140.5130 C   0  0  0  0  0  2  0  0  0  0  0  0
  189.7000  178.1750  143.8410 C   0  0  0  0  0  2  0  0  0  0  0  0
  191.7670  176.0950  144.0540 C   0  0  0  0  0  2  0  0  0  0  0  0
  192.0460  177.5540  144.3890 C   0  0  0  0  0  2  0  0  0  0  0  0
  190.3460  174.2160  141.7560 S   0  0  0  0  0  0  0  0  0  0  0  0
  185.8380  176.9650  142.5420 C   0  0  1  0  0  3  0  0  0  0  0  0
  187.8290  176.2050  141.2550 C   0  0  2  0  0  3  0  0  0  0  0  0
  186.0280  177.9790  143.6560 C   0  0  2  0  0  3  0  0  0  0  0  0
  184.8320  178.4770  140.7260 C   0  0  0  0  0  1  0  0  0  0  0  0
  187.8660  176.3580  143.8360 C   0  0  1  0  0  3  0  0  0  0  0  0
  1 21  1  6  0  0  0
  2  8  1  0  0  0  0
  3 17  2  0  0  0  0
  4 20  1  0  0  0  0
  4 22  1  0  0  0  0
  5 24  1  0  0  0  0
  6  1  1  0  0  0  0
  8 14  1  0  0  0  0
  8  7  1  1  0  0  0
  9 18  1  1  0  0  0
  9 14  1  0  0  0  0
 10  8  1  0  0  0  0
 11 15  1  0  0  0  0
 12 28  1  0  0  0  0
 13  9  1  0  0  0  0
 15 23  1  0  0  0  0
 16 28  1  0  0  0  0
 16 20  1  0  0  0  0
 16  1  1  0  0  0  0
 17  5  1  0  0  0  0
 17 25  1  0  0  0  0
 19 25  1  0  0  0  0
 19 15  1  0  0  0  0
 21 22  1  0  0  0  0
 23  6  1  0  0  0  0
 24 12  1  0  0  0  0
 24 26  1  0  0  0  0
 25 12  1  0  0  0  0
 26 13  1  0  0  0  0
 26 10  1  0  0  0  0
 27  5  1  0  0  0  0
 28 10  1  0  0  0  0
M  END
>  <MODEL>
2

>  <REMARK>
 VINA RESULT:      -7.8      2.144      4.949
  Name = 
  0 active torsions:
  status: ('A' for Active; 'I' for Inactive)
                            x       y       z     vdW  Elec       q    Type
                         _______ _______ _______ _____ _____    ______ ____

>  <TORSDO>
F 0

$$$$
=
 OpenBabel11112417433D

 28 32  0  0  1  0  0  0  0  0999 V2000
  191.0040  173.5950  142.0870 C   0  0  2  0  0  3  0  0  0  0  0  0
  188.8160  177.8360  141.8850 O   0  0  0  0  0  1  0  0  0  0  0  0
  191.8190  175.9590  147.6550 O   0  0  0  0  0  0  0  0  0  0  0  0
  189.7620  171.8500  144.1120 C   0  0  0  0  0  2  0  0  0  0  0  0
  190.1970  177.1600  146.4490 N   0  0  0  0  0  0  0  0  0  0  0  0
  192.4750  174.4940  141.4640 S   0  0  0  0  0  0  0  0  0  0  0  0
  188.0890  175.7580  141.0050 C   0  0  0  0  0  1  0  0  0  0  0  0
  188.0560  176.7040  142.1920 C   0  0  1  0  0  0  0  0  0  0  0  0
  186.2400  177.4620  143.8690 C   0  0  2  0  0  3  0  0  0  0  0  0
  188.6310  175.9950  143.4380 C   0  0  2  0  0  3  0  0  0  0  0  0
  195.1160  176.4990  143.3940 C   0  0  0  0  0  1  0  0  0  0  0  0
  190.8880  176.5850  144.2440 C   0  0  1  0  0  3  0  0  0  0  0  0
  187.4570  177.9340  144.6510 C   0  0  0  0  0  2  0  0  0  0  0  0
  186.5960  177.1310  142.4130 C   0  0  0  0  0  2  0  0  0  0  0  0
  193.7170  175.9540  143.5910 C   0  0  2  0  0  3  0  0  0  0  0  0
  190.4720  174.1650  143.4140 C   0  0  2  0  0  3  0  0  0  0  0  0
  191.3180  176.3080  146.5530 C   0  0  0  0  0  0  0  0  0  0  0  0
  185.2530  178.4460  143.8950 O   0  0  0  0  0  1  0  0  0  0  0  0
  193.2660  176.2210  145.0230 C   0  0  0  0  0  2  0  0  0  0  0  0
  189.3360  173.3060  143.9910 C   0  0  0  0  0  2  0  0  0  0  0  0
  191.3410  172.1070  142.2060 C   0  0  0  0  0  2  0  0  0  0  0  0
  190.1540  171.3170  142.7410 C   0  0  0  0  0  2  0  0  0  0  0  0
  193.7000  174.1780  143.1930 S   0  0  0  0  0  0  0  0  0  0  0  0
  189.8620  177.3880  145.0550 C   0  0  1  0  0  3  0  0  0  0  0  0
  191.8040  175.8410  145.2390 C   0  0  2  0  0  3  0  0  0  0  0  0
  188.4940  176.8130  144.7340 C   0  0  2  0  0  3  0  0  0  0  0  0
  189.5750  177.8510  147.5660 C   0  0  0  0  0  1  0  0  0  0  0  0
  190.1160  175.6650  143.2880 C   0  0  1  0  0  3  0  0  0  0  0  0
  1 21  1  1  0  0  0
  1 16  1  0  0  0  0
  2  8  1  0  0  0  0
  5 17  1  0  0  0  0
  5 27  1  0  0  0  0
  6  1  1  0  0  0  0
  6 23  1  0  0  0  0
  8  7  1  6  0  0  0
  8 14  1  0  0  0  0
  8 10  1  0  0  0  0
  9 18  1  6  0  0  0
  9 13  1  0  0  0  0
 10 26  1  0  0  0  0
 11 15  1  0  0  0  0
 12 24  1  0  0  0  0
 12 25  1  0  0  0  0
 13 26  1  0  0  0  0
 14  9  1  0  0  0  0
 15 19  1  0  0  0  0
 16 20  1  0  0  0  0
 17  3  2  0  0  0  0
 19 25  1  0  0  0  0
 20  4  1  0  0  0  0
 21 22  1  0  0  0  0
 22  4  1  0  0  0  0
 23 15  1  0  0  0  0
 24  5  1  0  0  0  0
 25 17  1  0  0  0  0
 26 24  1  0  0  0  0
 28 16  1  0  0  0  0
 28 10  1  0  0  0  0
 28 12  1  0  0  0  0
M  END
>  <MODEL>
3

>  <REMARK>
 VINA RESULT:      -7.3      1.678      2.074
  Name = 
  0 active torsions:
  status: ('A' for Active; 'I' for Inactive)
                            x       y       z     vdW  Elec       q    Type
                         _______ _______ _______ _____ _____    ______ ____

>  <TORSDO>
F 0

$$$$
=
 OpenBabel11112417433D

 28 32  0  0  1  0  0  0  0  0999 V2000
  193.9940  173.9970  145.1660 C   0  0  2  0  0  3  0  0  0  0  0  0
  189.4900  174.2370  146.7390 O   0  0  0  0  0  1  0  0  0  0  0  0
  190.6270  173.7910  140.0800 O   0  0  0  0  0  0  0  0  0  0  0  0
  194.6430  176.2950  143.4370 C   0  0  0  0  0  2  0  0  0  0  0  0
  189.3350  174.4500  141.9300 N   0  0  0  0  0  0  0  0  0  0  0  0
  193.8150  172.1860  145.3870 S   0  0  0  0  0  0  0  0  0  0  0  0
  191.3790  175.4600  147.4840 C   0  0  0  0  0  1  0  0  0  0  0  0
  190.1940  175.4280  146.5360 C   0  0  1  0  0  0  0  0  0  0  0  0
  188.4750  177.1720  145.7060 C   0  0  2  0  0  3  0  0  0  0  0  0
  190.6910  175.5150  145.0760 C   0  0  2  0  0  3  0  0  0  0  0  0
  192.3270  169.5670  143.0100 C   0  0  0  0  0  1  0  0  0  0  0  0
  190.6660  173.4950  143.6580 C   0  0  1  0  0  3  0  0  0  0  0  0
  188.2290  176.1130  144.6410 C   0  0  0  0  0  2  0  0  0  0  0  0
  189.2770  176.6110  146.8880 C   0  0  0  0  0  2  0  0  0  0  0  0
  192.3210  171.0680  143.2150 C   0  0  2  0  0  3  0  0  0  0  0  0
  192.9530  174.5880  144.2000 C   0  0  2  0  0  3  0  0  0  0  0  0
  190.4420  173.8160  141.3260 C   0  0  0  0  0  0  0  0  0  0  0  0
  187.2570  177.6710  146.1640 O   0  0  0  0  0  1  0  0  0  0  0  0
  191.5530  171.7320  142.0770 C   0  0  0  0  0  2  0  0  0  0  0  0
  193.2150  176.0750  143.9150 C   0  0  0  0  0  2  0  0  0  0  0  0
  195.4230  174.3070  144.7150 C   0  0  0  0  0  2  0  0  0  0  0  0
  195.6180  175.8010  144.4970 C   0  0  0  0  0  2  0  0  0  0  0  0
  194.0360  171.6690  143.3200 S   0  0  0  0  0  0  0  0  0  0  0  0
  189.3910  174.3000  143.3720 C   0  0  1  0  0  3  0  0  0  0  0  0
  191.3720  173.2280  142.3110 C   0  0  2  0  0  3  0  0  0  0  0  0
  189.5590  175.6520  144.0440 C   0  0  2  0  0  3  0  0  0  0  0  0
  188.2100  175.0190  141.2070 C   0  0  0  0  0  1  0  0  0  0  0  0
  191.5080  174.2890  144.6660 C   0  0  1  0  0  3  0  0  0  0  0  0
  1 21  1  6  0  0  0
  1  6  1  0  0  0  0
  3 17  2  0  0  0  0
  4 20  1  0  0  0  0
  4 22  1  0  0  0  0
  5 24  1  0  0  0  0
  8  2  1  0  0  0  0
  8 14  1  0  0  0  0
  8  7  1  1  0  0  0
  9 18  1  1  0  0  0
  9 14  1  0  0  0  0
 10  8  1  0  0  0  0
 11 15  1  0  0  0  0
 12 28  1  0  0  0  0
 13  9  1  0  0  0  0
 15 23  1  0  0  0  0
 16 28  1  0  0  0  0
 16  1  1  0  0  0  0
 17  5  1  0  0  0  0
 17 25  1  0  0  0  0
 19 25  1  0  0  0  0
 19 15  1  0  0  0  0
 20 16  1  0  0  0  0
 22 21  1  0  0  0  0
 23  6  1  0  0  0  0
 24 12  1  0  0  0  0
 24 26  1  0  0  0  0
 25 12  1  0  0  0  0
 26 13  1  0  0  0  0
 26 10  1  0  0  0  0
 27  5  1  0  0  0  0
 28 10  1  0  0  0  0
M  END
>  <MODEL>
4

>  <REMARK>
 VINA RESULT:      -6.8      2.665      5.578
  Name = 
  0 active torsions:
  status: ('A' for Active; 'I' for Inactive)
                            x       y       z     vdW  Elec       q    Type
                         _______ _______ _______ _____ _____    ______ ____

>  <TORSDO>
F 0

$$$$
=
 OpenBabel11112417433D

 28 32  0  0  1  0  0  0  0  0999 V2000
  189.5880  176.4640  145.3000 C   0  0  2  0  0  3  0  0  0  0  0  0
  193.4930  176.7310  142.5630 O   0  0  0  0  0  1  0  0  0  0  0  0
  188.6450  172.2910  140.9470 O   0  0  0  0  0  0  0  0  0  0  0  0
  189.3160  173.7910  146.5130 C   0  0  0  0  0  2  0  0  0  0  0  0
  190.8810  173.0140  140.9630 N   0  0  0  0  0  0  0  0  0  0  0  0
  188.9210  177.7820  144.2150 S   0  0  0  0  0  0  0  0  0  0  0  0
  193.3430  176.7910  144.9280 C   0  0  0  0  0  1  0  0  0  0  0  0
  193.5250  175.9180  143.6990 C   0  0  1  0  0  0  0  0  0  0  0  0
  195.0080  173.8830  143.1130 C   0  0  2  0  0  3  0  0  0  0  0  0
  192.3980  174.8640  143.6370 C   0  0  2  0  0  3  0  0  0  0  0  0
  187.1580  177.4960  140.8190 C   0  0  0  0  0  1  0  0  0  0  0  0
  190.5670  175.1340  142.0030 C   0  0  1  0  0  3  0  0  0  0  0  0
  194.0080  173.7480  141.9730 C   0  0  0  0  0  2  0  0  0  0  0  0
  194.9090  175.2540  143.7940 C   0  0  0  0  0  2  0  0  0  0  0  0
  188.0360  176.6650  141.7310 C   0  0  2  0  0  3  0  0  0  0  0  0
  189.9810  175.1930  144.5270 C   0  0  2  0  0  3  0  0  0  0  0  0
  189.5040  173.1640  141.2380 C   0  0  0  0  0  0  0  0  0  0  0  0
  196.3020  173.6950  142.6290 O   0  0  0  0  0  1  0  0  0  0  0  0
  188.1910  175.2640  141.1480 C   0  0  0  0  0  2  0  0  0  0  0  0
  190.3940  174.0530  145.4700 C   0  0  0  0  0  2  0  0  0  0  0  0
  188.5710  176.1620  146.4030 C   0  0  0  0  0  2  0  0  0  0  0  0
  189.0700  175.0560  147.3220 C   0  0  0  0  0  2  0  0  0  0  0  0
  187.3090  176.6290  143.4000 S   0  0  0  0  0  0  0  0  0  0  0  0
  191.6150  174.1870  141.4010 C   0  0  1  0  0  3  0  0  0  0  0  0
  189.1960  174.4290  141.9350 C   0  0  2  0  0  3  0  0  0  0  0  0
  192.5810  173.8270  142.5160 C   0  0  2  0  0  3  0  0  0  0  0  0
  191.4590  171.9240  140.1950 C   0  0  0  0  0  1  0  0  0  0  0  0
  191.0220  175.4960  143.4230 C   0  0  1  0  0  3  0  0  0  0  0  0
  1 21  1  1  0  0  0
  2  8  1  0  0  0  0
  3 17  2  0  0  0  0
  4 22  1  0  0  0  0
  5 17  1  0  0  0  0
  5 24  1  0  0  0  0
  6  1  1  0  0  0  0
  8 14  1  0  0  0  0
  8  7  1  1  0  0  0
  9 18  1  6  0  0  0
  9 14  1  0  0  0  0
 10  8  1  0  0  0  0
 11 15  1  0  0  0  0
 12 28  1  0  0  0  0
 13 26  1  0  0  0  0
 13  9  1  0  0  0  0
 15 23  1  0  0  0  0
 16  1  1  0  0  0  0
 16 20  1  0  0  0  0
 17 25  1  0  0  0  0
 19 15  1  0  0  0  0
 19 25  1  0  0  0  0
 20  4  1  0  0  0  0
 21 22  1  0  0  0  0
 23  6  1  0  0  0  0
 24 12  1  0  0  0  0
 24 26  1  0  0  0  0
 25 12  1  0  0  0  0
 26 10  1  0  0  0  0
 27  5  1  0  0  0  0
 28 10  1  0  0  0  0
 28 16  1  0  0  0  0
M  END
>  <MODEL>
5

>  <REMARK>
 VINA RESULT:      -6.8      3.455      6.841
  Name = 
  0 active torsions:
  status: ('A' for Active; 'I' for Inactive)
                            x       y       z     vdW  Elec       q    Type
                         _______ _______ _______ _____ _____    ______ ____

>  <TORSDO>
F 0

$$$$
=
 OpenBabel11112417433D

 28 32  0  0  1  0  0  0  0  0999 V2000
  190.5020  177.0780  145.2390 C   0  0  2  0  0  3  0  0  0  0  0  0
  193.7730  175.7550  142.0200 O   0  0  0  0  0  1  0  0  0  0  0  0
  187.9510  172.3210  142.3910 O   0  0  0  0  0  0  0  0  0  0  0  0
  189.9730  174.9160  147.1720 C   0  0  0  0  0  2  0  0  0  0  0  0
  190.2420  172.4820  141.8940 N   0  0  0  0  0  0  0  0  0  0  0  0
  189.8970  178.2140  143.9340 S   0  0  0  0  0  0  0  0  0  0  0  0
  194.1040  176.4160  144.2720 C   0  0  0  0  0  1  0  0  0  0  0  0
  193.8730  175.2550  143.3220 C   0  0  1  0  0  0  0  0  0  0  0  0
  194.7990  172.8500  143.1220 C   0  0  2  0  0  3  0  0  0  0  0  0
  192.5760  174.5120  143.7110 C   0  0  2  0  0  3  0  0  0  0  0  0
  187.4810  177.5410  141.0310 C   0  0  0  0  0  1  0  0  0  0  0  0
  190.5460  174.8020  142.3380 C   0  0  1  0  0  3  0  0  0  0  0  0
  193.5880  172.6830  142.2160 C   0  0  0  0  0  2  0  0  0  0  0  0
  195.0970  174.3280  143.4040 C   0  0  0  0  0  2  0  0  0  0  0  0
  188.3470  176.7720  142.0070 C   0  0  2  0  0  3  0  0  0  0  0  0
  190.4880  175.6030  144.8030 C   0  0  2  0  0  3  0  0  0  0  0  0
  189.0000  173.0120  142.3050 C   0  0  0  0  0  0  0  0  0  0  0  0
  195.9140  172.2540  142.5350 O   0  0  0  0  0  1  0  0  0  0  0  0
  188.1170  175.2760  141.8200 C   0  0  0  0  0  2  0  0  0  0  0  0
  190.8550  174.6590  145.9580 C   0  0  0  0  0  2  0  0  0  0  0  0
  189.6830  177.2980  146.5130 C   0  0  0  0  0  2  0  0  0  0  0  0
  190.1340  176.3600  147.6240 C   0  0  0  0  0  2  0  0  0  0  0  0
  187.9690  177.3110  143.7040 S   0  0  0  0  0  0  0  0  0  0  0  0
  191.2570  173.5200  141.8830 C   0  0  1  0  0  3  0  0  0  0  0  0
  189.0800  174.4430  142.6600 C   0  0  2  0  0  3  0  0  0  0  0  0
  192.3360  173.2230  142.9090 C   0  0  2  0  0  3  0  0  0  0  0  0
  190.4410  171.1350  141.3870 C   0  0  0  0  0  1  0  0  0  0  0  0
  191.3300  175.3790  143.5240 C   0  0  1  0  0  3  0  0  0  0  0  0
  1 21  1  1  0  0  0
  2  8  1  0  0  0  0
  4 22  1  0  0  0  0
  5 17  1  0  0  0  0
  6  1  1  0  0  0  0
  8 14  1  0  0  0  0
  8 10  1  0  0  0  0
  8  7  1  1  0  0  0
  9 18  1  6  0  0  0
  9 14  1  0  0  0  0
 11 15  1  0  0  0  0
 12 25  1  0  0  0  0
 12 28  1  0  0  0  0
 13 26  1  0  0  0  0
 13  9  1  0  0  0  0
 15 23  1  0  0  0  0
 16  1  1  0  0  0  0
 16 20  1  0  0  0  0
 17  3  2  0  0  0  0
 17 25  1  0  0  0  0
 19 15  1  0  0  0  0
 19 25  1  0  0  0  0
 20  4  1  0  0  0  0
 21 22  1  0  0  0  0
 23  6  1  0  0  0  0
 24  5  1  0  0  0  0
 24 12  1  0  0  0  0
 24 26  1  0  0  0  0
 26 10  1  0  0  0  0
 27  5  1  0  0  0  0
 28 10  1  0  0  0  0
 28 16  1  0  0  0  0
M  END
>  <MODEL>
6

>  <REMARK>
 VINA RESULT:      -6.7      3.428      6.836
  Name = 
  0 active torsions:
  status: ('A' for Active; 'I' for Inactive)
                            x       y       z     vdW  Elec       q    Type
                         _______ _______ _______ _____ _____    ______ ____

>  <TORSDO>
F 0

$$$$
=
 OpenBabel11112417433D

 28 32  0  0  1  0  0  0  0  0999 V2000
  188.5920  177.5010  144.3180 C   0  0  2  0  0  3  0  0  0  0  0  0
  193.1860  176.7290  143.2670 O   0  0  0  0  0  1  0  0  0  0  0  0
  188.9410  171.4610  143.5130 O   0  0  0  0  0  0  0  0  0  0  0  0
  187.8160  176.1100  146.7990 C   0  0  0  0  0  2  0  0  0  0  0  0
  191.0790  172.4200  143.7020 N   0  0  0  0  0  0  0  0  0  0  0  0
  188.3780  177.7530  142.5150 S   0  0  0  0  0  0  0  0  0  0  0  0
  192.2720  178.1800  144.9030 C   0  0  0  0  0  1  0  0  0  0  0  0
  192.8070  176.7900  144.6110 C   0  0  1  0  0  0  0  0  0  0  0  0
  194.3070  175.1110  145.8820 C   0  0  2  0  0  3  0  0  0  0  0  0
  191.7160  175.7390  144.9080 C   0  0  2  0  0  3  0  0  0  0  0  0
  187.8160  175.1720  139.7330 C   0  0  0  0  0  1  0  0  0  0  0  0
  190.5380  174.6420  143.0370 C   0  0  1  0  0  3  0  0  0  0  0  0
  193.7310  174.1440  144.8570 C   0  0  0  0  0  2  0  0  0  0  0  0
  194.0510  176.5710  145.4880 C   0  0  0  0  0  2  0  0  0  0  0  0
  188.3080  175.2300  141.1640 C   0  0  2  0  0  3  0  0  0  0  0  0
  189.1580  176.1140  144.6650 C   0  0  2  0  0  3  0  0  0  0  0  0
  189.6970  172.4650  143.4180 C   0  0  0  0  0  0  0  0  0  0  0  0
  195.6780  174.8970  146.0140 O   0  0  0  0  0  1  0  0  0  0  0  0
  188.5820  173.8150  141.6640 C   0  0  0  0  0  2  0  0  0  0  0  0
  189.1870  175.8700  146.1820 C   0  0  0  0  0  2  0  0  0  0  0  0
  187.2560  177.7580  145.0200 C   0  0  0  0  0  2  0  0  0  0  0  0
  187.3760  177.5410  146.5220 C   0  0  0  0  0  2  0  0  0  0  0  0
  187.0730  176.0860  142.1910 S   0  0  0  0  0  0  0  0  0  0  0  0
  191.6810  173.7240  143.4910 C   0  0  1  0  0  3  0  0  0  0  0  0
  189.2340  173.8160  143.0430 C   0  0  2  0  0  3  0  0  0  0  0  0
  192.2100  174.2860  144.7980 C   0  0  2  0  0  3  0  0  0  0  0  0
  191.8270  171.2090  143.9920 C   0  0  0  0  0  1  0  0  0  0  0  0
  190.5170  175.8620  143.9680 C   0  0  1  0  0  3  0  0  0  0  0  0
  1 16  1  0  0  0  0
  1 21  1  1  0  0  0
  2  8  1  0  0  0  0
  5 27  1  0  0  0  0
  6  1  1  0  0  0  0
  8  7  1  1  0  0  0
  8 10  1  0  0  0  0
  8 14  1  0  0  0  0
  9 18  1  6  0  0  0
 11 15  1  0  0  0  0
 12 25  1  0  0  0  0
 12 24  1  0  0  0  0
 12 28  1  0  0  0  0
 13  9  1  0  0  0  0
 14  9  1  0  0  0  0
 15 19  1  0  0  0  0
 15 23  1  0  0  0  0
 16 20  1  0  0  0  0
 17  3  2  0  0  0  0
 17  5  1  0  0  0  0
 19 25  1  0  0  0  0
 20  4  1  0  0  0  0
 21 22  1  0  0  0  0
 22  4  1  0  0  0  0
 23  6  1  0  0  0  0
 24  5  1  0  0  0  0
 24 26  1  0  0  0  0
 25 17  1  0  0  0  0
 26 13  1  0  0  0  0
 26 10  1  0  0  0  0
 28 16  1  0  0  0  0
 28 10  1  0  0  0  0
M  END
>  <MODEL>
7

>  <REMARK>
 VINA RESULT:      -6.7      3.202      6.467
  Name = 
  0 active torsions:
  status: ('A' for Active; 'I' for Inactive)
                            x       y       z     vdW  Elec       q    Type
                         _______ _______ _______ _____ _____    ______ ____

>  <TORSDO>
F 0

$$$$
=
 OpenBabel11112417433D

 28 32  0  0  1  0  0  0  0  0999 V2000
  195.9060  175.0460  144.6620 C   0  0  2  0  0  3  0  0  0  0  0  0
  192.1520  174.9100  147.6110 O   0  0  0  0  0  1  0  0  0  0  0  0
  192.0710  171.1070  142.0110 O   0  0  0  0  0  0  0  0  0  0  0  0
  195.1330  176.0370  141.9950 C   0  0  0  0  0  2  0  0  0  0  0  0
  191.0020  172.3190  143.7170 N   0  0  0  0  0  0  0  0  0  0  0  0
  196.5900  173.7100  145.7140 S   0  0  0  0  0  0  0  0  0  0  0  0
  193.4120  176.7930  146.9140 C   0  0  0  0  0  1  0  0  0  0  0  0
  192.2050  175.9140  146.6400 C   0  0  1  0  0  0  0  0  0  0  0  0
  189.7710  176.3440  145.8840 C   0  0  2  0  0  3  0  0  0  0  0  0
  192.3240  175.2910  145.2320 C   0  0  2  0  0  3  0  0  0  0  0  0
  195.9850  169.9240  145.5600 C   0  0  0  0  0  1  0  0  0  0  0  0
  192.9210  172.9070  144.9990 C   0  0  1  0  0  3  0  0  0  0  0  0
  189.8180  174.8500  145.5960 C   0  0  0  0  0  2  0  0  0  0  0  0
  190.9470  176.7890  146.7620 C   0  0  0  0  0  2  0  0  0  0  0  0
  195.3580  171.2090  145.0610 C   0  0  2  0  0  3  0  0  0  0  0  0
  194.5480  174.6820  144.0380 C   0  0  2  0  0  3  0  0  0  0  0  0
  192.1370  171.7810  143.0730 C   0  0  0  0  0  0  0  0  0  0  0  0
  188.5700  176.6650  146.5150 O   0  0  0  0  0  1  0  0  0  0  0  0
  194.1730  170.8780  144.1590 C   0  0  0  0  0  2  0  0  0  0  0  0
  194.0680  175.7510  143.0450 C   0  0  0  0  0  2  0  0  0  0  0  0
  196.9370  175.4180  143.5930 C   0  0  0  0  0  2  0  0  0  0  0  0
  196.4070  176.5130  142.6770 C   0  0  0  0  0  2  0  0  0  0  0  0
  196.6160  172.1980  144.1960 S   0  0  0  0  0  0  0  0  0  0  0  0
  191.3930  173.0310  144.9200 C   0  0  1  0  0  3  0  0  0  0  0  0
  193.4000  172.1290  143.7550 C   0  0  2  0  0  3  0  0  0  0  0  0
  191.0740  174.5100  144.7920 C   0  0  2  0  0  3  0  0  0  0  0  0
  189.6260  172.0520  143.3330 C   0  0  0  0  0  1  0  0  0  0  0  0
  193.5020  174.3230  145.1200 C   0  0  1  0  0  3  0  0  0  0  0  0
  1 21  1  6  0  0  0
  1  6  1  0  0  0  0
  3 17  2  0  0  0  0
  4 22  1  0  0  0  0
  4 20  1  0  0  0  0
  5 24  1  0  0  0  0
  8 14  1  0  0  0  0
  8  7  1  1  0  0  0
  8  2  1  0  0  0  0
  9 18  1  1  0  0  0
  9 14  1  0  0  0  0
 10  8  1  0  0  0  0
 12 28  1  0  0  0  0
 13  9  1  0  0  0  0
 15 11  1  0  0  0  0
 16  1  1  0  0  0  0
 16 28  1  0  0  0  0
 17  5  1  0  0  0  0
 17 25  1  0  0  0  0
 19 15  1  0  0  0  0
 20 16  1  0  0  0  0
 22 21  1  0  0  0  0
 23 15  1  0  0  0  0
 23  6  1  0  0  0  0
 24 12  1  0  0  0  0
 25 19  1  0  0  0  0
 25 12  1  0  0  0  0
 26 24  1  0  0  0  0
 26 10  1  0  0  0  0
 26 13  1  0  0  0  0
 27  5  1  0  0  0  0
 28 10  1  0  0  0  0
M  END
>  <MODEL>
8

>  <REMARK>
 VINA RESULT:      -6.6      3.829      6.434
  Name = 
  0 active torsions:
  status: ('A' for Active; 'I' for Inactive)
                            x       y       z     vdW  Elec       q    Type
                         _______ _______ _______ _____ _____    ______ ____

>  <TORSDO>
F 0

$$$$
=
 OpenBabel11112417433D

 28 32  0  0  1  0  0  0  0  0999 V2000
  186.1930  176.3520  142.9010 C   0  0  2  0  0  3  0  0  0  0  0  0
  189.0530  172.5580  143.3920 O   0  0  0  0  0  1  0  0  0  0  0  0
  191.7630  178.7590  143.5540 O   0  0  0  0  0  0  0  0  0  0  0  0
  186.8990  177.9160  140.5040 C   0  0  0  0  0  2  0  0  0  0  0  0
  191.8780  176.4500  143.1330 N   0  0  0  0  0  0  0  0  0  0  0  0
  185.9970  176.2510  144.7210 S   0  0  0  0  0  0  0  0  0  0  0  0
  187.2340  172.8500  141.9000 C   0  0  0  0  0  1  0  0  0  0  0  0
  188.7310  172.9930  142.1030 C   0  0  1  0  0  0  0  0  0  0  0  0
  190.8180  172.5690  140.6370 C   0  0  2  0  0  3  0  0  0  0  0  0
  189.1440  174.4690  141.9170 C   0  0  2  0  0  3  0  0  0  0  0  0
  188.2230  177.6730  147.5030 C   0  0  0  0  0  1  0  0  0  0  0  0
  189.7070  175.8360  143.8940 C   0  0  1  0  0  3  0  0  0  0  0  0
  191.4830  173.4260  141.7050 C   0  0  0  0  0  2  0  0  0  0  0  0
  189.4340  172.0810  141.0830 C   0  0  0  0  0  2  0  0  0  0  0  0
  188.2960  177.3500  146.0250 C   0  0  2  0  0  3  0  0  0  0  0  0
  187.6580  176.5270  142.4650 C   0  0  2  0  0  3  0  0  0  0  0  0
  191.2260  177.6200  143.5770 C   0  0  0  0  0  0  0  0  0  0  0  0
  191.6260  171.4730  140.3410 O   0  0  0  0  0  1  0  0  0  0  0  0
  189.6410  177.8100  145.4720 C   0  0  0  0  0  2  0  0  0  0  0  0
  187.7820  176.7590  140.9510 C   0  0  0  0  0  2  0  0  0  0  0  0
  185.3060  177.4770  142.3640 C   0  0  0  0  0  2  0  0  0  0  0  0
  185.4490  177.6160  140.8550 C   0  0  0  0  0  2  0  0  0  0  0  0
  186.9010  178.1410  145.1650 S   0  0  0  0  0  0  0  0  0  0  0  0
  191.0120  175.2960  143.2940 C   0  0  1  0  0  3  0  0  0  0  0  0
  189.8420  177.3680  144.0270 C   0  0  2  0  0  3  0  0  0  0  0  0
  190.6650  174.6950  141.9430 C   0  0  2  0  0  3  0  0  0  0  0  0
  193.2740  176.3790  142.7350 C   0  0  0  0  0  1  0  0  0  0  0  0
  188.5510  175.3790  142.9940 C   0  0  1  0  0  3  0  0  0  0  0  0
  1 21  1  1  0  0  0
  1  6  1  0  0  0  0
  3 17  2  0  0  0  0
  4 22  1  0  0  0  0
  4 20  1  0  0  0  0
  5 24  1  0  0  0  0
  5 17  1  0  0  0  0
  6 23  1  0  0  0  0
  8  7  1  6  0  0  0
  8  2  1  0  0  0  0
  9 18  1  1  0  0  0
  9 14  1  0  0  0  0
  9 13  1  0  0  0  0
 10 26  1  0  0  0  0
 10  8  1  0  0  0  0
 10 28  1  0  0  0  0
 12 25  1  0  0  0  0
 13 26  1  0  0  0  0
 14  8  1  0  0  0  0
 15 11  1  0  0  0  0
 16  1  1  0  0  0  0
 16 28  1  0  0  0  0
 17 25  1  0  0  0  0
 19 15  1  0  0  0  0
 20 16  1  0  0  0  0
 22 21  1  0  0  0  0
 23 15  1  0  0  0  0
 24 12  1  0  0  0  0
 25 19  1  0  0  0  0
 26 24  1  0  0  0  0
 27  5  1  0  0  0  0
 28 12  1  0  0  0  0
M  END
>  <MODEL>
9

>  <REMARK>
 VINA RESULT:      -6.5      3.084      5.717
  Name = 
  0 active torsions:
  status: ('A' for Active; 'I' for Inactive)
                            x       y       z     vdW  Elec       q    Type
                         _______ _______ _______ _____ _____    ______ ____

>  <TORSDO>
F 0

$$$$
