=
 OpenBabel11112417503D

 34 40  0  0  1  0  0  0  0  0999 V2000
  189.5080  177.0510  142.9170 C   0  0  0  0  0  0  0  0  0  0  0  0
  191.9710  177.0240  142.5440 C   0  0  0  0  0  2  0  0  0  0  0  0
  185.5230  178.5560  147.8560 C   0  0  1  0  0  3  0  0  0  0  0  0
  187.4870  177.8210  143.9980 C   0  0  0  0  0  0  0  0  0  0  0  0
  186.8440  176.8740  146.2870 C   0  0  2  0  0  3  0  0  0  0  0  0
  186.1810  176.3920  148.4970 O   0  0  0  0  0  0  0  0  0  0  0  0
  186.4770  179.5740  147.8640 O   0  0  0  0  0  1  0  0  0  0  0  0
  184.0610  177.8550  145.8460 C   0  0  0  0  0  2  0  0  0  0  0  0
  191.1440  175.4580  144.1130 C   0  0  2  0  0  3  0  0  0  0  0  0
  193.2340  175.0430  146.4850 C   0  0  0  0  0  2  0  0  0  0  0  0
  188.3430  176.7220  146.4900 C   0  0  0  0  0  2  0  0  0  0  0  0
  185.0870  177.8380  144.7110 C   0  0  0  0  0  2  0  0  0  0  0  0
  190.4800  175.9730  145.4070 C   0  0  1  0  0  3  0  0  0  0  0  0
  193.0940  176.3040  142.9720 O   0  0  0  0  0  0  0  0  0  0  0  0
  186.5470  177.9060  145.1800 C   0  0  2  0  0  3  0  0  0  0  0  0
  184.3760  178.9220  146.8970 C   0  0  0  0  0  2  0  0  0  0  0  0
  193.3610  176.0630  145.3650 C   0  0  2  0  0  3  0  0  0  0  0  0
  188.6670  177.0460  144.0420 C   0  0  0  0  0  0  0  0  0  0  0  0
  186.1870  177.2220  147.6030 C   0  0  0  0  0  0  0  0  0  0  0  0
  188.9710  176.1550  145.2190 C   0  0  2  0  0  3  0  0  0  0  0  0
  188.0640  178.5790  141.8290 C   0  0  0  0  0  3  0  0  0  0  0  0
  191.9810  175.3050  147.3040 C   0  0  0  0  0  2  0  0  0  0  0  0
  187.2330  178.5850  142.9010 N   0  0  0  0  0  0  0  0  0  0  0  0
  190.7250  174.9610  146.5230 C   0  0  0  0  0  2  0  0  0  0  0  0
  192.6830  175.5450  144.0880 C   0  0  1  0  0  3  0  0  0  0  0  0
  189.1810  177.8130  141.8400 N   0  0  0  0  0  0  0  0  0  0  0  0
  190.7490  176.2020  142.8540 C   0  0  1  0  0  3  0  0  0  0  0  0
  194.7180  176.3010  145.1210 O   0  0  0  0  0  0  0  0  0  0  0  0
  195.2480  175.1040  144.9550 O   0  0  0  0  0  0  0  0  0  0  0  0
  196.0890  175.1260  141.9460 O   0  0  0  0  0  0  0  0  0  0  0  0
  196.4200  176.7060  143.6720 C   0  0  0  0  0  2  0  0  0  0  0  0
  196.4470  175.3330  144.2730 C   0  0  2  0  0  3  0  0  0  0  0  0
  196.4630  176.4560  142.1820 C   0  0  0  0  0  2  0  0  0  0  0  0
  196.5260  174.4170  143.0730 C   0  0  0  0  0  2  0  0  0  0  0  0
  1 18  1  0  0  0  0
  2 27  1  0  0  0  0
  2 14  1  0  0  0  0
  3  7  1  6  0  0  0
  4 18  2  0  0  0  0
  4 15  1  0  0  0  0
  5 11  1  1  0  0  0
  5 19  1  0  0  0  0
  8 16  1  0  0  0  0
  9 13  1  0  0  0  0
 10 22  1  0  0  0  0
 12 15  1  0  0  0  0
 12  8  1  0  0  0  0
 13 24  1  0  0  0  0
 14 25  1  0  0  0  0
 15  5  1  0  0  0  0
 16  3  1  0  0  0  0
 17 10  1  0  0  0  0
 18 20  1  0  0  0  0
 19  3  1  0  0  0  0
 19  6  2  0  0  0  0
 20 13  1  0  0  0  0
 20 11  1  0  0  0  0
 21 26  1  0  0  0  0
 21 23  2  0  0  0  0
 23  4  1  0  0  0  0
 24 22  1  0  0  0  0
 25  9  1  0  0  0  0
 25 17  1  0  0  0  0
 26  1  2  0  0  0  0
 27  1  1  0  0  0  0
 27  9  1  0  0  0  0
 28 17  1  0  0  0  0
 29 28  1  0  0  0  0
 30 33  1  0  0  0  0
 30 34  1  0  0  0  0
 31 32  1  0  0  0  0
 32 29  1  0  0  0  0
 33 31  1  0  0  0  0
 34 32  1  0  0  0  0
M  END
>  <MODEL>
1

>  <REMARK>
 VINA RESULT:      -8.4      0.000      0.000
  Name = 
  3 active torsions:
  status: ('A' for Active; 'I' for Inactive)
    1  A    between atoms: C_17  and  O_28
    2  A    between atoms: O_28  and  O_29
    3  A    between atoms: O_29  and  C_32
                            x       y       z     vdW  Elec       q    Type
                         _______ _______ _______ _____ _____    ______ ____

>  <TORSDO>
F 3

$$$$
=
 OpenBabel11112417503D

 34 40  0  0  1  0  0  0  0  0999 V2000
  191.7250  175.9510  145.9900 C   0  0  0  0  0  0  0  0  0  0  0  0
  189.6740  177.2630  146.5190 C   0  0  0  0  0  2  0  0  0  0  0  0
  195.3320  174.8140  140.6770 C   0  0  1  0  0  3  0  0  0  0  0  0
  193.7150  175.4610  144.7070 C   0  0  0  0  0  0  0  0  0  0  0  0
  193.5070  174.1880  142.4980 C   0  0  2  0  0  3  0  0  0  0  0  0
  193.5690  173.3010  140.3150 O   0  0  0  0  0  0  0  0  0  0  0  0
  195.0620  176.1810  140.6200 O   0  0  0  0  0  1  0  0  0  0  0  0
  196.4190  173.5580  142.6540 C   0  0  0  0  0  2  0  0  0  0  0  0
  189.3760  175.4090  145.0780 C   0  0  2  0  0  3  0  0  0  0  0  0
  187.1330  176.0380  142.9000 C   0  0  0  0  0  2  0  0  0  0  0  0
  192.1410  174.8470  142.4070 C   0  0  0  0  0  2  0  0  0  0  0  0
  195.6700  174.1550  143.8470 C   0  0  0  0  0  2  0  0  0  0  0  0
  190.0640  175.4160  143.6970 C   0  0  1  0  0  3  0  0  0  0  0  0
  188.3010  177.2290  146.2410 O   0  0  0  0  0  0  0  0  0  0  0  0
  194.4220  174.9640  143.4660 C   0  0  2  0  0  3  0  0  0  0  0  0
  196.5990  174.5660  141.5170 C   0  0  0  0  0  2  0  0  0  0  0  0
  187.6840  177.0310  143.9110 C   0  0  2  0  0  3  0  0  0  0  0  0
  192.3080  175.4340  144.8210 C   0  0  0  0  0  0  0  0  0  0  0  0
  194.0990  174.0560  141.1130 C   0  0  0  0  0  0  0  0  0  0  0  0
  191.4530  174.7760  143.7680 C   0  0  2  0  0  3  0  0  0  0  0  0
  193.8670  176.5330  146.8140 C   0  0  0  0  0  3  0  0  0  0  0  0
  188.2360  175.5440  141.9810 C   0  0  0  0  0  2  0  0  0  0  0  0
  194.4520  176.0340  145.6980 N   0  0  0  0  0  0  0  0  0  0  0  0
  189.2020  174.6280  142.7130 C   0  0  0  0  0  2  0  0  0  0  0  0
  188.1260  176.3050  145.1900 C   0  0  1  0  0  3  0  0  0  0  0  0
  192.5200  176.4810  146.9560 N   0  0  0  0  0  0  0  0  0  0  0  0
  190.2390  175.9000  146.2220 C   0  0  1  0  0  3  0  0  0  0  0  0
  186.6920  177.9690  144.2120 O   0  0  0  0  0  0  0  0  0  0  0  0
  185.6040  177.2550  144.4290 O   0  0  0  0  0  0  0  0  0  0  0  0
  185.3960  177.8790  147.4830 O   0  0  0  0  0  0  0  0  0  0  0  0
  185.5460  179.3040  145.6030 C   0  0  0  0  0  2  0  0  0  0  0  0
  184.7830  178.0750  145.2080 C   0  0  2  0  0  3  0  0  0  0  0  0
  185.6460  179.2070  147.1080 C   0  0  0  0  0  2  0  0  0  0  0  0
  184.4950  177.3930  146.5260 C   0  0  0  0  0  2  0  0  0  0  0  0
  1 27  1  0  0  0  0
  1 26  1  0  0  0  0
  3  7  1  1  0  0  0
  3 19  1  0  0  0  0
  3 16  1  0  0  0  0
  4 18  1  0  0  0  0
  4 23  2  0  0  0  0
  5 11  1  6  0  0  0
  5 15  1  0  0  0  0
  6 19  2  0  0  0  0
  8 12  1  0  0  0  0
  9 25  1  0  0  0  0
  9 27  1  0  0  0  0
 10 17  1  0  0  0  0
 11 20  1  0  0  0  0
 13 20  1  0  0  0  0
 13  9  1  0  0  0  0
 14  2  1  0  0  0  0
 15 12  1  0  0  0  0
 15  4  1  0  0  0  0
 16  8  1  0  0  0  0
 17 28  1  0  0  0  0
 17 25  1  0  0  0  0
 18  1  2  0  0  0  0
 19  5  1  0  0  0  0
 20 18  1  0  0  0  0
 21 26  2  0  0  0  0
 22 24  1  0  0  0  0
 22 10  1  0  0  0  0
 23 21  1  0  0  0  0
 24 13  1  0  0  0  0
 25 14  1  0  0  0  0
 27  2  1  0  0  0  0
 28 29  1  0  0  0  0
 29 32  1  0  0  0  0
 31 33  1  0  0  0  0
 32 31  1  0  0  0  0
 32 34  1  0  0  0  0
 33 30  1  0  0  0  0
 34 30  1  0  0  0  0
M  END
>  <MODEL>
2

>  <REMARK>
 VINA RESULT:      -8.0      2.513      8.793
  Name = 
  3 active torsions:
  status: ('A' for Active; 'I' for Inactive)
    1  A    between atoms: C_17  and  O_28
    2  A    between atoms: O_28  and  O_29
    3  A    between atoms: O_29  and  C_32
                            x       y       z     vdW  Elec       q    Type
                         _______ _______ _______ _____ _____    ______ ____

>  <TORSDO>
F 3

$$$$
=
 OpenBabel11112417503D

 34 40  0  0  1  0  0  0  0  0999 V2000
  192.1960  174.7470  142.5470 C   0  0  0  0  0  0  0  0  0  0  0  0
  189.7960  175.2460  142.9900 C   0  0  0  0  0  2  0  0  0  0  0  0
  196.9940  171.6150  145.6620 C   0  0  1  0  0  3  0  0  0  0  0  0
  194.2230  173.4520  142.7940 C   0  0  0  0  0  0  0  0  0  0  0  0
  195.6800  173.7790  144.8720 C   0  0  2  0  0  3  0  0  0  0  0  0
  197.0330  173.6720  146.8000 O   0  0  0  0  0  0  0  0  0  0  0  0
  195.8850  170.7840  145.8210 O   0  0  0  0  0  1  0  0  0  0  0  0
  197.9400  172.4800  143.4210 C   0  0  0  0  0  2  0  0  0  0  0  0
  191.3560  176.2930  144.4300 C   0  0  2  0  0  3  0  0  0  0  0  0
  190.1690  176.5280  147.3810 C   0  0  0  0  0  2  0  0  0  0  0  0
  194.3720  174.1230  145.5650 C   0  0  0  0  0  2  0  0  0  0  0  0
  196.6630  172.9000  142.6900 C   0  0  0  0  0  2  0  0  0  0  0  0
  192.2310  175.4170  145.3490 C   0  0  1  0  0  3  0  0  0  0  0  0
  189.0260  176.0310  143.8600 O   0  0  0  0  0  0  0  0  0  0  0  0
  195.4180  172.9700  143.5860 C   0  0  2  0  0  3  0  0  0  0  0  0
  197.7130  171.2800  144.3430 C   0  0  0  0  0  2  0  0  0  0  0  0
  189.5090  175.8020  146.2190 C   0  0  2  0  0  3  0  0  0  0  0  0
  193.3020  174.3790  143.3310 C   0  0  0  0  0  0  0  0  0  0  0  0
  196.5920  173.0610  145.8400 C   0  0  0  0  0  0  0  0  0  0  0  0
  193.5470  175.0390  144.6640 C   0  0  2  0  0  3  0  0  0  0  0  0
  192.9030  173.2710  140.8360 C   0  0  0  0  0  3  0  0  0  0  0  0
  191.5140  175.9020  147.7060 C   0  0  0  0  0  2  0  0  0  0  0  0
  193.9820  172.9060  141.5720 N   0  0  0  0  0  0  0  0  0  0  0  0
  192.5400  176.1970  146.6250 C   0  0  0  0  0  2  0  0  0  0  0  0
  189.8920  176.4620  144.8860 C   0  0  1  0  0  3  0  0  0  0  0  0
  192.0290  174.1870  141.3200 N   0  0  0  0  0  0  0  0  0  0  0  0
  191.2040  175.7780  143.0140 C   0  0  1  0  0  3  0  0  0  0  0  0
  188.1220  175.8410  146.3900 O   0  0  0  0  0  0  0  0  0  0  0  0
  187.8790  177.0220  146.9250 O   0  0  0  0  0  0  0  0  0  0  0  0
  185.5130  179.0420  146.6320 O   0  0  0  0  0  0  0  0  0  0  0  0
  185.7140  176.7690  146.0130 C   0  0  0  0  0  2  0  0  0  0  0  0
  186.5210  176.9960  147.2560 C   0  0  2  0  0  3  0  0  0  0  0  0
  184.9090  178.0390  145.8600 C   0  0  0  0  0  2  0  0  0  0  0  0
  186.0890  178.3690  147.7180 C   0  0  0  0  0  2  0  0  0  0  0  0
  1 27  1  0  0  0  0
  1 18  1  0  0  0  0
  2 27  1  0  0  0  0
  2 14  1  0  0  0  0
  3  7  1  6  0  0  0
  3 19  1  0  0  0  0
  4 18  2  0  0  0  0
  4 15  1  0  0  0  0
  5 11  1  1  0  0  0
  5 19  1  0  0  0  0
  8 16  1  0  0  0  0
  9 25  1  0  0  0  0
  9 13  1  0  0  0  0
 10 22  1  0  0  0  0
 12  8  1  0  0  0  0
 12 15  1  0  0  0  0
 13 24  1  0  0  0  0
 14 25  1  0  0  0  0
 15  5  1  0  0  0  0
 16  3  1  0  0  0  0
 17 28  1  0  0  0  0
 17 10  1  0  0  0  0
 18 20  1  0  0  0  0
 19  6  2  0  0  0  0
 20 13  1  0  0  0  0
 20 11  1  0  0  0  0
 21 26  1  0  0  0  0
 21 23  2  0  0  0  0
 23  4  1  0  0  0  0
 24 22  1  0  0  0  0
 25 17  1  0  0  0  0
 26  1  2  0  0  0  0
 27  9  1  0  0  0  0
 28 29  1  0  0  0  0
 29 32  1  0  0  0  0
 30 34  1  0  0  0  0
 31 32  1  0  0  0  0
 32 34  1  0  0  0  0
 33 31  1  0  0  0  0
 33 30  1  0  0  0  0
M  END
>  <MODEL>
3

>  <REMARK>
 VINA RESULT:      -8.0      2.600      8.782
  Name = 
  3 active torsions:
  status: ('A' for Active; 'I' for Inactive)
    1  A    between atoms: C_17  and  O_28
    2  A    between atoms: O_28  and  O_29
    3  A    between atoms: O_29  and  C_32
                            x       y       z     vdW  Elec       q    Type
                         _______ _______ _______ _____ _____    ______ ____

>  <TORSDO>
F 3

$$$$
=
 OpenBabel11112417503D

 34 40  0  0  1  0  0  0  0  0999 V2000
  189.4830  174.7750  144.7890 C   0  0  0  0  0  0  0  0  0  0  0  0
  189.8530  172.9360  143.1500 C   0  0  0  0  0  2  0  0  0  0  0  0
  184.6050  178.8480  146.2540 C   0  0  1  0  0  3  0  0  0  0  0  0
  188.1070  176.2000  146.1740 C   0  0  0  0  0  0  0  0  0  0  0  0
  186.9180  178.2090  145.1250 C   0  0  2  0  0  3  0  0  0  0  0  0
  185.4970  179.9290  144.3650 O   0  0  0  0  0  0  0  0  0  0  0  0
  183.9790  177.6140  146.0840 O   0  0  0  0  0  1  0  0  0  0  0  0
  186.5650  179.3540  147.8570 C   0  0  0  0  0  2  0  0  0  0  0  0
  189.6100  175.1050  142.2360 C   0  0  2  0  0  3  0  0  0  0  0  0
  188.0910  174.9730  139.4350 C   0  0  0  0  0  2  0  0  0  0  0  0
  186.8970  177.3600  143.8630 C   0  0  0  0  0  2  0  0  0  0  0  0
  187.4810  178.1540  147.6110 C   0  0  0  0  0  2  0  0  0  0  0  0
  188.2650  175.8420  142.4060 C   0  0  1  0  0  3  0  0  0  0  0  0
  190.0070  172.7720  141.7660 O   0  0  0  0  0  0  0  0  0  0  0  0
  187.1140  177.3240  146.3720 C   0  0  2  0  0  3  0  0  0  0  0  0
  185.0850  178.9950  147.7090 C   0  0  0  0  0  2  0  0  0  0  0  0
  188.3160  173.7980  140.3730 C   0  0  2  0  0  3  0  0  0  0  0  0
  188.5940  175.8570  144.8940 C   0  0  0  0  0  0  0  0  0  0  0  0
  185.6630  179.0470  145.1930 C   0  0  0  0  0  0  0  0  0  0  0  0
  188.2550  176.6870  143.6820 C   0  0  2  0  0  3  0  0  0  0  0  0
  189.3200  174.3990  147.1210 C   0  0  0  0  0  3  0  0  0  0  0  0
  187.2590  176.0470  140.1150 C   0  0  0  0  0  2  0  0  0  0  0  0
  188.4650  175.4440  147.2470 N   0  0  0  0  0  0  0  0  0  0  0  0
  188.0490  176.7560  141.2010 C   0  0  0  0  0  2  0  0  0  0  0  0
  189.6140  173.9890  141.1720 C   0  0  1  0  0  3  0  0  0  0  0  0
  189.8260  174.0790  145.9050 N   0  0  0  0  0  0  0  0  0  0  0  0
  190.1020  174.3840  143.4740 C   0  0  1  0  0  3  0  0  0  0  0  0
  188.3890  172.6230  139.6180 O   0  0  0  0  0  0  0  0  0  0  0  0
  188.4550  173.0280  138.3640 O   0  0  0  0  0  0  0  0  0  0  0  0
  191.5460  172.5730  138.3130 O   0  0  0  0  0  0  0  0  0  0  0  0
  189.7540  171.0890  138.7310 C   0  0  0  0  0  2  0  0  0  0  0  0
  189.3010  172.1120  137.7330 C   0  0  2  0  0  3  0  0  0  0  0  0
  191.2470  171.3020  138.8230 C   0  0  0  0  0  2  0  0  0  0  0  0
  190.5800  172.8060  137.3250 C   0  0  0  0  0  2  0  0  0  0  0  0
  1 18  2  0  0  0  0
  1 26  1  0  0  0  0
  2 27  1  0  0  0  0
  3  7  1  1  0  0  0
  3 16  1  0  0  0  0
  4 15  1  0  0  0  0
  4 23  2  0  0  0  0
  5 11  1  6  0  0  0
  5 19  1  0  0  0  0
  5 15  1  0  0  0  0
  6 19  2  0  0  0  0
  9 13  1  0  0  0  0
  9 27  1  0  0  0  0
 10 22  1  0  0  0  0
 10 17  1  0  0  0  0
 12  8  1  0  0  0  0
 13 20  1  0  0  0  0
 14  2  1  0  0  0  0
 15 12  1  0  0  0  0
 16  8  1  0  0  0  0
 17 25  1  0  0  0  0
 18  4  1  0  0  0  0
 19  3  1  0  0  0  0
 20 11  1  0  0  0  0
 20 18  1  0  0  0  0
 21 23  1  0  0  0  0
 22 24  1  0  0  0  0
 24 13  1  0  0  0  0
 25 14  1  0  0  0  0
 25  9  1  0  0  0  0
 26 21  2  0  0  0  0
 27  1  1  0  0  0  0
 28 17  1  0  0  0  0
 29 28  1  0  0  0  0
 30 33  1  0  0  0  0
 31 33  1  0  0  0  0
 32 29  1  0  0  0  0
 32 31  1  0  0  0  0
 34 32  1  0  0  0  0
 34 30  1  0  0  0  0
M  END
>  <MODEL>
4

>  <REMARK>
 VINA RESULT:      -7.8      3.879      5.744
  Name = 
  3 active torsions:
  status: ('A' for Active; 'I' for Inactive)
    1  A    between atoms: C_17  and  O_28
    2  A    between atoms: O_28  and  O_29
    3  A    between atoms: O_29  and  C_32
                            x       y       z     vdW  Elec       q    Type
                         _______ _______ _______ _____ _____    ______ ____

>  <TORSDO>
F 3

$$$$
=
 OpenBabel11112417503D

 34 40  0  0  1  0  0  0  0  0999 V2000
  192.6850  176.2760  144.9880 C   0  0  0  0  0  0  0  0  0  0  0  0
  191.0790  177.8660  143.9400 C   0  0  0  0  0  2  0  0  0  0  0  0
  195.4380  170.6030  143.3220 C   0  0  1  0  0  3  0  0  0  0  0  0
  194.3760  174.5480  144.9300 C   0  0  0  0  0  0  0  0  0  0  0  0
  193.6730  172.1090  144.6070 C   0  0  2  0  0  3  0  0  0  0  0  0
  193.3290  169.8490  144.0370 O   0  0  0  0  0  0  0  0  0  0  0  0
  195.5140  171.3730  142.1620 O   0  0  0  0  0  1  0  0  0  0  0  0
  196.3370  171.2640  145.6500 C   0  0  0  0  0  2  0  0  0  0  0  0
  190.2080  175.7430  144.5170 C   0  0  2  0  0  3  0  0  0  0  0  0
  188.0200  174.8180  142.3890 C   0  0  0  0  0  2  0  0  0  0  0  0
  192.5120  172.6940  143.8190 C   0  0  0  0  0  2  0  0  0  0  0  0
  195.8640  172.7150  145.7630 C   0  0  0  0  0  2  0  0  0  0  0  0
  190.7580  174.4900  143.8050 C   0  0  1  0  0  3  0  0  0  0  0  0
  189.7230  177.9180  143.5920 O   0  0  0  0  0  0  0  0  0  0  0  0
  194.8300  173.1240  144.7030 C   0  0  2  0  0  3  0  0  0  0  0  0
  196.6680  170.8710  144.2090 C   0  0  0  0  0  2  0  0  0  0  0  0
  188.8840  176.0650  142.2820 C   0  0  2  0  0  3  0  0  0  0  0  0
  193.0210  174.9250  144.8010 C   0  0  0  0  0  0  0  0  0  0  0  0
  194.0960  170.7960  143.9890 C   0  0  0  0  0  0  0  0  0  0  0  0
  191.9440  173.8960  144.5700 C   0  0  2  0  0  3  0  0  0  0  0  0
  194.9650  176.8050  145.3430 C   0  0  0  0  0  3  0  0  0  0  0  0
  188.8840  173.5700  142.4110 C   0  0  0  0  0  2  0  0  0  0  0  0
  195.3120  175.5060  145.1720 N   0  0  0  0  0  0  0  0  0  0  0  0
  189.6480  173.4450  143.7180 C   0  0  0  0  0  2  0  0  0  0  0  0
  189.2350  176.5970  143.6790 C   0  0  1  0  0  3  0  0  0  0  0  0
  193.6650  177.1780  145.2590 N   0  0  0  0  0  0  0  0  0  0  0  0
  191.2580  176.7510  144.9350 C   0  0  1  0  0  3  0  0  0  0  0  0
  188.1870  177.0390  141.5610 O   0  0  0  0  0  0  0  0  0  0  0  0
  186.9180  176.8460  141.8680 O   0  0  0  0  0  0  0  0  0  0  0  0
  184.0380  177.9600  142.3410 O   0  0  0  0  0  0  0  0  0  0  0  0
  186.1150  178.5330  143.3140 C   0  0  0  0  0  2  0  0  0  0  0  0
  186.3530  178.1240  141.8910 C   0  0  2  0  0  3  0  0  0  0  0  0
  184.6120  178.6560  143.4140 C   0  0  0  0  0  2  0  0  0  0  0  0
  184.9650  178.0710  141.2950 C   0  0  0  0  0  2  0  0  0  0  0  0
  1 26  1  0  0  0  0
  2 27  1  0  0  0  0
  3  7  1  6  0  0  0
  3 19  1  0  0  0  0
  3 16  1  0  0  0  0
  4 23  2  0  0  0  0
  5 11  1  6  0  0  0
  5 15  1  0  0  0  0
  8 12  1  0  0  0  0
  9 27  1  0  0  0  0
 10 22  1  0  0  0  0
 11 20  1  0  0  0  0
 13  9  1  0  0  0  0
 13 20  1  0  0  0  0
 14 25  1  0  0  0  0
 14  2  1  0  0  0  0
 15  4  1  0  0  0  0
 15 12  1  0  0  0  0
 16  8  1  0  0  0  0
 17 10  1  0  0  0  0
 17 25  1  0  0  0  0
 18  4  1  0  0  0  0
 18  1  2  0  0  0  0
 19  6  2  0  0  0  0
 19  5  1  0  0  0  0
 20 18  1  0  0  0  0
 22 24  1  0  0  0  0
 23 21  1  0  0  0  0
 24 13  1  0  0  0  0
 25  9  1  0  0  0  0
 26 21  2  0  0  0  0
 27  1  1  0  0  0  0
 28 29  1  0  0  0  0
 28 17  1  0  0  0  0
 29 32  1  0  0  0  0
 30 33  1  0  0  0  0
 31 33  1  0  0  0  0
 32 31  1  0  0  0  0
 34 32  1  0  0  0  0
 34 30  1  0  0  0  0
M  END
>  <MODEL>
5

>  <REMARK>
 VINA RESULT:      -7.7      3.515      8.785
  Name = 
  3 active torsions:
  status: ('A' for Active; 'I' for Inactive)
    1  A    between atoms: C_17  and  O_28
    2  A    between atoms: O_28  and  O_29
    3  A    between atoms: O_29  and  C_32
                            x       y       z     vdW  Elec       q    Type
                         _______ _______ _______ _____ _____    ______ ____

>  <TORSDO>
F 3

$$$$
=
 OpenBabel11112417503D

 34 40  0  0  1  0  0  0  0  0999 V2000
  192.0920  175.8860  145.8150 C   0  0  0  0  0  0  0  0  0  0  0  0
  189.7650  176.7470  146.0360 C   0  0  0  0  0  2  0  0  0  0  0  0
  196.5220  175.5000  141.0440 C   0  0  1  0  0  3  0  0  0  0  0  0
  194.2910  175.8140  144.8130 C   0  0  0  0  0  0  0  0  0  0  0  0
  194.6410  174.5170  142.6350 C   0  0  2  0  0  3  0  0  0  0  0  0
  195.1690  173.6540  140.5060 O   0  0  0  0  0  0  0  0  0  0  0  0
  195.9870  176.7810  140.9100 O   0  0  0  0  0  1  0  0  0  0  0  0
  197.5730  174.5040  143.1810 C   0  0  0  0  0  2  0  0  0  0  0  0
  190.0440  174.8670  144.6270 C   0  0  2  0  0  3  0  0  0  0  0  0
  188.0260  175.0100  142.1620 C   0  0  0  0  0  2  0  0  0  0  0  0
  193.1920  174.8790  142.3500 C   0  0  0  0  0  2  0  0  0  0  0  0
  196.5680  174.9370  144.2500 C   0  0  0  0  0  2  0  0  0  0  0  0
  190.8920  175.0110  143.3460 C   0  0  1  0  0  3  0  0  0  0  0  0
  188.4760  176.4290  145.5870 O   0  0  0  0  0  0  0  0  0  0  0  0
  195.2420  175.4690  143.6880 C   0  0  2  0  0  3  0  0  0  0  0  0
  197.6910  175.5220  142.0460 C   0  0  0  0  0  2  0  0  0  0  0  0
  188.2250  176.0990  143.2040 C   0  0  2  0  0  3  0  0  0  0  0  0
  192.9170  175.4960  144.7470 C   0  0  0  0  0  0  0  0  0  0  0  0
  195.4240  174.5050  141.3420 C   0  0  0  0  0  0  0  0  0  0  0  0
  192.3600  174.6720  143.6140 C   0  0  2  0  0  3  0  0  0  0  0  0
  193.9420  176.9020  146.8880 C   0  0  0  0  0  3  0  0  0  0  0  0
  189.3180  174.7510  141.4070 C   0  0  0  0  0  2  0  0  0  0  0  0
  194.7580  176.5300  145.8710 N   0  0  0  0  0  0  0  0  0  0  0  0
  190.3460  174.0580  142.2850 C   0  0  0  0  0  2  0  0  0  0  0  0
  188.6330  175.4850  144.5510 C   0  0  1  0  0  3  0  0  0  0  0  0
  192.6280  176.5730  146.8580 N   0  0  0  0  0  0  0  0  0  0  0  0
  190.6300  175.5290  145.8560 C   0  0  1  0  0  3  0  0  0  0  0  0
  187.0310  176.8120  143.3460 O   0  0  0  0  0  0  0  0  0  0  0  0
  186.6370  177.0660  142.1130 O   0  0  0  0  0  0  0  0  0  0  0  0
  183.6820  178.0590  142.3220 O   0  0  0  0  0  0  0  0  0  0  0  0
  185.6030  178.5910  143.5930 C   0  0  0  0  0  2  0  0  0  0  0  0
  186.0280  178.3220  142.1800 C   0  0  2  0  0  3  0  0  0  0  0  0
  184.0960  178.6660  143.5160 C   0  0  0  0  0  2  0  0  0  0  0  0
  184.7250  178.2910  141.4140 C   0  0  0  0  0  2  0  0  0  0  0  0
  1 27  1  0  0  0  0
  1 26  1  0  0  0  0
  3  7  1  1  0  0  0
  3 19  1  0  0  0  0
  3 16  1  0  0  0  0
  4 23  2  0  0  0  0
  5 11  1  6  0  0  0
  5 15  1  0  0  0  0
  6 19  2  0  0  0  0
  8 12  1  0  0  0  0
  9 27  1  0  0  0  0
 10 17  1  0  0  0  0
 11 20  1  0  0  0  0
 13 20  1  0  0  0  0
 13  9  1  0  0  0  0
 14  2  1  0  0  0  0
 15 12  1  0  0  0  0
 15  4  1  0  0  0  0
 16  8  1  0  0  0  0
 17 28  1  0  0  0  0
 17 25  1  0  0  0  0
 18  4  1  0  0  0  0
 18  1  2  0  0  0  0
 19  5  1  0  0  0  0
 20 18  1  0  0  0  0
 22 10  1  0  0  0  0
 22 24  1  0  0  0  0
 23 21  1  0  0  0  0
 24 13  1  0  0  0  0
 25  9  1  0  0  0  0
 25 14  1  0  0  0  0
 26 21  2  0  0  0  0
 27  2  1  0  0  0  0
 29 32  1  0  0  0  0
 29 28  1  0  0  0  0
 30 33  1  0  0  0  0
 32 31  1  0  0  0  0
 33 31  1  0  0  0  0
 34 32  1  0  0  0  0
 34 30  1  0  0  0  0
M  END
>  <MODEL>
6

>  <REMARK>
 VINA RESULT:      -7.6      2.929      8.963
  Name = 
  3 active torsions:
  status: ('A' for Active; 'I' for Inactive)
    1  A    between atoms: C_17  and  O_28
    2  A    between atoms: O_28  and  O_29
    3  A    between atoms: O_29  and  C_32
                            x       y       z     vdW  Elec       q    Type
                         _______ _______ _______ _____ _____    ______ ____

>  <TORSDO>
F 3

$$$$
=
 OpenBabel11112417503D

 34 40  0  0  1  0  0  0  0  0999 V2000
  190.7910  173.6410  141.6100 C   0  0  0  0  0  0  0  0  0  0  0  0
  188.3640  173.8720  142.1250 C   0  0  0  0  0  2  0  0  0  0  0  0
  196.3820  174.5390  144.8440 C   0  0  1  0  0  3  0  0  0  0  0  0
  193.1080  173.2860  142.2010 C   0  0  0  0  0  0  0  0  0  0  0  0
  194.4840  175.2350  143.1270 C   0  0  2  0  0  3  0  0  0  0  0  0
  195.8770  176.7610  144.2620 O   0  0  0  0  0  0  0  0  0  0  0  0
  195.5590  173.8850  145.7610 O   0  0  0  0  0  1  0  0  0  0  0  0
  196.9670  173.7190  142.4670 C   0  0  0  0  0  2  0  0  0  0  0  0
  189.6120  175.8820  142.0940 C   0  0  2  0  0  3  0  0  0  0  0  0
  188.5100  177.9150  144.2900 C   0  0  0  0  0  2  0  0  0  0  0  0
  193.1560  175.7280  143.6790 C   0  0  0  0  0  2  0  0  0  0  0  0
  195.6000  173.2670  141.9520 C   0  0  0  0  0  2  0  0  0  0  0  0
  190.7310  176.0840  143.1370 C   0  0  1  0  0  3  0  0  0  0  0  0
  187.4340  174.8870  142.3860 O   0  0  0  0  0  0  0  0  0  0  0  0
  194.4170  173.7260  142.8180 C   0  0  2  0  0  3  0  0  0  0  0  0
  197.1210  173.5060  143.9740 C   0  0  0  0  0  2  0  0  0  0  0  0
  188.0430  176.4800  144.1020 C   0  0  2  0  0  3  0  0  0  0  0  0
  191.9820  174.1380  142.1640 C   0  0  0  0  0  0  0  0  0  0  0  0
  195.5950  175.5860  144.0910 C   0  0  0  0  0  0  0  0  0  0  0  0
  192.0750  175.5740  142.6110 C   0  0  2  0  0  3  0  0  0  0  0  0
  191.8270  171.5470  141.2300 C   0  0  0  0  0  3  0  0  0  0  0  0
  189.9880  177.9530  144.6400 C   0  0  0  0  0  2  0  0  0  0  0  0
  192.9890  172.0060  141.7550 N   0  0  0  0  0  0  0  0  0  0  0  0
  190.8510  177.5750  143.4480 C   0  0  0  0  0  2  0  0  0  0  0  0
  188.1780  176.0600  142.6300 C   0  0  1  0  0  3  0  0  0  0  0  0
  190.7470  172.3620  141.1540 N   0  0  0  0  0  0  0  0  0  0  0  0
  189.5640  174.5030  141.4710 C   0  0  1  0  0  3  0  0  0  0  0  0
  186.7080  176.3820  144.5060 O   0  0  0  0  0  0  0  0  0  0  0  0
  186.2190  177.5990  144.3630 O   0  0  0  0  0  0  0  0  0  0  0  0
  185.9150  177.6060  147.4720 O   0  0  0  0  0  0  0  0  0  0  0  0
  185.0350  179.0410  145.8130 C   0  0  0  0  0  2  0  0  0  0  0  0
  185.1340  177.6580  145.2410 C   0  0  2  0  0  3  0  0  0  0  0  0
  185.2900  178.8480  147.2890 C   0  0  0  0  0  2  0  0  0  0  0  0
  185.4150  176.7910  146.4470 C   0  0  0  0  0  2  0  0  0  0  0  0
  1 18  1  0  0  0  0
  2 14  1  0  0  0  0
  3  7  1  1  0  0  0
  4 15  1  0  0  0  0
  5 11  1  1  0  0  0
  5 19  1  0  0  0  0
  8 16  1  0  0  0  0
  9 25  1  0  0  0  0
  9 13  1  0  0  0  0
 10 22  1  0  0  0  0
 12  8  1  0  0  0  0
 12 15  1  0  0  0  0
 13 24  1  0  0  0  0
 14 25  1  0  0  0  0
 15  5  1  0  0  0  0
 16  3  1  0  0  0  0
 17 10  1  0  0  0  0
 17 28  1  0  0  0  0
 18  4  2  0  0  0  0
 18 20  1  0  0  0  0
 19  6  2  0  0  0  0
 19  3  1  0  0  0  0
 20 13  1  0  0  0  0
 20 11  1  0  0  0  0
 21 23  2  0  0  0  0
 23  4  1  0  0  0  0
 24 22  1  0  0  0  0
 25 17  1  0  0  0  0
 26 21  1  0  0  0  0
 26  1  2  0  0  0  0
 27  1  1  0  0  0  0
 27  9  1  0  0  0  0
 27  2  1  0  0  0  0
 29 28  1  0  0  0  0
 29 32  1  0  0  0  0
 31 33  1  0  0  0  0
 32 31  1  0  0  0  0
 32 34  1  0  0  0  0
 33 30  1  0  0  0  0
 34 30  1  0  0  0  0
M  END
>  <MODEL>
7

>  <REMARK>
 VINA RESULT:      -7.5      2.744      8.655
  Name = 
  3 active torsions:
  status: ('A' for Active; 'I' for Inactive)
    1  A    between atoms: C_17  and  O_28
    2  A    between atoms: O_28  and  O_29
    3  A    between atoms: O_29  and  C_32
                            x       y       z     vdW  Elec       q    Type
                         _______ _______ _______ _____ _____    ______ ____

>  <TORSDO>
F 3

$$$$
=
 OpenBabel11112417503D

 34 40  0  0  1  0  0  0  0  0999 V2000
  189.4050  174.6390  141.3520 C   0  0  0  0  0  0  0  0  0  0  0  0
  187.2830  175.1180  142.5660 C   0  0  0  0  0  2  0  0  0  0  0  0
  195.3680  172.5480  142.9650 C   0  0  1  0  0  3  0  0  0  0  0  0
  191.5350  173.5330  141.0630 C   0  0  0  0  0  0  0  0  0  0  0  0
  193.5870  174.4040  142.3190 C   0  0  2  0  0  3  0  0  0  0  0  0
  195.5450  174.8140  143.5660 O   0  0  0  0  0  0  0  0  0  0  0  0
  194.5090  171.7280  143.6970 O   0  0  0  0  0  1  0  0  0  0  0  0
  195.3200  172.9060  140.4080 C   0  0  0  0  0  2  0  0  0  0  0  0
  189.1050  176.5440  143.0630 C   0  0  2  0  0  3  0  0  0  0  0  0
  189.0430  177.4090  146.1320 C   0  0  0  0  0  2  0  0  0  0  0  0
  192.5830  174.8410  143.3740 C   0  0  0  0  0  2  0  0  0  0  0  0
  193.8230  173.0850  140.1500 C   0  0  0  0  0  2  0  0  0  0  0  0
  190.3600  175.9490  143.7350 C   0  0  1  0  0  3  0  0  0  0  0  0
  186.7820  176.0490  143.4870 O   0  0  0  0  0  0  0  0  0  0  0  0
  192.9870  173.3050  141.4190 C   0  0  2  0  0  3  0  0  0  0  0  0
  195.6000  171.9460  141.5670 C   0  0  0  0  0  2  0  0  0  0  0  0
  188.1090  176.4010  145.4790 C   0  0  2  0  0  3  0  0  0  0  0  0
  190.7570  174.5170  141.7120 C   0  0  0  0  0  0  0  0  0  0  0  0
  194.8720  173.9750  142.9890 C   0  0  0  0  0  0  0  0  0  0  0  0
  191.3770  175.4810  142.6910 C   0  0  2  0  0  3  0  0  0  0  0  0
  189.6330  172.8380  139.8340 C   0  0  0  0  0  3  0  0  0  0  0  0
  190.4840  176.9390  146.0380 C   0  0  0  0  0  2  0  0  0  0  0  0
  190.9420  172.7050  140.1600 N   0  0  0  0  0  0  0  0  0  0  0  0
  191.0030  177.0200  144.6130 C   0  0  0  0  0  2  0  0  0  0  0  0
  187.8960  176.7470  143.9980 C   0  0  1  0  0  3  0  0  0  0  0  0
  188.8810  173.8010  140.4200 N   0  0  0  0  0  0  0  0  0  0  0  0
  188.5220  175.7050  141.9450 C   0  0  1  0  0  3  0  0  0  0  0  0
  186.8840  176.4160  146.1540 O   0  0  0  0  0  0  0  0  0  0  0  0
  187.0780  177.2040  147.1940 O   0  0  0  0  0  0  0  0  0  0  0  0
  185.2710  179.4670  146.0220 O   0  0  0  0  0  0  0  0  0  0  0  0
  184.8170  177.1990  146.5070 C   0  0  0  0  0  2  0  0  0  0  0  0
  185.8130  177.7080  147.5060 C   0  0  2  0  0  3  0  0  0  0  0  0
  184.3400  178.4430  145.7950 C   0  0  0  0  0  2  0  0  0  0  0  0
  185.8010  179.2050  147.2930 C   0  0  0  0  0  2  0  0  0  0  0  0
  1 18  1  0  0  0  0
  1 27  1  0  0  0  0
  2 14  1  0  0  0  0
  3 19  1  0  0  0  0
  3  7  1  6  0  0  0
  4 15  1  0  0  0  0
  4 18  2  0  0  0  0
  5 19  1  0  0  0  0
  5 11  1  1  0  0  0
  8 16  1  0  0  0  0
  9 13  1  0  0  0  0
  9 25  1  0  0  0  0
 12  8  1  0  0  0  0
 12 15  1  0  0  0  0
 13 24  1  0  0  0  0
 14 25  1  0  0  0  0
 15  5  1  0  0  0  0
 16  3  1  0  0  0  0
 17 10  1  0  0  0  0
 17 28  1  0  0  0  0
 18 20  1  0  0  0  0
 19  6  2  0  0  0  0
 20 11  1  0  0  0  0
 20 13  1  0  0  0  0
 21 23  2  0  0  0  0
 21 26  1  0  0  0  0
 22 10  1  0  0  0  0
 23  4  1  0  0  0  0
 24 22  1  0  0  0  0
 25 17  1  0  0  0  0
 26  1  2  0  0  0  0
 27  2  1  0  0  0  0
 27  9  1  0  0  0  0
 28 29  1  0  0  0  0
 29 32  1  0  0  0  0
 30 34  1  0  0  0  0
 31 32  1  0  0  0  0
 33 30  1  0  0  0  0
 33 31  1  0  0  0  0
 34 32  1  0  0  0  0
M  END
>  <MODEL>
8

>  <REMARK>
 VINA RESULT:      -7.4      2.633      8.487
  Name = 
  3 active torsions:
  status: ('A' for Active; 'I' for Inactive)
    1  A    between atoms: C_17  and  O_28
    2  A    between atoms: O_28  and  O_29
    3  A    between atoms: O_29  and  C_32
                            x       y       z     vdW  Elec       q    Type
                         _______ _______ _______ _____ _____    ______ ____

>  <TORSDO>
F 3

$$$$
=
 OpenBabel11112417503D

 34 40  0  0  1  0  0  0  0  0999 V2000
  192.1620  176.0330  146.2860 C   0  0  0  0  0  0  0  0  0  0  0  0
  194.3290  174.8030  146.2430 C   0  0  0  0  0  2  0  0  0  0  0  0
  186.9030  176.4160  142.4490 C   0  0  1  0  0  3  0  0  0  0  0  0
  189.8330  176.3420  145.7190 C   0  0  0  0  0  0  0  0  0  0  0  0
  189.2110  177.2880  143.4240 C   0  0  2  0  0  3  0  0  0  0  0  0
  188.3630  177.8570  141.2990 O   0  0  0  0  0  0  0  0  0  0  0  0
  187.2000  175.0540  142.4860 O   0  0  0  0  0  1  0  0  0  0  0  0
  186.5030  177.9420  144.4920 C   0  0  0  0  0  2  0  0  0  0  0  0
  194.0280  176.4320  144.5540 C   0  0  2  0  0  3  0  0  0  0  0  0
  195.4140  175.4940  141.8390 C   0  0  0  0  0  2  0  0  0  0  0  0
  190.4920  176.6180  142.9550 C   0  0  0  0  0  2  0  0  0  0  0  0
  187.6430  177.5190  145.4210 C   0  0  0  0  0  2  0  0  0  0  0  0
  192.9090  176.2320  143.5100 C   0  0  1  0  0  3  0  0  0  0  0  0
  195.5200  174.7930  145.5060 O   0  0  0  0  0  0  0  0  0  0  0  0
  188.7210  176.6600  144.7440 C   0  0  2  0  0  3  0  0  0  0  0  0
  185.9920  176.7840  143.6340 C   0  0  0  0  0  2  0  0  0  0  0  0
  195.2900  174.6570  143.1020 C   0  0  2  0  0  3  0  0  0  0  0  0
  191.1910  176.3810  145.3330 C   0  0  0  0  0  0  0  0  0  0  0  0
  188.1740  177.2240  142.3250 C   0  0  0  0  0  0  0  0  0  0  0  0
  191.6010  176.8790  143.9710 C   0  0  2  0  0  3  0  0  0  0  0  0
  190.4630  175.5800  147.8710 C   0  0  0  0  0  3  0  0  0  0  0  0
  194.0410  175.8560  141.3010 C   0  0  0  0  0  2  0  0  0  0  0  0
  189.5080  175.9170  146.9700 N   0  0  0  0  0  0  0  0  0  0  0  0
  193.3440  176.8690  142.1930 C   0  0  0  0  0  2  0  0  0  0  0  0
  195.2810  175.5580  144.3460 C   0  0  1  0  0  3  0  0  0  0  0  0
  191.7730  175.6470  147.5300 N   0  0  0  0  0  0  0  0  0  0  0  0
  193.6340  176.1120  145.9800 C   0  0  1  0  0  3  0  0  0  0  0  0
  196.3680  173.7680  143.1640 O   0  0  0  0  0  0  0  0  0  0  0  0
  195.8250  172.5690  143.0740 O   0  0  0  0  0  0  0  0  0  0  0  0
  197.1980  171.9160  145.8040 O   0  0  0  0  0  0  0  0  0  0  0  0
  196.2070  170.5150  144.1780 C   0  0  0  0  0  2  0  0  0  0  0  0
  196.8300  171.6860  143.4800 C   0  0  2  0  0  3  0  0  0  0  0  0
  196.7250  170.6120  145.5940 C   0  0  0  0  0  2  0  0  0  0  0  0
  197.6700  172.3390  144.5530 C   0  0  0  0  0  2  0  0  0  0  0  0
  1 26  1  0  0  0  0
  3  7  1  1  0  0  0
  3 16  1  0  0  0  0
  4 23  2  0  0  0  0
  5 11  1  6  0  0  0
  5 15  1  0  0  0  0
  6 19  2  0  0  0  0
  8 12  1  0  0  0  0
  9 27  1  0  0  0  0
 10 17  1  0  0  0  0
 11 20  1  0  0  0  0
 13 20  1  0  0  0  0
 13  9  1  0  0  0  0
 14  2  1  0  0  0  0
 15 12  1  0  0  0  0
 15  4  1  0  0  0  0
 16  8  1  0  0  0  0
 17 28  1  0  0  0  0
 17 25  1  0  0  0  0
 18  4  1  0  0  0  0
 18  1  2  0  0  0  0
 19  3  1  0  0  0  0
 19  5  1  0  0  0  0
 20 18  1  0  0  0  0
 22 10  1  0  0  0  0
 22 24  1  0  0  0  0
 23 21  1  0  0  0  0
 24 13  1  0  0  0  0
 25  9  1  0  0  0  0
 25 14  1  0  0  0  0
 26 21  2  0  0  0  0
 27  2  1  0  0  0  0
 27  1  1  0  0  0  0
 29 28  1  0  0  0  0
 29 32  1  0  0  0  0
 31 33  1  0  0  0  0
 32 31  1  0  0  0  0
 32 34  1  0  0  0  0
 33 30  1  0  0  0  0
 34 30  1  0  0  0  0
M  END
>  <MODEL>
9

>  <REMARK>
 VINA RESULT:      -7.4      2.736      4.740
  Name = 
  3 active torsions:
  status: ('A' for Active; 'I' for Inactive)
    1  A    between atoms: C_17  and  O_28
    2  A    between atoms: O_28  and  O_29
    3  A    between atoms: O_29  and  C_32
                            x       y       z     vdW  Elec       q    Type
                         _______ _______ _______ _____ _____    ______ ____

>  <TORSDO>
F 3

$$$$
