=
 OpenBabel11112416533D

 31 35  0  0  1  0  0  0  0  0999 V2000
  186.0700  178.1540  140.8640 C   0  0  0  0  0  0  0  0  0  0  0  0
  188.5530  178.0600  143.7480 C   0  0  2  0  0  3  0  0  0  0  0  0
  187.8010  177.5760  144.9730 C   0  0  0  0  0  0  0  0  0  0  0  0
  190.9310  173.5890  141.9740 O   0  0  0  0  0  0  0  0  0  0  0  0
  191.6480  174.1160  142.8650 C   0  0  0  0  0  0  0  0  0  0  0  0
  185.7360  177.4410  146.2520 C   0  0  0  0  0  0  0  0  0  0  0  0
  187.8420  177.7250  142.4630 C   0  0  0  0  0  0  0  0  0  0  0  0
  186.4420  177.0150  140.1430 C   0  0  0  0  0  3  0  0  0  0  0  0
  186.4260  177.8240  145.0990 C   0  0  0  0  0  3  0  0  0  0  0  0
  190.1830  176.2040  143.0620 C   0  0  0  0  0  0  0  0  0  0  0  0
  185.0270  178.9100  140.4450 F   0  0  0  0  0  0  0  0  0  0  0  0
  189.9560  176.6940  145.9600 C   0  0  0  0  0  2  0  0  0  0  0  0
  184.2770  177.6970  146.3630 C   0  0  0  0  0  1  0  0  0  0  0  0
  189.3610  175.8170  142.1310 N   0  0  0  0  0  0  0  0  0  0  0  0
  190.0190  177.5660  143.7150 C   0  0  2  0  0  3  0  0  0  0  0  0
  191.3230  175.4050  143.4040 N   0  0  0  0  0  2  0  0  0  0  0  0
  186.7650  178.5060  142.0250 C   0  0  0  0  0  3  0  0  0  0  0  0
  186.4180  176.8200  147.2990 C   0  0  0  0  0  3  0  0  0  0  0  0
  188.2260  176.5910  141.7250 C   0  0  0  0  0  0  0  0  0  0  0  0
  187.5200  176.2360  140.5720 C   0  0  0  0  0  3  0  0  0  0  0  0
  190.6260  177.6260  145.0500 N   0  0  0  0  0  2  0  0  0  0  0  0
  188.4900  176.9840  146.0520 C   0  0  0  0  0  0  0  0  0  0  0  0
  187.7930  176.5910  147.1990 C   0  0  0  0  0  3  0  0  0  0  0  0
  194.2460  174.8380  145.5180 C   0  0  1  0  0  3  0  0  0  0  0  0
  192.6790  172.9920  144.8580 C   0  0  0  0  0  2  0  0  0  0  0  0
  194.2980  174.4720  141.8010 O   0  0  0  0  0  1  0  0  0  0  0  0
  194.4110  176.0440  146.4170 C   0  0  0  0  0  1  0  0  0  0  0  0
  192.8790  174.2060  145.7660 C   0  0  0  0  0  2  0  0  0  0  0  0
  194.1830  174.0730  143.1330 C   0  0  2  0  0  3  0  0  0  0  0  0
  192.8400  173.3620  143.3790 C   0  0  2  0  0  3  0  0  0  0  0  0
  194.3730  175.2720  144.0600 C   0  0  0  0  0  2  0  0  0  0  0  0
  1 17  1  0  0  0  0
  2  7  1  6  0  0  0
  2  3  1  0  0  0  0
  3  9  2  0  0  0  0
  3 22  1  0  0  0  0
  4  5  2  0  0  0  0
  5 16  1  0  0  0  0
  6 13  1  0  0  0  0
  6 18  2  0  0  0  0
  8 20  1  0  0  0  0
  8  1  2  0  0  0  0
  9  6  1  0  0  0  0
 10 16  1  0  0  0  0
 11  1  1  0  0  0  0
 12 22  1  0  0  0  0
 14 10  2  0  0  0  0
 15 10  1  1  0  0  0
 15  2  1  0  0  0  0
 15 21  1  0  0  0  0
 17  7  2  0  0  0  0
 19 14  1  0  0  0  0
 19  7  1  0  0  0  0
 20 19  2  0  0  0  0
 21 12  1  0  0  0  0
 22 23  2  0  0  0  0
 23 18  1  0  0  0  0
 24 28  1  0  0  0  0
 24 27  1  1  0  0  0
 25 28  1  0  0  0  0
 29 26  1  6  0  0  0
 29 30  1  0  0  0  0
 29 31  1  0  0  0  0
 30  5  1  1  0  0  0
 30 25  1  0  0  0  0
 31 24  1  0  0  0  0
M  END
>  <MODEL>
1

>  <REMARK>
 VINA RESULT:      -9.4      0.000      0.000
  Name = 
  1 active torsions:
  status: ('A' for Active; 'I' for Inactive)
    1  A    between atoms: C_5  and  C_30
                            x       y       z     vdW  Elec       q    Type
                         _______ _______ _______ _____ _____    ______ ____

>  <TORSDO>
F 1

$$$$
=
 OpenBabel11112416533D

 31 35  0  0  1  0  0  0  0  0999 V2000
  194.6570  176.1010  144.9510 C   0  0  0  0  0  0  0  0  0  0  0  0
  191.3710  176.8420  143.1800 C   0  0  2  0  0  3  0  0  0  0  0  0
  191.0020  175.6060  142.3810 C   0  0  0  0  0  0  0  0  0  0  0  0
  188.4630  176.2700  147.6540 O   0  0  0  0  0  0  0  0  0  0  0  0
  187.7570  176.8150  146.7650 C   0  0  0  0  0  0  0  0  0  0  0  0
  191.6830  173.6500  141.1040 C   0  0  0  0  0  0  0  0  0  0  0  0
  192.3760  176.5510  144.2630 C   0  0  0  0  0  0  0  0  0  0  0  0
  194.2210  175.8790  146.2610 C   0  0  0  0  0  3  0  0  0  0  0  0
  192.0070  174.7550  141.8960 C   0  0  0  0  0  3  0  0  0  0  0  0
  189.6930  177.0400  145.1080 C   0  0  0  0  0  0  0  0  0  0  0  0
  195.9720  175.9820  144.6470 F   0  0  0  0  0  0  0  0  0  0  0  0
  188.5570  176.2400  142.5080 C   0  0  0  0  0  2  0  0  0  0  0  0
  192.7570  172.7500  140.6120 C   0  0  0  0  0  1  0  0  0  0  0  0
  190.5620  176.5220  145.9270 N   0  0  0  0  0  0  0  0  0  0  0  0
  190.1330  177.5700  143.7540 C   0  0  2  0  0  3  0  0  0  0  0  0
  188.3310  177.2230  145.5160 N   0  0  0  0  0  2  0  0  0  0  0  0
  193.7370  176.4310  143.9520 C   0  0  0  0  0  3  0  0  0  0  0  0
  190.3510  173.3940  140.7740 C   0  0  0  0  0  3  0  0  0  0  0  0
  191.9430  176.3470  145.5850 C   0  0  0  0  0  0  0  0  0  0  0  0
  192.8650  176.0050  146.5780 C   0  0  0  0  0  3  0  0  0  0  0  0
  189.0360  177.5970  142.7790 N   0  0  0  0  0  2  0  0  0  0  0  0
  189.6630  175.3620  142.0100 C   0  0  0  0  0  0  0  0  0  0  0  0
  189.3430  174.2490  141.2280 C   0  0  0  0  0  3  0  0  0  0  0  0
  185.0830  178.9350  145.1340 C   0  0  1  0  0  3  0  0  0  0  0  0
  185.4440  176.5500  145.8260 C   0  0  0  0  0  2  0  0  0  0  0  0
  186.7300  178.8810  148.4860 O   0  0  0  0  0  1  0  0  0  0  0  0
  185.1790  179.9040  143.9750 C   0  0  0  0  0  1  0  0  0  0  0  0
  185.5180  177.5480  144.6700 C   0  0  0  0  0  2  0  0  0  0  0  0
  185.9130  178.4390  147.4440 C   0  0  2  0  0  3  0  0  0  0  0  0
  186.2900  177.0080  147.0200 C   0  0  2  0  0  3  0  0  0  0  0  0
  185.9750  179.4180  146.2730 C   0  0  0  0  0  2  0  0  0  0  0  0
  1  8  1  0  0  0  0
  2  3  1  1  0  0  0
  2 15  1  0  0  0  0
  2  7  1  0  0  0  0
  5  4  2  0  0  0  0
  6  9  1  0  0  0  0
  7 19  2  0  0  0  0
  8 20  2  0  0  0  0
  9  3  2  0  0  0  0
 10 16  1  0  0  0  0
 10 14  2  0  0  0  0
 11  1  1  0  0  0  0
 12 21  1  0  0  0  0
 13  6  1  0  0  0  0
 15 21  1  6  0  0  0
 15 10  1  0  0  0  0
 16  5  1  0  0  0  0
 17  7  1  0  0  0  0
 17  1  2  0  0  0  0
 18  6  2  0  0  0  0
 18 23  1  0  0  0  0
 19 14  1  0  0  0  0
 19 20  1  0  0  0  0
 22  3  1  0  0  0  0
 22 12  1  0  0  0  0
 23 22  2  0  0  0  0
 24 27  1  6  0  0  0
 24 31  1  0  0  0  0
 25 30  1  0  0  0  0
 28 24  1  0  0  0  0
 28 25  1  0  0  0  0
 29 26  1  1  0  0  0
 30  5  1  6  0  0  0
 30 29  1  0  0  0  0
 31 29  1  0  0  0  0
M  END
>  <MODEL>
2

>  <REMARK>
 VINA RESULT:      -9.1      3.428      7.637
  Name = 
  1 active torsions:
  status: ('A' for Active; 'I' for Inactive)
    1  A    between atoms: C_5  and  C_30
                            x       y       z     vdW  Elec       q    Type
                         _______ _______ _______ _____ _____    ______ ____

>  <TORSDO>
F 1

$$$$
=
 OpenBabel11112416533D

 31 35  0  0  1  0  0  0  0  0999 V2000
  185.3450  177.7000  146.6910 C   0  0  0  0  0  0  0  0  0  0  0  0
  186.9730  175.7610  143.8490 C   0  0  2  0  0  3  0  0  0  0  0  0
  186.6550  176.4980  142.5620 C   0  0  0  0  0  0  0  0  0  0  0  0
  191.8980  177.5260  145.0410 O   0  0  0  0  0  0  0  0  0  0  0  0
  191.9850  176.5610  144.2360 C   0  0  0  0  0  0  0  0  0  0  0  0
  185.1410  177.8810  141.2530 C   0  0  0  0  0  0  0  0  0  0  0  0
  186.7920  176.6250  145.0700 C   0  0  0  0  0  0  0  0  0  0  0  0
  186.4520  178.3380  147.2590 C   0  0  0  0  0  3  0  0  0  0  0  0
  185.4760  177.2520  142.4540 C   0  0  0  0  0  3  0  0  0  0  0  0
  189.4800  176.0460  144.3010 C   0  0  0  0  0  0  0  0  0  0  0  0
  184.1070  177.9170  147.1950 F   0  0  0  0  0  0  0  0  0  0  0  0
  188.7400  175.5490  141.4910 C   0  0  0  0  0  2  0  0  0  0  0  0
  183.8970  178.6880  141.1600 C   0  0  0  0  0  1  0  0  0  0  0  0
  189.2250  176.9870  145.1630 N   0  0  0  0  0  0  0  0  0  0  0  0
  188.3770  175.1120  143.8320 C   0  0  2  0  0  3  0  0  0  0  0  0
  190.8250  175.8030  143.8690 N   0  0  0  0  0  2  0  0  0  0  0  0
  185.5130  176.8480  145.5950 C   0  0  0  0  0  3  0  0  0  0  0  0
  185.9740  177.7500  140.1400 C   0  0  0  0  0  3  0  0  0  0  0  0
  187.9060  177.2520  145.6550 C   0  0  0  0  0  0  0  0  0  0  0  0
  187.7310  178.1130  146.7430 C   0  0  0  0  0  3  0  0  0  0  0  0
  188.6670  174.5130  142.5240 N   0  0  0  0  0  2  0  0  0  0  0  0
  187.4700  176.3380  141.4220 C   0  0  0  0  0  0  0  0  0  0  0  0
  187.1370  176.9810  140.2250 C   0  0  0  0  0  3  0  0  0  0  0  0
  194.4010  173.6860  144.6830 C   0  0  1  0  0  3  0  0  0  0  0  0
  193.2720  174.9350  142.8220 C   0  0  0  0  0  2  0  0  0  0  0  0
  194.4720  177.3400  145.4560 O   0  0  0  0  0  1  0  0  0  0  0  0
  194.3100  172.4660  145.5730 C   0  0  0  0  0  1  0  0  0  0  0  0
  193.2130  173.7030  143.7250 C   0  0  0  0  0  2  0  0  0  0  0  0
  194.4700  176.1900  144.6650 C   0  0  2  0  0  3  0  0  0  0  0  0
  193.3220  176.2310  143.6400 C   0  0  2  0  0  3  0  0  0  0  0  0
  194.4050  174.9440  145.5460 C   0  0  0  0  0  2  0  0  0  0  0  0
  1 11  1  0  0  0  0
  1  8  1  0  0  0  0
  2  3  1  6  0  0  0
  2  7  1  0  0  0  0
  5  4  2  0  0  0  0
  6  9  2  0  0  0  0
  7 17  1  0  0  0  0
  7 19  2  0  0  0  0
  9  3  1  0  0  0  0
 10 14  2  0  0  0  0
 12 21  1  0  0  0  0
 13  6  1  0  0  0  0
 14 19  1  0  0  0  0
 15 21  1  6  0  0  0
 15  2  1  0  0  0  0
 15 10  1  0  0  0  0
 16  5  1  0  0  0  0
 16 10  1  0  0  0  0
 17  1  2  0  0  0  0
 18 23  2  0  0  0  0
 18  6  1  0  0  0  0
 19 20  1  0  0  0  0
 20  8  2  0  0  0  0
 22 12  1  0  0  0  0
 22  3  2  0  0  0  0
 23 22  1  0  0  0  0
 24 31  1  0  0  0  0
 24 27  1  1  0  0  0
 25 30  1  0  0  0  0
 25 28  1  0  0  0  0
 28 24  1  0  0  0  0
 29 26  1  1  0  0  0
 29 31  1  0  0  0  0
 30  5  1  1  0  0  0
 30 29  1  0  0  0  0
M  END
>  <MODEL>
3

>  <REMARK>
 VINA RESULT:      -8.1      2.214      4.351
  Name = 
  1 active torsions:
  status: ('A' for Active; 'I' for Inactive)
    1  A    between atoms: C_5  and  C_30
                            x       y       z     vdW  Elec       q    Type
                         _______ _______ _______ _____ _____    ______ ____

>  <TORSDO>
F 1

$$$$
=
 OpenBabel11112416533D

 31 35  0  0  1  0  0  0  0  0999 V2000
  185.9440  178.2630  140.9550 C   0  0  0  0  0  0  0  0  0  0  0  0
  188.5680  178.1480  143.7090 C   0  0  2  0  0  3  0  0  0  0  0  0
  187.8940  177.5930  144.9490 C   0  0  0  0  0  0  0  0  0  0  0  0
  190.9980  173.8290  141.6500 O   0  0  0  0  0  0  0  0  0  0  0  0
  191.7410  174.3470  142.5250 C   0  0  0  0  0  0  0  0  0  0  0  0
  185.9000  177.3400  146.3210 C   0  0  0  0  0  0  0  0  0  0  0  0
  187.8050  177.8360  142.4480 C   0  0  0  0  0  0  0  0  0  0  0  0
  186.3160  177.1660  140.1730 C   0  0  0  0  0  3  0  0  0  0  0  0
  186.5200  177.7890  145.1520 C   0  0  0  0  0  3  0  0  0  0  0  0
  190.2210  176.3750  142.8740 C   0  0  0  0  0  0  0  0  0  0  0  0
  184.8570  178.9980  140.6160 F   0  0  0  0  0  0  0  0  0  0  0  0
  190.1220  176.7490  145.7960 C   0  0  0  0  0  2  0  0  0  0  0  0
  184.4410  177.5410  146.5120 C   0  0  0  0  0  1  0  0  0  0  0  0
  189.3670  175.9950  141.9690 N   0  0  0  0  0  0  0  0  0  0  0  0
  190.0460  177.7050  143.5860 C   0  0  2  0  0  3  0  0  0  0  0  0
  191.4020  175.6030  143.1290 N   0  0  0  0  0  2  0  0  0  0  0  0
  186.6830  178.5960  142.0930 C   0  0  0  0  0  3  0  0  0  0  0  0
  186.6540  176.7040  147.3090 C   0  0  0  0  0  3  0  0  0  0  0  0
  188.1890  176.7440  141.6490 C   0  0  0  0  0  0  0  0  0  0  0  0
  187.4380  176.4080  140.5180 C   0  0  0  0  0  3  0  0  0  0  0  0
  190.7170  177.7360  144.8920 N   0  0  0  0  0  2  0  0  0  0  0  0
  188.6540  176.9850  145.9700 C   0  0  0  0  0  0  0  0  0  0  0  0
  188.0280  176.5260  147.1330 C   0  0  0  0  0  3  0  0  0  0  0  0
  192.6710  170.6860  142.7200 C   0  0  1  0  0  3  0  0  0  0  0  0
  193.5970  172.8260  141.7910 C   0  0  0  0  0  2  0  0  0  0  0  0
  192.1560  173.4160  145.2170 O   0  0  0  0  0  1  0  0  0  0  0  0
  191.8570  169.4550  142.3860 C   0  0  0  0  0  1  0  0  0  0  0  0
  192.7910  171.5650  141.4780 C   0  0  0  0  0  2  0  0  0  0  0  0
  192.7820  172.7160  144.1850 C   0  0  2  0  0  3  0  0  0  0  0  0
  192.9810  173.6150  142.9520 C   0  0  2  0  0  3  0  0  0  0  0  0
  191.9890  171.4530  143.8490 C   0  0  0  0  0  2  0  0  0  0  0  0
  1 17  1  0  0  0  0
  2  7  1  6  0  0  0
  2  3  1  0  0  0  0
  3  9  2  0  0  0  0
  3 22  1  0  0  0  0
  4  5  2  0  0  0  0
  5 16  1  0  0  0  0
  6 13  1  0  0  0  0
  6 18  2  0  0  0  0
  8 20  1  0  0  0  0
  8  1  2  0  0  0  0
  9  6  1  0  0  0  0
 10 16  1  0  0  0  0
 11  1  1  0  0  0  0
 12 22  1  0  0  0  0
 14 10  2  0  0  0  0
 15 10  1  1  0  0  0
 15  2  1  0  0  0  0
 15 21  1  0  0  0  0
 17  7  2  0  0  0  0
 19 14  1  0  0  0  0
 19  7  1  0  0  0  0
 20 19  2  0  0  0  0
 21 12  1  0  0  0  0
 22 23  2  0  0  0  0
 23 18  1  0  0  0  0
 24 27  1  6  0  0  0
 24 31  1  0  0  0  0
 25 30  1  0  0  0  0
 28 25  1  0  0  0  0
 28 24  1  0  0  0  0
 29 26  1  1  0  0  0
 30  5  1  6  0  0  0
 30 29  1  0  0  0  0
 31 29  1  0  0  0  0
M  END
>  <MODEL>
4

>  <REMARK>
 VINA RESULT:      -8.1      1.308      2.366
  Name = 
  1 active torsions:
  status: ('A' for Active; 'I' for Inactive)
    1  A    between atoms: C_5  and  C_30
                            x       y       z     vdW  Elec       q    Type
                         _______ _______ _______ _____ _____    ______ ____

>  <TORSDO>
F 1

$$$$
=
 OpenBabel11112416533D

 31 35  0  0  1  0  0  0  0  0999 V2000
  186.7960  178.1840  141.8340 C   0  0  0  0  0  0  0  0  0  0  0  0
  189.7460  176.8530  143.8370 C   0  0  2  0  0  3  0  0  0  0  0  0
  189.1920  176.2790  145.1270 C   0  0  0  0  0  0  0  0  0  0  0  0
  190.2950  172.5040  140.7420 O   0  0  0  0  0  0  0  0  0  0  0  0
  191.3170  172.6300  141.4680 C   0  0  0  0  0  0  0  0  0  0  0  0
  187.5240  176.3200  146.8980 C   0  0  0  0  0  0  0  0  0  0  0  0
  188.6940  177.0000  142.7700 C   0  0  0  0  0  0  0  0  0  0  0  0
  186.6560  177.1930  140.8580 C   0  0  0  0  0  3  0  0  0  0  0  0
  188.0100  176.7960  145.6780 C   0  0  0  0  0  3  0  0  0  0  0  0
  190.5850  174.8900  142.4180 C   0  0  0  0  0  0  0  0  0  0  0  0
  185.9410  179.2340  141.8600 F   0  0  0  0  0  0  0  0  0  0  0  0
  191.1780  174.7240  145.3010 C   0  0  0  0  0  2  0  0  0  0  0  0
  186.2630  176.8670  147.4590 C   0  0  0  0  0  1  0  0  0  0  0  0
  189.4960  174.9300  141.7070 N   0  0  0  0  0  0  0  0  0  0  0  0
  190.9650  176.0610  143.3080 C   0  0  2  0  0  3  0  0  0  0  0  0
  191.5000  173.7950  142.2840 N   0  0  0  0  0  2  0  0  0  0  0  0
  187.8100  178.0860  142.7920 C   0  0  0  0  0  3  0  0  0  0  0  0
  188.2270  175.3320  147.5900 C   0  0  0  0  0  3  0  0  0  0  0  0
  188.5630  176.0150  141.7750 C   0  0  0  0  0  0  0  0  0  0  0  0
  187.5400  176.1110  140.8270 C   0  0  0  0  0  3  0  0  0  0  0  0
  191.8550  175.6650  144.4060 N   0  0  0  0  0  2  0  0  0  0  0  0
  189.9150  175.3090  145.8510 C   0  0  0  0  0  0  0  0  0  0  0  0
  189.4190  174.8260  147.0660 C   0  0  0  0  0  3  0  0  0  0  0  0
  193.8700  171.4850  144.0130 C   0  0  1  0  0  3  0  0  0  0  0  0
  192.0400  170.5100  142.6000 C   0  0  0  0  0  2  0  0  0  0  0  0
  194.0370  172.9950  140.6010 O   0  0  0  0  0  1  0  0  0  0  0  0
  194.1980  172.0410  145.3820 C   0  0  0  0  0  1  0  0  0  0  0  0
  192.4040  171.0630  143.9780 C   0  0  0  0  0  2  0  0  0  0  0  0
  193.7900  172.0190  141.5670 C   0  0  2  0  0  3  0  0  0  0  0  0
  192.3330  171.5260  141.4900 C   0  0  2  0  0  3  0  0  0  0  0  0
  194.1410  172.5510  142.9550 C   0  0  0  0  0  2  0  0  0  0  0  0
  1 11  1  0  0  0  0
  1 17  1  0  0  0  0
  2  7  1  6  0  0  0
  2  3  1  0  0  0  0
  3  9  2  0  0  0  0
  3 22  1  0  0  0  0
  4  5  2  0  0  0  0
  5 16  1  0  0  0  0
  6 13  1  0  0  0  0
  6 18  2  0  0  0  0
  7 17  2  0  0  0  0
  8  1  2  0  0  0  0
  9  6  1  0  0  0  0
 12 22  1  0  0  0  0
 14 19  1  0  0  0  0
 14 10  2  0  0  0  0
 15 10  1  1  0  0  0
 15  2  1  0  0  0  0
 15 21  1  0  0  0  0
 16 10  1  0  0  0  0
 19  7  1  0  0  0  0
 20  8  1  0  0  0  0
 20 19  2  0  0  0  0
 21 12  1  0  0  0  0
 22 23  2  0  0  0  0
 23 18  1  0  0  0  0
 24 27  1  1  0  0  0
 25 28  1  0  0  0  0
 28 24  1  0  0  0  0
 29 26  1  6  0  0  0
 29 31  1  0  0  0  0
 30  5  1  1  0  0  0
 30 29  1  0  0  0  0
 30 25  1  0  0  0  0
 31 24  1  0  0  0  0
M  END
>  <MODEL>
5

>  <REMARK>
 VINA RESULT:      -7.8      1.627      2.255
  Name = 
  1 active torsions:
  status: ('A' for Active; 'I' for Inactive)
    1  A    between atoms: C_5  and  C_30
                            x       y       z     vdW  Elec       q    Type
                         _______ _______ _______ _____ _____    ______ ____

>  <TORSDO>
F 1

$$$$
=
 OpenBabel11112416533D

 31 35  0  0  1  0  0  0  0  0999 V2000
  194.1080  170.1490  144.3340 C   0  0  0  0  0  0  0  0  0  0  0  0
  194.8340  173.7330  145.3900 C   0  0  2  0  0  3  0  0  0  0  0  0
  195.5730  174.3980  144.2450 C   0  0  0  0  0  0  0  0  0  0  0  0
  189.7680  175.3240  144.6150 O   0  0  0  0  0  0  0  0  0  0  0  0
  190.3870  176.2070  145.2670 C   0  0  0  0  0  0  0  0  0  0  0  0
  197.1100  174.2430  142.3650 C   0  0  0  0  0  0  0  0  0  0  0  0
  194.0980  172.4920  144.9590 C   0  0  0  0  0  0  0  0  0  0  0  0
  192.7450  170.2220  144.0310 C   0  0  0  0  0  3  0  0  0  0  0  0
  196.3730  173.6330  143.3830 C   0  0  0  0  0  3  0  0  0  0  0  0
  192.5030  174.7930  145.5210 C   0  0  0  0  0  0  0  0  0  0  0  0
  194.7760  168.9820  144.1710 F   0  0  0  0  0  0  0  0  0  0  0  0
  194.7240  176.6590  144.9960 C   0  0  0  0  0  2  0  0  0  0  0  0
  197.9400  173.4170  141.4520 C   0  0  0  0  0  1  0  0  0  0  0  0
  191.9960  173.7720  144.8940 N   0  0  0  0  0  0  0  0  0  0  0  0
  193.8900  174.7070  146.1350 C   0  0  2  0  0  3  0  0  0  0  0  0
  191.7180  175.9710  145.7440 N   0  0  0  0  0  2  0  0  0  0  0  0
  194.7850  171.2830  144.7930 C   0  0  0  0  0  3  0  0  0  0  0  0
  197.0670  175.6300  142.2090 C   0  0  0  0  0  3  0  0  0  0  0  0
  192.7230  172.5570  144.6730 C   0  0  0  0  0  0  0  0  0  0  0  0
  192.0530  171.4230  144.2020 C   0  0  0  0  0  3  0  0  0  0  0  0
  194.5140  176.0250  146.3000 N   0  0  0  0  0  2  0  0  0  0  0  0
  195.5670  175.8020  144.1040 C   0  0  0  0  0  0  0  0  0  0  0  0
  196.2960  176.4070  143.0760 C   0  0  0  0  0  3  0  0  0  0  0  0
  186.7900  177.2500  145.7970 C   0  0  1  0  0  3  0  0  0  0  0  0
  189.0290  177.5620  146.8850 C   0  0  0  0  0  2  0  0  0  0  0  0
  189.3530  177.8570  143.1480 O   0  0  0  0  0  1  0  0  0  0  0  0
  185.5260  176.4180  145.8090 C   0  0  0  0  0  1  0  0  0  0  0  0
  187.7350  176.7480  146.8840 C   0  0  0  0  0  2  0  0  0  0  0  0
  188.7470  177.9560  144.4010 C   0  0  2  0  0  3  0  0  0  0  0  0
  189.7180  177.5280  145.5160 C   0  0  2  0  0  3  0  0  0  0  0  0
  187.4530  177.1440  144.4270 C   0  0  0  0  0  2  0  0  0  0  0  0
  1 17  1  0  0  0  0
  2  3  1  6  0  0  0
  2 15  1  0  0  0  0
  4  5  2  0  0  0  0
  5 16  1  0  0  0  0
  6  9  1  0  0  0  0
  7  2  1  0  0  0  0
  8 20  1  0  0  0  0
  8  1  2  0  0  0  0
  9  3  2  0  0  0  0
 10 16  1  0  0  0  0
 11  1  1  0  0  0  0
 12 21  1  0  0  0  0
 13  6  1  0  0  0  0
 14 10  2  0  0  0  0
 15 10  1  6  0  0  0
 15 21  1  0  0  0  0
 17  7  2  0  0  0  0
 18  6  2  0  0  0  0
 18 23  1  0  0  0  0
 19 14  1  0  0  0  0
 19  7  1  0  0  0  0
 20 19  2  0  0  0  0
 22  3  1  0  0  0  0
 22 12  1  0  0  0  0
 23 22  2  0  0  0  0
 24 27  1  6  0  0  0
 24 28  1  0  0  0  0
 28 25  1  0  0  0  0
 29 26  1  6  0  0  0
 29 31  1  0  0  0  0
 29 30  1  0  0  0  0
 30  5  1  6  0  0  0
 30 25  1  0  0  0  0
 31 24  1  0  0  0  0
M  END
>  <MODEL>
6

>  <REMARK>
 VINA RESULT:      -7.8      3.517      8.390
  Name = 
  1 active torsions:
  status: ('A' for Active; 'I' for Inactive)
    1  A    between atoms: C_5  and  C_30
                            x       y       z     vdW  Elec       q    Type
                         _______ _______ _______ _____ _____    ______ ____

>  <TORSDO>
F 1

$$$$
=
 OpenBabel11112416533D

 31 35  0  0  1  0  0  0  0  0999 V2000
  186.4970  178.3610  142.0790 C   0  0  0  0  0  0  0  0  0  0  0  0
  189.6470  176.9030  143.6400 C   0  0  2  0  0  3  0  0  0  0  0  0
  189.2380  176.2380  144.9410 C   0  0  0  0  0  0  0  0  0  0  0  0
  189.8240  172.7820  140.2080 O   0  0  0  0  0  0  0  0  0  0  0  0
  190.9210  172.8600  140.8220 C   0  0  0  0  0  0  0  0  0  0  0  0
  187.7800  176.1500  146.8860 C   0  0  0  0  0  0  0  0  0  0  0  0
  188.4820  177.1200  142.7110 C   0  0  0  0  0  0  0  0  0  0  0  0
  186.2440  177.4410  141.0580 C   0  0  0  0  0  3  0  0  0  0  0  0
  188.1280  176.7120  145.6560 C   0  0  0  0  0  3  0  0  0  0  0  0
  190.3120  175.0460  142.0030 C   0  0  0  0  0  0  0  0  0  0  0  0
  185.6550  179.4050  142.2740 F   0  0  0  0  0  0  0  0  0  0  0  0
  191.2230  174.6800  144.7820 C   0  0  0  0  0  2  0  0  0  0  0  0
  186.5920  176.6530  147.6230 C   0  0  0  0  0  1  0  0  0  0  0  0
  189.1500  175.1320  141.4230 N   0  0  0  0  0  0  0  0  0  0  0  0
  190.7950  176.1530  142.9240 C   0  0  2  0  0  3  0  0  0  0  0  0
  191.2010  173.9660  141.6910 N   0  0  0  0  0  2  0  0  0  0  0  0
  187.6110  178.2000  142.9080 C   0  0  0  0  0  3  0  0  0  0  0  0
  188.5500  175.1180  147.4250 C   0  0  0  0  0  3  0  0  0  0  0  0
  188.2360  176.2070  141.6710 C   0  0  0  0  0  0  0  0  0  0  0  0
  187.1130  176.3660  140.8530 C   0  0  0  0  0  3  0  0  0  0  0  0
  191.8010  175.6840  143.8850 N   0  0  0  0  0  2  0  0  0  0  0  0
  190.0330  175.2220  145.5100 C   0  0  0  0  0  0  0  0  0  0  0  0
  189.6740  174.6540  146.7370 C   0  0  0  0  0  3  0  0  0  0  0  0
  191.3340  170.0690  138.3030 C   0  0  1  0  0  3  0  0  0  0  0  0
  192.7030  171.9010  139.3370 C   0  0  0  0  0  2  0  0  0  0  0  0
  190.5730  170.2380  141.9560 O   0  0  0  0  0  1  0  0  0  0  0  0
  190.4810  169.7010  137.1080 C   0  0  0  0  0  1  0  0  0  0  0  0
  191.8480  171.4960  138.1350 C   0  0  0  0  0  2  0  0  0  0  0  0
  191.3360  170.3450  140.7920 C   0  0  2  0  0  3  0  0  0  0  0  0
  191.9280  171.7600  140.6520 C   0  0  2  0  0  3  0  0  0  0  0  0
  190.5010  169.9510  139.5760 C   0  0  0  0  0  2  0  0  0  0  0  0
  1 11  1  0  0  0  0
  1 17  1  0  0  0  0
  2  7  1  6  0  0  0
  2  3  1  0  0  0  0
  3 22  2  0  0  0  0
  3  9  1  0  0  0  0
  4  5  2  0  0  0  0
  5 16  1  0  0  0  0
  6 18  1  0  0  0  0
  6 13  1  0  0  0  0
  7 17  2  0  0  0  0
  8  1  2  0  0  0  0
  9  6  2  0  0  0  0
 12 22  1  0  0  0  0
 14 19  1  0  0  0  0
 14 10  2  0  0  0  0
 15 10  1  1  0  0  0
 15  2  1  0  0  0  0
 15 21  1  0  0  0  0
 16 10  1  0  0  0  0
 19  7  1  0  0  0  0
 20  8  1  0  0  0  0
 20 19  2  0  0  0  0
 21 12  1  0  0  0  0
 22 23  1  0  0  0  0
 23 18  2  0  0  0  0
 24 27  1  6  0  0  0
 24 31  1  0  0  0  0
 25 30  1  0  0  0  0
 28 24  1  0  0  0  0
 28 25  1  0  0  0  0
 29 26  1  1  0  0  0
 30 29  1  0  0  0  0
 30  5  1  6  0  0  0
 31 29  1  0  0  0  0
M  END
>  <MODEL>
7

>  <REMARK>
 VINA RESULT:      -7.8      2.855      4.210
  Name = 
  1 active torsions:
  status: ('A' for Active; 'I' for Inactive)
    1  A    between atoms: C_5  and  C_30
                            x       y       z     vdW  Elec       q    Type
                         _______ _______ _______ _____ _____    ______ ____

>  <TORSDO>
F 1

$$$$
=
 OpenBabel11112416533D

 31 35  0  0  1  0  0  0  0  0999 V2000
  191.6520  170.1790  141.7270 C   0  0  0  0  0  0  0  0  0  0  0  0
  190.9900  172.5480  144.6310 C   0  0  2  0  0  3  0  0  0  0  0  0
  192.3070  173.2180  144.9740 C   0  0  0  0  0  0  0  0  0  0  0  0
  188.5820  176.1970  141.5200 O   0  0  0  0  0  0  0  0  0  0  0  0
  188.3550  176.4670  142.7290 C   0  0  0  0  0  0  0  0  0  0  0  0
  194.7350  173.1320  145.1070 C   0  0  0  0  0  0  0  0  0  0  0  0
  190.9910  171.9450  143.2510 C   0  0  0  0  0  0  0  0  0  0  0  0
  191.1030  170.8920  140.6580 C   0  0  0  0  0  3  0  0  0  0  0  0
  193.5190  172.5520  144.7350 C   0  0  0  0  0  3  0  0  0  0  0  0
  189.4650  174.3330  143.6000 C   0  0  0  0  0  0  0  0  0  0  0  0
  192.2460  168.9810  141.5070 F   0  0  0  0  0  0  0  0  0  0  0  0
  191.0630  175.2070  145.9180 C   0  0  0  0  0  2  0  0  0  0  0  0
  196.0100  172.4210  144.8330 C   0  0  0  0  0  1  0  0  0  0  0  0
  189.7450  173.8930  142.4080 N   0  0  0  0  0  0  0  0  0  0  0  0
  189.7770  173.4880  144.8240 C   0  0  2  0  0  3  0  0  0  0  0  0
  188.7550  175.5660  143.7710 N   0  0  0  0  0  2  0  0  0  0  0  0
  191.6010  170.7050  143.0210 C   0  0  0  0  0  3  0  0  0  0  0  0
  194.7510  174.3770  145.7380 C   0  0  0  0  0  3  0  0  0  0  0  0
  190.4220  172.6510  142.1770 C   0  0  0  0  0  0  0  0  0  0  0  0
  190.4870  172.1260  140.8830 C   0  0  0  0  0  3  0  0  0  0  0  0
  189.9220  174.2960  146.0410 N   0  0  0  0  0  2  0  0  0  0  0  0
  192.3300  174.4570  145.6470 C   0  0  0  0  0  0  0  0  0  0  0  0
  193.5500  175.0390  146.0060 C   0  0  0  0  0  3  0  0  0  0  0  0
  185.8070  177.4760  145.3350 C   0  0  1  0  0  3  0  0  0  0  0  0
  188.0430  178.2330  144.4840 C   0  0  0  0  0  2  0  0  0  0  0  0
  185.8250  177.2540  141.6060 O   0  0  0  0  0  1  0  0  0  0  0  0
  185.1150  176.6450  146.3940 C   0  0  0  0  0  1  0  0  0  0  0  0
  187.3160  177.4130  145.5510 C   0  0  0  0  0  2  0  0  0  0  0  0
  186.1560  177.7470  142.8690 C   0  0  2  0  0  3  0  0  0  0  0  0
  187.6820  177.7640  143.0700 C   0  0  2  0  0  3  0  0  0  0  0  0
  185.4450  176.9390  143.9530 C   0  0  0  0  0  2  0  0  0  0  0  0
  1 17  1  0  0  0  0
  2  7  1  6  0  0  0
  2 15  1  0  0  0  0
  2  3  1  0  0  0  0
  3 22  1  0  0  0  0
  4  5  2  0  0  0  0
  5 16  1  0  0  0  0
  6 18  2  0  0  0  0
  8 20  1  0  0  0  0
  8  1  2  0  0  0  0
  9  3  2  0  0  0  0
  9  6  1  0  0  0  0
 10 16  1  0  0  0  0
 11  1  1  0  0  0  0
 12 21  1  0  0  0  0
 13  6  1  0  0  0  0
 14 10  2  0  0  0  0
 15 10  1  6  0  0  0
 15 21  1  0  0  0  0
 17  7  2  0  0  0  0
 18 23  1  0  0  0  0
 19 14  1  0  0  0  0
 19  7  1  0  0  0  0
 20 19  2  0  0  0  0
 22 12  1  0  0  0  0
 22 23  2  0  0  0  0
 24 28  1  0  0  0  0
 24 27  1  1  0  0  0
 25 28  1  0  0  0  0
 29 26  1  6  0  0  0
 29 30  1  0  0  0  0
 29 31  1  0  0  0  0
 30  5  1  1  0  0  0
 30 25  1  0  0  0  0
 31 24  1  0  0  0  0
M  END
>  <MODEL>
8

>  <REMARK>
 VINA RESULT:      -7.6      3.218      7.320
  Name = 
  1 active torsions:
  status: ('A' for Active; 'I' for Inactive)
    1  A    between atoms: C_5  and  C_30
                            x       y       z     vdW  Elec       q    Type
                         _______ _______ _______ _____ _____    ______ ____

>  <TORSDO>
F 1

$$$$
=
 OpenBabel11112416533D

 31 35  0  0  1  0  0  0  0  0999 V2000
  189.9140  171.7880  138.8920 C   0  0  0  0  0  0  0  0  0  0  0  0
  189.9640  173.8620  142.0830 C   0  0  2  0  0  3  0  0  0  0  0  0
  191.2630  174.6460  142.0900 C   0  0  0  0  0  0  0  0  0  0  0  0
  186.4340  177.4350  140.1960 O   0  0  0  0  0  0  0  0  0  0  0  0
  186.5610  177.5930  141.4390 C   0  0  0  0  0  0  0  0  0  0  0  0
  193.6150  174.8160  141.4950 C   0  0  0  0  0  0  0  0  0  0  0  0
  189.5990  173.3600  140.7110 C   0  0  0  0  0  0  0  0  0  0  0  0
  189.0100  172.5110  138.1080 C   0  0  0  0  0  3  0  0  0  0  0  0
  192.3970  174.1350  141.4410 C   0  0  0  0  0  3  0  0  0  0  0  0
  188.0560  175.5370  141.7280 C   0  0  0  0  0  0  0  0  0  0  0  0
  190.5110  170.6810  138.3890 F   0  0  0  0  0  0  0  0  0  0  0  0
  190.2000  176.4150  143.5510 C   0  0  0  0  0  2  0  0  0  0  0  0
  194.8030  174.2700  140.7890 C   0  0  0  0  0  1  0  0  0  0  0  0
  187.9990  175.2150  140.4690 N   0  0  0  0  0  0  0  0  0  0  0  0
  188.7910  174.6480  142.7160 C   0  0  2  0  0  3  0  0  0  0  0  0
  187.3310  176.6700  142.2220 N   0  0  0  0  0  2  0  0  0  0  0  0
  190.2120  172.2140  140.1900 C   0  0  0  0  0  3  0  0  0  0  0  0
  193.7170  176.0080  142.2150 C   0  0  0  0  0  3  0  0  0  0  0  0
  188.6750  174.0740  139.9270 C   0  0  0  0  0  0  0  0  0  0  0  0
  188.3900  173.6520  138.6250 C   0  0  0  0  0  3  0  0  0  0  0  0
  189.2290  175.3790  143.9110 N   0  0  0  0  0  2  0  0  0  0  0  0
  191.3840  175.8290  142.8470 C   0  0  0  0  0  0  0  0  0  0  0  0
  192.6030  176.5140  142.8880 C   0  0  0  0  0  3  0  0  0  0  0  0
  185.2830  178.2790  144.9320 C   0  0  1  0  0  3  0  0  0  0  0  0
  186.7820  179.3430  143.2240 C   0  0  0  0  0  2  0  0  0  0  0  0
  183.7080  177.9490  141.5610 O   0  0  0  0  0  1  0  0  0  0  0  0
  185.2560  177.3840  146.1520 C   0  0  0  0  0  1  0  0  0  0  0  0
  186.7260  178.4540  144.4670 C   0  0  0  0  0  2  0  0  0  0  0  0
  184.4770  178.5250  142.5730 C   0  0  2  0  0  3  0  0  0  0  0  0
  185.9170  178.7810  142.0900 C   0  0  2  0  0  3  0  0  0  0  0  0
  184.4410  177.6510  143.8250 C   0  0  0  0  0  2  0  0  0  0  0  0
  1 17  1  0  0  0  0
  2  7  1  6  0  0  0
  2  3  1  0  0  0  0
  2 15  1  0  0  0  0
  3 22  1  0  0  0  0
  4  5  2  0  0  0  0
  5 16  1  0  0  0  0
  6 18  2  0  0  0  0
  8 20  1  0  0  0  0
  8  1  2  0  0  0  0
  9  6  1  0  0  0  0
  9  3  2  0  0  0  0
 10 16  1  0  0  0  0
 11  1  1  0  0  0  0
 12 21  1  0  0  0  0
 13  6  1  0  0  0  0
 14 10  2  0  0  0  0
 15 10  1  6  0  0  0
 15 21  1  0  0  0  0
 17  7  2  0  0  0  0
 18 23  1  0  0  0  0
 19 14  1  0  0  0  0
 19  7  1  0  0  0  0
 20 19  2  0  0  0  0
 22 23  2  0  0  0  0
 22 12  1  0  0  0  0
 24 27  1  1  0  0  0
 25 28  1  0  0  0  0
 28 24  1  0  0  0  0
 29 26  1  6  0  0  0
 29 31  1  0  0  0  0
 30  5  1  1  0  0  0
 30 29  1  0  0  0  0
 30 25  1  0  0  0  0
 31 24  1  0  0  0  0
M  END
>  <MODEL>
9

>  <REMARK>
 VINA RESULT:      -7.6      3.423      7.325
  Name = 
  1 active torsions:
  status: ('A' for Active; 'I' for Inactive)
    1  A    between atoms: C_5  and  C_30
                            x       y       z     vdW  Elec       q    Type
                         _______ _______ _______ _____ _____    ______ ____

>  <TORSDO>
F 1

$$$$
