=
 OpenBabel11112416133D

 30 35  0  0  1  0  0  0  0  0999 V2000
  187.3530  177.0250  143.8440 C   0  0  1  0  0  3  0  0  0  0  0  0
  185.2740  177.8260  145.1290 C   0  0  0  0  0  0  0  0  0  0  0  0
  189.4660  177.1260  147.4470 N   0  0  0  0  0  2  0  0  0  0  0  0
  188.5520  176.1410  144.2010 C   0  0  1  0  0  3  0  0  0  0  0  0
  186.4550  176.2630  142.9770 N   0  0  0  0  0  2  0  0  0  0  0  0
  188.9340  174.9490  140.7410 O   0  0  0  0  0  0  0  0  0  0  0  0
  191.6560  175.6810  143.4640 C   0  0  1  0  0  3  0  0  0  0  0  0
  188.4370  175.5080  141.7560 C   0  0  0  0  0  0  0  0  0  0  0  0
  191.8060  175.9860  144.9030 N   0  0  2  0  0  0  0  0  0  0  0  0
  190.7050  176.4620  147.0770 C   0  0  1  0  0  3  0  0  0  0  0  0
  187.0660  176.1090  141.6550 C   0  0  2  0  0  3  0  0  0  0  0  0
  189.1850  175.5870  142.9850 N   0  0  0  0  0  0  0  0  0  0  0  0
  184.6910  178.3310  146.2940 C   0  0  0  0  0  3  0  0  0  0  0  0
  192.7000  174.9550  145.4130 C   0  0  0  0  0  2  0  0  0  0  0  0
  192.9310  174.9910  143.0190 C   0  0  0  0  0  2  0  0  0  0  0  0
  184.4620  177.6450  144.0160 O   0  0  0  0  0  1  0  0  0  0  0  0
  188.9540  177.7070  146.2110 C   0  0  1  0  0  3  0  0  0  0  0  0
  185.4680  178.5870  147.4190 C   0  0  0  0  0  3  0  0  0  0  0  0
  186.6600  177.5280  145.0960 C   0  0  0  0  0  0  0  0  0  0  0  0
  189.5560  176.9380  145.0310 C   0  0  1  0  0  3  0  0  0  0  0  0
  190.9390  175.2910  148.0130 C   0  0  0  0  0  1  0  0  0  0  0  0
  190.5400  175.9730  145.6490 C   0  0  1  0  0  3  0  0  0  0  0  0
  193.6470  174.5950  144.2900 C   0  0  0  0  0  2  0  0  0  0  0  0
  190.2600  173.5230  143.8520 C   0  0  0  0  0  1  0  0  0  0  0  0
  186.8410  178.3520  147.3830 C   0  0  0  0  0  3  0  0  0  0  0  0
  187.4460  177.8250  146.2350 C   0  0  0  0  0  0  0  0  0  0  0  0
  190.4340  174.8180  143.0630 C   0  0  2  0  0  3  0  0  0  0  0  0
  187.1080  177.4360  140.8990 C   0  0  0  0  0  2  0  0  0  0  0  0
  184.7970  178.2910  140.5130 C   0  0  0  0  0  1  0  0  0  0  0  0
  185.9660  177.5410  139.9020 C   0  0  0  0  0  2  0  0  0  0  0  0
  1  5  1  6  0  0  0
  1  4  1  0  0  0  0
  1 19  1  0  0  0  0
  2 13  1  0  0  0  0
  4 12  1  6  0  0  0
  4 20  1  0  0  0  0
  6  8  2  0  0  0  0
  7 15  1  1  0  0  0
  7  9  1  0  0  0  0
  8 12  1  0  0  0  0
  9 14  1  1  0  0  0
  9 22  1  0  0  0  0
 10  3  1  0  0  0  0
 10 21  1  1  0  0  0
 11 28  1  1  0  0  0
 11  8  1  0  0  0  0
 11  5  1  0  0  0  0
 12 27  1  0  0  0  0
 13 18  2  0  0  0  0
 15 23  1  0  0  0  0
 16  2  1  0  0  0  0
 17 26  1  1  0  0  0
 17  3  1  0  0  0  0
 19  2  2  0  0  0  0
 19 26  1  0  0  0  0
 20 22  1  0  0  0  0
 20 17  1  0  0  0  0
 22 10  1  0  0  0  0
 23 14  1  0  0  0  0
 25 18  1  0  0  0  0
 26 25  2  0  0  0  0
 27  7  1  0  0  0  0
 27 24  1  0  0  0  0
 30 29  1  0  0  0  0
 30 28  1  0  0  0  0
M  END
>  <MODEL>
1

>  <REMARK>
 VINA RESULT:      -8.4      0.000      0.000
  Name = 
  2 active torsions:
  status: ('A' for Active; 'I' for Inactive)
    1  A    between atoms: C_11  and  C_28
    2  A    between atoms: C_28  and  C_30
                            x       y       z     vdW  Elec       q    Type
                         _______ _______ _______ _____ _____    ______ ____

>  <TORSDO>
F 2

$$$$
=
 OpenBabel11112416133D

 30 35  0  0  1  0  0  0  0  0999 V2000
  189.0650  175.4600  143.8750 C   0  0  1  0  0  3  0  0  0  0  0  0
  191.1470  174.8980  145.2750 C   0  0  0  0  0  0  0  0  0  0  0  0
  187.4570  177.3350  147.2450 N   0  0  0  0  0  2  0  0  0  0  0  0
  188.0740  176.6290  143.8590 C   0  0  1  0  0  3  0  0  0  0  0  0
  189.9470  175.5830  142.7150 N   0  0  0  0  0  2  0  0  0  0  0  0
  187.4250  176.2660  140.2550 O   0  0  0  0  0  0  0  0  0  0  0  0
  185.0080  177.3260  143.1520 C   0  0  1  0  0  3  0  0  0  0  0  0
  187.9610  176.1130  141.3860 C   0  0  0  0  0  0  0  0  0  0  0  0
  185.0040  177.7060  144.5810 N   0  0  2  0  0  0  0  0  0  0  0  0
  186.2970  178.0050  146.6800 C   0  0  1  0  0  3  0  0  0  0  0  0
  189.1970  175.2700  141.4960 C   0  0  2  0  0  3  0  0  0  0  0  0
  187.3780  176.7190  142.5580 N   0  0  0  0  0  0  0  0  0  0  0  0
  191.7950  174.8400  146.5120 C   0  0  0  0  0  3  0  0  0  0  0  0
  184.3550  179.0100  144.6210 C   0  0  0  0  0  2  0  0  0  0  0  0
  183.8060  177.9940  142.5110 C   0  0  0  0  0  2  0  0  0  0  0  0
  191.8230  174.4190  144.1590 O   0  0  0  0  0  1  0  0  0  0  0  0
  187.7060  176.1910  146.3750 C   0  0  1  0  0  3  0  0  0  0  0  0
  191.1430  175.2510  147.6710 C   0  0  0  0  0  3  0  0  0  0  0  0
  189.8320  175.4190  145.1830 C   0  0  0  0  0  0  0  0  0  0  0  0
  187.0780  176.4800  145.0070 C   0  0  1  0  0  3  0  0  0  0  0  0
  186.3720  179.4850  147.0040 C   0  0  0  0  0  1  0  0  0  0  0  0
  186.3440  177.7900  145.1780 C   0  0  1  0  0  3  0  0  0  0  0  0
  183.3340  179.0300  143.5050 C   0  0  0  0  0  2  0  0  0  0  0  0
  186.7580  179.1210  142.4640 C   0  0  0  0  0  1  0  0  0  0  0  0
  189.8310  175.7110  147.6030 C   0  0  0  0  0  3  0  0  0  0  0  0
  189.1670  175.8010  146.3730 C   0  0  0  0  0  0  0  0  0  0  0  0
  186.2840  177.6750  142.3470 C   0  0  2  0  0  3  0  0  0  0  0  0
  188.8520  173.7840  141.4160 C   0  0  0  0  0  2  0  0  0  0  0  0
  190.0020  171.8500  142.4920 C   0  0  0  0  0  1  0  0  0  0  0  0
  190.1050  172.9240  141.4260 C   0  0  0  0  0  2  0  0  0  0  0  0
  1  5  1  6  0  0  0
  1 19  1  0  0  0  0
  2 13  1  0  0  0  0
  4 12  1  6  0  0  0
  4  1  1  0  0  0  0
  4 20  1  0  0  0  0
  6  8  2  0  0  0  0
  7 15  1  6  0  0  0
  7  9  1  0  0  0  0
  8 11  1  0  0  0  0
  8 12  1  0  0  0  0
  9 14  1  6  0  0  0
  9 22  1  0  0  0  0
 10 21  1  6  0  0  0
 10  3  1  0  0  0  0
 11 28  1  1  0  0  0
 11  5  1  0  0  0  0
 13 18  2  0  0  0  0
 15 23  1  0  0  0  0
 16  2  1  0  0  0  0
 17 26  1  6  0  0  0
 17  3  1  0  0  0  0
 19  2  2  0  0  0  0
 19 26  1  0  0  0  0
 20 22  1  0  0  0  0
 20 17  1  0  0  0  0
 22 10  1  0  0  0  0
 23 14  1  0  0  0  0
 25 18  1  0  0  0  0
 26 25  2  0  0  0  0
 27 24  1  0  0  0  0
 27 12  1  0  0  0  0
 27  7  1  0  0  0  0
 28 30  1  0  0  0  0
 30 29  1  0  0  0  0
M  END
>  <MODEL>
2

>  <REMARK>
 VINA RESULT:      -7.7      1.886      5.732
  Name = 
  2 active torsions:
  status: ('A' for Active; 'I' for Inactive)
    1  A    between atoms: C_11  and  C_28
    2  A    between atoms: C_28  and  C_30
                            x       y       z     vdW  Elec       q    Type
                         _______ _______ _______ _____ _____    ______ ____

>  <TORSDO>
F 2

$$$$
=
 OpenBabel11112416133D

 30 35  0  0  1  0  0  0  0  0999 V2000
  187.1840  176.4050  141.3280 C   0  0  1  0  0  3  0  0  0  0  0  0
  187.2350  175.8980  138.8070 C   0  0  0  0  0  0  0  0  0  0  0  0
  190.1170  173.4750  141.8500 N   0  0  0  0  0  2  0  0  0  0  0  0
  188.2360  176.3830  142.4410 C   0  0  1  0  0  3  0  0  0  0  0  0
  186.8980  177.7980  140.9850 N   0  0  0  0  0  2  0  0  0  0  0  0
  186.5590  179.0610  144.3270 O   0  0  0  0  0  0  0  0  0  0  0  0
  188.5370  175.9350  145.6190 C   0  0  1  0  0  3  0  0  0  0  0  0
  186.8460  178.2730  143.3860 C   0  0  0  0  0  0  0  0  0  0  0  0
  189.4140  174.8400  145.1500 N   0  0  2  0  0  0  0  0  0  0  0  0
  190.5000  173.6890  143.2360 C   0  0  1  0  0  3  0  0  0  0  0  0
  186.1380  178.4210  142.0720 C   0  0  2  0  0  3  0  0  0  0  0  0
  187.8230  177.2300  143.5810 N   0  0  0  0  0  0  0  0  0  0  0  0
  187.6530  175.0970  137.7410 C   0  0  0  0  0  3  0  0  0  0  0  0
  190.6230  174.9570  145.9560 C   0  0  0  0  0  2  0  0  0  0  0  0
  188.8880  176.1960  147.0720 C   0  0  0  0  0  2  0  0  0  0  0  0
  186.4000  176.9740  138.5290 O   0  0  0  0  0  1  0  0  0  0  0  0
  188.7410  173.9500  141.7500 C   0  0  1  0  0  3  0  0  0  0  0  0
  188.4420  173.9740  137.9690 C   0  0  0  0  0  3  0  0  0  0  0  0
  187.6480  175.5980  140.1300 C   0  0  0  0  0  0  0  0  0  0  0  0
  188.4910  174.9450  142.8870 C   0  0  1  0  0  3  0  0  0  0  0  0
  191.9970  173.9220  143.3080 C   0  0  0  0  0  1  0  0  0  0  0  0
  189.7500  174.9170  143.7220 C   0  0  1  0  0  3  0  0  0  0  0  0
  190.2030  175.4880  147.3090 C   0  0  0  0  0  2  0  0  0  0  0  0
  190.0040  177.8260  144.6050 C   0  0  0  0  0  1  0  0  0  0  0  0
  188.8070  173.6340  139.2700 C   0  0  0  0  0  3  0  0  0  0  0  0
  188.4200  174.4330  140.3530 C   0  0  0  0  0  0  0  0  0  0  0  0
  188.6030  177.2630  144.8240 C   0  0  2  0  0  3  0  0  0  0  0  0
  184.7170  177.8670  142.1530 C   0  0  0  0  0  2  0  0  0  0  0  0
  182.4410  178.1970  141.1890 C   0  0  0  0  0  1  0  0  0  0  0  0
  183.9280  178.1810  140.8920 C   0  0  0  0  0  2  0  0  0  0  0  0
  1 19  1  6  0  0  0
  1  4  1  0  0  0  0
  2 19  1  0  0  0  0
  3 10  1  0  0  0  0
  4 20  1  0  0  0  0
  4 12  1  1  0  0  0
  5  1  1  0  0  0  0
  5 11  1  0  0  0  0
  7 15  1  1  0  0  0
  8 12  1  0  0  0  0
  8  6  2  0  0  0  0
  9  7  1  0  0  0  0
  9 14  1  1  0  0  0
 10 21  1  6  0  0  0
 10 22  1  0  0  0  0
 11 28  1  1  0  0  0
 11  8  1  0  0  0  0
 12 27  1  0  0  0  0
 13 18  1  0  0  0  0
 13  2  2  0  0  0  0
 14 23  1  0  0  0  0
 15 23  1  0  0  0  0
 16  2  1  0  0  0  0
 17 26  1  6  0  0  0
 17  3  1  0  0  0  0
 17 20  1  0  0  0  0
 18 25  2  0  0  0  0
 19 26  2  0  0  0  0
 20 22  1  0  0  0  0
 22  9  1  0  0  0  0
 24 27  1  0  0  0  0
 25 26  1  0  0  0  0
 27  7  1  0  0  0  0
 30 29  1  0  0  0  0
 30 28  1  0  0  0  0
M  END
>  <MODEL>
3

>  <REMARK>
 VINA RESULT:      -7.5      2.116      5.205
  Name = 
  2 active torsions:
  status: ('A' for Active; 'I' for Inactive)
    1  A    between atoms: C_11  and  C_28
    2  A    between atoms: C_28  and  C_30
                            x       y       z     vdW  Elec       q    Type
                         _______ _______ _______ _____ _____    ______ ____

>  <TORSDO>
F 2

$$$$
=
 OpenBabel11112416133D

 30 35  0  0  1  0  0  0  0  0999 V2000
  188.2370  176.2020  143.9690 C   0  0  1  0  0  3  0  0  0  0  0  0
  186.8380  178.0280  142.8200 C   0  0  0  0  0  0  0  0  0  0  0  0
  188.8820  174.5010  140.2080 N   0  0  0  0  0  2  0  0  0  0  0  0
  189.4640  175.3820  143.5590 C   0  0  1  0  0  3  0  0  0  0  0  0
  188.6570  177.2120  144.9400 N   0  0  0  0  0  2  0  0  0  0  0  0
  190.6520  175.0830  147.0290 O   0  0  0  0  0  0  0  0  0  0  0  0
  190.8760  172.5290  144.0650 C   0  0  1  0  0  3  0  0  0  0  0  0
  189.9820  175.4680  146.0320 C   0  0  0  0  0  0  0  0  0  0  0  0
  190.6620  172.4210  142.6060 N   0  0  2  0  0  0  0  0  0  0  0  0
  189.9000  173.5080  140.5070 C   0  0  1  0  0  3  0  0  0  0  0  0
  188.9730  176.5630  146.2150 C   0  0  2  0  0  3  0  0  0  0  0  0
  190.1690  174.8490  144.7440 N   0  0  0  0  0  0  0  0  0  0  0  0
  186.1950  178.5250  141.6840 C   0  0  0  0  0  3  0  0  0  0  0  0
  191.9340  171.9500  142.0740 C   0  0  0  0  0  2  0  0  0  0  0  0
  191.9290  171.5020  144.4380 C   0  0  0  0  0  2  0  0  0  0  0  0
  186.7300  178.7510  144.0020 O   0  0  0  0  0  1  0  0  0  0  0  0
  188.1450  174.6890  141.4530 C   0  0  1  0  0  3  0  0  0  0  0  0
  186.2220  177.8120  140.4890 C   0  0  0  0  0  3  0  0  0  0  0  0
  187.5620  176.8110  142.7560 C   0  0  0  0  0  0  0  0  0  0  0  0
  189.0450  174.2570  142.6150 C   0  0  1  0  0  3  0  0  0  0  0  0
  191.1010  173.7430  139.6110 C   0  0  0  0  0  1  0  0  0  0  0  0
  190.2840  173.6890  141.9650 C   0  0  1  0  0  3  0  0  0  0  0  0
  192.5570  171.0670  143.1330 C   0  0  0  0  0  2  0  0  0  0  0  0
  192.4830  174.5650  143.8910 C   0  0  0  0  0  1  0  0  0  0  0  0
  186.8810  176.5870  140.4260 C   0  0  0  0  0  3  0  0  0  0  0  0
  187.5520  176.0770  141.5450 C   0  0  0  0  0  0  0  0  0  0  0  0
  191.2970  173.9200  144.6020 C   0  0  2  0  0  3  0  0  0  0  0  0
  187.7150  176.0350  146.9030 C   0  0  0  0  0  2  0  0  0  0  0  0
  185.3700  176.7830  146.5000 C   0  0  0  0  0  1  0  0  0  0  0  0
  186.7020  177.1450  147.1300 C   0  0  0  0  0  2  0  0  0  0  0  0
  1 19  1  6  0  0  0
  1  5  1  0  0  0  0
  2 16  1  0  0  0  0
  3 10  1  0  0  0  0
  4  1  1  0  0  0  0
  4 12  1  1  0  0  0
  5 11  1  0  0  0  0
  7 15  1  6  0  0  0
  7 27  1  0  0  0  0
  8 11  1  0  0  0  0
  8  6  2  0  0  0  0
  9 14  1  6  0  0  0
  9  7  1  0  0  0  0
 10 21  1  6  0  0  0
 10 22  1  0  0  0  0
 11 28  1  6  0  0  0
 12  8  1  0  0  0  0
 13  2  2  0  0  0  0
 14 23  1  0  0  0  0
 17  3  1  6  0  0  0
 17 26  1  0  0  0  0
 17 20  1  0  0  0  0
 18 13  1  0  0  0  0
 19  2  1  0  0  0  0
 20  4  1  0  0  0  0
 22  9  1  0  0  0  0
 22 20  1  0  0  0  0
 23 15  1  0  0  0  0
 24 27  1  0  0  0  0
 25 18  2  0  0  0  0
 25 26  1  0  0  0  0
 26 19  2  0  0  0  0
 27 12  1  0  0  0  0
 28 30  1  0  0  0  0
 29 30  1  0  0  0  0
M  END
>  <MODEL>
4

>  <REMARK>
 VINA RESULT:      -7.4      2.306      4.987
  Name = 
  2 active torsions:
  status: ('A' for Active; 'I' for Inactive)
    1  A    between atoms: C_11  and  C_28
    2  A    between atoms: C_28  and  C_30
                            x       y       z     vdW  Elec       q    Type
                         _______ _______ _______ _____ _____    ______ ____

>  <TORSDO>
F 2

$$$$
=
 OpenBabel11112416133D

 30 35  0  0  1  0  0  0  0  0999 V2000
  189.9910  176.0890  144.3850 C   0  0  1  0  0  3  0  0  0  0  0  0
  191.4620  176.4940  146.4550 C   0  0  0  0  0  0  0  0  0  0  0  0
  193.1260  173.8670  142.7440 N   0  0  0  0  0  2  0  0  0  0  0  0
  189.8410  174.9310  143.3930 C   0  0  1  0  0  3  0  0  0  0  0  0
  188.8320  176.0890  145.2780 N   0  0  0  0  0  2  0  0  0  0  0  0
  186.2910  175.6780  142.7780 O   0  0  0  0  0  0  0  0  0  0  0  0
  189.0350  174.3190  140.3320 C   0  0  1  0  0  3  0  0  0  0  0  0
  187.4360  175.7090  143.3030 C   0  0  0  0  0  0  0  0  0  0  0  0
  190.4160  173.7890  140.3150 N   0  0  2  0  0  0  0  0  0  0  0  0
  192.4820  173.2630  141.5880 C   0  0  1  0  0  3  0  0  0  0  0  0
  187.6470  176.5320  144.5390 C   0  0  2  0  0  3  0  0  0  0  0  0
  188.5310  174.9820  142.7090 N   0  0  0  0  0  0  0  0  0  0  0  0
  192.7040  176.4170  147.0910 C   0  0  0  0  0  3  0  0  0  0  0  0
  190.3100  172.4890  139.6640 C   0  0  0  0  0  2  0  0  0  0  0  0
  188.3150  173.7270  139.1360 C   0  0  0  0  0  2  0  0  0  0  0  0
  190.4100  177.0870  147.1410 O   0  0  0  0  0  1  0  0  0  0  0  0
  192.3850  175.0970  143.0020 C   0  0  1  0  0  3  0  0  0  0  0  0
  193.8060  175.8860  146.4280 C   0  0  0  0  0  3  0  0  0  0  0  0
  191.3020  175.9880  145.1400 C   0  0  0  0  0  0  0  0  0  0  0  0
  190.9890  174.9570  142.3870 C   0  0  1  0  0  3  0  0  0  0  0  0
  192.6460  171.7570  141.6580 C   0  0  0  0  0  1  0  0  0  0  0  0
  191.0120  173.6390  141.6500 C   0  0  1  0  0  3  0  0  0  0  0  0
  189.1890  172.5910  138.6540 C   0  0  0  0  0  2  0  0  0  0  0  0
  188.1750  172.6050  142.0870 C   0  0  0  0  0  1  0  0  0  0  0  0
  193.6770  175.4380  145.1160 C   0  0  0  0  0  3  0  0  0  0  0  0
  192.4380  175.4820  144.4630 C   0  0  0  0  0  0  0  0  0  0  0  0
  188.2090  174.0560  141.6160 C   0  0  2  0  0  3  0  0  0  0  0  0
  187.7240  178.0190  144.1960 C   0  0  0  0  0  2  0  0  0  0  0  0
  185.6930  179.1890  143.3430 C   0  0  0  0  0  1  0  0  0  0  0  0
  186.4440  178.7430  144.5830 C   0  0  0  0  0  2  0  0  0  0  0  0
  1 19  1  1  0  0  0
  1  5  1  0  0  0  0
  2 13  1  0  0  0  0
  2 16  1  0  0  0  0
  4 12  1  6  0  0  0
  4  1  1  0  0  0  0
  6  8  2  0  0  0  0
  7 15  1  6  0  0  0
  7 27  1  0  0  0  0
  8 11  1  0  0  0  0
  9 14  1  1  0  0  0
  9  7  1  0  0  0  0
  9 22  1  0  0  0  0
 10 22  1  0  0  0  0
 10 21  1  1  0  0  0
 10  3  1  0  0  0  0
 11 28  1  6  0  0  0
 11  5  1  0  0  0  0
 12  8  1  0  0  0  0
 17  3  1  1  0  0  0
 17 26  1  0  0  0  0
 18 13  2  0  0  0  0
 19  2  2  0  0  0  0
 20 17  1  0  0  0  0
 20  4  1  0  0  0  0
 22 20  1  0  0  0  0
 23 15  1  0  0  0  0
 23 14  1  0  0  0  0
 25 18  1  0  0  0  0
 26 25  2  0  0  0  0
 26 19  1  0  0  0  0
 27 24  1  0  0  0  0
 27 12  1  0  0  0  0
 28 30  1  0  0  0  0
 29 30  1  0  0  0  0
M  END
>  <MODEL>
5

>  <REMARK>
 VINA RESULT:      -7.4      2.518      5.334
  Name = 
  2 active torsions:
  status: ('A' for Active; 'I' for Inactive)
    1  A    between atoms: C_11  and  C_28
    2  A    between atoms: C_28  and  C_30
                            x       y       z     vdW  Elec       q    Type
                         _______ _______ _______ _____ _____    ______ ____

>  <TORSDO>
F 2

$$$$
=
 OpenBabel11112416133D

 30 35  0  0  1  0  0  0  0  0999 V2000
  188.7900  176.5400  144.0380 C   0  0  1  0  0  3  0  0  0  0  0  0
  187.1070  177.6320  142.4290 C   0  0  0  0  0  0  0  0  0  0  0  0
  190.2960  174.3750  140.7980 N   0  0  0  0  0  2  0  0  0  0  0  0
  190.2290  176.0330  143.8940 C   0  0  1  0  0  3  0  0  0  0  0  0
  188.8140  177.8000  144.7800 N   0  0  0  0  0  2  0  0  0  0  0  0
  191.0360  176.7790  147.4060 O   0  0  0  0  0  0  0  0  0  0  0  0
  192.2690  173.8520  145.1090 C   0  0  1  0  0  3  0  0  0  0  0  0
  190.4110  176.7530  146.3110 C   0  0  0  0  0  0  0  0  0  0  0  0
  192.2630  173.4000  143.7010 N   0  0  2  0  0  0  0  0  0  0  0  0
  191.4960  173.7880  141.3710 C   0  0  1  0  0  3  0  0  0  0  0  0
  189.1360  177.5340  146.1850 C   0  0  2  0  0  3  0  0  0  0  0  0
  190.9040  175.9670  145.2080 N   0  0  0  0  0  0  0  0  0  0  0  0
  186.4960  177.6920  141.1750 C   0  0  0  0  0  3  0  0  0  0  0  0
  193.6680  173.2090  143.3630 C   0  0  0  0  0  2  0  0  0  0  0  0
  193.5020  173.2590  145.7630 C   0  0  0  0  0  2  0  0  0  0  0  0
  186.6760  178.5160  143.4110 O   0  0  0  0  0  1  0  0  0  0  0  0
  189.3940  174.5920  141.9240 C   0  0  1  0  0  3  0  0  0  0  0  0
  186.8480  176.7910  140.1740 C   0  0  0  0  0  3  0  0  0  0  0  0
  188.1280  176.6800  142.6820 C   0  0  0  0  0  0  0  0  0  0  0  0
  190.2320  174.6710  143.2040 C   0  0  1  0  0  3  0  0  0  0  0  0
  192.6910  174.1670  140.5170 C   0  0  0  0  0  1  0  0  0  0  0  0
  191.6450  174.3560  142.7710 C   0  0  1  0  0  3  0  0  0  0  0  0
  194.3710  172.7660  144.6270 C   0  0  0  0  0  2  0  0  0  0  0  0
  193.2950  176.1800  144.5760 C   0  0  0  0  0  1  0  0  0  0  0  0
  187.8080  175.8140  140.4250 C   0  0  0  0  0  3  0  0  0  0  0  0
  188.4530  175.7470  141.6670 C   0  0  0  0  0  0  0  0  0  0  0  0
  192.2450  175.3840  145.3440 C   0  0  2  0  0  3  0  0  0  0  0  0
  187.9880  176.8220  146.8990 C   0  0  0  0  0  2  0  0  0  0  0  0
  185.5730  176.7960  146.2770 C   0  0  0  0  0  1  0  0  0  0  0  0
  186.7070  177.6370  146.8330 C   0  0  0  0  0  2  0  0  0  0  0  0
  1 19  1  6  0  0  0
  1  5  1  0  0  0  0
  2 19  1  0  0  0  0
  2 16  1  0  0  0  0
  3 10  1  0  0  0  0
  4  1  1  0  0  0  0
  4 12  1  1  0  0  0
  5 11  1  0  0  0  0
  7 27  1  0  0  0  0
  7 15  1  6  0  0  0
  8  6  2  0  0  0  0
  9 14  1  6  0  0  0
  9  7  1  0  0  0  0
 10 21  1  6  0  0  0
 10 22  1  0  0  0  0
 11  8  1  0  0  0  0
 11 28  1  6  0  0  0
 12 27  1  0  0  0  0
 12  8  1  0  0  0  0
 13  2  2  0  0  0  0
 14 23  1  0  0  0  0
 17  3  1  6  0  0  0
 17 20  1  0  0  0  0
 18 25  2  0  0  0  0
 18 13  1  0  0  0  0
 20  4  1  0  0  0  0
 22 20  1  0  0  0  0
 22  9  1  0  0  0  0
 23 15  1  0  0  0  0
 24 27  1  0  0  0  0
 25 26  1  0  0  0  0
 26 17  1  0  0  0  0
 26 19  2  0  0  0  0
 29 30  1  0  0  0  0
 30 28  1  0  0  0  0
M  END
>  <MODEL>
6

>  <REMARK>
 VINA RESULT:      -7.2      2.082      4.873
  Name = 
  2 active torsions:
  status: ('A' for Active; 'I' for Inactive)
    1  A    between atoms: C_11  and  C_28
    2  A    between atoms: C_28  and  C_30
                            x       y       z     vdW  Elec       q    Type
                         _______ _______ _______ _____ _____    ______ ____

>  <TORSDO>
F 2

$$$$
=
 OpenBabel11112416133D

 30 35  0  0  1  0  0  0  0  0999 V2000
  190.3230  174.6790  143.8900 C   0  0  1  0  0  3  0  0  0  0  0  0
  192.8410  174.1820  143.7310 C   0  0  0  0  0  0  0  0  0  0  0  0
  191.0360  176.4710  147.5970 N   0  0  0  0  0  2  0  0  0  0  0  0
  189.4960  175.8120  144.5080 C   0  0  1  0  0  3  0  0  0  0  0  0
  190.3200  174.8420  142.4370 N   0  0  0  0  0  2  0  0  0  0  0  0
  186.8080  175.4520  142.0220 O   0  0  0  0  0  0  0  0  0  0  0  0
  186.6110  176.4040  145.8190 C   0  0  1  0  0  3  0  0  0  0  0  0
  187.9220  175.3100  142.5940 C   0  0  0  0  0  0  0  0  0  0  0  0
  187.4640  176.7720  146.9690 N   0  0  2  0  0  0  0  0  0  0  0  0
  189.7550  177.1030  147.8670 C   0  0  1  0  0  3  0  0  0  0  0  0
  188.9920  174.5110  141.9110 C   0  0  2  0  0  3  0  0  0  0  0  0
  188.1530  175.8860  143.8950 N   0  0  0  0  0  0  0  0  0  0  0  0
  194.1060  174.1390  144.3220 C   0  0  0  0  0  3  0  0  0  0  0  0
  186.9390  178.0520  147.4290 C   0  0  0  0  0  2  0  0  0  0  0  0
  185.2500  177.0320  146.0530 C   0  0  0  0  0  2  0  0  0  0  0  0
  192.7150  173.7370  142.4210 O   0  0  0  0  0  1  0  0  0  0  0  0
  190.7360  175.3430  146.7220 C   0  0  1  0  0  3  0  0  0  0  0  0
  194.2780  174.5180  145.6500 C   0  0  0  0  0  3  0  0  0  0  0  0
  191.7250  174.6570  144.4660 C   0  0  0  0  0  0  0  0  0  0  0  0
  189.4020  175.6200  146.0210 C   0  0  1  0  0  3  0  0  0  0  0  0
  189.9750  178.5830  148.1200 C   0  0  0  0  0  1  0  0  0  0  0  0
  188.8890  176.9000  146.6360 C   0  0  1  0  0  3  0  0  0  0  0  0
  185.4510  178.0440  147.1580 C   0  0  0  0  0  2  0  0  0  0  0  0
  187.5440  178.2650  144.2620 C   0  0  0  0  0  1  0  0  0  0  0  0
  193.1810  174.9320  146.4020 C   0  0  0  0  0  3  0  0  0  0  0  0
  191.9060  175.0060  145.8260 C   0  0  0  0  0  0  0  0  0  0  0  0
  187.1310  176.8040  144.4150 C   0  0  2  0  0  3  0  0  0  0  0  0
  188.7060  173.0140  142.0150 C   0  0  0  0  0  2  0  0  0  0  0  0
  190.3310  171.1270  142.1460 C   0  0  0  0  0  1  0  0  0  0  0  0
  189.7370  172.1990  141.2520 C   0  0  0  0  0  2  0  0  0  0  0  0
  1  5  1  6  0  0  0
  1 19  1  0  0  0  0
  1  4  1  0  0  0  0
  2 13  2  0  0  0  0
  2 19  1  0  0  0  0
  3 10  1  0  0  0  0
  4 12  1  6  0  0  0
  4 20  1  0  0  0  0
  6  8  2  0  0  0  0
  7 15  1  1  0  0  0
  7  9  1  0  0  0  0
  8 12  1  0  0  0  0
  9 14  1  6  0  0  0
 10 21  1  6  0  0  0
 11 28  1  1  0  0  0
 11  5  1  0  0  0  0
 11  8  1  0  0  0  0
 12 27  1  0  0  0  0
 13 18  1  0  0  0  0
 15 23  1  0  0  0  0
 16  2  1  0  0  0  0
 17 26  1  6  0  0  0
 17  3  1  0  0  0  0
 18 25  2  0  0  0  0
 19 26  2  0  0  0  0
 20 22  1  0  0  0  0
 20 17  1  0  0  0  0
 22  9  1  0  0  0  0
 22 10  1  0  0  0  0
 23 14  1  0  0  0  0
 24 27  1  0  0  0  0
 26 25  1  0  0  0  0
 27  7  1  0  0  0  0
 30 28  1  0  0  0  0
 30 29  1  0  0  0  0
M  END
>  <MODEL>
7

>  <REMARK>
 VINA RESULT:      -7.2      1.896      5.841
  Name = 
  2 active torsions:
  status: ('A' for Active; 'I' for Inactive)
    1  A    between atoms: C_11  and  C_28
    2  A    between atoms: C_28  and  C_30
                            x       y       z     vdW  Elec       q    Type
                         _______ _______ _______ _____ _____    ______ ____

>  <TORSDO>
F 2

$$$$
=
 OpenBabel11112416133D

 30 35  0  0  1  0  0  0  0  0999 V2000
  187.2960  176.6440  141.9650 C   0  0  1  0  0  3  0  0  0  0  0  0
  186.5710  176.7880  139.5020 C   0  0  0  0  0  0  0  0  0  0  0  0
  190.2450  173.9190  140.8110 N   0  0  0  0  0  2  0  0  0  0  0  0
  188.6390  176.4300  142.6710 C   0  0  1  0  0  3  0  0  0  0  0  0
  186.9210  178.0520  142.0990 N   0  0  0  0  0  2  0  0  0  0  0  0
  187.6230  178.4130  145.5990 O   0  0  0  0  0  0  0  0  0  0  0  0
  189.8990  175.2290  145.3840 C   0  0  1  0  0  3  0  0  0  0  0  0
  187.6070  177.9080  144.4440 C   0  0  0  0  0  0  0  0  0  0  0  0
  190.5880  174.3590  144.4080 N   0  0  2  0  0  0  0  0  0  0  0  0
  191.0340  173.8100  142.0270 C   0  0  1  0  0  3  0  0  0  0  0  0
  186.5310  178.3230  143.4850 C   0  0  2  0  0  3  0  0  0  0  0  0
  188.5950  176.9300  144.0610 N   0  0  0  0  0  0  0  0  0  0  0  0
  186.6420  176.3130  138.1890 C   0  0  0  0  0  3  0  0  0  0  0  0
  191.9860  174.3660  144.8210 C   0  0  0  0  0  2  0  0  0  0  0  0
  190.6780  175.1470  146.6830 C   0  0  0  0  0  2  0  0  0  0  0  0
  185.6930  177.8290  139.7750 O   0  0  0  0  0  1  0  0  0  0  0  0
  188.9050  174.2930  141.2500 C   0  0  1  0  0  3  0  0  0  0  0  0
  187.4620  175.2330  137.8720 C   0  0  0  0  0  3  0  0  0  0  0  0
  187.3690  176.2010  140.5170 C   0  0  0  0  0  0  0  0  0  0  0  0
  189.0160  174.9500  142.6290 C   0  0  1  0  0  3  0  0  0  0  0  0
  192.4820  174.1360  141.7110 C   0  0  0  0  0  1  0  0  0  0  0  0
  190.4700  174.8150  143.0160 C   0  0  1  0  0  3  0  0  0  0  0  0
  192.0020  174.5090  146.3270 C   0  0  0  0  0  2  0  0  0  0  0  0
  190.9860  177.4230  144.5130 C   0  0  0  0  0  1  0  0  0  0  0  0
  188.2080  174.6110  138.8700 C   0  0  0  0  0  3  0  0  0  0  0  0
  188.1720  175.0820  140.1890 C   0  0  0  0  0  0  0  0  0  0  0  0
  189.7190  176.7140  144.9810 C   0  0  2  0  0  3  0  0  0  0  0  0
  185.2020  177.6550  143.8350 C   0  0  0  0  0  2  0  0  0  0  0  0
  184.0860  178.6160  145.8480 C   0  0  0  0  0  1  0  0  0  0  0  0
  184.1880  178.6710  144.3350 C   0  0  0  0  0  2  0  0  0  0  0  0
  1 19  1  6  0  0  0
  1  5  1  0  0  0  0
  1  4  1  0  0  0  0
  2 16  1  0  0  0  0
  2 19  1  0  0  0  0
  3 17  1  0  0  0  0
  3 10  1  0  0  0  0
  4 12  1  1  0  0  0
  5 11  1  0  0  0  0
  7 15  1  1  0  0  0
  8  6  2  0  0  0  0
  9 14  1  1  0  0  0
  9  7  1  0  0  0  0
 10 21  1  6  0  0  0
 10 22  1  0  0  0  0
 11 28  1  1  0  0  0
 11  8  1  0  0  0  0
 12  8  1  0  0  0  0
 12 27  1  0  0  0  0
 13  2  2  0  0  0  0
 14 23  1  0  0  0  0
 17 26  1  6  0  0  0
 17 20  1  0  0  0  0
 18 13  1  0  0  0  0
 18 25  2  0  0  0  0
 20  4  1  0  0  0  0
 20 22  1  0  0  0  0
 22  9  1  0  0  0  0
 23 15  1  0  0  0  0
 24 27  1  0  0  0  0
 25 26  1  0  0  0  0
 26 19  2  0  0  0  0
 27  7  1  0  0  0  0
 28 30  1  0  0  0  0
 30 29  1  0  0  0  0
M  END
>  <MODEL>
8

>  <REMARK>
 VINA RESULT:      -7.1      1.933      5.086
  Name = 
  2 active torsions:
  status: ('A' for Active; 'I' for Inactive)
    1  A    between atoms: C_11  and  C_28
    2  A    between atoms: C_28  and  C_30
                            x       y       z     vdW  Elec       q    Type
                         _______ _______ _______ _____ _____    ______ ____

>  <TORSDO>
F 2

$$$$
=
 OpenBabel11112416133D

 30 35  0  0  1  0  0  0  0  0999 V2000
  189.3130  175.1050  143.2480 C   0  0  1  0  0  3  0  0  0  0  0  0
  188.1380  177.3910  143.1450 C   0  0  0  0  0  0  0  0  0  0  0  0
  188.3440  174.5630  139.2200 N   0  0  0  0  0  2  0  0  0  0  0  0
  190.1120  174.2710  142.2420 C   0  0  1  0  0  3  0  0  0  0  0  0
  190.2460  175.6910  144.2100 N   0  0  0  0  0  2  0  0  0  0  0  0
  192.1770  172.7410  144.8760 O   0  0  0  0  0  0  0  0  0  0  0  0
  190.8480  171.2170  141.5180 C   0  0  1  0  0  3  0  0  0  0  0  0
  191.3570  173.5130  144.3080 C   0  0  0  0  0  0  0  0  0  0  0  0
  190.1840  171.5980  140.2530 N   0  0  2  0  0  0  0  0  0  0  0  0
  189.1220  173.3810  138.8890 C   0  0  1  0  0  3  0  0  0  0  0  0
  190.7590  174.6410  145.0940 C   0  0  2  0  0  3  0  0  0  0  0  0
  190.9850  173.2970  142.9320 N   0  0  0  0  0  0  0  0  0  0  0  0
  187.3280  178.3060  142.4670 C   0  0  0  0  0  3  0  0  0  0  0  0
  191.0750  171.1200  139.2030 C   0  0  0  0  0  2  0  0  0  0  0  0
  191.6720  169.9750  141.2330 C   0  0  0  0  0  2  0  0  0  0  0  0
  188.5760  177.7230  144.4200 O   0  0  0  0  0  1  0  0  0  0  0  0
  188.0900  174.4720  140.6530 C   0  0  1  0  0  3  0  0  0  0  0  0
  186.8130  177.9990  141.2110 C   0  0  0  0  0  3  0  0  0  0  0  0
  188.4790  176.1550  142.5390 C   0  0  0  0  0  0  0  0  0  0  0  0
  189.1590  173.5700  141.2760 C   0  0  1  0  0  3  0  0  0  0  0  0
  190.0150  173.6890  137.7030 C   0  0  0  0  0  1  0  0  0  0  0  0
  189.9610  173.0430  140.1090 C   0  0  1  0  0  3  0  0  0  0  0  0
  191.7460  169.8700  139.7270 C   0  0  0  0  0  2  0  0  0  0  0  0
  192.7840  172.9330  141.2610 C   0  0  0  0  0  1  0  0  0  0  0  0
  187.0930  176.7660  140.6290 C   0  0  0  0  0  3  0  0  0  0  0  0
  187.9200  175.8390  141.2770 C   0  0  0  0  0  0  0  0  0  0  0  0
  191.7470  172.2930  142.1790 C   0  0  2  0  0  3  0  0  0  0  0  0
  189.6770  174.1300  146.0440 C   0  0  0  0  0  2  0  0  0  0  0  0
  190.9200  175.3890  147.8020 C   0  0  0  0  0  1  0  0  0  0  0  0
  189.5480  175.0230  147.2670 C   0  0  0  0  0  2  0  0  0  0  0  0
  1 19  1  6  0  0  0
  1  5  1  0  0  0  0
  2 16  1  0  0  0  0
  4 12  1  1  0  0  0
  4  1  1  0  0  0  0
  5 11  1  0  0  0  0
  7 15  1  6  0  0  0
  7 27  1  0  0  0  0
  8  6  2  0  0  0  0
  8 11  1  0  0  0  0
  9 14  1  6  0  0  0
  9  7  1  0  0  0  0
 10 21  1  6  0  0  0
 10  3  1  0  0  0  0
 10 22  1  0  0  0  0
 11 28  1  6  0  0  0
 12  8  1  0  0  0  0
 13  2  2  0  0  0  0
 14 23  1  0  0  0  0
 17  3  1  6  0  0  0
 17 20  1  0  0  0  0
 17 26  1  0  0  0  0
 18 13  1  0  0  0  0
 19  2  1  0  0  0  0
 20  4  1  0  0  0  0
 22  9  1  0  0  0  0
 22 20  1  0  0  0  0
 23 15  1  0  0  0  0
 24 27  1  0  0  0  0
 25 18  2  0  0  0  0
 25 26  1  0  0  0  0
 26 19  2  0  0  0  0
 27 12  1  0  0  0  0
 28 30  1  0  0  0  0
 30 29  1  0  0  0  0
M  END
>  <MODEL>
9

>  <REMARK>
 VINA RESULT:      -7.0      3.064      6.090
  Name = 
  2 active torsions:
  status: ('A' for Active; 'I' for Inactive)
    1  A    between atoms: C_11  and  C_28
    2  A    between atoms: C_28  and  C_30
                            x       y       z     vdW  Elec       q    Type
                         _______ _______ _______ _____ _____    ______ ____

>  <TORSDO>
F 2

$$$$
