=
 OpenBabel11112417293D

 37 44  0  0  1  0  0  0  0  0999 V2000
  194.7800  175.2980  142.5020 C   0  0  1  0  0  0  0  0  0  0  0  0
  191.8430  175.1650  144.8620 C   0  0  1  0  0  3  0  0  0  0  0  0
  188.8580  174.4840  143.6340 O   0  0  0  0  0  0  0  0  0  0  0  0
  194.4070  174.7650  144.7150 C   0  0  2  0  0  3  0  0  0  0  0  0
  191.0500  175.4280  143.5930 C   0  0  2  0  0  3  0  0  0  0  0  0
  192.9950  174.2920  144.3620 C   0  0  2  0  0  3  0  0  0  0  0  0
  189.5580  175.6880  143.7980 C   0  0  2  0  0  3  0  0  0  0  0  0
  194.4170  175.2740  146.1470 C   0  0  0  0  0  2  0  0  0  0  0  0
  192.7710  174.1520  142.8560 C   0  0  2  0  0  3  0  0  0  0  0  0
  195.4600  174.0840  142.3150 O   0  0  0  0  0  1  0  0  0  0  0  0
  191.1750  176.9570  146.3250 O   0  0  0  0  0  0  0  0  0  0  0  0
  193.5220  176.5030  146.3300 C   0  0  0  0  0  2  0  0  0  0  0  0
  193.4200  175.1890  142.1330 O   0  0  0  0  0  0  0  0  0  0  0  0
  188.5980  175.4320  141.4420 O   0  0  0  0  0  0  0  0  0  0  0  0
  188.2920  174.3790  142.3320 C   0  0  1  0  0  3  0  0  0  0  0  0
  192.2260  176.5130  145.5030 C   0  0  1  0  0  3  0  0  0  0  0  0
  191.3120  174.2850  142.7190 N   0  0  2  0  0  0  0  0  0  0  0  0
  194.8880  175.7570  143.8340 O   0  0  0  0  0  0  0  0  0  0  0  0
  189.1800  176.3930  145.1110 C   0  0  1  0  0  3  0  0  0  0  0  0
  195.4200  176.3330  141.6020 C   0  0  0  0  0  1  0  0  0  0  0  0
  189.2970  174.2260  141.2160 C   0  0  2  0  0  3  0  0  0  0  0  0
  190.8090  174.5440  141.3530 C   0  0  2  0  0  3  0  0  0  0  0  0
  190.1820  177.4900  145.4880 C   0  0  0  0  0  2  0  0  0  0  0  0
  187.5020  177.9310  144.0820 C   0  0  0  0  0  3  0  0  0  0  0  0
  187.7930  176.9480  145.0350 C   0  0  0  0  0  0  0  0  0  0  0  0
  186.7850  176.5080  145.9090 C   0  0  0  0  0  3  0  0  0  0  0  0
  184.5290  176.6230  146.6690 F   0  0  0  0  0  0  0  0  0  0  0  0
  185.2140  178.0290  144.8700 C   0  0  0  0  0  3  0  0  0  0  0  0
  185.4990  177.0490  145.8250 C   0  0  0  0  0  0  0  0  0  0  0  0
  186.2140  178.4700  143.9990 C   0  0  0  0  0  3  0  0  0  0  0  0
  191.5420  173.6950  140.3030 C   0  0  1  0  0  3  0  0  0  0  0  0
  191.0820  172.2710  140.3700 N   0  0  0  0  0  0  0  0  0  0  0  0
  190.6630  173.2530  139.3330 C   0  0  2  0  0  3  0  0  0  0  0  0
  191.4060  172.9660  138.0450 C   0  0  0  0  0  2  0  0  0  0  0  0
  191.0190  173.9330  137.0350 N   0  0  0  0  0  1  0  0  0  0  0  0
  190.4850  170.7720  142.1250 C   0  0  0  0  0  2  0  0  0  0  0  0
  191.0610  170.9700  140.9500 C   0  0  0  0  0  3  0  0  0  0  0  0
  1 20  1  6  0  0  0
  1 18  1  0  0  0  0
  2 16  1  0  0  0  0
  3  7  1  0  0  0  0
  4  8  1  0  0  0  0
  5  7  1  0  0  0  0
  5  2  1  0  0  0  0
  6  4  1  0  0  0  0
  6  2  1  0  0  0  0
  7 19  1  0  0  0  0
  8 12  1  0  0  0  0
  9  6  1  0  0  0  0
 10  1  1  0  0  0  0
 13  1  1  0  0  0  0
 13  9  1  0  0  0  0
 14 15  1  0  0  0  0
 15  3  1  0  0  0  0
 16 11  1  0  0  0  0
 16 12  1  0  0  0  0
 17  9  1  0  0  0  0
 17  5  1  0  0  0  0
 18  4  1  0  0  0  0
 19 23  1  0  0  0  0
 21 22  1  0  0  0  0
 21 14  1  0  0  0  0
 21 15  1  0  0  0  0
 22 17  1  0  0  0  0
 23 11  1  0  0  0  0
 24 25  1  0  0  0  0
 25 19  1  0  0  0  0
 25 26  2  0  0  0  0
 28 29  2  0  0  0  0
 29 26  1  0  0  0  0
 29 27  1  0  0  0  0
 30 24  2  0  0  0  0
 30 28  1  0  0  0  0
 31 32  1  0  0  0  0
 31 22  1  0  0  0  0
 32 37  1  0  0  0  0
 33 31  1  0  0  0  0
 33 32  1  0  0  0  0
 34 33  1  0  0  0  0
 35 34  1  0  0  0  0
 37 36  2  0  0  0  0
M  END
>  <MODEL>
1

>  <REMARK>
 VINA RESULT:      -8.3      0.000      0.000
  Name = 
  4 active torsions:
  status: ('A' for Active; 'I' for Inactive)
    1  A    between atoms: C_1  and  C_27
    2  A    between atoms: N_4  and  C_37
    3  A    between atoms: C_8  and  C_12
    4  A    between atoms: C_23  and  C_30
                            x       y       z     vdW  Elec       q    Type
                         _______ _______ _______ _____ _____    ______ ____

>  <TORSDO>
F 4

$$$$
=
 OpenBabel11112417293D

 37 44  0  0  1  0  0  0  0  0999 V2000
  194.8180  175.2870  142.4840 C   0  0  1  0  0  0  0  0  0  0  0  0
  191.9550  175.1230  144.9320 C   0  0  1  0  0  3  0  0  0  0  0  0
  188.9270  174.4960  143.7820 O   0  0  0  0  0  0  0  0  0  0  0  0
  194.5090  174.7050  144.6950 C   0  0  2  0  0  3  0  0  0  0  0  0
  191.1250  175.4220  143.6950 C   0  0  2  0  0  3  0  0  0  0  0  0
  193.0830  174.2520  144.3750 C   0  0  2  0  0  3  0  0  0  0  0  0
  189.6420  175.6900  143.9520 C   0  0  2  0  0  3  0  0  0  0  0  0
  194.5690  175.1800  146.1370 C   0  0  0  0  0  2  0  0  0  0  0  0
  192.8100  174.1490  142.8740 C   0  0  2  0  0  3  0  0  0  0  0  0
  195.4810  174.0720  142.2480 O   0  0  0  0  0  1  0  0  0  0  0  0
  191.3490  176.8850  146.4560 O   0  0  0  0  0  0  0  0  0  0  0  0
  193.6910  176.4110  146.3770 C   0  0  0  0  0  2  0  0  0  0  0  0
  193.4470  175.1980  142.1560 O   0  0  0  0  0  0  0  0  0  0  0  0
  188.6070  175.4980  141.6220 O   0  0  0  0  0  0  0  0  0  0  0  0
  188.3200  174.4270  142.4960 C   0  0  1  0  0  3  0  0  0  0  0  0
  192.3690  176.4520  145.5920 C   0  0  1  0  0  3  0  0  0  0  0  0
  191.3490  174.2980  142.7860 N   0  0  2  0  0  0  0  0  0  0  0  0
  194.9710  175.7130  143.8230 O   0  0  0  0  0  0  0  0  0  0  0  0
  189.3120  176.3670  145.2920 C   0  0  1  0  0  3  0  0  0  0  0  0
  195.4390  176.3370  141.5890 C   0  0  0  0  0  1  0  0  0  0  0  0
  189.2880  174.2920  141.3460 C   0  0  2  0  0  3  0  0  0  0  0  0
  190.8070  174.5940  141.4430 C   0  0  2  0  0  3  0  0  0  0  0  0
  190.3350  177.4460  145.6630 C   0  0  0  0  0  2  0  0  0  0  0  0
  186.9830  176.4620  146.1900 C   0  0  0  0  0  3  0  0  0  0  0  0
  187.9280  176.9350  145.2730 C   0  0  0  0  0  0  0  0  0  0  0  0
  187.5620  177.9240  144.3450 C   0  0  0  0  0  3  0  0  0  0  0  0
  185.9100  179.3860  143.4440 F   0  0  0  0  0  0  0  0  0  0  0  0
  185.3200  177.9570  145.2590 C   0  0  0  0  0  3  0  0  0  0  0  0
  186.2600  178.4320  144.3400 C   0  0  0  0  0  0  0  0  0  0  0  0
  185.6810  176.9730  146.1830 C   0  0  0  0  0  3  0  0  0  0  0  0
  191.4980  173.7640  140.3510 C   0  0  1  0  0  3  0  0  0  0  0  0
  191.0660  172.3310  140.4310 N   0  0  0  0  0  0  0  0  0  0  0  0
  190.5790  173.3130  139.4240 C   0  0  2  0  0  3  0  0  0  0  0  0
  191.2590  173.0460  138.0980 C   0  0  0  0  0  2  0  0  0  0  0  0
  190.8910  174.0790  137.1470 N   0  0  0  0  0  1  0  0  0  0  0  0
  190.4600  170.7800  142.1360 C   0  0  0  0  0  2  0  0  0  0  0  0
  191.0960  171.0270  141.0020 C   0  0  0  0  0  3  0  0  0  0  0  0
  1 20  1  6  0  0  0
  1 18  1  0  0  0  0
  2 16  1  0  0  0  0
  3  7  1  0  0  0  0
  4  8  1  0  0  0  0
  5  7  1  0  0  0  0
  5  2  1  0  0  0  0
  6  4  1  0  0  0  0
  6  2  1  0  0  0  0
  7 19  1  0  0  0  0
  8 12  1  0  0  0  0
  9  6  1  0  0  0  0
 10  1  1  0  0  0  0
 13  1  1  0  0  0  0
 13  9  1  0  0  0  0
 14 15  1  0  0  0  0
 15  3  1  0  0  0  0
 16 12  1  0  0  0  0
 16 11  1  0  0  0  0
 17  9  1  0  0  0  0
 17  5  1  0  0  0  0
 18  4  1  0  0  0  0
 19 23  1  0  0  0  0
 21 22  1  0  0  0  0
 21 14  1  0  0  0  0
 21 15  1  0  0  0  0
 22 17  1  0  0  0  0
 23 11  1  0  0  0  0
 25 19  1  0  0  0  0
 25 24  2  0  0  0  0
 26 25  1  0  0  0  0
 27 29  1  0  0  0  0
 28 30  2  0  0  0  0
 29 26  2  0  0  0  0
 29 28  1  0  0  0  0
 30 24  1  0  0  0  0
 31 32  1  0  0  0  0
 31 22  1  0  0  0  0
 32 37  1  0  0  0  0
 33 31  1  0  0  0  0
 33 32  1  0  0  0  0
 34 33  1  0  0  0  0
 35 34  1  0  0  0  0
 37 36  2  0  0  0  0
M  END
>  <MODEL>
2

>  <REMARK>
 VINA RESULT:      -8.3      0.759      1.100
  Name = 
  4 active torsions:
  status: ('A' for Active; 'I' for Inactive)
    1  A    between atoms: C_1  and  C_27
    2  A    between atoms: N_4  and  C_37
    3  A    between atoms: C_8  and  C_12
    4  A    between atoms: C_23  and  C_30
                            x       y       z     vdW  Elec       q    Type
                         _______ _______ _______ _____ _____    ______ ____

>  <TORSDO>
F 4

$$$$
=
 OpenBabel11112417293D

 37 44  0  0  1  0  0  0  0  0999 V2000
  193.2600  175.1000  145.0640 C   0  0  1  0  0  0  0  0  0  0  0  0
  189.5100  175.4660  145.1820 C   0  0  1  0  0  3  0  0  0  0  0  0
  187.7480  174.5360  142.5520 O   0  0  0  0  0  0  0  0  0  0  0  0
  191.6010  175.0470  146.6660 C   0  0  2  0  0  3  0  0  0  0  0  0
  189.6480  175.4530  143.6680 C   0  0  2  0  0  3  0  0  0  0  0  0
  190.6160  174.5080  145.6270 C   0  0  2  0  0  3  0  0  0  0  0  0
  188.3640  175.7490  142.8930 C   0  0  2  0  0  3  0  0  0  0  0  0
  190.8370  175.8470  147.7080 C   0  0  0  0  0  2  0  0  0  0  0  0
  191.2980  174.0520  144.3360 C   0  0  2  0  0  3  0  0  0  0  0  0
  193.7620  173.8750  145.5300 O   0  0  0  0  0  1  0  0  0  0  0  0
  188.3440  177.5260  145.6240 O   0  0  0  0  0  0  0  0  0  0  0  0
  190.1660  177.0860  147.1070 C   0  0  0  0  0  2  0  0  0  0  0  0
  192.3710  174.9140  143.9810 O   0  0  0  0  0  0  0  0  0  0  0  0
  188.9390  175.0000  140.5170 O   0  0  0  0  0  0  0  0  0  0  0  0
  188.0420  174.1580  141.2110 C   0  0  1  0  0  3  0  0  0  0  0  0
  189.6110  176.9190  145.6830 C   0  0  1  0  0  3  0  0  0  0  0  0
  190.2250  174.1510  143.3350 N   0  0  2  0  0  0  0  0  0  0  0  0
  192.6260  175.8300  146.0940 O   0  0  0  0  0  0  0  0  0  0  0  0
  187.3820  176.7150  143.5760 C   0  0  1  0  0  3  0  0  0  0  0  0
  194.4290  175.9220  144.5650 C   0  0  0  0  0  1  0  0  0  0  0  0
  189.4800  173.7740  140.9630 C   0  0  2  0  0  3  0  0  0  0  0  0
  190.6520  174.1150  141.9200 C   0  0  2  0  0  3  0  0  0  0  0  0
  188.1030  177.8680  144.2830 C   0  0  0  0  0  2  0  0  0  0  0  0
  186.7860  177.4810  141.2750 C   0  0  0  0  0  3  0  0  0  0  0  0
  186.3840  177.2400  142.5940 C   0  0  0  0  0  0  0  0  0  0  0  0
  185.0580  177.5030  142.9750 C   0  0  0  0  0  3  0  0  0  0  0  0
  182.8680  178.2550  142.4120 F   0  0  0  0  0  0  0  0  0  0  0  0
  184.5530  178.2410  140.7250 C   0  0  0  0  0  3  0  0  0  0  0  0
  184.1460  178.0020  142.0410 C   0  0  0  0  0  0  0  0  0  0  0  0
  185.8710  177.9800  140.3420 C   0  0  0  0  0  3  0  0  0  0  0  0
  191.7470  173.0640  141.6790 C   0  0  1  0  0  3  0  0  0  0  0  0
  191.1450  171.6960  141.5850 N   0  0  0  0  0  0  0  0  0  0  0  0
  191.6150  172.5010  140.4250 C   0  0  2  0  0  3  0  0  0  0  0  0
  192.9480  171.9610  139.9510 C   0  0  0  0  0  2  0  0  0  0  0  0
  193.9690  172.2480  140.9410 N   0  0  0  0  0  1  0  0  0  0  0  0
  190.9060  169.3260  141.6760 C   0  0  0  0  0  2  0  0  0  0  0  0
  190.5760  170.5180  142.1480 C   0  0  0  0  0  3  0  0  0  0  0  0
  1 20  1  6  0  0  0
  1 10  1  0  0  0  0
  1 18  1  0  0  0  0
  2  6  1  0  0  0  0
  2 16  1  0  0  0  0
  3  7  1  0  0  0  0
  4  8  1  0  0  0  0
  5  2  1  0  0  0  0
  6  4  1  0  0  0  0
  7 19  1  0  0  0  0
  7  5  1  0  0  0  0
  9  6  1  0  0  0  0
 11 16  1  0  0  0  0
 12  8  1  0  0  0  0
 13  9  1  0  0  0  0
 13  1  1  0  0  0  0
 14 21  1  0  0  0  0
 14 15  1  0  0  0  0
 15  3  1  0  0  0  0
 16 12  1  0  0  0  0
 17  5  1  0  0  0  0
 17  9  1  0  0  0  0
 18  4  1  0  0  0  0
 19 23  1  0  0  0  0
 21 15  1  0  0  0  0
 21 22  1  0  0  0  0
 22 17  1  0  0  0  0
 23 11  1  0  0  0  0
 24 25  1  0  0  0  0
 25 26  2  0  0  0  0
 25 19  1  0  0  0  0
 28 29  2  0  0  0  0
 29 27  1  0  0  0  0
 29 26  1  0  0  0  0
 30 28  1  0  0  0  0
 30 24  2  0  0  0  0
 31 22  1  0  0  0  0
 32 31  1  0  0  0  0
 32 37  1  0  0  0  0
 33 32  1  0  0  0  0
 33 31  1  0  0  0  0
 34 33  1  0  0  0  0
 34 35  1  0  0  0  0
 36 37  2  0  0  0  0
M  END
>  <MODEL>
3

>  <REMARK>
 VINA RESULT:      -7.9      2.064      2.795
  Name = 
  4 active torsions:
  status: ('A' for Active; 'I' for Inactive)
    1  A    between atoms: C_1  and  C_27
    2  A    between atoms: N_4  and  C_37
    3  A    between atoms: C_8  and  C_12
    4  A    between atoms: C_23  and  C_30
                            x       y       z     vdW  Elec       q    Type
                         _______ _______ _______ _____ _____    ______ ____

>  <TORSDO>
F 4

$$$$
=
 OpenBabel11112417293D

 37 44  0  0  1  0  0  0  0  0999 V2000
  191.9310  171.6800  142.1530 C   0  0  1  0  0  0  0  0  0  0  0  0
  189.8450  174.7640  141.5630 C   0  0  1  0  0  3  0  0  0  0  0  0
  190.1870  177.3200  143.6210 O   0  0  0  0  0  0  0  0  0  0  0  0
  190.9900  172.7700  140.3520 C   0  0  2  0  0  3  0  0  0  0  0  0
  190.1220  175.0070  143.0380 C   0  0  2  0  0  3  0  0  0  0  0  0
  191.1400  174.1050  141.0830 C   0  0  2  0  0  3  0  0  0  0  0  0
  189.3680  176.1820  143.6590 C   0  0  2  0  0  3  0  0  0  0  0  0
  189.7940  172.8460  139.4170 C   0  0  0  0  0  2  0  0  0  0  0  0
  192.0290  174.0120  142.3240 C   0  0  2  0  0  3  0  0  0  0  0  0
  193.1750  171.6580  141.5020 O   0  0  0  0  0  1  0  0  0  0  0  0
  187.4410  174.7910  141.4310 O   0  0  0  0  0  0  0  0  0  0  0  0
  188.4780  173.0410  140.1750 C   0  0  0  0  0  2  0  0  0  0  0  0
  191.8240  172.7900  143.0210 O   0  0  0  0  0  0  0  0  0  0  0  0
  190.6090  176.5640  145.8620 O   0  0  0  0  0  0  0  0  0  0  0  0
  190.8330  177.5430  144.8700 C   0  0  1  0  0  3  0  0  0  0  0  0
  188.5550  173.9330  141.4260 C   0  0  1  0  0  3  0  0  0  0  0  0
  191.5750  175.1410  143.1500 N   0  0  2  0  0  0  0  0  0  0  0  0
  190.8590  171.6760  141.2330 O   0  0  0  0  0  0  0  0  0  0  0  0
  187.9740  176.4610  143.0740 C   0  0  1  0  0  3  0  0  0  0  0  0
  191.8250  170.4260  142.9950 C   0  0  0  0  0  1  0  0  0  0  0  0
  191.8740  176.5130  145.2360 C   0  0  2  0  0  3  0  0  0  0  0  0
  191.9950  175.1180  144.5670 C   0  0  2  0  0  3  0  0  0  0  0  0
  187.2080  175.1710  142.7630 C   0  0  0  0  0  2  0  0  0  0  0  0
  186.9530  176.9230  145.3070 C   0  0  0  0  0  3  0  0  0  0  0  0
  187.1810  177.3380  143.9900 C   0  0  0  0  0  0  0  0  0  0  0  0
  186.6540  178.5620  143.5470 C   0  0  0  0  0  3  0  0  0  0  0  0
  185.4000  180.5410  143.9890 F   0  0  0  0  0  0  0  0  0  0  0  0
  185.6840  178.9400  145.7330 C   0  0  0  0  0  3  0  0  0  0  0  0
  185.9070  179.3600  144.4190 C   0  0  0  0  0  0  0  0  0  0  0  0
  186.2070  177.7220  146.1780 C   0  0  0  0  0  3  0  0  0  0  0  0
  193.4570  174.6730  144.7240 C   0  0  1  0  0  3  0  0  0  0  0  0
  194.3710  175.6220  144.0130 N   0  0  0  0  0  0  0  0  0  0  0  0
  194.1650  175.5810  145.4870 C   0  0  2  0  0  3  0  0  0  0  0  0
  195.3530  174.9040  146.1380 C   0  0  0  0  0  2  0  0  0  0  0  0
  195.6400  173.6590  145.4500 N   0  0  0  0  0  1  0  0  0  0  0  0
  196.2860  176.4160  142.8360 C   0  0  0  0  0  2  0  0  0  0  0  0
  194.9880  176.1570  142.8460 C   0  0  0  0  0  3  0  0  0  0  0  0
  1 20  1  1  0  0  0
  1 13  1  0  0  0  0
  2  5  1  0  0  0  0
  3  7  1  0  0  0  0
  3 15  1  0  0  0  0
  4  6  1  0  0  0  0
  4 18  1  0  0  0  0
  5 17  1  0  0  0  0
  5  7  1  0  0  0  0
  6  2  1  0  0  0  0
  6  9  1  0  0  0  0
  8 12  1  0  0  0  0
  8  4  1  0  0  0  0
  9 13  1  0  0  0  0
  9 17  1  0  0  0  0
 10  1  1  0  0  0  0
 11 23  1  0  0  0  0
 12 16  1  0  0  0  0
 15 21  1  0  0  0  0
 15 14  1  0  0  0  0
 16 11  1  0  0  0  0
 16  2  1  0  0  0  0
 17 22  1  0  0  0  0
 18  1  1  0  0  0  0
 19  7  1  0  0  0  0
 19 25  1  0  0  0  0
 21 14  1  0  0  0  0
 22 31  1  0  0  0  0
 22 21  1  0  0  0  0
 23 19  1  0  0  0  0
 24 30  1  0  0  0  0
 25 24  2  0  0  0  0
 26 25  1  0  0  0  0
 26 29  2  0  0  0  0
 27 29  1  0  0  0  0
 28 30  2  0  0  0  0
 29 28  1  0  0  0  0
 31 33  1  0  0  0  0
 32 31  1  0  0  0  0
 32 33  1  0  0  0  0
 33 34  1  0  0  0  0
 35 34  1  0  0  0  0
 36 37  2  0  0  0  0
 37 32  1  0  0  0  0
M  END
>  <MODEL>
4

>  <REMARK>
 VINA RESULT:      -7.7      2.081      5.218
  Name = 
  4 active torsions:
  status: ('A' for Active; 'I' for Inactive)
    1  A    between atoms: C_1  and  C_27
    2  A    between atoms: N_4  and  C_37
    3  A    between atoms: C_8  and  C_12
    4  A    between atoms: C_23  and  C_30
                            x       y       z     vdW  Elec       q    Type
                         _______ _______ _______ _____ _____    ______ ____

>  <TORSDO>
F 4

$$$$
=
 OpenBabel11112417293D

 37 44  0  0  1  0  0  0  0  0999 V2000
  193.9960  174.4740  142.9470 C   0  0  1  0  0  0  0  0  0  0  0  0
  190.8670  175.1340  144.9430 C   0  0  1  0  0  3  0  0  0  0  0  0
  187.9450  174.8730  143.4330 O   0  0  0  0  0  0  0  0  0  0  0  0
  193.3080  174.2630  145.1390 C   0  0  2  0  0  3  0  0  0  0  0  0
  190.2700  175.3950  143.5700 C   0  0  2  0  0  3  0  0  0  0  0  0
  191.8750  174.0170  144.6630 C   0  0  2  0  0  3  0  0  0  0  0  0
  188.8430  175.9420  143.5720 C   0  0  2  0  0  3  0  0  0  0  0  0
  193.2720  174.9150  146.5110 C   0  0  0  0  0  2  0  0  0  0  0  0
  191.7790  173.7550  143.1590 C   0  0  2  0  0  3  0  0  0  0  0  0
  194.4460  173.1440  142.9510 O   0  0  0  0  0  1  0  0  0  0  0  0
  190.4120  177.1660  146.1510 O   0  0  0  0  0  0  0  0  0  0  0  0
  192.6160  176.2990  146.4760 C   0  0  0  0  0  2  0  0  0  0  0  0
  192.6850  174.5720  142.4300 O   0  0  0  0  0  0  0  0  0  0  0  0
  188.0930  175.6070  141.1500 O   0  0  0  0  0  0  0  0  0  0  0  0
  187.5040  174.7310  142.0880 C   0  0  1  0  0  3  0  0  0  0  0  0
  191.4350  176.4520  145.5030 C   0  0  1  0  0  3  0  0  0  0  0  0
  190.3950  174.1340  142.8390 N   0  0  2  0  0  0  0  0  0  0  0  0
  194.0560  175.0480  144.2370 O   0  0  0  0  0  0  0  0  0  0  0  0
  188.4780  176.8430  144.7630 C   0  0  1  0  0  3  0  0  0  0  0  0
  194.9110  175.2700  142.0410 C   0  0  0  0  0  1  0  0  0  0  0  0
  188.5670  174.2770  141.1180 C   0  0  2  0  0  3  0  0  0  0  0  0
  190.0910  174.3290  141.4050 C   0  0  2  0  0  3  0  0  0  0  0  0
  189.6290  177.7750  145.1580 C   0  0  0  0  0  2  0  0  0  0  0  0
  187.1200  178.2900  143.2460 C   0  0  0  0  0  3  0  0  0  0  0  0
  187.2380  177.6280  144.4730 C   0  0  0  0  0  0  0  0  0  0  0  0
  186.2000  177.7200  145.4140 C   0  0  0  0  0  3  0  0  0  0  0  0
  184.0550  178.5540  146.0350 F   0  0  0  0  0  0  0  0  0  0  0  0
  184.9420  179.1250  143.8970 C   0  0  0  0  0  3  0  0  0  0  0  0
  185.0550  178.4680  145.1250 C   0  0  0  0  0  0  0  0  0  0  0  0
  185.9730  179.0370  142.9570 C   0  0  0  0  0  3  0  0  0  0  0  0
  190.7480  173.2520  140.5290 C   0  0  1  0  0  3  0  0  0  0  0  0
  190.4680  173.5140  139.0810 N   0  0  0  0  0  0  0  0  0  0  0  0
  191.7610  173.7960  139.7640 C   0  0  2  0  0  3  0  0  0  0  0  0
  192.7660  172.7270  139.3890 C   0  0  0  0  0  2  0  0  0  0  0  0
  192.1910  171.4150  139.6230 N   0  0  0  0  0  1  0  0  0  0  0  0
  190.0200  174.1090  136.8170 C   0  0  0  0  0  2  0  0  0  0  0  0
  189.6350  173.4980  137.9270 C   0  0  0  0  0  3  0  0  0  0  0  0
  1 20  1  6  0  0  0
  1 10  1  0  0  0  0
  1 18  1  0  0  0  0
  2 16  1  0  0  0  0
  3  7  1  0  0  0  0
  4  8  1  0  0  0  0
  5  7  1  0  0  0  0
  5  2  1  0  0  0  0
  6  2  1  0  0  0  0
  6  4  1  0  0  0  0
  7 19  1  0  0  0  0
  9  6  1  0  0  0  0
 12  8  1  0  0  0  0
 13  1  1  0  0  0  0
 13  9  1  0  0  0  0
 14 15  1  0  0  0  0
 15  3  1  0  0  0  0
 16 11  1  0  0  0  0
 16 12  1  0  0  0  0
 17  9  1  0  0  0  0
 17  5  1  0  0  0  0
 18  4  1  0  0  0  0
 19 23  1  0  0  0  0
 21 14  1  0  0  0  0
 21 22  1  0  0  0  0
 21 15  1  0  0  0  0
 22 17  1  0  0  0  0
 23 11  1  0  0  0  0
 24 25  1  0  0  0  0
 25 19  1  0  0  0  0
 25 26  2  0  0  0  0
 28 29  2  0  0  0  0
 29 26  1  0  0  0  0
 29 27  1  0  0  0  0
 30 24  2  0  0  0  0
 30 28  1  0  0  0  0
 31 22  1  0  0  0  0
 32 33  1  0  0  0  0
 32 31  1  0  0  0  0
 33 31  1  0  0  0  0
 34 35  1  0  0  0  0
 34 33  1  0  0  0  0
 36 37  2  0  0  0  0
 37 32  1  0  0  0  0
M  END
>  <MODEL>
5

>  <REMARK>
 VINA RESULT:      -7.7      1.255      1.799
  Name = 
  4 active torsions:
  status: ('A' for Active; 'I' for Inactive)
    1  A    between atoms: C_1  and  C_27
    2  A    between atoms: N_4  and  C_37
    3  A    between atoms: C_8  and  C_12
    4  A    between atoms: C_23  and  C_30
                            x       y       z     vdW  Elec       q    Type
                         _______ _______ _______ _____ _____    ______ ____

>  <TORSDO>
F 4

$$$$
=
 OpenBabel11112417293D

 37 44  0  0  1  0  0  0  0  0999 V2000
  193.4940  175.2530  145.2190 C   0  0  1  0  0  0  0  0  0  0  0  0
  189.7470  175.5170  145.5360 C   0  0  1  0  0  3  0  0  0  0  0  0
  187.8780  174.6300  142.9660 O   0  0  0  0  0  0  0  0  0  0  0  0
  191.9200  175.1030  146.8990 C   0  0  2  0  0  3  0  0  0  0  0  0
  189.8090  175.5590  144.0180 C   0  0  2  0  0  3  0  0  0  0  0  0
  190.8980  174.5740  145.8920 C   0  0  2  0  0  3  0  0  0  0  0  0
  188.4810  175.8470  143.3180 C   0  0  2  0  0  3  0  0  0  0  0  0
  191.1900  175.8480  148.0040 C   0  0  0  0  0  2  0  0  0  0  0  0
  191.5250  174.1790  144.5530 C   0  0  2  0  0  3  0  0  0  0  0  0
  194.0490  174.0270  145.6180 O   0  0  0  0  0  1  0  0  0  0  0  0
  188.5550  177.5300  146.1060 O   0  0  0  0  0  0  0  0  0  0  0  0
  190.4600  177.0890  147.4810 C   0  0  0  0  0  2  0  0  0  0  0  0
  192.5570  175.0800  144.1760 O   0  0  0  0  0  0  0  0  0  0  0  0
  188.9530  175.1920  140.8910 O   0  0  0  0  0  0  0  0  0  0  0  0
  188.1130  174.3050  141.6000 C   0  0  1  0  0  3  0  0  0  0  0  0
  189.8380  176.9550  146.0810 C   0  0  1  0  0  3  0  0  0  0  0  0
  190.4000  174.2840  143.6110 N   0  0  2  0  0  0  0  0  0  0  0  0
  192.8950  175.9320  146.3050 O   0  0  0  0  0  0  0  0  0  0  0  0
  187.5120  176.7630  144.0820 C   0  0  1  0  0  3  0  0  0  0  0  0
  194.6160  176.1220  144.6920 C   0  0  0  0  0  1  0  0  0  0  0  0
  189.5450  173.9670  141.2670 C   0  0  2  0  0  3  0  0  0  0  0  0
  190.7560  174.3060  142.1760 C   0  0  2  0  0  3  0  0  0  0  0  0
  188.2390  177.9110  144.7920 C   0  0  0  0  0  2  0  0  0  0  0  0
  185.1760  177.5510  143.6800 C   0  0  0  0  0  3  0  0  0  0  0  0
  186.4520  177.2940  143.1690 C   0  0  0  0  0  0  0  0  0  0  0  0
  186.7160  177.5280  141.8090 C   0  0  0  0  0  3  0  0  0  0  0  0
  185.9640  178.2390  139.6620 F   0  0  0  0  0  0  0  0  0  0  0  0
  184.4340  178.2700  141.4900 C   0  0  0  0  0  3  0  0  0  0  0  0
  185.7070  178.0150  140.9730 C   0  0  0  0  0  0  0  0  0  0  0  0
  184.1670  178.0390  142.8430 C   0  0  0  0  0  3  0  0  0  0  0  0
  191.8620  173.2930  141.8450 C   0  0  1  0  0  3  0  0  0  0  0  0
  192.1090  173.2540  140.3680 N   0  0  0  0  0  0  0  0  0  0  0  0
  192.9840  173.9360  141.3610 C   0  0  2  0  0  3  0  0  0  0  0  0
  194.2180  173.0910  141.6020 C   0  0  0  0  0  2  0  0  0  0  0  0
  193.8220  171.7810  142.0850 N   0  0  0  0  0  1  0  0  0  0  0  0
  191.6160  173.7780  138.0960 C   0  0  0  0  0  2  0  0  0  0  0  0
  191.7870  172.8630  139.0370 C   0  0  0  0  0  3  0  0  0  0  0  0
  1 20  1  6  0  0  0
  1 10  1  0  0  0  0
  1 18  1  0  0  0  0
  2  6  1  0  0  0  0
  2 16  1  0  0  0  0
  3  7  1  0  0  0  0
  4  8  1  0  0  0  0
  5  2  1  0  0  0  0
  6  4  1  0  0  0  0
  7  5  1  0  0  0  0
  7 19  1  0  0  0  0
  9  6  1  0  0  0  0
 12  8  1  0  0  0  0
 13  9  1  0  0  0  0
 13  1  1  0  0  0  0
 14 21  1  0  0  0  0
 14 15  1  0  0  0  0
 15  3  1  0  0  0  0
 16 11  1  0  0  0  0
 16 12  1  0  0  0  0
 17  5  1  0  0  0  0
 17  9  1  0  0  0  0
 18  4  1  0  0  0  0
 19 23  1  0  0  0  0
 21 15  1  0  0  0  0
 21 22  1  0  0  0  0
 22 17  1  0  0  0  0
 23 11  1  0  0  0  0
 25 24  1  0  0  0  0
 25 19  1  0  0  0  0
 26 25  2  0  0  0  0
 27 29  1  0  0  0  0
 28 30  1  0  0  0  0
 29 28  2  0  0  0  0
 29 26  1  0  0  0  0
 30 24  2  0  0  0  0
 31 22  1  0  0  0  0
 32 33  1  0  0  0  0
 32 31  1  0  0  0  0
 33 34  1  0  0  0  0
 33 31  1  0  0  0  0
 34 35  1  0  0  0  0
 36 37  2  0  0  0  0
 37 32  1  0  0  0  0
M  END
>  <MODEL>
6

>  <REMARK>
 VINA RESULT:      -7.5      2.143      3.129
  Name = 
  4 active torsions:
  status: ('A' for Active; 'I' for Inactive)
    1  A    between atoms: C_1  and  C_27
    2  A    between atoms: N_4  and  C_37
    3  A    between atoms: C_8  and  C_12
    4  A    between atoms: C_23  and  C_30
                            x       y       z     vdW  Elec       q    Type
                         _______ _______ _______ _____ _____    ______ ____

>  <TORSDO>
F 4

$$$$
=
 OpenBabel11112417293D

 37 44  0  0  1  0  0  0  0  0999 V2000
  187.0780  177.2160  147.0340 C   0  0  1  0  0  0  0  0  0  0  0  0
  189.6950  176.2480  144.4990 C   0  0  1  0  0  3  0  0  0  0  0  0
  188.9600  176.5060  141.2930 O   0  0  0  0  0  0  0  0  0  0  0  0
  189.3810  177.2080  146.8930 C   0  0  2  0  0  3  0  0  0  0  0  0
  188.4860  176.0790  143.5930 C   0  0  2  0  0  3  0  0  0  0  0  0
  189.2880  177.4290  145.3820 C   0  0  2  0  0  3  0  0  0  0  0  0
  188.7790  175.4710  142.2210 C   0  0  2  0  0  3  0  0  0  0  0  0
  190.6540  176.4390  147.2060 C   0  0  0  0  0  2  0  0  0  0  0  0
  187.8820  177.8140  144.9190 C   0  0  2  0  0  3  0  0  0  0  0  0
  187.0990  178.5600  147.4410 O   0  0  0  0  0  1  0  0  0  0  0  0
  190.7800  174.1020  144.3970 O   0  0  0  0  0  0  0  0  0  0  0  0
  190.6480  175.0360  146.5930 C   0  0  0  0  0  2  0  0  0  0  0  0
  186.8830  177.1030  145.6400 O   0  0  0  0  0  0  0  0  0  0  0  0
  186.6490  175.9770  140.8990 O   0  0  0  0  0  0  0  0  0  0  0  0
  187.7790  176.7430  140.5340 C   0  0  1  0  0  3  0  0  0  0  0  0
  189.9760  174.9140  145.2150 C   0  0  1  0  0  3  0  0  0  0  0  0
  187.8680  177.4020  143.5070 N   0  0  2  0  0  0  0  0  0  0  0  0
  188.2560  176.5370  147.4180 O   0  0  0  0  0  0  0  0  0  0  0  0
  189.9320  174.4560  142.1770 C   0  0  1  0  0  3  0  0  0  0  0  0
  185.9090  176.5420  147.7190 C   0  0  0  0  0  1  0  0  0  0  0  0
  186.6290  177.3250  141.3200 C   0  0  2  0  0  3  0  0  0  0  0  0
  186.5370  177.3170  142.8690 C   0  0  2  0  0  3  0  0  0  0  0  0
  189.9510  173.5450  143.4100 C   0  0  0  0  0  2  0  0  0  0  0  0
  188.6440  173.1390  140.4900 C   0  0  0  0  0  3  0  0  0  0  0  0
  189.8760  173.6430  140.9220 C   0  0  0  0  0  0  0  0  0  0  0  0
  191.0370  173.3720  140.1790 C   0  0  0  0  0  3  0  0  0  0  0  0
  192.0810  172.3410  138.3010 F   0  0  0  0  0  0  0  0  0  0  0  0
  189.7270  172.1010  138.5880 C   0  0  0  0  0  3  0  0  0  0  0  0
  190.9600  172.6020  139.0150 C   0  0  0  0  0  0  0  0  0  0  0  0
  188.5690  172.3690  139.3240 C   0  0  0  0  0  3  0  0  0  0  0  0
  185.6340  178.4940  143.2690 C   0  0  1  0  0  3  0  0  0  0  0  0
  184.3040  178.3860  142.5890 N   0  0  0  0  0  0  0  0  0  0  0  0
  184.5600  178.0530  144.0170 C   0  0  2  0  0  3  0  0  0  0  0  0
  184.0360  179.1720  144.8920 C   0  0  0  0  0  2  0  0  0  0  0  0
  183.7800  178.6650  146.2280 N   0  0  0  0  0  1  0  0  0  0  0  0
  182.1470  178.2560  141.5840 C   0  0  0  0  0  2  0  0  0  0  0  0
  183.4400  178.5140  141.4650 C   0  0  0  0  0  3  0  0  0  0  0  0
  1 18  1  0  0  0  0
  1 10  1  0  0  0  0
  1 20  1  1  0  0  0
  2 16  1  0  0  0  0
  2  6  1  0  0  0  0
  3  7  1  0  0  0  0
  4  8  1  0  0  0  0
  4 18  1  0  0  0  0
  5  2  1  0  0  0  0
  6  4  1  0  0  0  0
  7  5  1  0  0  0  0
  9  6  1  0  0  0  0
  9 13  1  0  0  0  0
 11 16  1  0  0  0  0
 12  8  1  0  0  0  0
 13  1  1  0  0  0  0
 14 21  1  0  0  0  0
 15 14  1  0  0  0  0
 15  3  1  0  0  0  0
 15 21  1  0  0  0  0
 16 12  1  0  0  0  0
 17  5  1  0  0  0  0
 17  9  1  0  0  0  0
 19  7  1  0  0  0  0
 19 23  1  0  0  0  0
 21 22  1  0  0  0  0
 22 31  1  0  0  0  0
 22 17  1  0  0  0  0
 23 11  1  0  0  0  0
 24 25  1  0  0  0  0
 25 19  1  0  0  0  0
 26 25  2  0  0  0  0
 27 29  1  0  0  0  0
 28 29  2  0  0  0  0
 28 30  1  0  0  0  0
 29 26  1  0  0  0  0
 30 24  2  0  0  0  0
 31 33  1  0  0  0  0
 32 31  1  0  0  0  0
 32 33  1  0  0  0  0
 33 34  1  0  0  0  0
 34 35  1  0  0  0  0
 37 36  2  0  0  0  0
 37 32  1  0  0  0  0
M  END
>  <MODEL>
7

>  <REMARK>
 VINA RESULT:      -7.1      3.721      7.426
  Name = 
  4 active torsions:
  status: ('A' for Active; 'I' for Inactive)
    1  A    between atoms: C_1  and  C_27
    2  A    between atoms: N_4  and  C_37
    3  A    between atoms: C_8  and  C_12
    4  A    between atoms: C_23  and  C_30
                            x       y       z     vdW  Elec       q    Type
                         _______ _______ _______ _____ _____    ______ ____

>  <TORSDO>
F 4

$$$$
=
 OpenBabel11112417293D

 37 44  0  0  1  0  0  0  0  0999 V2000
  192.7870  172.1030  143.1240 C   0  0  1  0  0  0  0  0  0  0  0  0
  190.4300  174.3260  141.1980 C   0  0  1  0  0  3  0  0  0  0  0  0
  189.7250  177.3110  142.4140 O   0  0  0  0  0  0  0  0  0  0  0  0
  192.2030  172.4470  140.9200 C   0  0  2  0  0  3  0  0  0  0  0  0
  190.2400  174.9850  142.5540 C   0  0  2  0  0  3  0  0  0  0  0  0
  191.9030  173.9150  141.2300 C   0  0  2  0  0  3  0  0  0  0  0  0
  189.1450  176.0500  142.6160 C   0  0  2  0  0  3  0  0  0  0  0  0
  191.3210  171.9910  139.7700 C   0  0  0  0  0  2  0  0  0  0  0  0
  192.4150  174.3530  142.6030 C   0  0  2  0  0  3  0  0  0  0  0  0
  194.1460  172.2320  142.7940 O   0  0  0  0  0  1  0  0  0  0  0  0
  188.1930  173.7190  140.5480 O   0  0  0  0  0  0  0  0  0  0  0  0
  189.8330  172.0310  140.1320 C   0  0  0  0  0  2  0  0  0  0  0  0
  192.2470  173.3290  143.5730 O   0  0  0  0  0  0  0  0  0  0  0  0
  189.6370  177.2580  144.8150 O   0  0  0  0  0  0  0  0  0  0  0  0
  189.9490  177.9880  143.6470 C   0  0  1  0  0  3  0  0  0  0  0  0
  189.3990  173.1930  141.0410 C   0  0  1  0  0  3  0  0  0  0  0  0
  191.5560  175.5010  142.9320 N   0  0  2  0  0  0  0  0  0  0  0  0
  192.0310  171.6060  142.0390 O   0  0  0  0  0  0  0  0  0  0  0  0
  187.9420  175.8200  141.6870 C   0  0  1  0  0  3  0  0  0  0  0  0
  192.6780  171.1080  144.2600 C   0  0  0  0  0  1  0  0  0  0  0  0
  191.0140  177.3720  144.5210 C   0  0  2  0  0  3  0  0  0  0  0  0
  191.5630  175.9320  144.3460 C   0  0  2  0  0  3  0  0  0  0  0  0
  187.5360  174.3430  141.6200 C   0  0  0  0  0  2  0  0  0  0  0  0
  186.1520  177.4780  141.1510 C   0  0  0  0  0  3  0  0  0  0  0  0
  186.7820  176.6680  142.1020 C   0  0  0  0  0  0  0  0  0  0  0  0
  186.3240  176.6730  143.4300 C   0  0  0  0  0  3  0  0  0  0  0  0
  184.8050  177.4850  145.0780 F   0  0  0  0  0  0  0  0  0  0  0  0
  184.6190  178.2880  142.8410 C   0  0  0  0  0  3  0  0  0  0  0  0
  185.2440  177.4820  143.7970 C   0  0  0  0  0  0  0  0  0  0  0  0
  185.0710  178.2860  141.5190 C   0  0  0  0  0  3  0  0  0  0  0  0
  192.9790  175.9180  144.9420 C   0  0  1  0  0  3  0  0  0  0  0  0
  192.9190  176.0450  146.4330 N   0  0  0  0  0  0  0  0  0  0  0  0
  193.1800  174.7780  145.6950 C   0  0  2  0  0  3  0  0  0  0  0  0
  194.6570  174.4530  145.7700 C   0  0  0  0  0  2  0  0  0  0  0  0
  195.3560  175.1190  144.6860 N   0  0  0  0  0  1  0  0  0  0  0  0
  191.5650  176.8970  148.2000 C   0  0  0  0  0  2  0  0  0  0  0  0
  192.7590  176.7860  147.6380 C   0  0  0  0  0  3  0  0  0  0  0  0
  1 13  1  0  0  0  0
  1 20  1  1  0  0  0
  2  6  1  0  0  0  0
  2  5  1  0  0  0  0
  3  7  1  0  0  0  0
  3 15  1  0  0  0  0
  4  6  1  0  0  0  0
  4 18  1  0  0  0  0
  5  7  1  0  0  0  0
  5 17  1  0  0  0  0
  6  9  1  0  0  0  0
  8 12  1  0  0  0  0
  8  4  1  0  0  0  0
  9 17  1  0  0  0  0
  9 13  1  0  0  0  0
 10  1  1  0  0  0  0
 11 16  1  0  0  0  0
 11 23  1  0  0  0  0
 12 16  1  0  0  0  0
 15 21  1  0  0  0  0
 15 14  1  0  0  0  0
 16  2  1  0  0  0  0
 17 22  1  0  0  0  0
 18  1  1  0  0  0  0
 19 25  1  0  0  0  0
 19  7  1  0  0  0  0
 21 14  1  0  0  0  0
 22 21  1  0  0  0  0
 22 31  1  0  0  0  0
 23 19  1  0  0  0  0
 24 30  2  0  0  0  0
 24 25  1  0  0  0  0
 25 26  2  0  0  0  0
 26 29  1  0  0  0  0
 28 29  2  0  0  0  0
 29 27  1  0  0  0  0
 30 28  1  0  0  0  0
 31 33  1  0  0  0  0
 31 32  1  0  0  0  0
 32 37  1  0  0  0  0
 33 34  1  0  0  0  0
 33 32  1  0  0  0  0
 35 34  1  0  0  0  0
 37 36  2  0  0  0  0
M  END
>  <MODEL>
8

>  <REMARK>
 VINA RESULT:      -7.0      2.219      5.174
  Name = 
  4 active torsions:
  status: ('A' for Active; 'I' for Inactive)
    1  A    between atoms: C_1  and  C_27
    2  A    between atoms: N_4  and  C_37
    3  A    between atoms: C_8  and  C_12
    4  A    between atoms: C_23  and  C_30
                            x       y       z     vdW  Elec       q    Type
                         _______ _______ _______ _____ _____    ______ ____

>  <TORSDO>
F 4

$$$$
=
 OpenBabel11112417293D

 37 44  0  0  1  0  0  0  0  0999 V2000
  191.2150  176.1840  147.0740 C   0  0  1  0  0  0  0  0  0  0  0  0
  191.8910  175.8230  143.3830 C   0  0  1  0  0  3  0  0  0  0  0  0
  189.3240  175.6090  141.3200 O   0  0  0  0  0  0  0  0  0  0  0  0
  192.8470  176.8320  145.5780 C   0  0  2  0  0  3  0  0  0  0  0  0
  190.4870  175.2410  143.3720 C   0  0  2  0  0  3  0  0  0  0  0  0
  191.7990  176.8990  144.4660 C   0  0  2  0  0  3  0  0  0  0  0  0
  190.0390  174.6400  142.0410 C   0  0  2  0  0  3  0  0  0  0  0  0
  194.1980  176.4930  144.9690 C   0  0  0  0  0  2  0  0  0  0  0  0
  190.3640  176.8230  144.9900 C   0  0  2  0  0  3  0  0  0  0  0  0
  191.1080  177.5030  147.5430 O   0  0  0  0  0  1  0  0  0  0  0  0
  193.2290  174.0830  142.3950 O   0  0  0  0  0  0  0  0  0  0  0  0
  194.2070  175.1050  144.3220 C   0  0  0  0  0  2  0  0  0  0  0  0
  190.2540  175.9120  146.0750 O   0  0  0  0  0  0  0  0  0  0  0  0
  187.5100  174.4040  142.3350 O   0  0  0  0  0  0  0  0  0  0  0  0
  187.9180  175.4340  141.4590 C   0  0  1  0  0  3  0  0  0  0  0  0
  192.9030  174.6870  143.6210 C   0  0  1  0  0  3  0  0  0  0  0  0
  189.6090  176.3180  143.8330 N   0  0  2  0  0  0  0  0  0  0  0  0
  192.5130  175.9060  146.5890 O   0  0  0  0  0  0  0  0  0  0  0  0
  191.1510  174.0030  141.1910 C   0  0  1  0  0  3  0  0  0  0  0  0
  190.9470  175.2540  148.2380 C   0  0  0  0  0  1  0  0  0  0  0  0
  187.3790  175.7160  142.8400 C   0  0  2  0  0  3  0  0  0  0  0  0
  188.2540  175.8010  144.1180 C   0  0  2  0  0  3  0  0  0  0  0  0
  192.1640  173.2350  142.0470 C   0  0  0  0  0  2  0  0  0  0  0  0
  190.6460  171.7270  140.2950 C   0  0  0  0  0  3  0  0  0  0  0  0
  190.5700  173.1150  140.1370 C   0  0  0  0  0  0  0  0  0  0  0  0
  189.9620  173.6510  138.9900 C   0  0  0  0  0  3  0  0  0  0  0  0
  188.8490  173.3210  136.9080 F   0  0  0  0  0  0  0  0  0  0  0  0
  189.5130  171.4150  138.1770 C   0  0  0  0  0  3  0  0  0  0  0  0
  189.4350  172.8010  138.0130 C   0  0  0  0  0  0  0  0  0  0  0  0
  190.1170  170.8780  139.3170 C   0  0  0  0  0  3  0  0  0  0  0  0
  187.5000  176.6930  145.1170 C   0  0  1  0  0  3  0  0  0  0  0  0
  186.6700  177.7060  144.3900 N   0  0  0  0  0  0  0  0  0  0  0  0
  186.1390  176.4750  145.0360 C   0  0  2  0  0  3  0  0  0  0  0  0
  185.4700  176.8460  146.3430 C   0  0  0  0  0  2  0  0  0  0  0  0
  186.3710  177.6630  147.1350 N   0  0  0  0  0  1  0  0  0  0  0  0
  185.5110  179.7450  143.9660 C   0  0  0  0  0  2  0  0  0  0  0  0
  186.4960  178.9160  143.6590 C   0  0  0  0  0  3  0  0  0  0  0  0
  1 10  1  0  0  0  0
  1 20  1  1  0  0  0
  2 16  1  0  0  0  0
  2  6  1  0  0  0  0
  3 15  1  0  0  0  0
  3  7  1  0  0  0  0
  4 18  1  0  0  0  0
  5  2  1  0  0  0  0
  5 17  1  0  0  0  0
  6  9  1  0  0  0  0
  6  4  1  0  0  0  0
  7  5  1  0  0  0  0
  8  4  1  0  0  0  0
  9 13  1  0  0  0  0
 11 16  1  0  0  0  0
 12  8  1  0  0  0  0
 13  1  1  0  0  0  0
 14 21  1  0  0  0  0
 15 14  1  0  0  0  0
 15 21  1  0  0  0  0
 16 12  1  0  0  0  0
 17 22  1  0  0  0  0
 17  9  1  0  0  0  0
 18  1  1  0  0  0  0
 19  7  1  0  0  0  0
 19 23  1  0  0  0  0
 21 22  1  0  0  0  0
 22 31  1  0  0  0  0
 23 11  1  0  0  0  0
 25 24  1  0  0  0  0
 25 19  1  0  0  0  0
 26 25  2  0  0  0  0
 27 29  1  0  0  0  0
 28 30  1  0  0  0  0
 29 28  2  0  0  0  0
 29 26  1  0  0  0  0
 30 24  2  0  0  0  0
 32 33  1  0  0  0  0
 32 31  1  0  0  0  0
 33 31  1  0  0  0  0
 33 34  1  0  0  0  0
 34 35  1  0  0  0  0
 37 36  2  0  0  0  0
 37 32  1  0  0  0  0
M  END
>  <MODEL>
9

>  <REMARK>
 VINA RESULT:      -7.0      2.788      6.608
  Name = 
  4 active torsions:
  status: ('A' for Active; 'I' for Inactive)
    1  A    between atoms: C_1  and  C_27
    2  A    between atoms: N_4  and  C_37
    3  A    between atoms: C_8  and  C_12
    4  A    between atoms: C_23  and  C_30
                            x       y       z     vdW  Elec       q    Type
                         _______ _______ _______ _____ _____    ______ ____

>  <TORSDO>
F 4

$$$$
