=
 OpenBabel11112417143D

 37 43  0  0  1  0  0  0  0  0999 V2000
  192.1850  175.2280  145.6720 C   0  0  0  0  0  3  0  0  0  0  0  0
  191.4040  171.8490  142.3330 C   0  0  1  0  0  0  0  0  0  0  0  0
  188.9450  175.2940  142.7460 N   0  0  0  0  0  0  0  0  0  0  0  0
  193.1550  175.5970  146.7570 C   0  0  2  0  0  3  0  0  0  0  0  0
  188.7620  177.2340  146.0360 C   0  0  0  0  0  2  0  0  0  0  0  0
  189.6820  173.4820  141.3490 C   0  0  0  0  0  0  0  0  0  0  0  0
  188.9180  175.5080  144.1910 C   0  0  2  0  0  3  0  0  0  0  0  0
  191.6330  176.6870  148.4390 C   0  0  2  0  0  3  0  0  0  0  0  0
  189.8470  174.2510  142.4320 C   0  0  2  0  0  3  0  0  0  0  0  0
  189.1340  176.9910  144.5770 C   0  0  1  0  0  3  0  0  0  0  0  0
  188.5750  173.7850  140.4280 C   0  0  0  0  0  3  0  0  0  0  0  0
  192.7690  176.9060  147.4340 C   0  0  0  0  0  2  0  0  0  0  0  0
  190.7320  173.9130  143.5610 C   0  0  2  0  0  3  0  0  0  0  0  0
  192.6600  172.3830  142.0370 O   0  0  0  0  0  1  0  0  0  0  0  0
  188.1960  177.1480  141.2820 C   0  0  0  0  0  2  0  0  0  0  0  0
  187.7460  174.8130  140.6440 C   0  0  0  0  0  3  0  0  0  0  0  0
  190.9080  172.4020  143.6740 C   0  0  0  0  0  2  0  0  0  0  0  0
  190.3240  176.4680  147.8040 N   0  0  1  0  0  0  0  0  0  0  0  0
  190.0250  177.5260  146.8240 C   0  0  0  0  0  2  0  0  0  0  0  0
  187.9000  175.7480  141.8190 C   0  0  0  0  0  0  0  0  0  0  0  0
  189.9800  174.5090  144.7570 C   0  0  1  0  0  3  0  0  0  0  0  0
  190.4270  172.1780  141.1890 C   0  0  0  0  0  2  0  0  0  0  0  0
  188.4200  178.0310  143.6930 C   0  0  1  0  0  3  0  0  0  0  0  0
  191.5300  170.3440  142.4440 C   0  0  0  0  0  1  0  0  0  0  0  0
  190.2730  175.0990  147.2570 C   0  0  0  0  0  2  0  0  0  0  0  0
  191.5660  177.8480  149.4150 C   0  0  0  0  0  1  0  0  0  0  0  0
  190.8800  174.9750  145.8830 C   0  0  0  0  0  0  0  0  0  0  0  0
  188.9330  178.0730  142.2540 C   0  0  0  0  0  2  0  0  0  0  0  0
  186.1900  178.7510  142.8050 C   0  0  0  0  0  3  0  0  0  0  0  0
  186.9270  178.1810  143.8500 C   0  0  0  0  0  0  0  0  0  0  0  0
  186.2590  177.7450  145.0050 C   0  0  0  0  0  3  0  0  0  0  0  0
  184.2360  177.4650  146.2320 F   0  0  0  0  0  0  0  0  0  0  0  0
  184.1450  178.4590  144.0680 C   0  0  0  0  0  3  0  0  0  0  0  0
  184.8740  177.8860  145.1140 C   0  0  0  0  0  0  0  0  0  0  0  0
  184.8030  178.8910  142.9130 C   0  0  0  0  0  3  0  0  0  0  0  0
  194.7500  177.0260  145.7030 O   0  0  0  0  0  1  0  0  0  0  0  0
  194.5410  175.7220  146.1510 C   0  0  0  0  0  2  0  0  0  0  0  0
  1 27  2  0  0  0  0
  1  4  1  0  0  0  0
  2 24  1  1  0  0  0
  2 17  1  0  0  0  0
  4 37  1  6  0  0  0
  4 12  1  0  0  0  0
  5 19  1  0  0  0  0
  7  3  1  6  0  0  0
  7 10  1  0  0  0  0
  7 21  1  0  0  0  0
  8 26  1  1  0  0  0
  9  6  1  1  0  0  0
  9  3  1  0  0  0  0
  9 13  1  0  0  0  0
 10  5  1  1  0  0  0
 11 16  1  0  0  0  0
 11  6  2  0  0  0  0
 12  8  1  0  0  0  0
 13 17  1  1  0  0  0
 13 21  1  0  0  0  0
 14  2  1  0  0  0  0
 15 20  1  0  0  0  0
 15 28  1  0  0  0  0
 16 20  2  0  0  0  0
 18 19  1  6  0  0  0
 18  8  1  0  0  0  0
 20  3  1  0  0  0  0
 21 27  1  1  0  0  0
 22  6  1  0  0  0  0
 22  2  1  0  0  0  0
 23 30  1  6  0  0  0
 23 10  1  0  0  0  0
 25 18  1  0  0  0  0
 27 25  1  0  0  0  0
 28 23  1  0  0  0  0
 29 35  2  0  0  0  0
 29 30  1  0  0  0  0
 30 31  2  0  0  0  0
 31 34  1  0  0  0  0
 33 34  2  0  0  0  0
 34 32  1  0  0  0  0
 35 33  1  0  0  0  0
 36 37  1  0  0  0  0
M  END
>  <MODEL>
1

>  <REMARK>
 VINA RESULT:      -9.7      0.000      0.000
  Name = 
  2 active torsions:
  status: ('A' for Active; 'I' for Inactive)
    1  A    between atoms: C_4  and  C_37
    2  A    between atoms: C_23  and  C_30
                            x       y       z     vdW  Elec       q    Type
                         _______ _______ _______ _____ _____    ______ ____

>  <TORSDO>
F 2

$$$$
=
 OpenBabel11112417143D

 37 43  0  0  1  0  0  0  0  0999 V2000
  188.9230  174.8150  142.2360 C   0  0  0  0  0  3  0  0  0  0  0  0
  187.8860  176.9700  146.4150 C   0  0  1  0  0  0  0  0  0  0  0  0
  191.7500  175.4460  145.5020 N   0  0  0  0  0  0  0  0  0  0  0  0
  188.3020  174.4740  140.9120 C   0  0  2  0  0  3  0  0  0  0  0  0
  192.2510  172.7190  142.8690 C   0  0  0  0  0  2  0  0  0  0  0  0
  190.4170  176.9180  146.8560 C   0  0  0  0  0  0  0  0  0  0  0  0
  191.4560  174.2430  144.7260 C   0  0  2  0  0  3  0  0  0  0  0  0
  189.4350  172.2910  140.3780 C   0  0  2  0  0  3  0  0  0  0  0  0
  190.5540  176.1520  145.7670 C   0  0  2  0  0  3  0  0  0  0  0  0
  192.3340  174.1230  143.4580 C   0  0  1  0  0  3  0  0  0  0  0  0
  191.5710  177.0830  147.7550 C   0  0  0  0  0  3  0  0  0  0  0  0
  189.2920  173.7670  139.9940 C   0  0  0  0  0  2  0  0  0  0  0  0
  189.4300  175.6880  144.9330 C   0  0  2  0  0  3  0  0  0  0  0  0
  187.6830  177.9420  145.4330 O   0  0  0  0  0  1  0  0  0  0  0  0
  194.0590  176.3440  145.4210 C   0  0  0  0  0  2  0  0  0  0  0  0
  192.7460  176.4980  147.4990 C   0  0  0  0  0  3  0  0  0  0  0  0
  188.1470  175.6110  145.7530 C   0  0  0  0  0  2  0  0  0  0  0  0
  190.2120  172.0780  141.6080 N   0  0  1  0  0  0  0  0  0  0  0  0
  191.5050  172.7820  141.5490 C   0  0  0  0  0  2  0  0  0  0  0  0
  192.9850  175.6590  146.2670 C   0  0  0  0  0  0  0  0  0  0  0  0
  189.9150  174.3100  144.4670 C   0  0  1  0  0  3  0  0  0  0  0  0
  189.0600  177.3950  147.3170 C   0  0  0  0  0  2  0  0  0  0  0  0
  193.8150  174.5150  143.6210 C   0  0  1  0  0  3  0  0  0  0  0  0
  186.6360  176.8670  147.2630 C   0  0  0  0  0  1  0  0  0  0  0  0
  189.3800  172.4300  142.7740 C   0  0  0  0  0  2  0  0  0  0  0  0
  190.0360  171.5060  139.2250 C   0  0  0  0  0  1  0  0  0  0  0  0
  189.3940  173.9020  143.1040 C   0  0  0  0  0  0  0  0  0  0  0  0
  194.0290  175.9970  143.9310 C   0  0  0  0  0  2  0  0  0  0  0  0
  196.0960  173.8030  144.3750 C   0  0  0  0  0  3  0  0  0  0  0  0
  194.7160  173.5640  144.3680 C   0  0  0  0  0  0  0  0  0  0  0  0
  194.2060  172.4600  145.0700 C   0  0  0  0  0  3  0  0  0  0  0  0
  194.5660  170.5430  146.4370 F   0  0  0  0  0  0  0  0  0  0  0  0
  196.4420  171.8490  145.7630 C   0  0  0  0  0  3  0  0  0  0  0  0
  195.0660  171.6060  145.7630 C   0  0  0  0  0  0  0  0  0  0  0  0
  196.9570  172.9480  145.0690 C   0  0  0  0  0  3  0  0  0  0  0  0
  187.6560  176.7510  141.2160 O   0  0  0  0  0  1  0  0  0  0  0  0
  187.8160  175.7530  140.2550 C   0  0  0  0  0  2  0  0  0  0  0  0
  1 27  2  0  0  0  0
  2 24  1  1  0  0  0
  2 22  1  0  0  0  0
  3  9  1  0  0  0  0
  3 20  1  0  0  0  0
  4 37  1  6  0  0  0
  4  1  1  0  0  0  0
  6 22  1  0  0  0  0
  6 11  2  0  0  0  0
  7  3  1  6  0  0  0
  8 26  1  6  0  0  0
  8 18  1  0  0  0  0
  9  6  1  1  0  0  0
 10  5  1  1  0  0  0
 10 23  1  0  0  0  0
 10  7  1  0  0  0  0
 12  8  1  0  0  0  0
 12  4  1  0  0  0  0
 13 17  1  1  0  0  0
 13  9  1  0  0  0  0
 14  2  1  0  0  0  0
 15 20  1  0  0  0  0
 16 11  1  0  0  0  0
 17  2  1  0  0  0  0
 18 19  1  6  0  0  0
 18 25  1  0  0  0  0
 19  5  1  0  0  0  0
 20 16  2  0  0  0  0
 21 27  1  6  0  0  0
 21  7  1  0  0  0  0
 21 13  1  0  0  0  0
 23 28  1  0  0  0  0
 23 30  1  1  0  0  0
 25 27  1  0  0  0  0
 28 15  1  0  0  0  0
 29 35  1  0  0  0  0
 30 29  2  0  0  0  0
 30 31  1  0  0  0  0
 31 34  2  0  0  0  0
 34 33  1  0  0  0  0
 34 32  1  0  0  0  0
 35 33  2  0  0  0  0
 37 36  1  0  0  0  0
M  END
>  <MODEL>
2

>  <REMARK>
 VINA RESULT:      -8.8      3.350      8.136
  Name = 
  2 active torsions:
  status: ('A' for Active; 'I' for Inactive)
    1  A    between atoms: C_4  and  C_37
    2  A    between atoms: C_23  and  C_30
                            x       y       z     vdW  Elec       q    Type
                         _______ _______ _______ _____ _____    ______ ____

>  <TORSDO>
F 2

$$$$
=
 OpenBabel11112417143D

 37 43  0  0  1  0  0  0  0  0999 V2000
  188.4810  174.5400  139.7200 C   0  0  0  0  0  3  0  0  0  0  0  0
  186.5030  177.3370  143.1030 C   0  0  1  0  0  0  0  0  0  0  0  0
  190.4490  175.7820  143.4140 N   0  0  0  0  0  0  0  0  0  0  0  0
  188.1910  173.9660  138.3630 C   0  0  2  0  0  3  0  0  0  0  0  0
  191.5260  172.6660  141.4770 C   0  0  0  0  0  2  0  0  0  0  0  0
  188.8520  177.4250  144.1410 C   0  0  0  0  0  0  0  0  0  0  0  0
  190.3310  174.4590  142.8040 C   0  0  2  0  0  3  0  0  0  0  0  0
  189.3860  171.7550  138.4920 C   0  0  2  0  0  3  0  0  0  0  0  0
  189.2350  176.4910  143.2610 C   0  0  2  0  0  3  0  0  0  0  0  0
  191.4870  174.1500  141.8230 C   0  0  1  0  0  3  0  0  0  0  0  0
  189.7580  177.7680  145.2490 C   0  0  0  0  0  3  0  0  0  0  0  0
  189.3620  173.1420  137.8420 C   0  0  0  0  0  2  0  0  0  0  0  0
  188.3380  175.8660  142.2730 C   0  0  2  0  0  3  0  0  0  0  0  0
  186.5570  178.1250  141.9520 O   0  0  0  0  0  1  0  0  0  0  0  0
  192.7230  176.7130  143.7390 C   0  0  0  0  0  2  0  0  0  0  0  0
  190.9520  177.1780  145.3850 C   0  0  0  0  0  3  0  0  0  0  0  0
  186.8940  175.8940  142.7630 C   0  0  0  0  0  2  0  0  0  0  0  0
  189.8410  171.7710  139.8900 N   0  0  1  0  0  0  0  0  0  0  0  0
  191.1210  172.4890  140.0250 C   0  0  0  0  0  2  0  0  0  0  0  0
  191.4670  176.1510  144.4050 C   0  0  0  0  0  0  0  0  0  0  0  0
  188.8990  174.4420  142.1760 C   0  0  1  0  0  3  0  0  0  0  0  0
  187.4310  177.9370  144.1760 C   0  0  0  0  0  2  0  0  0  0  0  0
  192.8910  174.6030  142.2680 C   0  0  1  0  0  3  0  0  0  0  0  0
  185.0840  177.3460  143.6320 C   0  0  0  0  0  1  0  0  0  0  0  0
  188.7580  172.2920  140.7470 C   0  0  0  0  0  2  0  0  0  0  0  0
  190.2340  170.8040  137.6660 C   0  0  0  0  0  1  0  0  0  0  0  0
  188.7160  173.7980  140.8170 C   0  0  0  0  0  0  0  0  0  0  0  0
  193.0480  176.1200  142.3650 C   0  0  0  0  0  2  0  0  0  0  0  0
  192.7900  173.0270  144.2130 C   0  0  0  0  0  3  0  0  0  0  0  0
  193.5720  173.8130  143.3580 C   0  0  0  0  0  0  0  0  0  0  0  0
  194.9660  173.8300  143.5210 C   0  0  0  0  0  3  0  0  0  0  0  0
  196.9120  173.0990  144.6840 F   0  0  0  0  0  0  0  0  0  0  0  0
  194.7800  172.2960  145.3840 C   0  0  0  0  0  3  0  0  0  0  0  0
  195.5670  173.0760  144.5320 C   0  0  0  0  0  0  0  0  0  0  0  0
  193.3910  172.2710  145.2240 C   0  0  0  0  0  3  0  0  0  0  0  0
  186.8400  175.8750  137.8850 O   0  0  0  0  0  1  0  0  0  0  0  0
  187.8980  175.1050  137.4030 C   0  0  0  0  0  2  0  0  0  0  0  0
  1 27  2  0  0  0  0
  2 24  1  1  0  0  0
  2 22  1  0  0  0  0
  3 20  1  0  0  0  0
  4 37  1  6  0  0  0
  4  1  1  0  0  0  0
  6 22  1  0  0  0  0
  6 11  2  0  0  0  0
  7  3  1  6  0  0  0
  8 26  1  6  0  0  0
  8 18  1  0  0  0  0
  9  3  1  0  0  0  0
  9  6  1  1  0  0  0
 10  5  1  1  0  0  0
 10 23  1  0  0  0  0
 10  7  1  0  0  0  0
 11 16  1  0  0  0  0
 12  4  1  0  0  0  0
 12  8  1  0  0  0  0
 13 17  1  1  0  0  0
 13  9  1  0  0  0  0
 14  2  1  0  0  0  0
 15 20  1  0  0  0  0
 17  2  1  0  0  0  0
 18 19  1  6  0  0  0
 18 25  1  0  0  0  0
 19  5  1  0  0  0  0
 20 16  2  0  0  0  0
 21 27  1  6  0  0  0
 21 13  1  0  0  0  0
 21  7  1  0  0  0  0
 23 28  1  0  0  0  0
 23 30  1  1  0  0  0
 25 27  1  0  0  0  0
 28 15  1  0  0  0  0
 29 35  1  0  0  0  0
 30 31  1  0  0  0  0
 30 29  2  0  0  0  0
 31 34  2  0  0  0  0
 34 32  1  0  0  0  0
 34 33  1  0  0  0  0
 35 33  2  0  0  0  0
 37 36  1  0  0  0  0
M  END
>  <MODEL>
3

>  <REMARK>
 VINA RESULT:      -8.6      3.650      8.230
  Name = 
  2 active torsions:
  status: ('A' for Active; 'I' for Inactive)
    1  A    between atoms: C_4  and  C_37
    2  A    between atoms: C_23  and  C_30
                            x       y       z     vdW  Elec       q    Type
                         _______ _______ _______ _____ _____    ______ ____

>  <TORSDO>
F 2

$$$$
=
 OpenBabel11112417143D

 37 43  0  0  1  0  0  0  0  0999 V2000
  191.9150  172.7400  142.1150 C   0  0  0  0  0  3  0  0  0  0  0  0
  195.6070  174.7890  144.4260 C   0  0  1  0  0  0  0  0  0  0  0  0
  191.5460  175.5610  145.4250 N   0  0  0  0  0  0  0  0  0  0  0  0
  191.6230  171.7350  141.0370 C   0  0  2  0  0  3  0  0  0  0  0  0
  188.7270  174.9950  142.9050 C   0  0  0  0  0  2  0  0  0  0  0  0
  193.8510  175.6260  146.1050 C   0  0  0  0  0  0  0  0  0  0  0  0
  190.8760  175.5350  144.1270 C   0  0  2  0  0  3  0  0  0  0  0  0
  189.5360  172.6960  140.0100 C   0  0  2  0  0  3  0  0  0  0  0  0
  192.8990  175.1800  145.2760 C   0  0  2  0  0  3  0  0  0  0  0  0
  189.5610  174.7200  144.1510 C   0  0  1  0  0  3  0  0  0  0  0  0
  193.4580  176.4730  147.2420 C   0  0  0  0  0  3  0  0  0  0  0  0
  190.1250  171.5480  140.8350 C   0  0  0  0  0  2  0  0  0  0  0  0
  193.1670  174.5540  143.9680 C   0  0  2  0  0  3  0  0  0  0  0  0
  195.7390  173.4180  144.6530 O   0  0  0  0  0  1  0  0  0  0  0  0
  190.1400  175.4110  147.4610 C   0  0  0  0  0  2  0  0  0  0  0  0
  192.1780  176.7920  147.4680 C   0  0  0  0  0  3  0  0  0  0  0  0
  194.4960  175.0400  143.4000 C   0  0  0  0  0  2  0  0  0  0  0  0
  189.4180  173.9560  140.7600 N   0  0  1  0  0  0  0  0  0  0  0  0
  188.7140  173.7490  142.0380 C   0  0  0  0  0  2  0  0  0  0  0  0
  191.0500  176.2880  146.6010 C   0  0  0  0  0  0  0  0  0  0  0  0
  191.9660  175.0150  143.1330 C   0  0  1  0  0  3  0  0  0  0  0  0
  195.3160  175.5010  145.7610 C   0  0  0  0  0  2  0  0  0  0  0  0
  188.6780  174.9000  145.4010 C   0  0  1  0  0  3  0  0  0  0  0  0
  196.9120  175.3180  143.8700 C   0  0  0  0  0  1  0  0  0  0  0  0
  190.7530  174.5690  140.8930 C   0  0  0  0  0  2  0  0  0  0  0  0
  188.1920  172.2910  139.4320 C   0  0  0  0  0  1  0  0  0  0  0  0
  191.5500  174.0330  142.0560 C   0  0  0  0  0  0  0  0  0  0  0  0
  189.3160  174.3780  146.6880 C   0  0  0  0  0  2  0  0  0  0  0  0
  187.9010  177.0920  144.4680 C   0  0  0  0  0  3  0  0  0  0  0  0
  187.9100  176.1910  145.5390 C   0  0  0  0  0  0  0  0  0  0  0  0
  187.1900  176.5000  146.7040 C   0  0  0  0  0  3  0  0  0  0  0  0
  185.7860  177.9900  147.9230 F   0  0  0  0  0  0  0  0  0  0  0  0
  186.4760  178.5940  145.7230 C   0  0  0  0  0  3  0  0  0  0  0  0
  186.4770  177.6980  146.7950 C   0  0  0  0  0  0  0  0  0  0  0  0
  187.1880  178.2910  144.5580 C   0  0  0  0  0  3  0  0  0  0  0  0
  191.9830  170.1160  142.7520 O   0  0  0  0  0  1  0  0  0  0  0  0
  192.2600  170.4110  141.4180 C   0  0  0  0  0  2  0  0  0  0  0  0
  2 24  1  6  0  0  0
  2 14  1  0  0  0  0
  2 22  1  0  0  0  0
  3 20  1  0  0  0  0
  4 37  1  1  0  0  0
  4  1  1  0  0  0  0
  6 11  2  0  0  0  0
  7 10  1  0  0  0  0
  7  3  1  1  0  0  0
  8 26  1  1  0  0  0
  8 18  1  0  0  0  0
  8 12  1  0  0  0  0
  9  3  1  0  0  0  0
  9  6  1  6  0  0  0
 10  5  1  6  0  0  0
 10 23  1  0  0  0  0
 11 16  1  0  0  0  0
 12  4  1  0  0  0  0
 13 17  1  6  0  0  0
 13  9  1  0  0  0  0
 17  2  1  0  0  0  0
 18 25  1  1  0  0  0
 18 19  1  0  0  0  0
 19  5  1  0  0  0  0
 20 15  1  0  0  0  0
 20 16  2  0  0  0  0
 21 27  1  1  0  0  0
 21 13  1  0  0  0  0
 21  7  1  0  0  0  0
 22  6  1  0  0  0  0
 23 30  1  1  0  0  0
 23 28  1  0  0  0  0
 25 27  1  0  0  0  0
 27  1  2  0  0  0  0
 28 15  1  0  0  0  0
 29 35  2  0  0  0  0
 29 30  1  0  0  0  0
 30 31  2  0  0  0  0
 31 34  1  0  0  0  0
 33 34  2  0  0  0  0
 34 32  1  0  0  0  0
 35 33  1  0  0  0  0
 37 36  1  0  0  0  0
M  END
>  <MODEL>
4

>  <REMARK>
 VINA RESULT:      -8.6      1.829      5.857
  Name = 
  2 active torsions:
  status: ('A' for Active; 'I' for Inactive)
    1  A    between atoms: C_4  and  C_37
    2  A    between atoms: C_23  and  C_30
                            x       y       z     vdW  Elec       q    Type
                         _______ _______ _______ _____ _____    ______ ____

>  <TORSDO>
F 2

$$$$
=
 OpenBabel11112417143D

 37 43  0  0  1  0  0  0  0  0999 V2000
  192.8910  171.4630  141.9240 C   0  0  0  0  0  3  0  0  0  0  0  0
  196.2960  173.6410  144.5390 C   0  0  1  0  0  0  0  0  0  0  0  0
  192.2260  174.8730  144.5670 N   0  0  0  0  0  0  0  0  0  0  0  0
  192.6960  170.2980  140.9960 C   0  0  2  0  0  3  0  0  0  0  0  0
  189.8680  174.0470  141.6720 C   0  0  0  0  0  2  0  0  0  0  0  0
  194.3620  174.8990  145.6690 C   0  0  0  0  0  0  0  0  0  0  0  0
  191.8050  174.6520  143.1860 C   0  0  2  0  0  3  0  0  0  0  0  0
  190.9440  171.1960  139.4280 C   0  0  2  0  0  3  0  0  0  0  0  0
  193.5350  174.3750  144.7560 C   0  0  2  0  0  3  0  0  0  0  0  0
  190.4280  173.9510  143.0870 C   0  0  1  0  0  3  0  0  0  0  0  0
  193.8600  175.9690  146.5450 C   0  0  0  0  0  3  0  0  0  0  0  0
  191.2480  170.1830  140.5370 C   0  0  0  0  0  2  0  0  0  0  0  0
  193.9690  173.4980  143.6520 C   0  0  2  0  0  3  0  0  0  0  0  0
  196.2390  172.3300  145.0160 O   0  0  0  0  0  1  0  0  0  0  0  0
  190.4650  175.2060  146.2800 C   0  0  0  0  0  2  0  0  0  0  0  0
  192.6020  176.4160  146.4550 C   0  0  0  0  0  3  0  0  0  0  0  0
  195.4230  173.7740  143.2850 C   0  0  0  0  0  2  0  0  0  0  0  0
  190.8250  172.5790  139.9150 N   0  0  1  0  0  0  0  0  0  0  0  0
  189.8820  172.6650  141.0440 C   0  0  0  0  0  2  0  0  0  0  0  0
  191.6030  175.8400  145.4800 C   0  0  0  0  0  0  0  0  0  0  0  0
  192.9950  173.8790  142.5300 C   0  0  1  0  0  3  0  0  0  0  0  0
  195.8440  174.6080  145.6480 C   0  0  0  0  0  2  0  0  0  0  0  0
  189.3560  174.4240  144.0880 C   0  0  1  0  0  3  0  0  0  0  0  0
  197.7290  173.9620  144.1710 C   0  0  0  0  0  1  0  0  0  0  0  0
  192.1700  173.1090  140.2040 C   0  0  0  0  0  2  0  0  0  0  0  0
  189.6920  170.7860  138.6730 C   0  0  0  0  0  1  0  0  0  0  0  0
  192.6810  172.7450  141.5750 C   0  0  0  0  0  0  0  0  0  0  0  0
  189.6910  174.1070  145.5450 C   0  0  0  0  0  2  0  0  0  0  0  0
  187.6940  176.1940  144.7070 C   0  0  0  0  0  3  0  0  0  0  0  0
  188.7170  175.7690  143.8510 C   0  0  0  0  0  0  0  0  0  0  0  0
  189.1360  176.6120  142.8090 C   0  0  0  0  0  3  0  0  0  0  0  0
  188.9410  178.6660  141.6170 F   0  0  0  0  0  0  0  0  0  0  0  0
  187.5100  178.2740  143.4810 C   0  0  0  0  0  3  0  0  0  0  0  0
  188.5330  177.8580  142.6250 C   0  0  0  0  0  0  0  0  0  0  0  0
  187.0910  177.4410  144.5230 C   0  0  0  0  0  3  0  0  0  0  0  0
  192.4940  168.9640  142.9650 O   0  0  0  0  0  1  0  0  0  0  0  0
  193.1090  169.0270  141.7150 C   0  0  0  0  0  2  0  0  0  0  0  0
  2 24  1  6  0  0  0
  2 14  1  0  0  0  0
  2 22  1  0  0  0  0
  3  9  1  0  0  0  0
  3 20  1  0  0  0  0
  4 37  1  1  0  0  0
  4  1  1  0  0  0  0
  6 11  2  0  0  0  0
  7  3  1  1  0  0  0
  8 26  1  1  0  0  0
  8 18  1  0  0  0  0
  8 12  1  0  0  0  0
  9  6  1  6  0  0  0
 10  5  1  6  0  0  0
 10  7  1  0  0  0  0
 10 23  1  0  0  0  0
 12  4  1  0  0  0  0
 13 17  1  6  0  0  0
 13  9  1  0  0  0  0
 16 11  1  0  0  0  0
 17  2  1  0  0  0  0
 18 25  1  1  0  0  0
 18 19  1  0  0  0  0
 19  5  1  0  0  0  0
 20 15  1  0  0  0  0
 20 16  2  0  0  0  0
 21 27  1  1  0  0  0
 21  7  1  0  0  0  0
 21 13  1  0  0  0  0
 22  6  1  0  0  0  0
 23 30  1  1  0  0  0
 23 28  1  0  0  0  0
 25 27  1  0  0  0  0
 27  1  2  0  0  0  0
 28 15  1  0  0  0  0
 30 29  2  0  0  0  0
 31 30  1  0  0  0  0
 32 34  1  0  0  0  0
 33 35  2  0  0  0  0
 34 31  2  0  0  0  0
 34 33  1  0  0  0  0
 35 29  1  0  0  0  0
 37 36  1  0  0  0  0
M  END
>  <MODEL>
5

>  <REMARK>
 VINA RESULT:      -8.4      2.473      6.416
  Name = 
  2 active torsions:
  status: ('A' for Active; 'I' for Inactive)
    1  A    between atoms: C_4  and  C_37
    2  A    between atoms: C_23  and  C_30
                            x       y       z     vdW  Elec       q    Type
                         _______ _______ _______ _____ _____    ______ ____

>  <TORSDO>
F 2

$$$$
=
 OpenBabel11112417143D

 37 43  0  0  1  0  0  0  0  0999 V2000
  194.6090  173.2750  142.3510 C   0  0  0  0  0  3  0  0  0  0  0  0
  191.3960  171.8140  139.0770 C   0  0  1  0  0  0  0  0  0  0  0  0
  190.4230  174.5070  142.2220 N   0  0  0  0  0  0  0  0  0  0  0  0
  196.0650  173.1500  142.6960 C   0  0  2  0  0  3  0  0  0  0  0  0
  192.4960  174.6630  145.4310 C   0  0  0  0  0  2  0  0  0  0  0  0
  189.8470  173.6100  140.0670 C   0  0  0  0  0  0  0  0  0  0  0  0
  191.2290  174.0160  143.3370 C   0  0  2  0  0  3  0  0  0  0  0  0
  195.9910  173.2290  145.2110 C   0  0  2  0  0  3  0  0  0  0  0  0
  190.7430  173.7900  141.0460 C   0  0  2  0  0  3  0  0  0  0  0  0
  191.9550  175.1550  144.0930 C   0  0  1  0  0  3  0  0  0  0  0  0
  188.5240  174.2410  140.1930 C   0  0  0  0  0  3  0  0  0  0  0  0
  196.4190  173.9620  143.9360 C   0  0  0  0  0  2  0  0  0  0  0  0
  191.9910  173.0160  141.1800 C   0  0  2  0  0  3  0  0  0  0  0  0
  192.3770  172.5000  138.3580 O   0  0  0  0  0  1  0  0  0  0  0  0
  189.4540  176.7810  142.3990 C   0  0  0  0  0  2  0  0  0  0  0  0
  188.2070  174.9950  141.2530 C   0  0  0  0  0  3  0  0  0  0  0  0
  191.8450  171.6430  140.5330 C   0  0  0  0  0  2  0  0  0  0  0  0
  194.5380  173.2540  145.4400 N   0  0  1  0  0  0  0  0  0  0  0  0
  194.0110  174.6280  145.3660 C   0  0  0  0  0  2  0  0  0  0  0  0
  189.1820  175.2770  142.3700 C   0  0  0  0  0  0  0  0  0  0  0  0
  192.1640  172.9350  142.7010 C   0  0  1  0  0  3  0  0  0  0  0  0
  190.0640  172.5810  138.9820 C   0  0  0  0  0  2  0  0  0  0  0  0
  191.1400  176.4430  144.3200 C   0  0  1  0  0  3  0  0  0  0  0  0
  191.2100  170.4440  138.4600 C   0  0  0  0  0  1  0  0  0  0  0  0
  193.8860  172.3010  144.5230 C   0  0  0  0  0  2  0  0  0  0  0  0
  196.7310  173.7910  146.4120 C   0  0  0  0  0  1  0  0  0  0  0  0
  193.6080  172.8730  143.1560 C   0  0  0  0  0  0  0  0  0  0  0  0
  190.7890  177.1850  143.0310 C   0  0  0  0  0  2  0  0  0  0  0  0
  189.2420  177.5410  145.5330 C   0  0  0  0  0  3  0  0  0  0  0  0
  190.0500  176.4100  145.3630 C   0  0  0  0  0  0  0  0  0  0  0  0
  189.8140  175.2710  146.1480 C   0  0  0  0  0  3  0  0  0  0  0  0
  188.5660  174.1660  147.8500 F   0  0  0  0  0  0  0  0  0  0  0  0
  187.9880  176.4010  147.2630 C   0  0  0  0  0  3  0  0  0  0  0  0
  188.7870  175.2680  147.0950 C   0  0  0  0  0  0  0  0  0  0  0  0
  188.2150  177.5380  146.4810 C   0  0  0  0  0  3  0  0  0  0  0  0
  196.4010  174.8510  141.0570 O   0  0  0  0  0  1  0  0  0  0  0  0
  196.8900  173.6280  141.5160 C   0  0  0  0  0  2  0  0  0  0  0  0
  1  4  1  0  0  0  0
  1 27  2  0  0  0  0
  2 24  1  6  0  0  0
  2 17  1  0  0  0  0
  3 20  1  0  0  0  0
  4 37  1  6  0  0  0
  4 12  1  0  0  0  0
  6 11  2  0  0  0  0
  7  3  1  6  0  0  0
  7 10  1  0  0  0  0
  8 18  1  0  0  0  0
  8 26  1  1  0  0  0
  9  6  1  1  0  0  0
  9 13  1  0  0  0  0
  9  3  1  0  0  0  0
 10 23  1  0  0  0  0
 10  5  1  1  0  0  0
 11 16  1  0  0  0  0
 12  8  1  0  0  0  0
 13 17  1  1  0  0  0
 13 21  1  0  0  0  0
 14  2  1  0  0  0  0
 15 28  1  0  0  0  0
 16 20  2  0  0  0  0
 18 25  1  6  0  0  0
 19  5  1  0  0  0  0
 19 18  1  0  0  0  0
 20 15  1  0  0  0  0
 21 27  1  6  0  0  0
 21  7  1  0  0  0  0
 22  2  1  0  0  0  0
 22  6  1  0  0  0  0
 23 30  1  6  0  0  0
 27 25  1  0  0  0  0
 28 23  1  0  0  0  0
 29 35  1  0  0  0  0
 30 29  2  0  0  0  0
 30 31  1  0  0  0  0
 31 34  2  0  0  0  0
 34 33  1  0  0  0  0
 34 32  1  0  0  0  0
 35 33  2  0  0  0  0
 36 37  1  0  0  0  0
M  END
>  <MODEL>
6

>  <REMARK>
 VINA RESULT:      -8.3      2.792      4.226
  Name = 
  2 active torsions:
  status: ('A' for Active; 'I' for Inactive)
    1  A    between atoms: C_4  and  C_37
    2  A    between atoms: C_23  and  C_30
                            x       y       z     vdW  Elec       q    Type
                         _______ _______ _______ _____ _____    ______ ____

>  <TORSDO>
F 2

$$$$
=
 OpenBabel11112417143D

 37 43  0  0  1  0  0  0  0  0999 V2000
  193.7610  174.8910  143.2950 C   0  0  0  0  0  3  0  0  0  0  0  0
  191.6880  171.3730  140.7460 C   0  0  1  0  0  0  0  0  0  0  0  0
  189.4930  174.6080  142.4210 N   0  0  0  0  0  0  0  0  0  0  0  0
  195.1130  175.3680  143.7450 C   0  0  2  0  0  3  0  0  0  0  0  0
  190.8390  176.6100  145.3880 C   0  0  0  0  0  2  0  0  0  0  0  0
  189.5720  172.8290  140.8060 C   0  0  0  0  0  0  0  0  0  0  0  0
  190.1850  174.8560  143.6840 C   0  0  2  0  0  3  0  0  0  0  0  0
  194.5670  176.3680  145.9890 C   0  0  2  0  0  3  0  0  0  0  0  0
  190.1970  173.6370  141.6710 C   0  0  2  0  0  3  0  0  0  0  0  0
  190.4390  176.3620  143.9370 C   0  0  1  0  0  3  0  0  0  0  0  0
  188.1290  173.0140  140.5800 C   0  0  0  0  0  3  0  0  0  0  0  0
  195.0120  176.6570  144.5510 C   0  0  0  0  0  2  0  0  0  0  0  0
  191.5580  173.4040  142.1870 C   0  0  2  0  0  3  0  0  0  0  0  0
  192.5690  172.0030  139.8650 O   0  0  0  0  0  1  0  0  0  0  0  0
  187.9490  176.3530  141.5780 C   0  0  0  0  0  2  0  0  0  0  0  0
  187.4400  173.9730  141.2090 C   0  0  0  0  0  3  0  0  0  0  0  0
  191.8950  171.9170  142.1640 C   0  0  0  0  0  2  0  0  0  0  0  0
  193.1410  176.0240  146.1020 N   0  0  1  0  0  0  0  0  0  0  0  0
  192.2970  177.0280  145.4310 C   0  0  0  0  0  2  0  0  0  0  0  0
  188.0890  174.9480  142.1620 C   0  0  0  0  0  0  0  0  0  0  0  0
  191.4680  173.9650  143.6120 C   0  0  1  0  0  3  0  0  0  0  0  0
  190.2420  171.5890  140.2620 C   0  0  0  0  0  2  0  0  0  0  0  0
  189.2890  177.3140  143.5600 C   0  0  1  0  0  3  0  0  0  0  0  0
  191.9810  169.8870  140.7460 C   0  0  0  0  0  1  0  0  0  0  0  0
  192.9370  174.6420  145.6290 C   0  0  0  0  0  2  0  0  0  0  0  0
  194.9050  177.5450  146.8880 C   0  0  0  0  0  1  0  0  0  0  0  0
  192.7720  174.5350  144.1340 C   0  0  0  0  0  0  0  0  0  0  0  0
  188.9950  177.3620  142.0610 C   0  0  0  0  0  2  0  0  0  0  0  0
  187.9790  176.4080  145.4940 C   0  0  0  0  0  3  0  0  0  0  0  0
  188.0760  177.3420  144.4560 C   0  0  0  0  0  0  0  0  0  0  0  0
  187.0550  178.2920  144.2880 C   0  0  0  0  0  3  0  0  0  0  0  0
  184.9710  179.2180  144.9750 F   0  0  0  0  0  0  0  0  0  0  0  0
  185.8610  177.3620  146.1760 C   0  0  0  0  0  3  0  0  0  0  0  0
  185.9520  178.3000  145.1440 C   0  0  0  0  0  0  0  0  0  0  0  0
  186.8750  176.4160  146.3520 C   0  0  0  0  0  3  0  0  0  0  0  0
  196.7280  176.7630  142.6760 O   0  0  0  0  0  1  0  0  0  0  0  0
  195.9820  175.5940  142.5220 C   0  0  0  0  0  2  0  0  0  0  0  0
  1  4  1  0  0  0  0
  1 27  2  0  0  0  0
  2 24  1  1  0  0  0
  2 17  1  0  0  0  0
  4 37  1  6  0  0  0
  4 12  1  0  0  0  0
  5 19  1  0  0  0  0
  7  3  1  6  0  0  0
  7 10  1  0  0  0  0
  8 18  1  0  0  0  0
  8 26  1  1  0  0  0
  9  6  1  1  0  0  0
  9 13  1  0  0  0  0
  9  3  1  0  0  0  0
 10  5  1  1  0  0  0
 11  6  2  0  0  0  0
 11 16  1  0  0  0  0
 12  8  1  0  0  0  0
 13 17  1  1  0  0  0
 13 21  1  0  0  0  0
 14  2  1  0  0  0  0
 15 28  1  0  0  0  0
 15 20  1  0  0  0  0
 16 20  2  0  0  0  0
 18 19  1  6  0  0  0
 20  3  1  0  0  0  0
 21  7  1  0  0  0  0
 21 27  1  6  0  0  0
 22  2  1  0  0  0  0
 22  6  1  0  0  0  0
 23 10  1  0  0  0  0
 23 30  1  1  0  0  0
 25 18  1  0  0  0  0
 27 25  1  0  0  0  0
 28 23  1  0  0  0  0
 29 35  1  0  0  0  0
 30 29  2  0  0  0  0
 31 30  1  0  0  0  0
 31 34  2  0  0  0  0
 32 34  1  0  0  0  0
 33 35  2  0  0  0  0
 34 33  1  0  0  0  0
 37 36  1  0  0  0  0
M  END
>  <MODEL>
7

>  <REMARK>
 VINA RESULT:      -8.2      1.791      2.482
  Name = 
  2 active torsions:
  status: ('A' for Active; 'I' for Inactive)
    1  A    between atoms: C_4  and  C_37
    2  A    between atoms: C_23  and  C_30
                            x       y       z     vdW  Elec       q    Type
                         _______ _______ _______ _____ _____    ______ ____

>  <TORSDO>
F 2

$$$$
=
 OpenBabel11112417143D

 37 43  0  0  1  0  0  0  0  0999 V2000
  189.5530  173.7070  139.6690 C   0  0  0  0  0  3  0  0  0  0  0  0
  187.3680  176.5530  142.8790 C   0  0  1  0  0  0  0  0  0  0  0  0
  191.4220  175.3280  143.2650 N   0  0  0  0  0  0  0  0  0  0  0  0
  189.3080  173.0280  138.3520 C   0  0  2  0  0  3  0  0  0  0  0  0
  192.7350  172.1870  141.5230 C   0  0  0  0  0  2  0  0  0  0  0  0
  189.7040  176.8860  143.8960 C   0  0  0  0  0  0  0  0  0  0  0  0
  191.4060  173.9640  142.7420 C   0  0  2  0  0  3  0  0  0  0  0  0
  190.6690  170.9270  138.6140 C   0  0  2  0  0  3  0  0  0  0  0  0
  190.1580  175.9310  143.0750 C   0  0  2  0  0  3  0  0  0  0  0  0
  192.5820  173.6830  141.7750 C   0  0  1  0  0  3  0  0  0  0  0  0
  190.5820  177.3670  144.9750 C   0  0  0  0  0  3  0  0  0  0  0  0
  190.5380  172.2640  137.8780 C   0  0  0  0  0  2  0  0  0  0  0  0
  189.3100  175.1770  142.1330 C   0  0  2  0  0  3  0  0  0  0  0  0
  187.3610  177.2680  141.6800 O   0  0  0  0  0  1  0  0  0  0  0  0
  193.6180  176.4490  143.5190 C   0  0  0  0  0  2  0  0  0  0  0  0
  191.8170  176.8810  145.1410 C   0  0  0  0  0  3  0  0  0  0  0  0
  187.8690  175.1250  142.6280 C   0  0  0  0  0  2  0  0  0  0  0  0
  191.1220  171.0670  140.0060 N   0  0  1  0  0  0  0  0  0  0  0  0
  192.3430  171.8870  140.0880 C   0  0  0  0  0  2  0  0  0  0  0  0
  192.4090  175.8360  144.2260 C   0  0  0  0  0  0  0  0  0  0  0  0
  189.9790  173.7970  142.1230 C   0  0  1  0  0  3  0  0  0  0  0  0
  188.2480  177.2890  143.9060 C   0  0  0  0  0  2  0  0  0  0  0  0
  193.9470  174.2690  142.1830 C   0  0  1  0  0  3  0  0  0  0  0  0
  185.9530  176.4860  143.4140 C   0  0  0  0  0  1  0  0  0  0  0  0
  190.0030  171.5560  140.8340 C   0  0  0  0  0  2  0  0  0  0  0  0
  191.5870  169.9930  137.8450 C   0  0  0  0  0  1  0  0  0  0  0  0
  189.8450  173.0560  140.8090 C   0  0  0  0  0  0  0  0  0  0  0  0
  193.9860  175.7970  142.1830 C   0  0  0  0  0  2  0  0  0  0  0  0
  196.0600  173.8380  143.4590 C   0  0  0  0  0  3  0  0  0  0  0  0
  194.6870  173.6050  143.3170 C   0  0  0  0  0  0  0  0  0  0  0  0
  194.0310  172.7780  144.2430 C   0  0  0  0  0  3  0  0  0  0  0  0
  194.1030  171.3910  146.1790 F   0  0  0  0  0  0  0  0  0  0  0  0
  196.1130  172.4240  145.4230 C   0  0  0  0  0  3  0  0  0  0  0  0
  194.7420  172.1890  145.2900 C   0  0  0  0  0  0  0  0  0  0  0  0
  196.7720  173.2490  144.5070 C   0  0  0  0  0  3  0  0  0  0  0  0
  187.7940  174.7710  137.7470 O   0  0  0  0  0  1  0  0  0  0  0  0
  188.9270  174.0770  137.3240 C   0  0  0  0  0  2  0  0  0  0  0  0
  1 27  2  0  0  0  0
  2 24  1  1  0  0  0
  2 22  1  0  0  0  0
  3 20  1  0  0  0  0
  4 37  1  6  0  0  0
  4  1  1  0  0  0  0
  6 22  1  0  0  0  0
  6 11  2  0  0  0  0
  7  3  1  6  0  0  0
  8 26  1  6  0  0  0
  8 18  1  0  0  0  0
  9  3  1  0  0  0  0
  9  6  1  1  0  0  0
 10  5  1  1  0  0  0
 10 23  1  0  0  0  0
 10  7  1  0  0  0  0
 11 16  1  0  0  0  0
 12  4  1  0  0  0  0
 12  8  1  0  0  0  0
 13 17  1  1  0  0  0
 13  9  1  0  0  0  0
 14  2  1  0  0  0  0
 15 20  1  0  0  0  0
 17  2  1  0  0  0  0
 18 19  1  6  0  0  0
 18 25  1  0  0  0  0
 19  5  1  0  0  0  0
 20 16  2  0  0  0  0
 21 27  1  6  0  0  0
 21 13  1  0  0  0  0
 21  7  1  0  0  0  0
 23 30  1  1  0  0  0
 27 25  1  0  0  0  0
 28 23  1  0  0  0  0
 28 15  1  0  0  0  0
 29 35  1  0  0  0  0
 30 29  2  0  0  0  0
 30 31  1  0  0  0  0
 31 34  2  0  0  0  0
 34 33  1  0  0  0  0
 34 32  1  0  0  0  0
 35 33  2  0  0  0  0
 37 36  1  0  0  0  0
M  END
>  <MODEL>
8

>  <REMARK>
 VINA RESULT:      -8.1      3.575      8.315
  Name = 
  2 active torsions:
  status: ('A' for Active; 'I' for Inactive)
    1  A    between atoms: C_4  and  C_37
    2  A    between atoms: C_23  and  C_30
                            x       y       z     vdW  Elec       q    Type
                         _______ _______ _______ _____ _____    ______ ____

>  <TORSDO>
F 2

$$$$
=
 OpenBabel11112417143D

 37 43  0  0  1  0  0  0  0  0999 V2000
  189.5690  174.9020  142.2300 C   0  0  0  0  0  3  0  0  0  0  0  0
  191.1600  175.7900  146.6860 C   0  0  1  0  0  0  0  0  0  0  0  0
  193.7710  175.1520  143.3900 N   0  0  0  0  0  0  0  0  0  0  0  0
  188.2940  174.8000  141.4430 C   0  0  2  0  0  3  0  0  0  0  0  0
  192.6250  173.2580  140.2720 C   0  0  0  0  0  2  0  0  0  0  0  0
  193.4820  176.0250  145.6110 C   0  0  0  0  0  0  0  0  0  0  0  0
  193.0670  174.1430  142.6020 C   0  0  2  0  0  3  0  0  0  0  0  0
  188.8830  173.0160  139.7690 C   0  0  2  0  0  3  0  0  0  0  0  0
  192.9560  175.5780  144.4640 C   0  0  2  0  0  3  0  0  0  0  0  0
  193.0520  174.4720  141.0900 C   0  0  1  0  0  3  0  0  0  0  0  0
  194.9450  176.1450  145.7190 C   0  0  0  0  0  3  0  0  0  0  0  0
  188.5650  174.5000  139.9740 C   0  0  0  0  0  2  0  0  0  0  0  0
  191.5500  175.1620  144.3040 C   0  0  2  0  0  3  0  0  0  0  0  0
  190.4420  176.9270  146.3130 O   0  0  0  0  0  1  0  0  0  0  0  0
  195.6230  176.3900  142.3040 C   0  0  0  0  0  2  0  0  0  0  0  0
  195.7500  175.8290  144.6980 C   0  0  0  0  0  3  0  0  0  0  0  0
  190.9740  174.6900  145.6350 C   0  0  0  0  0  2  0  0  0  0  0  0
  190.2240  172.6340  140.2360 N   0  0  1  0  0  0  0  0  0  0  0  0
  191.2560  173.5230  139.6750 C   0  0  0  0  0  2  0  0  0  0  0  0
  195.2240  175.3620  143.3620 C   0  0  0  0  0  0  0  0  0  0  0  0
  191.6590  174.0310  143.2740 C   0  0  1  0  0  3  0  0  0  0  0  0
  192.6450  176.1590  146.8610 C   0  0  0  0  0  2  0  0  0  0  0  0
  194.3610  175.0390  140.5080 C   0  0  1  0  0  3  0  0  0  0  0  0
  190.6260  175.2910  148.0130 C   0  0  0  0  0  1  0  0  0  0  0  0
  190.2210  172.5580  141.7090 C   0  0  0  0  0  2  0  0  0  0  0  0
  188.6980  172.6370  138.3090 C   0  0  0  0  0  1  0  0  0  0  0  0
  190.4430  173.8900  142.3820 C   0  0  0  0  0  0  0  0  0  0  0  0
  194.7350  176.4150  141.0570 C   0  0  0  0  0  2  0  0  0  0  0  0
  196.4710  174.3700  139.3330 C   0  0  0  0  0  3  0  0  0  0  0  0
  195.5150  174.0860  140.3160 C   0  0  0  0  0  0  0  0  0  0  0  0
  195.6650  172.9380  141.1100 C   0  0  0  0  0  3  0  0  0  0  0  0
  196.8900  170.9770  141.6850 F   0  0  0  0  0  0  0  0  0  0  0  0
  197.7010  172.3710  139.9310 C   0  0  0  0  0  3  0  0  0  0  0  0
  196.7530  172.0830  140.9160 C   0  0  0  0  0  0  0  0  0  0  0  0
  197.5600  173.5150  139.1390 C   0  0  0  0  0  3  0  0  0  0  0  0
  186.6580  176.0500  142.6500 O   0  0  0  0  0  1  0  0  0  0  0  0
  187.5370  176.1090  141.5690 C   0  0  0  0  0  2  0  0  0  0  0  0
  1 27  2  0  0  0  0
  2 22  1  0  0  0  0
  2 24  1  1  0  0  0
  3  9  1  0  0  0  0
  4 37  1  6  0  0  0
  4  1  1  0  0  0  0
  6 11  2  0  0  0  0
  6 22  1  0  0  0  0
  7 21  1  0  0  0  0
  7  3  1  1  0  0  0
  8 26  1  6  0  0  0
  8 12  1  0  0  0  0
  8 18  1  0  0  0  0
  9  6  1  1  0  0  0
 10  5  1  6  0  0  0
 10  7  1  0  0  0  0
 12  4  1  0  0  0  0
 13  9  1  0  0  0  0
 13 17  1  1  0  0  0
 14  2  1  0  0  0  0
 15 20  1  0  0  0  0
 16 11  1  0  0  0  0
 17  2  1  0  0  0  0
 18 19  1  1  0  0  0
 18 25  1  0  0  0  0
 19  5  1  0  0  0  0
 20  3  1  0  0  0  0
 20 16  2  0  0  0  0
 21 27  1  6  0  0  0
 21 13  1  0  0  0  0
 23 30  1  1  0  0  0
 23 28  1  0  0  0  0
 23 10  1  0  0  0  0
 25 27  1  0  0  0  0
 28 15  1  0  0  0  0
 29 30  1  0  0  0  0
 30 31  2  0  0  0  0
 33 34  2  0  0  0  0
 34 31  1  0  0  0  0
 34 32  1  0  0  0  0
 35 29  2  0  0  0  0
 35 33  1  0  0  0  0
 37 36  1  0  0  0  0
M  END
>  <MODEL>
9

>  <REMARK>
 VINA RESULT:      -7.9      4.263      8.593
  Name = 
  2 active torsions:
  status: ('A' for Active; 'I' for Inactive)
    1  A    between atoms: C_4  and  C_37
    2  A    between atoms: C_23  and  C_30
                            x       y       z     vdW  Elec       q    Type
                         _______ _______ _______ _____ _____    ______ ____

>  <TORSDO>
F 2

$$$$
