=
 OpenBabel11112416143D

 30 35  0  0  1  0  0  0  0  0999 V2000
  186.4550  177.7100  143.7340 C   0  0  0  0  0  0  0  0  0  0  0  0
  184.6090  178.6870  145.1100 C   0  0  0  0  0  0  0  0  0  0  0  0
  188.3900  176.0870  147.1710 C   0  0  0  0  0  2  0  0  0  0  0  0
  187.6530  176.9540  143.6840 C   0  0  0  0  0  0  0  0  0  0  0  0
  185.9510  178.3500  142.4680 C   0  0  0  0  0  2  0  0  0  0  0  0
  187.6790  176.2450  140.0450 O   0  0  0  0  0  0  0  0  0  0  0  0
  190.5520  177.1470  143.0760 C   0  0  1  0  0  3  0  0  0  0  0  0
  187.3520  176.7210  141.1670 C   0  0  0  0  0  0  0  0  0  0  0  0
  190.6840  176.6110  144.4940 C   0  0  2  0  0  3  0  0  0  0  0  0
  189.5730  175.4520  146.4180 C   0  0  1  0  0  3  0  0  0  0  0  0
  186.1620  177.5110  141.2960 N   0  0  0  0  0  0  0  0  0  0  0  0
  188.1590  176.3720  142.3830 C   0  0  1  0  0  3  0  0  0  0  0  0
  184.0150  178.8670  146.3620 C   0  0  0  0  0  3  0  0  0  0  0  0
  191.8770  175.7220  144.4080 C   0  0  0  0  0  2  0  0  0  0  0  0
  191.8500  177.2250  142.5360 O   0  0  0  0  0  0  0  0  0  0  0  0
  183.9820  179.2240  144.0340 F   0  0  0  0  0  0  0  0  0  0  0  0
  187.5930  176.7070  146.0810 C   0  0  0  0  0  0  0  0  0  0  0  0
  184.5950  178.3310  147.5100 C   0  0  0  0  0  3  0  0  0  0  0  0
  185.8150  177.9490  144.9890 C   0  0  0  0  0  0  0  0  0  0  0  0
  188.2250  176.5340  144.8860 C   0  0  0  0  0  0  0  0  0  0  0  0
  189.4400  173.9410  146.4430 C   0  0  0  0  0  1  0  0  0  0  0  0
  189.5030  175.9310  145.0340 N   0  0  0  0  0  0  0  0  0  0  0  0
  192.6810  176.3780  143.3050 C   0  0  0  0  0  2  0  0  0  0  0  0
  190.0940  174.9920  142.0570 O   0  0  0  0  0  1  0  0  0  0  0  0
  185.7810  177.6050  147.4170 C   0  0  0  0  0  3  0  0  0  0  0  0
  186.3930  177.4100  146.1740 C   0  0  0  0  0  0  0  0  0  0  0  0
  189.6690  176.3210  142.1270 C   0  0  2  0  0  3  0  0  0  0  0  0
  185.2710  177.6990  140.1600 C   0  0  0  0  0  2  0  0  0  0  0  0
  182.9640  177.9540  140.3450 C   0  0  0  0  0  1  0  0  0  0  0  0
  184.2280  178.6480  140.5070 N   0  0  0  0  0  2  0  0  0  0  0  0
  1 19  1  0  0  0  0
  2 13  1  0  0  0  0
  4  1  2  0  0  0  0
  4 20  1  0  0  0  0
  5  1  1  0  0  0  0
  6  8  2  0  0  0  0
  7 15  1  6  0  0  0
  7  9  1  0  0  0  0
  8 11  1  0  0  0  0
  9 14  1  6  0  0  0
  9 22  1  0  0  0  0
 10 21  1  6  0  0  0
 10  3  1  0  0  0  0
 11  5  1  0  0  0  0
 12  8  1  6  0  0  0
 12  4  1  0  0  0  0
 13 18  2  0  0  0  0
 15 23  1  0  0  0  0
 16  2  1  0  0  0  0
 17 26  1  0  0  0  0
 17  3  1  0  0  0  0
 19  2  2  0  0  0  0
 19 26  1  0  0  0  0
 20 22  1  0  0  0  0
 20 17  2  0  0  0  0
 22 10  1  0  0  0  0
 23 14  1  0  0  0  0
 25 18  1  0  0  0  0
 26 25  2  0  0  0  0
 27 24  1  1  0  0  0
 27 12  1  0  0  0  0
 27  7  1  0  0  0  0
 28 30  1  0  0  0  0
 28 11  1  0  0  0  0
 29 30  1  0  0  0  0
M  END
>  <MODEL>
1

>  <REMARK>
 VINA RESULT:      -9.0      0.000      0.000
  Name = 
  2 active torsions:
  status: ('A' for Active; 'I' for Inactive)
    1  A    between atoms: N_11  and  C_28
    2  A    between atoms: C_28  and  N_30
                            x       y       z     vdW  Elec       q    Type
                         _______ _______ _______ _____ _____    ______ ____

>  <TORSDO>
F 2

$$$$
=
 OpenBabel11112416143D

 30 35  0  0  1  0  0  0  0  0999 V2000
  187.8630  176.7850  145.7820 C   0  0  0  0  0  0  0  0  0  0  0  0
  186.0550  177.8400  147.1500 C   0  0  0  0  0  0  0  0  0  0  0  0
  185.6550  177.2850  142.1660 C   0  0  0  0  0  2  0  0  0  0  0  0
  188.3360  176.3900  144.5050 C   0  0  0  0  0  0  0  0  0  0  0  0
  188.6740  176.4220  146.9970 C   0  0  0  0  0  2  0  0  0  0  0  0
  191.9050  175.9170  145.3880 O   0  0  0  0  0  0  0  0  0  0  0  0
  189.0280  174.0140  142.8670 C   0  0  1  0  0  3  0  0  0  0  0  0
  190.6670  176.1290  145.4950 C   0  0  0  0  0  0  0  0  0  0  0  0
  188.0050  174.6170  141.9150 C   0  0  2  0  0  3  0  0  0  0  0  0
  186.7030  176.6480  141.2350 C   0  0  1  0  0  3  0  0  0  0  0  0
  190.1080  176.5150  146.7590 N   0  0  0  0  0  0  0  0  0  0  0  0
  189.7970  176.0720  144.2740 C   0  0  1  0  0  3  0  0  0  0  0  0
  184.8070  178.4680  147.2060 C   0  0  0  0  0  3  0  0  0  0  0  0
  188.5690  174.3020  140.5720 C   0  0  0  0  0  2  0  0  0  0  0  0
  189.5820  172.8880  142.2270 O   0  0  0  0  0  0  0  0  0  0  0  0
  186.7310  177.6800  148.3140 F   0  0  0  0  0  0  0  0  0  0  0  0
  186.2950  177.1920  143.5040 C   0  0  0  0  0  0  0  0  0  0  0  0
  184.0620  178.6790  146.0480 C   0  0  0  0  0  3  0  0  0  0  0  0
  186.5830  177.4090  145.9060 C   0  0  0  0  0  0  0  0  0  0  0  0
  187.4900  176.5460  143.4050 C   0  0  0  0  0  0  0  0  0  0  0  0
  187.3340  177.7200  140.3680 C   0  0  0  0  0  1  0  0  0  0  0  0
  187.7260  176.0450  142.0970 N   0  0  0  0  0  0  0  0  0  0  0  0
  189.3320  173.0220  140.8420 C   0  0  0  0  0  2  0  0  0  0  0  0
  190.8490  175.4750  142.2040 O   0  0  0  0  0  1  0  0  0  0  0  0
  184.5590  178.2630  144.8150 C   0  0  0  0  0  3  0  0  0  0  0  0
  185.8060  177.6330  144.7330 C   0  0  0  0  0  0  0  0  0  0  0  0
  190.1690  174.9470  143.3030 C   0  0  2  0  0  3  0  0  0  0  0  0
  190.9700  176.7570  147.9060 C   0  0  0  0  0  2  0  0  0  0  0  0
  191.4290  178.1490  149.7160 C   0  0  0  0  0  1  0  0  0  0  0  0
  190.6660  178.0530  148.4850 N   0  0  0  0  0  2  0  0  0  0  0  0
  1 19  1  0  0  0  0
  1  5  1  0  0  0  0
  2 13  1  0  0  0  0
  2 16  1  0  0  0  0
  3 17  1  0  0  0  0
  4  1  2  0  0  0  0
  6  8  2  0  0  0  0
  7 15  1  6  0  0  0
  7 27  1  0  0  0  0
  8 11  1  0  0  0  0
  9 14  1  6  0  0  0
  9 22  1  0  0  0  0
  9  7  1  0  0  0  0
 10 21  1  6  0  0  0
 10 22  1  0  0  0  0
 10  3  1  0  0  0  0
 11  5  1  0  0  0  0
 11 28  1  0  0  0  0
 12  4  1  1  0  0  0
 12  8  1  0  0  0  0
 14 23  1  0  0  0  0
 17 26  1  0  0  0  0
 18 13  2  0  0  0  0
 19  2  2  0  0  0  0
 20 17  2  0  0  0  0
 20  4  1  0  0  0  0
 22 20  1  0  0  0  0
 23 15  1  0  0  0  0
 25 18  1  0  0  0  0
 26 25  2  0  0  0  0
 26 19  1  0  0  0  0
 27 24  1  6  0  0  0
 27 12  1  0  0  0  0
 28 30  1  0  0  0  0
 30 29  1  0  0  0  0
M  END
>  <MODEL>
2

>  <REMARK>
 VINA RESULT:      -8.6      2.142      5.303
  Name = 
  2 active torsions:
  status: ('A' for Active; 'I' for Inactive)
    1  A    between atoms: N_11  and  C_28
    2  A    between atoms: C_28  and  N_30
                            x       y       z     vdW  Elec       q    Type
                         _______ _______ _______ _____ _____    ______ ____

>  <TORSDO>
F 2

$$$$
=
 OpenBabel11112416143D

 30 35  0  0  1  0  0  0  0  0999 V2000
  188.4760  175.9430  143.2250 C   0  0  0  0  0  0  0  0  0  0  0  0
  186.2240  177.0060  143.4550 C   0  0  0  0  0  0  0  0  0  0  0  0
  189.6760  177.2450  147.1060 C   0  0  0  0  0  2  0  0  0  0  0  0
  189.7400  175.6560  143.8000 C   0  0  0  0  0  0  0  0  0  0  0  0
  188.2280  175.5520  141.7920 C   0  0  0  0  0  2  0  0  0  0  0  0
  190.7880  172.9790  141.4600 O   0  0  0  0  0  0  0  0  0  0  0  0
  192.6420  176.2170  143.5400 C   0  0  1  0  0  3  0  0  0  0  0  0
  190.1250  173.9150  141.9830 C   0  0  0  0  0  0  0  0  0  0  0  0
  192.4810  176.6790  144.9820 C   0  0  2  0  0  3  0  0  0  0  0  0
  191.0880  176.6310  147.0640 C   0  0  1  0  0  3  0  0  0  0  0  0
  188.8440  174.2770  141.4470 N   0  0  0  0  0  0  0  0  0  0  0  0
  190.6350  174.5800  143.2270 C   0  0  1  0  0  3  0  0  0  0  0  0
  185.3120  177.7230  144.2340 C   0  0  0  0  0  3  0  0  0  0  0  0
  193.7670  176.2680  145.6110 C   0  0  0  0  0  2  0  0  0  0  0  0
  194.0120  176.3050  143.2240 O   0  0  0  0  0  0  0  0  0  0  0  0
  185.8240  176.6160  142.2190 F   0  0  0  0  0  0  0  0  0  0  0  0
  189.1060  176.8630  145.7880 C   0  0  0  0  0  0  0  0  0  0  0  0
  185.6490  178.1440  145.5190 C   0  0  0  0  0  3  0  0  0  0  0  0
  187.5110  176.6940  143.9650 C   0  0  0  0  0  0  0  0  0  0  0  0
  190.0380  176.1960  145.0520 C   0  0  0  0  0  0  0  0  0  0  0  0
  191.1620  175.4570  148.0220 C   0  0  0  0  0  1  0  0  0  0  0  0
  191.3070  176.1630  145.6910 N   0  0  0  0  0  0  0  0  0  0  0  0
  194.7270  176.3330  144.4420 C   0  0  0  0  0  2  0  0  0  0  0  0
  192.7600  173.8510  144.0680 O   0  0  0  0  0  1  0  0  0  0  0  0
  186.9070  177.8520  146.0400 C   0  0  0  0  0  3  0  0  0  0  0  0
  187.8360  177.1350  145.2800 C   0  0  0  0  0  0  0  0  0  0  0  0
  192.1530  174.7930  143.2340 C   0  0  2  0  0  3  0  0  0  0  0  0
  188.2540  173.5140  140.3570 C   0  0  0  0  0  2  0  0  0  0  0  0
  188.6580  173.3900  138.0670 C   0  0  0  0  0  1  0  0  0  0  0  0
  188.2860  174.2990  139.1350 N   0  0  0  0  0  2  0  0  0  0  0  0
  1  4  2  0  0  0  0
  1 19  1  0  0  0  0
  2 19  2  0  0  0  0
  2 13  1  0  0  0  0
  4 20  1  0  0  0  0
  5  1  1  0  0  0  0
  6  8  2  0  0  0  0
  7 15  1  1  0  0  0
  7  9  1  0  0  0  0
  9 14  1  1  0  0  0
  9 22  1  0  0  0  0
 10  3  1  0  0  0  0
 10 21  1  1  0  0  0
 11  5  1  0  0  0  0
 11  8  1  0  0  0  0
 12  8  1  6  0  0  0
 12 27  1  0  0  0  0
 12  4  1  0  0  0  0
 13 18  2  0  0  0  0
 15 23  1  0  0  0  0
 16  2  1  0  0  0  0
 17  3  1  0  0  0  0
 18 25  1  0  0  0  0
 19 26  1  0  0  0  0
 20 22  1  0  0  0  0
 20 17  2  0  0  0  0
 22 10  1  0  0  0  0
 23 14  1  0  0  0  0
 26 17  1  0  0  0  0
 26 25  2  0  0  0  0
 27  7  1  0  0  0  0
 27 24  1  1  0  0  0
 28 11  1  0  0  0  0
 29 30  1  0  0  0  0
 30 28  1  0  0  0  0
M  END
>  <MODEL>
3

>  <REMARK>
 VINA RESULT:      -8.4      2.472      3.335
  Name = 
  2 active torsions:
  status: ('A' for Active; 'I' for Inactive)
    1  A    between atoms: N_11  and  C_28
    2  A    between atoms: C_28  and  N_30
                            x       y       z     vdW  Elec       q    Type
                         _______ _______ _______ _____ _____    ______ ____

>  <TORSDO>
F 2

$$$$
=
 OpenBabel11112416143D

 30 35  0  0  1  0  0  0  0  0999 V2000
  188.1000  175.8540  142.0910 C   0  0  0  0  0  0  0  0  0  0  0  0
  186.6080  176.9600  140.4160 C   0  0  0  0  0  0  0  0  0  0  0  0
  186.5720  178.2400  145.2810 C   0  0  0  0  0  2  0  0  0  0  0  0
  188.5250  175.7390  143.4400 C   0  0  0  0  0  0  0  0  0  0  0  0
  188.8200  175.0570  141.0370 C   0  0  0  0  0  2  0  0  0  0  0  0
  190.2650  172.4770  143.1670 O   0  0  0  0  0  0  0  0  0  0  0  0
  190.8470  176.1690  145.2360 C   0  0  1  0  0  3  0  0  0  0  0  0
  189.6510  173.5330  142.8520 C   0  0  0  0  0  0  0  0  0  0  0  0
  189.8520  177.0400  145.9900 C   0  0  2  0  0  3  0  0  0  0  0  0
  187.4490  177.6280  146.3890 C   0  0  1  0  0  3  0  0  0  0  0  0
  189.2040  173.7320  141.5040 N   0  0  0  0  0  0  0  0  0  0  0  0
  189.3040  174.5330  143.9150 C   0  0  1  0  0  3  0  0  0  0  0  0
  185.5980  177.8850  140.1390 C   0  0  0  0  0  3  0  0  0  0  0  0
  190.2280  176.8220  147.4150 C   0  0  0  0  0  2  0  0  0  0  0  0
  192.0370  176.1450  145.9890 O   0  0  0  0  0  0  0  0  0  0  0  0
  187.0870  176.2240  139.3830 F   0  0  0  0  0  0  0  0  0  0  0  0
  186.9910  177.4890  144.0690 C   0  0  0  0  0  0  0  0  0  0  0  0
  185.0480  178.6660  141.1530 C   0  0  0  0  0  3  0  0  0  0  0  0
  187.0880  176.8010  141.7420 C   0  0  0  0  0  0  0  0  0  0  0  0
  187.9960  176.6240  144.3810 C   0  0  0  0  0  0  0  0  0  0  0  0
  186.5890  176.7910  147.3170 C   0  0  0  0  0  1  0  0  0  0  0  0
  188.4360  176.7710  145.7240 N   0  0  0  0  0  0  0  0  0  0  0  0
  191.7100  176.5280  147.3100 C   0  0  0  0  0  2  0  0  0  0  0  0
  190.0490  174.0660  146.1460 O   0  0  0  0  0  1  0  0  0  0  0  0
  185.5040  178.5290  142.4620 C   0  0  0  0  0  3  0  0  0  0  0  0
  186.5130  177.6090  142.7650 C   0  0  0  0  0  0  0  0  0  0  0  0
  190.4020  174.7230  144.9660 C   0  0  2  0  0  3  0  0  0  0  0  0
  189.3700  172.6850  140.5060 C   0  0  0  0  0  2  0  0  0  0  0  0
  188.9070  172.6600  138.2240 C   0  0  0  0  0  1  0  0  0  0  0  0
  188.2920  172.7570  139.5350 N   0  0  0  0  0  2  0  0  0  0  0  0
  1  4  1  0  0  0  0
  2 19  1  0  0  0  0
  3 10  1  0  0  0  0
  4 12  1  0  0  0  0
  4 20  2  0  0  0  0
  5 11  1  0  0  0  0
  5  1  1  0  0  0  0
  7 15  1  1  0  0  0
  7  9  1  0  0  0  0
  8  6  2  0  0  0  0
  9 14  1  1  0  0  0
 10 21  1  1  0  0  0
 11  8  1  0  0  0  0
 12  8  1  6  0  0  0
 12 27  1  0  0  0  0
 13  2  2  0  0  0  0
 13 18  1  0  0  0  0
 15 23  1  0  0  0  0
 16  2  1  0  0  0  0
 17 20  1  0  0  0  0
 17  3  1  0  0  0  0
 18 25  2  0  0  0  0
 19  1  2  0  0  0  0
 19 26  1  0  0  0  0
 20 22  1  0  0  0  0
 22  9  1  0  0  0  0
 22 10  1  0  0  0  0
 23 14  1  0  0  0  0
 25 26  1  0  0  0  0
 26 17  2  0  0  0  0
 27  7  1  0  0  0  0
 27 24  1  1  0  0  0
 28 11  1  0  0  0  0
 29 30  1  0  0  0  0
 30 28  1  0  0  0  0
M  END
>  <MODEL>
4

>  <REMARK>
 VINA RESULT:      -8.1      2.741      4.483
  Name = 
  2 active torsions:
  status: ('A' for Active; 'I' for Inactive)
    1  A    between atoms: N_11  and  C_28
    2  A    between atoms: C_28  and  N_30
                            x       y       z     vdW  Elec       q    Type
                         _______ _______ _______ _____ _____    ______ ____

>  <TORSDO>
F 2

$$$$
=
 OpenBabel11112416143D

 30 35  0  0  1  0  0  0  0  0999 V2000
  188.0920  175.5050  142.7340 C   0  0  0  0  0  0  0  0  0  0  0  0
  189.5100  173.5760  142.0110 C   0  0  0  0  0  0  0  0  0  0  0  0
  189.7410  175.4640  146.6690 C   0  0  0  0  0  2  0  0  0  0  0  0
  187.7230  176.4160  143.7560 C   0  0  0  0  0  0  0  0  0  0  0  0
  187.3330  175.5310  141.4350 C   0  0  0  0  0  2  0  0  0  0  0  0
  185.9850  178.9120  141.6370 O   0  0  0  0  0  0  0  0  0  0  0  0
  185.4740  177.2100  145.5220 C   0  0  1  0  0  3  0  0  0  0  0  0
  186.5810  177.8610  141.9990 C   0  0  0  0  0  0  0  0  0  0  0  0
  186.4960  176.9370  146.6170 C   0  0  2  0  0  3  0  0  0  0  0  0
  188.9110  176.6400  147.2150 C   0  0  1  0  0  3  0  0  0  0  0  0
  186.9720  176.8820  141.0260 N   0  0  0  0  0  0  0  0  0  0  0  0
  186.9690  177.6870  143.4380 C   0  0  1  0  0  3  0  0  0  0  0  0
  190.5050  172.6420  142.3130 C   0  0  0  0  0  3  0  0  0  0  0  0
  186.1800  177.9750  147.6380 C   0  0  0  0  0  2  0  0  0  0  0  0
  184.3160  177.7130  146.1470 O   0  0  0  0  0  0  0  0  0  0  0  0
  188.9920  173.5600  140.7580 F   0  0  0  0  0  0  0  0  0  0  0  0
  189.2750  175.3500  145.2620 C   0  0  0  0  0  0  0  0  0  0  0  0
  191.0930  172.6090  143.5750 C   0  0  0  0  0  3  0  0  0  0  0  0
  189.0860  174.5100  142.9910 C   0  0  0  0  0  0  0  0  0  0  0  0
  188.2870  176.2570  145.0240 C   0  0  0  0  0  0  0  0  0  0  0  0
  189.8120  177.8420  147.4290 C   0  0  0  0  0  1  0  0  0  0  0  0
  187.9010  176.9550  146.1990 N   0  0  0  0  0  0  0  0  0  0  0  0
  184.6960  178.1890  147.4230 C   0  0  0  0  0  2  0  0  0  0  0  0
  186.3160  179.4170  144.9660 O   0  0  0  0  0  1  0  0  0  0  0  0
  190.6920  173.5140  144.5540 C   0  0  0  0  0  3  0  0  0  0  0  0
  189.6990  174.4600  144.2760 C   0  0  0  0  0  0  0  0  0  0  0  0
  185.9130  178.1940  144.4260 C   0  0  2  0  0  3  0  0  0  0  0  0
  186.7690  177.1270  139.6060 C   0  0  0  0  0  2  0  0  0  0  0  0
  186.6910  176.1880  137.4760 C   0  0  0  0  0  1  0  0  0  0  0  0
  187.0740  175.9250  138.8510 N   0  0  0  0  0  2  0  0  0  0  0  0
  1 19  2  0  0  0  0
  1  4  1  0  0  0  0
  2 13  2  0  0  0  0
  2 19  1  0  0  0  0
  3 10  1  0  0  0  0
  4 20  2  0  0  0  0
  5  1  1  0  0  0  0
  6  8  2  0  0  0  0
  7 15  1  1  0  0  0
  7  9  1  0  0  0  0
  9 14  1  1  0  0  0
 10 21  1  6  0  0  0
 11  5  1  0  0  0  0
 11  8  1  0  0  0  0
 12  8  1  6  0  0  0
 12  4  1  0  0  0  0
 12 27  1  0  0  0  0
 13 18  1  0  0  0  0
 15 23  1  0  0  0  0
 16  2  1  0  0  0  0
 17  3  1  0  0  0  0
 18 25  2  0  0  0  0
 19 26  1  0  0  0  0
 20 17  1  0  0  0  0
 20 22  1  0  0  0  0
 22  9  1  0  0  0  0
 22 10  1  0  0  0  0
 23 14  1  0  0  0  0
 26 25  1  0  0  0  0
 26 17  2  0  0  0  0
 27 24  1  1  0  0  0
 27  7  1  0  0  0  0
 28 11  1  0  0  0  0
 29 30  1  0  0  0  0
 30 28  1  0  0  0  0
M  END
>  <MODEL>
5

>  <REMARK>
 VINA RESULT:      -7.7      2.933      5.334
  Name = 
  2 active torsions:
  status: ('A' for Active; 'I' for Inactive)
    1  A    between atoms: N_11  and  C_28
    2  A    between atoms: C_28  and  N_30
                            x       y       z     vdW  Elec       q    Type
                         _______ _______ _______ _____ _____    ______ ____

>  <TORSDO>
F 2

$$$$
=
 OpenBabel11112416143D

 30 35  0  0  1  0  0  0  0  0999 V2000
  189.0160  176.5800  145.8110 C   0  0  0  0  0  0  0  0  0  0  0  0
  191.0980  176.0330  147.0850 C   0  0  0  0  0  0  0  0  0  0  0  0
  190.2590  174.2610  142.4520 C   0  0  0  0  0  2  0  0  0  0  0  0
  188.2460  176.4200  144.6310 C   0  0  0  0  0  0  0  0  0  0  0  0
  188.5330  177.5400  146.8640 C   0  0  0  0  0  2  0  0  0  0  0  0
  185.0090  177.6640  145.9430 O   0  0  0  0  0  0  0  0  0  0  0  0
  187.1900  177.8840  142.2750 C   0  0  1  0  0  3  0  0  0  0  0  0
  186.2350  177.3740  145.8660 C   0  0  0  0  0  0  0  0  0  0  0  0
  187.9420  176.8020  141.5130 C   0  0  2  0  0  3  0  0  0  0  0  0
  189.0180  174.5400  141.5830 C   0  0  1  0  0  3  0  0  0  0  0  0
  187.0840  177.5250  147.0110 N   0  0  0  0  0  0  0  0  0  0  0  0
  186.7760  176.7760  144.6010 C   0  0  1  0  0  3  0  0  0  0  0  0
  192.3150  175.3500  147.1540 C   0  0  0  0  0  3  0  0  0  0  0  0
  187.0670  176.5530  140.3340 C   0  0  0  0  0  2  0  0  0  0  0  0
  186.5050  178.6660  141.3250 O   0  0  0  0  0  0  0  0  0  0  0  0
  190.7320  176.7750  148.1600 F   0  0  0  0  0  0  0  0  0  0  0  0
  189.9700  175.0160  143.6990 C   0  0  0  0  0  0  0  0  0  0  0  0
  192.7490  174.5580  146.0930 C   0  0  0  0  0  3  0  0  0  0  0  0
  190.2820  175.9260  145.9290 C   0  0  0  0  0  0  0  0  0  0  0  0
  188.7930  175.6900  143.5740 C   0  0  0  0  0  0  0  0  0  0  0  0
  188.1840  173.2790  141.4670 C   0  0  0  0  0  1  0  0  0  0  0  0
  188.2460  175.5820  142.2670 N   0  0  0  0  0  0  0  0  0  0  0  0
  186.4040  177.9010  140.1410 C   0  0  0  0  0  2  0  0  0  0  0  0
  185.2500  176.5130  142.7700 O   0  0  0  0  0  1  0  0  0  0  0  0
  191.9670  174.4390  144.9470 C   0  0  0  0  0  3  0  0  0  0  0  0
  190.7440  175.1120  144.8550 C   0  0  0  0  0  0  0  0  0  0  0  0
  186.1850  177.3880  143.3270 C   0  0  2  0  0  3  0  0  0  0  0  0
  186.5310  177.9260  148.2970 C   0  0  0  0  0  2  0  0  0  0  0  0
  186.3160  180.2360  148.0980 C   0  0  0  0  0  1  0  0  0  0  0  0
  187.1140  179.1900  148.7100 N   0  0  0  0  0  2  0  0  0  0  0  0
  1 19  1  0  0  0  0
  1  5  1  0  0  0  0
  2 13  1  0  0  0  0
  2 16  1  0  0  0  0
  3 17  1  0  0  0  0
  4  1  2  0  0  0  0
  5 11  1  0  0  0  0
  7 15  1  6  0  0  0
  7 27  1  0  0  0  0
  8  6  2  0  0  0  0
  8 11  1  0  0  0  0
  9 14  1  6  0  0  0
  9 22  1  0  0  0  0
  9  7  1  0  0  0  0
 10 21  1  1  0  0  0
 10 22  1  0  0  0  0
 10  3  1  0  0  0  0
 11 28  1  0  0  0  0
 12  4  1  6  0  0  0
 12  8  1  0  0  0  0
 17 26  1  0  0  0  0
 18 13  2  0  0  0  0
 19  2  2  0  0  0  0
 20 17  2  0  0  0  0
 20  4  1  0  0  0  0
 22 20  1  0  0  0  0
 23 14  1  0  0  0  0
 23 15  1  0  0  0  0
 25 18  1  0  0  0  0
 26 25  2  0  0  0  0
 26 19  1  0  0  0  0
 27 24  1  6  0  0  0
 27 12  1  0  0  0  0
 28 30  1  0  0  0  0
 29 30  1  0  0  0  0
M  END
>  <MODEL>
6

>  <REMARK>
 VINA RESULT:      -7.2      2.892      5.948
  Name = 
  2 active torsions:
  status: ('A' for Active; 'I' for Inactive)
    1  A    between atoms: N_11  and  C_28
    2  A    between atoms: C_28  and  N_30
                            x       y       z     vdW  Elec       q    Type
                         _______ _______ _______ _____ _____    ______ ____

>  <TORSDO>
F 2

$$$$
=
 OpenBabel11112416143D

 30 35  0  0  1  0  0  0  0  0999 V2000
  189.1190  174.9630  142.1060 C   0  0  0  0  0  0  0  0  0  0  0  0
  189.1790  173.7380  139.9260 C   0  0  0  0  0  0  0  0  0  0  0  0
  193.2640  174.2510  142.8180 C   0  0  0  0  0  2  0  0  0  0  0  0
  189.8170  175.4290  143.2490 C   0  0  0  0  0  0  0  0  0  0  0  0
  187.6270  175.1550  142.0430 C   0  0  0  0  0  2  0  0  0  0  0  0
  187.3080  177.8880  144.4340 O   0  0  0  0  0  0  0  0  0  0  0  0
  190.0290  175.1020  146.1910 C   0  0  1  0  0  3  0  0  0  0  0  0
  187.8550  176.9650  143.7700 C   0  0  0  0  0  0  0  0  0  0  0  0
  191.4840  174.8050  145.8550 C   0  0  2  0  0  3  0  0  0  0  0  0
  193.3330  174.9780  144.1730 C   0  0  1  0  0  3  0  0  0  0  0  0
  187.2040  176.4290  142.6100 N   0  0  0  0  0  0  0  0  0  0  0  0
  189.2330  176.5030  144.1400 C   0  0  1  0  0  3  0  0  0  0  0  0
  189.9160  173.0420  138.9640 C   0  0  0  0  0  3  0  0  0  0  0  0
  192.2220  175.4020  147.0030 C   0  0  0  0  0  2  0  0  0  0  0  0
  189.9150  175.0990  147.5950 O   0  0  0  0  0  0  0  0  0  0  0  0
  187.8610  173.9400  139.6840 F   0  0  0  0  0  0  0  0  0  0  0  0
  191.8420  174.4180  142.4200 C   0  0  0  0  0  0  0  0  0  0  0  0
  191.2790  172.8100  139.1400 C   0  0  0  0  0  3  0  0  0  0  0  0
  189.8130  174.2230  141.1000 C   0  0  0  0  0  0  0  0  0  0  0  0
  191.1580  175.0730  143.4000 C   0  0  0  0  0  0  0  0  0  0  0  0
  194.1290  176.2610  144.0240 C   0  0  0  0  0  1  0  0  0  0  0  0
  191.9530  175.2950  144.5560 N   0  0  0  0  0  0  0  0  0  0  0  0
  191.2130  175.2820  148.1260 C   0  0  0  0  0  2  0  0  0  0  0  0
  190.2510  177.5150  146.0620 O   0  0  0  0  0  1  0  0  0  0  0  0
  191.9230  173.2750  140.2840 C   0  0  0  0  0  3  0  0  0  0  0  0
  191.2070  173.9750  141.2610 C   0  0  0  0  0  0  0  0  0  0  0  0
  189.4740  176.4300  145.6510 C   0  0  2  0  0  3  0  0  0  0  0  0
  185.9520  176.9990  142.1320 C   0  0  0  0  0  2  0  0  0  0  0  0
  184.9070  178.2950  140.5050 C   0  0  0  0  0  1  0  0  0  0  0  0
  186.1930  177.7660  140.9230 N   0  0  0  0  0  2  0  0  0  0  0  0
  1  4  1  0  0  0  0
  2 19  1  0  0  0  0
  3 10  1  0  0  0  0
  4 20  2  0  0  0  0
  5  1  1  0  0  0  0
  5 11  1  0  0  0  0
  7 15  1  1  0  0  0
  8 12  1  0  0  0  0
  8  6  2  0  0  0  0
  9  7  1  0  0  0  0
  9 14  1  1  0  0  0
 10 21  1  6  0  0  0
 10 22  1  0  0  0  0
 11  8  1  0  0  0  0
 12  4  1  1  0  0  0
 12 27  1  0  0  0  0
 13 18  1  0  0  0  0
 13  2  2  0  0  0  0
 14 23  1  0  0  0  0
 15 23  1  0  0  0  0
 16  2  1  0  0  0  0
 17  3  1  0  0  0  0
 17 20  1  0  0  0  0
 18 25  2  0  0  0  0
 19 26  1  0  0  0  0
 19  1  2  0  0  0  0
 20 22  1  0  0  0  0
 22  9  1  0  0  0  0
 25 26  1  0  0  0  0
 26 17  2  0  0  0  0
 27 24  1  6  0  0  0
 27  7  1  0  0  0  0
 28 11  1  0  0  0  0
 29 30  1  0  0  0  0
 30 28  1  0  0  0  0
M  END
>  <MODEL>
7

>  <REMARK>
 VINA RESULT:      -7.1      3.023      5.716
  Name = 
  2 active torsions:
  status: ('A' for Active; 'I' for Inactive)
    1  A    between atoms: N_11  and  C_28
    2  A    between atoms: C_28  and  N_30
                            x       y       z     vdW  Elec       q    Type
                         _______ _______ _______ _____ _____    ______ ____

>  <TORSDO>
F 2

$$$$
=
 OpenBabel11112416143D

 30 35  0  0  1  0  0  0  0  0999 V2000
  191.2470  175.6570  143.7740 C   0  0  0  0  0  0  0  0  0  0  0  0
  189.6980  176.5010  145.5460 C   0  0  0  0  0  0  0  0  0  0  0  0
  194.6040  175.7920  146.4030 C   0  0  0  0  0  2  0  0  0  0  0  0
  192.5600  175.2680  143.4020 C   0  0  0  0  0  0  0  0  0  0  0  0
  190.1800  175.7000  142.7140 C   0  0  0  0  0  2  0  0  0  0  0  0
  191.7100  173.4620  140.2780 O   0  0  0  0  0  0  0  0  0  0  0  0
  194.8470  176.0110  141.6640 C   0  0  1  0  0  3  0  0  0  0  0  0
  191.5990  174.1690  141.3170 C   0  0  0  0  0  0  0  0  0  0  0  0
  195.5980  176.0130  142.9880 C   0  0  2  0  0  3  0  0  0  0  0  0
  195.6400  175.2830  145.3840 C   0  0  1  0  0  3  0  0  0  0  0  0
  190.3060  174.6160  141.7490 N   0  0  0  0  0  0  0  0  0  0  0  0
  192.8110  174.4540  142.1530 C   0  0  1  0  0  3  0  0  0  0  0  0
  189.5000  176.9100  146.8680 C   0  0  0  0  0  3  0  0  0  0  0  0
  196.9420  175.4900  142.6120 C   0  0  0  0  0  2  0  0  0  0  0  0
  195.7910  176.2500  140.6470 O   0  0  0  0  0  0  0  0  0  0  0  0
  188.6180  176.4800  144.7260 F   0  0  0  0  0  0  0  0  0  0  0  0
  193.3400  175.7960  145.6210 C   0  0  0  0  0  0  0  0  0  0  0  0
  190.5600  176.9430  147.7700 C   0  0  0  0  0  3  0  0  0  0  0  0
  190.9880  176.1080  145.1050 C   0  0  0  0  0  0  0  0  0  0  0  0
  193.5870  175.4220  144.3350 C   0  0  0  0  0  0  0  0  0  0  0  0
  196.0800  173.8810  145.7620 C   0  0  0  0  0  1  0  0  0  0  0  0
  194.9750  175.2570  144.0780 N   0  0  0  0  0  0  0  0  0  0  0  0
  197.0670  175.9450  141.1730 C   0  0  0  0  0  2  0  0  0  0  0  0
  194.9110  173.6030  141.3660 O   0  0  0  0  0  1  0  0  0  0  0  0
  191.8360  176.5650  147.3600 C   0  0  0  0  0  3  0  0  0  0  0  0
  192.0600  176.1500  146.0430 C   0  0  0  0  0  0  0  0  0  0  0  0
  194.0770  174.7220  141.3320 C   0  0  2  0  0  3  0  0  0  0  0  0
  189.1030  174.1880  141.0510 C   0  0  0  0  0  2  0  0  0  0  0  0
  188.5600  172.3610  142.3890 C   0  0  0  0  0  1  0  0  0  0  0  0
  188.1290  173.6940  142.0080 N   0  0  0  0  0  2  0  0  0  0  0  0
  1 19  1  0  0  0  0
  2 13  1  0  0  0  0
  4  1  2  0  0  0  0
  4 20  1  0  0  0  0
  5  1  1  0  0  0  0
  6  8  2  0  0  0  0
  7 15  1  6  0  0  0
  7  9  1  0  0  0  0
  8 11  1  0  0  0  0
  9 14  1  6  0  0  0
  9 22  1  0  0  0  0
 10 21  1  1  0  0  0
 10  3  1  0  0  0  0
 11  5  1  0  0  0  0
 12  8  1  6  0  0  0
 12  4  1  0  0  0  0
 13 18  2  0  0  0  0
 15 23  1  0  0  0  0
 16  2  1  0  0  0  0
 17 26  1  0  0  0  0
 17  3  1  0  0  0  0
 19  2  2  0  0  0  0
 19 26  1  0  0  0  0
 20 17  2  0  0  0  0
 22 20  1  0  0  0  0
 22 10  1  0  0  0  0
 23 14  1  0  0  0  0
 25 18  1  0  0  0  0
 26 25  2  0  0  0  0
 27 24  1  1  0  0  0
 27  7  1  0  0  0  0
 27 12  1  0  0  0  0
 28 11  1  0  0  0  0
 28 30  1  0  0  0  0
 30 29  1  0  0  0  0
M  END
>  <MODEL>
8

>  <REMARK>
 VINA RESULT:      -7.1      3.895      5.587
  Name = 
  2 active torsions:
  status: ('A' for Active; 'I' for Inactive)
    1  A    between atoms: N_11  and  C_28
    2  A    between atoms: C_28  and  N_30
                            x       y       z     vdW  Elec       q    Type
                         _______ _______ _______ _____ _____    ______ ____

>  <TORSDO>
F 2

$$$$
=
 OpenBabel11112416143D

 30 35  0  0  1  0  0  0  0  0999 V2000
  190.4370  176.1940  145.0010 C   0  0  0  0  0  0  0  0  0  0  0  0
  189.2490  177.3610  146.8670 C   0  0  0  0  0  0  0  0  0  0  0  0
  186.8490  175.8210  142.7230 C   0  0  0  0  0  2  0  0  0  0  0  0
  190.3730  175.5940  143.7170 C   0  0  0  0  0  0  0  0  0  0  0  0
  191.7340  176.1330  145.7630 C   0  0  0  0  0  2  0  0  0  0  0  0
  194.0040  175.5610  142.9690 O   0  0  0  0  0  0  0  0  0  0  0  0
  190.6490  173.0010  142.3000 C   0  0  1  0  0  3  0  0  0  0  0  0
  192.9130  175.6990  143.5880 C   0  0  0  0  0  0  0  0  0  0  0  0
  189.2390  173.3320  141.8310 C   0  0  2  0  0  3  0  0  0  0  0  0
  187.4820  175.0920  141.5230 C   0  0  1  0  0  3  0  0  0  0  0  0
  192.8970  176.2820  144.8980 N   0  0  0  0  0  0  0  0  0  0  0  0
  191.6250  175.3430  142.9070 C   0  0  1  0  0  3  0  0  0  0  0  0
  188.0660  177.8950  147.3850 C   0  0  0  0  0  3  0  0  0  0  0  0
  189.2160  172.8040  140.4380 C   0  0  0  0  0  2  0  0  0  0  0  0
  191.0390  171.8150  141.6470 O   0  0  0  0  0  0  0  0  0  0  0  0
  190.3730  177.4790  147.6160 F   0  0  0  0  0  0  0  0  0  0  0  0
  188.0050  176.0360  143.6320 C   0  0  0  0  0  0  0  0  0  0  0  0
  186.8760  177.8230  146.6650 C   0  0  0  0  0  3  0  0  0  0  0  0
  189.2540  176.7360  145.5930 C   0  0  0  0  0  0  0  0  0  0  0  0
  189.1260  175.4720  143.1020 C   0  0  0  0  0  0  0  0  0  0  0  0
  187.5130  176.0190  140.3230 C   0  0  0  0  0  1  0  0  0  0  0  0
  188.8520  174.7440  141.9130 N   0  0  0  0  0  0  0  0  0  0  0  0
  190.2050  171.6590  140.5170 C   0  0  0  0  0  2  0  0  0  0  0  0
  191.7690  174.4330  140.6920 O   0  0  0  0  0  1  0  0  0  0  0  0
  186.8550  177.2120  145.4130 C   0  0  0  0  0  3  0  0  0  0  0  0
  188.0270  176.6710  144.8730 C   0  0  0  0  0  0  0  0  0  0  0  0
  191.7120  174.0810  142.0420 C   0  0  2  0  0  3  0  0  0  0  0  0
  194.1190  176.8040  145.4920 C   0  0  0  0  0  2  0  0  0  0  0  0
  195.4680  174.9810  146.0230 C   0  0  0  0  0  1  0  0  0  0  0  0
  194.5390  175.9440  146.5850 N   0  0  0  0  0  2  0  0  0  0  0  0
  1 19  1  0  0  0  0
  1  5  1  0  0  0  0
  2 13  1  0  0  0  0
  2 16  1  0  0  0  0
  3 17  1  0  0  0  0
  4  1  2  0  0  0  0
  6  8  2  0  0  0  0
  7 15  1  6  0  0  0
  8 11  1  0  0  0  0
  9 14  1  6  0  0  0
  9 22  1  0  0  0  0
  9  7  1  0  0  0  0
 10 21  1  6  0  0  0
 10 22  1  0  0  0  0
 10  3  1  0  0  0  0
 11 28  1  0  0  0  0
 11  5  1  0  0  0  0
 12  8  1  1  0  0  0
 12  4  1  0  0  0  0
 14 23  1  0  0  0  0
 17 26  1  0  0  0  0
 18 13  2  0  0  0  0
 19  2  2  0  0  0  0
 20 17  2  0  0  0  0
 20  4  1  0  0  0  0
 22 20  1  0  0  0  0
 23 15  1  0  0  0  0
 25 18  1  0  0  0  0
 26 25  2  0  0  0  0
 26 19  1  0  0  0  0
 27 24  1  6  0  0  0
 27  7  1  0  0  0  0
 27 12  1  0  0  0  0
 28 30  1  0  0  0  0
 29 30  1  0  0  0  0
M  END
>  <MODEL>
9

>  <REMARK>
 VINA RESULT:      -7.0      2.893      6.042
  Name = 
  2 active torsions:
  status: ('A' for Active; 'I' for Inactive)
    1  A    between atoms: N_11  and  C_28
    2  A    between atoms: C_28  and  N_30
                            x       y       z     vdW  Elec       q    Type
                         _______ _______ _______ _____ _____    ______ ____

>  <TORSDO>
F 2

$$$$
