=
 OpenBabel11112416133D

 30 35  0  0  1  0  0  0  0  0999 V2000
  186.9750  177.1080  143.9620 C   0  0  1  0  0  3  0  0  0  0  0  0
  185.1000  178.2440  145.2810 C   0  0  0  0  0  0  0  0  0  0  0  0
  189.5200  177.2080  147.4780 C   0  0  0  0  0  2  0  0  0  0  0  0
  188.2640  176.2770  144.1410 C   0  0  1  0  0  3  0  0  0  0  0  0
  186.0580  176.3800  143.1790 O   0  0  0  0  0  0  0  0  0  0  0  0
  188.3630  175.5260  140.5750 O   0  0  0  0  0  0  0  0  0  0  0  0
  191.2750  176.4450  142.9390 C   0  0  1  0  0  3  0  0  0  0  0  0
  187.9520  175.9340  141.6950 C   0  0  0  0  0  0  0  0  0  0  0  0
  191.6040  176.7480  144.3800 C   0  0  2  0  0  3  0  0  0  0  0  0
  190.7170  176.7330  146.7370 C   0  0  0  0  0  0  0  0  0  0  0  0
  186.5170  176.3890  141.8350 C   0  0  2  0  0  3  0  0  0  0  0  0
  188.8440  175.9970  142.8230 N   0  0  0  0  0  0  0  0  0  0  0  0
  184.6040  178.7990  146.4640 C   0  0  0  0  0  3  0  0  0  0  0  0
  192.7710  175.8290  144.6440 C   0  0  0  0  0  2  0  0  0  0  0  0
  192.5910  175.9290  142.3910 C   0  0  0  0  0  2  0  0  0  0  0  0
  184.3280  178.3190  144.1290 O   0  0  0  0  0  1  0  0  0  0  0  0
  188.4660  176.9270  146.4340 C   0  0  2  0  0  3  0  0  0  0  0  0
  185.3640  178.7660  147.6360 C   0  0  0  0  0  3  0  0  0  0  0  0
  186.3670  177.6280  145.2650 C   0  0  0  0  0  0  0  0  0  0  0  0
  189.1600  177.0600  145.0940 C   0  0  1  0  0  3  0  0  0  0  0  0
  191.8350  176.5670  147.2920 O   0  0  0  0  0  0  0  0  0  0  0  0
  190.5040  176.5460  145.3320 N   0  0  0  0  0  0  0  0  0  0  0  0
  193.4910  175.6760  143.4470 O   0  0  0  0  0  0  0  0  0  0  0  0
  190.3050  174.1040  143.4720 C   0  0  0  0  0  1  0  0  0  0  0  0
  186.6330  178.1860  147.6300 C   0  0  0  0  0  3  0  0  0  0  0  0
  187.1520  177.6480  146.4480 C   0  0  0  0  0  0  0  0  0  0  0  0
  190.1740  175.4080  142.6890 C   0  0  2  0  0  3  0  0  0  0  0  0
  186.2980  177.7420  141.1650 C   0  0  0  0  0  2  0  0  0  0  0  0
  184.2600  178.3140  140.5470 C   0  0  0  0  0  1  0  0  0  0  0  0
  185.3850  177.6100  140.1190 O   0  0  0  0  0  0  0  0  0  0  0  0
  1  5  1  1  0  0  0
  1  4  1  0  0  0  0
  1 19  1  0  0  0  0
  2 13  1  0  0  0  0
  4 12  1  6  0  0  0
  4 20  1  0  0  0  0
  6  8  2  0  0  0  0
  7 15  1  6  0  0  0
  7  9  1  0  0  0  0
  8 11  1  0  0  0  0
  8 12  1  0  0  0  0
  9 14  1  1  0  0  0
  9 22  1  0  0  0  0
 10 21  2  0  0  0  0
 10  3  1  0  0  0  0
 11 28  1  1  0  0  0
 11  5  1  0  0  0  0
 13 18  2  0  0  0  0
 15 23  1  0  0  0  0
 16  2  1  0  0  0  0
 17 26  1  0  0  0  0
 17  3  1  1  0  0  0
 19  2  2  0  0  0  0
 19 26  1  0  0  0  0
 20 22  1  1  0  0  0
 20 17  1  0  0  0  0
 22 10  1  0  0  0  0
 23 14  1  0  0  0  0
 25 18  1  0  0  0  0
 26 25  2  0  0  0  0
 27 12  1  0  0  0  0
 27  7  1  0  0  0  0
 27 24  1  1  0  0  0
 30 29  1  0  0  0  0
 30 28  1  0  0  0  0
M  END
>  <MODEL>
1

>  <REMARK>
 VINA RESULT:      -8.8      0.000      0.000
  Name = 
  2 active torsions:
  status: ('A' for Active; 'I' for Inactive)
    1  A    between atoms: C_11  and  C_28
    2  A    between atoms: C_28  and  O_30
                            x       y       z     vdW  Elec       q    Type
                         _______ _______ _______ _____ _____    ______ ____

>  <TORSDO>
F 2

$$$$
=
 OpenBabel11112416133D

 30 35  0  0  1  0  0  0  0  0999 V2000
  189.3390  175.6910  143.8520 C   0  0  1  0  0  3  0  0  0  0  0  0
  191.1760  174.6690  145.3100 C   0  0  0  0  0  0  0  0  0  0  0  0
  187.8590  177.9230  147.2700 C   0  0  0  0  0  2  0  0  0  0  0  0
  188.3730  176.8940  143.7690 C   0  0  1  0  0  3  0  0  0  0  0  0
  190.1600  175.6760  142.7080 O   0  0  0  0  0  0  0  0  0  0  0  0
  187.5170  176.0620  140.3240 O   0  0  0  0  0  0  0  0  0  0  0  0
  185.1990  177.2380  143.1810 C   0  0  1  0  0  3  0  0  0  0  0  0
  188.1010  176.0530  141.4420 C   0  0  0  0  0  0  0  0  0  0  0  0
  185.1990  177.6960  144.6180 C   0  0  2  0  0  3  0  0  0  0  0  0
  186.6550  178.4070  146.5480 C   0  0  0  0  0  0  0  0  0  0  0  0
  189.3750  175.2540  141.6030 C   0  0  2  0  0  3  0  0  0  0  0  0
  187.5480  176.7680  142.5630 N   0  0  0  0  0  0  0  0  0  0  0  0
  191.8220  174.5340  146.5420 C   0  0  0  0  0  3  0  0  0  0  0  0
  184.3910  178.9670  144.5520 C   0  0  0  0  0  2  0  0  0  0  0  0
  183.9430  177.8760  142.6220 C   0  0  0  0  0  2  0  0  0  0  0  0
  191.5780  173.8660  144.2490 O   0  0  0  0  0  1  0  0  0  0  0  0
  188.6360  177.3740  146.0970 C   0  0  2  0  0  3  0  0  0  0  0  0
  191.4270  175.3040  147.6380 C   0  0  0  0  0  3  0  0  0  0  0  0
  190.1300  175.6000  145.1580 C   0  0  0  0  0  0  0  0  0  0  0  0
  187.6020  176.9270  145.0840 C   0  0  1  0  0  3  0  0  0  0  0  0
  185.7930  179.1490  147.0890 O   0  0  0  0  0  0  0  0  0  0  0  0
  186.5270  177.9040  145.2120 N   0  0  0  0  0  0  0  0  0  0  0  0
  183.4380  178.8300  143.5290 O   0  0  0  0  0  0  0  0  0  0  0  0
  186.7940  179.1210  142.3990 C   0  0  0  0  0  1  0  0  0  0  0  0
  190.3730  176.2100  147.5120 C   0  0  0  0  0  3  0  0  0  0  0  0
  189.7010  176.3380  146.2920 C   0  0  0  0  0  0  0  0  0  0  0  0
  186.4060  177.6470  142.3290 C   0  0  2  0  0  3  0  0  0  0  0  0
  189.0870  173.7570  141.6440 C   0  0  0  0  0  2  0  0  0  0  0  0
  188.4980  172.7340  139.7810 C   0  0  0  0  0  1  0  0  0  0  0  0
  189.6150  173.1430  140.5080 O   0  0  0  0  0  0  0  0  0  0  0  0
  1  5  1  6  0  0  0
  1 19  1  0  0  0  0
  2 13  1  0  0  0  0
  4 12  1  6  0  0  0
  4  1  1  0  0  0  0
  4 20  1  0  0  0  0
  6  8  2  0  0  0  0
  7 15  1  6  0  0  0
  7  9  1  0  0  0  0
  8 11  1  0  0  0  0
  8 12  1  0  0  0  0
  9 14  1  6  0  0  0
  9 22  1  0  0  0  0
 10 21  2  0  0  0  0
 10  3  1  0  0  0  0
 11 28  1  1  0  0  0
 11  5  1  0  0  0  0
 13 18  2  0  0  0  0
 15 23  1  0  0  0  0
 16  2  1  0  0  0  0
 17 26  1  0  0  0  0
 17  3  1  1  0  0  0
 19  2  2  0  0  0  0
 19 26  1  0  0  0  0
 20 22  1  6  0  0  0
 20 17  1  0  0  0  0
 22 10  1  0  0  0  0
 23 14  1  0  0  0  0
 25 18  1  0  0  0  0
 26 25  2  0  0  0  0
 27 24  1  1  0  0  0
 27 12  1  0  0  0  0
 27  7  1  0  0  0  0
 29 30  1  0  0  0  0
 30 28  1  0  0  0  0
M  END
>  <MODEL>
2

>  <REMARK>
 VINA RESULT:      -7.6      1.993      5.566
  Name = 
  2 active torsions:
  status: ('A' for Active; 'I' for Inactive)
    1  A    between atoms: C_11  and  C_28
    2  A    between atoms: C_28  and  O_30
                            x       y       z     vdW  Elec       q    Type
                         _______ _______ _______ _____ _____    ______ ____

>  <TORSDO>
F 2

$$$$
=
 OpenBabel11112416133D

 30 35  0  0  1  0  0  0  0  0999 V2000
  187.2210  176.8450  143.8870 C   0  0  1  0  0  3  0  0  0  0  0  0
  185.3540  178.2580  142.8570 C   0  0  0  0  0  0  0  0  0  0  0  0
  188.0840  175.1310  139.9930 C   0  0  0  0  0  2  0  0  0  0  0  0
  188.5130  176.0780  143.5270 C   0  0  1  0  0  3  0  0  0  0  0  0
  187.5200  177.8360  144.8420 O   0  0  0  0  0  0  0  0  0  0  0  0
  189.3600  175.7040  147.0540 O   0  0  0  0  0  0  0  0  0  0  0  0
  189.6760  173.1230  144.1990 C   0  0  1  0  0  3  0  0  0  0  0  0
  188.7770  176.0870  146.0030 C   0  0  0  0  0  0  0  0  0  0  0  0
  189.4910  172.9450  142.7130 C   0  0  2  0  0  3  0  0  0  0  0  0
  189.0450  174.1410  140.5400 C   0  0  0  0  0  0  0  0  0  0  0  0
  187.7530  177.1960  146.0880 C   0  0  2  0  0  3  0  0  0  0  0  0
  189.0580  175.4570  144.7390 N   0  0  0  0  0  0  0  0  0  0  0  0
  184.6000  178.6650  141.7520 C   0  0  0  0  0  3  0  0  0  0  0  0
  190.8060  172.3390  142.2930 C   0  0  0  0  0  2  0  0  0  0  0  0
  190.7190  172.0760  144.5380 C   0  0  0  0  0  2  0  0  0  0  0  0
  184.9990  178.7190  144.1180 O   0  0  0  0  0  1  0  0  0  0  0  0
  187.9290  176.0120  141.2090 C   0  0  2  0  0  3  0  0  0  0  0  0
  184.9100  178.2010  140.4720 C   0  0  0  0  0  3  0  0  0  0  0  0
  186.4480  177.3880  142.6850 C   0  0  0  0  0  0  0  0  0  0  0  0
  188.1490  175.1110  142.4070 C   0  0  1  0  0  3  0  0  0  0  0  0
  189.6500  173.3090  139.8120 O   0  0  0  0  0  0  0  0  0  0  0  0
  189.1740  174.1710  141.9670 N   0  0  0  0  0  0  0  0  0  0  0  0
  191.2910  171.5600  143.3570 O   0  0  0  0  0  0  0  0  0  0  0  0
  191.3670  175.0650  143.9320 C   0  0  0  0  0  1  0  0  0  0  0  0
  185.9720  177.3150  140.2890 C   0  0  0  0  0  3  0  0  0  0  0  0
  186.7200  176.8790  141.3870 C   0  0  0  0  0  0  0  0  0  0  0  0
  190.1580  174.4990  144.6720 C   0  0  2  0  0  3  0  0  0  0  0  0
  186.4590  176.7070  146.7300 C   0  0  0  0  0  2  0  0  0  0  0  0
  185.2080  178.3420  147.5190 C   0  0  0  0  0  1  0  0  0  0  0  0
  186.2000  177.4360  147.8900 O   0  0  0  0  0  0  0  0  0  0  0  0
  1 19  1  6  0  0  0
  1  5  1  0  0  0  0
  2 16  1  0  0  0  0
  3 10  1  0  0  0  0
  4  1  1  0  0  0  0
  4 12  1  1  0  0  0
  5 11  1  0  0  0  0
  7 15  1  6  0  0  0
  7 27  1  0  0  0  0
  8 11  1  0  0  0  0
  8  6  2  0  0  0  0
  9 14  1  6  0  0  0
  9  7  1  0  0  0  0
 10 22  1  0  0  0  0
 11 28  1  6  0  0  0
 12  8  1  0  0  0  0
 13  2  2  0  0  0  0
 14 23  1  0  0  0  0
 17  3  1  6  0  0  0
 17 26  1  0  0  0  0
 17 20  1  0  0  0  0
 18 13  1  0  0  0  0
 19  2  1  0  0  0  0
 20 22  1  6  0  0  0
 20  4  1  0  0  0  0
 21 10  2  0  0  0  0
 22  9  1  0  0  0  0
 23 15  1  0  0  0  0
 25 18  2  0  0  0  0
 25 26  1  0  0  0  0
 26 19  2  0  0  0  0
 27 24  1  6  0  0  0
 27 12  1  0  0  0  0
 28 30  1  0  0  0  0
 29 30  1  0  0  0  0
M  END
>  <MODEL>
3

>  <REMARK>
 VINA RESULT:      -7.5      1.944      5.022
  Name = 
  2 active torsions:
  status: ('A' for Active; 'I' for Inactive)
    1  A    between atoms: C_11  and  C_28
    2  A    between atoms: C_28  and  O_30
                            x       y       z     vdW  Elec       q    Type
                         _______ _______ _______ _____ _____    ______ ____

>  <TORSDO>
F 2

$$$$
=
 OpenBabel11112416133D

 30 35  0  0  1  0  0  0  0  0999 V2000
  187.8150  176.0800  143.0780 C   0  0  1  0  0  3  0  0  0  0  0  0
  185.9330  177.8060  142.9160 C   0  0  0  0  0  0  0  0  0  0  0  0
  188.9520  177.6730  146.9530 C   0  0  0  0  0  2  0  0  0  0  0  0
  188.7260  175.3590  144.0950 C   0  0  1  0  0  3  0  0  0  0  0  0
  187.0750  175.1230  142.3570 O   0  0  0  0  0  0  0  0  0  0  0  0
  189.8540  173.0190  141.5360 O   0  0  0  0  0  0  0  0  0  0  0  0
  191.9130  174.7730  144.2920 C   0  0  1  0  0  3  0  0  0  0  0  0
  189.1950  173.9270  142.1130 C   0  0  0  0  0  0  0  0  0  0  0  0
  191.7940  175.6970  145.4780 C   0  0  2  0  0  3  0  0  0  0  0  0
  190.1790  176.8400  147.0380 C   0  0  0  0  0  0  0  0  0  0  0  0
  187.9530  174.4750  141.4490 C   0  0  2  0  0  3  0  0  0  0  0  0
  189.6360  174.4610  143.3750 N   0  0  0  0  0  0  0  0  0  0  0  0
  185.2120  178.8770  143.4490 C   0  0  0  0  0  3  0  0  0  0  0  0
  192.5440  174.9460  146.5490 C   0  0  0  0  0  2  0  0  0  0  0  0
  193.1730  173.9870  144.5990 C   0  0  0  0  0  2  0  0  0  0  0  0
  185.6420  177.3750  141.6280 O   0  0  0  0  0  1  0  0  0  0  0  0
  188.2830  176.9950  145.7820 C   0  0  2  0  0  3  0  0  0  0  0  0
  185.4950  179.3550  144.7310 C   0  0  0  0  0  3  0  0  0  0  0  0
  186.9420  177.1830  143.6770 C   0  0  0  0  0  0  0  0  0  0  0  0
  189.4040  176.4450  144.9230 C   0  0  1  0  0  3  0  0  0  0  0  0
  190.9660  176.8900  148.0200 O   0  0  0  0  0  0  0  0  0  0  0  0
  190.4210  176.0280  145.8810 N   0  0  0  0  0  0  0  0  0  0  0  0
  193.5690  174.2090  145.9340 O   0  0  0  0  0  0  0  0  0  0  0  0
  190.2890  173.0140  145.2770 C   0  0  0  0  0  1  0  0  0  0  0  0
  186.5110  178.7690  145.4860 C   0  0  0  0  0  3  0  0  0  0  0  0
  187.2570  177.7110  144.9570 C   0  0  0  0  0  0  0  0  0  0  0  0
  190.7490  173.8040  144.0550 C   0  0  2  0  0  3  0  0  0  0  0  0
  188.3070  175.3650  140.2620 C   0  0  0  0  0  2  0  0  0  0  0  0
  188.4390  174.0710  138.4820 C   0  0  0  0  0  1  0  0  0  0  0  0
  187.5890  174.9610  139.1360 O   0  0  0  0  0  0  0  0  0  0  0  0
  1  5  1  1  0  0  0
  1 19  1  0  0  0  0
  1  4  1  0  0  0  0
  2 13  2  0  0  0  0
  2 19  1  0  0  0  0
  3 10  1  0  0  0  0
  4 12  1  6  0  0  0
  4 20  1  0  0  0  0
  6  8  2  0  0  0  0
  7 15  1  1  0  0  0
  7  9  1  0  0  0  0
  8 12  1  0  0  0  0
  9 22  1  0  0  0  0
  9 14  1  1  0  0  0
 10 21  2  0  0  0  0
 11 28  1  6  0  0  0
 11  8  1  0  0  0  0
 11  5  1  0  0  0  0
 12 27  1  0  0  0  0
 13 18  1  0  0  0  0
 15 23  1  0  0  0  0
 16  2  1  0  0  0  0
 17  3  1  1  0  0  0
 18 25  2  0  0  0  0
 19 26  2  0  0  0  0
 20 17  1  0  0  0  0
 20 22  1  1  0  0  0
 22 10  1  0  0  0  0
 23 14  1  0  0  0  0
 26 25  1  0  0  0  0
 26 17  1  0  0  0  0
 27  7  1  0  0  0  0
 27 24  1  1  0  0  0
 29 30  1  0  0  0  0
 30 28  1  0  0  0  0
M  END
>  <MODEL>
4

>  <REMARK>
 VINA RESULT:      -7.5      1.730      2.454
  Name = 
  2 active torsions:
  status: ('A' for Active; 'I' for Inactive)
    1  A    between atoms: C_11  and  C_28
    2  A    between atoms: C_28  and  O_30
                            x       y       z     vdW  Elec       q    Type
                         _______ _______ _______ _____ _____    ______ ____

>  <TORSDO>
F 2

$$$$
=
 OpenBabel11112416133D

 30 35  0  0  1  0  0  0  0  0999 V2000
  188.8020  175.9950  143.9800 C   0  0  1  0  0  3  0  0  0  0  0  0
  187.2750  177.8550  144.8490 C   0  0  0  0  0  0  0  0  0  0  0  0
  187.0920  176.4320  140.0140 C   0  0  0  0  0  2  0  0  0  0  0  0
  189.4250  175.4320  142.6840 C   0  0  1  0  0  3  0  0  0  0  0  0
  189.8310  176.3460  144.8760 O   0  0  0  0  0  0  0  0  0  0  0  0
  191.6480  173.2720  144.6040 O   0  0  0  0  0  0  0  0  0  0  0  0
  189.6870  172.4740  141.3750 C   0  0  1  0  0  3  0  0  0  0  0  0
  190.8090  174.1710  144.3260 C   0  0  0  0  0  0  0  0  0  0  0  0
  188.7770  173.0840  140.3390 C   0  0  2  0  0  3  0  0  0  0  0  0
  187.7970  175.2400  139.4790 C   0  0  0  0  0  0  0  0  0  0  0  0
  190.3900  175.1500  145.3990 C   0  0  2  0  0  3  0  0  0  0  0  0
  190.2290  174.2490  143.0100 N   0  0  0  0  0  0  0  0  0  0  0  0
  186.2790  178.8130  144.6390 C   0  0  0  0  0  3  0  0  0  0  0  0
  189.4460  172.6870  139.0470 C   0  0  0  0  0  2  0  0  0  0  0  0
  190.3420  171.3320  140.6210 C   0  0  0  0  0  2  0  0  0  0  0  0
  187.7360  177.6380  146.1410 O   0  0  0  0  0  1  0  0  0  0  0  0
  187.8360  176.5850  141.3180 C   0  0  2  0  0  3  0  0  0  0  0  0
  185.7720  179.0400  143.3580 C   0  0  0  0  0  3  0  0  0  0  0  0
  187.7900  177.1210  143.7620 C   0  0  0  0  0  0  0  0  0  0  0  0
  188.2740  175.1900  141.7150 C   0  0  1  0  0  3  0  0  0  0  0  0
  187.6650  174.8520  138.2880 O   0  0  0  0  0  0  0  0  0  0  0  0
  188.5840  174.5360  140.4480 N   0  0  0  0  0  0  0  0  0  0  0  0
  190.0780  171.4480  139.2410 O   0  0  0  0  0  0  0  0  0  0  0  0
  191.5970  174.1680  140.9470 C   0  0  0  0  0  1  0  0  0  0  0  0
  186.2500  178.3010  142.2760 C   0  0  0  0  0  3  0  0  0  0  0  0
  187.2290  177.3210  142.4740 C   0  0  0  0  0  0  0  0  0  0  0  0
  190.7690  173.3870  141.9630 C   0  0  2  0  0  3  0  0  0  0  0  0
  189.4720  174.4900  146.4230 C   0  0  0  0  0  2  0  0  0  0  0  0
  190.9180  175.2910  147.8830 C   0  0  0  0  0  1  0  0  0  0  0  0
  189.5510  175.1700  147.6380 O   0  0  0  0  0  0  0  0  0  0  0  0
  1 19  1  6  0  0  0
  1  5  1  0  0  0  0
  2 16  1  0  0  0  0
  4 12  1  1  0  0  0
  4  1  1  0  0  0  0
  5 11  1  0  0  0  0
  7 15  1  6  0  0  0
  7 27  1  0  0  0  0
  8  6  2  0  0  0  0
  8 11  1  0  0  0  0
  9 14  1  6  0  0  0
  9 22  1  0  0  0  0
  9  7  1  0  0  0  0
 10  3  1  0  0  0  0
 10 22  1  0  0  0  0
 11 28  1  1  0  0  0
 12  8  1  0  0  0  0
 13  2  1  0  0  0  0
 14 23  1  0  0  0  0
 17  3  1  6  0  0  0
 17 20  1  0  0  0  0
 17 26  1  0  0  0  0
 18 13  2  0  0  0  0
 19  2  2  0  0  0  0
 20 22  1  6  0  0  0
 20  4  1  0  0  0  0
 21 10  2  0  0  0  0
 23 15  1  0  0  0  0
 25 26  2  0  0  0  0
 25 18  1  0  0  0  0
 26 19  1  0  0  0  0
 27 24  1  6  0  0  0
 27 12  1  0  0  0  0
 28 30  1  0  0  0  0
 30 29  1  0  0  0  0
M  END
>  <MODEL>
5

>  <REMARK>
 VINA RESULT:      -7.2      2.467      5.604
  Name = 
  2 active torsions:
  status: ('A' for Active; 'I' for Inactive)
    1  A    between atoms: C_11  and  C_28
    2  A    between atoms: C_28  and  O_30
                            x       y       z     vdW  Elec       q    Type
                         _______ _______ _______ _____ _____    ______ ____

>  <TORSDO>
F 2

$$$$
=
 OpenBabel11112416133D

 30 35  0  0  1  0  0  0  0  0999 V2000
  190.6870  174.3070  142.7760 C   0  0  1  0  0  3  0  0  0  0  0  0
  192.7350  173.0460  143.6470 C   0  0  0  0  0  0  0  0  0  0  0  0
  190.4920  176.5660  146.4780 C   0  0  0  0  0  2  0  0  0  0  0  0
  189.8770  175.6080  142.9740 C   0  0  1  0  0  3  0  0  0  0  0  0
  191.1440  174.2440  141.4450 O   0  0  0  0  0  0  0  0  0  0  0  0
  187.9950  174.9890  139.9130 O   0  0  0  0  0  0  0  0  0  0  0  0
  186.7260  176.3070  143.3150 C   0  0  1  0  0  3  0  0  0  0  0  0
  188.8660  174.8800  140.8180 C   0  0  0  0  0  0  0  0  0  0  0  0
  187.1830  176.7130  144.6930 C   0  0  2  0  0  3  0  0  0  0  0  0
  189.1940  177.1990  146.1300 C   0  0  0  0  0  0  0  0  0  0  0  0
  190.0360  173.9460  140.6080 C   0  0  2  0  0  3  0  0  0  0  0  0
  188.7370  175.6110  142.0520 N   0  0  0  0  0  0  0  0  0  0  0  0
  193.6830  172.8020  144.6440 C   0  0  0  0  0  3  0  0  0  0  0  0
  186.5360  178.0650  144.8630 C   0  0  0  0  0  2  0  0  0  0  0  0
  185.4420  177.0940  143.1370 C   0  0  0  0  0  2  0  0  0  0  0  0
  192.7290  172.2420  142.5150 O   0  0  0  0  0  1  0  0  0  0  0  0
  190.8400  175.9780  145.1320 C   0  0  2  0  0  3  0  0  0  0  0  0
  193.7030  173.5720  145.8090 C   0  0  0  0  0  3  0  0  0  0  0  0
  191.7990  174.0880  143.8020 C   0  0  0  0  0  0  0  0  0  0  0  0
  189.5180  175.6780  144.4540 C   0  0  1  0  0  3  0  0  0  0  0  0
  188.6090  178.0100  146.8960 O   0  0  0  0  0  0  0  0  0  0  0  0
  188.6390  176.7590  144.8840 N   0  0  0  0  0  0  0  0  0  0  0  0
  185.3240  178.0650  144.1530 O   0  0  0  0  0  0  0  0  0  0  0  0
  188.2340  178.0360  142.1150 C   0  0  0  0  0  1  0  0  0  0  0  0
  192.7640  174.5880  145.9900 C   0  0  0  0  0  3  0  0  0  0  0  0
  191.7940  174.8290  145.0130 C   0  0  0  0  0  0  0  0  0  0  0  0
  187.6800  176.6140  142.1550 C   0  0  2  0  0  3  0  0  0  0  0  0
  189.6070  172.4870  140.7260 C   0  0  0  0  0  2  0  0  0  0  0  0
  189.3470  171.8280  138.6380 C   0  0  0  0  0  1  0  0  0  0  0  0
  190.2160  171.7320  139.7230 O   0  0  0  0  0  0  0  0  0  0  0  0
  1  5  1  6  0  0  0
  1  4  1  0  0  0  0
  1 19  1  0  0  0  0
  2 19  2  0  0  0  0
  2 13  1  0  0  0  0
  4 12  1  6  0  0  0
  4 20  1  0  0  0  0
  6  8  2  0  0  0  0
  7 15  1  6  0  0  0
  7  9  1  0  0  0  0
  8 12  1  0  0  0  0
  9 14  1  6  0  0  0
  9 22  1  0  0  0  0
 10  3  1  0  0  0  0
 10 21  2  0  0  0  0
 11 28  1  1  0  0  0
 11  8  1  0  0  0  0
 11  5  1  0  0  0  0
 12 27  1  0  0  0  0
 13 18  2  0  0  0  0
 15 23  1  0  0  0  0
 16  2  1  0  0  0  0
 17  3  1  1  0  0  0
 18 25  1  0  0  0  0
 19 26  1  0  0  0  0
 20 22  1  6  0  0  0
 20 17  1  0  0  0  0
 22 10  1  0  0  0  0
 23 14  1  0  0  0  0
 26 17  1  0  0  0  0
 26 25  2  0  0  0  0
 27 24  1  1  0  0  0
 27  7  1  0  0  0  0
 29 30  1  0  0  0  0
 30 28  1  0  0  0  0
M  END
>  <MODEL>
6

>  <REMARK>
 VINA RESULT:      -7.0      2.290      5.984
  Name = 
  2 active torsions:
  status: ('A' for Active; 'I' for Inactive)
    1  A    between atoms: C_11  and  C_28
    2  A    between atoms: C_28  and  O_30
                            x       y       z     vdW  Elec       q    Type
                         _______ _______ _______ _____ _____    ______ ____

>  <TORSDO>
F 2

$$$$
=
 OpenBabel11112416133D

 30 35  0  0  1  0  0  0  0  0999 V2000
  189.0710  176.0600  144.9090 C   0  0  1  0  0  3  0  0  0  0  0  0
  190.2920  176.8400  147.0180 C   0  0  0  0  0  0  0  0  0  0  0  0
  192.3700  173.3970  143.9740 C   0  0  0  0  0  2  0  0  0  0  0  0
  189.0050  174.8960  143.8960 C   0  0  1  0  0  3  0  0  0  0  0  0
  187.8090  176.2220  145.5130 O   0  0  0  0  0  0  0  0  0  0  0  0
  185.9180  176.2140  142.4720 O   0  0  0  0  0  0  0  0  0  0  0  0
  188.9670  174.6880  140.6570 C   0  0  1  0  0  3  0  0  0  0  0  0
  186.9010  176.0580  143.2460 C   0  0  0  0  0  0  0  0  0  0  0  0
  190.3050  174.0340  140.8950 C   0  0  2  0  0  3  0  0  0  0  0  0
  191.8220  173.0380  142.6420 C   0  0  0  0  0  0  0  0  0  0  0  0
  186.9330  176.8060  144.5600 C   0  0  2  0  0  3  0  0  0  0  0  0
  187.9980  175.2020  142.8740 N   0  0  0  0  0  0  0  0  0  0  0  0
  191.3920  176.7920  147.8780 C   0  0  0  0  0  3  0  0  0  0  0  0
  190.2170  172.7970  140.0370 C   0  0  0  0  0  2  0  0  0  0  0  0
  188.5650  174.1540  139.2960 C   0  0  0  0  0  2  0  0  0  0  0  0
  189.2940  177.7760  147.2560 O   0  0  0  0  0  1  0  0  0  0  0  0
  191.1600  174.0920  144.5510 C   0  0  2  0  0  3  0  0  0  0  0  0
  192.4280  175.8820  147.6550 C   0  0  0  0  0  3  0  0  0  0  0  0
  190.2100  175.9560  145.9240 C   0  0  0  0  0  0  0  0  0  0  0  0
  190.4220  174.6920  143.3720 C   0  0  1  0  0  3  0  0  0  0  0  0
  192.4070  172.2410  141.8610 O   0  0  0  0  0  0  0  0  0  0  0  0
  190.6120  173.7240  142.2970 N   0  0  0  0  0  0  0  0  0  0  0  0
  189.4130  173.0910  138.9230 O   0  0  0  0  0  0  0  0  0  0  0  0
  187.6600  172.9070  142.0070 C   0  0  0  0  0  1  0  0  0  0  0  0
  192.3760  175.0200  146.5590 C   0  0  0  0  0  3  0  0  0  0  0  0
  191.2940  175.0730  145.6750 C   0  0  0  0  0  0  0  0  0  0  0  0
  187.8610  174.3830  141.6740 C   0  0  2  0  0  3  0  0  0  0  0  0
  187.2260  178.2870  144.3460 C   0  0  0  0  0  2  0  0  0  0  0  0
  185.5670  179.6780  143.9300 C   0  0  0  0  0  1  0  0  0  0  0  0
  186.2490  179.0590  144.9750 O   0  0  0  0  0  0  0  0  0  0  0  0
  1  5  1  1  0  0  0
  1 19  1  0  0  0  0
  2 16  1  0  0  0  0
  2 13  1  0  0  0  0
  4 12  1  6  0  0  0
  4  1  1  0  0  0  0
  6  8  2  0  0  0  0
  7 15  1  6  0  0  0
  7  9  1  0  0  0  0
  7 27  1  0  0  0  0
  8 11  1  0  0  0  0
  9 14  1  6  0  0  0
  9 22  1  0  0  0  0
 10  3  1  0  0  0  0
 11 28  1  6  0  0  0
 11  5  1  0  0  0  0
 12  8  1  0  0  0  0
 17  3  1  6  0  0  0
 17 26  1  0  0  0  0
 18 13  2  0  0  0  0
 19  2  2  0  0  0  0
 20 22  1  6  0  0  0
 20  4  1  0  0  0  0
 20 17  1  0  0  0  0
 21 10  2  0  0  0  0
 22 10  1  0  0  0  0
 23 15  1  0  0  0  0
 23 14  1  0  0  0  0
 25 18  1  0  0  0  0
 26 19  1  0  0  0  0
 26 25  2  0  0  0  0
 27 24  1  1  0  0  0
 27 12  1  0  0  0  0
 28 30  1  0  0  0  0
 29 30  1  0  0  0  0
M  END
>  <MODEL>
7

>  <REMARK>
 VINA RESULT:      -6.9      2.318      4.762
  Name = 
  2 active torsions:
  status: ('A' for Active; 'I' for Inactive)
    1  A    between atoms: C_11  and  C_28
    2  A    between atoms: C_28  and  O_30
                            x       y       z     vdW  Elec       q    Type
                         _______ _______ _______ _____ _____    ______ ____

>  <TORSDO>
F 2

$$$$
=
 OpenBabel11112416133D

 30 35  0  0  1  0  0  0  0  0999 V2000
  189.3220  176.5200  145.1120 C   0  0  1  0  0  3  0  0  0  0  0  0
  187.1350  177.6130  145.8670 C   0  0  0  0  0  0  0  0  0  0  0  0
  187.5230  175.5510  141.2810 C   0  0  0  0  0  2  0  0  0  0  0  0
  190.1070  176.1060  143.8480 C   0  0  1  0  0  3  0  0  0  0  0  0
  190.0980  177.4210  145.8660 O   0  0  0  0  0  0  0  0  0  0  0  0
  193.1030  175.4740  145.8270 O   0  0  0  0  0  0  0  0  0  0  0  0
  191.6530  173.4140  142.9000 C   0  0  1  0  0  3  0  0  0  0  0  0
  191.9430  175.8530  145.5110 C   0  0  0  0  0  0  0  0  0  0  0  0
  190.5460  173.3930  141.8770 C   0  0  2  0  0  3  0  0  0  0  0  0
  188.6800  174.7320  140.8410 C   0  0  0  0  0  0  0  0  0  0  0  0
  191.1470  176.6920  146.4850 C   0  0  2  0  0  3  0  0  0  0  0  0
  191.3650  175.4680  144.2490 N   0  0  0  0  0  0  0  0  0  0  0  0
  185.8100  177.9850  145.6250 C   0  0  0  0  0  3  0  0  0  0  0  0
  191.2970  173.1470  140.5930 C   0  0  0  0  0  2  0  0  0  0  0  0
  192.7390  172.5840  142.2420 C   0  0  0  0  0  2  0  0  0  0  0  0
  187.6700  177.8190  147.1330 O   0  0  0  0  0  1  0  0  0  0  0  0
  188.1420  176.2130  142.4880 C   0  0  2  0  0  3  0  0  0  0  0  0
  185.2300  177.7680  144.3730 C   0  0  0  0  0  3  0  0  0  0  0  0
  187.9060  177.0310  144.8410 C   0  0  0  0  0  0  0  0  0  0  0  0
  189.1710  175.2350  143.0170 C   0  0  1  0  0  3  0  0  0  0  0  0
  188.7150  174.1530  139.7230 O   0  0  0  0  0  0  0  0  0  0  0  0
  189.7190  174.6060  141.8210 N   0  0  0  0  0  0  0  0  0  0  0  0
  192.4240  172.3620  140.8860 O   0  0  0  0  0  0  0  0  0  0  0  0
  192.5820  175.6960  142.1040 C   0  0  0  0  0  1  0  0  0  0  0  0
  185.9710  177.1660  143.3550 C   0  0  0  0  0  3  0  0  0  0  0  0
  187.2900  176.7660  143.5900 C   0  0  0  0  0  0  0  0  0  0  0  0
  192.2170  174.7890  143.2760 C   0  0  2  0  0  3  0  0  0  0  0  0
  190.6470  175.8540  147.6570 C   0  0  0  0  0  2  0  0  0  0  0  0
  191.5480  177.4060  148.9390 C   0  0  0  0  0  1  0  0  0  0  0  0
  191.4890  176.0260  148.7560 O   0  0  0  0  0  0  0  0  0  0  0  0
  1 19  1  6  0  0  0
  1  5  1  0  0  0  0
  2 16  1  0  0  0  0
  4 12  1  1  0  0  0
  4  1  1  0  0  0  0
  5 11  1  0  0  0  0
  7 15  1  6  0  0  0
  7 27  1  0  0  0  0
  8  6  2  0  0  0  0
  8 11  1  0  0  0  0
  9 14  1  6  0  0  0
  9  7  1  0  0  0  0
 10  3  1  0  0  0  0
 10 22  1  0  0  0  0
 11 28  1  1  0  0  0
 12  8  1  0  0  0  0
 13  2  1  0  0  0  0
 14 23  1  0  0  0  0
 17  3  1  6  0  0  0
 17 20  1  0  0  0  0
 17 26  1  0  0  0  0
 18 13  2  0  0  0  0
 19  2  2  0  0  0  0
 20 22  1  6  0  0  0
 20  4  1  0  0  0  0
 21 10  2  0  0  0  0
 22  9  1  0  0  0  0
 23 15  1  0  0  0  0
 25 26  2  0  0  0  0
 25 18  1  0  0  0  0
 26 19  1  0  0  0  0
 27 24  1  6  0  0  0
 27 12  1  0  0  0  0
 28 30  1  0  0  0  0
 30 29  1  0  0  0  0
M  END
>  <MODEL>
8

>  <REMARK>
 VINA RESULT:      -6.9      2.100      5.298
  Name = 
  2 active torsions:
  status: ('A' for Active; 'I' for Inactive)
    1  A    between atoms: C_11  and  C_28
    2  A    between atoms: C_28  and  O_30
                            x       y       z     vdW  Elec       q    Type
                         _______ _______ _______ _____ _____    ______ ____

>  <TORSDO>
F 2

$$$$
=
 OpenBabel11112416133D

 30 35  0  0  1  0  0  0  0  0999 V2000
  189.5200  174.8700  143.2670 C   0  0  1  0  0  3  0  0  0  0  0  0
  187.2720  176.0410  143.6160 C   0  0  0  0  0  0  0  0  0  0  0  0
  191.1250  176.8980  146.7540 C   0  0  0  0  0  2  0  0  0  0  0  0
  190.8120  174.4620  144.0080 C   0  0  1  0  0  3  0  0  0  0  0  0
  188.9030  173.7190  142.7420 O   0  0  0  0  0  0  0  0  0  0  0  0
  191.8420  172.3650  141.2090 O   0  0  0  0  0  0  0  0  0  0  0  0
  193.9860  174.7300  143.3820 C   0  0  1  0  0  3  0  0  0  0  0  0
  191.1330  173.1000  141.9490 C   0  0  0  0  0  0  0  0  0  0  0  0
  193.9270  175.6510  144.5750 C   0  0  2  0  0  3  0  0  0  0  0  0
  192.5090  176.4160  146.5110 C   0  0  0  0  0  0  0  0  0  0  0  0
  189.6650  173.2740  141.6300 C   0  0  2  0  0  3  0  0  0  0  0  0
  191.7170  173.7940  143.0670 N   0  0  0  0  0  0  0  0  0  0  0  0
  186.4510  176.9160  144.3320 C   0  0  0  0  0  3  0  0  0  0  0  0
  195.0900  175.1740  145.4090 C   0  0  0  0  0  2  0  0  0  0  0  0
  195.4430  174.3130  143.3470 C   0  0  0  0  0  2  0  0  0  0  0  0
  186.7940  175.4850  142.4360 O   0  0  0  0  0  1  0  0  0  0  0  0
  190.3880  176.0120  145.7790 C   0  0  2  0  0  3  0  0  0  0  0  0
  186.9070  177.5150  145.5080 C   0  0  0  0  0  3  0  0  0  0  0  0
  188.5660  175.7400  144.0860 C   0  0  0  0  0  0  0  0  0  0  0  0
  191.3640  175.7270  144.6550 C   0  0  1  0  0  3  0  0  0  0  0  0
  193.4730  176.7180  147.2630 O   0  0  0  0  0  0  0  0  0  0  0  0
  192.6600  175.6360  145.3180 N   0  0  0  0  0  0  0  0  0  0  0  0
  196.0870  174.6970  144.5420 O   0  0  0  0  0  0  0  0  0  0  0  0
  193.1790  172.6640  144.7170 C   0  0  0  0  0  1  0  0  0  0  0  0
  188.1960  177.2500  145.9710 C   0  0  0  0  0  3  0  0  0  0  0  0
  189.0390  176.3960  145.2530 C   0  0  0  0  0  0  0  0  0  0  0  0
  193.0970  173.4820  143.4320 C   0  0  2  0  0  3  0  0  0  0  0  0
  189.4660  174.1640  140.4070 C   0  0  0  0  0  2  0  0  0  0  0  0
  188.2230  172.6660  139.3730 C   0  0  0  0  0  1  0  0  0  0  0  0
  188.1910  173.9640  139.8790 O   0  0  0  0  0  0  0  0  0  0  0  0
  1  5  1  1  0  0  0
  1  4  1  0  0  0  0
  1 19  1  0  0  0  0
  2 19  2  0  0  0  0
  2 13  1  0  0  0  0
  4 12  1  6  0  0  0
  4 20  1  0  0  0  0
  6  8  2  0  0  0  0
  7 15  1  1  0  0  0
  7 27  1  0  0  0  0
  7  9  1  0  0  0  0
  8 12  1  0  0  0  0
  9 22  1  0  0  0  0
  9 14  1  1  0  0  0
 10  3  1  0  0  0  0
 10 21  2  0  0  0  0
 11 28  1  6  0  0  0
 11  8  1  0  0  0  0
 11  5  1  0  0  0  0
 12 27  1  0  0  0  0
 13 18  2  0  0  0  0
 15 23  1  0  0  0  0
 16  2  1  0  0  0  0
 17  3  1  6  0  0  0
 18 25  1  0  0  0  0
 19 26  1  0  0  0  0
 20 22  1  1  0  0  0
 20 17  1  0  0  0  0
 22 10  1  0  0  0  0
 23 14  1  0  0  0  0
 26 17  1  0  0  0  0
 26 25  2  0  0  0  0
 27 24  1  1  0  0  0
 29 30  1  0  0  0  0
 30 28  1  0  0  0  0
M  END
>  <MODEL>
9

>  <REMARK>
 VINA RESULT:      -6.9      2.211      3.518
  Name = 
  2 active torsions:
  status: ('A' for Active; 'I' for Inactive)
    1  A    between atoms: C_11  and  C_28
    2  A    between atoms: C_28  and  O_30
                            x       y       z     vdW  Elec       q    Type
                         _______ _______ _______ _____ _____    ______ ____

>  <TORSDO>
F 2

$$$$
