=
 OpenBabel11112418043D

 34 40  0  0  1  0  0  0  0  0999 V2000
  189.6680  174.2840  142.7610 C   0  0  0  0  0  0  0  0  0  0  0  0
  191.9580  173.1570  142.9730 C   0  0  0  0  0  2  0  0  0  0  0  0
  184.9240  178.4430  144.6300 C   0  0  1  0  0  3  0  0  0  0  0  0
  187.7900  175.7790  142.5800 C   0  0  0  0  0  0  0  0  0  0  0  0
  186.6350  176.5120  144.6920 C   0  0  2  0  0  3  0  0  0  0  0  0
  185.2740  177.0270  146.7020 C   0  0  0  0  0  1  0  0  0  0  0  0
  184.0040  179.1000  145.4500 O   0  0  0  0  0  1  0  0  0  0  0  0
  186.3590  178.8740  142.5980 C   0  0  0  0  0  2  0  0  0  0  0  0
  191.1450  174.5620  144.6830 C   0  0  1  0  0  3  0  0  0  0  0  0
  192.8820  175.8560  146.8690 C   0  0  0  0  0  2  0  0  0  0  0  0
  187.8590  176.1050  145.3980 N   0  0  0  0  0  0  0  0  0  0  0  0
  187.4300  178.0830  143.0270 O   0  0  0  0  0  0  0  0  0  0  0  0
  189.9970  174.9200  145.6370 C   0  0  2  0  0  3  0  0  0  0  0  0
  192.9600  173.1000  144.1250 C   0  0  0  0  0  2  0  0  0  0  0  0
  186.8840  176.8070  143.1920 C   0  0  1  0  0  3  0  0  0  0  0  0
  185.6470  179.4960  143.7930 C   0  0  0  0  0  2  0  0  0  0  0  0
  193.3790  175.0490  145.6690 C   0  0  2  0  0  3  0  0  0  0  0  0
  188.7540  175.1570  143.3710 C   0  0  0  0  0  0  0  0  0  0  0  0
  185.9340  177.6380  145.4720 C   0  0  2  0  0  3  0  0  0  0  0  0
  188.8300  175.4560  144.8230 C   0  0  0  0  0  0  0  0  0  0  0  0
  188.6090  174.6350  140.6770 C   0  0  0  0  0  3  0  0  0  0  0  0
  191.6510  176.6880  146.5340 C   0  0  0  0  0  2  0  0  0  0  0  0
  187.7400  175.5130  141.2480 N   0  0  0  0  0  0  0  0  0  0  0  0
  190.3890  175.8680  146.7840 C   0  0  0  0  0  2  0  0  0  0  0  0
  192.3930  173.9440  145.2740 C   0  0  1  0  0  3  0  0  0  0  0  0
  189.5620  174.0220  141.4310 N   0  0  0  0  0  0  0  0  0  0  0  0
  190.6740  173.5920  143.6330 C   0  0  1  0  0  3  0  0  0  0  0  0
  194.6210  174.4930  145.9870 O   0  0  0  0  0  0  0  0  0  0  0  0
  195.5440  175.2150  145.2270 C   0  0  0  0  0  2  0  0  0  0  0  0
  197.1810  172.0100  145.4280 C   0  0  0  0  0  2  0  0  0  0  0  0
  196.6370  173.5830  143.6950 C   0  0  0  0  0  2  0  0  0  0  0  0
  196.7810  174.3740  144.9780 C   0  0  0  0  0  3  0  0  0  0  0  0
  197.3610  172.2830  143.9510 C   0  0  0  0  0  2  0  0  0  0  0  0
  196.9510  173.3570  146.0900 C   0  0  0  0  0  2  0  0  0  0  0  0
  1 18  1  0  0  0  0
  1 27  1  0  0  0  0
  2 27  1  0  0  0  0
  2 14  1  0  0  0  0
  3  7  1  1  0  0  0
  3 19  1  0  0  0  0
  4 15  1  0  0  0  0
  4 18  2  0  0  0  0
  5 11  1  1  0  0  0
  5 19  1  0  0  0  0
  8 12  1  0  0  0  0
  8 16  1  0  0  0  0
  9 25  1  0  0  0  0
  9 13  1  0  0  0  0
 12 15  1  0  0  0  0
 13 24  1  0  0  0  0
 14 25  1  0  0  0  0
 15  5  1  0  0  0  0
 16  3  1  0  0  0  0
 17 28  1  0  0  0  0
 17 10  1  0  0  0  0
 18 20  1  0  0  0  0
 19  6  1  0  0  0  0
 20 11  2  0  0  0  0
 20 13  1  0  0  0  0
 21 23  2  0  0  0  0
 21 26  1  0  0  0  0
 22 24  1  0  0  0  0
 22 10  1  0  0  0  0
 23  4  1  0  0  0  0
 25 17  1  0  0  0  0
 26  1  2  0  0  0  0
 27  9  1  0  0  0  0
 29 28  1  0  0  0  0
 30 34  1  0  0  0  0
 31 33  1  0  0  0  0
 31 32  1  0  0  0  0
 32 29  1  0  0  0  0
 32 34  1  0  0  0  0
 33 30  1  0  0  0  0
M  END
>  <MODEL>
1

>  <REMARK>
 VINA RESULT:      -9.0      0.000      0.000
  Name = 
  3 active torsions:
  status: ('A' for Active; 'I' for Inactive)
    1  A    between atoms: C_17  and  O_28
    2  A    between atoms: O_28  and  C_29
    3  A    between atoms: C_29  and  C_32
                            x       y       z     vdW  Elec       q    Type
                         _______ _______ _______ _____ _____    ______ ____

>  <TORSDO>
F 3

$$$$
=
 OpenBabel11112418043D

 34 40  0  0  1  0  0  0  0  0999 V2000
  189.7920  174.9460  142.0340 C   0  0  0  0  0  0  0  0  0  0  0  0
  187.3570  175.5650  142.5280 C   0  0  0  0  0  2  0  0  0  0  0  0
  196.1460  174.2260  143.5830 C   0  0  1  0  0  3  0  0  0  0  0  0
  192.0320  174.0640  141.9850 C   0  0  0  0  0  0  0  0  0  0  0  0
  193.8400  175.3200  143.2040 C   0  0  2  0  0  3  0  0  0  0  0  0
  195.7110  176.6620  144.1250 C   0  0  0  0  0  1  0  0  0  0  0  0
  197.4200  174.5280  144.0710 O   0  0  0  0  0  1  0  0  0  0  0  0
  194.6080  172.2460  143.2830 C   0  0  0  0  0  2  0  0  0  0  0  0
  189.0600  176.0430  144.0860 C   0  0  1  0  0  3  0  0  0  0  0  0
  188.5960  176.6550  147.0660 C   0  0  0  0  0  2  0  0  0  0  0  0
  192.7580  175.9720  143.9570 N   0  0  0  0  0  0  0  0  0  0  0  0
  193.4330  172.9550  143.5490 O   0  0  0  0  0  0  0  0  0  0  0  0
  190.4370  176.6670  144.3590 C   0  0  2  0  0  3  0  0  0  0  0  0
  186.7200  176.3540  143.6710 C   0  0  0  0  0  2  0  0  0  0  0  0
  193.4030  173.9680  142.5860 C   0  0  1  0  0  3  0  0  0  0  0  0
  195.7710  172.8300  144.0760 C   0  0  0  0  0  2  0  0  0  0  0  0
  187.5410  176.2120  146.0520 C   0  0  2  0  0  3  0  0  0  0  0  0
  191.1040  174.9490  142.5310 C   0  0  0  0  0  0  0  0  0  0  0  0
  195.1130  175.2630  144.0660 C   0  0  2  0  0  3  0  0  0  0  0  0
  191.4990  175.8440  143.6490 C   0  0  0  0  0  0  0  0  0  0  0  0
  190.3900  173.2710  140.4760 C   0  0  0  0  0  3  0  0  0  0  0  0
  189.9510  176.0090  146.8080 C   0  0  0  0  0  2  0  0  0  0  0  0
  191.6560  173.2360  140.9750 N   0  0  0  0  0  0  0  0  0  0  0  0
  190.7620  176.8750  145.8490 C   0  0  0  0  0  2  0  0  0  0  0  0
  187.8410  176.7430  144.6450 C   0  0  1  0  0  3  0  0  0  0  0  0
  189.4670  174.1240  141.0000 N   0  0  0  0  0  0  0  0  0  0  0  0
  188.8170  175.9330  142.6060 C   0  0  1  0  0  3  0  0  0  0  0  0
  186.2910  176.6660  146.4790 O   0  0  0  0  0  0  0  0  0  0  0  0
  186.5410  177.9110  147.0620 C   0  0  0  0  0  2  0  0  0  0  0  0
  184.8330  179.5260  144.3280 C   0  0  0  0  0  2  0  0  0  0  0  0
  184.2060  178.2270  146.2500 C   0  0  0  0  0  2  0  0  0  0  0  0
  185.5090  178.9190  146.5930 C   0  0  0  0  0  3  0  0  0  0  0  0
  183.6340  179.0150  145.0960 C   0  0  0  0  0  2  0  0  0  0  0  0
  185.9820  179.5930  145.3190 C   0  0  0  0  0  2  0  0  0  0  0  0
  1 18  1  0  0  0  0
  1 27  1  0  0  0  0
  2 27  1  0  0  0  0
  2 14  1  0  0  0  0
  3 19  1  0  0  0  0
  3  7  1  1  0  0  0
  3 16  1  0  0  0  0
  4 18  2  0  0  0  0
  4 15  1  0  0  0  0
  5 11  1  1  0  0  0
  5 19  1  0  0  0  0
  8 12  1  0  0  0  0
  8 16  1  0  0  0  0
  9 13  1  0  0  0  0
  9 25  1  0  0  0  0
 13 24  1  0  0  0  0
 14 25  1  0  0  0  0
 15  5  1  0  0  0  0
 15 12  1  0  0  0  0
 17 28  1  0  0  0  0
 17 10  1  0  0  0  0
 18 20  1  0  0  0  0
 19  6  1  0  0  0  0
 20 11  2  0  0  0  0
 20 13  1  0  0  0  0
 21 23  2  0  0  0  0
 21 26  1  0  0  0  0
 22 10  1  0  0  0  0
 23  4  1  0  0  0  0
 24 22  1  0  0  0  0
 25 17  1  0  0  0  0
 26  1  2  0  0  0  0
 27  9  1  0  0  0  0
 28 29  1  0  0  0  0
 30 33  1  0  0  0  0
 30 34  1  0  0  0  0
 31 32  1  0  0  0  0
 32 29  1  0  0  0  0
 33 31  1  0  0  0  0
 34 32  1  0  0  0  0
M  END
>  <MODEL>
2

>  <REMARK>
 VINA RESULT:      -8.9      2.044      8.339
  Name = 
  3 active torsions:
  status: ('A' for Active; 'I' for Inactive)
    1  A    between atoms: C_17  and  O_28
    2  A    between atoms: O_28  and  C_29
    3  A    between atoms: C_29  and  C_32
                            x       y       z     vdW  Elec       q    Type
                         _______ _______ _______ _____ _____    ______ ____

>  <TORSDO>
F 3

$$$$
=
 OpenBabel11112418043D

 34 40  0  0  1  0  0  0  0  0999 V2000
  191.1590  174.8560  142.7000 C   0  0  0  0  0  0  0  0  0  0  0  0
  189.2210  176.5230  142.8550 C   0  0  0  0  0  2  0  0  0  0  0  0
  196.0740  171.2500  145.1750 C   0  0  1  0  0  3  0  0  0  0  0  0
  192.7230  173.0390  142.9230 C   0  0  0  0  0  0  0  0  0  0  0  0
  194.6310  173.2940  144.5440 C   0  0  2  0  0  3  0  0  0  0  0  0
  196.6900  173.6010  145.8920 C   0  0  0  0  0  1  0  0  0  0  0  0
  197.2270  170.9200  145.8910 O   0  0  0  0  0  1  0  0  0  0  0  0
  193.9000  170.2120  144.4220 C   0  0  0  0  0  2  0  0  0  0  0  0
  190.6220  176.1300  144.7110 C   0  0  1  0  0  3  0  0  0  0  0  0
  189.9190  176.8310  147.6230 C   0  0  0  0  0  2  0  0  0  0  0  0
  193.8370  174.3580  145.1750 N   0  0  0  0  0  0  0  0  0  0  0  0
  193.1430  171.3790  144.5680 O   0  0  0  0  0  0  0  0  0  0  0  0
  192.0500  176.0410  145.2670 C   0  0  2  0  0  3  0  0  0  0  0  0
  188.8020  177.4960  143.9570 C   0  0  0  0  0  2  0  0  0  0  0  0
  193.7600  172.3090  143.7250 C   0  0  1  0  0  3  0  0  0  0  0  0
  195.0240  170.1770  145.4510 C   0  0  0  0  0  2  0  0  0  0  0  0
  188.9950  176.9450  146.4100 C   0  0  2  0  0  3  0  0  0  0  0  0
  192.2090  174.2430  143.4010 C   0  0  0  0  0  0  0  0  0  0  0  0
  195.5490  172.6380  145.5900 C   0  0  2  0  0  3  0  0  0  0  0  0
  192.7410  174.8330  144.6560 C   0  0  0  0  0  0  0  0  0  0  0  0
  191.2240  173.1240  141.0930 C   0  0  0  0  0  3  0  0  0  0  0  0
  190.8590  175.6370  147.5220 C   0  0  0  0  0  2  0  0  0  0  0  0
  192.2160  172.4990  141.7840 N   0  0  0  0  0  0  0  0  0  0  0  0
  192.1400  176.0470  146.8030 C   0  0  0  0  0  2  0  0  0  0  0  0
  189.7670  177.3040  145.1340 C   0  0  1  0  0  3  0  0  0  0  0  0
  190.7050  174.2970  141.5470 N   0  0  0  0  0  0  0  0  0  0  0  0
  190.6450  176.1720  143.2070 C   0  0  1  0  0  3  0  0  0  0  0  0
  188.0280  177.9190  146.6750 O   0  0  0  0  0  0  0  0  0  0  0  0
  186.9130  177.2050  147.1210 C   0  0  0  0  0  2  0  0  0  0  0  0
  185.4380  179.3150  144.5970 C   0  0  0  0  0  2  0  0  0  0  0  0
  185.5300  176.9600  145.0620 C   0  0  0  0  0  2  0  0  0  0  0  0
  185.6700  177.6760  146.3890 C   0  0  0  0  0  3  0  0  0  0  0  0
  184.9140  177.9750  144.1300 C   0  0  0  0  0  2  0  0  0  0  0  0
  185.7860  179.1540  146.0660 C   0  0  0  0  0  2  0  0  0  0  0  0
  1 27  1  0  0  0  0
  1 18  1  0  0  0  0
  2 27  1  0  0  0  0
  2 14  1  0  0  0  0
  3 16  1  0  0  0  0
  3 19  1  0  0  0  0
  3  7  1  1  0  0  0
  4 18  2  0  0  0  0
  4 15  1  0  0  0  0
  5 11  1  1  0  0  0
  5 19  1  0  0  0  0
  8 12  1  0  0  0  0
  8 16  1  0  0  0  0
  9 25  1  0  0  0  0
  9 13  1  0  0  0  0
 13 24  1  0  0  0  0
 14 25  1  0  0  0  0
 15  5  1  0  0  0  0
 15 12  1  0  0  0  0
 17 28  1  0  0  0  0
 17 10  1  0  0  0  0
 18 20  1  0  0  0  0
 19  6  1  0  0  0  0
 20 11  2  0  0  0  0
 20 13  1  0  0  0  0
 21 26  1  0  0  0  0
 21 23  2  0  0  0  0
 22 10  1  0  0  0  0
 23  4  1  0  0  0  0
 24 22  1  0  0  0  0
 25 17  1  0  0  0  0
 26  1  2  0  0  0  0
 27  9  1  0  0  0  0
 28 29  1  0  0  0  0
 30 34  1  0  0  0  0
 31 32  1  0  0  0  0
 32 29  1  0  0  0  0
 33 30  1  0  0  0  0
 33 31  1  0  0  0  0
 34 32  1  0  0  0  0
M  END
>  <MODEL>
3

>  <REMARK>
 VINA RESULT:      -8.8      2.187      8.457
  Name = 
  3 active torsions:
  status: ('A' for Active; 'I' for Inactive)
    1  A    between atoms: C_17  and  O_28
    2  A    between atoms: O_28  and  C_29
    3  A    between atoms: C_29  and  C_32
                            x       y       z     vdW  Elec       q    Type
                         _______ _______ _______ _____ _____    ______ ____

>  <TORSDO>
F 3

$$$$
=
 OpenBabel11112418043D

 34 40  0  0  1  0  0  0  0  0999 V2000
  191.7910  175.8560  143.8270 C   0  0  0  0  0  0  0  0  0  0  0  0
  190.3710  177.5410  145.1320 C   0  0  0  0  0  2  0  0  0  0  0  0
  192.8640  171.4870  139.0250 C   0  0  1  0  0  3  0  0  0  0  0  0
  192.9960  174.5610  142.1940 C   0  0  0  0  0  0  0  0  0  0  0  0
  191.8180  172.6320  141.0880 C   0  0  2  0  0  3  0  0  0  0  0  0
  190.8190  170.5470  140.1900 C   0  0  0  0  0  1  0  0  0  0  0  0
  192.6700  170.3900  138.1830 O   0  0  0  0  0  1  0  0  0  0  0  0
  193.9020  173.7880  138.9990 C   0  0  0  0  0  2  0  0  0  0  0  0
  189.4050  176.2040  143.4470 C   0  0  1  0  0  3  0  0  0  0  0  0
  186.7240  176.7940  142.0560 C   0  0  0  0  0  2  0  0  0  0  0  0
  190.5630  173.2680  141.5160 N   0  0  0  0  0  0  0  0  0  0  0  0
  192.9400  174.3730  139.8270 O   0  0  0  0  0  0  0  0  0  0  0  0
  189.1950  174.8010  142.8610 C   0  0  2  0  0  3  0  0  0  0  0  0
  188.8680  177.8170  145.1370 C   0  0  0  0  0  2  0  0  0  0  0  0
  192.9960  173.6350  141.0130 C   0  0  1  0  0  3  0  0  0  0  0  0
  193.2780  172.6770  138.1630 C   0  0  0  0  0  2  0  0  0  0  0  0
  187.4510  177.6950  143.0540 C   0  0  2  0  0  3  0  0  0  0  0  0
  191.7880  174.9000  142.7990 C   0  0  0  0  0  0  0  0  0  0  0  0
  191.5760  171.8120  139.8090 C   0  0  2  0  0  3  0  0  0  0  0  0
  190.5200  174.2880  142.3240 C   0  0  0  0  0  0  0  0  0  0  0  0
  194.1400  176.0380  143.6460 C   0  0  0  0  0  3  0  0  0  0  0  0
  187.6910  176.0300  141.1600 C   0  0  0  0  0  2  0  0  0  0  0  0
  194.1480  175.1420  142.6220 N   0  0  0  0  0  0  0  0  0  0  0  0
  188.0690  174.7060  141.8150 C   0  0  0  0  0  2  0  0  0  0  0  0
  188.2240  176.8850  144.1020 C   0  0  1  0  0  3  0  0  0  0  0  0
  192.9690  176.3870  144.2460 N   0  0  0  0  0  0  0  0  0  0  0  0
  190.4860  176.1800  144.4940 C   0  0  1  0  0  3  0  0  0  0  0  0
  186.5100  178.5160  143.6820 O   0  0  0  0  0  0  0  0  0  0  0  0
  185.4160  177.6830  143.9310 C   0  0  0  0  0  2  0  0  0  0  0  0
  185.9320  177.4330  147.4900 C   0  0  0  0  0  2  0  0  0  0  0  0
  185.4790  179.1900  145.9150 C   0  0  0  0  0  2  0  0  0  0  0  0
  184.8940  177.9180  145.3350 C   0  0  0  0  0  3  0  0  0  0  0  0
  185.6380  178.9140  147.3900 C   0  0  0  0  0  2  0  0  0  0  0  0
  185.3360  176.7910  146.2490 C   0  0  0  0  0  2  0  0  0  0  0  0
  1 26  1  0  0  0  0
  1 27  1  0  0  0  0
  2 14  1  0  0  0  0
  3  7  1  6  0  0  0
  3 19  1  0  0  0  0
  4 23  2  0  0  0  0
  4 18  1  0  0  0  0
  5 11  1  6  0  0  0
  8 12  1  0  0  0  0
  9 25  1  0  0  0  0
  9 27  1  0  0  0  0
 10 17  1  0  0  0  0
 11 20  2  0  0  0  0
 12 15  1  0  0  0  0
 13  9  1  0  0  0  0
 15  5  1  0  0  0  0
 15  4  1  0  0  0  0
 16  8  1  0  0  0  0
 16  3  1  0  0  0  0
 17 28  1  0  0  0  0
 17 25  1  0  0  0  0
 18  1  2  0  0  0  0
 19  6  1  0  0  0  0
 19  5  1  0  0  0  0
 20 18  1  0  0  0  0
 20 13  1  0  0  0  0
 21 26  2  0  0  0  0
 22 24  1  0  0  0  0
 22 10  1  0  0  0  0
 23 21  1  0  0  0  0
 24 13  1  0  0  0  0
 25 14  1  0  0  0  0
 27  2  1  0  0  0  0
 28 29  1  0  0  0  0
 29 32  1  0  0  0  0
 31 33  1  0  0  0  0
 32 31  1  0  0  0  0
 32 34  1  0  0  0  0
 33 30  1  0  0  0  0
 34 30  1  0  0  0  0
M  END
>  <MODEL>
4

>  <REMARK>
 VINA RESULT:      -8.6      3.092      8.518
  Name = 
  3 active torsions:
  status: ('A' for Active; 'I' for Inactive)
    1  A    between atoms: C_17  and  O_28
    2  A    between atoms: O_28  and  C_29
    3  A    between atoms: C_29  and  C_32
                            x       y       z     vdW  Elec       q    Type
                         _______ _______ _______ _____ _____    ______ ____

>  <TORSDO>
F 3

$$$$
=
 OpenBabel11112418043D

 34 40  0  0  1  0  0  0  0  0999 V2000
  192.2320  175.6600  145.9780 C   0  0  0  0  0  0  0  0  0  0  0  0
  190.4120  177.4470  146.2060 C   0  0  0  0  0  2  0  0  0  0  0  0
  194.9860  170.3300  143.2780 C   0  0  1  0  0  3  0  0  0  0  0  0
  193.9540  174.1330  145.2720 C   0  0  0  0  0  0  0  0  0  0  0  0
  193.2720  171.8490  144.4660 C   0  0  2  0  0  3  0  0  0  0  0  0
  192.6910  169.4930  143.9510 C   0  0  0  0  0  1  0  0  0  0  0  0
  195.1190  169.0310  142.7790 O   0  0  0  0  0  1  0  0  0  0  0  0
  195.9150  172.6480  142.9100 C   0  0  0  0  0  2  0  0  0  0  0  0
  190.1120  175.5990  144.7710 C   0  0  1  0  0  3  0  0  0  0  0  0
  188.0530  175.4610  142.4890 C   0  0  0  0  0  2  0  0  0  0  0  0
  191.9310  172.4170  144.2640 N   0  0  0  0  0  0  0  0  0  0  0  0
  194.7130  173.3110  143.1770 O   0  0  0  0  0  0  0  0  0  0  0  0
  190.1480  174.0750  144.5880 C   0  0  2  0  0  3  0  0  0  0  0  0
  188.9910  177.5280  145.6490 C   0  0  0  0  0  2  0  0  0  0  0  0
  194.3800  172.9310  144.4810 C   0  0  1  0  0  3  0  0  0  0  0  0
  195.6410  171.2850  142.2840 C   0  0  0  0  0  2  0  0  0  0  0  0
  188.3720  176.6800  143.3550 C   0  0  2  0  0  3  0  0  0  0  0  0
  192.6040  174.4710  145.3320 C   0  0  0  0  0  0  0  0  0  0  0  0
  193.5010  170.6920  143.4770 C   0  0  2  0  0  3  0  0  0  0  0  0
  191.5900  173.6030  144.6790 C   0  0  0  0  0  0  0  0  0  0  0  0
  194.4970  176.0740  146.5120 C   0  0  0  0  0  3  0  0  0  0  0  0
  189.2860  174.6100  142.2140 C   0  0  0  0  0  2  0  0  0  0  0  0
  194.8760  174.9430  145.8550 N   0  0  0  0  0  0  0  0  0  0  0  0
  189.4500  173.5670  143.3150 C   0  0  0  0  0  2  0  0  0  0  0  0
  188.7620  176.2810  144.7840 C   0  0  1  0  0  3  0  0  0  0  0  0
  193.1840  176.4250  146.5760 N   0  0  0  0  0  0  0  0  0  0  0  0
  190.7710  175.9890  146.0670 C   0  0  1  0  0  3  0  0  0  0  0  0
  187.2540  177.5170  143.3790 O   0  0  0  0  0  0  0  0  0  0  0  0
  186.1870  176.6820  143.7200 C   0  0  0  0  0  2  0  0  0  0  0  0
  185.5190  177.9380  147.0320 C   0  0  0  0  0  2  0  0  0  0  0  0
  185.6490  178.8550  144.8150 C   0  0  0  0  0  2  0  0  0  0  0  0
  185.2470  177.4020  144.6670 C   0  0  0  0  0  3  0  0  0  0  0  0
  185.3150  179.2130  146.2420 C   0  0  0  0  0  2  0  0  0  0  0  0
  185.3370  176.7910  146.0530 C   0  0  0  0  0  2  0  0  0  0  0  0
  1 27  1  0  0  0  0
  1 26  1  0  0  0  0
  3  7  1  6  0  0  0
  3 19  1  0  0  0  0
  4 18  1  0  0  0  0
  4 23  2  0  0  0  0
  5 11  1  6  0  0  0
  5 15  1  0  0  0  0
  8 12  1  0  0  0  0
  9 25  1  0  0  0  0
  9 27  1  0  0  0  0
 10 17  1  0  0  0  0
 11 20  2  0  0  0  0
 12 15  1  0  0  0  0
 13 20  1  0  0  0  0
 13  9  1  0  0  0  0
 14  2  1  0  0  0  0
 15  4  1  0  0  0  0
 16  8  1  0  0  0  0
 16  3  1  0  0  0  0
 17 28  1  0  0  0  0
 17 25  1  0  0  0  0
 18  1  2  0  0  0  0
 19  6  1  0  0  0  0
 19  5  1  0  0  0  0
 20 18  1  0  0  0  0
 21 26  2  0  0  0  0
 22 10  1  0  0  0  0
 22 24  1  0  0  0  0
 23 21  1  0  0  0  0
 24 13  1  0  0  0  0
 25 14  1  0  0  0  0
 27  2  1  0  0  0  0
 28 29  1  0  0  0  0
 29 32  1  0  0  0  0
 31 33  1  0  0  0  0
 32 31  1  0  0  0  0
 32 34  1  0  0  0  0
 33 30  1  0  0  0  0
 34 30  1  0  0  0  0
M  END
>  <MODEL>
5

>  <REMARK>
 VINA RESULT:      -8.4      2.519      8.845
  Name = 
  3 active torsions:
  status: ('A' for Active; 'I' for Inactive)
    1  A    between atoms: C_17  and  O_28
    2  A    between atoms: O_28  and  C_29
    3  A    between atoms: C_29  and  C_32
                            x       y       z     vdW  Elec       q    Type
                         _______ _______ _______ _____ _____    ______ ____

>  <TORSDO>
F 3

$$$$
=
 OpenBabel11112418043D

 34 40  0  0  1  0  0  0  0  0999 V2000
  190.9300  176.0710  144.9360 C   0  0  0  0  0  0  0  0  0  0  0  0
  192.6390  174.4940  143.8610 C   0  0  0  0  0  2  0  0  0  0  0  0
  184.9280  178.6520  145.7080 C   0  0  1  0  0  3  0  0  0  0  0  0
  189.0580  177.1190  146.0270 C   0  0  0  0  0  0  0  0  0  0  0  0
  187.1480  177.9360  144.6060 C   0  0  2  0  0  3  0  0  0  0  0  0
  185.3850  179.0270  143.2440 C   0  0  0  0  0  1  0  0  0  0  0  0
  183.6990  179.2360  145.3880 O   0  0  0  0  0  1  0  0  0  0  0  0
  185.9410  177.0880  147.4100 C   0  0  0  0  0  2  0  0  0  0  0  0
  190.4630  174.6970  142.9740 C   0  0  1  0  0  3  0  0  0  0  0  0
  189.1420  172.6660  141.0770 C   0  0  0  0  0  2  0  0  0  0  0  0
  187.6550  177.0340  143.5610 N   0  0  0  0  0  0  0  0  0  0  0  0
  186.8240  176.4770  146.5140 O   0  0  0  0  0  0  0  0  0  0  0  0
  189.3440  175.6210  142.4730 C   0  0  2  0  0  3  0  0  0  0  0  0
  192.5890  173.6610  142.5810 C   0  0  0  0  0  2  0  0  0  0  0  0
  187.6120  177.5230  146.0240 C   0  0  1  0  0  3  0  0  0  0  0  0
  184.6670  177.5140  146.6920 C   0  0  0  0  0  2  0  0  0  0  0  0
  190.4910  172.5130  141.7790 C   0  0  2  0  0  3  0  0  0  0  0  0
  189.6120  176.5480  144.8830 C   0  0  0  0  0  0  0  0  0  0  0  0
  185.6290  178.1200  144.4430 C   0  0  2  0  0  3  0  0  0  0  0  0
  188.7950  176.4110  143.6500 C   0  0  0  0  0  0  0  0  0  0  0  0
  191.0970  176.7910  147.1810 C   0  0  0  0  0  3  0  0  0  0  0  0
  188.1260  173.4080  141.9360 C   0  0  0  0  0  2  0  0  0  0  0  0
  189.8070  177.2230  147.1560 N   0  0  0  0  0  0  0  0  0  0  0  0
  188.2320  174.9080  141.6830 C   0  0  0  0  0  2  0  0  0  0  0  0
  191.2030  173.8600  141.9530 C   0  0  1  0  0  3  0  0  0  0  0  0
  191.6540  176.2240  146.0760 N   0  0  0  0  0  0  0  0  0  0  0  0
  191.5240  175.4940  143.6840 C   0  0  1  0  0  3  0  0  0  0  0  0
  191.2890  171.6430  141.0300 O   0  0  0  0  0  0  0  0  0  0  0  0
  190.7520  171.6850  139.7410 C   0  0  0  0  0  2  0  0  0  0  0  0
  193.0670  174.1650  138.5220 C   0  0  0  0  0  2  0  0  0  0  0  0
  193.2040  171.9170  139.3570 C   0  0  0  0  0  2  0  0  0  0  0  0
  191.8270  172.0750  138.7450 C   0  0  0  0  0  3  0  0  0  0  0  0
  194.0330  173.0240  138.7540 C   0  0  0  0  0  2  0  0  0  0  0  0
  191.6900  173.5410  138.3800 C   0  0  0  0  0  2  0  0  0  0  0  0
  1 26  1  0  0  0  0
  3  7  1  6  0  0  0
  3 16  1  0  0  0  0
  4 23  2  0  0  0  0
  5 11  1  6  0  0  0
  5 15  1  0  0  0  0
  6 19  1  0  0  0  0
  9 27  1  0  0  0  0
 10 17  1  0  0  0  0
 10 22  1  0  0  0  0
 11 20  2  0  0  0  0
 12  8  1  0  0  0  0
 13  9  1  0  0  0  0
 13 20  1  0  0  0  0
 14  2  1  0  0  0  0
 15  4  1  0  0  0  0
 15 12  1  0  0  0  0
 16  8  1  0  0  0  0
 17 25  1  0  0  0  0
 18  1  2  0  0  0  0
 18  4  1  0  0  0  0
 19  5  1  0  0  0  0
 19  3  1  0  0  0  0
 20 18  1  0  0  0  0
 23 21  1  0  0  0  0
 24 22  1  0  0  0  0
 24 13  1  0  0  0  0
 25 14  1  0  0  0  0
 25  9  1  0  0  0  0
 26 21  2  0  0  0  0
 27  2  1  0  0  0  0
 27  1  1  0  0  0  0
 28 17  1  0  0  0  0
 29 28  1  0  0  0  0
 30 33  1  0  0  0  0
 32 31  1  0  0  0  0
 32 29  1  0  0  0  0
 33 31  1  0  0  0  0
 34 30  1  0  0  0  0
 34 32  1  0  0  0  0
M  END
>  <MODEL>
6

>  <REMARK>
 VINA RESULT:      -8.4      2.736      5.013
  Name = 
  3 active torsions:
  status: ('A' for Active; 'I' for Inactive)
    1  A    between atoms: C_17  and  O_28
    2  A    between atoms: O_28  and  C_29
    3  A    between atoms: C_29  and  C_32
                            x       y       z     vdW  Elec       q    Type
                         _______ _______ _______ _____ _____    ______ ____

>  <TORSDO>
F 3

$$$$
=
 OpenBabel11112418043D

 34 40  0  0  1  0  0  0  0  0999 V2000
  189.7850  175.6130  146.2730 C   0  0  0  0  0  0  0  0  0  0  0  0
  187.3800  176.4120  146.6380 C   0  0  0  0  0  2  0  0  0  0  0  0
  195.2870  174.8210  142.7530 C   0  0  1  0  0  3  0  0  0  0  0  0
  192.1300  175.3520  145.7960 C   0  0  0  0  0  0  0  0  0  0  0  0
  192.8120  174.6840  143.4680 C   0  0  2  0  0  3  0  0  0  0  0  0
  193.5260  173.7390  141.2880 C   0  0  0  0  0  1  0  0  0  0  0  0
  196.1260  174.4870  141.6870 O   0  0  0  0  0  1  0  0  0  0  0  0
  195.1410  176.4750  144.6550 C   0  0  0  0  0  2  0  0  0  0  0  0
  188.3720  176.5180  144.5020 C   0  0  1  0  0  3  0  0  0  0  0  0
  187.3580  178.2610  142.1770 C   0  0  0  0  0  2  0  0  0  0  0  0
  191.4820  175.1460  143.0410 N   0  0  0  0  0  0  0  0  0  0  0  0
  193.7500  176.6110  144.6000 O   0  0  0  0  0  0  0  0  0  0  0  0
  189.1380  175.7930  143.3860 C   0  0  2  0  0  3  0  0  0  0  0  0
  186.3050  176.8830  145.6590 C   0  0  0  0  0  2  0  0  0  0  0  0
  193.2590  175.3180  144.8080 C   0  0  1  0  0  3  0  0  0  0  0  0
  195.7020  176.1980  143.2650 C   0  0  0  0  0  2  0  0  0  0  0  0
  186.8300  178.2590  143.6120 C   0  0  2  0  0  3  0  0  0  0  0  0
  190.8200  175.4670  145.3370 C   0  0  0  0  0  0  0  0  0  0  0  0
  193.8110  174.8340  142.3080 C   0  0  2  0  0  3  0  0  0  0  0  0
  190.5420  175.4800  143.8770 C   0  0  0  0  0  0  0  0  0  0  0  0
  191.3590  175.4630  148.0310 C   0  0  0  0  0  3  0  0  0  0  0  0
  188.8620  178.0240  142.1160 C   0  0  0  0  0  2  0  0  0  0  0  0
  192.3760  175.3600  147.1330 N   0  0  0  0  0  0  0  0  0  0  0  0
  189.1470  176.5280  142.0340 C   0  0  0  0  0  2  0  0  0  0  0  0
  186.9210  176.8690  144.2540 C   0  0  1  0  0  3  0  0  0  0  0  0
  190.0720  175.5840  147.6020 N   0  0  0  0  0  0  0  0  0  0  0  0
  188.3760  175.6960  145.7620 C   0  0  1  0  0  3  0  0  0  0  0  0
  185.5030  178.6950  143.6010 O   0  0  0  0  0  0  0  0  0  0  0  0
  185.1630  178.7770  142.2480 C   0  0  0  0  0  2  0  0  0  0  0  0
  181.5790  178.8550  141.8660 C   0  0  0  0  0  2  0  0  0  0  0  0
  183.4570  178.1570  140.5400 C   0  0  0  0  0  2  0  0  0  0  0  0
  183.8710  178.0260  141.9920 C   0  0  0  0  0  3  0  0  0  0  0  0
  181.9490  178.1830  140.5620 C   0  0  0  0  0  2  0  0  0  0  0  0
  182.7470  178.6310  142.8110 C   0  0  0  0  0  2  0  0  0  0  0  0
  1 26  1  0  0  0  0
  3  7  1  6  0  0  0
  3 16  1  0  0  0  0
  4 23  2  0  0  0  0
  5 11  1  6  0  0  0
  5 15  1  0  0  0  0
  6 19  1  0  0  0  0
  9 27  1  0  0  0  0
 10 17  1  0  0  0  0
 11 20  2  0  0  0  0
 12  8  1  0  0  0  0
 12 15  1  0  0  0  0
 13 20  1  0  0  0  0
 13  9  1  0  0  0  0
 14  2  1  0  0  0  0
 15  4  1  0  0  0  0
 16  8  1  0  0  0  0
 17 25  1  0  0  0  0
 18  4  1  0  0  0  0
 18  1  2  0  0  0  0
 19  3  1  0  0  0  0
 19  5  1  0  0  0  0
 20 18  1  0  0  0  0
 22 10  1  0  0  0  0
 23 21  1  0  0  0  0
 24 22  1  0  0  0  0
 24 13  1  0  0  0  0
 25  9  1  0  0  0  0
 25 14  1  0  0  0  0
 26 21  2  0  0  0  0
 27  1  1  0  0  0  0
 27  2  1  0  0  0  0
 28 17  1  0  0  0  0
 29 28  1  0  0  0  0
 30 34  1  0  0  0  0
 31 33  1  0  0  0  0
 31 32  1  0  0  0  0
 32 29  1  0  0  0  0
 32 34  1  0  0  0  0
 33 30  1  0  0  0  0
M  END
>  <MODEL>
7

>  <REMARK>
 VINA RESULT:      -8.3      2.445      9.180
  Name = 
  3 active torsions:
  status: ('A' for Active; 'I' for Inactive)
    1  A    between atoms: C_17  and  O_28
    2  A    between atoms: O_28  and  C_29
    3  A    between atoms: C_29  and  C_32
                            x       y       z     vdW  Elec       q    Type
                         _______ _______ _______ _____ _____    ______ ____

>  <TORSDO>
F 3

$$$$
=
 OpenBabel11112418043D

 34 40  0  0  1  0  0  0  0  0999 V2000
  189.3770  174.6990  142.1780 C   0  0  0  0  0  0  0  0  0  0  0  0
  191.6820  173.6640  141.7600 C   0  0  0  0  0  2  0  0  0  0  0  0
  185.0720  178.4170  145.4840 C   0  0  1  0  0  3  0  0  0  0  0  0
  187.4710  176.1150  142.5770 C   0  0  0  0  0  0  0  0  0  0  0  0
  186.7970  176.5710  144.9580 C   0  0  2  0  0  3  0  0  0  0  0  0
  185.9050  176.8130  147.2600 C   0  0  0  0  0  1  0  0  0  0  0  0
  184.3410  178.9420  146.5530 O   0  0  0  0  0  1  0  0  0  0  0  0
  186.0100  179.1220  143.2490 C   0  0  0  0  0  2  0  0  0  0  0  0
  191.2370  174.8460  143.7510 C   0  0  1  0  0  3  0  0  0  0  0  0
  193.3850  175.9870  145.6350 C   0  0  0  0  0  2  0  0  0  0  0  0
  188.1560  176.1520  145.3310 N   0  0  0  0  0  0  0  0  0  0  0  0
  187.1670  178.3420  143.3440 O   0  0  0  0  0  0  0  0  0  0  0  0
  190.3200  175.0500  144.9650 C   0  0  2  0  0  3  0  0  0  0  0  0
  192.9160  173.5350  142.6520 C   0  0  0  0  0  2  0  0  0  0  0  0
  186.7010  177.0310  143.4820 C   0  0  1  0  0  3  0  0  0  0  0  0
  185.5670  179.5830  144.6330 C   0  0  0  0  0  2  0  0  0  0  0  0
  193.6210  175.3330  144.2740 C   0  0  2  0  0  3  0  0  0  0  0  0
  188.6010  175.4600  143.0650 C   0  0  0  0  0  0  0  0  0  0  0  0
  186.2610  177.5770  145.9920 C   0  0  2  0  0  3  0  0  0  0  0  0
  188.9910  175.6110  144.4900 C   0  0  0  0  0  0  0  0  0  0  0  0
  187.8740  175.2130  140.4270 C   0  0  0  0  0  3  0  0  0  0  0  0
  192.0910  176.7910  145.6710 C   0  0  0  0  0  2  0  0  0  0  0  0
  187.1340  175.9860  141.2670 N   0  0  0  0  0  0  0  0  0  0  0  0
  190.9360  175.8910  146.0970 C   0  0  0  0  0  2  0  0  0  0  0  0
  192.5980  174.2290  143.9830 C   0  0  1  0  0  3  0  0  0  0  0  0
  188.9840  174.5700  140.8820 N   0  0  0  0  0  0  0  0  0  0  0  0
  190.5670  173.9690  142.7280 C   0  0  1  0  0  3  0  0  0  0  0  0
  194.9150  174.8050  144.2510 O   0  0  0  0  0  0  0  0  0  0  0  0
  194.9900  173.9880  145.3820 C   0  0  0  0  0  2  0  0  0  0  0  0
  196.6860  170.9640  146.3690 C   0  0  0  0  0  2  0  0  0  0  0  0
  194.5650  171.5320  145.3950 C   0  0  0  0  0  2  0  0  0  0  0  0
  195.5370  172.6250  145.0010 C   0  0  0  0  0  3  0  0  0  0  0  0
  195.4290  170.3580  145.7840 C   0  0  0  0  0  2  0  0  0  0  0  0
  196.8200  172.3490  145.7610 C   0  0  0  0  0  2  0  0  0  0  0  0
  1 27  1  0  0  0  0
  1 18  1  0  0  0  0
  2 14  1  0  0  0  0
  2 27  1  0  0  0  0
  3 19  1  0  0  0  0
  3  7  1  1  0  0  0
  4 18  2  0  0  0  0
  4 15  1  0  0  0  0
  5 11  1  1  0  0  0
  5 19  1  0  0  0  0
  8 12  1  0  0  0  0
  8 16  1  0  0  0  0
  9 25  1  0  0  0  0
  9 13  1  0  0  0  0
 10 22  1  0  0  0  0
 12 15  1  0  0  0  0
 13 24  1  0  0  0  0
 14 25  1  0  0  0  0
 15  5  1  0  0  0  0
 16  3  1  0  0  0  0
 17 10  1  0  0  0  0
 18 20  1  0  0  0  0
 19  6  1  0  0  0  0
 20 13  1  0  0  0  0
 20 11  2  0  0  0  0
 21 26  1  0  0  0  0
 21 23  2  0  0  0  0
 22 24  1  0  0  0  0
 23  4  1  0  0  0  0
 25 17  1  0  0  0  0
 26  1  2  0  0  0  0
 27  9  1  0  0  0  0
 28 17  1  0  0  0  0
 28 29  1  0  0  0  0
 31 33  1  0  0  0  0
 32 29  1  0  0  0  0
 32 31  1  0  0  0  0
 32 34  1  0  0  0  0
 33 30  1  0  0  0  0
 34 30  1  0  0  0  0
M  END
>  <MODEL>
8

>  <REMARK>
 VINA RESULT:      -8.2      1.134      1.307
  Name = 
  3 active torsions:
  status: ('A' for Active; 'I' for Inactive)
    1  A    between atoms: C_17  and  O_28
    2  A    between atoms: O_28  and  C_29
    3  A    between atoms: C_29  and  C_32
                            x       y       z     vdW  Elec       q    Type
                         _______ _______ _______ _____ _____    ______ ____

>  <TORSDO>
F 3

$$$$
=
 OpenBabel11112418043D

 34 40  0  0  1  0  0  0  0  0999 V2000
  192.1380  176.3000  146.4270 C   0  0  0  0  0  0  0  0  0  0  0  0
  194.2800  174.9090  146.2330 C   0  0  0  0  0  2  0  0  0  0  0  0
  185.8700  177.7360  145.0370 C   0  0  1  0  0  3  0  0  0  0  0  0
  189.9080  177.1550  146.7280 C   0  0  0  0  0  0  0  0  0  0  0  0
  188.3880  177.2670  144.7260 C   0  0  2  0  0  3  0  0  0  0  0  0
  186.9520  177.6810  142.7470 C   0  0  0  0  0  1  0  0  0  0  0  0
  184.7150  177.9850  144.2910 O   0  0  0  0  0  1  0  0  0  0  0  0
  186.5620  176.7880  147.2720 C   0  0  0  0  0  2  0  0  0  0  0  0
  192.4400  174.4880  144.8200 C   0  0  1  0  0  3  0  0  0  0  0  0
  192.0010  171.8900  143.2310 C   0  0  0  0  0  2  0  0  0  0  0  0
  189.2890  176.2890  144.0980 N   0  0  0  0  0  0  0  0  0  0  0  0
  187.7380  176.1950  146.8010 O   0  0  0  0  0  0  0  0  0  0  0  0
  191.3930  175.0470  143.8460 C   0  0  2  0  0  3  0  0  0  0  0  0
  194.7100  173.8380  145.2310 C   0  0  0  0  0  2  0  0  0  0  0  0
  188.4820  177.2530  146.2720 C   0  0  1  0  0  3  0  0  0  0  0  0
  185.4980  176.7960  146.1810 C   0  0  0  0  0  2  0  0  0  0  0  0
  193.1040  172.1560  144.2560 C   0  0  2  0  0  3  0  0  0  0  0  0
  190.8370  176.4830  145.9350 C   0  0  0  0  0  0  0  0  0  0  0  0
  186.9680  177.1060  144.1570 C   0  0  2  0  0  3  0  0  0  0  0  0
  190.4300  175.9370  144.6160 C   0  0  0  0  0  0  0  0  0  0  0  0
  191.5610  177.4830  148.3900 C   0  0  0  0  0  3  0  0  0  0  0  0
  190.6920  172.5750  143.6010 C   0  0  0  0  0  2  0  0  0  0  0  0
  190.2850  177.6350  147.9430 N   0  0  0  0  0  0  0  0  0  0  0  0
  190.6600  173.9810  143.0130 C   0  0  0  0  0  2  0  0  0  0  0  0
  193.5450  173.6240  144.2550 C   0  0  1  0  0  3  0  0  0  0  0  0
  192.4810  176.8240  147.6340 N   0  0  0  0  0  0  0  0  0  0  0  0
  193.1360  175.6090  145.5440 C   0  0  1  0  0  3  0  0  0  0  0  0
  194.1920  171.3280  143.9680 O   0  0  0  0  0  0  0  0  0  0  0  0
  193.9550  170.1580  144.6950 C   0  0  0  0  0  2  0  0  0  0  0  0
  195.8840  168.4780  147.2360 C   0  0  0  0  0  2  0  0  0  0  0  0
  196.1670  170.3970  145.8180 C   0  0  0  0  0  2  0  0  0  0  0  0
  194.6770  170.2210  146.0270 C   0  0  0  0  0  3  0  0  0  0  0  0
  196.8160  169.6340  146.9470 C   0  0  0  0  0  2  0  0  0  0  0  0
  194.5040  168.9130  146.7750 C   0  0  0  0  0  2  0  0  0  0  0  0
  1 26  1  0  0  0  0
  3  7  1  6  0  0  0
  3 16  1  0  0  0  0
  4 23  2  0  0  0  0
  5 11  1  6  0  0  0
  5 15  1  0  0  0  0
  6 19  1  0  0  0  0
  9 27  1  0  0  0  0
 10 22  1  0  0  0  0
 10 17  1  0  0  0  0
 11 20  2  0  0  0  0
 12  8  1  0  0  0  0
 13 20  1  0  0  0  0
 13  9  1  0  0  0  0
 14  2  1  0  0  0  0
 15  4  1  0  0  0  0
 15 12  1  0  0  0  0
 16  8  1  0  0  0  0
 18  1  2  0  0  0  0
 18  4  1  0  0  0  0
 19  5  1  0  0  0  0
 19  3  1  0  0  0  0
 20 18  1  0  0  0  0
 23 21  1  0  0  0  0
 24 22  1  0  0  0  0
 24 13  1  0  0  0  0
 25 17  1  0  0  0  0
 25  9  1  0  0  0  0
 25 14  1  0  0  0  0
 26 21  2  0  0  0  0
 27  2  1  0  0  0  0
 27  1  1  0  0  0  0
 28 17  1  0  0  0  0
 28 29  1  0  0  0  0
 29 32  1  0  0  0  0
 31 32  1  0  0  0  0
 31 33  1  0  0  0  0
 32 34  1  0  0  0  0
 33 30  1  0  0  0  0
 34 30  1  0  0  0  0
M  END
>  <MODEL>
9

>  <REMARK>
 VINA RESULT:      -8.2      2.312      4.287
  Name = 
  3 active torsions:
  status: ('A' for Active; 'I' for Inactive)
    1  A    between atoms: C_17  and  O_28
    2  A    between atoms: O_28  and  C_29
    3  A    between atoms: C_29  and  C_32
                            x       y       z     vdW  Elec       q    Type
                         _______ _______ _______ _____ _____    ______ ____

>  <TORSDO>
F 3

$$$$
