=
 OpenBabel11112416153D

 30 35  0  0  1  0  0  0  0  0999 V2000
  186.6720  176.9620  144.1520 C   0  0  0  0  0  0  0  0  0  0  0  0
  185.0430  178.2120  145.5790 C   0  0  0  0  0  0  0  0  0  0  0  0
  189.5250  177.0780  147.1240 N   0  0  0  0  0  2  0  0  0  0  0  0
  187.9460  176.3350  144.0170 C   0  0  0  0  0  0  0  0  0  0  0  0
  185.6970  176.8680  142.9950 C   0  0  0  0  0  2  0  0  0  0  0  0
  188.1600  175.8670  140.4810 O   0  0  0  0  0  0  0  0  0  0  0  0
  190.6910  175.6720  142.6910 C   0  0  1  0  0  3  0  0  0  0  0  0
  187.5930  176.0260  141.5960 C   0  0  0  0  0  0  0  0  0  0  0  0
  191.1920  175.9800  144.0820 C   0  0  2  0  0  3  0  0  0  0  0  0
  190.5270  176.5190  146.4110 C   0  0  0  0  0  0  0  0  0  0  0  0
  186.3870  176.7970  141.7070 N   0  0  0  0  0  0  0  0  0  0  0  0
  188.1340  175.4000  142.8460 C   0  0  1  0  0  3  0  0  0  0  0  0
  184.7360  178.8090  146.8060 C   0  0  0  0  0  3  0  0  0  0  0  0
  192.1460  174.8620  144.3450 C   0  0  0  0  0  2  0  0  0  0  0  0
  191.7370  175.0380  141.9910 O   0  0  0  0  0  0  0  0  0  0  0  0
  184.0930  178.2420  144.6120 F   0  0  0  0  0  0  0  0  0  0  0  0
  188.5010  177.0660  146.2540 C   0  0  0  0  0  0  0  0  0  0  0  0
  185.6640  178.8200  147.8440 C   0  0  0  0  0  3  0  0  0  0  0  0
  186.3080  177.6030  145.3760 C   0  0  0  0  0  0  0  0  0  0  0  0
  188.8740  176.4890  145.0690 C   0  0  0  0  0  0  0  0  0  0  0  0
  191.6970  176.4160  146.8690 O   0  0  0  0  0  0  0  0  0  0  0  0
  190.1860  176.1420  145.1500 N   0  0  0  0  0  0  0  0  0  0  0  0
  192.6450  174.5400  142.9530 C   0  0  0  0  0  2  0  0  0  0  0  0
  189.5940  173.5750  142.6600 O   0  0  0  0  0  0  0  0  0  0  0  0
  186.9140  178.2340  147.6680 C   0  0  0  0  0  3  0  0  0  0  0  0
  187.2420  177.6270  146.4500 C   0  0  0  0  0  0  0  0  0  0  0  0
  189.4840  174.7910  142.7110 C   0  0  0  0  0  0  0  0  0  0  0  0
  185.8010  177.4750  140.5590 C   0  0  0  0  0  2  0  0  0  0  0  0
  183.4360  178.1830  140.4020 C   0  0  0  0  0  1  0  0  0  0  0  0
  184.7830  178.5020  141.0160 C   0  0  0  0  0  2  0  0  0  0  0  0
  1 19  1  0  0  0  0
  2 13  1  0  0  0  0
  4  1  2  0  0  0  0
  4 20  1  0  0  0  0
  5  1  1  0  0  0  0
  6  8  2  0  0  0  0
  7 15  1  6  0  0  0
  7 27  1  0  0  0  0
  7  9  1  0  0  0  0
  8 11  1  0  0  0  0
  9 14  1  1  0  0  0
  9 22  1  0  0  0  0
 10 21  2  0  0  0  0
 10  3  1  0  0  0  0
 11  5  1  0  0  0  0
 12  8  1  6  0  0  0
 12  4  1  0  0  0  0
 13 18  2  0  0  0  0
 15 23  1  0  0  0  0
 16  2  1  0  0  0  0
 17 26  1  0  0  0  0
 17  3  1  0  0  0  0
 19  2  2  0  0  0  0
 19 26  1  0  0  0  0
 20 22  1  0  0  0  0
 20 17  2  0  0  0  0
 22 10  1  0  0  0  0
 23 14  1  0  0  0  0
 24 27  2  0  0  0  0
 25 18  1  0  0  0  0
 26 25  2  0  0  0  0
 27 12  1  0  0  0  0
 28 30  1  0  0  0  0
 28 11  1  0  0  0  0
 29 30  1  0  0  0  0
M  END
>  <MODEL>
1

>  <REMARK>
 VINA RESULT:      -8.7      0.000      0.000
  Name = 
  2 active torsions:
  status: ('A' for Active; 'I' for Inactive)
    1  A    between atoms: N_11  and  C_28
    2  A    between atoms: C_28  and  C_30
                            x       y       z     vdW  Elec       q    Type
                         _______ _______ _______ _____ _____    ______ ____

>  <TORSDO>
F 2

$$$$
=
 OpenBabel11112416153D

 30 35  0  0  1  0  0  0  0  0999 V2000
  189.8120  176.1470  144.0460 C   0  0  0  0  0  0  0  0  0  0  0  0
  191.7300  175.4160  145.4740 C   0  0  0  0  0  0  0  0  0  0  0  0
  187.8250  177.6770  147.3170 N   0  0  0  0  0  2  0  0  0  0  0  0
  188.5600  176.8190  143.9370 C   0  0  0  0  0  0  0  0  0  0  0  0
  190.4560  175.6130  142.7820 C   0  0  0  0  0  2  0  0  0  0  0  0
  187.4450  175.7700  140.7080 O   0  0  0  0  0  0  0  0  0  0  0  0
  185.5780  177.2150  143.1060 C   0  0  1  0  0  3  0  0  0  0  0  0
  188.2790  176.0260  141.6190 C   0  0  0  0  0  0  0  0  0  0  0  0
  185.4480  177.5930  144.5630 C   0  0  2  0  0  3  0  0  0  0  0  0
  186.6840  178.0090  146.6740 C   0  0  0  0  0  0  0  0  0  0  0  0
  189.4570  175.2220  141.7860 N   0  0  0  0  0  0  0  0  0  0  0  0
  188.0930  177.1870  142.5480 C   0  0  1  0  0  3  0  0  0  0  0  0
  192.3330  175.3600  146.7340 C   0  0  0  0  0  3  0  0  0  0  0  0
  184.6180  178.8330  144.5090 C   0  0  0  0  0  2  0  0  0  0  0  0
  184.3990  177.6240  142.4530 O   0  0  0  0  0  0  0  0  0  0  0  0
  192.3960  174.8540  144.4350 F   0  0  0  0  0  0  0  0  0  0  0  0
  188.5890  177.1850  146.3260 C   0  0  0  0  0  0  0  0  0  0  0  0
  191.7060  175.9120  147.8490 C   0  0  0  0  0  3  0  0  0  0  0  0
  190.4680  176.0420  145.3110 C   0  0  0  0  0  0  0  0  0  0  0  0
  187.9330  177.2500  145.1260 C   0  0  0  0  0  0  0  0  0  0  0  0
  185.6750  178.4490  147.2880 O   0  0  0  0  0  0  0  0  0  0  0  0
  186.6940  177.7680  145.3360 N   0  0  0  0  0  0  0  0  0  0  0  0
  183.7810  178.5980  143.2700 C   0  0  0  0  0  2  0  0  0  0  0  0
  186.6710  178.9360  141.9050 O   0  0  0  0  0  0  0  0  0  0  0  0
  190.4650  176.5270  147.7160 C   0  0  0  0  0  3  0  0  0  0  0  0
  189.8440  176.5990  146.4630 C   0  0  0  0  0  0  0  0  0  0  0  0
  186.7660  177.8540  142.4630 C   0  0  0  0  0  0  0  0  0  0  0  0
  189.7120  174.0510  140.9590 C   0  0  0  0  0  2  0  0  0  0  0  0
  188.6450  172.4300  142.4930 C   0  0  0  0  0  1  0  0  0  0  0  0
  189.9450  172.8310  141.8300 C   0  0  0  0  0  2  0  0  0  0  0  0
  1 19  1  0  0  0  0
  2 13  1  0  0  0  0
  4  1  2  0  0  0  0
  4 20  1  0  0  0  0
  5  1  1  0  0  0  0
  6  8  2  0  0  0  0
  7 15  1  6  0  0  0
  7  9  1  0  0  0  0
  8 11  1  0  0  0  0
  9 14  1  6  0  0  0
  9 22  1  0  0  0  0
 10 21  2  0  0  0  0
 10  3  1  0  0  0  0
 11  5  1  0  0  0  0
 12  8  1  6  0  0  0
 12  4  1  0  0  0  0
 13 18  2  0  0  0  0
 15 23  1  0  0  0  0
 16  2  1  0  0  0  0
 17 26  1  0  0  0  0
 17  3  1  0  0  0  0
 19  2  2  0  0  0  0
 19 26  1  0  0  0  0
 20 22  1  0  0  0  0
 20 17  2  0  0  0  0
 22 10  1  0  0  0  0
 23 14  1  0  0  0  0
 24 27  2  0  0  0  0
 25 18  1  0  0  0  0
 26 25  2  0  0  0  0
 27 12  1  0  0  0  0
 27  7  1  0  0  0  0
 28 11  1  0  0  0  0
 28 30  1  0  0  0  0
 30 29  1  0  0  0  0
M  END
>  <MODEL>
2

>  <REMARK>
 VINA RESULT:      -8.7      2.788      5.533
  Name = 
  2 active torsions:
  status: ('A' for Active; 'I' for Inactive)
    1  A    between atoms: N_11  and  C_28
    2  A    between atoms: C_28  and  C_30
                            x       y       z     vdW  Elec       q    Type
                         _______ _______ _______ _____ _____    ______ ____

>  <TORSDO>
F 2

$$$$
=
 OpenBabel11112416153D

 30 35  0  0  1  0  0  0  0  0999 V2000
  187.3530  176.5260  144.4330 C   0  0  0  0  0  0  0  0  0  0  0  0
  185.3450  177.8350  145.1460 C   0  0  0  0  0  0  0  0  0  0  0  0
  189.3740  177.5530  147.8760 N   0  0  0  0  0  2  0  0  0  0  0  0
  188.6590  176.0370  144.7300 C   0  0  0  0  0  0  0  0  0  0  0  0
  186.7000  176.0950  143.1340 C   0  0  0  0  0  2  0  0  0  0  0  0
  189.7660  174.9130  141.5240 O   0  0  0  0  0  0  0  0  0  0  0  0
  191.6830  175.4490  144.2380 C   0  0  1  0  0  3  0  0  0  0  0  0
  188.9330  175.2200  142.4200 C   0  0  0  0  0  0  0  0  0  0  0  0
  191.8060  176.0800  145.6050 C   0  0  2  0  0  3  0  0  0  0  0  0
  190.5550  176.9840  147.5470 C   0  0  0  0  0  0  0  0  0  0  0  0
  187.6890  175.8530  142.0830 N   0  0  0  0  0  0  0  0  0  0  0  0
  189.1900  174.9180  143.8650 C   0  0  1  0  0  3  0  0  0  0  0  0
  184.7070  178.6210  146.1100 C   0  0  0  0  0  3  0  0  0  0  0  0
  192.7360  175.1530  146.3140 C   0  0  0  0  0  2  0  0  0  0  0  0
  192.9090  174.8160  143.9490 O   0  0  0  0  0  0  0  0  0  0  0  0
  184.6620  177.5640  144.0060 F   0  0  0  0  0  0  0  0  0  0  0  0
  188.5980  177.2520  146.8200 C   0  0  0  0  0  0  0  0  0  0  0  0
  185.3490  178.9430  147.3040 C   0  0  0  0  0  3  0  0  0  0  0  0
  186.6580  177.3490  145.3720 C   0  0  0  0  0  0  0  0  0  0  0  0
  189.2880  176.5000  145.9060 C   0  0  0  0  0  0  0  0  0  0  0  0
  191.5800  177.1090  148.2690 O   0  0  0  0  0  0  0  0  0  0  0  0
  190.5590  176.3300  146.3550 N   0  0  0  0  0  0  0  0  0  0  0  0
  193.5830  174.6240  145.1770 C   0  0  0  0  0  2  0  0  0  0  0  0
  190.7670  173.2740  144.4170 O   0  0  0  0  0  0  0  0  0  0  0  0
  186.6390  178.4830  147.5470 C   0  0  0  0  0  3  0  0  0  0  0  0
  187.2960  177.6910  146.5980 C   0  0  0  0  0  0  0  0  0  0  0  0
  190.5690  174.4550  144.1760 C   0  0  0  0  0  0  0  0  0  0  0  0
  187.3610  176.2200  140.7130 C   0  0  0  0  0  2  0  0  0  0  0  0
  185.5990  177.8720  140.1750 C   0  0  0  0  0  1  0  0  0  0  0  0
  187.0330  177.6990  140.6280 C   0  0  0  0  0  2  0  0  0  0  0  0
  1  4  2  0  0  0  0
  1 19  1  0  0  0  0
  2 19  2  0  0  0  0
  2 13  1  0  0  0  0
  4 20  1  0  0  0  0
  5  1  1  0  0  0  0
  6  8  2  0  0  0  0
  7 15  1  1  0  0  0
  7  9  1  0  0  0  0
  9 14  1  1  0  0  0
  9 22  1  0  0  0  0
 10  3  1  0  0  0  0
 10 21  2  0  0  0  0
 11  8  1  0  0  0  0
 11  5  1  0  0  0  0
 12  8  1  6  0  0  0
 12 27  1  0  0  0  0
 12  4  1  0  0  0  0
 13 18  2  0  0  0  0
 15 23  1  0  0  0  0
 16  2  1  0  0  0  0
 17  3  1  0  0  0  0
 18 25  1  0  0  0  0
 19 26  1  0  0  0  0
 20 22  1  0  0  0  0
 20 17  2  0  0  0  0
 22 10  1  0  0  0  0
 23 14  1  0  0  0  0
 26 17  1  0  0  0  0
 26 25  2  0  0  0  0
 27  7  1  0  0  0  0
 27 24  2  0  0  0  0
 28 11  1  0  0  0  0
 29 30  1  0  0  0  0
 30 28  1  0  0  0  0
M  END
>  <MODEL>
3

>  <REMARK>
 VINA RESULT:      -8.7      1.243      1.539
  Name = 
  2 active torsions:
  status: ('A' for Active; 'I' for Inactive)
    1  A    between atoms: N_11  and  C_28
    2  A    between atoms: C_28  and  C_30
                            x       y       z     vdW  Elec       q    Type
                         _______ _______ _______ _____ _____    ______ ____

>  <TORSDO>
F 2

$$$$
=
 OpenBabel11112416153D

 30 35  0  0  1  0  0  0  0  0999 V2000
  189.3040  175.1470  144.2230 C   0  0  0  0  0  0  0  0  0  0  0  0
  190.8550  173.5860  143.0340 C   0  0  0  0  0  0  0  0  0  0  0  0
  187.4410  176.1560  140.6880 N   0  0  0  0  0  2  0  0  0  0  0  0
  188.1910  176.0360  144.1700 C   0  0  0  0  0  0  0  0  0  0  0  0
  189.9240  174.8470  145.5740 C   0  0  0  0  0  2  0  0  0  0  0  0
  188.4140  177.6770  147.3360 O   0  0  0  0  0  0  0  0  0  0  0  0
  186.5930  178.6660  144.6850 C   0  0  1  0  0  3  0  0  0  0  0  0
  188.5900  176.7530  146.4950 C   0  0  0  0  0  0  0  0  0  0  0  0
  186.3340  178.5430  143.2010 C   0  0  2  0  0  3  0  0  0  0  0  0
  186.6330  177.1120  141.1960 C   0  0  0  0  0  0  0  0  0  0  0  0
  189.8000  175.9800  146.4920 N   0  0  0  0  0  0  0  0  0  0  0  0
  187.5410  176.4070  145.4820 C   0  0  1  0  0  3  0  0  0  0  0  0
  191.2600  172.9760  141.8430 C   0  0  0  0  0  3  0  0  0  0  0  0
  184.8700  178.8180  143.0980 C   0  0  0  0  0  2  0  0  0  0  0  0
  185.6980  179.6270  145.1950 O   0  0  0  0  0  0  0  0  0  0  0  0
  191.5290  173.2630  144.1650 F   0  0  0  0  0  0  0  0  0  0  0  0
  188.0950  175.7140  141.7750 C   0  0  0  0  0  0  0  0  0  0  0  0
  190.6170  173.2620  140.6410 C   0  0  0  0  0  3  0  0  0  0  0  0
  189.7750  174.5060  143.0360 C   0  0  0  0  0  0  0  0  0  0  0  0
  187.6670  176.3650  142.9010 C   0  0  0  0  0  0  0  0  0  0  0  0
  185.8970  177.8240  140.4620 O   0  0  0  0  0  0  0  0  0  0  0  0
  186.7310  177.2830  142.5420 N   0  0  0  0  0  0  0  0  0  0  0  0
  184.6430  179.7560  144.2630 C   0  0  0  0  0  2  0  0  0  0  0  0
  185.3250  177.0610  145.8750 O   0  0  0  0  0  0  0  0  0  0  0  0
  189.5590  174.1660  140.6160 C   0  0  0  0  0  3  0  0  0  0  0  0
  189.1330  174.7860  141.7970 C   0  0  0  0  0  0  0  0  0  0  0  0
  186.4070  177.3660  145.3970 C   0  0  0  0  0  0  0  0  0  0  0  0
  190.8930  176.2620  147.4110 C   0  0  0  0  0  2  0  0  0  0  0  0
  193.1930  176.4050  146.5130 C   0  0  0  0  0  1  0  0  0  0  0  0
  192.1240  175.4640  147.0260 C   0  0  0  0  0  2  0  0  0  0  0  0
  1  5  1  0  0  0  0
  2 19  1  0  0  0  0
  2 16  1  0  0  0  0
  3 10  1  0  0  0  0
  3 17  1  0  0  0  0
  4  1  1  0  0  0  0
  5 11  1  0  0  0  0
  7 15  1  1  0  0  0
  7 27  1  0  0  0  0
  8  6  2  0  0  0  0
  9 14  1  1  0  0  0
  9  7  1  0  0  0  0
 10 22  1  0  0  0  0
 11  8  1  0  0  0  0
 11 28  1  0  0  0  0
 12  4  1  6  0  0  0
 12  8  1  0  0  0  0
 13  2  2  0  0  0  0
 14 23  1  0  0  0  0
 17 26  2  0  0  0  0
 17 20  1  0  0  0  0
 18 13  1  0  0  0  0
 19  1  2  0  0  0  0
 20  4  2  0  0  0  0
 21 10  2  0  0  0  0
 22 20  1  0  0  0  0
 22  9  1  0  0  0  0
 23 15  1  0  0  0  0
 25 18  2  0  0  0  0
 25 26  1  0  0  0  0
 26 19  1  0  0  0  0
 27 12  1  0  0  0  0
 27 24  2  0  0  0  0
 29 30  1  0  0  0  0
 30 28  1  0  0  0  0
M  END
>  <MODEL>
4

>  <REMARK>
 VINA RESULT:      -8.4      2.913      7.122
  Name = 
  2 active torsions:
  status: ('A' for Active; 'I' for Inactive)
    1  A    between atoms: N_11  and  C_28
    2  A    between atoms: C_28  and  C_30
                            x       y       z     vdW  Elec       q    Type
                         _______ _______ _______ _____ _____    ______ ____

>  <TORSDO>
F 2

$$$$
=
 OpenBabel11112416153D

 30 35  0  0  1  0  0  0  0  0999 V2000
  187.8270  176.6400  143.5660 C   0  0  0  0  0  0  0  0  0  0  0  0
  186.2040  178.1970  142.4730 C   0  0  0  0  0  0  0  0  0  0  0  0
  188.4340  174.6190  140.0260 N   0  0  0  0  0  2  0  0  0  0  0  0
  188.7560  175.5640  143.4470 C   0  0  0  0  0  0  0  0  0  0  0  0
  187.6730  177.3110  144.9170 C   0  0  0  0  0  2  0  0  0  0  0  0
  189.2650  174.6540  146.8640 O   0  0  0  0  0  0  0  0  0  0  0  0
  190.0930  172.8360  144.1560 C   0  0  1  0  0  3  0  0  0  0  0  0
  188.9680  175.4090  145.8990 C   0  0  0  0  0  0  0  0  0  0  0  0
  189.9200  172.6120  142.6720 C   0  0  2  0  0  3  0  0  0  0  0  0
  189.2290  173.6480  140.5260 C   0  0  0  0  0  0  0  0  0  0  0  0
  187.9170  176.3800  146.0180 N   0  0  0  0  0  0  0  0  0  0  0  0
  189.7090  175.3450  144.5970 C   0  0  1  0  0  3  0  0  0  0  0  0
  185.5480  178.6250  141.3150 C   0  0  0  0  0  3  0  0  0  0  0  0
  191.2430  172.0520  142.2670 C   0  0  0  0  0  2  0  0  0  0  0  0
  190.9710  171.8440  144.6380 O   0  0  0  0  0  0  0  0  0  0  0  0
  185.9360  178.8580  143.6260 F   0  0  0  0  0  0  0  0  0  0  0  0
  188.1870  175.3830  141.1040 C   0  0  0  0  0  0  0  0  0  0  0  0
  185.7710  177.9910  140.0950 C   0  0  0  0  0  3  0  0  0  0  0  0
  187.1140  177.1100  142.4210 C   0  0  0  0  0  0  0  0  0  0  0  0
  188.8410  174.8980  142.2050 C   0  0  0  0  0  0  0  0  0  0  0  0
  189.6240  172.6790  139.8230 O   0  0  0  0  0  0  0  0  0  0  0  0
  189.5080  173.7680  141.8510 N   0  0  0  0  0  0  0  0  0  0  0  0
  191.6820  171.3370  143.5260 C   0  0  0  0  0  2  0  0  0  0  0  0
  191.8440  174.3770  144.5560 O   0  0  0  0  0  0  0  0  0  0  0  0
  186.6540  176.9180  140.0190 C   0  0  0  0  0  3  0  0  0  0  0  0
  187.3260  176.4750  141.1650 C   0  0  0  0  0  0  0  0  0  0  0  0
  190.6400  174.1930  144.4600 C   0  0  0  0  0  0  0  0  0  0  0  0
  187.1140  176.4960  147.2270 C   0  0  0  0  0  2  0  0  0  0  0  0
  185.4680  178.3090  147.5820 C   0  0  0  0  0  1  0  0  0  0  0  0
  185.7190  176.9870  146.8880 C   0  0  0  0  0  2  0  0  0  0  0  0
  1  5  1  0  0  0  0
  2 16  1  0  0  0  0
  3 10  1  0  0  0  0
  3 17  1  0  0  0  0
  4  1  1  0  0  0  0
  5 11  1  0  0  0  0
  7 27  1  6  0  0  0
  7 15  1  0  0  0  0
  8 11  1  0  0  0  0
  8  6  2  0  0  0  0
  9 14  1  6  0  0  0
  9  7  1  0  0  0  0
 10 22  1  0  0  0  0
 11 28  1  0  0  0  0
 12  4  1  6  0  0  0
 12  8  1  0  0  0  0
 13  2  2  0  0  0  0
 14 23  1  0  0  0  0
 17 26  2  0  0  0  0
 17 20  1  0  0  0  0
 18 13  1  0  0  0  0
 19  2  1  0  0  0  0
 19  1  2  0  0  0  0
 20  4  2  0  0  0  0
 21 10  2  0  0  0  0
 22 20  1  0  0  0  0
 22  9  1  0  0  0  0
 23 15  1  0  0  0  0
 25 18  2  0  0  0  0
 25 26  1  0  0  0  0
 26 19  1  0  0  0  0
 27 24  2  0  0  0  0
 27 12  1  0  0  0  0
 30 28  1  0  0  0  0
 30 29  1  0  0  0  0
M  END
>  <MODEL>
5

>  <REMARK>
 VINA RESULT:      -7.9      2.104      5.027
  Name = 
  2 active torsions:
  status: ('A' for Active; 'I' for Inactive)
    1  A    between atoms: N_11  and  C_28
    2  A    between atoms: C_28  and  C_30
                            x       y       z     vdW  Elec       q    Type
                         _______ _______ _______ _____ _____    ______ ____

>  <TORSDO>
F 2

$$$$
=
 OpenBabel11112416153D

 30 35  0  0  1  0  0  0  0  0999 V2000
  187.4400  176.2260  143.7030 C   0  0  0  0  0  0  0  0  0  0  0  0
  185.3470  177.5930  143.7720 C   0  0  0  0  0  0  0  0  0  0  0  0
  188.7400  177.8450  147.2630 N   0  0  0  0  0  2  0  0  0  0  0  0
  188.6530  175.8190  144.3320 C   0  0  0  0  0  0  0  0  0  0  0  0
  187.0560  175.5740  142.3890 C   0  0  0  0  0  2  0  0  0  0  0  0
  190.3670  174.2070  141.6440 O   0  0  0  0  0  0  0  0  0  0  0  0
  191.7060  175.2200  144.5600 C   0  0  1  0  0  3  0  0  0  0  0  0
  189.3750  174.6400  142.2910 C   0  0  0  0  0  0  0  0  0  0  0  0
  191.5600  176.0700  145.8010 C   0  0  2  0  0  3  0  0  0  0  0  0
  189.9550  177.2540  147.2760 C   0  0  0  0  0  0  0  0  0  0  0  0
  188.2330  175.1830  141.6120 N   0  0  0  0  0  0  0  0  0  0  0  0
  189.3320  174.5850  143.7880 C   0  0  1  0  0  3  0  0  0  0  0  0
  184.5380  178.5140  144.4460 C   0  0  0  0  0  3  0  0  0  0  0  0
  192.3160  175.2910  146.8250 C   0  0  0  0  0  2  0  0  0  0  0  0
  192.9560  174.5740  144.6310 O   0  0  0  0  0  0  0  0  0  0  0  0
  184.9040  177.1250  142.5790 F   0  0  0  0  0  0  0  0  0  0  0  0
  188.1890  177.3590  146.1370 C   0  0  0  0  0  0  0  0  0  0  0  0
  184.9310  179.0400  145.6740 C   0  0  0  0  0  3  0  0  0  0  0  0
  186.5810  177.1770  144.3340 C   0  0  0  0  0  0  0  0  0  0  0  0
  189.0380  176.4820  145.5170 C   0  0  0  0  0  0  0  0  0  0  0  0
  190.8160  177.5170  148.1590 O   0  0  0  0  0  0  0  0  0  0  0  0
  190.1910  176.4140  146.2340 N   0  0  0  0  0  0  0  0  0  0  0  0
  193.3670  174.6000  145.9840 C   0  0  0  0  0  2  0  0  0  0  0  0
  190.7440  173.0860  144.9080 O   0  0  0  0  0  0  0  0  0  0  0  0
  186.1400  178.6530  146.2440 C   0  0  0  0  0  3  0  0  0  0  0  0
  186.9640  177.7290  145.5900 C   0  0  0  0  0  0  0  0  0  0  0  0
  190.6140  174.2070  144.4410 C   0  0  0  0  0  0  0  0  0  0  0  0
  188.1920  175.3140  140.1620 C   0  0  0  0  0  2  0  0  0  0  0  0
  188.1920  174.1030  138.0040 C   0  0  0  0  0  1  0  0  0  0  0  0
  188.1910  173.9430  139.5100 C   0  0  0  0  0  2  0  0  0  0  0  0
  1  4  2  0  0  0  0
  1 19  1  0  0  0  0
  2 19  2  0  0  0  0
  2 13  1  0  0  0  0
  3 10  1  0  0  0  0
  4 20  1  0  0  0  0
  5  1  1  0  0  0  0
  6  8  2  0  0  0  0
  7 27  1  1  0  0  0
  7 15  1  0  0  0  0
  7  9  1  0  0  0  0
  9 22  1  0  0  0  0
  9 14  1  1  0  0  0
 10 21  2  0  0  0  0
 11  8  1  0  0  0  0
 11  5  1  0  0  0  0
 12  8  1  6  0  0  0
 12  4  1  0  0  0  0
 12 27  1  0  0  0  0
 13 18  2  0  0  0  0
 15 23  1  0  0  0  0
 16  2  1  0  0  0  0
 17  3  1  0  0  0  0
 18 25  1  0  0  0  0
 19 26  1  0  0  0  0
 20 17  2  0  0  0  0
 20 22  1  0  0  0  0
 22 10  1  0  0  0  0
 23 14  1  0  0  0  0
 26 17  1  0  0  0  0
 26 25  2  0  0  0  0
 27 24  2  0  0  0  0
 28 11  1  0  0  0  0
 29 30  1  0  0  0  0
 30 28  1  0  0  0  0
M  END
>  <MODEL>
6

>  <REMARK>
 VINA RESULT:      -7.9      1.734      2.566
  Name = 
  2 active torsions:
  status: ('A' for Active; 'I' for Inactive)
    1  A    between atoms: N_11  and  C_28
    2  A    between atoms: C_28  and  C_30
                            x       y       z     vdW  Elec       q    Type
                         _______ _______ _______ _____ _____    ______ ____

>  <TORSDO>
F 2

$$$$
=
 OpenBabel11112416153D

 30 35  0  0  1  0  0  0  0  0999 V2000
  186.4730  176.7390  143.7090 C   0  0  0  0  0  0  0  0  0  0  0  0
  184.7560  178.2050  144.7840 C   0  0  0  0  0  0  0  0  0  0  0  0
  188.3680  176.1340  147.3190 N   0  0  0  0  0  2  0  0  0  0  0  0
  187.6050  175.8840  143.8470 C   0  0  0  0  0  0  0  0  0  0  0  0
  185.8540  176.9000  142.3340 C   0  0  0  0  0  2  0  0  0  0  0  0
  188.7040  175.5740  140.4610 O   0  0  0  0  0  0  0  0  0  0  0  0
  190.4510  174.7680  143.2210 C   0  0  1  0  0  3  0  0  0  0  0  0
  187.8870  175.7800  141.3990 C   0  0  0  0  0  0  0  0  0  0  0  0
  190.5940  174.8970  144.7200 C   0  0  2  0  0  3  0  0  0  0  0  0
  189.4150  175.4280  146.8370 C   0  0  0  0  0  0  0  0  0  0  0  0
  186.8500  176.7650  141.2710 N   0  0  0  0  0  0  0  0  0  0  0  0
  187.9450  174.9940  142.6740 C   0  0  1  0  0  3  0  0  0  0  0  0
  184.2300  178.7840  145.9440 C   0  0  0  0  0  3  0  0  0  0  0  0
  191.2280  173.6010  145.1030 C   0  0  0  0  0  2  0  0  0  0  0  0
  191.5240  173.9810  142.7570 O   0  0  0  0  0  0  0  0  0  0  0  0
  184.1310  178.4720  143.6110 F   0  0  0  0  0  0  0  0  0  0  0  0
  187.6390  176.3700  146.2150 C   0  0  0  0  0  0  0  0  0  0  0  0
  184.8220  178.5570  147.1840 C   0  0  0  0  0  3  0  0  0  0  0  0
  185.9020  177.3720  144.8560 C   0  0  0  0  0  0  0  0  0  0  0  0
  188.2180  175.7950  145.1150 C   0  0  0  0  0  0  0  0  0  0  0  0
  190.3760  175.0740  147.5710 O   0  0  0  0  0  0  0  0  0  0  0  0
  189.3760  175.1940  145.4980 N   0  0  0  0  0  0  0  0  0  0  0  0
  192.0290  173.2630  143.8650 C   0  0  0  0  0  2  0  0  0  0  0  0
  189.0580  172.9310  142.6850 O   0  0  0  0  0  0  0  0  0  0  0  0
  185.9510  177.7480  147.2790 C   0  0  0  0  0  3  0  0  0  0  0  0
  186.4920  177.1550  146.1330 C   0  0  0  0  0  0  0  0  0  0  0  0
  189.1520  174.1400  142.8330 C   0  0  0  0  0  0  0  0  0  0  0  0
  186.7320  177.6060  140.0880 C   0  0  0  0  0  2  0  0  0  0  0  0
  186.5740  176.4490  137.9060 C   0  0  0  0  0  1  0  0  0  0  0  0
  185.7830  176.9740  139.0860 C   0  0  0  0  0  2  0  0  0  0  0  0
  1  4  2  0  0  0  0
  1 19  1  0  0  0  0
  2 19  2  0  0  0  0
  2 13  1  0  0  0  0
  4 20  1  0  0  0  0
  5  1  1  0  0  0  0
  6  8  2  0  0  0  0
  7 15  1  1  0  0  0
  7  9  1  0  0  0  0
  9 14  1  1  0  0  0
  9 22  1  0  0  0  0
 10  3  1  0  0  0  0
 10 21  2  0  0  0  0
 11  8  1  0  0  0  0
 11  5  1  0  0  0  0
 12  8  1  6  0  0  0
 12 27  1  0  0  0  0
 12  4  1  0  0  0  0
 13 18  2  0  0  0  0
 15 23  1  0  0  0  0
 16  2  1  0  0  0  0
 17  3  1  0  0  0  0
 18 25  1  0  0  0  0
 19 26  1  0  0  0  0
 20 22  1  0  0  0  0
 20 17  2  0  0  0  0
 22 10  1  0  0  0  0
 23 14  1  0  0  0  0
 24 27  2  0  0  0  0
 26 17  1  0  0  0  0
 26 25  2  0  0  0  0
 27  7  1  0  0  0  0
 28 11  1  0  0  0  0
 29 30  1  0  0  0  0
 30 28  1  0  0  0  0
M  END
>  <MODEL>
7

>  <REMARK>
 VINA RESULT:      -7.7      1.260      1.425
  Name = 
  2 active torsions:
  status: ('A' for Active; 'I' for Inactive)
    1  A    between atoms: N_11  and  C_28
    2  A    between atoms: C_28  and  C_30
                            x       y       z     vdW  Elec       q    Type
                         _______ _______ _______ _____ _____    ______ ____

>  <TORSDO>
F 2

$$$$
=
 OpenBabel11112416153D

 30 35  0  0  1  0  0  0  0  0999 V2000
  190.8190  174.5090  143.2870 C   0  0  0  0  0  0  0  0  0  0  0  0
  191.4760  173.5710  141.0630 C   0  0  0  0  0  0  0  0  0  0  0  0
  187.0900  175.5430  141.8650 N   0  0  0  0  0  2  0  0  0  0  0  0
  189.8180  175.0960  144.1150 C   0  0  0  0  0  0  0  0  0  0  0  0
  192.1620  174.1740  143.9060 C   0  0  0  0  0  2  0  0  0  0  0  0
  191.7510  176.2530  146.8890 O   0  0  0  0  0  0  0  0  0  0  0  0
  188.5980  177.1460  146.1250 C   0  0  1  0  0  3  0  0  0  0  0  0
  191.4740  175.5370  145.8880 C   0  0  0  0  0  0  0  0  0  0  0  0
  187.5020  177.1850  145.0860 C   0  0  2  0  0  3  0  0  0  0  0  0
  186.6650  176.1850  142.9750 C   0  0  0  0  0  0  0  0  0  0  0  0
  192.5040  175.0930  144.9920 N   0  0  0  0  0  0  0  0  0  0  0  0
  190.0690  175.0970  145.6050 C   0  0  1  0  0  3  0  0  0  0  0  0
  191.1320  173.2620  139.7440 C   0  0  0  0  0  3  0  0  0  0  0  0
  186.2600  177.1050  145.9120 C   0  0  0  0  0  2  0  0  0  0  0  0
  188.1040  177.7720  147.2880 O   0  0  0  0  0  0  0  0  0  0  0  0
  192.7300  173.2590  141.4740 F   0  0  0  0  0  0  0  0  0  0  0  0
  188.3150  175.1180  142.2220 C   0  0  0  0  0  0  0  0  0  0  0  0
  189.8630  173.5570  139.2510 C   0  0  0  0  0  3  0  0  0  0  0  0
  190.5320  174.1870  141.9240 C   0  0  0  0  0  0  0  0  0  0  0  0
  188.5970  175.4700  143.5150 C   0  0  0  0  0  0  0  0  0  0  0  0
  185.5630  176.7950  143.0130 O   0  0  0  0  0  0  0  0  0  0  0  0
  187.5450  176.1730  144.0120 N   0  0  0  0  0  0  0  0  0  0  0  0
  186.6930  177.7750  147.1970 C   0  0  0  0  0  2  0  0  0  0  0  0
  188.5000  175.1210  147.3460 O   0  0  0  0  0  0  0  0  0  0  0  0
  188.9210  174.1660  140.0750 C   0  0  0  0  0  3  0  0  0  0  0  0
  189.2410  174.4800  141.4010 C   0  0  0  0  0  0  0  0  0  0  0  0
  189.0250  175.7500  146.4400 C   0  0  0  0  0  0  0  0  0  0  0  0
  193.8930  175.4950  145.1600 C   0  0  0  0  0  2  0  0  0  0  0  0
  195.7960  176.3920  143.8570 C   0  0  0  0  0  1  0  0  0  0  0  0
  194.6240  175.4340  143.8310 C   0  0  0  0  0  2  0  0  0  0  0  0
  1  5  1  0  0  0  0
  1  4  1  0  0  0  0
  2 16  1  0  0  0  0
  2 19  1  0  0  0  0
  3 17  1  0  0  0  0
  3 10  1  0  0  0  0
  5 11  1  0  0  0  0
  7 27  1  1  0  0  0
  7 15  1  0  0  0  0
  8  6  2  0  0  0  0
  9 14  1  1  0  0  0
  9  7  1  0  0  0  0
 10 21  2  0  0  0  0
 10 22  1  0  0  0  0
 11 28  1  0  0  0  0
 11  8  1  0  0  0  0
 12  4  1  6  0  0  0
 12  8  1  0  0  0  0
 12 27  1  0  0  0  0
 13  2  2  0  0  0  0
 14 23  1  0  0  0  0
 17 20  1  0  0  0  0
 18 13  1  0  0  0  0
 18 25  2  0  0  0  0
 19  1  2  0  0  0  0
 20 22  1  0  0  0  0
 20  4  2  0  0  0  0
 22  9  1  0  0  0  0
 23 15  1  0  0  0  0
 25 26  1  0  0  0  0
 26 19  1  0  0  0  0
 26 17  2  0  0  0  0
 27 24  2  0  0  0  0
 30 29  1  0  0  0  0
 30 28  1  0  0  0  0
M  END
>  <MODEL>
8

>  <REMARK>
 VINA RESULT:      -7.5      3.001      7.237
  Name = 
  2 active torsions:
  status: ('A' for Active; 'I' for Inactive)
    1  A    between atoms: N_11  and  C_28
    2  A    between atoms: C_28  and  C_30
                            x       y       z     vdW  Elec       q    Type
                         _______ _______ _______ _____ _____    ______ ____

>  <TORSDO>
F 2

$$$$
=
 OpenBabel11112416153D

 30 35  0  0  1  0  0  0  0  0999 V2000
  188.1400  175.8590  141.2620 C   0  0  0  0  0  0  0  0  0  0  0  0
  187.8540  174.8370  138.9970 C   0  0  0  0  0  0  0  0  0  0  0  0
  190.5670  172.7550  142.4720 N   0  0  0  0  0  2  0  0  0  0  0  0
  188.7540  175.8230  142.5480 C   0  0  0  0  0  0  0  0  0  0  0  0
  187.2570  177.0430  140.9180 C   0  0  0  0  0  2  0  0  0  0  0  0
  186.8080  178.2130  144.3560 O   0  0  0  0  0  0  0  0  0  0  0  0
  188.8960  175.9210  145.6630 C   0  0  1  0  0  3  0  0  0  0  0  0
  187.3170  177.6630  143.3410 C   0  0  0  0  0  0  0  0  0  0  0  0
  189.6860  174.6500  145.4510 C   0  0  2  0  0  3  0  0  0  0  0  0
  190.6980  173.1440  143.7600 C   0  0  0  0  0  0  0  0  0  0  0  0
  186.5940  177.5890  142.1030 N   0  0  0  0  0  0  0  0  0  0  0  0
  188.7000  177.0860  143.3750 C   0  0  1  0  0  3  0  0  0  0  0  0
  188.1680  173.8160  138.0950 C   0  0  0  0  0  3  0  0  0  0  0  0
  190.8570  174.8340  146.3580 C   0  0  0  0  0  2  0  0  0  0  0  0
  189.0990  176.3310  146.9960 O   0  0  0  0  0  0  0  0  0  0  0  0
  187.0110  175.8110  138.5740 F   0  0  0  0  0  0  0  0  0  0  0  0
  189.8030  173.7290  141.9470 C   0  0  0  0  0  0  0  0  0  0  0  0
  189.0240  172.7800  138.4620 C   0  0  0  0  0  3  0  0  0  0  0  0
  188.4090  174.8340  140.3030 C   0  0  0  0  0  0  0  0  0  0  0  0
  189.5150  174.6840  142.8860 C   0  0  0  0  0  0  0  0  0  0  0  0
  191.3020  172.4380  144.6120 O   0  0  0  0  0  0  0  0  0  0  0  0
  190.0760  174.3120  144.0680 N   0  0  0  0  0  0  0  0  0  0  0  0
  190.2720  175.6910  147.4590 C   0  0  0  0  0  2  0  0  0  0  0  0
  190.1870  177.8030  145.0380 O   0  0  0  0  0  0  0  0  0  0  0  0
  189.5760  172.7520  139.7390 C   0  0  0  0  0  3  0  0  0  0  0  0
  189.2790  173.7660  140.6580 C   0  0  0  0  0  0  0  0  0  0  0  0
  189.3160  177.0060  144.7260 C   0  0  0  0  0  0  0  0  0  0  0  0
  185.2320  178.0870  141.9780 C   0  0  0  0  0  2  0  0  0  0  0  0
  183.3360  178.2090  140.3940 C   0  0  0  0  0  1  0  0  0  0  0  0
  184.8450  178.2020  140.5150 C   0  0  0  0  0  2  0  0  0  0  0  0
  1  4  1  0  0  0  0
  2 19  1  0  0  0  0
  3 10  1  0  0  0  0
  4 20  2  0  0  0  0
  5  1  1  0  0  0  0
  5 11  1  0  0  0  0
  7 27  1  6  0  0  0
  7 15  1  0  0  0  0
  8 12  1  0  0  0  0
  8  6  2  0  0  0  0
  9  7  1  0  0  0  0
  9 14  1  1  0  0  0
 10 22  1  0  0  0  0
 10 21  2  0  0  0  0
 11  8  1  0  0  0  0
 12  4  1  1  0  0  0
 12 27  1  0  0  0  0
 13 18  1  0  0  0  0
 13  2  2  0  0  0  0
 14 23  1  0  0  0  0
 15 23  1  0  0  0  0
 16  2  1  0  0  0  0
 17  3  1  0  0  0  0
 17 20  1  0  0  0  0
 18 25  2  0  0  0  0
 19 26  1  0  0  0  0
 19  1  2  0  0  0  0
 20 22  1  0  0  0  0
 22  9  1  0  0  0  0
 25 26  1  0  0  0  0
 26 17  2  0  0  0  0
 27 24  2  0  0  0  0
 28 11  1  0  0  0  0
 29 30  1  0  0  0  0
 30 28  1  0  0  0  0
M  END
>  <MODEL>
9

>  <REMARK>
 VINA RESULT:      -7.5      2.802      5.330
  Name = 
  2 active torsions:
  status: ('A' for Active; 'I' for Inactive)
    1  A    between atoms: N_11  and  C_28
    2  A    between atoms: C_28  and  C_30
                            x       y       z     vdW  Elec       q    Type
                         _______ _______ _______ _____ _____    ______ ____

>  <TORSDO>
F 2

$$$$
