=
 OpenBabel11112417383D

 28 32  0  0  1  0  0  0  0  0999 V2000
  191.2010  174.0910  142.0100 C   0  0  0  0  0  0  0  0  0  0  0  0
  189.0210  178.4190  141.8180 O   0  0  0  0  0  0  0  0  0  0  0  0
  191.6280  176.5120  147.2300 C   0  0  0  0  0  1  0  0  0  0  0  0
  189.3060  172.0500  142.3010 C   0  0  0  0  0  3  0  0  0  0  0  0
  189.3100  175.8610  146.5520 C   0  0  1  0  0  3  0  0  0  0  0  0
  192.1510  175.1090  141.8920 O   0  0  0  0  0  0  0  0  0  0  0  0
  187.2630  177.1800  140.6460 O   0  0  0  0  0  0  0  0  0  0  0  0
  187.7620  177.6160  141.9930 S   0  0  0  0  0  0  0  0  0  0  0  0
  186.3010  177.9940  144.4900 C   0  0  2  0  0  3  0  0  0  0  0  0
  188.1100  176.1470  142.9670 C   0  0  2  0  0  3  0  0  0  0  0  0
  193.9970  174.3560  144.6820 O   0  0  0  0  0  0  0  0  0  0  0  0
  190.0210  176.0650  144.3840 C   0  0  1  0  0  3  0  0  0  0  0  0
  187.5970  177.6240  144.8520 O   0  0  0  0  0  0  0  0  0  0  0  0
  186.3100  178.8540  142.8850 S   0  0  0  0  0  0  0  0  0  0  0  0
  193.3180  175.0850  143.9790 C   0  0  0  0  0  0  0  0  0  0  0  0
  189.9140  174.3970  142.4850 C   0  0  0  0  0  0  0  0  0  0  0  0
  190.8040  175.4900  146.4440 C   0  0  1  0  0  3  0  0  0  0  0  0
  185.7200  178.9070  145.5480 C   0  0  0  0  0  1  0  0  0  0  0  0
  192.3760  176.0640  144.6100 C   0  0  0  0  0  2  0  0  0  0  0  0
  188.9750  173.3640  142.6390 C   0  0  0  0  0  3  0  0  0  0  0  0
  191.5320  172.7690  141.6840 C   0  0  0  0  0  3  0  0  0  0  0  0
  190.5840  171.7520  141.8230 C   0  0  0  0  0  3  0  0  0  0  0  0
  193.4390  175.0030  142.4880 C   0  0  0  0  0  2  0  0  0  0  0  0
  188.8550  175.6110  145.1490 C   0  0  2  0  0  3  0  0  0  0  0  0
  191.1420  175.3760  144.9930 N   0  0  2  0  0  0  0  0  0  0  0  0
  187.6940  176.2820  144.4600 C   0  0  2  0  0  3  0  0  0  0  0  0
  188.6640  174.9830  147.4210 O   0  0  0  0  0  1  0  0  0  0  0  0
  189.6200  175.8070  142.9420 C   0  0  1  0  0  3  0  0  0  0  0  0
  1 16  1  0  0  0  0
  2  8  2  0  0  0  0
  4 20  1  0  0  0  0
  5 27  1  1  0  0  0
  6  1  1  0  0  0  0
  6 23  1  0  0  0  0
  7  8  2  0  0  0  0
  8 14  1  0  0  0  0
  9 13  1  0  0  0  0
  9 18  1  1  0  0  0
 10  8  1  6  0  0  0
 10 26  1  0  0  0  0
 12 25  1  0  0  0  0
 12 24  1  0  0  0  0
 14  9  1  0  0  0  0
 15 19  1  0  0  0  0
 15 11  2  0  0  0  0
 16 20  2  0  0  0  0
 16 28  1  0  0  0  0
 17  5  1  0  0  0  0
 17  3  1  0  0  0  0
 19 25  1  0  0  0  0
 21 22  1  0  0  0  0
 21  1  2  0  0  0  0
 22  4  2  0  0  0  0
 23 15  1  0  0  0  0
 24  5  1  0  0  0  0
 25 17  1  0  0  0  0
 26 13  1  0  0  0  0
 26 24  1  0  0  0  0
 28 10  1  0  0  0  0
 28 12  1  0  0  0  0
M  END
>  <MODEL>
1

>  <REMARK>
 VINA RESULT:      -8.1      0.000      0.000
  Name = 
  0 active torsions:
  status: ('A' for Active; 'I' for Inactive)
                            x       y       z     vdW  Elec       q    Type
                         _______ _______ _______ _____ _____    ______ ____

>  <TORSDO>
F 0

$$$$
=
 OpenBabel11112417383D

 28 32  0  0  1  0  0  0  0  0999 V2000
  188.3240  177.5030  144.6500 C   0  0  0  0  0  0  0  0  0  0  0  0
  193.0720  176.6670  144.1220 O   0  0  0  0  0  0  0  0  0  0  0  0
  188.9450  173.2500  140.8020 C   0  0  0  0  0  1  0  0  0  0  0  0
  187.3610  176.2610  146.9680 C   0  0  0  0  0  3  0  0  0  0  0  0
  189.6020  172.6630  143.1430 C   0  0  1  0  0  3  0  0  0  0  0  0
  188.7950  178.1020  143.4790 O   0  0  0  0  0  0  0  0  0  0  0  0
  193.0880  176.7760  146.5690 O   0  0  0  0  0  0  0  0  0  0  0  0
  192.9110  175.8680  145.3850 S   0  0  0  0  0  0  0  0  0  0  0  0
  193.2930  172.9840  145.1730 C   0  0  2  0  0  3  0  0  0  0  0  0
  191.2570  175.1700  145.4550 C   0  0  2  0  0  3  0  0  0  0  0  0
  186.6390  176.5970  141.2800 O   0  0  0  0  0  0  0  0  0  0  0  0
  189.9790  174.8990  143.4660 C   0  0  1  0  0  3  0  0  0  0  0  0
  192.3010  173.3130  144.2480 O   0  0  0  0  0  0  0  0  0  0  0  0
  194.4150  174.3960  145.4300 S   0  0  0  0  0  0  0  0  0  0  0  0
  187.7420  176.8800  141.7140 C   0  0  0  0  0  0  0  0  0  0  0  0
  189.0550  176.4540  145.2340 C   0  0  0  0  0  0  0  0  0  0  0  0
  188.6320  173.4970  142.2790 C   0  0  1  0  0  3  0  0  0  0  0  0
  194.0840  171.7960  144.6690 C   0  0  0  0  0  1  0  0  0  0  0  0
  188.8560  175.8830  141.6310 C   0  0  0  0  0  2  0  0  0  0  0  0
  188.5570  175.8300  146.3890 C   0  0  0  0  0  3  0  0  0  0  0  0
  187.1180  177.9250  145.2280 C   0  0  0  0  0  3  0  0  0  0  0  0
  186.6420  177.3090  146.3880 C   0  0  0  0  0  3  0  0  0  0  0  0
  187.9770  178.2300  142.3220 C   0  0  0  0  0  2  0  0  0  0  0  0
  189.9320  173.6440  144.2230 C   0  0  2  0  0  3  0  0  0  0  0  0
  188.7320  174.9200  142.7250 N   0  0  2  0  0  0  0  0  0  0  0  0
  191.2000  173.6730  145.0370 C   0  0  2  0  0  3  0  0  0  0  0  0
  188.9300  171.5700  143.6890 O   0  0  0  0  0  1  0  0  0  0  0  0
  190.2870  175.9410  144.5260 C   0  0  1  0  0  3  0  0  0  0  0  0
  1 21  2  0  0  0  0
  1 16  1  0  0  0  0
  2  8  2  0  0  0  0
  3 17  1  0  0  0  0
  5 27  1  1  0  0  0
  5 24  1  0  0  0  0
  6  1  1  0  0  0  0
  8 14  1  0  0  0  0
  8  7  2  0  0  0  0
  9 18  1  6  0  0  0
  9 14  1  0  0  0  0
 10  8  1  6  0  0  0
 11 15  2  0  0  0  0
 12 24  1  0  0  0  0
 12 28  1  0  0  0  0
 13 26  1  0  0  0  0
 13  9  1  0  0  0  0
 15 23  1  0  0  0  0
 16 20  2  0  0  0  0
 17 25  1  0  0  0  0
 17  5  1  0  0  0  0
 19 15  1  0  0  0  0
 19 25  1  0  0  0  0
 20  4  1  0  0  0  0
 21 22  1  0  0  0  0
 22  4  2  0  0  0  0
 23  6  1  0  0  0  0
 24 26  1  0  0  0  0
 25 12  1  0  0  0  0
 26 10  1  0  0  0  0
 28 16  1  0  0  0  0
 28 10  1  0  0  0  0
M  END
>  <MODEL>
2

>  <REMARK>
 VINA RESULT:      -7.9      2.837      6.207
  Name = 
  0 active torsions:
  status: ('A' for Active; 'I' for Inactive)
                            x       y       z     vdW  Elec       q    Type
                         _______ _______ _______ _____ _____    ______ ____

>  <TORSDO>
F 0

$$$$
=
 OpenBabel11112417383D

 28 32  0  0  1  0  0  0  0  0999 V2000
  188.9730  177.1120  145.0220 C   0  0  0  0  0  0  0  0  0  0  0  0
  193.7990  176.9780  144.5620 O   0  0  0  0  0  0  0  0  0  0  0  0
  190.2470  173.2220  140.9560 C   0  0  0  0  0  1  0  0  0  0  0  0
  188.1570  175.6130  147.2420 C   0  0  0  0  0  3  0  0  0  0  0  0
  190.9410  172.5940  143.2760 C   0  0  1  0  0  3  0  0  0  0  0  0
  189.3740  177.8390  143.8980 O   0  0  0  0  0  0  0  0  0  0  0  0
  193.7600  176.9430  147.0110 O   0  0  0  0  0  0  0  0  0  0  0  0
  193.7310  176.0910  145.7740 S   0  0  0  0  0  0  0  0  0  0  0  0
  194.5180  173.3060  145.4090 C   0  0  2  0  0  3  0  0  0  0  0  0
  192.1910  175.1660  145.7640 C   0  0  2  0  0  3  0  0  0  0  0  0
  187.4850  176.1810  141.5660 O   0  0  0  0  0  0  0  0  0  0  0  0
  190.9950  174.8380  143.7330 C   0  0  1  0  0  3  0  0  0  0  0  0
  193.5040  173.5470  144.4800 O   0  0  0  0  0  0  0  0  0  0  0  0
  195.4270  174.8420  145.7710 S   0  0  0  0  0  0  0  0  0  0  0  0
  188.5310  176.5890  142.0420 C   0  0  0  0  0  0  0  0  0  0  0  0
  189.8340  176.1420  145.5630 C   0  0  0  0  0  0  0  0  0  0  0  0
  189.8780  173.3350  142.4370 C   0  0  1  0  0  3  0  0  0  0  0  0
  195.4760  172.2710  144.8570 C   0  0  0  0  0  1  0  0  0  0  0  0
  189.7750  175.7630  141.9290 C   0  0  0  0  0  2  0  0  0  0  0  0
  189.4100  175.3870  146.6690 C   0  0  0  0  0  3  0  0  0  0  0  0
  187.7110  177.3260  145.5940 C   0  0  0  0  0  3  0  0  0  0  0  0
  187.3070  176.5820  146.7050 C   0  0  0  0  0  3  0  0  0  0  0  0
  188.5640  177.9190  142.7310 C   0  0  0  0  0  2  0  0  0  0  0  0
  191.1130  173.5460  144.4170 C   0  0  2  0  0  3  0  0  0  0  0  0
  189.7700  174.7290  142.9650 N   0  0  2  0  0  0  0  0  0  0  0  0
  192.3520  173.7030  145.2610 C   0  0  2  0  0  3  0  0  0  0  0  0
  190.4210  171.3880  143.7420 O   0  0  0  0  0  1  0  0  0  0  0  0
  191.1380  175.8480  144.8570 C   0  0  1  0  0  3  0  0  0  0  0  0
  1 16  2  0  0  0  0
  1 21  1  0  0  0  0
  2  8  2  0  0  0  0
  3 17  1  0  0  0  0
  5 27  1  1  0  0  0
  5 24  1  0  0  0  0
  6  1  1  0  0  0  0
  8  7  2  0  0  0  0
  9 18  1  6  0  0  0
  9 14  1  0  0  0  0
 10  8  1  6  0  0  0
 11 15  2  0  0  0  0
 12 24  1  0  0  0  0
 12 28  1  0  0  0  0
 13 26  1  0  0  0  0
 13  9  1  0  0  0  0
 14  8  1  0  0  0  0
 15 23  1  0  0  0  0
 16 20  1  0  0  0  0
 17 25  1  0  0  0  0
 17  5  1  0  0  0  0
 19 15  1  0  0  0  0
 19 25  1  0  0  0  0
 20  4  2  0  0  0  0
 21 22  2  0  0  0  0
 22  4  1  0  0  0  0
 23  6  1  0  0  0  0
 24 26  1  0  0  0  0
 25 12  1  0  0  0  0
 26 10  1  0  0  0  0
 28 16  1  0  0  0  0
 28 10  1  0  0  0  0
M  END
>  <MODEL>
3

>  <REMARK>
 VINA RESULT:      -7.4      2.971      6.315
  Name = 
  0 active torsions:
  status: ('A' for Active; 'I' for Inactive)
                            x       y       z     vdW  Elec       q    Type
                         _______ _______ _______ _____ _____    ______ ____

>  <TORSDO>
F 0

$$$$
=
 OpenBabel11112417383D

 28 32  0  0  1  0  0  0  0  0999 V2000
  186.4720  176.9110  143.6890 C   0  0  0  0  0  0  0  0  0  0  0  0
  188.1920  172.4100  143.1380 O   0  0  0  0  0  0  0  0  0  0  0  0
  190.8360  176.2260  147.4000 C   0  0  0  0  0  1  0  0  0  0  0  0
  187.4690  178.5940  141.6860 C   0  0  0  0  0  3  0  0  0  0  0  0
  191.4920  176.2470  144.9870 C   0  0  1  0  0  3  0  0  0  0  0  0
  185.9930  176.0800  144.7060 O   0  0  0  0  0  0  0  0  0  0  0  0
  188.0430  172.9360  140.7500 O   0  0  0  0  0  0  0  0  0  0  0  0
  188.9230  173.0030  141.9660 S   0  0  0  0  0  0  0  0  0  0  0  0
  191.8310  173.1260  142.1580 C   0  0  2  0  0  3  0  0  0  0  0  0
  189.2990  174.7280  142.2940 C   0  0  2  0  0  3  0  0  0  0  0  0
  187.1080  177.9160  147.3780 O   0  0  0  0  0  0  0  0  0  0  0  0
  189.3610  175.5440  144.5300 C   0  0  1  0  0  3  0  0  0  0  0  0
  191.3390  173.8010  143.2770 O   0  0  0  0  0  0  0  0  0  0  0  0
  190.6500  171.8500  141.6160 S   0  0  0  0  0  0  0  0  0  0  0  0
  187.0280  176.9090  146.6960 C   0  0  0  0  0  0  0  0  0  0  0  0
  187.6280  176.5430  142.9810 C   0  0  0  0  0  0  0  0  0  0  0  0
  190.5070  176.8190  146.0280 C   0  0  1  0  0  3  0  0  0  0  0  0
  193.1550  172.4760  142.4990 C   0  0  0  0  0  1  0  0  0  0  0  0
  188.2180  176.0120  146.5470 C   0  0  0  0  0  2  0  0  0  0  0  0
  188.1280  177.4000  141.9870 C   0  0  0  0  0  3  0  0  0  0  0  0
  185.8220  178.1170  143.3920 C   0  0  0  0  0  3  0  0  0  0  0  0
  186.3170  178.9530  142.3880 C   0  0  0  0  0  3  0  0  0  0  0  0
  185.7360  176.5730  146.0150 C   0  0  0  0  0  2  0  0  0  0  0  0
  190.5720  175.9960  143.8360 C   0  0  2  0  0  3  0  0  0  0  0  0
  189.1210  176.5610  145.5350 N   0  0  2  0  0  0  0  0  0  0  0  0
  190.7650  174.9660  142.7520 C   0  0  2  0  0  3  0  0  0  0  0  0
  192.4310  177.2170  144.6380 O   0  0  0  0  0  1  0  0  0  0  0  0
  188.3760  175.2980  143.4000 C   0  0  1  0  0  3  0  0  0  0  0  0
  1  6  1  0  0  0  0
  4 20  2  0  0  0  0
  4 22  1  0  0  0  0
  5 27  1  6  0  0  0
  5 17  1  0  0  0  0
  6 23  1  0  0  0  0
  7  8  2  0  0  0  0
  8  2  2  0  0  0  0
  9 18  1  1  0  0  0
  9 13  1  0  0  0  0
 10  8  1  1  0  0  0
 10 26  1  0  0  0  0
 10 28  1  0  0  0  0
 12 25  1  0  0  0  0
 14  8  1  0  0  0  0
 14  9  1  0  0  0  0
 15 11  2  0  0  0  0
 16 28  1  0  0  0  0
 16  1  2  0  0  0  0
 17  3  1  0  0  0  0
 19 15  1  0  0  0  0
 20 16  1  0  0  0  0
 21  1  1  0  0  0  0
 22 21  2  0  0  0  0
 23 15  1  0  0  0  0
 24 12  1  0  0  0  0
 24  5  1  0  0  0  0
 25 17  1  0  0  0  0
 25 19  1  0  0  0  0
 26 13  1  0  0  0  0
 26 24  1  0  0  0  0
 28 12  1  0  0  0  0
M  END
>  <MODEL>
4

>  <REMARK>
 VINA RESULT:      -7.4      2.559      5.719
  Name = 
  0 active torsions:
  status: ('A' for Active; 'I' for Inactive)
                            x       y       z     vdW  Elec       q    Type
                         _______ _______ _______ _____ _____    ______ ____

>  <TORSDO>
F 0

$$$$
=
 OpenBabel11112417383D

 28 32  0  0  1  0  0  0  0  0999 V2000
  192.4890  174.0320  144.1110 C   0  0  0  0  0  0  0  0  0  0  0  0
  188.9750  175.1780  147.2510 O   0  0  0  0  0  0  0  0  0  0  0  0
  187.4400  172.6550  141.6830 C   0  0  0  0  0  1  0  0  0  0  0  0
  193.3640  176.3120  142.7420 C   0  0  0  0  0  3  0  0  0  0  0  0
  187.8350  175.1060  141.9850 C   0  0  1  0  0  3  0  0  0  0  0  0
  192.0370  172.8870  144.7720 O   0  0  0  0  0  0  0  0  0  0  0  0
  190.2450  177.2590  147.4950 O   0  0  0  0  0  0  0  0  0  0  0  0
  189.1650  176.5690  146.7120 S   0  0  0  0  0  0  0  0  0  0  0  0
  186.9460  177.7040  145.1960 C   0  0  2  0  0  3  0  0  0  0  0  0
  189.6810  176.4890  144.9930 C   0  0  2  0  0  3  0  0  0  0  0  0
  191.1890  171.0470  142.0070 O   0  0  0  0  0  0  0  0  0  0  0  0
  189.2500  174.5410  143.6950 C   0  0  1  0  0  3  0  0  0  0  0  0
  187.2710  176.5010  144.5660 O   0  0  0  0  0  0  0  0  0  0  0  0
  187.3620  177.6260  146.9670 S   0  0  0  0  0  0  0  0  0  0  0  0
  190.9620  171.5950  143.0710 C   0  0  0  0  0  0  0  0  0  0  0  0
  191.6710  175.1740  144.0640 C   0  0  0  0  0  0  0  0  0  0  0  0
  188.5090  173.7490  141.6920 C   0  0  1  0  0  3  0  0  0  0  0  0
  185.4650  177.9770  145.0360 C   0  0  0  0  0  1  0  0  0  0  0  0
  189.6310  172.2380  143.3110 C   0  0  0  0  0  2  0  0  0  0  0  0
  192.1140  176.3080  143.3640 C   0  0  0  0  0  3  0  0  0  0  0  0
  193.7370  174.0370  143.4740 C   0  0  0  0  0  3  0  0  0  0  0  0
  194.1760  175.1780  142.7960 C   0  0  0  0  0  3  0  0  0  0  0  0
  192.0160  171.6150  144.1370 C   0  0  0  0  0  2  0  0  0  0  0  0
  188.8240  175.7150  142.9260 C   0  0  2  0  0  3  0  0  0  0  0  0
  189.6080  173.5610  142.6870 N   0  0  2  0  0  0  0  0  0  0  0  0
  188.5230  176.7430  143.9870 C   0  0  2  0  0  3  0  0  0  0  0  0
  187.7680  175.8640  140.8160 O   0  0  0  0  0  1  0  0  0  0  0  0
  190.2820  175.1020  144.6560 C   0  0  1  0  0  3  0  0  0  0  0  0
  1  6  1  0  0  0  0
  3 17  1  0  0  0  0
  4 22  2  0  0  0  0
  4 20  1  0  0  0  0
  5 27  1  6  0  0  0
  5 24  1  0  0  0  0
  8 14  1  0  0  0  0
  8  2  2  0  0  0  0
  8  7  2  0  0  0  0
  9 18  1  1  0  0  0
  9 14  1  0  0  0  0
 10  8  1  1  0  0  0
 11 15  2  0  0  0  0
 12 28  1  0  0  0  0
 13  9  1  0  0  0  0
 15 19  1  0  0  0  0
 15 23  1  0  0  0  0
 16  1  1  0  0  0  0
 16 28  1  0  0  0  0
 17  5  1  0  0  0  0
 17 25  1  0  0  0  0
 20 16  2  0  0  0  0
 21  1  2  0  0  0  0
 22 21  1  0  0  0  0
 23  6  1  0  0  0  0
 24 12  1  0  0  0  0
 24 26  1  0  0  0  0
 25 19  1  0  0  0  0
 25 12  1  0  0  0  0
 26 13  1  0  0  0  0
 26 10  1  0  0  0  0
 28 10  1  0  0  0  0
M  END
>  <MODEL>
5

>  <REMARK>
 VINA RESULT:      -7.3      2.141      4.380
  Name = 
  0 active torsions:
  status: ('A' for Active; 'I' for Inactive)
                            x       y       z     vdW  Elec       q    Type
                         _______ _______ _______ _____ _____    ______ ____

>  <TORSDO>
F 0

$$$$
=
 OpenBabel11112417383D

 28 32  0  0  1  0  0  0  0  0999 V2000
  187.6010  176.7620  144.3580 C   0  0  0  0  0  0  0  0  0  0  0  0
  188.8210  172.1520  143.4780 O   0  0  0  0  0  0  0  0  0  0  0  0
  193.0630  176.0300  146.0650 C   0  0  0  0  0  1  0  0  0  0  0  0
  187.7620  178.2840  142.0140 C   0  0  0  0  0  3  0  0  0  0  0  0
  192.6990  175.8910  143.5940 C   0  0  1  0  0  3  0  0  0  0  0  0
  187.5450  176.0120  145.5360 O   0  0  0  0  0  0  0  0  0  0  0  0
  187.7450  172.5630  141.3170 O   0  0  0  0  0  0  0  0  0  0  0  0
  189.0390  172.6430  142.0740 S   0  0  0  0  0  0  0  0  0  0  0  0
  191.7830  172.6170  141.0850 C   0  0  2  0  0  3  0  0  0  0  0  0
  189.5660  174.3600  142.1070 C   0  0  2  0  0  3  0  0  0  0  0  0
  189.6910  177.9170  147.4120 O   0  0  0  0  0  0  0  0  0  0  0  0
  190.5430  175.2830  144.0720 C   0  0  1  0  0  3  0  0  0  0  0  0
  191.8010  173.3740  142.2580 O   0  0  0  0  0  0  0  0  0  0  0  0
  190.4470  171.3820  141.1460 S   0  0  0  0  0  0  0  0  0  0  0  0
  189.3150  176.8830  146.8880 C   0  0  0  0  0  0  0  0  0  0  0  0
  188.3660  176.2960  143.2750 C   0  0  0  0  0  0  0  0  0  0  0  0
  192.2310  176.5690  144.8990 C   0  0  1  0  0  3  0  0  0  0  0  0
  193.1130  171.9140  140.9140 C   0  0  0  0  0  1  0  0  0  0  0  0
  190.3180  175.9160  146.3400 C   0  0  0  0  0  2  0  0  0  0  0  0
  188.4500  177.0720  142.1090 C   0  0  0  0  0  3  0  0  0  0  0  0
  186.9230  177.9850  144.2620 C   0  0  0  0  0  3  0  0  0  0  0  0
  186.9990  178.7410  143.0900 C   0  0  0  0  0  3  0  0  0  0  0  0
  187.8480  176.5830  146.8030 C   0  0  0  0  0  2  0  0  0  0  0  0
  191.3870  175.6330  142.9240 C   0  0  2  0  0  3  0  0  0  0  0  0
  190.7560  176.3620  145.0180 N   0  0  2  0  0  0  0  0  0  0  0  0
  191.1000  174.5400  141.9270 C   0  0  2  0  0  3  0  0  0  0  0  0
  193.4470  176.7900  142.8350 O   0  0  0  0  0  1  0  0  0  0  0  0
  189.1820  175.0350  143.4470 C   0  0  1  0  0  3  0  0  0  0  0  0
  1  6  1  0  0  0  0
  4 20  2  0  0  0  0
  4 22  1  0  0  0  0
  5 27  1  6  0  0  0
  5 17  1  0  0  0  0
  6 23  1  0  0  0  0
  7  8  2  0  0  0  0
  8  2  2  0  0  0  0
  9 18  1  1  0  0  0
  9 14  1  0  0  0  0
  9 13  1  0  0  0  0
 10  8  1  1  0  0  0
 10 28  1  0  0  0  0
 12 25  1  0  0  0  0
 14  8  1  0  0  0  0
 15 11  2  0  0  0  0
 16 28  1  0  0  0  0
 16  1  2  0  0  0  0
 17 25  1  0  0  0  0
 17  3  1  0  0  0  0
 19 15  1  0  0  0  0
 20 16  1  0  0  0  0
 21  1  1  0  0  0  0
 22 21  2  0  0  0  0
 23 15  1  0  0  0  0
 24  5  1  0  0  0  0
 24 12  1  0  0  0  0
 25 19  1  0  0  0  0
 26 10  1  0  0  0  0
 26 13  1  0  0  0  0
 26 24  1  0  0  0  0
 28 12  1  0  0  0  0
M  END
>  <MODEL>
6

>  <REMARK>
 VINA RESULT:      -7.2      2.461      5.639
  Name = 
  0 active torsions:
  status: ('A' for Active; 'I' for Inactive)
                            x       y       z     vdW  Elec       q    Type
                         _______ _______ _______ _____ _____    ______ ____

>  <TORSDO>
F 0

$$$$
=
 OpenBabel11112417383D

 28 32  0  0  1  0  0  0  0  0999 V2000
  189.6890  176.2360  144.8570 C   0  0  0  0  0  0  0  0  0  0  0  0
  194.4730  176.4160  144.0810 O   0  0  0  0  0  0  0  0  0  0  0  0
  191.0250  172.0560  141.1110 C   0  0  0  0  0  1  0  0  0  0  0  0
  189.1340  174.9160  147.2620 C   0  0  0  0  0  3  0  0  0  0  0  0
  191.9080  171.7230  143.4270 C   0  0  1  0  0  3  0  0  0  0  0  0
  189.9610  176.8720  143.6420 O   0  0  0  0  0  0  0  0  0  0  0  0
  194.5870  176.6300  146.5190 O   0  0  0  0  0  0  0  0  0  0  0  0
  194.5520  175.6560  145.3760 S   0  0  0  0  0  0  0  0  0  0  0  0
  195.5380  172.9150  145.2310 C   0  0  2  0  0  3  0  0  0  0  0  0
  193.0950  174.6220  145.5620 C   0  0  2  0  0  3  0  0  0  0  0  0
  188.0750  174.8470  141.6180 O   0  0  0  0  0  0  0  0  0  0  0  0
  191.8070  174.0000  143.6590 C   0  0  1  0  0  3  0  0  0  0  0  0
  194.4540  172.9830  144.3540 O   0  0  0  0  0  0  0  0  0  0  0  0
  196.3400  174.5430  145.3780 S   0  0  0  0  0  0  0  0  0  0  0  0
  189.1100  175.3790  141.9790 C   0  0  0  0  0  0  0  0  0  0  0  0
  190.6580  175.3940  145.4290 C   0  0  0  0  0  0  0  0  0  0  0  0
  190.7390  172.2930  142.5950 C   0  0  1  0  0  3  0  0  0  0  0  0
  196.5420  171.9030  144.7180 C   0  0  0  0  0  1  0  0  0  0  0  0
  190.4080  174.6410  141.8620 C   0  0  0  0  0  2  0  0  0  0  0  0
  190.3650  174.7260  146.6290 C   0  0  0  0  0  3  0  0  0  0  0  0
  188.4510  176.4130  145.4900 C   0  0  0  0  0  3  0  0  0  0  0  0
  188.1780  175.7590  146.6930 C   0  0  0  0  0  3  0  0  0  0  0  0
  189.0780  176.7720  142.5310 C   0  0  0  0  0  2  0  0  0  0  0  0
  192.0710  172.7970  144.4560 C   0  0  2  0  0  3  0  0  0  0  0  0
  190.5510  173.7210  142.9910 N   0  0  2  0  0  0  0  0  0  0  0  0
  193.3420  173.1320  145.1940 C   0  0  2  0  0  3  0  0  0  0  0  0
  191.5170  170.5350  144.0440 O   0  0  0  0  0  1  0  0  0  0  0  0
  191.9360  175.1270  144.6670 C   0  0  1  0  0  3  0  0  0  0  0  0
  1 16  2  0  0  0  0
  1 21  1  0  0  0  0
  2  8  2  0  0  0  0
  3 17  1  0  0  0  0
  5 27  1  1  0  0  0
  5 24  1  0  0  0  0
  6  1  1  0  0  0  0
  8 14  1  0  0  0  0
  8  7  2  0  0  0  0
  9 18  1  6  0  0  0
  9 14  1  0  0  0  0
 10  8  1  6  0  0  0
 11 15  2  0  0  0  0
 12 24  1  0  0  0  0
 12 28  1  0  0  0  0
 13 26  1  0  0  0  0
 13  9  1  0  0  0  0
 15 23  1  0  0  0  0
 16 20  1  0  0  0  0
 17 25  1  0  0  0  0
 17  5  1  0  0  0  0
 19 15  1  0  0  0  0
 19 25  1  0  0  0  0
 20  4  2  0  0  0  0
 21 22  2  0  0  0  0
 22  4  1  0  0  0  0
 23  6  1  0  0  0  0
 24 26  1  0  0  0  0
 25 12  1  0  0  0  0
 26 10  1  0  0  0  0
 28 16  1  0  0  0  0
 28 10  1  0  0  0  0
M  END
>  <MODEL>
7

>  <REMARK>
 VINA RESULT:      -7.1      3.165      6.573
  Name = 
  0 active torsions:
  status: ('A' for Active; 'I' for Inactive)
                            x       y       z     vdW  Elec       q    Type
                         _______ _______ _______ _____ _____    ______ ____

>  <TORSDO>
F 0

$$$$
=
 OpenBabel11112417383D

 28 32  0  0  1  0  0  0  0  0999 V2000
  188.5710  175.8000  145.5100 C   0  0  0  0  0  0  0  0  0  0  0  0
  189.5980  171.6320  143.2530 O   0  0  0  0  0  0  0  0  0  0  0  0
  194.3120  175.3490  145.1710 C   0  0  0  0  0  1  0  0  0  0  0  0
  187.8790  177.7770  143.6520 C   0  0  0  0  0  3  0  0  0  0  0  0
  193.1460  175.6780  142.9830 C   0  0  1  0  0  3  0  0  0  0  0  0
  188.9410  174.8230  146.4390 O   0  0  0  0  0  0  0  0  0  0  0  0
  187.8440  172.3530  141.7020 O   0  0  0  0  0  0  0  0  0  0  0  0
  189.3140  172.4210  142.0050 S   0  0  0  0  0  0  0  0  0  0  0  0
  191.5660  172.9040  140.2150 C   0  0  2  0  0  3  0  0  0  0  0  0
  189.7560  174.1430  142.2620 C   0  0  2  0  0  3  0  0  0  0  0  0
  191.5190  176.5330  147.9170 O   0  0  0  0  0  0  0  0  0  0  0  0
  191.2990  174.7490  143.9700 C   0  0  1  0  0  3  0  0  0  0  0  0
  191.9480  173.4020  141.4620 O   0  0  0  0  0  0  0  0  0  0  0  0
  190.3750  171.5410  140.4130 S   0  0  0  0  0  0  0  0  0  0  0  0
  191.0280  175.5920  147.3180 C   0  0  0  0  0  0  0  0  0  0  0  0
  188.9450  175.6520  144.1630 C   0  0  0  0  0  0  0  0  0  0  0  0
  193.1180  176.0180  144.4880 C   0  0  1  0  0  3  0  0  0  0  0  0
  192.7870  172.4030  139.4730 C   0  0  0  0  0  1  0  0  0  0  0  0
  191.8250  174.8750  146.2730 C   0  0  0  0  0  2  0  0  0  0  0  0
  188.6040  176.6560  143.2420 C   0  0  0  0  0  3  0  0  0  0  0  0
  187.8540  176.9330  145.9190 C   0  0  0  0  0  3  0  0  0  0  0  0
  187.5040  177.9160  144.9900 C   0  0  0  0  0  3  0  0  0  0  0  0
  189.6300  175.1540  147.6380 C   0  0  0  0  0  2  0  0  0  0  0  0
  191.6960  175.4170  142.7260 C   0  0  2  0  0  3  0  0  0  0  0  0
  191.7770  175.6280  145.0190 N   0  0  2  0  0  0  0  0  0  0  0  0
  191.1320  174.5260  141.6490 C   0  0  2  0  0  3  0  0  0  0  0  0
  193.5620  176.7910  142.2530 O   0  0  0  0  0  1  0  0  0  0  0  0
  189.8180  174.4830  143.7720 C   0  0  1  0  0  3  0  0  0  0  0  0
  1 21  1  0  0  0  0
  1  6  1  0  0  0  0
  4 22  1  0  0  0  0
  5 27  1  6  0  0  0
  5 17  1  0  0  0  0
  6 23  1  0  0  0  0
  7  8  2  0  0  0  0
  8  2  2  0  0  0  0
  9 18  1  1  0  0  0
  9 14  1  0  0  0  0
  9 13  1  0  0  0  0
 10  8  1  1  0  0  0
 10 28  1  0  0  0  0
 12 25  1  0  0  0  0
 13 26  1  0  0  0  0
 14  8  1  0  0  0  0
 15 23  1  0  0  0  0
 15 11  2  0  0  0  0
 16  1  2  0  0  0  0
 17 25  1  0  0  0  0
 17  3  1  0  0  0  0
 19 15  1  0  0  0  0
 20  4  2  0  0  0  0
 20 16  1  0  0  0  0
 22 21  2  0  0  0  0
 24  5  1  0  0  0  0
 24 12  1  0  0  0  0
 25 19  1  0  0  0  0
 26 10  1  0  0  0  0
 26 24  1  0  0  0  0
 28 12  1  0  0  0  0
 28 16  1  0  0  0  0
M  END
>  <MODEL>
8

>  <REMARK>
 VINA RESULT:      -7.0      2.602      5.601
  Name = 
  0 active torsions:
  status: ('A' for Active; 'I' for Inactive)
                            x       y       z     vdW  Elec       q    Type
                         _______ _______ _______ _____ _____    ______ ____

>  <TORSDO>
F 0

$$$$
=
 OpenBabel11112417383D

 28 32  0  0  1  0  0  0  0  0999 V2000
  194.1170  174.0510  145.0910 C   0  0  0  0  0  0  0  0  0  0  0  0
  190.0820  174.9160  147.6380 O   0  0  0  0  0  0  0  0  0  0  0  0
  189.7170  171.5500  142.3220 C   0  0  0  0  0  1  0  0  0  0  0  0
  194.7910  176.2790  143.5350 C   0  0  0  0  0  3  0  0  0  0  0  0
  189.6740  174.0500  142.3360 C   0  0  1  0  0  3  0  0  0  0  0  0
  193.7690  172.9270  145.8450 O   0  0  0  0  0  0  0  0  0  0  0  0
  190.9610  177.2000  147.7420 O   0  0  0  0  0  0  0  0  0  0  0  0
  190.1180  176.2480  146.9430 S   0  0  0  0  0  0  0  0  0  0  0  0
  187.9670  176.8000  145.0510 C   0  0  2  0  0  3  0  0  0  0  0  0
  190.8630  176.0650  145.3180 C   0  0  2  0  0  3  0  0  0  0  0  0
  193.5990  170.6670  143.2730 O   0  0  0  0  0  0  0  0  0  0  0  0
  190.9220  173.9370  144.2530 C   0  0  1  0  0  3  0  0  0  0  0  0
  188.5590  175.6090  144.6280 O   0  0  0  0  0  0  0  0  0  0  0  0
  188.1520  176.9970  146.8520 S   0  0  0  0  0  0  0  0  0  0  0  0
  193.1480  171.2840  144.2230 C   0  0  0  0  0  0  0  0  0  0  0  0
  193.1410  175.0210  144.8010 C   0  0  0  0  0  0  0  0  0  0  0  0
  190.5880  172.8070  142.3040 C   0  0  1  0  0  3  0  0  0  0  0  0
  186.4960  176.7910  144.6930 C   0  0  0  0  0  1  0  0  0  0  0  0
  191.7120  171.7080  144.2250 C   0  0  0  0  0  2  0  0  0  0  0  0
  193.4870  176.1280  144.0100 C   0  0  0  0  0  3  0  0  0  0  0  0
  195.4220  174.2020  144.6020 C   0  0  0  0  0  3  0  0  0  0  0  0
  195.7590  175.3170  143.8310 C   0  0  0  0  0  3  0  0  0  0  0  0
  194.0350  171.6070  145.3880 C   0  0  0  0  0  2  0  0  0  0  0  0
  190.4210  174.9250  143.2910 C   0  0  2  0  0  3  0  0  0  0  0  0
  191.5610  172.9270  143.4320 N   0  0  2  0  0  0  0  0  0  0  0  0
  189.8220  175.9980  144.1650 C   0  0  2  0  0  3  0  0  0  0  0  0
  189.6420  174.6480  141.0760 O   0  0  0  0  0  1  0  0  0  0  0  0
  191.7160  174.7750  145.2390 C   0  0  1  0  0  3  0  0  0  0  0  0
  1  6  1  0  0  0  0
  4 22  2  0  0  0  0
  4 20  1  0  0  0  0
  5 27  1  6  0  0  0
  5 24  1  0  0  0  0
  8  2  2  0  0  0  0
  8  7  2  0  0  0  0
  9 18  1  1  0  0  0
  9 14  1  0  0  0  0
 10  8  1  1  0  0  0
 11 15  2  0  0  0  0
 12 28  1  0  0  0  0
 13  9  1  0  0  0  0
 14  8  1  0  0  0  0
 15 19  1  0  0  0  0
 15 23  1  0  0  0  0
 16  1  1  0  0  0  0
 16 28  1  0  0  0  0
 17  3  1  0  0  0  0
 17  5  1  0  0  0  0
 17 25  1  0  0  0  0
 20 16  2  0  0  0  0
 21  1  2  0  0  0  0
 22 21  1  0  0  0  0
 23  6  1  0  0  0  0
 24 26  1  0  0  0  0
 24 12  1  0  0  0  0
 25 19  1  0  0  0  0
 25 12  1  0  0  0  0
 26 13  1  0  0  0  0
 26 10  1  0  0  0  0
 28 10  1  0  0  0  0
M  END
>  <MODEL>
9

>  <REMARK>
 VINA RESULT:      -6.8      2.491      4.800
  Name = 
  0 active torsions:
  status: ('A' for Active; 'I' for Inactive)
                            x       y       z     vdW  Elec       q    Type
                         _______ _______ _______ _____ _____    ______ ____

>  <TORSDO>
F 0

$$$$
