=
 OpenBabel11112416153D

 30 35  0  0  1  0  0  0  0  0999 V2000
  187.0810  176.9780  143.6190 C   0  0  1  0  0  3  0  0  0  0  0  0
  184.9620  178.0360  144.5600 C   0  0  0  0  0  0  0  0  0  0  0  0
  188.4770  176.4280  147.4420 C   0  0  0  0  0  2  0  0  0  0  0  0
  188.2750  176.1180  144.0730 C   0  0  1  0  0  3  0  0  0  0  0  0
  186.2520  176.2200  142.7610 O   0  0  0  0  0  0  0  0  0  0  0  0
  188.8780  175.0420  140.5170 O   0  0  0  0  0  1  0  0  0  0  0  0
  191.4850  175.5790  143.6660 C   0  0  1  0  0  3  0  0  0  0  0  0
  188.1850  175.1710  141.7230 C   0  0  2  0  0  3  0  0  0  0  0  0
  191.4470  175.7630  145.1860 C   0  0  2  0  0  3  0  0  0  0  0  0
  189.6910  175.6950  147.0520 C   0  0  0  0  0  0  0  0  0  0  0  0
  186.9200  176.0170  141.5300 C   0  0  2  0  0  3  0  0  0  0  0  0
  189.0900  175.7640  142.8090 C   0  0  2  0  0  3  0  0  0  0  0  0
  184.2560  178.6320  145.6070 C   0  0  0  0  0  3  0  0  0  0  0  0
  192.1770  174.5760  145.7830 C   0  0  0  0  0  2  0  0  0  0  0  0
  193.0310  174.7200  143.2260 S   0  0  0  0  0  0  0  0  0  0  0  0
  184.3410  177.9330  143.3210 O   0  0  0  0  0  1  0  0  0  0  0  0
  188.3250  177.4130  146.2870 C   0  0  1  0  0  3  0  0  0  0  0  0
  184.8540  178.8040  146.8520 C   0  0  0  0  0  3  0  0  0  0  0  0
  186.2810  177.5630  144.7640 C   0  0  0  0  0  0  0  0  0  0  0  0
  189.1420  176.8590  145.0990 C   0  0  1  0  0  3  0  0  0  0  0  0
  190.3160  174.9410  147.8440 O   0  0  0  0  0  0  0  0  0  0  0  0
  190.0800  175.9180  145.7010 N   0  0  0  0  0  0  0  0  0  0  0  0
  193.4360  174.3960  144.9680 C   0  0  0  0  0  2  0  0  0  0  0  0
  189.9170  173.5290  143.7580 C   0  0  0  0  0  1  0  0  0  0  0  0
  186.1680  178.3880  147.0520 C   0  0  0  0  0  3  0  0  0  0  0  0
  186.8900  177.7740  146.0200 C   0  0  0  0  0  0  0  0  0  0  0  0
  190.2860  174.8360  143.0580 C   0  0  2  0  0  3  0  0  0  0  0  0
  187.1660  177.3220  140.7650 C   0  0  0  0  0  2  0  0  0  0  0  0
  185.2630  178.6240  140.2340 F   0  0  0  0  0  0  0  0  0  0  0  0
  186.0390  177.5740  139.7830 C   0  0  0  0  0  2  0  0  0  0  0  0
  1  5  1  1  0  0  0
  1  4  1  0  0  0  0
  1 19  1  0  0  0  0
  2 19  2  0  0  0  0
  2 13  1  0  0  0  0
  4 20  1  0  0  0  0
  6  8  1  0  0  0  0
  7  9  1  0  0  0  0
  8 12  1  0  0  0  0
  9 22  1  0  0  0  0
  9 14  1  0  0  0  0
 10  3  1  0  0  0  0
 10 21  2  0  0  0  0
 11  8  1  0  0  0  0
 11  5  1  0  0  0  0
 12 27  1  0  0  0  0
 12  4  1  0  0  0  0
 13 18  2  0  0  0  0
 15  7  1  0  0  0  0
 15 23  1  0  0  0  0
 16  2  1  0  0  0  0
 17  3  1  0  0  0  0
 18 25  1  0  0  0  0
 19 26  1  0  0  0  0
 20 22  1  0  0  0  0
 20 17  1  0  0  0  0
 22 10  1  0  0  0  0
 23 14  1  0  0  0  0
 26 17  1  0  0  0  0
 26 25  2  0  0  0  0
 27  7  1  0  0  0  0
 27 24  1  0  0  0  0
 28 11  1  0  0  0  0
 30 29  1  0  0  0  0
 30 28  1  0  0  0  0
M  END
>  <MODEL>
1

>  <REMARK>
 VINA RESULT:      -8.6      0.000      0.000
  Name = 
  2 active torsions:
  status: ('A' for Active; 'I' for Inactive)
    1  A    between atoms: C_11  and  C_28
    2  A    between atoms: C_28  and  C_30
                            x       y       z     vdW  Elec       q    Type
                         _______ _______ _______ _____ _____    ______ ____

>  <TORSDO>
F 2

$$$$
=
 OpenBabel11112416153D

 30 35  0  0  1  0  0  0  0  0999 V2000
  190.1150  174.7170  143.6340 C   0  0  1  0  0  3  0  0  0  0  0  0
  192.4610  173.7440  143.4280 C   0  0  0  0  0  0  0  0  0  0  0  0
  191.2010  176.5330  147.1530 C   0  0  0  0  0  2  0  0  0  0  0  0
  189.3510  175.8080  144.4070 C   0  0  1  0  0  3  0  0  0  0  0  0
  190.2110  175.0850  142.2720 O   0  0  0  0  0  0  0  0  0  0  0  0
  186.6790  175.8470  141.7570 O   0  0  0  0  0  1  0  0  0  0  0  0
  186.4870  176.5760  145.8110 C   0  0  1  0  0  3  0  0  0  0  0  0
  187.9580  176.0000  142.2990 C   0  0  2  0  0  3  0  0  0  0  0  0
  187.4290  176.8470  146.9880 C   0  0  2  0  0  3  0  0  0  0  0  0
  189.9350  177.2560  147.3440 C   0  0  0  0  0  0  0  0  0  0  0  0
  188.9310  174.9920  141.6750 C   0  0  2  0  0  3  0  0  0  0  0  0
  187.9210  175.8650  143.8250 C   0  0  2  0  0  3  0  0  0  0  0  0
  193.6950  173.4040  143.9860 C   0  0  0  0  0  3  0  0  0  0  0  0
  187.0960  178.2340  147.4980 C   0  0  0  0  0  2  0  0  0  0  0  0
  184.9140  177.4430  146.1190 S   0  0  0  0  0  0  0  0  0  0  0  0
  192.2210  173.4010  142.1030 O   0  0  0  0  0  1  0  0  0  0  0  0
  190.7260  175.2410  146.4990 C   0  0  1  0  0  3  0  0  0  0  0  0
  193.9630  173.6800  145.3230 C   0  0  0  0  0  3  0  0  0  0  0  0
  191.4820  174.4080  144.2060 C   0  0  0  0  0  0  0  0  0  0  0  0
  189.3220  175.5110  145.9130 C   0  0  1  0  0  3  0  0  0  0  0  0
  189.8360  178.2780  148.0730 O   0  0  0  0  0  0  0  0  0  0  0  0
  188.8440  176.6910  146.6240 N   0  0  0  0  0  0  0  0  0  0  0  0
  185.5890  178.3120  147.5660 C   0  0  0  0  0  2  0  0  0  0  0  0
  187.6290  178.3620  144.3350 C   0  0  0  0  0  1  0  0  0  0  0  0
  192.9910  174.2880  146.1140 C   0  0  0  0  0  3  0  0  0  0  0  0
  191.7500  174.6500  145.5710 C   0  0  0  0  0  0  0  0  0  0  0  0
  187.0300  176.9600  144.4260 C   0  0  2  0  0  3  0  0  0  0  0  0
  188.3920  173.5570  141.6430 C   0  0  0  0  0  2  0  0  0  0  0  0
  187.8220  172.4880  139.6110 F   0  0  0  0  0  0  0  0  0  0  0  0
  188.8940  172.8360  140.4090 C   0  0  0  0  0  2  0  0  0  0  0  0
  1  5  1  6  0  0  0
  1 19  1  0  0  0  0
  1  4  1  0  0  0  0
  2 13  2  0  0  0  0
  2 19  1  0  0  0  0
  3 10  1  0  0  0  0
  4 20  1  0  0  0  0
  6  8  1  0  0  0  0
  7 15  1  0  0  0  0
  7  9  1  0  0  0  0
  8 12  1  0  0  0  0
  9 14  1  0  0  0  0
 10 21  2  0  0  0  0
 11  5  1  0  0  0  0
 11  8  1  0  0  0  0
 12  4  1  0  0  0  0
 12 27  1  0  0  0  0
 13 18  1  0  0  0  0
 14 23  1  0  0  0  0
 15 23  1  0  0  0  0
 16  2  1  0  0  0  0
 17  3  1  0  0  0  0
 18 25  2  0  0  0  0
 19 26  2  0  0  0  0
 20 17  1  0  0  0  0
 20 22  1  0  0  0  0
 22  9  1  0  0  0  0
 22 10  1  0  0  0  0
 24 27  1  0  0  0  0
 26 25  1  0  0  0  0
 26 17  1  0  0  0  0
 27  7  1  0  0  0  0
 28 11  1  0  0  0  0
 29 30  1  0  0  0  0
 30 28  1  0  0  0  0
M  END
>  <MODEL>
2

>  <REMARK>
 VINA RESULT:      -7.5      2.640      5.798
  Name = 
  2 active torsions:
  status: ('A' for Active; 'I' for Inactive)
    1  A    between atoms: C_11  and  C_28
    2  A    between atoms: C_28  and  C_30
                            x       y       z     vdW  Elec       q    Type
                         _______ _______ _______ _____ _____    ______ ____

>  <TORSDO>
F 2

$$$$
=
 OpenBabel11112416153D

 30 35  0  0  1  0  0  0  0  0999 V2000
  188.1870  176.7580  145.7200 C   0  0  1  0  0  3  0  0  0  0  0  0
  186.6520  178.2920  147.0560 C   0  0  0  0  0  0  0  0  0  0  0  0
  185.8710  177.3800  142.3870 C   0  0  0  0  0  2  0  0  0  0  0  0
  188.5190  176.3970  144.2610 C   0  0  1  0  0  3  0  0  0  0  0  0
  189.2800  177.4460  146.2960 O   0  0  0  0  0  0  0  0  0  0  0  0
  191.8750  175.0690  145.3290 O   0  0  0  0  0  1  0  0  0  0  0  0
  189.3770  173.9570  142.2420 C   0  0  1  0  0  3  0  0  0  0  0  0
  190.8680  176.0180  145.1340 C   0  0  2  0  0  3  0  0  0  0  0  0
  188.1440  174.4820  141.4990 C   0  0  2  0  0  3  0  0  0  0  0  0
  186.7290  176.6190  141.4660 C   0  0  0  0  0  0  0  0  0  0  0  0
  190.3530  176.5420  146.4790 C   0  0  2  0  0  3  0  0  0  0  0  0
  189.7280  175.4350  144.2900 C   0  0  2  0  0  3  0  0  0  0  0  0
  185.4410  178.9670  147.2170 C   0  0  0  0  0  3  0  0  0  0  0  0
  188.5670  174.6980  140.0600 C   0  0  0  0  0  2  0  0  0  0  0  0
  190.3780  172.9740  141.0790 S   0  0  0  0  0  0  0  0  0  0  0  0
  187.5850  178.3570  148.0840 O   0  0  0  0  0  1  0  0  0  0  0  0
  186.0270  176.5890  143.6810 C   0  0  1  0  0  3  0  0  0  0  0  0
  184.4550  178.8890  146.2380 C   0  0  0  0  0  3  0  0  0  0  0  0
  186.9070  177.5520  145.8760 C   0  0  0  0  0  0  0  0  0  0  0  0
  187.3180  175.7500  143.5560 C   0  0  1  0  0  3  0  0  0  0  0  0
  186.7080  176.7860  140.2180 O   0  0  0  0  0  0  0  0  0  0  0  0
  187.5810  175.6860  142.1230 N   0  0  0  0  0  0  0  0  0  0  0  0
  189.3580  173.4750  139.6600 C   0  0  0  0  0  2  0  0  0  0  0  0
  190.6180  176.2100  142.0130 C   0  0  0  0  0  1  0  0  0  0  0  0
  184.6730  178.1240  145.0950 C   0  0  0  0  0  3  0  0  0  0  0  0
  185.8870  177.4500  144.9060 C   0  0  0  0  0  0  0  0  0  0  0  0
  190.2550  175.0270  142.9080 C   0  0  2  0  0  3  0  0  0  0  0  0
  190.0310  175.4330  147.4870 C   0  0  0  0  0  2  0  0  0  0  0  0
  191.5670  176.5440  148.9020 F   0  0  0  0  0  0  0  0  0  0  0  0
  191.1580  175.2910  148.4890 C   0  0  0  0  0  2  0  0  0  0  0  0
  1 19  1  6  0  0  0
  1  5  1  0  0  0  0
  2 13  1  0  0  0  0
  2 16  1  0  0  0  0
  3 17  1  0  0  0  0
  4 12  1  0  0  0  0
  4  1  1  0  0  0  0
  5 11  1  0  0  0  0
  7 27  1  0  0  0  0
  8  6  1  0  0  0  0
  8 11  1  0  0  0  0
  9 22  1  0  0  0  0
  9  7  1  0  0  0  0
 10 22  1  0  0  0  0
 10  3  1  0  0  0  0
 11 28  1  0  0  0  0
 12  8  1  0  0  0  0
 14  9  1  0  0  0  0
 15  7  1  0  0  0  0
 17 26  1  0  0  0  0
 18 13  2  0  0  0  0
 19  2  2  0  0  0  0
 20 17  1  0  0  0  0
 20  4  1  0  0  0  0
 21 10  2  0  0  0  0
 22 20  1  0  0  0  0
 23 14  1  0  0  0  0
 23 15  1  0  0  0  0
 24 27  1  0  0  0  0
 25 18  1  0  0  0  0
 26 25  2  0  0  0  0
 26 19  1  0  0  0  0
 27 12  1  0  0  0  0
 28 30  1  0  0  0  0
 30 29  1  0  0  0  0
M  END
>  <MODEL>
3

>  <REMARK>
 VINA RESULT:      -7.3      2.787      5.165
  Name = 
  2 active torsions:
  status: ('A' for Active; 'I' for Inactive)
    1  A    between atoms: C_11  and  C_28
    2  A    between atoms: C_28  and  C_30
                            x       y       z     vdW  Elec       q    Type
                         _______ _______ _______ _____ _____    ______ ____

>  <TORSDO>
F 2

$$$$
=
 OpenBabel11112416153D

 30 35  0  0  1  0  0  0  0  0999 V2000
  187.9630  177.1070  144.4160 C   0  0  1  0  0  3  0  0  0  0  0  0
  186.3040  178.0210  146.1210 C   0  0  0  0  0  0  0  0  0  0  0  0
  190.6750  176.4670  147.4320 C   0  0  0  0  0  2  0  0  0  0  0  0
  189.2650  176.2870  144.3550 C   0  0  1  0  0  3  0  0  0  0  0  0
  186.9010  176.3470  143.8770 O   0  0  0  0  0  0  0  0  0  0  0  0
  188.5590  175.3910  140.7690 O   0  0  0  0  0  1  0  0  0  0  0  0
  192.1190  175.9210  142.7790 C   0  0  1  0  0  3  0  0  0  0  0  0
  188.3510  175.4360  142.1490 C   0  0  2  0  0  3  0  0  0  0  0  0
  192.6340  176.0390  144.2170 C   0  0  2  0  0  3  0  0  0  0  0  0
  191.6840  175.8100  146.5870 C   0  0  0  0  0  0  0  0  0  0  0  0
  187.0790  176.2270  142.4770 C   0  0  2  0  0  3  0  0  0  0  0  0
  189.5720  176.0260  142.8630 C   0  0  2  0  0  3  0  0  0  0  0  0
  186.0130  178.5390  147.3840 C   0  0  0  0  0  3  0  0  0  0  0  0
  193.5660  174.8650  144.4400 C   0  0  0  0  0  2  0  0  0  0  0  0
  193.4220  175.1560  141.7600 S   0  0  0  0  0  0  0  0  0  0  0  0
  185.2770  177.9410  145.1880 O   0  0  0  0  0  1  0  0  0  0  0  0
  190.0830  177.4900  146.4690 C   0  0  1  0  0  3  0  0  0  0  0  0
  187.0190  178.6880  148.3340 C   0  0  0  0  0  3  0  0  0  0  0  0
  187.6200  177.6040  145.8040 C   0  0  0  0  0  0  0  0  0  0  0  0
  190.4250  177.0260  145.0360 C   0  0  1  0  0  3  0  0  0  0  0  0
  192.5780  175.0550  147.0530 O   0  0  0  0  0  0  0  0  0  0  0  0
  191.5460  176.1070  145.2010 N   0  0  0  0  0  0  0  0  0  0  0  0
  194.4450  174.7800  143.2150 C   0  0  0  0  0  2  0  0  0  0  0  0
  190.7550  173.7960  143.3200 C   0  0  0  0  0  1  0  0  0  0  0  0
  188.3270  178.3280  148.0190 C   0  0  0  0  0  3  0  0  0  0  0  0
  188.6400  177.7920  146.7620 C   0  0  0  0  0  0  0  0  0  0  0  0
  190.8040  175.1470  142.6080 C   0  0  2  0  0  3  0  0  0  0  0  0
  186.9890  177.5740  141.7500 C   0  0  0  0  0  2  0  0  0  0  0  0
  184.7090  177.1630  142.2300 F   0  0  0  0  0  0  0  0  0  0  0  0
  185.5470  177.8880  141.4060 C   0  0  0  0  0  2  0  0  0  0  0  0
  1  5  1  1  0  0  0
  1 19  1  0  0  0  0
  2 13  1  0  0  0  0
  4  1  1  0  0  0  0
  4 20  1  0  0  0  0
  6  8  1  0  0  0  0
  7  9  1  0  0  0  0
  8 11  1  0  0  0  0
  8 12  1  0  0  0  0
  9 14  1  0  0  0  0
  9 22  1  0  0  0  0
 10 21  2  0  0  0  0
 10  3  1  0  0  0  0
 11  5  1  0  0  0  0
 12  4  1  0  0  0  0
 13 18  2  0  0  0  0
 15  7  1  0  0  0  0
 15 23  1  0  0  0  0
 16  2  1  0  0  0  0
 17 26  1  0  0  0  0
 17  3  1  0  0  0  0
 19  2  2  0  0  0  0
 19 26  1  0  0  0  0
 20 22  1  0  0  0  0
 20 17  1  0  0  0  0
 22 10  1  0  0  0  0
 23 14  1  0  0  0  0
 25 18  1  0  0  0  0
 26 25  2  0  0  0  0
 27  7  1  0  0  0  0
 27 12  1  0  0  0  0
 27 24  1  0  0  0  0
 28 11  1  0  0  0  0
 30 28  1  0  0  0  0
 30 29  1  0  0  0  0
M  END
>  <MODEL>
4

>  <REMARK>
 VINA RESULT:      -7.3      1.392      1.714
  Name = 
  2 active torsions:
  status: ('A' for Active; 'I' for Inactive)
    1  A    between atoms: C_11  and  C_28
    2  A    between atoms: C_28  and  C_30
                            x       y       z     vdW  Elec       q    Type
                         _______ _______ _______ _____ _____    ______ ____

>  <TORSDO>
F 2

$$$$
=
 OpenBabel11112416153D

 30 35  0  0  1  0  0  0  0  0999 V2000
  188.3990  176.0070  143.5100 C   0  0  1  0  0  3  0  0  0  0  0  0
  186.0490  176.8930  143.9380 C   0  0  0  0  0  0  0  0  0  0  0  0
  189.5220  177.2380  147.2620 C   0  0  0  0  0  2  0  0  0  0  0  0
  189.6820  175.6400  144.2770 C   0  0  1  0  0  3  0  0  0  0  0  0
  187.8000  174.8300  143.0040 O   0  0  0  0  0  0  0  0  0  0  0  0
  190.7860  173.4430  141.4290 O   0  0  0  0  0  1  0  0  0  0  0  0
  192.9610  175.6440  144.1540 C   0  0  1  0  0  3  0  0  0  0  0  0
  189.9760  173.8770  142.4810 C   0  0  2  0  0  3  0  0  0  0  0  0
  192.7540  176.3780  145.4830 C   0  0  2  0  0  3  0  0  0  0  0  0
  190.8780  176.6720  147.2050 C   0  0  0  0  0  0  0  0  0  0  0  0
  188.6020  174.3150  141.9580 C   0  0  2  0  0  3  0  0  0  0  0  0
  190.6590  175.0060  143.2620 C   0  0  2  0  0  3  0  0  0  0  0  0
  185.1560  177.6870  144.6600 C   0  0  0  0  0  3  0  0  0  0  0  0
  193.6290  175.6790  146.5040 C   0  0  0  0  0  2  0  0  0  0  0  0
  194.6690  175.0110  144.1030 S   0  0  0  0  0  0  0  0  0  0  0  0
  185.5700  176.2060  142.8280 O   0  0  0  0  0  1  0  0  0  0  0  0
  189.3000  177.6600  145.8140 C   0  0  1  0  0  3  0  0  0  0  0  0
  185.5990  178.4340  145.7480 C   0  0  0  0  0  3  0  0  0  0  0  0
  187.4070  176.8080  144.3260 C   0  0  0  0  0  0  0  0  0  0  0  0
  190.3070  176.8730  144.9460 C   0  0  1  0  0  3  0  0  0  0  0  0
  191.5560  176.4160  148.2350 O   0  0  0  0  0  0  0  0  0  0  0  0
  191.3410  176.4400  145.8780 N   0  0  0  0  0  0  0  0  0  0  0  0
  194.9680  175.4600  145.8390 C   0  0  0  0  0  2  0  0  0  0  0  0
  191.7850  173.5120  145.0170 C   0  0  0  0  0  1  0  0  0  0  0  0
  186.9430  178.3980  146.1110 C   0  0  0  0  0  3  0  0  0  0  0  0
  187.8540  177.5970  145.4080 C   0  0  0  0  0  0  0  0  0  0  0  0
  191.9750  174.5010  143.8680 C   0  0  2  0  0  3  0  0  0  0  0  0
  188.6770  175.2530  140.7480 C   0  0  0  0  0  2  0  0  0  0  0  0
  188.1170  173.1830  139.7470 F   0  0  0  0  0  0  0  0  0  0  0  0
  188.1910  174.5410  139.5010 C   0  0  0  0  0  2  0  0  0  0  0  0
  1  5  1  1  0  0  0
  1  4  1  0  0  0  0
  1 19  1  0  0  0  0
  2 19  2  0  0  0  0
  2 13  1  0  0  0  0
  4 20  1  0  0  0  0
  6  8  1  0  0  0  0
  7  9  1  0  0  0  0
  8 12  1  0  0  0  0
  9 22  1  0  0  0  0
  9 14  1  0  0  0  0
 10  3  1  0  0  0  0
 10 21  2  0  0  0  0
 11  8  1  0  0  0  0
 11  5  1  0  0  0  0
 12 27  1  0  0  0  0
 12  4  1  0  0  0  0
 13 18  2  0  0  0  0
 15  7  1  0  0  0  0
 15 23  1  0  0  0  0
 16  2  1  0  0  0  0
 17  3  1  0  0  0  0
 18 25  1  0  0  0  0
 19 26  1  0  0  0  0
 20 17  1  0  0  0  0
 20 22  1  0  0  0  0
 22 10  1  0  0  0  0
 23 14  1  0  0  0  0
 26 17  1  0  0  0  0
 26 25  2  0  0  0  0
 27  7  1  0  0  0  0
 27 24  1  0  0  0  0
 28 11  1  0  0  0  0
 30 29  1  0  0  0  0
 30 28  1  0  0  0  0
M  END
>  <MODEL>
5

>  <REMARK>
 VINA RESULT:      -7.3      1.912      2.190
  Name = 
  2 active torsions:
  status: ('A' for Active; 'I' for Inactive)
    1  A    between atoms: C_11  and  C_28
    2  A    between atoms: C_28  and  C_30
                            x       y       z     vdW  Elec       q    Type
                         _______ _______ _______ _____ _____    ______ ____

>  <TORSDO>
F 2

$$$$
=
 OpenBabel11112416153D

 30 35  0  0  1  0  0  0  0  0999 V2000
  189.1350  176.2850  144.6980 C   0  0  1  0  0  3  0  0  0  0  0  0
  190.0960  176.8760  146.9820 C   0  0  0  0  0  0  0  0  0  0  0  0
  191.8970  173.2680  144.3410 C   0  0  0  0  0  2  0  0  0  0  0  0
  189.1540  175.1420  143.6670 C   0  0  1  0  0  3  0  0  0  0  0  0
  187.8500  176.3720  145.2810 O   0  0  0  0  0  0  0  0  0  0  0  0
  185.9410  176.4060  142.1700 O   0  0  0  0  0  1  0  0  0  0  0  0
  189.1350  174.4350  140.4630 C   0  0  1  0  0  3  0  0  0  0  0  0
  186.7850  175.8790  143.1510 C   0  0  2  0  0  3  0  0  0  0  0  0
  190.3760  173.6440  140.8920 C   0  0  2  0  0  3  0  0  0  0  0  0
  191.3760  172.7390  143.0710 C   0  0  0  0  0  0  0  0  0  0  0  0
  186.9360  176.8620  144.3180 C   0  0  2  0  0  3  0  0  0  0  0  0
  188.1480  175.5110  142.5540 C   0  0  2  0  0  3  0  0  0  0  0  0
  191.1180  176.8080  147.9320 C   0  0  0  0  0  3  0  0  0  0  0  0
  190.2030  172.2410  140.3480 C   0  0  0  0  0  2  0  0  0  0  0  0
  188.5610  173.7850  138.8610 S   0  0  0  0  0  0  0  0  0  0  0  0
  188.9880  177.6670  147.2630 O   0  0  0  0  0  1  0  0  0  0  0  0
  191.6390  174.7620  144.1840 C   0  0  1  0  0  3  0  0  0  0  0  0
  192.2700  176.0710  147.6750 C   0  0  0  0  0  3  0  0  0  0  0  0
  190.2030  176.1630  145.7640 C   0  0  0  0  0  0  0  0  0  0  0  0
  190.5610  174.9310  143.0900 C   0  0  1  0  0  3  0  0  0  0  0  0
  191.6040  171.5650  142.6760 O   0  0  0  0  0  0  0  0  0  0  0  0
  190.5900  173.6780  142.3440 N   0  0  0  0  0  0  0  0  0  0  0  0
  189.7280  172.3920  138.9210 C   0  0  0  0  0  2  0  0  0  0  0  0
  187.5860  173.0680  142.0130 C   0  0  0  0  0  1  0  0  0  0  0  0
  192.4100  175.4050  146.4600 C   0  0  0  0  0  3  0  0  0  0  0  0
  191.3910  175.4480  145.4990 C   0  0  0  0  0  0  0  0  0  0  0  0
  187.9740  174.4410  141.4680 C   0  0  2  0  0  3  0  0  0  0  0  0
  187.2490  178.2960  143.8760 C   0  0  0  0  0  2  0  0  0  0  0  0
  185.9410  179.4430  145.4800 F   0  0  0  0  0  0  0  0  0  0  0  0
  186.0550  179.1950  144.1250 C   0  0  0  0  0  2  0  0  0  0  0  0
  1  5  1  1  0  0  0
  1 19  1  0  0  0  0
  2 16  1  0  0  0  0
  2 13  1  0  0  0  0
  4  1  1  0  0  0  0
  6  8  1  0  0  0  0
  7  9  1  0  0  0  0
  7 27  1  0  0  0  0
  8 11  1  0  0  0  0
  9 22  1  0  0  0  0
 10  3  1  0  0  0  0
 11  5  1  0  0  0  0
 12  8  1  0  0  0  0
 12  4  1  0  0  0  0
 14  9  1  0  0  0  0
 15 23  1  0  0  0  0
 15  7  1  0  0  0  0
 17  3  1  0  0  0  0
 17 26  1  0  0  0  0
 18 13  2  0  0  0  0
 19  2  2  0  0  0  0
 20  4  1  0  0  0  0
 20 17  1  0  0  0  0
 21 10  2  0  0  0  0
 22 10  1  0  0  0  0
 22 20  1  0  0  0  0
 23 14  1  0  0  0  0
 25 18  1  0  0  0  0
 26 19  1  0  0  0  0
 26 25  2  0  0  0  0
 27 24  1  0  0  0  0
 27 12  1  0  0  0  0
 28 30  1  0  0  0  0
 28 11  1  0  0  0  0
 30 29  1  0  0  0  0
M  END
>  <MODEL>
6

>  <REMARK>
 VINA RESULT:      -7.1      2.622      4.916
  Name = 
  2 active torsions:
  status: ('A' for Active; 'I' for Inactive)
    1  A    between atoms: C_11  and  C_28
    2  A    between atoms: C_28  and  C_30
                            x       y       z     vdW  Elec       q    Type
                         _______ _______ _______ _____ _____    ______ ____

>  <TORSDO>
F 2

$$$$
=
 OpenBabel11112416153D

 30 35  0  0  1  0  0  0  0  0999 V2000
  190.6000  176.0140  145.4310 C   0  0  1  0  0  3  0  0  0  0  0  0
  192.7090  174.6230  145.7640 C   0  0  0  0  0  0  0  0  0  0  0  0
  190.2560  174.5370  141.6150 C   0  0  0  0  0  2  0  0  0  0  0  0
  189.3890  176.1180  144.4850 C   0  0  1  0  0  3  0  0  0  0  0  0
  190.1700  175.5600  146.6990 O   0  0  0  0  0  0  0  0  0  0  0  0
  187.4460  177.9490  147.1380 O   0  0  0  0  0  1  0  0  0  0  0  0
  187.3130  178.1950  143.0240 C   0  0  1  0  0  3  0  0  0  0  0  0
  188.1370  176.8860  146.5510 C   0  0  2  0  0  3  0  0  0  0  0  0
  187.8030  177.4190  141.7980 C   0  0  2  0  0  3  0  0  0  0  0  0
  188.9700  175.1870  141.3200 C   0  0  0  0  0  0  0  0  0  0  0  0
  189.4230  176.5830  147.3290 C   0  0  2  0  0  3  0  0  0  0  0  0
  188.4360  177.1810  145.0760 C   0  0  2  0  0  3  0  0  0  0  0  0
  193.7720  173.8760  145.2530 C   0  0  0  0  0  3  0  0  0  0  0  0
  186.5650  176.9710  141.0470 C   0  0  0  0  0  2  0  0  0  0  0  0
  185.7500  179.0290  142.5940 S   0  0  0  0  0  0  0  0  0  0  0  0
  192.6610  174.8490  147.1350 O   0  0  0  0  0  1  0  0  0  0  0  0
  190.9300  175.5740  142.5070 C   0  0  1  0  0  3  0  0  0  0  0  0
  193.8910  173.6670  143.8820 C   0  0  0  0  0  3  0  0  0  0  0  0
  191.7180  175.1440  144.8970 C   0  0  0  0  0  0  0  0  0  0  0  0
  189.8210  176.4950  143.0620 C   0  0  1  0  0  3  0  0  0  0  0  0
  188.1920  174.7810  140.4170 O   0  0  0  0  0  0  0  0  0  0  0  0
  188.6940  176.3070  142.1540 N   0  0  0  0  0  0  0  0  0  0  0  0
  185.6420  178.1660  140.9970 C   0  0  0  0  0  2  0  0  0  0  0  0
  186.3300  176.0730  144.1190 C   0  0  0  0  0  1  0  0  0  0  0  0
  192.9510  174.2150  143.0140 C   0  0  0  0  0  3  0  0  0  0  0  0
  191.8670  174.9560  143.5060 C   0  0  0  0  0  0  0  0  0  0  0  0
  187.1240  177.3650  144.3020 C   0  0  2  0  0  3  0  0  0  0  0  0
  190.2620  177.8290  147.6370 C   0  0  0  0  0  2  0  0  0  0  0  0
  191.2060  178.5840  149.6710 F   0  0  0  0  0  0  0  0  0  0  0  0
  191.2330  177.5420  148.7640 C   0  0  0  0  0  2  0  0  0  0  0  0
  1 19  1  6  0  0  0
  1  5  1  0  0  0  0
  2 16  1  0  0  0  0
  3 17  1  0  0  0  0
  4 12  1  0  0  0  0
  4  1  1  0  0  0  0
  5 11  1  0  0  0  0
  7 27  1  0  0  0  0
  8  6  1  0  0  0  0
  8 11  1  0  0  0  0
  9 22  1  0  0  0  0
  9  7  1  0  0  0  0
 10  3  1  0  0  0  0
 10 22  1  0  0  0  0
 11 28  1  0  0  0  0
 12  8  1  0  0  0  0
 13  2  1  0  0  0  0
 14  9  1  0  0  0  0
 15  7  1  0  0  0  0
 17 20  1  0  0  0  0
 17 26  1  0  0  0  0
 18 13  2  0  0  0  0
 19  2  2  0  0  0  0
 20  4  1  0  0  0  0
 21 10  2  0  0  0  0
 22 20  1  0  0  0  0
 23 14  1  0  0  0  0
 23 15  1  0  0  0  0
 24 27  1  0  0  0  0
 25 26  2  0  0  0  0
 25 18  1  0  0  0  0
 26 19  1  0  0  0  0
 27 12  1  0  0  0  0
 28 30  1  0  0  0  0
 30 29  1  0  0  0  0
M  END
>  <MODEL>
7

>  <REMARK>
 VINA RESULT:      -7.1      3.208      7.088
  Name = 
  2 active torsions:
  status: ('A' for Active; 'I' for Inactive)
    1  A    between atoms: C_11  and  C_28
    2  A    between atoms: C_28  and  C_30
                            x       y       z     vdW  Elec       q    Type
                         _______ _______ _______ _____ _____    ______ ____

>  <TORSDO>
F 2

$$$$
=
 OpenBabel11112416153D

 30 35  0  0  1  0  0  0  0  0999 V2000
  189.6740  175.8100  144.5360 C   0  0  1  0  0  3  0  0  0  0  0  0
  187.8560  177.4710  145.1900 C   0  0  0  0  0  0  0  0  0  0  0  0
  187.8160  175.2340  140.9200 C   0  0  0  0  0  2  0  0  0  0  0  0
  190.2360  175.1020  143.2890 C   0  0  1  0  0  3  0  0  0  0  0  0
  190.6200  176.7460  145.0130 O   0  0  0  0  0  0  0  0  0  0  0  0
  193.4940  174.4980  145.0730 O   0  0  0  0  0  1  0  0  0  0  0  0
  191.5500  172.3130  142.1670 C   0  0  1  0  0  3  0  0  0  0  0  0
  192.4590  175.2400  144.5000 C   0  0  2  0  0  3  0  0  0  0  0  0
  190.4000  172.4740  141.1670 C   0  0  2  0  0  3  0  0  0  0  0  0
  188.8500  174.3500  140.3610 C   0  0  0  0  0  0  0  0  0  0  0  0
  191.7200  176.0520  145.5700 C   0  0  2  0  0  3  0  0  0  0  0  0
  191.4970  174.3260  143.7320 C   0  0  2  0  0  3  0  0  0  0  0  0
  186.5880  178.0260  145.0100 C   0  0  0  0  0  3  0  0  0  0  0  0
  191.0060  172.3340  139.7860 C   0  0  0  0  0  2  0  0  0  0  0  0
  192.7760  171.1670  141.4580 S   0  0  0  0  0  0  0  0  0  0  0  0
  188.6260  177.9190  146.2570 O   0  0  0  0  0  1  0  0  0  0  0  0
  187.8440  174.8500  142.3950 C   0  0  1  0  0  3  0  0  0  0  0  0
  185.7590  177.5740  143.9870 C   0  0  0  0  0  3  0  0  0  0  0  0
  188.3300  176.4690  144.3090 C   0  0  0  0  0  0  0  0  0  0  0  0
  189.1990  174.1580  142.6650 C   0  0  1  0  0  3  0  0  0  0  0  0
  188.9940  174.1660  139.1230 O   0  0  0  0  0  0  0  0  0  0  0  0
  189.6670  173.7340  141.3510 N   0  0  0  0  0  0  0  0  0  0  0  0
  191.9340  171.1430  139.8460 C   0  0  0  0  0  2  0  0  0  0  0  0
  192.6420  174.5400  141.4470 C   0  0  0  0  0  1  0  0  0  0  0  0
  186.1940  176.5540  143.1440 C   0  0  0  0  0  3  0  0  0  0  0  0
  187.4690  175.9920  143.2970 C   0  0  0  0  0  0  0  0  0  0  0  0
  192.2430  173.6150  142.5960 C   0  0  2  0  0  3  0  0  0  0  0  0
  191.3400  175.2320  146.8090 C   0  0  0  0  0  2  0  0  0  0  0  0
  192.1960  177.0880  148.0010 F   0  0  0  0  0  0  0  0  0  0  0  0
  191.1910  176.1400  148.0130 C   0  0  0  0  0  2  0  0  0  0  0  0
  1 19  1  6  0  0  0
  1  5  1  0  0  0  0
  2 16  1  0  0  0  0
  3 17  1  0  0  0  0
  4 12  1  0  0  0  0
  4  1  1  0  0  0  0
  5 11  1  0  0  0  0
  7 27  1  0  0  0  0
  8  6  1  0  0  0  0
  8 11  1  0  0  0  0
  9 22  1  0  0  0  0
  9  7  1  0  0  0  0
 10  3  1  0  0  0  0
 10 22  1  0  0  0  0
 11 28  1  0  0  0  0
 12  8  1  0  0  0  0
 13  2  1  0  0  0  0
 14 23  1  0  0  0  0
 14  9  1  0  0  0  0
 15  7  1  0  0  0  0
 17 20  1  0  0  0  0
 17 26  1  0  0  0  0
 18 13  2  0  0  0  0
 19  2  2  0  0  0  0
 20  4  1  0  0  0  0
 21 10  2  0  0  0  0
 22 20  1  0  0  0  0
 23 15  1  0  0  0  0
 24 27  1  0  0  0  0
 25 26  2  0  0  0  0
 25 18  1  0  0  0  0
 26 19  1  0  0  0  0
 27 12  1  0  0  0  0
 28 30  1  0  0  0  0
 29 30  1  0  0  0  0
M  END
>  <MODEL>
8

>  <REMARK>
 VINA RESULT:      -6.9      3.106      5.463
  Name = 
  2 active torsions:
  status: ('A' for Active; 'I' for Inactive)
    1  A    between atoms: C_11  and  C_28
    2  A    between atoms: C_28  and  C_30
                            x       y       z     vdW  Elec       q    Type
                         _______ _______ _______ _____ _____    ______ ____

>  <TORSDO>
F 2

$$$$
=
 OpenBabel11112416153D

 30 35  0  0  1  0  0  0  0  0999 V2000
  187.4480  176.2150  140.9710 C   0  0  1  0  0  3  0  0  0  0  0  0
  187.4150  175.5200  138.5200 C   0  0  0  0  0  0  0  0  0  0  0  0
  190.7630  173.8680  141.5700 C   0  0  0  0  0  2  0  0  0  0  0  0
  188.3870  176.2040  142.1910 C   0  0  1  0  0  3  0  0  0  0  0  0
  187.2560  177.5470  140.5360 O   0  0  0  0  0  0  0  0  0  0  0  0
  186.3890  178.9660  143.7850 O   0  0  0  0  0  1  0  0  0  0  0  0
  188.5280  175.8600  145.4500 C   0  0  1  0  0  3  0  0  0  0  0  0
  187.2040  178.3520  142.8300 C   0  0  2  0  0  3  0  0  0  0  0  0
  189.5680  174.8130  145.0380 C   0  0  2  0  0  3  0  0  0  0  0  0
  190.9790  174.2680  142.9680 C   0  0  0  0  0  0  0  0  0  0  0  0
  186.4700  178.2380  141.4880 C   0  0  2  0  0  3  0  0  0  0  0  0
  187.6780  176.9800  143.3230 C   0  0  2  0  0  3  0  0  0  0  0  0
  187.8050  174.6640  137.4890 C   0  0  0  0  0  3  0  0  0  0  0  0
  190.8130  175.0960  145.8540 C   0  0  0  0  0  2  0  0  0  0  0  0
  188.7960  176.2820  147.2030 S   0  0  0  0  0  0  0  0  0  0  0  0
  186.5160  176.5390  138.2260 O   0  0  0  0  0  1  0  0  0  0  0  0
  189.2420  173.8950  141.4690 C   0  0  1  0  0  3  0  0  0  0  0  0
  188.6630  173.5980  137.7440 C   0  0  0  0  0  3  0  0  0  0  0  0
  187.9180  175.3380  139.8310 C   0  0  0  0  0  0  0  0  0  0  0  0
  188.7200  174.7710  142.6290 C   0  0  1  0  0  3  0  0  0  0  0  0
  192.0890  174.1480  143.5490 O   0  0  0  0  0  0  0  0  0  0  0  0
  189.8160  174.8060  143.5900 N   0  0  0  0  0  0  0  0  0  0  0  0
  190.3480  175.3360  147.2710 C   0  0  0  0  0  2  0  0  0  0  0  0
  189.8720  177.7870  144.3790 C   0  0  0  0  0  1  0  0  0  0  0  0
  189.1270  173.3780  139.0390 C   0  0  0  0  0  3  0  0  0  0  0  0
  188.7590  174.2330  140.0870 C   0  0  0  0  0  0  0  0  0  0  0  0
  188.5060  177.1410  144.6050 C   0  0  2  0  0  3  0  0  0  0  0  0
  185.0510  177.6710  141.6110 C   0  0  0  0  0  2  0  0  0  0  0  0
  182.8370  178.2770  141.0370 F   0  0  0  0  0  0  0  0  0  0  0  0
  184.1410  178.3090  140.5810 C   0  0  0  0  0  2  0  0  0  0  0  0
  1 19  1  6  0  0  0
  1  4  1  0  0  0  0
  2 19  1  0  0  0  0
  3 10  1  0  0  0  0
  4 20  1  0  0  0  0
  4 12  1  0  0  0  0
  5  1  1  0  0  0  0
  5 11  1  0  0  0  0
  7 15  1  0  0  0  0
  8 12  1  0  0  0  0
  8  6  1  0  0  0  0
  9  7  1  0  0  0  0
  9 14  1  0  0  0  0
 10 21  2  0  0  0  0
 10 22  1  0  0  0  0
 11 28  1  0  0  0  0
 11  8  1  0  0  0  0
 12 27  1  0  0  0  0
 13 18  1  0  0  0  0
 13  2  2  0  0  0  0
 14 23  1  0  0  0  0
 15 23  1  0  0  0  0
 16  2  1  0  0  0  0
 17  3  1  0  0  0  0
 17 20  1  0  0  0  0
 18 25  2  0  0  0  0
 19 26  2  0  0  0  0
 20 22  1  0  0  0  0
 22  9  1  0  0  0  0
 24 27  1  0  0  0  0
 25 26  1  0  0  0  0
 26 17  1  0  0  0  0
 27  7  1  0  0  0  0
 30 29  1  0  0  0  0
 30 28  1  0  0  0  0
M  END
>  <MODEL>
9

>  <REMARK>
 VINA RESULT:      -6.9      2.559      5.204
  Name = 
  2 active torsions:
  status: ('A' for Active; 'I' for Inactive)
    1  A    between atoms: C_11  and  C_28
    2  A    between atoms: C_28  and  C_30
                            x       y       z     vdW  Elec       q    Type
                         _______ _______ _______ _____ _____    ______ ____

>  <TORSDO>
F 2

$$$$
