=
 OpenBabel11112416563D

 31 35  0  0  1  0  0  0  0  0999 V2000
  184.7910  178.1040  146.1190 C   0  0  0  0  0  0  0  0  0  0  0  0
  187.5690  177.5010  143.6310 C   0  0  1  0  0  3  0  0  0  0  0  0
  186.8130  177.4820  142.3140 C   0  0  0  0  0  0  0  0  0  0  0  0
  191.1230  176.1080  147.2680 O   0  0  0  0  0  0  0  0  0  0  0  0
  191.5280  175.6970  146.1450 C   0  0  0  0  0  0  0  0  0  0  0  0
  184.9700  178.1750  140.8880 C   0  0  0  0  0  0  0  0  0  0  0  0
  186.7490  177.5080  144.9060 C   0  0  0  0  0  0  0  0  0  0  0  0
  185.3890  177.7180  147.3220 C   0  0  0  0  0  3  0  0  0  0  0  0
  185.6060  178.1740  142.1320 C   0  0  0  0  0  3  0  0  0  0  0  0
  189.3410  176.3160  144.9710 C   0  0  0  0  0  0  0  0  0  0  0  0
  183.5280  178.5930  146.1190 F   0  0  0  0  0  0  0  0  0  0  0  0
  188.6800  176.2070  141.3590 N   0  0  0  0  0  2  0  0  0  0  0  0
  183.4510  179.0200  140.6840 Cl  0  0  0  0  0  0  0  0  0  0  0  0
  188.7320  176.6300  146.0790 N   0  0  0  0  0  0  0  0  0  0  0  0
  188.5750  176.3340  143.6720 C   0  0  2  0  0  3  0  0  0  0  0  0
  190.6790  175.7990  144.9930 N   0  0  0  0  0  2  0  0  0  0  0  0
  185.4820  178.0070  144.9520 N   0  0  0  0  0  0  0  0  0  0  0  0
  185.5450  177.5020  139.8060 C   0  0  0  0  0  3  0  0  0  0  0  0
  187.3840  177.1220  146.1010 C   0  0  0  0  0  0  0  0  0  0  0  0
  186.6950  177.2300  147.3090 C   0  0  0  0  0  3  0  0  0  0  0  0
  189.4620  176.4060  142.5130 N   0  0  0  0  0  2  0  0  0  0  0  0
  187.4110  176.8520  141.2040 C   0  0  0  0  0  0  0  0  0  0  0  0
  186.7670  176.8430  139.9630 C   0  0  0  0  0  3  0  0  0  0  0  0
  195.3880  173.9160  145.7730 C   0  0  0  0  0  0  0  0  0  0  0  0
  193.0270  173.7910  145.5870 C   0  0  0  0  0  3  0  0  0  0  0  0
  193.9940  177.1220  146.7820 F   0  0  0  0  0  0  0  0  0  0  0  0
  196.7170  173.2650  145.6330 C   0  0  0  0  0  1  0  0  0  0  0  0
  194.2580  173.2270  145.4700 N   0  0  0  0  0  0  0  0  0  0  0  0
  194.0510  175.8390  146.3470 C   0  0  0  0  0  0  0  0  0  0  0  0
  192.8840  175.1140  146.0290 C   0  0  0  0  0  0  0  0  0  0  0  0
  195.3020  175.2360  146.2180 C   0  0  0  0  0  3  0  0  0  0  0  0
  1 11  1  0  0  0  0
  1  8  1  0  0  0  0
  2  3  1  6  0  0  0
  2 15  1  0  0  0  0
  2  7  1  0  0  0  0
  5  4  2  0  0  0  0
  6  9  2  0  0  0  0
  7 17  1  0  0  0  0
  7 19  2  0  0  0  0
  9  3  1  0  0  0  0
 10 16  1  0  0  0  0
 10 14  2  0  0  0  0
 12 21  1  0  0  0  0
 13  6  1  0  0  0  0
 14 19  1  0  0  0  0
 15 21  1  6  0  0  0
 15 10  1  0  0  0  0
 16  5  1  0  0  0  0
 17  1  2  0  0  0  0
 18 23  2  0  0  0  0
 18  6  1  0  0  0  0
 19 20  1  0  0  0  0
 20  8  2  0  0  0  0
 22 12  1  0  0  0  0
 22  3  2  0  0  0  0
 23 22  1  0  0  0  0
 24 31  1  0  0  0  0
 25 30  2  0  0  0  0
 27 24  1  0  0  0  0
 28 25  1  0  0  0  0
 28 24  2  0  0  0  0
 29 26  1  0  0  0  0
 30  5  1  0  0  0  0
 30 29  1  0  0  0  0
 31 29  2  0  0  0  0
M  END
>  <MODEL>
1

>  <REMARK>
 VINA RESULT:      -9.3      0.000      0.000
  Name = 
  1 active torsions:
  status: ('A' for Active; 'I' for Inactive)
    1  A    between atoms: C_5  and  C_30
                            x       y       z     vdW  Elec       q    Type
                         _______ _______ _______ _____ _____    ______ ____

>  <TORSDO>
F 1

$$$$
=
 OpenBabel11112416563D

 31 35  0  0  1  0  0  0  0  0999 V2000
  184.9800  177.4050  146.6830 C   0  0  0  0  0  0  0  0  0  0  0  0
  187.0440  177.9350  143.5640 C   0  0  1  0  0  3  0  0  0  0  0  0
  185.9780  177.9580  142.4820 C   0  0  0  0  0  0  0  0  0  0  0  0
  191.6480  176.8470  145.8920 O   0  0  0  0  0  0  0  0  0  0  0  0
  191.8050  176.7460  144.6430 C   0  0  0  0  0  0  0  0  0  0  0  0
  183.7210  178.4150  141.7030 C   0  0  0  0  0  0  0  0  0  0  0  0
  186.6140  177.5220  144.9580 C   0  0  0  0  0  0  0  0  0  0  0  0
  185.9430  176.9750  147.6000 C   0  0  0  0  0  3  0  0  0  0  0  0
  184.6570  178.3560  142.7390 C   0  0  0  0  0  3  0  0  0  0  0  0
  189.3060  177.0060  144.1640 C   0  0  0  0  0  0  0  0  0  0  0  0
  183.6940  177.5630  147.0780 F   0  0  0  0  0  0  0  0  0  0  0  0
  187.7270  177.3610  140.8660 N   0  0  0  0  0  2  0  0  0  0  0  0
  182.0700  178.8860  142.0450 Cl  0  0  0  0  0  0  0  0  0  0  0  0
  188.9700  176.9660  145.4230 N   0  0  0  0  0  0  0  0  0  0  0  0
  188.2290  177.0590  143.1100 C   0  0  2  0  0  3  0  0  0  0  0  0
  190.6740  176.8340  143.7670 N   0  0  0  0  0  2  0  0  0  0  0  0
  185.3350  177.6810  145.4000 N   0  0  0  0  0  0  0  0  0  0  0  0
  184.1010  178.0990  140.3960 C   0  0  0  0  0  3  0  0  0  0  0  0
  187.6100  177.1030  145.8580 C   0  0  0  0  0  0  0  0  0  0  0  0
  187.2660  176.8300  147.1820 C   0  0  0  0  0  3  0  0  0  0  0  0
  188.7390  177.5440  141.8300 N   0  0  0  0  0  2  0  0  0  0  0  0
  186.3640  177.6940  141.1520 C   0  0  0  0  0  0  0  0  0  0  0  0
  185.4230  177.7420  140.1200 C   0  0  0  0  0  3  0  0  0  0  0  0
  195.6770  176.1250  142.9600 C   0  0  0  0  0  0  0  0  0  0  0  0
  193.3130  176.1290  142.7630 C   0  0  0  0  0  3  0  0  0  0  0  0
  194.2690  177.1410  146.1580 F   0  0  0  0  0  0  0  0  0  0  0  0
  197.0100  175.8990  142.3420 C   0  0  0  0  0  1  0  0  0  0  0  0
  194.5480  175.9320  142.2300 N   0  0  0  0  0  0  0  0  0  0  0  0
  194.3310  176.7440  144.8630 C   0  0  0  0  0  0  0  0  0  0  0  0
  193.1660  176.5410  144.0960 C   0  0  0  0  0  0  0  0  0  0  0  0
  195.5860  176.5340  144.2900 C   0  0  0  0  0  3  0  0  0  0  0  0
  1 11  1  0  0  0  0
  1  8  1  0  0  0  0
  2  3  1  6  0  0  0
  2  7  1  0  0  0  0
  3  9  1  0  0  0  0
  5  4  2  0  0  0  0
  6 13  1  0  0  0  0
  6  9  2  0  0  0  0
  7 17  1  0  0  0  0
  7 19  2  0  0  0  0
 10 14  2  0  0  0  0
 12 22  1  0  0  0  0
 12 21  1  0  0  0  0
 14 19  1  0  0  0  0
 15 21  1  6  0  0  0
 15  2  1  0  0  0  0
 15 10  1  0  0  0  0
 16 10  1  0  0  0  0
 16  5  1  0  0  0  0
 17  1  2  0  0  0  0
 18  6  1  0  0  0  0
 19 20  1  0  0  0  0
 20  8  2  0  0  0  0
 22  3  2  0  0  0  0
 23 18  2  0  0  0  0
 23 22  1  0  0  0  0
 24 31  1  0  0  0  0
 25 30  2  0  0  0  0
 27 24  1  0  0  0  0
 28 25  1  0  0  0  0
 28 24  2  0  0  0  0
 29 26  1  0  0  0  0
 30  5  1  0  0  0  0
 30 29  1  0  0  0  0
 31 29  2  0  0  0  0
M  END
>  <MODEL>
2

>  <REMARK>
 VINA RESULT:      -9.2      1.842      1.918
  Name = 
  1 active torsions:
  status: ('A' for Active; 'I' for Inactive)
    1  A    between atoms: C_5  and  C_30
                            x       y       z     vdW  Elec       q    Type
                         _______ _______ _______ _____ _____    ______ ____

>  <TORSDO>
F 1

$$$$
=
 OpenBabel11112416563D

 31 35  0  0  1  0  0  0  0  0999 V2000
  191.3400  176.1550  147.3610 C   0  0  0  0  0  0  0  0  0  0  0  0
  188.8880  176.4110  144.4990 C   0  0  1  0  0  3  0  0  0  0  0  0
  187.6550  176.9650  145.1900 C   0  0  0  0  0  0  0  0  0  0  0  0
  191.7540  173.4600  141.2000 O   0  0  0  0  0  0  0  0  0  0  0  0
  190.5710  173.5040  140.7620 C   0  0  0  0  0  0  0  0  0  0  0  0
  186.5780  178.2860  146.9240 C   0  0  0  0  0  0  0  0  0  0  0  0
  190.0390  175.9640  145.3790 C   0  0  0  0  0  0  0  0  0  0  0  0
  192.3040  175.2860  146.8430 C   0  0  0  0  0  3  0  0  0  0  0  0
  187.7340  177.7500  146.3510 C   0  0  0  0  0  3  0  0  0  0  0  0
  189.6880  174.6790  142.8550 C   0  0  0  0  0  0  0  0  0  0  0  0
  191.5030  176.6850  148.5970 F   0  0  0  0  0  0  0  0  0  0  0  0
  186.3170  176.0560  143.3440 N   0  0  0  0  0  2  0  0  0  0  0  0
  186.6910  179.2390  148.3880 Cl  0  0  0  0  0  0  0  0  0  0  0  0
  190.8130  174.5660  143.5020 N   0  0  0  0  0  0  0  0  0  0  0  0
  188.4850  175.2610  143.5550 C   0  0  2  0  0  3  0  0  0  0  0  0
  189.5350  174.1100  141.5470 N   0  0  0  0  0  2  0  0  0  0  0  0
  190.2490  176.4850  146.6200 N   0  0  0  0  0  0  0  0  0  0  0  0
  185.3330  178.0620  146.3310 C   0  0  0  0  0  3  0  0  0  0  0  0
  190.9960  175.0950  144.8230 C   0  0  0  0  0  0  0  0  0  0  0  0
  192.1290  174.7590  145.5640 C   0  0  0  0  0  3  0  0  0  0  0  0
  187.4750  175.7300  142.6100 N   0  0  0  0  0  2  0  0  0  0  0  0
  186.4010  176.7910  144.5700 C   0  0  0  0  0  0  0  0  0  0  0  0
  185.2440  177.3170  145.1530 C   0  0  0  0  0  3  0  0  0  0  0  0
  189.6820  171.9580  136.8850 C   0  0  0  0  0  0  0  0  0  0  0  0
  190.0170  173.7910  138.3530 C   0  0  0  0  0  3  0  0  0  0  0  0
  190.4420  170.6440  140.1920 F   0  0  0  0  0  0  0  0  0  0  0  0
  189.3690  171.4550  135.5220 C   0  0  0  0  0  1  0  0  0  0  0  0
  189.7340  173.2950  137.1200 N   0  0  0  0  0  0  0  0  0  0  0  0
  190.2140  171.5390  139.1990 C   0  0  0  0  0  0  0  0  0  0  0  0
  190.2660  172.9290  139.4320 C   0  0  0  0  0  0  0  0  0  0  0  0
  189.9210  171.0580  137.9230 C   0  0  0  0  0  3  0  0  0  0  0  0
  1 11  1  0  0  0  0
  2  3  1  1  0  0  0
  2  7  1  0  0  0  0
  3  9  1  0  0  0  0
  5  4  2  0  0  0  0
  5 16  1  0  0  0  0
  6 13  1  0  0  0  0
  7 17  1  0  0  0  0
  8  1  1  0  0  0  0
  9  6  2  0  0  0  0
 10 14  2  0  0  0  0
 10 15  1  0  0  0  0
 12 22  1  0  0  0  0
 14 19  1  0  0  0  0
 15 21  1  6  0  0  0
 15  2  1  0  0  0  0
 16 10  1  0  0  0  0
 17  1  2  0  0  0  0
 18  6  1  0  0  0  0
 19  7  2  0  0  0  0
 19 20  1  0  0  0  0
 20  8  2  0  0  0  0
 21 12  1  0  0  0  0
 22 23  1  0  0  0  0
 22  3  2  0  0  0  0
 23 18  2  0  0  0  0
 24 28  2  0  0  0  0
 24 31  1  0  0  0  0
 25 30  2  0  0  0  0
 27 24  1  0  0  0  0
 28 25  1  0  0  0  0
 29 30  1  0  0  0  0
 29 26  1  0  0  0  0
 30  5  1  0  0  0  0
 31 29  2  0  0  0  0
M  END
>  <MODEL>
3

>  <REMARK>
 VINA RESULT:      -8.5      4.192      6.757
  Name = 
  1 active torsions:
  status: ('A' for Active; 'I' for Inactive)
    1  A    between atoms: C_5  and  C_30
                            x       y       z     vdW  Elec       q    Type
                         _______ _______ _______ _____ _____    ______ ____

>  <TORSDO>
F 1

$$$$
=
 OpenBabel11112416563D

 31 35  0  0  1  0  0  0  0  0999 V2000
  191.2750  176.2090  147.3540 C   0  0  0  0  0  0  0  0  0  0  0  0
  188.9470  176.4580  144.3890 C   0  0  1  0  0  3  0  0  0  0  0  0
  187.6730  176.9770  145.0320 C   0  0  0  0  0  0  0  0  0  0  0  0
  192.0160  173.6140  141.1810 O   0  0  0  0  0  0  0  0  0  0  0  0
  190.8530  173.6400  140.6910 C   0  0  0  0  0  0  0  0  0  0  0  0
  186.4940  178.2500  146.7350 C   0  0  0  0  0  0  0  0  0  0  0  0
  190.0670  176.0220  145.3130 C   0  0  0  0  0  0  0  0  0  0  0  0
  192.2780  175.3670  146.8680 C   0  0  0  0  0  3  0  0  0  0  0  0
  187.6850  177.7460  146.2060 C   0  0  0  0  0  3  0  0  0  0  0  0
  189.8540  174.7670  142.7590 C   0  0  0  0  0  0  0  0  0  0  0  0
  191.3720  176.7240  148.6030 F   0  0  0  0  0  0  0  0  0  0  0  0
  186.4380  176.0690  143.1160 N   0  0  0  0  0  2  0  0  0  0  0  0
  186.5230  179.1840  148.2150 Cl  0  0  0  0  0  0  0  0  0  0  0  0
  190.9520  174.6670  143.4530 N   0  0  0  0  0  0  0  0  0  0  0  0
  188.6100  175.3140  143.4130 C   0  0  2  0  0  3  0  0  0  0  0  0
  189.7710  174.2130  141.4380 N   0  0  0  0  0  2  0  0  0  0  0  0
  190.2110  176.5280  146.5700 N   0  0  0  0  0  0  0  0  0  0  0  0
  185.2810  178.0100  146.0840 C   0  0  0  0  0  3  0  0  0  0  0  0
  191.0650  175.1800  144.7880 C   0  0  0  0  0  0  0  0  0  0  0  0
  192.1710  174.8550  145.5740 C   0  0  0  0  0  3  0  0  0  0  0  0
  187.6330  175.7760  142.4300 N   0  0  0  0  0  2  0  0  0  0  0  0
  186.4520  176.7870  144.3550 C   0  0  0  0  0  0  0  0  0  0  0  0
  185.2600  177.2810  144.8930 C   0  0  0  0  0  3  0  0  0  0  0  0
  190.0940  171.9520  136.8460 C   0  0  0  0  0  0  0  0  0  0  0  0
  189.6330  172.0960  139.1690 C   0  0  0  0  0  3  0  0  0  0  0  0
  192.3210  174.4360  138.2980 F   0  0  0  0  0  0  0  0  0  0  0  0
  189.8040  171.3420  135.5220 C   0  0  0  0  0  1  0  0  0  0  0  0
  189.3940  171.5600  137.9430 N   0  0  0  0  0  0  0  0  0  0  0  0
  191.3520  173.4920  138.2100 C   0  0  0  0  0  0  0  0  0  0  0  0
  190.6190  173.0790  139.3410 C   0  0  0  0  0  0  0  0  0  0  0  0
  191.0860  172.9250  136.9630 C   0  0  0  0  0  3  0  0  0  0  0  0
  1 11  1  0  0  0  0
  2  3  1  1  0  0  0
  2  7  1  0  0  0  0
  3  9  1  0  0  0  0
  5  4  2  0  0  0  0
  5 16  1  0  0  0  0
  6 13  1  0  0  0  0
  7 17  1  0  0  0  0
  8  1  1  0  0  0  0
  9  6  2  0  0  0  0
 10 15  1  0  0  0  0
 10 14  2  0  0  0  0
 12 22  1  0  0  0  0
 14 19  1  0  0  0  0
 15 21  1  6  0  0  0
 15  2  1  0  0  0  0
 16 10  1  0  0  0  0
 17  1  2  0  0  0  0
 18  6  1  0  0  0  0
 19  7  2  0  0  0  0
 19 20  1  0  0  0  0
 20  8  2  0  0  0  0
 21 12  1  0  0  0  0
 22 23  1  0  0  0  0
 22  3  2  0  0  0  0
 23 18  2  0  0  0  0
 24 31  2  0  0  0  0
 24 28  1  0  0  0  0
 25 30  1  0  0  0  0
 27 24  1  0  0  0  0
 28 25  2  0  0  0  0
 29 26  1  0  0  0  0
 29 30  2  0  0  0  0
 30  5  1  0  0  0  0
 31 29  1  0  0  0  0
M  END
>  <MODEL>
4

>  <REMARK>
 VINA RESULT:      -8.3      4.177      6.578
  Name = 
  1 active torsions:
  status: ('A' for Active; 'I' for Inactive)
    1  A    between atoms: C_5  and  C_30
                            x       y       z     vdW  Elec       q    Type
                         _______ _______ _______ _____ _____    ______ ____

>  <TORSDO>
F 1

$$$$
=
 OpenBabel11112416563D

 31 35  0  0  1  0  0  0  0  0999 V2000
  186.1230  177.1950  141.3600 C   0  0  0  0  0  0  0  0  0  0  0  0
  187.6870  176.3360  144.6900 C   0  0  1  0  0  3  0  0  0  0  0  0
  186.9250  177.2440  145.6390 C   0  0  0  0  0  0  0  0  0  0  0  0
  191.7810  173.7520  142.6010 O   0  0  0  0  0  0  0  0  0  0  0  0
  192.0710  174.0510  143.7920 C   0  0  0  0  0  0  0  0  0  0  0  0
  184.9330  178.4760  146.2940 C   0  0  0  0  0  0  0  0  0  0  0  0
  187.4830  176.5520  143.2030 C   0  0  0  0  0  0  0  0  0  0  0  0
  187.0670  176.6960  140.4570 C   0  0  0  0  0  3  0  0  0  0  0  0
  185.6200  177.6850  145.3690 C   0  0  0  0  0  3  0  0  0  0  0  0
  189.9850  175.5010  144.0870 C   0  0  0  0  0  0  0  0  0  0  0  0
  184.9810  177.7580  140.9000 F   0  0  0  0  0  0  0  0  0  0  0  0
  188.8020  177.0390  147.2060 N   0  0  0  0  0  2  0  0  0  0  0  0
  183.3170  179.0410  145.9300 Cl  0  0  0  0  0  0  0  0  0  0  0  0
  189.6390  175.4140  142.8340 N   0  0  0  0  0  0  0  0  0  0  0  0
  189.1930  176.3870  145.0160 C   0  0  2  0  0  3  0  0  0  0  0  0
  191.2000  174.8980  144.5540 N   0  0  0  0  0  2  0  0  0  0  0  0
  186.3420  177.0990  142.6980 N   0  0  0  0  0  0  0  0  0  0  0  0
  185.5350  178.8150  147.5090 C   0  0  0  0  0  3  0  0  0  0  0  0
  188.4480  176.0290  142.3220 C   0  0  0  0  0  0  0  0  0  0  0  0
  188.2320  176.1050  140.9460 C   0  0  0  0  0  3  0  0  0  0  0  0
  189.4060  176.0390  146.4190 N   0  0  0  0  0  2  0  0  0  0  0  0
  187.5010  177.5470  146.8880 C   0  0  0  0  0  0  0  0  0  0  0  0
  186.8180  178.3490  147.8070 C   0  0  0  0  0  3  0  0  0  0  0  0
  195.6030  172.3980  145.5270 C   0  0  0  0  0  0  0  0  0  0  0  0
  193.4090  172.1420  144.6620 C   0  0  0  0  0  3  0  0  0  0  0  0
  194.3980  175.6710  144.4880 F   0  0  0  0  0  0  0  0  0  0  0  0
  196.8160  171.7890  146.1310 C   0  0  0  0  0  1  0  0  0  0  0  0
  194.5350  171.6190  145.2150 N   0  0  0  0  0  0  0  0  0  0  0  0
  194.4160  174.3340  144.7160 C   0  0  0  0  0  0  0  0  0  0  0  0
  193.3140  173.5160  144.3950 C   0  0  0  0  0  0  0  0  0  0  0  0
  195.5590  173.7710  145.2820 C   0  0  0  0  0  3  0  0  0  0  0  0
  1 17  1  0  0  0  0
  2  7  1  6  0  0  0
  2 15  1  0  0  0  0
  2  3  1  0  0  0  0
  3 22  1  0  0  0  0
  4  5  2  0  0  0  0
  5 30  1  0  0  0  0
  5 16  1  0  0  0  0
  6 18  2  0  0  0  0
  8 20  1  0  0  0  0
  8  1  2  0  0  0  0
  9  3  2  0  0  0  0
  9  6  1  0  0  0  0
 10 16  1  0  0  0  0
 11  1  1  0  0  0  0
 13  6  1  0  0  0  0
 14 10  2  0  0  0  0
 15 10  1  6  0  0  0
 15 21  1  0  0  0  0
 17  7  2  0  0  0  0
 18 23  1  0  0  0  0
 19 14  1  0  0  0  0
 19  7  1  0  0  0  0
 20 19  2  0  0  0  0
 21 12  1  0  0  0  0
 22 12  1  0  0  0  0
 22 23  2  0  0  0  0
 24 27  1  0  0  0  0
 25 28  1  0  0  0  0
 26 29  1  0  0  0  0
 28 24  2  0  0  0  0
 29 31  2  0  0  0  0
 30 25  2  0  0  0  0
 30 29  1  0  0  0  0
 31 24  1  0  0  0  0
M  END
>  <MODEL>
5

>  <REMARK>
 VINA RESULT:      -8.1      2.186      4.227
  Name = 
  1 active torsions:
  status: ('A' for Active; 'I' for Inactive)
    1  A    between atoms: C_5  and  C_30
                            x       y       z     vdW  Elec       q    Type
                         _______ _______ _______ _____ _____    ______ ____

>  <TORSDO>
F 1

$$$$
=
 OpenBabel11112416563D

 31 35  0  0  1  0  0  0  0  0999 V2000
  194.9310  174.9560  146.0420 C   0  0  0  0  0  0  0  0  0  0  0  0
  191.8070  173.3660  144.6340 C   0  0  1  0  0  3  0  0  0  0  0  0
  192.3210  172.0110  144.1810 C   0  0  0  0  0  0  0  0  0  0  0  0
  189.0430  177.8550  144.5140 O   0  0  0  0  0  0  0  0  0  0  0  0
  188.4770  177.0240  143.7510 C   0  0  0  0  0  0  0  0  0  0  0  0
  193.8360  170.1180  144.3690 C   0  0  0  0  0  0  0  0  0  0  0  0
  192.8350  174.3920  145.0680 C   0  0  0  0  0  0  0  0  0  0  0  0
  194.5800  176.3090  146.0760 C   0  0  0  0  0  3  0  0  0  0  0  0
  193.4280  171.3910  144.7790 C   0  0  0  0  0  3  0  0  0  0  0  0
  190.3780  175.3250  143.9550 C   0  0  0  0  0  0  0  0  0  0  0  0
  196.1390  174.5610  146.5090 F   0  0  0  0  0  0  0  0  0  0  0  0
  190.4030  171.8900  142.6530 N   0  0  0  0  0  2  0  0  0  0  0  0
  195.2370  169.3710  145.1050 Cl  0  0  0  0  0  0  0  0  0  0  0  0
  191.1500  176.1360  144.6220 N   0  0  0  0  0  0  0  0  0  0  0  0
  190.9030  173.9720  143.5430 C   0  0  2  0  0  3  0  0  0  0  0  0
  189.1020  175.7650  143.4690 N   0  0  0  0  0  2  0  0  0  0  0  0
  194.0540  174.0360  145.5590 N   0  0  0  0  0  0  0  0  0  0  0  0
  193.1260  169.4430  143.3720 C   0  0  0  0  0  3  0  0  0  0  0  0
  192.4450  175.7440  145.0990 C   0  0  0  0  0  0  0  0  0  0  0  0
  193.3260  176.7000  145.6050 C   0  0  0  0  0  3  0  0  0  0  0  0
  189.8240  173.0410  143.2220 N   0  0  0  0  0  2  0  0  0  0  0  0
  191.5800  171.2990  143.2160 C   0  0  0  0  0  0  0  0  0  0  0  0
  191.9970  170.0320  142.7980 C   0  0  0  0  0  3  0  0  0  0  0  0
  184.6360  177.9630  142.1450 C   0  0  0  0  0  0  0  0  0  0  0  0
  186.0040  177.2300  143.9400 C   0  0  0  0  0  3  0  0  0  0  0  0
  188.0940  177.9560  141.0120 F   0  0  0  0  0  0  0  0  0  0  0  0
  183.2830  178.2800  141.6190 C   0  0  0  0  0  1  0  0  0  0  0  0
  184.7830  177.5300  143.4250 N   0  0  0  0  0  0  0  0  0  0  0  0
  187.0210  177.8070  141.8280 C   0  0  0  0  0  0  0  0  0  0  0  0
  187.1620  177.3600  143.1580 C   0  0  0  0  0  0  0  0  0  0  0  0
  185.7550  178.1080  141.3260 C   0  0  0  0  0  3  0  0  0  0  0  0
  1  8  1  0  0  0  0
  1 11  1  0  0  0  0
  2  3  1  6  0  0  0
  2  7  1  0  0  0  0
  3  9  1  0  0  0  0
  5  4  2  0  0  0  0
  6  9  2  0  0  0  0
  6 13  1  0  0  0  0
  7 19  2  0  0  0  0
  7 17  1  0  0  0  0
 10 14  2  0  0  0  0
 12 22  1  0  0  0  0
 12 21  1  0  0  0  0
 14 19  1  0  0  0  0
 15 21  1  1  0  0  0
 15 10  1  0  0  0  0
 15  2  1  0  0  0  0
 16  5  1  0  0  0  0
 16 10  1  0  0  0  0
 17  1  2  0  0  0  0
 18  6  1  0  0  0  0
 19 20  1  0  0  0  0
 20  8  2  0  0  0  0
 22  3  2  0  0  0  0
 23 22  1  0  0  0  0
 23 18  2  0  0  0  0
 24 28  1  0  0  0  0
 26 29  1  0  0  0  0
 27 24  1  0  0  0  0
 28 25  2  0  0  0  0
 29 30  2  0  0  0  0
 30  5  1  0  0  0  0
 30 25  1  0  0  0  0
 31 29  1  0  0  0  0
 31 24  2  0  0  0  0
M  END
>  <MODEL>
6

>  <REMARK>
 VINA RESULT:      -8.1      3.929      8.850
  Name = 
  1 active torsions:
  status: ('A' for Active; 'I' for Inactive)
    1  A    between atoms: C_5  and  C_30
                            x       y       z     vdW  Elec       q    Type
                         _______ _______ _______ _____ _____    ______ ____

>  <TORSDO>
F 1

$$$$
=
 OpenBabel11112416563D

 31 35  0  0  1  0  0  0  0  0999 V2000
  195.4290  173.5640  145.5410 C   0  0  0  0  0  0  0  0  0  0  0  0
  191.8610  172.6690  144.6830 C   0  0  1  0  0  3  0  0  0  0  0  0
  192.0490  171.4810  143.7560 C   0  0  0  0  0  0  0  0  0  0  0  0
  189.8190  177.1550  146.5550 O   0  0  0  0  0  0  0  0  0  0  0  0
  188.9690  176.6280  145.7850 C   0  0  0  0  0  0  0  0  0  0  0  0
  193.2790  169.5260  142.9950 C   0  0  0  0  0  0  0  0  0  0  0  0
  193.0990  173.4510  145.0740 C   0  0  0  0  0  0  0  0  0  0  0  0
  195.2930  174.8640  146.0350 C   0  0  0  0  0  3  0  0  0  0  0  0
  193.1710  170.6410  143.8310 C   0  0  0  0  0  3  0  0  0  0  0  0
  190.6010  174.8280  144.9840 C   0  0  0  0  0  0  0  0  0  0  0  0
  196.6470  172.9710  145.5270 F   0  0  0  0  0  0  0  0  0  0  0  0
  189.8160  171.9440  142.8490 N   0  0  0  0  0  2  0  0  0  0  0  0
  194.6980  168.5050  143.0810 Cl  0  0  0  0  0  0  0  0  0  0  0  0
  191.6210  175.3520  145.6030 N   0  0  0  0  0  0  0  0  0  0  0  0
  190.8100  173.6290  144.0920 C   0  0  2  0  0  3  0  0  0  0  0  0
  189.3200  175.4730  145.0100 N   0  0  0  0  0  2  0  0  0  0  0  0
  194.3390  172.8870  145.0910 N   0  0  0  0  0  0  0  0  0  0  0  0
  192.2560  169.2260  142.0910 C   0  0  0  0  0  3  0  0  0  0  0  0
  192.9250  174.7540  145.5760 C   0  0  0  0  0  0  0  0  0  0  0  0
  194.0300  175.4570  146.0560 C   0  0  0  0  0  3  0  0  0  0  0  0
  189.5640  172.9070  143.8460 N   0  0  0  0  0  2  0  0  0  0  0  0
  190.9990  171.1380  142.8800 C   0  0  0  0  0  0  0  0  0  0  0  0
  191.1150  170.0300  142.0350 C   0  0  0  0  0  3  0  0  0  0  0  0
  185.0850  178.3580  145.4250 C   0  0  0  0  0  0  0  0  0  0  0  0
  187.2980  178.0590  144.6240 C   0  0  0  0  0  3  0  0  0  0  0  0
  186.8330  176.1300  147.7100 F   0  0  0  0  0  0  0  0  0  0  0  0
  183.7430  178.9780  145.2690 C   0  0  0  0  0  1  0  0  0  0  0  0
  186.0600  178.6090  144.5120 N   0  0  0  0  0  0  0  0  0  0  0  0
  186.6060  176.9410  146.6480 C   0  0  0  0  0  0  0  0  0  0  0  0
  187.6100  177.2080  145.6950 C   0  0  0  0  0  0  0  0  0  0  0  0
  185.3430  177.5190  146.5090 C   0  0  0  0  0  3  0  0  0  0  0  0
  1  8  1  0  0  0  0
  2  3  1  6  0  0  0
  2  7  1  0  0  0  0
  3  9  1  0  0  0  0
  5  4  2  0  0  0  0
  6 13  1  0  0  0  0
  6  9  2  0  0  0  0
  7 17  1  0  0  0  0
  7 19  2  0  0  0  0
  8 20  2  0  0  0  0
 10 16  1  0  0  0  0
 10 14  2  0  0  0  0
 11  1  1  0  0  0  0
 12 22  1  0  0  0  0
 12 21  1  0  0  0  0
 15 21  1  1  0  0  0
 15  2  1  0  0  0  0
 15 10  1  0  0  0  0
 16  5  1  0  0  0  0
 17  1  2  0  0  0  0
 18  6  1  0  0  0  0
 19 14  1  0  0  0  0
 19 20  1  0  0  0  0
 22  3  2  0  0  0  0
 23 18  2  0  0  0  0
 23 22  1  0  0  0  0
 24 31  1  0  0  0  0
 25 30  2  0  0  0  0
 27 24  1  0  0  0  0
 28 25  1  0  0  0  0
 28 24  2  0  0  0  0
 29 26  1  0  0  0  0
 30  5  1  0  0  0  0
 30 29  1  0  0  0  0
 31 29  2  0  0  0  0
M  END
>  <MODEL>
7

>  <REMARK>
 VINA RESULT:      -8.1      3.928      8.713
  Name = 
  1 active torsions:
  status: ('A' for Active; 'I' for Inactive)
    1  A    between atoms: C_5  and  C_30
                            x       y       z     vdW  Elec       q    Type
                         _______ _______ _______ _____ _____    ______ ____

>  <TORSDO>
F 1

$$$$
=
 OpenBabel11112416563D

 31 35  0  0  1  0  0  0  0  0999 V2000
  185.2610  177.9850  141.0090 C   0  0  0  0  0  0  0  0  0  0  0  0
  187.3080  175.9500  143.4460 C   0  0  1  0  0  3  0  0  0  0  0  0
  186.9560  176.6010  144.7720 C   0  0  0  0  0  0  0  0  0  0  0  0
  190.2860  173.6810  139.7320 O   0  0  0  0  0  0  0  0  0  0  0  0
  190.8760  173.5570  140.8410 C   0  0  0  0  0  0  0  0  0  0  0  0
  185.4260  177.7930  146.2380 C   0  0  0  0  0  0  0  0  0  0  0  0
  186.8350  176.6420  142.1820 C   0  0  0  0  0  0  0  0  0  0  0  0
  185.8750  177.6850  139.7900 C   0  0  0  0  0  3  0  0  0  0  0  0
  185.7330  177.2550  144.9850 C   0  0  0  0  0  3  0  0  0  0  0  0
  189.2200  175.0790  142.0570 C   0  0  0  0  0  0  0  0  0  0  0  0
  184.1760  178.7950  141.0370 F   0  0  0  0  0  0  0  0  0  0  0  0
  189.0510  175.6950  145.6750 N   0  0  0  0  0  2  0  0  0  0  0  0
  183.9080  178.6310  146.4790 Cl  0  0  0  0  0  0  0  0  0  0  0  0
  188.6020  175.4290  140.9640 N   0  0  0  0  0  0  0  0  0  0  0  0
  188.8300  175.7180  143.3670 C   0  0  2  0  0  3  0  0  0  0  0  0
  190.3680  174.2210  142.0060 N   0  0  0  0  0  2  0  0  0  0  0  0
  185.7390  177.4510  142.1640 N   0  0  0  0  0  0  0  0  0  0  0  0
  186.3280  177.6620  147.2970 C   0  0  0  0  0  3  0  0  0  0  0  0
  187.4700  176.3100  140.9710 C   0  0  0  0  0  0  0  0  0  0  0  0
  186.9830  176.8370  139.7750 C   0  0  0  0  0  3  0  0  0  0  0  0
  189.2680  174.9270  144.5140 N   0  0  0  0  0  2  0  0  0  0  0  0
  187.8340  176.4270  145.8600 C   0  0  0  0  0  0  0  0  0  0  0  0
  187.5310  176.9770  147.1090 C   0  0  0  0  0  3  0  0  0  0  0  0
  194.3140  171.0380  141.0650 C   0  0  0  0  0  0  0  0  0  0  0  0
  191.9830  171.3300  140.7370 C   0  0  0  0  0  3  0  0  0  0  0  0
  193.5540  174.5820  141.3870 F   0  0  0  0  0  0  0  0  0  0  0  0
  195.4900  170.1310  141.1360 C   0  0  0  0  0  1  0  0  0  0  0  0
  193.0800  170.5310  140.8090 N   0  0  0  0  0  0  0  0  0  0  0  0
  193.3690  173.2530  141.1920 C   0  0  0  0  0  0  0  0  0  0  0  0
  192.0930  172.7160  140.9260 C   0  0  0  0  0  0  0  0  0  0  0  0
  194.4780  172.4090  141.2610 C   0  0  0  0  0  3  0  0  0  0  0  0
  1 11  1  0  0  0  0
  1 17  1  0  0  0  0
  2  7  1  6  0  0  0
  2  3  1  0  0  0  0
  3  9  2  0  0  0  0
  3 22  1  0  0  0  0
  4  5  2  0  0  0  0
  5 30  1  0  0  0  0
  5 16  1  0  0  0  0
  6 13  1  0  0  0  0
  6 18  2  0  0  0  0
  8  1  2  0  0  0  0
  9  6  1  0  0  0  0
 12 22  1  0  0  0  0
 14 19  1  0  0  0  0
 14 10  2  0  0  0  0
 15 10  1  6  0  0  0
 15  2  1  0  0  0  0
 15 21  1  0  0  0  0
 16 10  1  0  0  0  0
 17  7  2  0  0  0  0
 19  7  1  0  0  0  0
 20  8  1  0  0  0  0
 20 19  2  0  0  0  0
 21 12  1  0  0  0  0
 22 23  2  0  0  0  0
 23 18  1  0  0  0  0
 24 27  1  0  0  0  0
 24 31  1  0  0  0  0
 25 28  1  0  0  0  0
 25 30  2  0  0  0  0
 28 24  2  0  0  0  0
 29 31  2  0  0  0  0
 29 26  1  0  0  0  0
 30 29  1  0  0  0  0
M  END
>  <MODEL>
8

>  <REMARK>
 VINA RESULT:      -7.7      3.594      5.244
  Name = 
  1 active torsions:
  status: ('A' for Active; 'I' for Inactive)
    1  A    between atoms: C_5  and  C_30
                            x       y       z     vdW  Elec       q    Type
                         _______ _______ _______ _____ _____    ______ ____

>  <TORSDO>
F 1

$$$$
=
 OpenBabel11112416563D

 31 35  0  0  1  0  0  0  0  0999 V2000
  188.9430  175.2280  146.7700 C   0  0  0  0  0  0  0  0  0  0  0  0
  188.2110  176.4660  143.2770 C   0  0  1  0  0  3  0  0  0  0  0  0
  187.0520  177.4180  143.5170 C   0  0  0  0  0  0  0  0  0  0  0  0
  191.1010  172.7630  140.8830 O   0  0  0  0  0  0  0  0  0  0  0  0
  190.3120  173.2570  140.0310 C   0  0  0  0  0  0  0  0  0  0  0  0
  185.8190  178.9910  144.9020 C   0  0  0  0  0  0  0  0  0  0  0  0
  188.6510  175.5960  144.4380 C   0  0  0  0  0  0  0  0  0  0  0  0
  189.6980  174.0790  146.5200 C   0  0  0  0  0  3  0  0  0  0  0  0
  186.8680  178.0810  144.7400 C   0  0  0  0  0  3  0  0  0  0  0  0
  189.0390  174.6120  141.7870 C   0  0  0  0  0  0  0  0  0  0  0  0
  188.7140  175.6210  148.0460 F   0  0  0  0  0  0  0  0  0  0  0  0
  186.4380  177.1290  141.1590 N   0  0  0  0  0  2  0  0  0  0  0  0
  185.5860  179.7880  146.4430 Cl  0  0  0  0  0  0  0  0  0  0  0  0
  189.6670  174.0680  142.7910 N   0  0  0  0  0  0  0  0  0  0  0  0
  187.9110  175.5780  142.0530 C   0  0  2  0  0  3  0  0  0  0  0  0
  189.2950  174.1800  140.4440 N   0  0  0  0  0  2  0  0  0  0  0  0
  188.4550  175.9630  145.7350 N   0  0  0  0  0  0  0  0  0  0  0  0
  184.9590  179.2650  143.8360 C   0  0  0  0  0  3  0  0  0  0  0  0
  189.4160  174.4510  144.1510 C   0  0  0  0  0  0  0  0  0  0  0  0
  189.9370  173.6940  145.2010 C   0  0  0  0  0  3  0  0  0  0  0  0
  187.6250  176.4180  140.8930 N   0  0  0  0  0  2  0  0  0  0  0  0
  186.2120  177.7420  142.4330 C   0  0  0  0  0  0  0  0  0  0  0  0
  185.1560  178.6430  142.6010 C   0  0  0  0  0  3  0  0  0  0  0  0
  190.6240  172.0790  135.9410 C   0  0  0  0  0  0  0  0  0  0  0  0
  189.6610  171.8350  138.0960 C   0  0  0  0  0  3  0  0  0  0  0  0
  192.1390  174.5400  138.1520 F   0  0  0  0  0  0  0  0  0  0  0  0
  190.7060  171.6430  134.5230 C   0  0  0  0  0  1  0  0  0  0  0  0
  189.7630  171.4620  136.7930 N   0  0  0  0  0  0  0  0  0  0  0  0
  191.3450  173.5250  137.7310 C   0  0  0  0  0  0  0  0  0  0  0  0
  190.4490  172.8780  138.6060 C   0  0  0  0  0  0  0  0  0  0  0  0
  191.4290  173.1220  136.3980 C   0  0  0  0  0  3  0  0  0  0  0  0
  1 11  1  0  0  0  0
  2  3  1  1  0  0  0
  2  7  1  0  0  0  0
  3  9  1  0  0  0  0
  5 16  1  0  0  0  0
  5  4  2  0  0  0  0
  6 13  1  0  0  0  0
  7 17  1  0  0  0  0
  8  1  1  0  0  0  0
  9  6  2  0  0  0  0
 10 15  1  0  0  0  0
 10 14  2  0  0  0  0
 12 22  1  0  0  0  0
 14 19  1  0  0  0  0
 15 21  1  6  0  0  0
 15  2  1  0  0  0  0
 16 10  1  0  0  0  0
 17  1  2  0  0  0  0
 18  6  1  0  0  0  0
 19  7  2  0  0  0  0
 19 20  1  0  0  0  0
 20  8  2  0  0  0  0
 21 12  1  0  0  0  0
 22 23  1  0  0  0  0
 22  3  2  0  0  0  0
 23 18  2  0  0  0  0
 24 31  2  0  0  0  0
 24 28  1  0  0  0  0
 25 30  1  0  0  0  0
 27 24  1  0  0  0  0
 28 25  2  0  0  0  0
 29 26  1  0  0  0  0
 29 30  2  0  0  0  0
 30  5  1  0  0  0  0
 31 29  1  0  0  0  0
M  END
>  <MODEL>
9

>  <REMARK>
 VINA RESULT:      -7.7      4.451      6.330
  Name = 
  1 active torsions:
  status: ('A' for Active; 'I' for Inactive)
    1  A    between atoms: C_5  and  C_30
                            x       y       z     vdW  Elec       q    Type
                         _______ _______ _______ _____ _____    ______ ____

>  <TORSDO>
F 1

$$$$
