=
 OpenBabel11112417353D

 28 32  0  0  1  0  0  0  0  0999 V2000
  186.9860  177.8790  144.1150 C   0  0  0  0  0  0  0  0  0  0  0  0
  189.7920  177.4560  147.2170 O   0  0  0  0  0  0  0  0  0  0  0  0
  187.3330  173.1710  142.1880 C   0  0  0  0  0  2  0  0  0  0  0  0
  185.9900  176.5620  146.3790 C   0  0  0  0  0  3  0  0  0  0  0  0
  189.6140  173.7960  142.6900 N   0  0  0  0  0  0  0  0  0  0  0  0
  187.4620  178.5560  142.8690 C   0  0  0  0  0  2  0  0  0  0  0  0
  190.6650  175.2330  147.7370 O   0  0  0  0  0  0  0  0  0  0  0  0
  190.6600  176.3360  146.7160 S   0  0  0  0  0  0  0  0  0  0  0  0
  193.0180  175.9240  145.7930 C   0  0  2  0  0  3  0  0  0  0  0  0
  190.0070  175.6830  145.1710 C   0  0  2  0  0  3  0  0  0  0  0  0
  186.8180  177.4150  139.3630 N   0  0  0  0  0  1  0  0  0  0  0  0
  189.3180  176.1560  142.8820 C   0  0  1  0  0  3  0  0  0  0  0  0
  192.5690  176.0230  144.0430 S   0  0  0  0  0  0  0  0  0  0  0  0
  192.2710  176.9310  146.5210 N   0  0  0  0  0  2  0  0  0  0  0  0
  187.1270  177.1610  140.7280 C   0  0  0  0  0  0  0  0  0  0  0  0
  187.8110  176.9670  144.8090 C   0  0  0  0  0  0  0  0  0  0  0  0
  188.2760  174.0950  142.3340 C   0  0  0  0  0  0  0  0  0  0  0  0
  194.5000  176.1970  145.9410 C   0  0  0  0  0  1  0  0  0  0  0  0
  187.7040  176.0340  141.0330 N   0  0  0  0  0  0  0  0  0  0  0  0
  187.2880  176.3030  145.9340 C   0  0  0  0  0  3  0  0  0  0  0  0
  185.6870  178.1350  144.5710 C   0  0  0  0  0  3  0  0  0  0  0  0
  185.1910  177.4820  145.7000 C   0  0  0  0  0  3  0  0  0  0  0  0
  186.6920  178.1150  141.7110 N   0  0  0  0  0  2  0  0  0  0  0  0
  190.3610  175.0220  142.8850 C   0  0  1  0  0  3  0  0  0  0  0  0
  187.9950  175.5480  142.3750 C   0  0  2  0  0  3  0  0  0  0  0  0
  191.0380  175.0400  144.2440 C   0  0  2  0  0  3  0  0  0  0  0  0
  190.2350  172.4870  142.5540 C   0  0  0  0  0  1  0  0  0  0  0  0
  189.2290  176.6850  144.3270 C   0  0  1  0  0  3  0  0  0  0  0  0
  1 21  2  0  0  0  0
  1 16  1  0  0  0  0
  3 17  2  0  0  0  0
  5 24  1  0  0  0  0
  6  1  1  0  0  0  0
  8  2  2  0  0  0  0
  8  7  2  0  0  0  0
  9 18  1  6  0  0  0
  9 14  1  0  0  0  0
 10  8  1  1  0  0  0
 11 15  1  0  0  0  0
 12 24  1  0  0  0  0
 12 28  1  0  0  0  0
 13 26  1  0  0  0  0
 13  9  1  0  0  0  0
 14  8  1  0  0  0  0
 15 19  2  0  0  0  0
 15 23  1  0  0  0  0
 16 20  2  0  0  0  0
 17 25  1  0  0  0  0
 17  5  1  0  0  0  0
 19 25  1  0  0  0  0
 20  4  1  0  0  0  0
 21 22  1  0  0  0  0
 22  4  2  0  0  0  0
 23  6  1  0  0  0  0
 24 26  1  0  0  0  0
 25 12  1  0  0  0  0
 26 10  1  0  0  0  0
 27  5  1  0  0  0  0
 28 16  1  0  0  0  0
 28 10  1  0  0  0  0
M  END
>  <MODEL>
1

>  <REMARK>
 VINA RESULT:      -8.5      0.000      0.000
  Name = 
  0 active torsions:
  status: ('A' for Active; 'I' for Inactive)
                            x       y       z     vdW  Elec       q    Type
                         _______ _______ _______ _____ _____    ______ ____

>  <TORSDO>
F 0

$$$$
=
 OpenBabel11112417353D

 28 32  0  0  1  0  0  0  0  0999 V2000
  187.8040  177.5640  144.3450 C   0  0  0  0  0  0  0  0  0  0  0  0
  191.2880  177.1110  146.6540 O   0  0  0  0  0  0  0  0  0  0  0  0
  187.8280  172.9830  142.1070 C   0  0  0  0  0  2  0  0  0  0  0  0
  187.4270  176.0880  146.6960 C   0  0  0  0  0  3  0  0  0  0  0  0
  190.1410  173.6840  142.0860 N   0  0  0  0  0  0  0  0  0  0  0  0
  187.9440  178.3250  143.0650 C   0  0  0  0  0  2  0  0  0  0  0  0
  192.3320  174.9070  146.8130 O   0  0  0  0  0  0  0  0  0  0  0  0
  192.0450  176.0600  145.8930 S   0  0  0  0  0  0  0  0  0  0  0  0
  194.1230  175.8040  144.4090 C   0  0  2  0  0  3  0  0  0  0  0  0
  191.0600  175.4580  144.5120 C   0  0  2  0  0  3  0  0  0  0  0  0
  186.5100  177.3380  139.7510 N   0  0  0  0  0  1  0  0  0  0  0  0
  189.8240  176.0150  142.4870 C   0  0  1  0  0  3  0  0  0  0  0  0
  193.2610  175.9720  142.8270 S   0  0  0  0  0  0  0  0  0  0  0  0
  193.5420  176.7370  145.3550 N   0  0  0  0  0  2  0  0  0  0  0  0
  187.1470  177.0290  140.9840 C   0  0  0  0  0  0  0  0  0  0  0  0
  188.8010  176.6560  144.7640 C   0  0  0  0  0  0  0  0  0  0  0  0
  188.7480  173.9400  142.0800 C   0  0  0  0  0  0  0  0  0  0  0  0
  195.5870  176.1370  144.2150 C   0  0  0  0  0  1  0  0  0  0  0  0
  187.8160  175.9150  141.0740 N   0  0  0  0  0  0  0  0  0  0  0  0
  188.5870  175.9130  145.9390 C   0  0  0  0  0  3  0  0  0  0  0  0
  186.6460  177.7370  145.1120 C   0  0  0  0  0  3  0  0  0  0  0  0
  186.4580  177.0040  146.2860 C   0  0  0  0  0  3  0  0  0  0  0  0
  186.9320  177.9100  142.0990 N   0  0  0  0  0  2  0  0  0  0  0  0
  190.8730  174.9320  142.1710 C   0  0  1  0  0  3  0  0  0  0  0  0
  188.4390  175.3740  142.2750 C   0  0  2  0  0  3  0  0  0  0  0  0
  191.8570  174.9120  143.3280 C   0  0  2  0  0  3  0  0  0  0  0  0
  190.7530  172.4140  141.7260 C   0  0  0  0  0  1  0  0  0  0  0  0
  190.0700  176.4650  143.9410 C   0  0  1  0  0  3  0  0  0  0  0  0
  1 16  2  0  0  0  0
  1 21  1  0  0  0  0
  5 24  1  0  0  0  0
  6  1  1  0  0  0  0
  8  2  2  0  0  0  0
  8  7  2  0  0  0  0
  9 18  1  6  0  0  0
  9 14  1  0  0  0  0
 10  8  1  1  0  0  0
 11 15  1  0  0  0  0
 12 28  1  0  0  0  0
 13 26  1  0  0  0  0
 13  9  1  0  0  0  0
 14  8  1  0  0  0  0
 15 19  2  0  0  0  0
 15 23  1  0  0  0  0
 16 20  1  0  0  0  0
 17  5  1  0  0  0  0
 17  3  2  0  0  0  0
 17 25  1  0  0  0  0
 19 25  1  0  0  0  0
 20  4  2  0  0  0  0
 21 22  2  0  0  0  0
 22  4  1  0  0  0  0
 23  6  1  0  0  0  0
 24 12  1  0  0  0  0
 24 26  1  0  0  0  0
 25 12  1  0  0  0  0
 26 10  1  0  0  0  0
 27  5  1  0  0  0  0
 28 10  1  0  0  0  0
 28 16  1  0  0  0  0
M  END
>  <MODEL>
2

>  <REMARK>
 VINA RESULT:      -8.3      1.088      1.190
  Name = 
  0 active torsions:
  status: ('A' for Active; 'I' for Inactive)
                            x       y       z     vdW  Elec       q    Type
                         _______ _______ _______ _____ _____    ______ ____

>  <TORSDO>
F 0

$$$$
=
 OpenBabel11112417353D

 28 32  0  0  1  0  0  0  0  0999 V2000
  190.4820  177.3130  144.7910 C   0  0  0  0  0  0  0  0  0  0  0  0
  194.5780  177.1700  145.7260 O   0  0  0  0  0  0  0  0  0  0  0  0
  189.8660  172.4150  143.5180 C   0  0  0  0  0  2  0  0  0  0  0  0
  191.0330  176.2780  147.3360 C   0  0  0  0  0  3  0  0  0  0  0  0
  191.9880  173.0370  142.5430 N   0  0  0  0  0  0  0  0  0  0  0  0
  190.1230  177.8370  143.4370 C   0  0  0  0  0  2  0  0  0  0  0  0
  195.6900  174.9980  145.8740 O   0  0  0  0  0  0  0  0  0  0  0  0
  195.0480  175.9810  144.9360 S   0  0  0  0  0  0  0  0  0  0  0  0
  196.4590  175.4140  142.8690 C   0  0  2  0  0  3  0  0  0  0  0  0
  193.6540  175.1770  144.1300 C   0  0  2  0  0  3  0  0  0  0  0  0
  187.6280  176.3320  141.0880 N   0  0  0  0  0  1  0  0  0  0  0  0
  191.7520  175.4100  142.6250 C   0  0  1  0  0  3  0  0  0  0  0  0
  195.0790  175.3300  141.7010 S   0  0  0  0  0  0  0  0  0  0  0  0
  196.2240  176.5130  143.7860 N   0  0  0  0  0  2  0  0  0  0  0  0
  188.6780  176.2230  142.0410 C   0  0  0  0  0  0  0  0  0  0  0  0
  191.5960  176.4640  144.9720 C   0  0  0  0  0  0  0  0  0  0  0  0
  190.6780  173.3260  142.9960 C   0  0  0  0  0  0  0  0  0  0  0  0
  197.7420  175.6670  142.1050 C   0  0  0  0  0  1  0  0  0  0  0  0
  189.3750  175.1230  142.0730 N   0  0  0  0  0  0  0  0  0  0  0  0
  191.8480  175.9420  146.2530 C   0  0  0  0  0  3  0  0  0  0  0  0
  189.6730  177.6490  145.8840 C   0  0  0  0  0  3  0  0  0  0  0  0
  189.9480  177.1370  147.1530 C   0  0  0  0  0  3  0  0  0  0  0  0
  188.8460  177.2890  142.9900 N   0  0  0  0  0  2  0  0  0  0  0  0
  192.6550  174.2590  142.1420 C   0  0  1  0  0  3  0  0  0  0  0  0
  190.4070  174.7810  143.0410 C   0  0  2  0  0  3  0  0  0  0  0  0
  193.9900  174.4120  142.8500 C   0  0  2  0  0  3  0  0  0  0  0  0
  192.4750  171.7070  142.2100 C   0  0  0  0  0  1  0  0  0  0  0  0
  192.4890  176.0980  143.7910 C   0  0  1  0  0  3  0  0  0  0  0  0
  1 16  2  0  0  0  0
  1 21  1  0  0  0  0
  5 17  1  0  0  0  0
  6  1  1  0  0  0  0
  8  2  2  0  0  0  0
  8  7  2  0  0  0  0
  9 18  1  6  0  0  0
  9 14  1  0  0  0  0
 10  8  1  6  0  0  0
 11 15  1  0  0  0  0
 12 25  1  0  0  0  0
 12 28  1  0  0  0  0
 13 26  1  0  0  0  0
 13  9  1  0  0  0  0
 14  8  1  0  0  0  0
 15 19  2  0  0  0  0
 15 23  1  0  0  0  0
 16 20  1  0  0  0  0
 17 25  1  0  0  0  0
 17  3  2  0  0  0  0
 19 25  1  0  0  0  0
 20  4  2  0  0  0  0
 21 22  2  0  0  0  0
 22  4  1  0  0  0  0
 23  6  1  0  0  0  0
 24  5  1  0  0  0  0
 24 12  1  0  0  0  0
 24 26  1  0  0  0  0
 26 10  1  0  0  0  0
 27  5  1  0  0  0  0
 28 10  1  0  0  0  0
 28 16  1  0  0  0  0
M  END
>  <MODEL>
3

>  <REMARK>
 VINA RESULT:      -7.7      2.874      3.730
  Name = 
  0 active torsions:
  status: ('A' for Active; 'I' for Inactive)
                            x       y       z     vdW  Elec       q    Type
                         _______ _______ _______ _____ _____    ______ ____

>  <TORSDO>
F 0

$$$$
=
 OpenBabel11112417353D

 28 32  0  0  1  0  0  0  0  0999 V2000
  186.4070  176.5100  142.9090 C   0  0  0  0  0  0  0  0  0  0  0  0
  187.8650  173.4870  140.3770 O   0  0  0  0  0  0  0  0  0  0  0  0
  190.8550  178.7620  143.9710 C   0  0  0  0  0  2  0  0  0  0  0  0
  186.9300  177.3700  140.2950 C   0  0  0  0  0  3  0  0  0  0  0  0
  191.3390  176.3950  144.0380 N   0  0  0  0  0  0  0  0  0  0  0  0
  186.1270  176.1190  144.3260 C   0  0  0  0  0  2  0  0  0  0  0  0
  190.1920  173.5760  139.6360 O   0  0  0  0  0  0  0  0  0  0  0  0
  189.2950  173.3570  140.8210 S   0  0  0  0  0  0  0  0  0  0  0  0
  190.8320  171.7390  142.0870 C   0  0  2  0  0  3  0  0  0  0  0  0
  189.6780  174.5990  142.0660 C   0  0  2  0  0  3  0  0  0  0  0  0
  187.0890  178.0650  147.3750 N   0  0  0  0  0  1  0  0  0  0  0  0
  189.1090  175.5670  144.2280 C   0  0  1  0  0  3  0  0  0  0  0  0
  190.6640  172.5280  143.7060 S   0  0  0  0  0  0  0  0  0  0  0  0
  189.5420  171.7570  141.4260 N   0  0  0  0  0  2  0  0  0  0  0  0
  187.3560  177.5630  146.0710 C   0  0  0  0  0  0  0  0  0  0  0  0
  187.5450  176.0210  142.2310 C   0  0  0  0  0  0  0  0  0  0  0  0
  190.4740  177.5080  144.1800 C   0  0  0  0  0  0  0  0  0  0  0  0
  191.2760  170.3040  142.2770 C   0  0  0  0  0  1  0  0  0  0  0  0
  188.5950  177.4820  145.6800 N   0  0  0  0  0  0  0  0  0  0  0  0
  187.8000  176.4770  140.9240 C   0  0  0  0  0  3  0  0  0  0  0  0
  185.5380  177.4010  142.2690 C   0  0  0  0  0  3  0  0  0  0  0  0
  185.7960  177.8280  140.9650 C   0  0  0  0  0  3  0  0  0  0  0  0
  186.2400  177.2710  145.2150 N   0  0  0  0  0  2  0  0  0  0  0  0
  190.5960  175.1640  144.2180 C   0  0  1  0  0  3  0  0  0  0  0  0
  189.0610  177.1030  144.3530 C   0  0  2  0  0  3  0  0  0  0  0  0
  190.7960  174.2270  143.0390 C   0  0  2  0  0  3  0  0  0  0  0  0
  192.7920  176.4670  144.0480 C   0  0  0  0  0  1  0  0  0  0  0  0
  188.4940  175.0440  142.9150 C   0  0  1  0  0  3  0  0  0  0  0  0
  1  6  1  0  0  0  0
  2  8  2  0  0  0  0
  3 17  2  0  0  0  0
  4 20  2  0  0  0  0
  4 22  1  0  0  0  0
  5 27  1  0  0  0  0
  5 17  1  0  0  0  0
  5 24  1  0  0  0  0
  6 23  1  0  0  0  0
  7  8  2  0  0  0  0
  8 14  1  0  0  0  0
  9 18  1  1  0  0  0
  9 13  1  0  0  0  0
 10  8  1  1  0  0  0
 10 28  1  0  0  0  0
 10 26  1  0  0  0  0
 12 25  1  0  0  0  0
 14  9  1  0  0  0  0
 15 11  1  0  0  0  0
 16  1  2  0  0  0  0
 16 28  1  0  0  0  0
 17 25  1  0  0  0  0
 19 15  2  0  0  0  0
 20 16  1  0  0  0  0
 21  1  1  0  0  0  0
 22 21  2  0  0  0  0
 23 15  1  0  0  0  0
 24 12  1  0  0  0  0
 25 19  1  0  0  0  0
 26 13  1  0  0  0  0
 26 24  1  0  0  0  0
 28 12  1  0  0  0  0
M  END
>  <MODEL>
4

>  <REMARK>
 VINA RESULT:      -7.3      3.275      5.102
  Name = 
  0 active torsions:
  status: ('A' for Active; 'I' for Inactive)
                            x       y       z     vdW  Elec       q    Type
                         _______ _______ _______ _____ _____    ______ ____

>  <TORSDO>
F 0

$$$$
=
 OpenBabel11112417353D

 28 32  0  0  1  0  0  0  0  0999 V2000
  192.8920  174.2910  143.1550 C   0  0  0  0  0  0  0  0  0  0  0  0
  189.3920  173.8260  140.8730 O   0  0  0  0  0  0  0  0  0  0  0  0
  190.6930  175.3210  147.6380 C   0  0  0  0  0  2  0  0  0  0  0  0
  191.6610  171.7930  143.4570 C   0  0  0  0  0  3  0  0  0  0  0  0
  189.3870  176.5530  146.0200 N   0  0  0  0  0  0  0  0  0  0  0  0
  193.5860  175.6120  143.0530 C   0  0  0  0  0  2  0  0  0  0  0  0
  187.2320  173.7340  142.0130 O   0  0  0  0  0  0  0  0  0  0  0  0
  188.3880  174.6250  141.6560 S   0  0  0  0  0  0  0  0  0  0  0  0
  187.0660  176.8190  141.5150 C   0  0  2  0  0  3  0  0  0  0  0  0
  189.1290  175.2390  143.1770 C   0  0  2  0  0  3  0  0  0  0  0  0
  194.9410  177.6100  145.9140 N   0  0  0  0  0  1  0  0  0  0  0  0
  190.9290  176.5240  144.1990 C   0  0  1  0  0  3  0  0  0  0  0  0
  188.2320  177.8180  142.4720 S   0  0  0  0  0  0  0  0  0  0  0  0
  187.8160  175.9180  140.6620 N   0  0  0  0  0  2  0  0  0  0  0  0
  193.9500  176.7800  145.3220 C   0  0  0  0  0  0  0  0  0  0  0  0
  191.4830  174.2110  143.2050 C   0  0  0  0  0  0  0  0  0  0  0  0
  190.5890  175.9630  146.4800 C   0  0  0  0  0  0  0  0  0  0  0  0
  186.2190  177.7320  140.6540 C   0  0  0  0  0  1  0  0  0  0  0  0
  192.7500  176.7910  145.8280 N   0  0  0  0  0  0  0  0  0  0  0  0
  190.8830  172.9500  143.3730 C   0  0  0  0  0  3  0  0  0  0  0  0
  193.6630  173.1250  143.2350 C   0  0  0  0  0  3  0  0  0  0  0  0
  193.0510  171.8800  143.3820 C   0  0  0  0  0  3  0  0  0  0  0  0
  194.3500  175.8930  144.2650 N   0  0  0  0  0  2  0  0  0  0  0  0
  189.5690  177.0680  144.6780 C   0  0  1  0  0  3  0  0  0  0  0  0
  191.6380  175.9360  145.4350 C   0  0  2  0  0  3  0  0  0  0  0  0
  188.5120  176.5220  143.7330 C   0  0  2  0  0  3  0  0  0  0  0  0
  188.2540  176.8950  146.8660 C   0  0  0  0  0  1  0  0  0  0  0  0
  190.6330  175.4730  143.1110 C   0  0  1  0  0  3  0  0  0  0  0  0
  1 16  2  0  0  0  0
  1 21  1  0  0  0  0
  2  8  2  0  0  0  0
  5 17  1  0  0  0  0
  5 27  1  0  0  0  0
  6  1  1  0  0  0  0
  6 23  1  0  0  0  0
  8  7  2  0  0  0  0
  9 18  1  6  0  0  0
  9 13  1  0  0  0  0
 10  8  1  6  0  0  0
 10 26  1  0  0  0  0
 12 24  1  0  0  0  0
 12 25  1  0  0  0  0
 13 26  1  0  0  0  0
 14  9  1  0  0  0  0
 14  8  1  0  0  0  0
 15 19  2  0  0  0  0
 15 11  1  0  0  0  0
 16 20  1  0  0  0  0
 17  3  2  0  0  0  0
 20  4  2  0  0  0  0
 21 22  2  0  0  0  0
 22  4  1  0  0  0  0
 23 15  1  0  0  0  0
 24  5  1  0  0  0  0
 25 19  1  0  0  0  0
 25 17  1  0  0  0  0
 26 24  1  0  0  0  0
 28 10  1  0  0  0  0
 28 16  1  0  0  0  0
 28 12  1  0  0  0  0
M  END
>  <MODEL>
5

>  <REMARK>
 VINA RESULT:      -7.2      2.904      6.684
  Name = 
  0 active torsions:
  status: ('A' for Active; 'I' for Inactive)
                            x       y       z     vdW  Elec       q    Type
                         _______ _______ _______ _____ _____    ______ ____

>  <TORSDO>
F 0

$$$$
=
 OpenBabel11112417353D

 28 32  0  0  1  0  0  0  0  0999 V2000
  193.1630  173.7630  141.8210 C   0  0  0  0  0  0  0  0  0  0  0  0
  189.1400  173.7140  140.6010 O   0  0  0  0  0  0  0  0  0  0  0  0
  192.4190  175.0890  146.6880 C   0  0  0  0  0  2  0  0  0  0  0  0
  191.7810  171.4380  142.5500 C   0  0  0  0  0  3  0  0  0  0  0  0
  190.8700  176.4600  145.4380 N   0  0  0  0  0  0  0  0  0  0  0  0
  193.9510  174.9880  141.4810 C   0  0  0  0  0  2  0  0  0  0  0  0
  187.3820  173.8970  142.2890 O   0  0  0  0  0  0  0  0  0  0  0  0
  188.4910  174.6360  141.5940 S   0  0  0  0  0  0  0  0  0  0  0  0
  187.4450  176.9750  141.7300 C   0  0  2  0  0  3  0  0  0  0  0  0
  189.6880  175.1660  142.8300 C   0  0  2  0  0  3  0  0  0  0  0  0
  196.2640  176.8250  143.7790 N   0  0  0  0  0  1  0  0  0  0  0  0
  191.8370  176.2280  143.2690 C   0  0  1  0  0  3  0  0  0  0  0  0
  188.9380  177.8310  142.2900 S   0  0  0  0  0  0  0  0  0  0  0  0
  187.8220  175.9830  140.7420 N   0  0  0  0  0  2  0  0  0  0  0  0
  195.0590  176.1190  143.5150 C   0  0  0  0  0  0  0  0  0  0  0  0
  191.8230  173.8570  142.2570 C   0  0  0  0  0  0  0  0  0  0  0  0
  192.0750  175.7300  145.5770 C   0  0  0  0  0  0  0  0  0  0  0  0
  186.5060  177.9800  141.0960 C   0  0  0  0  0  1  0  0  0  0  0  0
  194.0540  176.2810  144.3270 N   0  0  0  0  0  0  0  0  0  0  0  0
  191.1510  172.6800  142.6340 C   0  0  0  0  0  3  0  0  0  0  0  0
  193.7860  172.5120  141.7360 C   0  0  0  0  0  3  0  0  0  0  0  0
  193.0970  171.3520  142.0960 C   0  0  0  0  0  3  0  0  0  0  0  0
  195.0460  175.1810  142.4250 N   0  0  0  0  0  2  0  0  0  0  0  0
  190.7350  176.9380  144.0770 C   0  0  1  0  0  3  0  0  0  0  0  0
  192.7850  175.5660  144.2880 C   0  0  2  0  0  3  0  0  0  0  0  0
  189.4020  176.5200  143.4790 C   0  0  2  0  0  3  0  0  0  0  0  0
  190.0620  176.9450  146.5460 C   0  0  0  0  0  1  0  0  0  0  0  0
  191.1320  175.2130  142.3470 C   0  0  1  0  0  3  0  0  0  0  0  0
  1 16  1  0  0  0  0
  2  8  2  0  0  0  0
  4 20  1  0  0  0  0
  5 17  1  0  0  0  0
  5 27  1  0  0  0  0
  6  1  1  0  0  0  0
  6 23  1  0  0  0  0
  8  7  2  0  0  0  0
  9 18  1  6  0  0  0
  9 13  1  0  0  0  0
 10  8  1  6  0  0  0
 10 26  1  0  0  0  0
 12 24  1  0  0  0  0
 12 25  1  0  0  0  0
 13 26  1  0  0  0  0
 14  8  1  0  0  0  0
 14  9  1  0  0  0  0
 15 11  1  0  0  0  0
 15 19  2  0  0  0  0
 16 28  1  0  0  0  0
 16 20  2  0  0  0  0
 17  3  2  0  0  0  0
 21  1  2  0  0  0  0
 21 22  1  0  0  0  0
 22  4  2  0  0  0  0
 23 15  1  0  0  0  0
 24  5  1  0  0  0  0
 25 19  1  0  0  0  0
 25 17  1  0  0  0  0
 26 24  1  0  0  0  0
 28 10  1  0  0  0  0
 28 12  1  0  0  0  0
M  END
>  <MODEL>
6

>  <REMARK>
 VINA RESULT:      -6.8      3.196      6.887
  Name = 
  0 active torsions:
  status: ('A' for Active; 'I' for Inactive)
                            x       y       z     vdW  Elec       q    Type
                         _______ _______ _______ _____ _____    ______ ____

>  <TORSDO>
F 0

$$$$
=
 OpenBabel11112417353D

 28 32  0  0  1  0  0  0  0  0999 V2000
  194.6150  175.2520  144.1800 C   0  0  0  0  0  0  0  0  0  0  0  0
  191.6530  178.2230  143.9040 O   0  0  0  0  0  0  0  0  0  0  0  0
  191.9500  171.3960  142.1760 C   0  0  0  0  0  2  0  0  0  0  0  0
  194.3590  176.3710  141.6240 C   0  0  0  0  0  3  0  0  0  0  0  0
  190.3760  172.5480  143.6030 N   0  0  0  0  0  0  0  0  0  0  0  0
  194.7870  174.6010  145.5150 C   0  0  0  0  0  2  0  0  0  0  0  0
  189.6140  177.7570  142.6390 O   0  0  0  0  0  0  0  0  0  0  0  0
  190.3870  177.4150  143.8820 S   0  0  0  0  0  0  0  0  0  0  0  0
  188.3680  176.8620  145.3660 C   0  0  2  0  0  3  0  0  0  0  0  0
  190.7690  175.6560  143.8520 C   0  0  2  0  0  3  0  0  0  0  0  0
  195.1660  170.9300  146.1380 N   0  0  0  0  0  1  0  0  0  0  0  0
  191.9220  173.7970  144.9250 C   0  0  1  0  0  3  0  0  0  0  0  0
  189.0380  175.3280  146.0540 S   0  0  0  0  0  0  0  0  0  0  0  0
  189.4400  177.8330  145.2660 N   0  0  0  0  0  2  0  0  0  0  0  0
  194.5770  172.0320  145.4600 C   0  0  0  0  0  0  0  0  0  0  0  0
  193.3310  175.5590  143.6790 C   0  0  0  0  0  0  0  0  0  0  0  0
  191.6830  172.1410  143.2420 C   0  0  0  0  0  0  0  0  0  0  0  0
  187.2960  177.3950  146.2930 C   0  0  0  0  0  1  0  0  0  0  0  0
  193.4290  171.8570  144.8710 N   0  0  0  0  0  0  0  0  0  0  0  0
  193.2210  176.1060  142.3880 C   0  0  0  0  0  3  0  0  0  0  0  0
  195.7510  175.5260  143.4080 C   0  0  0  0  0  3  0  0  0  0  0  0
  195.6250  176.0860  142.1360 C   0  0  0  0  0  3  0  0  0  0  0  0
  195.3300  173.2540  145.3700 N   0  0  0  0  0  2  0  0  0  0  0  0
  190.4330  173.4450  144.7400 C   0  0  1  0  0  3  0  0  0  0  0  0
  192.7260  172.8250  144.0400 C   0  0  2  0  0  3  0  0  0  0  0  0
  189.7000  174.7430  144.4510 C   0  0  2  0  0  3  0  0  0  0  0  0
  189.1520  171.9160  143.1370 C   0  0  0  0  0  1  0  0  0  0  0  0
  192.0870  175.2730  144.5130 C   0  0  1  0  0  3  0  0  0  0  0  0
  1  6  1  0  0  0  0
  3 17  2  0  0  0  0
  4 22  2  0  0  0  0
  4 20  1  0  0  0  0
  5 24  1  0  0  0  0
  7  8  2  0  0  0  0
  8  2  2  0  0  0  0
  8 14  1  0  0  0  0
  9 13  1  0  0  0  0
  9 18  1  1  0  0  0
 10  8  1  1  0  0  0
 10 26  1  0  0  0  0
 10 28  1  0  0  0  0
 14  9  1  0  0  0  0
 15 11  1  0  0  0  0
 16  1  1  0  0  0  0
 16 28  1  0  0  0  0
 17  5  1  0  0  0  0
 17 25  1  0  0  0  0
 19 15  2  0  0  0  0
 20 16  2  0  0  0  0
 21  1  2  0  0  0  0
 22 21  1  0  0  0  0
 23 15  1  0  0  0  0
 23  6  1  0  0  0  0
 24 12  1  0  0  0  0
 25 19  1  0  0  0  0
 25 12  1  0  0  0  0
 26 24  1  0  0  0  0
 26 13  1  0  0  0  0
 27  5  1  0  0  0  0
 28 12  1  0  0  0  0
M  END
>  <MODEL>
7

>  <REMARK>
 VINA RESULT:      -6.8      3.055      6.717
  Name = 
  0 active torsions:
  status: ('A' for Active; 'I' for Inactive)
                            x       y       z     vdW  Elec       q    Type
                         _______ _______ _______ _____ _____    ______ ____

>  <TORSDO>
F 0

$$$$
=
 OpenBabel11112417353D

 28 32  0  0  1  0  0  0  0  0999 V2000
  187.1700  176.4160  144.7180 C   0  0  0  0  0  0  0  0  0  0  0  0
  187.4090  173.2070  142.0130 O   0  0  0  0  0  0  0  0  0  0  0  0
  191.5660  178.6980  143.5130 C   0  0  0  0  0  2  0  0  0  0  0  0
  186.4440  177.0820  142.0960 C   0  0  0  0  0  3  0  0  0  0  0  0
  192.0850  176.3380  143.5150 N   0  0  0  0  0  0  0  0  0  0  0  0
  187.5650  176.1300  146.1330 C   0  0  0  0  0  2  0  0  0  0  0  0
  189.1530  173.2220  140.3000 O   0  0  0  0  0  0  0  0  0  0  0  0
  188.8880  173.0960  141.7740 S   0  0  0  0  0  0  0  0  0  0  0  0
  190.8680  171.5580  142.3200 C   0  0  2  0  0  3  0  0  0  0  0  0
  189.7590  174.4200  142.6270 C   0  0  2  0  0  3  0  0  0  0  0  0
  189.7460  178.2790  148.2840 N   0  0  0  0  0  1  0  0  0  0  0  0
  190.1980  175.5460  144.7430 C   0  0  1  0  0  3  0  0  0  0  0  0
  191.4270  172.4630  143.7850 S   0  0  0  0  0  0  0  0  0  0  0  0
  189.4190  171.5410  142.3110 N   0  0  0  0  0  2  0  0  0  0  0  0
  189.4110  177.6830  147.0370 C   0  0  0  0  0  0  0  0  0  0  0  0
  187.8940  175.8700  143.6360 C   0  0  0  0  0  0  0  0  0  0  0  0
  191.3490  177.4650  143.9550 C   0  0  0  0  0  0  0  0  0  0  0  0
  191.3850  170.1370  142.3880 C   0  0  0  0  0  1  0  0  0  0  0  0
  190.3450  177.5640  146.1370 N   0  0  0  0  0  0  0  0  0  0  0  0
  187.5240  176.2290  142.3270 C   0  0  0  0  0  3  0  0  0  0  0  0
  186.0840  177.2670  144.4780 C   0  0  0  0  0  3  0  0  0  0  0  0
  185.7200  177.5970  143.1710 C   0  0  0  0  0  3  0  0  0  0  0  0
  188.0370  177.3410  146.7960 N   0  0  0  0  0  2  0  0  0  0  0  0
  191.5310  175.1290  144.0930 C   0  0  1  0  0  3  0  0  0  0  0  0
  190.1740  177.0870  144.7720 C   0  0  2  0  0  3  0  0  0  0  0  0
  191.2040  174.1080  143.0170 C   0  0  2  0  0  3  0  0  0  0  0  0
  193.3850  176.3970  142.8660 C   0  0  0  0  0  1  0  0  0  0  0  0
  189.0720  174.9360  143.8850 C   0  0  1  0  0  3  0  0  0  0  0  0
  1  6  1  0  0  0  0
  3 17  2  0  0  0  0
  4 20  2  0  0  0  0
  4 22  1  0  0  0  0
  5 17  1  0  0  0  0
  5 24  1  0  0  0  0
  6 23  1  0  0  0  0
  7  8  2  0  0  0  0
  8  2  2  0  0  0  0
  8 14  1  0  0  0  0
  9 18  1  1  0  0  0
  9 13  1  0  0  0  0
 10  8  1  1  0  0  0
 10 26  1  0  0  0  0
 10 28  1  0  0  0  0
 12 25  1  0  0  0  0
 14  9  1  0  0  0  0
 15 11  1  0  0  0  0
 16 28  1  0  0  0  0
 16  1  2  0  0  0  0
 17 25  1  0  0  0  0
 19 15  2  0  0  0  0
 20 16  1  0  0  0  0
 21  1  1  0  0  0  0
 22 21  2  0  0  0  0
 23 15  1  0  0  0  0
 24 12  1  0  0  0  0
 25 19  1  0  0  0  0
 26 13  1  0  0  0  0
 26 24  1  0  0  0  0
 27  5  1  0  0  0  0
 28 12  1  0  0  0  0
M  END
>  <MODEL>
8

>  <REMARK>
 VINA RESULT:      -6.8      3.236      5.070
  Name = 
  0 active torsions:
  status: ('A' for Active; 'I' for Inactive)
                            x       y       z     vdW  Elec       q    Type
                         _______ _______ _______ _____ _____    ______ ____

>  <TORSDO>
F 0

$$$$
=
 OpenBabel11112417353D

 28 32  0  0  1  0  0  0  0  0999 V2000
  188.8070  176.1710  145.0550 C   0  0  0  0  0  0  0  0  0  0  0  0
  188.2810  173.3910  141.9450 O   0  0  0  0  0  0  0  0  0  0  0  0
  193.7500  177.1650  144.2990 C   0  0  0  0  0  2  0  0  0  0  0  0
  188.4870  177.3370  142.5280 C   0  0  0  0  0  3  0  0  0  0  0  0
  193.5540  174.7760  143.9940 N   0  0  0  0  0  0  0  0  0  0  0  0
  189.0040  175.6100  146.4280 C   0  0  0  0  0  2  0  0  0  0  0  0
  190.0650  173.0920  140.3020 O   0  0  0  0  0  0  0  0  0  0  0  0
  189.6760  172.8730  141.7360 S   0  0  0  0  0  0  0  0  0  0  0  0
  191.0790  170.7600  142.1250 C   0  0  2  0  0  3  0  0  0  0  0  0
  190.8360  173.7630  142.7870 C   0  0  2  0  0  3  0  0  0  0  0  0
  191.5660  176.7320  148.9140 N   0  0  0  0  0  1  0  0  0  0  0  0
  191.4400  174.4400  145.0480 C   0  0  1  0  0  3  0  0  0  0  0  0
  191.7760  171.2710  143.7150 S   0  0  0  0  0  0  0  0  0  0  0  0
  189.6920  171.1770  142.0710 N   0  0  0  0  0  2  0  0  0  0  0  0
  191.1580  176.4200  147.5880 C   0  0  0  0  0  0  0  0  0  0  0  0
  189.4110  175.5700  143.9290 C   0  0  0  0  0  0  0  0  0  0  0  0
  193.1530  176.0090  144.5620 C   0  0  0  0  0  0  0  0  0  0  0  0
  191.1520  169.2520  142.0130 C   0  0  0  0  0  1  0  0  0  0  0  0
  192.0750  176.1370  146.7080 N   0  0  0  0  0  0  0  0  0  0  0  0
  189.2520  176.1780  142.6710 C   0  0  0  0  0  3  0  0  0  0  0  0
  188.0370  177.3300  144.9020 C   0  0  0  0  0  3  0  0  0  0  0  0
  187.8740  177.9100  143.6420 C   0  0  0  0  0  3  0  0  0  0  0  0
  189.7630  176.5350  147.2630 N   0  0  0  0  0  2  0  0  0  0  0  0
  192.6340  173.7270  144.3860 C   0  0  1  0  0  3  0  0  0  0  0  0
  191.8650  175.9020  145.2860 C   0  0  2  0  0  3  0  0  0  0  0  0
  192.0970  172.9890  143.1720 C   0  0  2  0  0  3  0  0  0  0  0  0
  194.8570  174.5230  143.3970 C   0  0  0  0  0  1  0  0  0  0  0  0
  190.2450  174.3030  144.0830 C   0  0  1  0  0  3  0  0  0  0  0  0
  1  6  1  0  0  0  0
  3 17  2  0  0  0  0
  4 20  2  0  0  0  0
  4 22  1  0  0  0  0
  5 24  1  0  0  0  0
  5 17  1  0  0  0  0
  6 23  1  0  0  0  0
  7  8  2  0  0  0  0
  8  2  2  0  0  0  0
  8 14  1  0  0  0  0
  9 18  1  1  0  0  0
  9 13  1  0  0  0  0
 10  8  1  1  0  0  0
 10 26  1  0  0  0  0
 10 28  1  0  0  0  0
 12 25  1  0  0  0  0
 14  9  1  0  0  0  0
 15 11  1  0  0  0  0
 16 28  1  0  0  0  0
 16  1  2  0  0  0  0
 17 25  1  0  0  0  0
 19 15  2  0  0  0  0
 20 16  1  0  0  0  0
 21  1  1  0  0  0  0
 22 21  2  0  0  0  0
 23 15  1  0  0  0  0
 24 12  1  0  0  0  0
 25 19  1  0  0  0  0
 26 13  1  0  0  0  0
 26 24  1  0  0  0  0
 27  5  1  0  0  0  0
 28 12  1  0  0  0  0
M  END
>  <MODEL>
9

>  <REMARK>
 VINA RESULT:      -6.4      3.522      5.717
  Name = 
  0 active torsions:
  status: ('A' for Active; 'I' for Inactive)
                            x       y       z     vdW  Elec       q    Type
                         _______ _______ _______ _____ _____    ______ ____

>  <TORSDO>
F 0

$$$$
