=
 OpenBabel11112416253D

 30 35  0  0  1  0  0  0  0  0999 V2000
  186.8420  178.0210  143.6780 C   0  0  0  0  0  0  0  0  0  0  0  0
  184.8510  178.7160  144.9200 C   0  0  0  0  0  0  0  0  0  0  0  0
  188.6960  176.6980  147.2380 N   0  0  0  0  0  0  0  0  0  0  0  0
  188.2280  177.4040  143.5740 C   0  0  0  0  0  0  0  0  0  0  0  0
  186.3150  178.5350  142.3710 C   0  0  0  0  0  2  0  0  0  0  0  0
  187.7450  175.8830  140.2750 O   0  0  0  0  0  0  0  0  0  0  0  0
  190.8210  176.2460  142.9290 C   0  0  1  0  0  3  0  0  0  0  0  0
  187.4980  176.5460  141.3210 C   0  0  0  0  0  0  0  0  0  0  0  0
  190.9160  176.0640  144.3680 N   0  0  0  0  0  0  0  0  0  0  0  0
  189.8210  176.2780  146.7410 C   0  0  1  0  0  3  0  0  0  0  0  0
  186.4580  177.5440  141.3030 N   0  0  0  0  0  0  0  0  0  0  0  0
  188.2030  176.2020  142.6140 C   0  0  1  0  0  3  0  0  0  0  0  0
  184.1760  178.8340  146.1380 C   0  0  0  0  0  3  0  0  0  0  0  0
  192.1890  175.5180  144.7880 C   0  0  0  0  0  2  0  0  0  0  0  0
  192.0960  175.6480  142.3530 C   0  0  0  0  0  2  0  0  0  0  0  0
  184.2000  179.1520  143.8130 F   0  0  0  0  0  0  0  0  0  0  0  0
  187.9610  177.1790  146.1120 C   0  0  0  0  0  0  0  0  0  0  0  0
  184.7630  178.4030  147.3230 C   0  0  0  0  0  3  0  0  0  0  0  0
  186.1540  178.1490  144.8650 C   0  0  0  0  0  0  0  0  0  0  0  0
  188.7300  177.0090  144.9220 C   0  0  0  0  0  0  0  0  0  0  0  0
  190.8900  175.6820  147.5880 C   0  0  0  0  0  1  0  0  0  0  0  0
  189.8780  176.4630  145.2780 C   0  0  0  0  0  0  0  0  0  0  0  0
  193.0380  175.4350  143.5320 C   0  0  0  0  0  2  0  0  0  0  0  0
  189.6420  174.4840  141.8610 O   0  0  0  0  0  0  0  0  0  0  0  0
  186.0360  177.8450  147.3040 C   0  0  0  0  0  3  0  0  0  0  0  0
  186.7380  177.7100  146.1010 C   0  0  0  0  0  0  0  0  0  0  0  0
  189.5720  175.5830  142.3910 C   0  0  0  0  0  0  0  0  0  0  0  0
  185.6160  177.6930  140.1230 C   0  0  0  0  0  2  0  0  0  0  0  0
  183.1600  177.9650  140.4680 C   0  0  0  0  0  1  0  0  0  0  0  0
  184.4930  178.6830  140.3900 C   0  0  0  0  0  2  0  0  0  0  0  0
  1 19  1  0  0  0  0
  2 13  1  0  0  0  0
  4  1  2  0  0  0  0
  4 20  1  0  0  0  0
  5  1  1  0  0  0  0
  6  8  2  0  0  0  0
  7 15  1  6  0  0  0
  7  9  1  0  0  0  0
  9 14  1  0  0  0  0
  9 22  1  0  0  0  0
 10  3  1  0  0  0  0
 10 21  1  6  0  0  0
 11  8  1  0  0  0  0
 11  5  1  0  0  0  0
 12  8  1  6  0  0  0
 12  4  1  0  0  0  0
 13 18  2  0  0  0  0
 15 23  1  0  0  0  0
 16  2  1  0  0  0  0
 17  3  2  0  0  0  0
 19  2  2  0  0  0  0
 19 26  1  0  0  0  0
 20 22  2  0  0  0  0
 20 17  1  0  0  0  0
 22 10  1  0  0  0  0
 23 14  1  0  0  0  0
 24 27  2  0  0  0  0
 25 18  1  0  0  0  0
 26 17  1  0  0  0  0
 26 25  2  0  0  0  0
 27 12  1  0  0  0  0
 27  7  1  0  0  0  0
 28 30  1  0  0  0  0
 28 11  1  0  0  0  0
 30 29  1  0  0  0  0
M  END
>  <MODEL>
1

>  <REMARK>
 VINA RESULT:      -9.5      0.000      0.000
  Name = 
  2 active torsions:
  status: ('A' for Active; 'I' for Inactive)
    1  A    between atoms: N_11  and  C_28
    2  A    between atoms: C_28  and  C_30
                            x       y       z     vdW  Elec       q    Type
                         _______ _______ _______ _____ _____    ______ ____

>  <TORSDO>
F 2

$$$$
=
 OpenBabel11112416253D

 30 35  0  0  1  0  0  0  0  0999 V2000
  187.6930  176.4260  144.7310 C   0  0  0  0  0  0  0  0  0  0  0  0
  186.5470  178.2690  145.8650 C   0  0  0  0  0  0  0  0  0  0  0  0
  186.3030  177.7740  140.9740 N   0  0  0  0  0  0  0  0  0  0  0  0
  188.1120  175.6480  143.4930 C   0  0  0  0  0  0  0  0  0  0  0  0
  188.1670  175.8130  146.0140 C   0  0  0  0  0  2  0  0  0  0  0  0
  191.4080  174.6500  144.7450 O   0  0  0  0  0  0  0  0  0  0  0  0
  189.1850  173.9270  141.4030 C   0  0  1  0  0  3  0  0  0  0  0  0
  190.2600  175.1730  144.7210 C   0  0  0  0  0  0  0  0  0  0  0  0
  188.4080  174.7860  140.5230 N   0  0  0  0  0  0  0  0  0  0  0  0
  186.8420  176.8650  140.2160 C   0  0  0  0  0  0  0  0  0  0  0  0
  189.5930  175.4830  145.9610 N   0  0  0  0  0  0  0  0  0  0  0  0
  189.6470  175.5840  143.4010 C   0  0  1  0  0  3  0  0  0  0  0  0
  185.7470  179.4110  145.7920 C   0  0  0  0  0  3  0  0  0  0  0  0
  188.4530  174.3660  139.1390 C   0  0  0  0  0  2  0  0  0  0  0  0
  189.8970  172.9390  140.4910 C   0  0  0  0  0  2  0  0  0  0  0  0
  186.9670  177.8910  147.0980 F   0  0  0  0  0  0  0  0  0  0  0  0
  186.7080  177.4260  142.2980 C   0  0  1  0  0  3  0  0  0  0  0  0
  185.2800  179.8780  144.5670 C   0  0  0  0  0  3  0  0  0  0  0  0
  186.9050  177.5560  144.6870 C   0  0  0  0  0  0  0  0  0  0  0  0
  187.5220  176.2550  142.2650 C   0  0  0  0  0  0  0  0  0  0  0  0
  186.6730  176.8620  138.7370 C   0  0  0  0  0  1  0  0  0  0  0  0
  187.6180  175.8860  141.0020 C   0  0  0  0  0  0  0  0  0  0  0  0
  189.2350  173.0660  139.1250 C   0  0  0  0  0  2  0  0  0  0  0  0
  191.3200  174.8310  141.9110 O   0  0  0  0  0  0  0  0  0  0  0  0
  185.6110  179.2040  143.3970 C   0  0  0  0  0  3  0  0  0  0  0  0
  186.4120  178.0580  143.4350 C   0  0  0  0  0  0  0  0  0  0  0  0
  190.1450  174.7490  142.2350 C   0  0  0  0  0  0  0  0  0  0  0  0
  190.2970  175.3130  147.2260 C   0  0  0  0  0  2  0  0  0  0  0  0
  192.4370  176.5880  147.3540 C   0  0  0  0  0  1  0  0  0  0  0  0
  190.9510  176.6180  147.6530 C   0  0  0  0  0  2  0  0  0  0  0  0
  1  5  1  0  0  0  0
  2 16  1  0  0  0  0
  4  1  2  0  0  0  0
  7 15  1  6  0  0  0
  7 27  1  0  0  0  0
  8  6  2  0  0  0  0
  8 11  1  0  0  0  0
  9 22  1  0  0  0  0
  9  7  1  0  0  0  0
 10  3  2  0  0  0  0
 10 22  1  0  0  0  0
 11  5  1  0  0  0  0
 11 28  1  0  0  0  0
 12 27  1  6  0  0  0
 12  4  1  0  0  0  0
 12  8  1  0  0  0  0
 13  2  1  0  0  0  0
 14  9  1  0  0  0  0
 17  3  1  6  0  0  0
 17 26  1  0  0  0  0
 18 13  2  0  0  0  0
 19  1  1  0  0  0  0
 19  2  2  0  0  0  0
 20 17  1  0  0  0  0
 20  4  1  0  0  0  0
 21 10  1  0  0  0  0
 22 20  2  0  0  0  0
 23 14  1  0  0  0  0
 23 15  1  0  0  0  0
 24 27  2  0  0  0  0
 25 26  2  0  0  0  0
 25 18  1  0  0  0  0
 26 19  1  0  0  0  0
 28 30  1  0  0  0  0
 29 30  1  0  0  0  0
M  END
>  <MODEL>
2

>  <REMARK>
 VINA RESULT:      -8.4      2.012      5.431
  Name = 
  2 active torsions:
  status: ('A' for Active; 'I' for Inactive)
    1  A    between atoms: N_11  and  C_28
    2  A    between atoms: C_28  and  C_30
                            x       y       z     vdW  Elec       q    Type
                         _______ _______ _______ _____ _____    ______ ____

>  <TORSDO>
F 2

$$$$
=
 OpenBabel11112416253D

 30 35  0  0  1  0  0  0  0  0999 V2000
  188.9330  175.2000  144.1970 C   0  0  0  0  0  0  0  0  0  0  0  0
  190.9650  174.5030  145.3700 C   0  0  0  0  0  0  0  0  0  0  0  0
  187.9670  177.8910  147.3110 N   0  0  0  0  0  0  0  0  0  0  0  0
  187.6710  176.0380  144.0520 C   0  0  0  0  0  0  0  0  0  0  0  0
  189.1330  174.2190  143.0810 C   0  0  0  0  0  2  0  0  0  0  0  0
  187.8220  176.3620  140.4050 O   0  0  0  0  0  0  0  0  0  0  0  0
  185.2340  177.4720  143.3560 C   0  0  1  0  0  3  0  0  0  0  0  0
  188.1330  176.0070  141.5760 C   0  0  0  0  0  0  0  0  0  0  0  0
  185.4210  178.0930  144.6570 N   0  0  0  0  0  0  0  0  0  0  0  0
  186.8580  178.3720  146.8320 C   0  0  1  0  0  3  0  0  0  0  0  0
  188.9740  174.8520  141.7700 N   0  0  0  0  0  0  0  0  0  0  0  0
  187.7290  176.8630  142.7550 C   0  0  1  0  0  3  0  0  0  0  0  0
  191.8110  174.6140  146.4760 C   0  0  0  0  0  3  0  0  0  0  0  0
  184.3480  178.9960  145.0140 C   0  0  0  0  0  2  0  0  0  0  0  0
  183.9960  178.1270  142.7610 C   0  0  0  0  0  2  0  0  0  0  0  0
  191.3330  173.6280  144.4000 F   0  0  0  0  0  0  0  0  0  0  0  0
  188.4060  176.9510  146.3300 C   0  0  0  0  0  0  0  0  0  0  0  0
  191.5180  175.4950  147.5120 C   0  0  0  0  0  3  0  0  0  0  0  0
  189.7840  175.2910  145.2770 C   0  0  0  0  0  0  0  0  0  0  0  0
  187.4830  176.9150  145.2430 C   0  0  0  0  0  0  0  0  0  0  0  0
  186.0670  179.4060  147.5500 C   0  0  0  0  0  1  0  0  0  0  0  0
  186.5200  177.7730  145.5260 C   0  0  0  0  0  0  0  0  0  0  0  0
  183.3210  178.8780  143.9020 C   0  0  0  0  0  2  0  0  0  0  0  0
  186.4870  178.5420  141.6460 O   0  0  0  0  0  0  0  0  0  0  0  0
  190.3710  176.2790  147.4530 C   0  0  0  0  0  3  0  0  0  0  0  0
  189.5040  176.1930  146.3570 C   0  0  0  0  0  0  0  0  0  0  0  0
  186.4640  177.6630  142.4950 C   0  0  0  0  0  0  0  0  0  0  0  0
  189.5630  174.1820  140.6180 C   0  0  0  0  0  2  0  0  0  0  0  0
  188.2420  172.6600  139.1470 C   0  0  0  0  0  1  0  0  0  0  0  0
  188.9880  172.7820  140.4620 C   0  0  0  0  0  2  0  0  0  0  0  0
  1 19  1  0  0  0  0
  2 13  1  0  0  0  0
  4  1  2  0  0  0  0
  4 20  1  0  0  0  0
  5  1  1  0  0  0  0
  6  8  2  0  0  0  0
  7 15  1  6  0  0  0
  7  9  1  0  0  0  0
  8 11  1  0  0  0  0
  9 14  1  0  0  0  0
  9 22  1  0  0  0  0
 10  3  1  0  0  0  0
 10 21  1  6  0  0  0
 11  5  1  0  0  0  0
 12  8  1  6  0  0  0
 12  4  1  0  0  0  0
 13 18  2  0  0  0  0
 15 23  1  0  0  0  0
 16  2  1  0  0  0  0
 17 26  1  0  0  0  0
 17  3  2  0  0  0  0
 19  2  2  0  0  0  0
 19 26  1  0  0  0  0
 20 22  2  0  0  0  0
 20 17  1  0  0  0  0
 22 10  1  0  0  0  0
 23 14  1  0  0  0  0
 24 27  2  0  0  0  0
 25 18  1  0  0  0  0
 26 25  2  0  0  0  0
 27 12  1  0  0  0  0
 27  7  1  0  0  0  0
 28 11  1  0  0  0  0
 29 30  1  0  0  0  0
 30 28  1  0  0  0  0
M  END
>  <MODEL>
3

>  <REMARK>
 VINA RESULT:      -8.1      2.541      5.609
  Name = 
  2 active torsions:
  status: ('A' for Active; 'I' for Inactive)
    1  A    between atoms: N_11  and  C_28
    2  A    between atoms: C_28  and  C_30
                            x       y       z     vdW  Elec       q    Type
                         _______ _______ _______ _____ _____    ______ ____

>  <TORSDO>
F 2

$$$$
=
 OpenBabel11112416253D

 30 35  0  0  1  0  0  0  0  0999 V2000
  188.4560  176.0160  143.6720 C   0  0  0  0  0  0  0  0  0  0  0  0
  186.1480  176.7870  143.9350 C   0  0  0  0  0  0  0  0  0  0  0  0
  189.4700  177.5080  147.4940 N   0  0  0  0  0  0  0  0  0  0  0  0
  189.8830  175.8170  144.1610 C   0  0  0  0  0  0  0  0  0  0  0  0
  188.2280  175.5280  142.2720 C   0  0  0  0  0  2  0  0  0  0  0  0
  190.4360  172.6040  142.4880 O   0  0  0  0  0  0  0  0  0  0  0  0
  192.6670  175.1800  144.7280 C   0  0  1  0  0  3  0  0  0  0  0  0
  189.8560  173.6640  142.8530 C   0  0  0  0  0  0  0  0  0  0  0  0
  192.4090  175.8970  145.9670 N   0  0  0  0  0  0  0  0  0  0  0  0
  190.7260  177.1700  147.5220 C   0  0  1  0  0  3  0  0  0  0  0  0
  188.7510  174.1740  142.0800 N   0  0  0  0  0  0  0  0  0  0  0  0
  190.2400  174.3200  144.1600 C   0  0  1  0  0  3  0  0  0  0  0  0
  185.1740  177.4190  144.7120 C   0  0  0  0  0  3  0  0  0  0  0  0
  193.5850  176.0290  146.8000 C   0  0  0  0  0  2  0  0  0  0  0  0
  194.1060  174.6950  144.8250 C   0  0  0  0  0  2  0  0  0  0  0  0
  185.7590  176.3240  142.7200 F   0  0  0  0  0  0  0  0  0  0  0  0
  189.0000  177.0480  146.2270 C   0  0  0  0  0  0  0  0  0  0  0  0
  185.4820  177.9150  145.9750 C   0  0  0  0  0  3  0  0  0  0  0  0
  187.4770  176.6350  144.4180 C   0  0  0  0  0  0  0  0  0  0  0  0
  190.0620  176.4150  145.5150 C   0  0  0  0  0  0  0  0  0  0  0  0
  191.6000  177.4600  148.6900 C   0  0  0  0  0  1  0  0  0  0  0  0
  191.1340  176.4790  146.2830 C   0  0  0  0  0  0  0  0  0  0  0  0
  194.7310  175.4440  145.9950 C   0  0  0  0  0  2  0  0  0  0  0  0
  192.0070  172.9020  144.8360 O   0  0  0  0  0  0  0  0  0  0  0  0
  186.7710  177.7840  146.4770 C   0  0  0  0  0  3  0  0  0  0  0  0
  187.7690  177.1540  145.7240 C   0  0  0  0  0  0  0  0  0  0  0  0
  191.6800  174.0460  144.5560 C   0  0  0  0  0  0  0  0  0  0  0  0
  188.2280  173.3990  140.9620 C   0  0  0  0  0  2  0  0  0  0  0  0
  189.7580  173.4320  138.9910 C   0  0  0  0  0  1  0  0  0  0  0  0
  188.5510  174.0810  139.6420 C   0  0  0  0  0  2  0  0  0  0  0  0
  1  4  2  0  0  0  0
  1 19  1  0  0  0  0
  2 19  2  0  0  0  0
  2 13  1  0  0  0  0
  3 10  1  0  0  0  0
  4 20  1  0  0  0  0
  5  1  1  0  0  0  0
  6  8  2  0  0  0  0
  7 15  1  1  0  0  0
  7  9  1  0  0  0  0
  9 22  1  0  0  0  0
  9 14  1  0  0  0  0
 10 21  1  1  0  0  0
 11  5  1  0  0  0  0
 11  8  1  0  0  0  0
 12  8  1  6  0  0  0
 12  4  1  0  0  0  0
 12 27  1  0  0  0  0
 13 18  2  0  0  0  0
 15 23  1  0  0  0  0
 16  2  1  0  0  0  0
 17  3  2  0  0  0  0
 18 25  1  0  0  0  0
 19 26  1  0  0  0  0
 20 17  1  0  0  0  0
 20 22  2  0  0  0  0
 22 10  1  0  0  0  0
 23 14  1  0  0  0  0
 26 17  1  0  0  0  0
 26 25  2  0  0  0  0
 27  7  1  0  0  0  0
 27 24  2  0  0  0  0
 28 11  1  0  0  0  0
 29 30  1  0  0  0  0
 30 28  1  0  0  0  0
M  END
>  <MODEL>
4

>  <REMARK>
 VINA RESULT:      -8.1      2.308      3.348
  Name = 
  2 active torsions:
  status: ('A' for Active; 'I' for Inactive)
    1  A    between atoms: N_11  and  C_28
    2  A    between atoms: C_28  and  C_30
                            x       y       z     vdW  Elec       q    Type
                         _______ _______ _______ _____ _____    ______ ____

>  <TORSDO>
F 2

$$$$
=
 OpenBabel11112416253D

 30 35  0  0  1  0  0  0  0  0999 V2000
  186.0920  177.5320  141.5700 C   0  0  0  0  0  0  0  0  0  0  0  0
  183.8730  178.0280  140.6620 C   0  0  0  0  0  0  0  0  0  0  0  0
  184.7940  178.4920  145.4760 N   0  0  0  0  0  0  0  0  0  0  0  0
  187.0910  177.3950  142.7080 C   0  0  2  0  0  3  0  0  0  0  0  0
  186.6800  177.2520  140.2190 C   0  0  0  0  0  2  0  0  0  0  0  0
  188.9250  174.5550  141.2940 O   0  0  0  0  0  0  0  0  0  0  0  0
  189.2770  176.9460  144.5790 C   0  0  1  0  0  3  0  0  0  0  0  0
  188.0760  175.4840  141.3950 C   0  0  0  0  0  0  0  0  0  0  0  0
  188.3200  177.4300  145.5610 N   0  0  0  0  0  0  0  0  0  0  0  0
  185.9020  178.2750  146.1210 C   0  0  0  0  0  0  0  0  0  0  0  0
  187.4410  176.0010  140.2090 N   0  0  0  0  0  0  0  0  0  0  0  0
  187.6400  175.9590  142.7630 C   0  0  1  0  0  3  0  0  0  0  0  0
  182.5530  178.4340  140.8730 C   0  0  0  0  0  3  0  0  0  0  0  0
  188.8790  177.5400  146.8910 C   0  0  0  0  0  2  0  0  0  0  0  0
  190.5300  176.5910  145.3660 C   0  0  0  0  0  2  0  0  0  0  0  0
  184.2270  177.7270  139.3880 F   0  0  0  0  0  0  0  0  0  0  0  0
  185.1050  178.1950  144.1140 C   0  0  0  0  0  0  0  0  0  0  0  0
  182.1000  178.7510  142.1500 C   0  0  0  0  0  3  0  0  0  0  0  0
  184.7850  177.9290  141.7500 C   0  0  0  0  0  0  0  0  0  0  0  0
  186.4680  177.7870  144.0050 C   0  0  0  0  0  0  0  0  0  0  0  0
  186.0120  178.4590  147.5930 C   0  0  0  0  0  1  0  0  0  0  0  0
  186.9830  177.8300  145.2190 C   0  0  0  0  0  0  0  0  0  0  0  0
  190.3520  177.2020  146.7500 C   0  0  0  0  0  2  0  0  0  0  0  0
  189.0330  174.6270  144.1320 O   0  0  0  0  0  0  0  0  0  0  0  0
  182.9660  178.6660  143.2340 C   0  0  0  0  0  3  0  0  0  0  0  0
  184.2940  178.2610  143.0570 C   0  0  0  0  0  0  0  0  0  0  0  0
  188.7100  175.7650  143.8230 C   0  0  0  0  0  0  0  0  0  0  0  0
  187.6840  175.3660  138.9200 C   0  0  0  0  0  2  0  0  0  0  0  0
  187.3970  175.6800  136.4620 C   0  0  0  0  0  1  0  0  0  0  0  0
  186.8500  176.0260  137.8330 C   0  0  0  0  0  2  0  0  0  0  0  0
  1 19  2  0  0  0  0
  2 13  2  0  0  0  0
  2 19  1  0  0  0  0
  3 10  2  0  0  0  0
  4  1  1  6  0  0  0
  4 12  1  0  0  0  0
  4 20  1  0  0  0  0
  5  1  1  0  0  0  0
  6  8  2  0  0  0  0
  7 15  1  1  0  0  0
  7  9  1  0  0  0  0
  9 14  1  0  0  0  0
 10 21  1  0  0  0  0
 11  5  1  0  0  0  0
 11  8  1  0  0  0  0
 12  8  1  6  0  0  0
 12 27  1  0  0  0  0
 13 18  1  0  0  0  0
 15 23  1  0  0  0  0
 16  2  1  0  0  0  0
 17  3  1  0  0  0  0
 18 25  2  0  0  0  0
 19 26  1  0  0  0  0
 20 17  1  0  0  0  0
 20 22  2  0  0  0  0
 22  9  1  0  0  0  0
 22 10  1  0  0  0  0
 23 14  1  0  0  0  0
 26 25  1  0  0  0  0
 26 17  2  0  0  0  0
 27 24  2  0  0  0  0
 27  7  1  0  0  0  0
 28 11  1  0  0  0  0
 29 30  1  0  0  0  0
 30 28  1  0  0  0  0
M  END
>  <MODEL>
5

>  <REMARK>
 VINA RESULT:      -7.7      2.071      3.798
  Name = 
  2 active torsions:
  status: ('A' for Active; 'I' for Inactive)
    1  A    between atoms: N_11  and  C_28
    2  A    between atoms: C_28  and  C_30
                            x       y       z     vdW  Elec       q    Type
                         _______ _______ _______ _____ _____    ______ ____

>  <TORSDO>
F 2

$$$$
=
 OpenBabel11112416253D

 30 35  0  0  1  0  0  0  0  0999 V2000
  188.7960  175.8490  145.0940 C   0  0  0  0  0  0  0  0  0  0  0  0
  187.2880  177.7530  145.4060 C   0  0  0  0  0  0  0  0  0  0  0  0
  187.7600  175.6000  141.0040 N   0  0  0  0  0  0  0  0  0  0  0  0
  189.4710  174.7790  144.2500 C   0  0  0  0  0  0  0  0  0  0  0  0
  189.1690  175.7930  146.5450 C   0  0  0  0  0  2  0  0  0  0  0  0
  192.6700  174.8160  146.0360 O   0  0  0  0  0  0  0  0  0  0  0  0
  191.0180  172.6520  142.9990 C   0  0  1  0  0  3  0  0  0  0  0  0
  191.4780  175.1050  145.7370 C   0  0  0  0  0  0  0  0  0  0  0  0
  190.2640  173.0230  141.8130 N   0  0  0  0  0  0  0  0  0  0  0  0
  188.5050  174.5900  140.6630 C   0  0  0  0  0  0  0  0  0  0  0  0
  190.6190  175.7020  146.7270 N   0  0  0  0  0  0  0  0  0  0  0  0
  190.9990  174.9400  144.3110 C   0  0  1  0  0  3  0  0  0  0  0  0
  186.3680  178.6560  144.8680 C   0  0  0  0  0  3  0  0  0  0  0  0
  190.5440  172.1740  140.6750 C   0  0  0  0  0  2  0  0  0  0  0  0
  191.9640  171.5450  142.5570 C   0  0  0  0  0  2  0  0  0  0  0  0
  187.5850  177.8880  146.7220 F   0  0  0  0  0  0  0  0  0  0  0  0
  188.0260  175.7920  142.3930 C   0  0  1  0  0  3  0  0  0  0  0  0
  186.0140  178.5970  143.5240 C   0  0  0  0  0  3  0  0  0  0  0  0
  187.8860  176.7520  144.5890 C   0  0  0  0  0  0  0  0  0  0  0  0
  188.9770  174.8290  142.8440 C   0  0  0  0  0  0  0  0  0  0  0  0
  188.5350  174.0600  139.2730 C   0  0  0  0  0  1  0  0  0  0  0  0
  189.2860  174.0750  141.8050 C   0  0  0  0  0  0  0  0  0  0  0  0
  191.4790  171.0920  141.1860 C   0  0  0  0  0  2  0  0  0  0  0  0
  192.9370  174.0120  143.3250 O   0  0  0  0  0  0  0  0  0  0  0  0
  186.5780  177.6320  142.6990 C   0  0  0  0  0  3  0  0  0  0  0  0
  187.5050  176.7130  143.2060 C   0  0  0  0  0  0  0  0  0  0  0  0
  191.7490  173.8530  143.5610 C   0  0  0  0  0  0  0  0  0  0  0  0
  191.1640  176.0870  148.0230 C   0  0  0  0  0  2  0  0  0  0  0  0
  191.5330  177.9870  149.5980 C   0  0  0  0  0  1  0  0  0  0  0  0
  190.8140  177.5330  148.3420 C   0  0  0  0  0  2  0  0  0  0  0  0
  1  5  1  0  0  0  0
  2 16  1  0  0  0  0
  4 12  1  0  0  0  0
  4  1  2  0  0  0  0
  5 11  1  0  0  0  0
  7 15  1  6  0  0  0
  7 27  1  0  0  0  0
  8  6  2  0  0  0  0
  8 11  1  0  0  0  0
  9  7  1  0  0  0  0
 10  3  2  0  0  0  0
 10 22  1  0  0  0  0
 11 28  1  0  0  0  0
 12 27  1  1  0  0  0
 12  8  1  0  0  0  0
 13  2  1  0  0  0  0
 14 23  1  0  0  0  0
 14  9  1  0  0  0  0
 17  3  1  6  0  0  0
 17 20  1  0  0  0  0
 17 26  1  0  0  0  0
 18 13  2  0  0  0  0
 19  1  1  0  0  0  0
 19  2  2  0  0  0  0
 20  4  1  0  0  0  0
 21 10  1  0  0  0  0
 22  9  1  0  0  0  0
 22 20  2  0  0  0  0
 23 15  1  0  0  0  0
 24 27  2  0  0  0  0
 25 26  2  0  0  0  0
 25 18  1  0  0  0  0
 26 19  1  0  0  0  0
 28 30  1  0  0  0  0
 30 29  1  0  0  0  0
M  END
>  <MODEL>
6

>  <REMARK>
 VINA RESULT:      -7.6      2.629      5.719
  Name = 
  2 active torsions:
  status: ('A' for Active; 'I' for Inactive)
    1  A    between atoms: N_11  and  C_28
    2  A    between atoms: C_28  and  C_30
                            x       y       z     vdW  Elec       q    Type
                         _______ _______ _______ _____ _____    ______ ____

>  <TORSDO>
F 2

$$$$
=
 OpenBabel11112416253D

 30 35  0  0  1  0  0  0  0  0999 V2000
  188.9840  175.9400  143.2230 C   0  0  0  0  0  0  0  0  0  0  0  0
  188.4170  176.4370  145.5520 C   0  0  0  0  0  0  0  0  0  0  0  0
  190.7800  172.2870  144.3590 N   0  0  0  0  0  0  0  0  0  0  0  0
  189.5680  175.0610  142.1280 C   0  0  0  0  0  0  0  0  0  0  0  0
  188.4520  177.2500  142.7210 C   0  0  0  0  0  2  0  0  0  0  0  0
  187.1380  175.9710  139.5420 O   0  0  0  0  0  0  0  0  0  0  0  0
  190.5000  173.6720  139.7450 C   0  0  1  0  0  3  0  0  0  0  0  0
  187.7300  175.9550  140.6560 C   0  0  0  0  0  0  0  0  0  0  0  0
  190.9700  172.6830  140.7020 N   0  0  0  0  0  0  0  0  0  0  0  0
  191.1570  171.8690  143.1870 C   0  0  0  0  0  0  0  0  0  0  0  0
  187.5790  177.0680  141.5590 N   0  0  0  0  0  0  0  0  0  0  0  0
  188.4870  174.7200  141.0880 C   0  0  1  0  0  3  0  0  0  0  0  0
  188.4370  176.0650  146.8980 C   0  0  0  0  0  3  0  0  0  0  0  0
  191.7020  171.5990  140.0840 C   0  0  0  0  0  2  0  0  0  0  0  0
  190.8490  173.1140  138.3720 C   0  0  0  0  0  2  0  0  0  0  0  0
  187.8200  177.6170  145.2500 F   0  0  0  0  0  0  0  0  0  0  0  0
  190.1430  173.5400  144.1080 C   0  0  1  0  0  3  0  0  0  0  0  0
  189.0190  174.8650  147.2970 C   0  0  0  0  0  3  0  0  0  0  0  0
  188.9900  175.5970  144.5570 C   0  0  0  0  0  0  0  0  0  0  0  0
  190.1690  173.8260  142.7100 C   0  0  0  0  0  0  0  0  0  0  0  0
  191.8640  170.5740  142.9960 C   0  0  0  0  0  1  0  0  0  0  0  0
  190.7890  172.8210  142.1210 C   0  0  0  0  0  0  0  0  0  0  0  0
  191.8130  171.9600  138.6140 C   0  0  0  0  0  2  0  0  0  0  0  0
  188.2170  173.3700  139.1660 O   0  0  0  0  0  0  0  0  0  0  0  0
  189.5880  174.0210  146.3510 C   0  0  0  0  0  3  0  0  0  0  0  0
  189.5820  174.3650  144.9940 C   0  0  0  0  0  0  0  0  0  0  0  0
  189.0160  173.9130  139.9150 C   0  0  0  0  0  0  0  0  0  0  0  0
  186.6470  178.1410  141.2380 C   0  0  0  0  0  2  0  0  0  0  0  0
  184.7180  177.8390  142.7920 C   0  0  0  0  0  1  0  0  0  0  0  0
  185.9650  178.6510  142.4990 C   0  0  0  0  0  2  0  0  0  0  0  0
  1 19  1  0  0  0  0
  2 13  1  0  0  0  0
  4 20  1  0  0  0  0
  4  1  2  0  0  0  0
  5  1  1  0  0  0  0
  6  8  2  0  0  0  0
  7 15  1  6  0  0  0
  7 27  1  0  0  0  0
  7  9  1  0  0  0  0
  8 12  1  0  0  0  0
  8 11  1  0  0  0  0
  9 22  1  0  0  0  0
 10  3  2  0  0  0  0
 11  5  1  0  0  0  0
 12 27  1  6  0  0  0
 12  4  1  0  0  0  0
 13 18  2  0  0  0  0
 14  9  1  0  0  0  0
 15 23  1  0  0  0  0
 16  2  1  0  0  0  0
 17 20  1  6  0  0  0
 17  3  1  0  0  0  0
 17 26  1  0  0  0  0
 19 26  1  0  0  0  0
 19  2  2  0  0  0  0
 21 10  1  0  0  0  0
 22 20  2  0  0  0  0
 22 10  1  0  0  0  0
 23 14  1  0  0  0  0
 24 27  2  0  0  0  0
 25 18  1  0  0  0  0
 26 25  2  0  0  0  0
 28 11  1  0  0  0  0
 28 30  1  0  0  0  0
 30 29  1  0  0  0  0
M  END
>  <MODEL>
7

>  <REMARK>
 VINA RESULT:      -7.6      2.895      4.258
  Name = 
  2 active torsions:
  status: ('A' for Active; 'I' for Inactive)
    1  A    between atoms: N_11  and  C_28
    2  A    between atoms: C_28  and  C_30
                            x       y       z     vdW  Elec       q    Type
                         _______ _______ _______ _____ _____    ______ ____

>  <TORSDO>
F 2

$$$$
=
 OpenBabel11112416253D

 30 35  0  0  1  0  0  0  0  0999 V2000
  187.2280  177.0110  142.4900 C   0  0  0  0  0  0  0  0  0  0  0  0
  185.1210  177.6600  141.4270 C   0  0  0  0  0  0  0  0  0  0  0  0
  185.9340  178.5870  146.1920 N   0  0  0  0  0  0  0  0  0  0  0  0
  188.1640  176.8920  143.6840 C   0  0  2  0  0  3  0  0  0  0  0  0
  187.8200  176.4990  141.2110 C   0  0  0  0  0  2  0  0  0  0  0  0
  189.6690  173.7000  142.6980 O   0  0  0  0  0  0  0  0  0  0  0  0
  190.2120  176.4100  145.6970 C   0  0  1  0  0  3  0  0  0  0  0  0
  188.9410  174.7300  142.6500 C   0  0  0  0  0  0  0  0  0  0  0  0
  189.2920  177.1220  146.5690 N   0  0  0  0  0  0  0  0  0  0  0  0
  186.9840  178.3170  146.9100 C   0  0  0  0  0  0  0  0  0  0  0  0
  188.4170  175.1740  141.3830 N   0  0  0  0  0  0  0  0  0  0  0  0
  188.5240  175.4170  143.9310 C   0  0  1  0  0  3  0  0  0  0  0  0
  183.8570  178.2460  141.5260 C   0  0  0  0  0  3  0  0  0  0  0  0
  189.8170  177.3240  147.9030 C   0  0  0  0  0  2  0  0  0  0  0  0
  191.3840  176.0030  146.5780 C   0  0  0  0  0  2  0  0  0  0  0  0
  185.4760  177.1660  140.2140 F   0  0  0  0  0  0  0  0  0  0  0  0
  186.2490  178.0920  144.8910 C   0  0  0  0  0  0  0  0  0  0  0  0
  183.4060  178.7690  142.7340 C   0  0  0  0  0  3  0  0  0  0  0  0
  185.9770  177.5830  142.5610 C   0  0  0  0  0  0  0  0  0  0  0  0
  187.5520  177.5110  144.8950 C   0  0  0  0  0  0  0  0  0  0  0  0
  187.0680  178.6640  148.3550 C   0  0  0  0  0  1  0  0  0  0  0  0
  188.0290  177.6380  146.1190 C   0  0  0  0  0  0  0  0  0  0  0  0
  191.2390  176.7950  147.8720 C   0  0  0  0  0  2  0  0  0  0  0  0
  189.6920  174.1010  145.5110 O   0  0  0  0  0  0  0  0  0  0  0  0
  184.2170  178.7100  143.8610 C   0  0  0  0  0  3  0  0  0  0  0  0
  185.4880  178.1280  143.7960 C   0  0  0  0  0  0  0  0  0  0  0  0
  189.5250  175.2240  145.0560 C   0  0  0  0  0  0  0  0  0  0  0  0
  188.6190  174.3620  140.1900 C   0  0  0  0  0  2  0  0  0  0  0  0
  188.2080  174.2220  137.7330 C   0  0  0  0  0  1  0  0  0  0  0  0
  187.8160  174.9160  139.0230 C   0  0  0  0  0  2  0  0  0  0  0  0
  1 19  2  0  0  0  0
  2 13  2  0  0  0  0
  2 19  1  0  0  0  0
  3 10  2  0  0  0  0
  4  1  1  6  0  0  0
  4 12  1  0  0  0  0
  4 20  1  0  0  0  0
  5 11  1  0  0  0  0
  5  1  1  0  0  0  0
  7  9  1  0  0  0  0
  7 15  1  1  0  0  0
  8  6  2  0  0  0  0
  9 14  1  0  0  0  0
 10 21  1  0  0  0  0
 11  8  1  0  0  0  0
 12  8  1  6  0  0  0
 12 27  1  0  0  0  0
 13 18  1  0  0  0  0
 15 23  1  0  0  0  0
 16  2  1  0  0  0  0
 17 20  1  0  0  0  0
 17  3  1  0  0  0  0
 18 25  2  0  0  0  0
 19 26  1  0  0  0  0
 20 22  2  0  0  0  0
 22  9  1  0  0  0  0
 22 10  1  0  0  0  0
 23 14  1  0  0  0  0
 26 25  1  0  0  0  0
 26 17  2  0  0  0  0
 27 24  2  0  0  0  0
 27  7  1  0  0  0  0
 28 11  1  0  0  0  0
 29 30  1  0  0  0  0
 30 28  1  0  0  0  0
M  END
>  <MODEL>
8

>  <REMARK>
 VINA RESULT:      -7.5      2.020      3.665
  Name = 
  2 active torsions:
  status: ('A' for Active; 'I' for Inactive)
    1  A    between atoms: N_11  and  C_28
    2  A    between atoms: C_28  and  C_30
                            x       y       z     vdW  Elec       q    Type
                         _______ _______ _______ _____ _____    ______ ____

>  <TORSDO>
F 2

$$$$
=
 OpenBabel11112416253D

 30 35  0  0  1  0  0  0  0  0999 V2000
  186.6870  176.7770  144.1780 C   0  0  0  0  0  0  0  0  0  0  0  0
  185.4380  177.3710  142.1580 C   0  0  0  0  0  0  0  0  0  0  0  0
  190.2330  176.2840  141.9330 N   0  0  0  0  0  0  0  0  0  0  0  0
  187.9560  176.3920  144.9230 C   0  0  2  0  0  3  0  0  0  0  0  0
  185.4720  176.8400  145.0550 C   0  0  0  0  0  2  0  0  0  0  0  0
  187.1670  178.1920  148.0160 O   0  0  0  0  0  0  0  0  0  0  0  0
  190.1420  175.7190  146.7250 C   0  0  1  0  0  3  0  0  0  0  0  0
  187.0370  177.7340  146.8470 C   0  0  0  0  0  0  0  0  0  0  0  0
  190.9190  175.6580  145.4970 N   0  0  0  0  0  0  0  0  0  0  0  0
  191.0420  175.9490  142.8950 C   0  0  0  0  0  0  0  0  0  0  0  0
  185.7220  177.6190  146.2690 N   0  0  0  0  0  0  0  0  0  0  0  0
  188.2640  177.4290  146.0170 C   0  0  1  0  0  3  0  0  0  0  0  0
  185.4190  177.5850  140.7780 C   0  0  0  0  0  3  0  0  0  0  0  0
  192.2870  175.2380  145.7130 C   0  0  0  0  0  2  0  0  0  0  0  0
  191.1260  175.4350  147.8500 C   0  0  0  0  0  2  0  0  0  0  0  0
  184.2700  177.5520  142.8240 F   0  0  0  0  0  0  0  0  0  0  0  0
  188.9740  176.4850  142.5740 C   0  0  0  0  0  0  0  0  0  0  0  0
  186.5740  177.4330  140.0170 C   0  0  0  0  0  3  0  0  0  0  0  0
  186.6410  176.9950  142.8180 C   0  0  0  0  0  0  0  0  0  0  0  0
  189.0990  176.2490  143.9750 C   0  0  0  0  0  0  0  0  0  0  0  0
  192.4810  175.6550  142.6560 C   0  0  0  0  0  1  0  0  0  0  0  0
  190.3550  175.9140  144.2010 C   0  0  0  0  0  0  0  0  0  0  0  0
  192.3860  174.8920  147.1880 C   0  0  0  0  0  2  0  0  0  0  0  0
  189.9630  177.9240  147.5850 O   0  0  0  0  0  0  0  0  0  0  0  0
  187.7660  177.0650  140.6310 C   0  0  0  0  0  3  0  0  0  0  0  0
  187.8190  176.8450  142.0120 C   0  0  0  0  0  0  0  0  0  0  0  0
  189.4720  177.0680  146.8630 C   0  0  0  0  0  0  0  0  0  0  0  0
  184.5670  178.1500  146.9830 C   0  0  0  0  0  2  0  0  0  0  0  0
  184.5170  179.7300  145.0530 C   0  0  0  0  0  1  0  0  0  0  0  0
  183.6760  178.9460  146.0420 C   0  0  0  0  0  2  0  0  0  0  0  0
  1  4  1  0  0  0  0
  1  5  1  0  0  0  0
  2 19  1  0  0  0  0
  2 16  1  0  0  0  0
  3 17  1  0  0  0  0
  3 10  2  0  0  0  0
  4 20  1  6  0  0  0
  4 12  1  0  0  0  0
  5 11  1  0  0  0  0
  7 27  1  0  0  0  0
  7 15  1  1  0  0  0
  8  6  2  0  0  0  0
  9 14  1  0  0  0  0
  9  7  1  0  0  0  0
 10 22  1  0  0  0  0
 11  8  1  0  0  0  0
 11 28  1  0  0  0  0
 12  8  1  1  0  0  0
 12 27  1  0  0  0  0
 13  2  2  0  0  0  0
 14 23  1  0  0  0  0
 17 20  1  0  0  0  0
 18 25  2  0  0  0  0
 18 13  1  0  0  0  0
 19  1  2  0  0  0  0
 20 22  2  0  0  0  0
 21 10  1  0  0  0  0
 22  9  1  0  0  0  0
 23 15  1  0  0  0  0
 25 26  1  0  0  0  0
 26 17  2  0  0  0  0
 26 19  1  0  0  0  0
 27 24  2  0  0  0  0
 29 30  1  0  0  0  0
 30 28  1  0  0  0  0
M  END
>  <MODEL>
9

>  <REMARK>
 VINA RESULT:      -7.5      2.352      4.672
  Name = 
  2 active torsions:
  status: ('A' for Active; 'I' for Inactive)
    1  A    between atoms: N_11  and  C_28
    2  A    between atoms: C_28  and  C_30
                            x       y       z     vdW  Elec       q    Type
                         _______ _______ _______ _____ _____    ______ ____

>  <TORSDO>
F 2

$$$$
