=
 OpenBabel11112416503D

 31 35  0  0  1  0  0  0  0  0999 V2000
  189.8700  171.6850  142.5130 C   0  0  0  0  0  0  0  0  0  0  0  0
  190.1260  173.9860  145.5290 C   0  0  2  0  0  3  0  0  0  0  0  0
  191.5810  174.4230  145.6230 C   0  0  0  0  0  0  0  0  0  0  0  0
  193.9270  174.1370  145.0420 C   0  0  0  0  0  0  0  0  0  0  0  0
  189.7540  173.4670  144.1600 C   0  0  0  0  0  0  0  0  0  0  0  0
  189.1930  172.4870  141.5920 C   0  0  0  0  0  3  0  0  0  0  0  0
  192.5910  173.7450  144.9220 C   0  0  0  0  0  3  0  0  0  0  0  0
  189.0760  176.1890  144.8920 C   0  0  2  0  0  3  0  0  0  0  0  0
  190.2700  170.4040  142.1580 O   0  0  0  0  0  1  0  0  0  0  0  0
  190.9660  176.1460  147.2310 O   0  0  0  0  0  0  0  0  0  0  0  0
  195.1690  173.2920  144.1470 Cl  0  0  0  0  0  0  0  0  0  0  0  0
  188.4900  175.6090  143.6060 C   0  0  0  0  0  2  0  0  0  0  0  0
  189.1600  175.1020  145.9760 C   0  0  2  0  0  3  0  0  0  0  0  0
  190.1480  172.1730  143.7920 C   0  0  0  0  0  3  0  0  0  0  0  0
  194.2690  175.2040  145.8760 C   0  0  0  0  0  3  0  0  0  0  0  0
  189.0660  174.2750  143.2270 C   0  0  0  0  0  0  0  0  0  0  0  0
  188.7850  173.7720  141.9520 C   0  0  0  0  0  3  0  0  0  0  0  0
  189.6300  175.6580  147.3230 C   0  0  0  0  0  2  0  0  0  0  0  0
  191.9420  175.4760  146.4890 C   0  0  0  0  0  0  0  0  0  0  0  0
  193.2780  175.8710  146.5990 C   0  0  0  0  0  3  0  0  0  0  0  0
  188.2440  177.3090  145.3170 N   0  0  0  0  0  2  0  0  0  0  0  0
  185.8650  176.8350  145.5280 C   0  0  0  0  0  1  0  0  0  0  0  0
  186.9850  177.2510  144.5830 C   0  0  1  0  0  3  0  0  0  0  0  0
  184.3980  178.1580  142.1660 C   0  0  0  0  0  0  0  0  0  0  0  0
  185.3140  179.0280  144.2200 O   0  0  0  0  0  0  0  0  0  0  0  0
  188.2490  177.9750  141.8940 O   0  0  0  0  0  0  0  0  0  0  0  0
  183.2370  178.0400  141.5280 C   0  0  0  0  0  2  0  0  0  0  0  0
  184.4120  178.0910  143.6660 C   0  0  0  0  0  2  0  0  0  0  0  0
  187.0050  178.8020  142.1820 S   0  0  2  0  0  0  0  0  0  0  0  0
  186.6470  178.6230  143.9620 C   0  0  2  0  0  3  0  0  0  0  0  0
  185.6620  177.8760  141.4230 C   0  0  0  0  0  2  0  0  0  0  0  0
  1 14  1  0  0  0  0
  2  5  1  6  0  0  0
  2  3  1  0  0  0  0
  2 13  1  0  0  0  0
  3 19  1  0  0  0  0
  4 15  2  0  0  0  0
  6 17  1  0  0  0  0
  6  1  2  0  0  0  0
  7  4  1  0  0  0  0
  7  3  2  0  0  0  0
  8 21  1  1  0  0  0
  8 13  1  0  0  0  0
  9  1  1  0  0  0  0
 10 18  1  0  0  0  0
 11  4  1  0  0  0  0
 12  8  1  0  0  0  0
 13 18  1  1  0  0  0
 14  5  2  0  0  0  0
 15 20  1  0  0  0  0
 16 12  1  0  0  0  0
 16  5  1  0  0  0  0
 17 16  2  0  0  0  0
 19 20  2  0  0  0  0
 19 10  1  0  0  0  0
 23 21  1  0  0  0  0
 23 22  1  1  0  0  0
 24 28  1  0  0  0  0
 27 24  2  0  0  0  0
 28 25  1  0  0  0  0
 29 26  2  1  0  0  0
 29 30  1  0  0  0  0
 30 25  1  0  0  0  0
 30 23  1  6  0  0  0
 31 24  1  0  0  0  0
 31 29  1  0  0  0  0
M  END
>  <MODEL>
1

>  <REMARK>
 VINA RESULT:      -8.3      0.000      0.000
  Name = 
  3 active torsions:
  status: ('A' for Active; 'I' for Inactive)
    1  A    between atoms: C_5  and  N_16
    2  A    between atoms: C_5  and  C_30
    3  A    between atoms: C_10  and  N_16
                            x       y       z     vdW  Elec       q    Type
                         _______ _______ _______ _____ _____    ______ ____

>  <TORSDO>
F 3

$$$$
=
 OpenBabel11112416503D

 31 35  0  0  1  0  0  0  0  0999 V2000
  194.6670  176.3490  144.7560 C   0  0  0  0  0  0  0  0  0  0  0  0
  191.0970  177.0670  143.6630 C   0  0  2  0  0  3  0  0  0  0  0  0
  190.6300  175.8540  142.8710 C   0  0  0  0  0  0  0  0  0  0  0  0
  191.1040  173.8120  141.6350 C   0  0  0  0  0  0  0  0  0  0  0  0
  192.2840  176.7710  144.5490 C   0  0  0  0  0  0  0  0  0  0  0  0
  194.5100  176.1120  146.1230 C   0  0  0  0  0  3  0  0  0  0  0  0
  191.5440  174.9050  142.3870 C   0  0  0  0  0  3  0  0  0  0  0  0
  189.6210  176.8270  145.6930 C   0  0  2  0  0  3  0  0  0  0  0  0
  195.9230  176.2530  144.1730 O   0  0  0  0  0  1  0  0  0  0  0  0
  188.3340  176.6600  142.9800 O   0  0  0  0  0  0  0  0  0  0  0  0
  192.2560  172.6310  141.0540 Cl  0  0  0  0  0  0  0  0  0  0  0  0
  190.8200  176.7620  146.6360 C   0  0  0  0  0  2  0  0  0  0  0  0
  189.9490  177.7030  144.4720 C   0  0  2  0  0  3  0  0  0  0  0  0
  193.5580  176.6770  143.9730 C   0  0  0  0  0  3  0  0  0  0  0  0
  189.7450  173.6640  141.3480 C   0  0  0  0  0  3  0  0  0  0  0  0
  192.1290  176.5340  145.9340 C   0  0  0  0  0  0  0  0  0  0  0  0
  193.2480  176.2140  146.7100 C   0  0  0  0  0  3  0  0  0  0  0  0
  188.7400  177.9000  143.5540 C   0  0  0  0  0  2  0  0  0  0  0  0
  189.2640  175.7130  142.5460 C   0  0  0  0  0  0  0  0  0  0  0  0
  188.8270  174.6130  141.8020 C   0  0  0  0  0  3  0  0  0  0  0  0
  188.4760  177.3470  146.4340 N   0  0  0  0  0  2  0  0  0  0  0  0
  188.0900  175.2640  147.6350 C   0  0  0  0  0  1  0  0  0  0  0  0
  187.5240  176.2580  146.6290 C   0  0  1  0  0  3  0  0  0  0  0  0
  185.2350  178.6810  145.1300 C   0  0  0  0  0  0  0  0  0  0  0  0
  185.1040  176.5490  146.2490 O   0  0  0  0  0  0  0  0  0  0  0  0
  187.5200  178.8560  148.2420 O   0  0  0  0  0  0  0  0  0  0  0  0
  184.6610  179.3570  144.1400 C   0  0  0  0  0  2  0  0  0  0  0  0
  185.3570  177.1890  145.0140 C   0  0  0  0  0  2  0  0  0  0  0  0
  186.1530  178.5490  147.6500 S   0  0  2  0  0  0  0  0  0  0  0  0
  186.1720  176.7960  147.1460 C   0  0  2  0  0  3  0  0  0  0  0  0
  186.1430  179.4050  146.0680 C   0  0  0  0  0  2  0  0  0  0  0  0
  1  6  1  0  0  0  0
  2  3  1  1  0  0  0
  2 13  1  0  0  0  0
  2  5  1  0  0  0  0
  4  7  1  0  0  0  0
  5 16  2  0  0  0  0
  6 17  2  0  0  0  0
  7  3  2  0  0  0  0
  8 21  1  1  0  0  0
  8 12  1  0  0  0  0
  9  1  1  0  0  0  0
 10 18  1  0  0  0  0
 11  4  1  0  0  0  0
 13 18  1  6  0  0  0
 13  8  1  0  0  0  0
 14  5  1  0  0  0  0
 14  1  2  0  0  0  0
 15  4  2  0  0  0  0
 15 20  1  0  0  0  0
 16 12  1  0  0  0  0
 16 17  1  0  0  0  0
 19  3  1  0  0  0  0
 19 10  1  0  0  0  0
 20 19  2  0  0  0  0
 21 23  1  0  0  0  0
 23 22  1  1  0  0  0
 24 31  1  0  0  0  0
 25 30  1  0  0  0  0
 27 24  2  0  0  0  0
 28 24  1  0  0  0  0
 28 25  1  0  0  0  0
 29 26  2  6  0  0  0
 30 23  1  6  0  0  0
 30 29  1  0  0  0  0
 31 29  1  0  0  0  0
M  END
>  <MODEL>
2

>  <REMARK>
 VINA RESULT:      -8.2      2.711      4.816
  Name = 
  3 active torsions:
  status: ('A' for Active; 'I' for Inactive)
    1  A    between atoms: C_5  and  N_16
    2  A    between atoms: C_5  and  C_30
    3  A    between atoms: C_10  and  N_16
                            x       y       z     vdW  Elec       q    Type
                         _______ _______ _______ _____ _____    ______ ____

>  <TORSDO>
F 3

$$$$
=
 OpenBabel11112416503D

 31 35  0  0  1  0  0  0  0  0999 V2000
  196.6750  170.7910  145.3130 C   0  0  0  0  0  0  0  0  0  0  0  0
  195.9500  174.5230  145.2690 C   0  0  2  0  0  3  0  0  0  0  0  0
  196.1680  174.9940  143.8380 C   0  0  0  0  0  0  0  0  0  0  0  0
  197.0830  174.6610  141.6080 C   0  0  0  0  0  0  0  0  0  0  0  0
  195.7380  173.0310  145.3730 C   0  0  0  0  0  0  0  0  0  0  0  0
  195.3960  170.2480  145.4430 C   0  0  0  0  0  3  0  0  0  0  0  0
  196.8640  174.2030  142.9100 C   0  0  0  0  0  3  0  0  0  0  0  0
  193.4490  174.8100  145.4200 C   0  0  2  0  0  3  0  0  0  0  0  0
  197.7790  169.9550  145.2130 O   0  0  0  0  0  1  0  0  0  0  0  0
  195.0760  177.1080  144.3610 O   0  0  0  0  0  0  0  0  0  0  0  0
  197.9370  173.6540  140.4600 Cl  0  0  0  0  0  0  0  0  0  0  0  0
  193.2380  173.3370  145.7600 C   0  0  0  0  0  2  0  0  0  0  0  0
  194.8060  175.2930  145.9600 C   0  0  2  0  0  3  0  0  0  0  0  0
  196.8450  172.1770  145.2780 C   0  0  0  0  0  3  0  0  0  0  0  0
  196.6210  175.9220  141.2250 C   0  0  0  0  0  3  0  0  0  0  0  0
  194.4440  172.4790  145.5080 C   0  0  0  0  0  0  0  0  0  0  0  0
  194.2870  171.0890  145.5500 C   0  0  0  0  0  3  0  0  0  0  0  0
  195.0160  176.7940  145.7510 C   0  0  0  0  0  2  0  0  0  0  0  0
  195.7370  176.2800  143.4500 C   0  0  0  0  0  0  0  0  0  0  0  0
  195.9510  176.7300  142.1440 C   0  0  0  0  0  3  0  0  0  0  0  0
  192.3440  175.5800  145.9810 N   0  0  0  0  0  2  0  0  0  0  0  0
  192.0810  175.6150  143.5610 C   0  0  0  0  0  1  0  0  0  0  0  0
  191.4190  175.9090  144.9010 C   0  0  1  0  0  3  0  0  0  0  0  0
  187.9490  177.0270  145.1560 C   0  0  0  0  0  0  0  0  0  0  0  0
  189.2070  175.3450  143.9690 O   0  0  0  0  0  0  0  0  0  0  0  0
  190.3200  175.3350  147.6970 O   0  0  0  0  0  0  0  0  0  0  0  0
  186.9250  177.8560  144.9810 C   0  0  0  0  0  2  0  0  0  0  0  0
  188.8330  176.7090  143.9840 C   0  0  0  0  0  2  0  0  0  0  0  0
  189.2520  175.1920  146.6220 S   0  0  2  0  0  0  0  0  0  0  0  0
  190.1190  175.0850  145.0210 C   0  0  2  0  0  3  0  0  0  0  0  0
  188.4810  176.8150  146.5350 C   0  0  0  0  0  2  0  0  0  0  0  0
  1  6  1  0  0  0  0
  2  3  1  6  0  0  0
  2  5  1  0  0  0  0
  2 13  1  0  0  0  0
  4  7  1  0  0  0  0
  5 16  2  0  0  0  0
  6 17  2  0  0  0  0
  7  3  2  0  0  0  0
  8 12  1  0  0  0  0
  8 13  1  0  0  0  0
  8 21  1  1  0  0  0
  9  1  1  0  0  0  0
 10 18  1  0  0  0  0
 11  4  1  0  0  0  0
 13 18  1  6  0  0  0
 14  1  2  0  0  0  0
 14  5  1  0  0  0  0
 15  4  2  0  0  0  0
 15 20  1  0  0  0  0
 16 17  1  0  0  0  0
 16 12  1  0  0  0  0
 19  3  1  0  0  0  0
 19 10  1  0  0  0  0
 20 19  2  0  0  0  0
 23 22  1  6  0  0  0
 23 21  1  0  0  0  0
 24 31  1  0  0  0  0
 25 28  1  0  0  0  0
 25 30  1  0  0  0  0
 27 24  2  0  0  0  0
 28 24  1  0  0  0  0
 29 26  2  1  0  0  0
 30 23  1  1  0  0  0
 30 29  1  0  0  0  0
 31 29  1  0  0  0  0
M  END
>  <MODEL>
3

>  <REMARK>
 VINA RESULT:      -8.0      3.464      5.760
  Name = 
  3 active torsions:
  status: ('A' for Active; 'I' for Inactive)
    1  A    between atoms: C_5  and  N_16
    2  A    between atoms: C_5  and  C_30
    3  A    between atoms: C_10  and  N_16
                            x       y       z     vdW  Elec       q    Type
                         _______ _______ _______ _____ _____    ______ ____

>  <TORSDO>
F 3

$$$$
=
 OpenBabel11112416503D

 31 35  0  0  1  0  0  0  0  0999 V2000
  186.0060  178.1880  140.9040 C   0  0  0  0  0  0  0  0  0  0  0  0
  188.6140  177.9370  143.6590 C   0  0  2  0  0  3  0  0  0  0  0  0
  187.8680  177.5720  144.9350 C   0  0  0  0  0  0  0  0  0  0  0  0
  185.8060  177.4010  146.2150 C   0  0  0  0  0  0  0  0  0  0  0  0
  187.8290  177.6230  142.4080 C   0  0  0  0  0  0  0  0  0  0  0  0
  186.2600  177.0350  140.1580 C   0  0  0  0  0  3  0  0  0  0  0  0
  186.4740  177.7100  145.0280 C   0  0  0  0  0  3  0  0  0  0  0  0
  189.8900  175.7910  143.3010 C   0  0  2  0  0  3  0  0  0  0  0  0
  184.9750  179.0400  140.5370 O   0  0  0  0  0  1  0  0  0  0  0  0
  189.9820  177.0540  146.0290 O   0  0  0  0  0  0  0  0  0  0  0  0
  184.0670  177.5610  146.3060 Cl  0  0  0  0  0  0  0  0  0  0  0  0
  189.2740  175.5820  141.9200 C   0  0  0  0  0  2  0  0  0  0  0  0
  190.0150  177.2930  143.6080 C   0  0  2  0  0  3  0  0  0  0  0  0
  186.7880  178.4800  142.0240 C   0  0  0  0  0  3  0  0  0  0  0  0
  186.5270  176.9630  147.3290 C   0  0  0  0  0  3  0  0  0  0  0  0
  188.0860  176.4600  141.6490 C   0  0  0  0  0  0  0  0  0  0  0  0
  187.3020  176.1810  140.5240 C   0  0  0  0  0  3  0  0  0  0  0  0
  190.7360  177.5610  144.9310 C   0  0  0  0  0  2  0  0  0  0  0  0
  188.5900  177.1640  146.0760 C   0  0  0  0  0  0  0  0  0  0  0  0
  187.9160  176.8460  147.2600 C   0  0  0  0  0  3  0  0  0  0  0  0
  191.1890  175.1270  143.3370 N   0  0  0  0  0  2  0  0  0  0  0  0
  190.3480  172.9570  144.0530 C   0  0  0  0  0  1  0  0  0  0  0  0
  191.1840  174.1700  144.4380 C   0  0  1  0  0  3  0  0  0  0  0  0
  193.9840  176.0720  145.8180 C   0  0  0  0  0  0  0  0  0  0  0  0
  192.9530  173.9150  146.1390 O   0  0  0  0  0  0  0  0  0  0  0  0
  193.3600  174.5470  142.3220 O   0  0  0  0  0  0  0  0  0  0  0  0
  194.5660  177.0440  146.5130 C   0  0  0  0  0  2  0  0  0  0  0  0
  192.8710  175.2910  146.4560 C   0  0  0  0  0  2  0  0  0  0  0  0
  193.9420  174.3970  143.7200 S   0  0  2  0  0  0  0  0  0  0  0  0
  192.6200  173.7150  144.7760 C   0  0  2  0  0  3  0  0  0  0  0  0
  194.0930  176.0820  144.3290 C   0  0  0  0  0  2  0  0  0  0  0  0
  1 14  1  0  0  0  0
  2  5  1  6  0  0  0
  2  3  1  0  0  0  0
  3  7  2  0  0  0  0
  3 19  1  0  0  0  0
  4 11  1  0  0  0  0
  4 15  2  0  0  0  0
  6 17  1  0  0  0  0
  6  1  2  0  0  0  0
  7  4  1  0  0  0  0
  8 21  1  6  0  0  0
  8 13  1  0  0  0  0
  9  1  1  0  0  0  0
 10 19  1  0  0  0  0
 12  8  1  0  0  0  0
 13  2  1  0  0  0  0
 13 18  1  1  0  0  0
 14  5  2  0  0  0  0
 16 12  1  0  0  0  0
 16  5  1  0  0  0  0
 17 16  2  0  0  0  0
 18 10  1  0  0  0  0
 19 20  2  0  0  0  0
 20 15  1  0  0  0  0
 21 23  1  0  0  0  0
 23 22  1  6  0  0  0
 24 28  1  0  0  0  0
 24 27  2  0  0  0  0
 25 28  1  0  0  0  0
 29 26  2  6  0  0  0
 29 31  1  0  0  0  0
 29 30  1  0  0  0  0
 30 23  1  6  0  0  0
 30 25  1  0  0  0  0
 31 24  1  0  0  0  0
M  END
>  <MODEL>
4

>  <REMARK>
 VINA RESULT:      -8.0      3.383      7.023
  Name = 
  3 active torsions:
  status: ('A' for Active; 'I' for Inactive)
    1  A    between atoms: C_5  and  N_16
    2  A    between atoms: C_5  and  C_30
    3  A    between atoms: C_10  and  N_16
                            x       y       z     vdW  Elec       q    Type
                         _______ _______ _______ _____ _____    ______ ____

>  <TORSDO>
F 3

$$$$
=
 OpenBabel11112416503D

 31 35  0  0  1  0  0  0  0  0999 V2000
  186.0940  177.1880  142.7630 C   0  0  0  0  0  0  0  0  0  0  0  0
  188.6060  174.3350  142.8420 C   0  0  2  0  0  3  0  0  0  0  0  0
  188.9930  174.0530  141.3970 C   0  0  0  0  0  0  0  0  0  0  0  0
  188.5750  174.2530  139.0080 C   0  0  0  0  0  0  0  0  0  0  0  0
  187.9990  175.7050  143.0330 C   0  0  0  0  0  0  0  0  0  0  0  0
  186.8490  178.2540  143.2570 C   0  0  0  0  0  3  0  0  0  0  0  0
  188.2260  174.5460  140.3290 C   0  0  0  0  0  3  0  0  0  0  0  0
  190.7920  175.2740  143.6770 C   0  0  2  0  0  3  0  0  0  0  0  0
  184.7760  177.3890  142.3780 O   0  0  0  0  0  1  0  0  0  0  0  0
  190.8550  172.6790  142.1580 O   0  0  0  0  0  0  0  0  0  0  0  0
  187.6180  174.8900  137.6900 Cl  0  0  0  0  0  0  0  0  0  0  0  0
  190.1400  176.5900  144.0950 C   0  0  0  0  0  2  0  0  0  0  0  0
  189.7890  174.1160  143.8070 C   0  0  2  0  0  3  0  0  0  0  0  0
  186.6670  175.9190  142.6530 C   0  0  0  0  0  3  0  0  0  0  0  0
  189.6880  173.4530  138.7410 C   0  0  0  0  0  3  0  0  0  0  0  0
  188.7600  176.7850  143.5350 C   0  0  0  0  0  0  0  0  0  0  0  0
  188.1730  178.0490  143.6500 C   0  0  0  0  0  3  0  0  0  0  0  0
  190.4270  172.7550  143.5150 C   0  0  0  0  0  2  0  0  0  0  0  0
  190.0940  173.2170  141.1170 C   0  0  0  0  0  0  0  0  0  0  0  0
  190.4460  172.9350  139.7930 C   0  0  0  0  0  3  0  0  0  0  0  0
  191.9730  175.0570  144.5070 N   0  0  0  0  0  2  0  0  0  0  0  0
  192.7370  175.5530  142.2490 C   0  0  0  0  0  1  0  0  0  0  0  0
  193.1540  175.1430  143.6550 C   0  0  1  0  0  3  0  0  0  0  0  0
  196.6430  174.7130  144.6590 C   0  0  0  0  0  0  0  0  0  0  0  0
  195.3200  176.2970  143.4090 O   0  0  0  0  0  0  0  0  0  0  0  0
  193.4280  175.4080  146.6900 O   0  0  0  0  0  0  0  0  0  0  0  0
  197.8470  174.1510  144.6520 C   0  0  0  0  0  2  0  0  0  0  0  0
  195.9950  175.0550  143.3480 C   0  0  0  0  0  2  0  0  0  0  0  0
  194.6440  175.9530  145.9560 S   0  0  2  0  0  0  0  0  0  0  0  0
  194.1590  176.1740  144.2120 C   0  0  2  0  0  3  0  0  0  0  0  0
  195.7790  174.5600  145.8670 C   0  0  0  0  0  2  0  0  0  0  0  0
  1  6  1  0  0  0  0
  2  3  1  6  0  0  0
  2  5  1  0  0  0  0
  2 13  1  0  0  0  0
  4  7  1  0  0  0  0
  5 16  2  0  0  0  0
  6 17  2  0  0  0  0
  7  3  2  0  0  0  0
  8 13  1  0  0  0  0
  8 12  1  0  0  0  0
  8 21  1  1  0  0  0
  9  1  1  0  0  0  0
 10 18  1  0  0  0  0
 11  4  1  0  0  0  0
 13 18  1  6  0  0  0
 14  1  2  0  0  0  0
 14  5  1  0  0  0  0
 15  4  2  0  0  0  0
 15 20  1  0  0  0  0
 16 17  1  0  0  0  0
 16 12  1  0  0  0  0
 19  3  1  0  0  0  0
 19 10  1  0  0  0  0
 20 19  2  0  0  0  0
 23 22  1  6  0  0  0
 23 21  1  0  0  0  0
 24 31  1  0  0  0  0
 25 30  1  0  0  0  0
 27 24  2  0  0  0  0
 28 25  1  0  0  0  0
 28 24  1  0  0  0  0
 29 26  2  1  0  0  0
 30 23  1  6  0  0  0
 30 29  1  0  0  0  0
 31 29  1  0  0  0  0
M  END
>  <MODEL>
5

>  <REMARK>
 VINA RESULT:      -7.9      3.378      7.697
  Name = 
  3 active torsions:
  status: ('A' for Active; 'I' for Inactive)
    1  A    between atoms: C_5  and  N_16
    2  A    between atoms: C_5  and  C_30
    3  A    between atoms: C_10  and  N_16
                            x       y       z     vdW  Elec       q    Type
                         _______ _______ _______ _____ _____    ______ ____

>  <TORSDO>
F 3

$$$$
=
 OpenBabel11112416503D

 31 35  0  0  1  0  0  0  0  0999 V2000
  185.7370  178.0700  147.3760 C   0  0  0  0  0  0  0  0  0  0  0  0
  187.9090  175.6540  145.4020 C   0  0  2  0  0  3  0  0  0  0  0  0
  187.7930  176.0570  143.9380 C   0  0  0  0  0  0  0  0  0  0  0  0
  186.6550  177.2480  142.1460 C   0  0  0  0  0  0  0  0  0  0  0  0
  187.5040  176.7570  146.3510 C   0  0  0  0  0  0  0  0  0  0  0  0
  186.6920  178.8650  148.0130 C   0  0  0  0  0  3  0  0  0  0  0  0
  186.7680  176.9100  143.4970 C   0  0  0  0  0  3  0  0  0  0  0  0
  190.3140  176.2870  145.8140 C   0  0  2  0  0  3  0  0  0  0  0  0
  184.3850  178.3250  147.5600 O   0  0  0  0  0  1  0  0  0  0  0  0
  189.6850  174.6250  143.3870 O   0  0  0  0  0  0  0  0  0  0  0  0
  185.3830  178.3250  141.6180 Cl  0  0  0  0  0  0  0  0  0  0  0  0
  189.9350  177.2400  146.9450 C   0  0  0  0  0  2  0  0  0  0  0  0
  189.3150  175.1210  145.7410 C   0  0  2  0  0  3  0  0  0  0  0  0
  186.1420  177.0200  146.5490 C   0  0  0  0  0  3  0  0  0  0  0  0
  187.5590  176.7250  141.2180 C   0  0  0  0  0  3  0  0  0  0  0  0
  188.4690  177.5610  146.9990 C   0  0  0  0  0  0  0  0  0  0  0  0
  188.0510  178.6040  147.8320 C   0  0  0  0  0  3  0  0  0  0  0  0
  189.7170  174.0720  144.7010 C   0  0  0  0  0  2  0  0  0  0  0  0
  188.6780  175.5080  142.9880 C   0  0  0  0  0  0  0  0  0  0  0  0
  188.5670  175.8560  141.6380 C   0  0  0  0  0  3  0  0  0  0  0  0
  191.6760  175.8150  146.0410 N   0  0  0  0  0  2  0  0  0  0  0  0
  192.0980  177.3870  144.2310 C   0  0  0  0  0  1  0  0  0  0  0  0
  192.4450  176.0260  144.8190 C   0  0  1  0  0  3  0  0  0  0  0  0
  195.1650  174.6840  142.7800 C   0  0  0  0  0  0  0  0  0  0  0  0
  194.7310  176.6380  144.1270 O   0  0  0  0  0  0  0  0  0  0  0  0
  193.5760  173.4870  146.0940 O   0  0  0  0  0  0  0  0  0  0  0  0
  195.7770  174.3280  141.6550 C   0  0  0  0  0  2  0  0  0  0  0  0
  194.5270  176.0410  142.8610 C   0  0  0  0  0  2  0  0  0  0  0  0
  194.6510  174.3000  145.3880 S   0  0  2  0  0  0  0  0  0  0  0  0
  193.9600  175.9640  145.1060 C   0  0  2  0  0  3  0  0  0  0  0  0
  194.7100  173.6200  143.7240 C   0  0  0  0  0  2  0  0  0  0  0  0
  1  9  1  0  0  0  0
  1  6  1  0  0  0  0
  2  3  1  6  0  0  0
  2 13  1  0  0  0  0
  2  5  1  0  0  0  0
  4  7  2  0  0  0  0
  5 14  1  0  0  0  0
  5 16  2  0  0  0  0
  7  3  1  0  0  0  0
  8 21  1  1  0  0  0
  8 12  1  0  0  0  0
 10 18  1  0  0  0  0
 11  4  1  0  0  0  0
 12 16  1  0  0  0  0
 13 18  1  6  0  0  0
 13  8  1  0  0  0  0
 14  1  2  0  0  0  0
 15 20  2  0  0  0  0
 15  4  1  0  0  0  0
 16 17  1  0  0  0  0
 17  6  2  0  0  0  0
 19 10  1  0  0  0  0
 19  3  2  0  0  0  0
 20 19  1  0  0  0  0
 23 22  1  1  0  0  0
 23 21  1  0  0  0  0
 24 28  1  0  0  0  0
 24 31  1  0  0  0  0
 25 30  1  0  0  0  0
 27 24  2  0  0  0  0
 28 25  1  0  0  0  0
 29 26  2  1  0  0  0
 30 23  1  6  0  0  0
 30 29  1  0  0  0  0
 31 29  1  0  0  0  0
M  END
>  <MODEL>
6

>  <REMARK>
 VINA RESULT:      -7.9      3.606      7.652
  Name = 
  3 active torsions:
  status: ('A' for Active; 'I' for Inactive)
    1  A    between atoms: C_5  and  N_16
    2  A    between atoms: C_5  and  C_30
    3  A    between atoms: C_10  and  N_16
                            x       y       z     vdW  Elec       q    Type
                         _______ _______ _______ _____ _____    ______ ____

>  <TORSDO>
F 3

$$$$
=
 OpenBabel11112416503D

 31 35  0  0  1  0  0  0  0  0999 V2000
  185.9010  178.4930  146.9250 C   0  0  0  0  0  0  0  0  0  0  0  0
  188.5510  177.9950  144.2440 C   0  0  2  0  0  3  0  0  0  0  0  0
  189.7740  177.4170  144.9410 C   0  0  0  0  0  0  0  0  0  0  0  0
  191.0510  176.9590  146.9620 C   0  0  0  0  0  0  0  0  0  0  0  0
  187.2800  177.8200  145.0420 C   0  0  0  0  0  0  0  0  0  0  0  0
  184.9950  177.4710  146.6310 C   0  0  0  0  0  3  0  0  0  0  0  0
  189.9080  177.4660  146.3380 C   0  0  0  0  0  3  0  0  0  0  0  0
  187.8730  175.9910  142.8720 C   0  0  2  0  0  3  0  0  0  0  0  0
  185.6750  179.3330  148.0060 O   0  0  0  0  0  1  0  0  0  0  0  0
  190.7500  176.8610  142.7790 O   0  0  0  0  0  0  0  0  0  0  0  0
  191.1910  177.0140  148.7040 Cl  0  0  0  0  0  0  0  0  0  0  0  0
  186.4860  175.9450  143.5090 C   0  0  0  0  0  2  0  0  0  0  0  0
  188.3870  177.4390  142.8150 C   0  0  2  0  0  3  0  0  0  0  0  0
  187.0380  178.6660  146.1330 C   0  0  0  0  0  3  0  0  0  0  0  0
  192.0790  176.4080  146.1940 C   0  0  0  0  0  3  0  0  0  0  0  0
  186.3610  176.7890  144.7450 C   0  0  0  0  0  0  0  0  0  0  0  0
  185.2200  176.6300  145.5400 C   0  0  0  0  0  3  0  0  0  0  0  0
  189.7230  177.5560  142.0770 C   0  0  0  0  0  2  0  0  0  0  0  0
  190.8340  176.8900  144.1730 C   0  0  0  0  0  0  0  0  0  0  0  0
  191.9720  176.3750  144.8030 C   0  0  0  0  0  3  0  0  0  0  0  0
  187.7930  175.3960  141.5420 N   0  0  0  0  0  2  0  0  0  0  0  0
  189.1520  173.8460  142.8360 C   0  0  0  0  0  1  0  0  0  0  0  0
  188.8110  174.3560  141.4420 C   0  0  1  0  0  3  0  0  0  0  0  0
  190.6080  172.3150  139.0000 C   0  0  0  0  0  0  0  0  0  0  0  0
  189.0390  171.9850  140.8020 O   0  0  0  0  0  0  0  0  0  0  0  0
  187.8160  174.9610  138.6140 O   0  0  0  0  0  0  0  0  0  0  0  0
  191.6700  171.7400  138.4460 C   0  0  0  0  0  2  0  0  0  0  0  0
  190.4020  172.1850  140.4810 C   0  0  0  0  0  2  0  0  0  0  0  0
  188.2070  173.5000  138.7830 S   0  0  2  0  0  0  0  0  0  0  0  0
  188.3120  173.1800  140.5750 C   0  0  2  0  0  3  0  0  0  0  0  0
  189.9330  173.4340  138.2770 C   0  0  0  0  0  2  0  0  0  0  0  0
  1  9  1  0  0  0  0
  2  3  1  1  0  0  0
  2  5  1  0  0  0  0
  3  7  1  0  0  0  0
  4 11  1  0  0  0  0
  5 14  1  0  0  0  0
  6  1  1  0  0  0  0
  7  4  2  0  0  0  0
  8 21  1  6  0  0  0
  8 12  1  0  0  0  0
 10 19  1  0  0  0  0
 12 16  1  0  0  0  0
 13 18  1  1  0  0  0
 13  8  1  0  0  0  0
 13  2  1  0  0  0  0
 14  1  2  0  0  0  0
 15  4  1  0  0  0  0
 16  5  2  0  0  0  0
 16 17  1  0  0  0  0
 17  6  2  0  0  0  0
 18 10  1  0  0  0  0
 19 20  1  0  0  0  0
 19  3  2  0  0  0  0
 20 15  2  0  0  0  0
 23 21  1  0  0  0  0
 23 22  1  1  0  0  0
 24 28  1  0  0  0  0
 27 24  2  0  0  0  0
 28 25  1  0  0  0  0
 29 26  2  1  0  0  0
 29 30  1  0  0  0  0
 30 25  1  0  0  0  0
 30 23  1  1  0  0  0
 31 29  1  0  0  0  0
 31 24  1  0  0  0  0
M  END
>  <MODEL>
7

>  <REMARK>
 VINA RESULT:      -7.8      2.969      6.273
  Name = 
  3 active torsions:
  status: ('A' for Active; 'I' for Inactive)
    1  A    between atoms: C_5  and  N_16
    2  A    between atoms: C_5  and  C_30
    3  A    between atoms: C_10  and  N_16
                            x       y       z     vdW  Elec       q    Type
                         _______ _______ _______ _____ _____    ______ ____

>  <TORSDO>
F 3

$$$$
=
 OpenBabel11112416503D

 31 35  0  0  1  0  0  0  0  0999 V2000
  187.0490  177.4750  140.9520 C   0  0  0  0  0  0  0  0  0  0  0  0
  188.7570  177.7570  144.3370 C   0  0  2  0  0  3  0  0  0  0  0  0
  187.6510  177.8640  145.3770 C   0  0  0  0  0  0  0  0  0  0  0  0
  185.3320  178.2980  145.9760 C   0  0  0  0  0  0  0  0  0  0  0  0
  188.2790  177.1800  143.0260 C   0  0  0  0  0  0  0  0  0  0  0  0
  187.2670  176.1350  140.6270 C   0  0  0  0  0  3  0  0  0  0  0  0
  186.3320  178.1730  145.0080 C   0  0  0  0  0  3  0  0  0  0  0  0
  189.6550  175.4760  144.9240 C   0  0  2  0  0  3  0  0  0  0  0  0
  186.3280  178.2910  140.0910 O   0  0  0  0  0  1  0  0  0  0  0  0
  189.2710  177.4610  147.1510 O   0  0  0  0  0  0  0  0  0  0  0  0
  183.6910  178.6660  145.4960 Cl  0  0  0  0  0  0  0  0  0  0  0  0
  189.3910  174.9410  143.5190 C   0  0  0  0  0  2  0  0  0  0  0  0
  189.9760  176.9780  144.8720 C   0  0  2  0  0  3  0  0  0  0  0  0
  187.5540  177.9950  142.1460 C   0  0  0  0  0  3  0  0  0  0  0  0
  185.6440  178.1290  147.3270 C   0  0  0  0  0  3  0  0  0  0  0  0
  188.5010  175.8240  142.6930 C   0  0  0  0  0  0  0  0  0  0  0  0
  187.9980  175.3170  141.4900 C   0  0  0  0  0  3  0  0  0  0  0  0
  190.3660  177.5400  146.2410 C   0  0  0  0  0  2  0  0  0  0  0  0
  187.9610  177.7300  146.7470 C   0  0  0  0  0  0  0  0  0  0  0  0
  186.9560  177.8470  147.7120 C   0  0  0  0  0  3  0  0  0  0  0  0
  190.7510  174.7130  145.5130 N   0  0  0  0  0  2  0  0  0  0  0  0
  192.8450  175.4940  144.5460 C   0  0  0  0  0  1  0  0  0  0  0  0
  191.7380  174.4500  144.4720 C   0  0  1  0  0  3  0  0  0  0  0  0
  192.5750  171.9420  141.9470 C   0  0  0  0  0  0  0  0  0  0  0  0
  193.5690  172.8880  143.9310 O   0  0  0  0  0  0  0  0  0  0  0  0
  189.8420  172.0590  144.6790 O   0  0  0  0  0  0  0  0  0  0  0  0
  192.9130  171.5010  140.7400 C   0  0  0  0  0  2  0  0  0  0  0  0
  193.3490  173.0810  142.5480 C   0  0  0  0  0  2  0  0  0  0  0  0
  191.2450  171.6420  144.2620 S   0  0  2  0  0  0  0  0  0  0  0  0
  192.3510  173.0420  144.6380 C   0  0  2  0  0  3  0  0  0  0  0  0
  191.2030  171.6560  142.4630 C   0  0  0  0  0  2  0  0  0  0  0  0
  1 14  1  0  0  0  0
  2  5  1  6  0  0  0
  2 13  1  0  0  0  0
  2  3  1  0  0  0  0
  3 19  1  0  0  0  0
  4 15  2  0  0  0  0
  6  1  2  0  0  0  0
  6 17  1  0  0  0  0
  7  3  2  0  0  0  0
  7  4  1  0  0  0  0
  8 21  1  6  0  0  0
  9  1  1  0  0  0  0
 11  4  1  0  0  0  0
 12  8  1  0  0  0  0
 13  8  1  0  0  0  0
 13 18  1  1  0  0  0
 14  5  2  0  0  0  0
 15 20  1  0  0  0  0
 16  5  1  0  0  0  0
 16 12  1  0  0  0  0
 17 16  2  0  0  0  0
 18 10  1  0  0  0  0
 19 10  1  0  0  0  0
 19 20  2  0  0  0  0
 23 22  1  1  0  0  0
 23 21  1  0  0  0  0
 24 31  1  0  0  0  0
 24 28  1  0  0  0  0
 25 30  1  0  0  0  0
 27 24  2  0  0  0  0
 28 25  1  0  0  0  0
 29 30  1  0  0  0  0
 29 26  2  1  0  0  0
 30 23  1  6  0  0  0
 31 29  1  0  0  0  0
M  END
>  <MODEL>
8

>  <REMARK>
 VINA RESULT:      -7.7      3.492      7.049
  Name = 
  3 active torsions:
  status: ('A' for Active; 'I' for Inactive)
    1  A    between atoms: C_5  and  N_16
    2  A    between atoms: C_5  and  C_30
    3  A    between atoms: C_10  and  N_16
                            x       y       z     vdW  Elec       q    Type
                         _______ _______ _______ _____ _____    ______ ____

>  <TORSDO>
F 3

$$$$
=
 OpenBabel11112416503D

 31 35  0  0  1  0  0  0  0  0999 V2000
  187.5090  177.3910  141.3530 C   0  0  0  0  0  0  0  0  0  0  0  0
  188.7610  174.0760  142.7320 C   0  0  2  0  0  3  0  0  0  0  0  0
  189.3620  173.3140  141.5580 C   0  0  0  0  0  0  0  0  0  0  0  0
  189.6340  172.9670  139.1650 C   0  0  0  0  0  0  0  0  0  0  0  0
  188.6460  175.5600  142.4730 C   0  0  0  0  0  0  0  0  0  0  0  0
  188.4460  178.2910  141.8640 C   0  0  0  0  0  3  0  0  0  0  0  0
  189.1000  173.6940  140.2320 C   0  0  0  0  0  3  0  0  0  0  0  0
  190.8650  174.5450  144.0390 C   0  0  2  0  0  3  0  0  0  0  0  0
  186.4810  177.8450  140.5390 O   0  0  0  0  0  1  0  0  0  0  0  0
  190.3800  171.7290  143.1030 O   0  0  0  0  0  0  0  0  0  0  0  0
  189.3110  173.4660  137.5200 Cl  0  0  0  0  0  0  0  0  0  0  0  0
  190.6350  176.0540  143.9870 C   0  0  0  0  0  2  0  0  0  0  0  0
  189.5200  173.8010  144.0450 C   0  0  2  0  0  3  0  0  0  0  0  0
  187.6090  176.0310  141.6570 C   0  0  0  0  0  3  0  0  0  0  0  0
  190.4250  171.8430  139.4130 C   0  0  0  0  0  3  0  0  0  0  0  0
  189.5910  176.4730  142.9920 C   0  0  0  0  0  0  0  0  0  0  0  0
  189.4770  177.8340  142.6880 C   0  0  0  0  0  3  0  0  0  0  0  0
  189.6900  172.2890  144.2170 C   0  0  0  0  0  2  0  0  0  0  0  0
  190.1330  172.1570  141.7960 C   0  0  0  0  0  0  0  0  0  0  0  0
  190.6730  171.4380  140.7250 C   0  0  0  0  0  3  0  0  0  0  0  0
  191.6550  174.2360  145.2260 N   0  0  0  0  0  2  0  0  0  0  0  0
  192.5010  176.0920  146.5550 C   0  0  0  0  0  1  0  0  0  0  0  0
  192.7300  175.2170  145.3300 C   0  0  1  0  0  3  0  0  0  0  0  0
  195.9130  176.0100  143.7180 C   0  0  0  0  0  0  0  0  0  0  0  0
  195.1210  175.3880  145.9100 O   0  0  0  0  0  0  0  0  0  0  0  0
  193.4450  173.0680  143.2750 O   0  0  0  0  0  0  0  0  0  0  0  0
  196.8190  176.7900  143.1370 C   0  0  0  0  0  2  0  0  0  0  0  0
  195.2820  176.4620  145.0030 C   0  0  0  0  0  2  0  0  0  0  0  0
  194.6790  173.6370  143.9610 S   0  0  2  0  0  0  0  0  0  0  0  0
  194.1020  174.5190  145.4490 C   0  0  2  0  0  3  0  0  0  0  0  0
  195.2060  174.9850  142.8930 C   0  0  0  0  0  2  0  0  0  0  0  0
  1 14  2  0  0  0  0
  1  6  1  0  0  0  0
  2  3  1  6  0  0  0
  2 13  1  0  0  0  0
  3 19  1  0  0  0  0
  4 15  2  0  0  0  0
  4  7  1  0  0  0  0
  5  2  1  0  0  0  0
  5 16  2  0  0  0  0
  6 17  2  0  0  0  0
  7  3  2  0  0  0  0
  8 13  1  0  0  0  0
  8 21  1  1  0  0  0
  9  1  1  0  0  0  0
 10 18  1  0  0  0  0
 11  4  1  0  0  0  0
 12  8  1  0  0  0  0
 13 18  1  6  0  0  0
 14  5  1  0  0  0  0
 15 20  1  0  0  0  0
 16 12  1  0  0  0  0
 17 16  1  0  0  0  0
 19 10  1  0  0  0  0
 20 19  2  0  0  0  0
 21 23  1  0  0  0  0
 23 22  1  1  0  0  0
 24 28  1  0  0  0  0
 27 24  2  0  0  0  0
 28 25  1  0  0  0  0
 29 26  2  6  0  0  0
 29 30  1  0  0  0  0
 30 23  1  6  0  0  0
 30 25  1  0  0  0  0
 31 24  1  0  0  0  0
 31 29  1  0  0  0  0
M  END
>  <MODEL>
9

>  <REMARK>
 VINA RESULT:      -7.4      3.352      7.247
  Name = 
  3 active torsions:
  status: ('A' for Active; 'I' for Inactive)
    1  A    between atoms: C_5  and  N_16
    2  A    between atoms: C_5  and  C_30
    3  A    between atoms: C_10  and  N_16
                            x       y       z     vdW  Elec       q    Type
                         _______ _______ _______ _____ _____    ______ ____

>  <TORSDO>
F 3

$$$$
