=
 OpenBabel11112416173D

 30 34  0  0  1  0  0  0  0  0999 V2000
  187.8120  176.6130  144.6860 C   0  0  0  0  0  0  0  0  0  0  0  0
  186.2900  178.2790  145.9230 C   0  0  0  0  0  0  0  0  0  0  0  0
  186.1900  177.7280  140.9790 N   0  0  0  0  0  2  0  0  0  0  0  0
  188.2780  176.0520  143.4580 C   0  0  0  0  0  0  0  0  0  0  0  0
  188.3250  176.1170  145.8860 C   0  0  0  0  0  3  0  0  0  0  0  0
  190.5870  173.4380  144.7640 O   0  0  0  0  0  1  0  0  0  0  0  0
  188.9020  173.9730  141.0390 C   0  0  2  0  0  3  0  0  0  0  0  0
  189.6950  174.5060  144.7100 C   0  0  0  0  0  0  0  0  0  0  0  0
  187.6800  174.6720  140.9080 O   0  0  0  0  0  0  0  0  0  0  0  0
  186.9060  176.8080  140.1610 C   0  0  0  0  0  0  0  0  0  0  0  0
  189.2500  175.0790  145.9080 C   0  0  0  0  0  0  0  0  0  0  0  0
  189.2340  174.9950  143.4650 C   0  0  0  0  0  0  0  0  0  0  0  0
  185.5240  179.5680  145.8380 C   0  0  0  0  0  2  0  0  0  0  0  0
  186.4900  177.7730  147.0590 O   0  0  0  0  0  0  0  0  0  0  0  0
  186.7470  177.5170  142.2690 C   0  0  0  0  0  0  0  0  0  0  0  0
  184.8260  179.7420  144.5190 C   0  0  0  0  0  3  0  0  0  0  0  0
  186.8300  177.6510  144.6820 C   0  0  0  0  0  0  0  0  0  0  0  0
  187.7410  176.5650  142.2690 C   0  0  0  0  0  0  0  0  0  0  0  0
  186.6770  176.6790  138.9300 O   0  0  0  0  0  0  0  0  0  0  0  0
  187.9600  176.0460  140.8960 C   0  0  1  0  0  3  0  0  0  0  0  0
  191.1110  174.2150  142.1140 C   0  0  0  0  0  2  0  0  0  0  0  0
  185.2050  179.0890  143.4200 C   0  0  0  0  0  3  0  0  0  0  0  0
  186.2910  178.0930  143.4510 C   0  0  0  0  0  0  0  0  0  0  0  0
  189.7980  174.4350  142.1930 C   0  0  0  0  0  0  0  0  0  0  0  0
  189.6210  173.8740  139.6890 C   0  0  0  0  0  2  0  0  0  0  0  0
  188.5670  174.1150  137.4640 C   0  0  0  0  0  1  0  0  0  0  0  0
  188.7250  173.2060  138.6640 C   0  0  0  0  0  2  0  0  0  0  0  0
  189.7320  174.5700  147.2310 C   0  0  0  0  0  2  0  0  0  0  0  0
  192.1240  175.2920  147.1850 C   0  0  0  0  0  1  0  0  0  0  0  0
  190.7700  175.5050  147.8350 C   0  0  0  0  0  2  0  0  0  0  0  0
  1  5  2  0  0  0  0
  2 14  2  0  0  0  0
  3 15  1  0  0  0  0
  4 12  2  0  0  0  0
  4  1  1  0  0  0  0
  5 11  1  0  0  0  0
  7 25  1  6  0  0  0
  7 24  1  0  0  0  0
  8  6  1  0  0  0  0
  8 11  2  0  0  0  0
  9  7  1  0  0  0  0
 10  3  1  0  0  0  0
 11 28  1  0  0  0  0
 12  8  1  0  0  0  0
 13  2  1  0  0  0  0
 15 18  2  0  0  0  0
 15 23  1  0  0  0  0
 16 13  1  0  0  0  0
 17  1  1  0  0  0  0
 17  2  1  0  0  0  0
 18  4  1  0  0  0  0
 19 10  2  0  0  0  0
 20 10  1  6  0  0  0
 20  9  1  0  0  0  0
 20 18  1  0  0  0  0
 21 24  2  0  0  0  0
 22 23  1  0  0  0  0
 22 16  2  0  0  0  0
 23 17  2  0  0  0  0
 24 12  1  0  0  0  0
 26 27  1  0  0  0  0
 27 25  1  0  0  0  0
 28 30  1  0  0  0  0
 29 30  1  0  0  0  0
M  END
>  <MODEL>
1

>  <REMARK>
 VINA RESULT:      -8.1      0.000      0.000
  Name = 
  4 active torsions:
  status: ('A' for Active; 'I' for Inactive)
    1  A    between atoms: C_7  and  C_15
    2  A    between atoms: C_11  and  C_28
    3  A    between atoms: C_15  and  C_23
    4  A    between atoms: C_28  and  C_30
                            x       y       z     vdW  Elec       q    Type
                         _______ _______ _______ _____ _____    ______ ____

>  <TORSDO>
F 4

$$$$
=
 OpenBabel11112416173D

 30 34  0  0  1  0  0  0  0  0999 V2000
  186.2650  177.2860  143.7050 C   0  0  0  0  0  0  0  0  0  0  0  0
  184.6910  178.5000  145.3400 C   0  0  0  0  0  0  0  0  0  0  0  0
  188.8090  176.1470  146.8420 N   0  0  0  0  0  2  0  0  0  0  0  0
  187.4240  176.4820  143.4840 C   0  0  0  0  0  0  0  0  0  0  0  0
  185.5260  177.7160  142.6000 C   0  0  0  0  0  3  0  0  0  0  0  0
  187.4420  176.3680  139.7610 O   0  0  0  0  0  1  0  0  0  0  0  0
  190.3640  175.4770  142.5300 C   0  0  2  0  0  3  0  0  0  0  0  0
  187.0570  176.6310  141.0730 C   0  0  0  0  0  0  0  0  0  0  0  0
  190.3410  176.0860  143.8070 O   0  0  0  0  0  0  0  0  0  0  0  0
  189.8110  175.4990  146.0650 C   0  0  0  0  0  0  0  0  0  0  0  0
  185.9090  177.4000  141.3020 C   0  0  0  0  0  0  0  0  0  0  0  0
  187.8230  176.1420  142.1590 C   0  0  0  0  0  0  0  0  0  0  0  0
  184.1650  178.5690  146.7450 C   0  0  0  0  0  2  0  0  0  0  0  0
  184.0830  179.1370  144.4400 O   0  0  0  0  0  0  0  0  0  0  0  0
  187.8190  176.4840  145.8810 C   0  0  0  0  0  0  0  0  0  0  0  0
  185.2340  178.3370  147.7750 C   0  0  0  0  0  3  0  0  0  0  0  0
  185.8820  177.6560  145.0310 C   0  0  0  0  0  0  0  0  0  0  0  0
  188.1510  176.0720  144.6100 C   0  0  0  0  0  0  0  0  0  0  0  0
  190.8810  175.0660  146.5660 O   0  0  0  0  0  0  0  0  0  0  0  0
  189.4540  175.3640  144.6190 C   0  0  1  0  0  3  0  0  0  0  0  0
  188.8640  174.2730  140.9830 C   0  0  0  0  0  2  0  0  0  0  0  0
  186.3720  177.7000  147.4930 C   0  0  0  0  0  3  0  0  0  0  0  0
  186.6840  177.2520  146.1250 C   0  0  0  0  0  0  0  0  0  0  0  0
  188.9910  175.2380  141.8950 C   0  0  0  0  0  0  0  0  0  0  0  0
  191.2770  174.2460  142.5310 C   0  0  0  0  0  2  0  0  0  0  0  0
  193.0460  173.6720  144.1620 C   0  0  0  0  0  1  0  0  0  0  0  0
  192.6570  174.6130  143.0430 C   0  0  0  0  0  2  0  0  0  0  0  0
  185.0920  177.9210  140.1610 C   0  0  0  0  0  2  0  0  0  0  0  0
  182.5980  177.8310  140.2800 C   0  0  0  0  0  1  0  0  0  0  0  0
  183.8360  178.6220  140.6590 C   0  0  0  0  0  2  0  0  0  0  0  0
  1 17  1  0  0  0  0
  2 13  1  0  0  0  0
  4  1  2  0  0  0  0
  4 18  1  0  0  0  0
  5  1  1  0  0  0  0
  6  8  1  0  0  0  0
  7 25  1  1  0  0  0
  7  9  1  0  0  0  0
  8 11  1  0  0  0  0
  8 12  2  0  0  0  0
 10 19  2  0  0  0  0
 10  3  1  0  0  0  0
 11  5  2  0  0  0  0
 12  4  1  0  0  0  0
 13 16  1  0  0  0  0
 14  2  2  0  0  0  0
 15 23  1  0  0  0  0
 15  3  1  0  0  0  0
 17  2  1  0  0  0  0
 17 23  2  0  0  0  0
 18 20  1  0  0  0  0
 18 15  2  0  0  0  0
 20  9  1  6  0  0  0
 20 10  1  0  0  0  0
 21 24  2  0  0  0  0
 22 16  2  0  0  0  0
 23 22  1  0  0  0  0
 24 12  1  0  0  0  0
 24  7  1  0  0  0  0
 25 27  1  0  0  0  0
 27 26  1  0  0  0  0
 28 30  1  0  0  0  0
 28 11  1  0  0  0  0
 29 30  1  0  0  0  0
M  END
>  <MODEL>
2

>  <REMARK>
 VINA RESULT:      -8.0      2.193      5.435
  Name = 
  4 active torsions:
  status: ('A' for Active; 'I' for Inactive)
    1  A    between atoms: C_7  and  C_15
    2  A    between atoms: C_11  and  C_28
    3  A    between atoms: C_15  and  C_23
    4  A    between atoms: C_28  and  C_30
                            x       y       z     vdW  Elec       q    Type
                         _______ _______ _______ _____ _____    ______ ____

>  <TORSDO>
F 4

$$$$
=
 OpenBabel11112416173D

 30 34  0  0  1  0  0  0  0  0999 V2000
  189.5680  175.4890  143.9100 C   0  0  0  0  0  0  0  0  0  0  0  0
  191.3150  174.6800  145.6190 C   0  0  0  0  0  0  0  0  0  0  0  0
  187.6430  177.8120  146.8270 N   0  0  0  0  0  2  0  0  0  0  0  0
  188.4380  176.3050  143.6010 C   0  0  0  0  0  0  0  0  0  0  0  0
  190.0900  174.6610  142.9130 C   0  0  0  0  0  3  0  0  0  0  0  0
  187.8170  175.2600  140.0800 O   0  0  0  0  0  1  0  0  0  0  0  0
  185.4450  177.2750  142.7840 C   0  0  2  0  0  3  0  0  0  0  0  0
  188.3960  175.3770  141.3420 C   0  0  0  0  0  0  0  0  0  0  0  0
  185.6420  177.0930  144.1730 O   0  0  0  0  0  0  0  0  0  0  0  0
  186.5660  178.2910  146.0260 C   0  0  0  0  0  0  0  0  0  0  0  0
  189.5190  174.5990  141.6480 C   0  0  0  0  0  0  0  0  0  0  0  0
  187.8480  176.2590  142.3050 C   0  0  0  0  0  0  0  0  0  0  0  0
  192.0580  174.9940  146.8850 C   0  0  0  0  0  2  0  0  0  0  0  0
  191.7290  173.7340  144.8980 O   0  0  0  0  0  0  0  0  0  0  0  0
  188.4410  177.0890  145.9010 C   0  0  0  0  0  0  0  0  0  0  0  0
  191.1880  175.6480  147.9200 C   0  0  0  0  0  3  0  0  0  0  0  0
  190.1410  175.5100  145.2190 C   0  0  0  0  0  0  0  0  0  0  0  0
  187.9300  177.1200  144.6220 C   0  0  0  0  0  0  0  0  0  0  0  0
  185.6200  178.9700  146.5010 O   0  0  0  0  0  0  0  0  0  0  0  0
  186.6900  177.9320  144.5800 C   0  0  1  0  0  3  0  0  0  0  0  0
  186.7400  177.7710  140.7420 C   0  0  0  0  0  2  0  0  0  0  0  0
  190.0590  176.2840  147.6060 C   0  0  0  0  0  3  0  0  0  0  0  0
  189.5540  176.3170  146.2220 C   0  0  0  0  0  0  0  0  0  0  0  0
  186.7070  177.1560  141.9250 C   0  0  0  0  0  0  0  0  0  0  0  0
  184.6180  178.5370  142.5120 C   0  0  0  0  0  2  0  0  0  0  0  0
  183.1690  178.2900  140.5230 C   0  0  0  0  0  1  0  0  0  0  0  0
  183.2300  178.1630  142.0300 C   0  0  0  0  0  2  0  0  0  0  0  0
  190.1070  173.6650  140.6360 C   0  0  0  0  0  2  0  0  0  0  0  0
  190.6680  171.2710  140.1920 C   0  0  0  0  0  1  0  0  0  0  0  0
  189.7630  172.2180  140.9580 C   0  0  0  0  0  2  0  0  0  0  0  0
  1 17  1  0  0  0  0
  2 13  1  0  0  0  0
  4  1  2  0  0  0  0
  4 18  1  0  0  0  0
  5  1  1  0  0  0  0
  6  8  1  0  0  0  0
  7 25  1  1  0  0  0
  7  9  1  0  0  0  0
  8 11  1  0  0  0  0
  8 12  2  0  0  0  0
 10 19  2  0  0  0  0
 10  3  1  0  0  0  0
 11  5  2  0  0  0  0
 12  4  1  0  0  0  0
 13 16  1  0  0  0  0
 14  2  2  0  0  0  0
 15 23  1  0  0  0  0
 15  3  1  0  0  0  0
 17  2  1  0  0  0  0
 17 23  2  0  0  0  0
 18 15  2  0  0  0  0
 20  9  1  1  0  0  0
 20 18  1  0  0  0  0
 20 10  1  0  0  0  0
 21 24  2  0  0  0  0
 22 16  2  0  0  0  0
 23 22  1  0  0  0  0
 24 12  1  0  0  0  0
 24  7  1  0  0  0  0
 26 27  1  0  0  0  0
 27 25  1  0  0  0  0
 28 30  1  0  0  0  0
 28 11  1  0  0  0  0
 29 30  1  0  0  0  0
M  END
>  <MODEL>
3

>  <REMARK>
 VINA RESULT:      -7.7      1.834      5.825
  Name = 
  4 active torsions:
  status: ('A' for Active; 'I' for Inactive)
    1  A    between atoms: C_7  and  C_15
    2  A    between atoms: C_11  and  C_28
    3  A    between atoms: C_15  and  C_23
    4  A    between atoms: C_28  and  C_30
                            x       y       z     vdW  Elec       q    Type
                         _______ _______ _______ _____ _____    ______ ____

>  <TORSDO>
F 4

$$$$
=
 OpenBabel11112416173D

 30 34  0  0  1  0  0  0  0  0999 V2000
  188.1070  176.0150  143.4130 C   0  0  0  0  0  0  0  0  0  0  0  0
  185.8690  177.2860  143.3840 C   0  0  0  0  0  0  0  0  0  0  0  0
  189.0380  177.5380  147.2110 N   0  0  0  0  0  2  0  0  0  0  0  0
  189.3020  175.6470  144.1020 C   0  0  0  0  0  0  0  0  0  0  0  0
  187.9160  175.5520  142.1090 C   0  0  0  0  0  3  0  0  0  0  0  0
  191.0140  173.6790  141.4430 O   0  0  0  0  0  1  0  0  0  0  0  0
  192.4270  175.3390  144.9430 C   0  0  2  0  0  3  0  0  0  0  0  0
  190.0560  174.4240  142.1270 C   0  0  0  0  0  0  0  0  0  0  0  0
  191.7780  176.4620  145.5070 O   0  0  0  0  0  0  0  0  0  0  0  0
  190.3340  176.9620  147.3480 C   0  0  0  0  0  0  0  0  0  0  0  0
  188.8700  174.7710  141.4680 C   0  0  0  0  0  0  0  0  0  0  0  0
  190.2840  174.8370  143.4610 C   0  0  0  0  0  0  0  0  0  0  0  0
  184.7610  177.8780  144.2060 C   0  0  0  0  0  2  0  0  0  0  0  0
  185.6850  177.1360  142.1470 O   0  0  0  0  0  0  0  0  0  0  0  0
  188.5670  176.9920  145.9880 C   0  0  0  0  0  0  0  0  0  0  0  0
  185.2620  178.5680  145.4430 C   0  0  0  0  0  3  0  0  0  0  0  0
  187.1350  176.8530  144.0430 C   0  0  0  0  0  0  0  0  0  0  0  0
  189.4710  176.1310  145.4070 C   0  0  0  0  0  0  0  0  0  0  0  0
  191.0920  177.2250  148.3170 O   0  0  0  0  0  0  0  0  0  0  0  0
  190.6820  176.0040  146.2540 C   0  0  1  0  0  3  0  0  0  0  0  0
  191.8950  173.1000  144.0500 C   0  0  0  0  0  2  0  0  0  0  0  0
  186.4520  178.2960  145.9800 C   0  0  0  0  0  3  0  0  0  0  0  0
  187.3860  177.3500  145.3440 C   0  0  0  0  0  0  0  0  0  0  0  0
  191.5150  174.3720  144.1810 C   0  0  0  0  0  0  0  0  0  0  0  0
  193.3380  174.6620  145.9730 C   0  0  0  0  0  2  0  0  0  0  0  0
  195.8050  174.6160  145.7960 C   0  0  0  0  0  1  0  0  0  0  0  0
  194.6090  175.4680  146.1620 C   0  0  0  0  0  2  0  0  0  0  0  0
  188.6180  174.3370  140.0570 C   0  0  0  0  0  2  0  0  0  0  0  0
  188.9100  172.1350  138.9140 C   0  0  0  0  0  1  0  0  0  0  0  0
  188.1640  172.8860  140.0000 C   0  0  0  0  0  2  0  0  0  0  0  0
  1 17  2  0  0  0  0
  1  4  1  0  0  0  0
  2 17  1  0  0  0  0
  2 13  1  0  0  0  0
  3 10  1  0  0  0  0
  4 18  2  0  0  0  0
  5  1  1  0  0  0  0
  6  8  1  0  0  0  0
  7  9  1  0  0  0  0
  7 25  1  1  0  0  0
  8 12  2  0  0  0  0
  9 20  1  0  0  0  0
 10 19  2  0  0  0  0
 11  5  2  0  0  0  0
 11  8  1  0  0  0  0
 12  4  1  0  0  0  0
 12 24  1  0  0  0  0
 13 16  1  0  0  0  0
 14  2  2  0  0  0  0
 15  3  1  0  0  0  0
 16 22  2  0  0  0  0
 17 23  1  0  0  0  0
 18 15  1  0  0  0  0
 20 18  1  6  0  0  0
 20 10  1  0  0  0  0
 21 24  2  0  0  0  0
 23 22  1  0  0  0  0
 23 15  2  0  0  0  0
 24  7  1  0  0  0  0
 25 27  1  0  0  0  0
 26 27  1  0  0  0  0
 28 11  1  0  0  0  0
 29 30  1  0  0  0  0
 30 28  1  0  0  0  0
M  END
>  <MODEL>
4

>  <REMARK>
 VINA RESULT:      -7.7      2.360      5.688
  Name = 
  4 active torsions:
  status: ('A' for Active; 'I' for Inactive)
    1  A    between atoms: C_7  and  C_15
    2  A    between atoms: C_11  and  C_28
    3  A    between atoms: C_15  and  C_23
    4  A    between atoms: C_28  and  C_30
                            x       y       z     vdW  Elec       q    Type
                         _______ _______ _______ _____ _____    ______ ____

>  <TORSDO>
F 4

$$$$
=
 OpenBabel11112416173D

 30 34  0  0  1  0  0  0  0  0999 V2000
  186.7540  176.5920  142.8980 C   0  0  0  0  0  0  0  0  0  0  0  0
  184.7390  177.7070  141.7500 C   0  0  0  0  0  0  0  0  0  0  0  0
  185.9060  178.5480  146.5130 N   0  0  0  0  0  2  0  0  0  0  0  0
  187.5310  176.3730  144.0750 C   0  0  0  0  0  0  0  0  0  0  0  0
  187.1600  175.9890  141.7050 C   0  0  0  0  0  3  0  0  0  0  0  0
  190.2620  174.2610  142.6770 O   0  0  0  0  0  1  0  0  0  0  0  0
  189.9750  176.3540  146.2180 C   0  0  2  0  0  3  0  0  0  0  0  0
  189.0920  175.0090  142.7830 C   0  0  0  0  0  0  0  0  0  0  0  0
  189.1290  177.4840  146.3070 O   0  0  0  0  0  0  0  0  0  0  0  0
  187.0180  178.0730  147.2650 C   0  0  0  0  0  0  0  0  0  0  0  0
  188.3100  175.2100  141.6390 C   0  0  0  0  0  0  0  0  0  0  0  0
  188.7060  175.5690  144.0250 C   0  0  0  0  0  0  0  0  0  0  0  0
  183.3740  178.3070  141.9330 C   0  0  0  0  0  2  0  0  0  0  0  0
  185.1170  177.4220  140.5830 O   0  0  0  0  0  0  0  0  0  0  0  0
  186.0260  177.8520  145.2810 C   0  0  0  0  0  0  0  0  0  0  0  0
  183.2730  179.1490  143.1730 C   0  0  0  0  0  3  0  0  0  0  0  0
  185.5940  177.4260  142.9390 C   0  0  0  0  0  0  0  0  0  0  0  0
  187.1050  176.9970  145.2560 C   0  0  0  0  0  0  0  0  0  0  0  0
  187.2710  178.4810  148.4280 O   0  0  0  0  0  0  0  0  0  0  0  0
  187.8240  177.0340  146.5530 C   0  0  1  0  0  3  0  0  0  0  0  0
  189.9200  174.0070  145.4560 C   0  0  0  0  0  2  0  0  0  0  0  0
  184.1110  179.0100  144.2010 C   0  0  0  0  0  3  0  0  0  0  0  0
  185.2420  178.0660  144.1510 C   0  0  0  0  0  0  0  0  0  0  0  0
  189.5030  175.2580  145.2570 C   0  0  0  0  0  0  0  0  0  0  0  0
  190.3520  175.8440  147.6130 C   0  0  0  0  0  2  0  0  0  0  0  0
  192.6690  176.3540  146.9120 C   0  0  0  0  0  1  0  0  0  0  0  0
  191.6770  176.4390  148.0520 C   0  0  0  0  0  2  0  0  0  0  0  0
  188.7080  174.6210  140.3210 C   0  0  0  0  0  2  0  0  0  0  0  0
  188.4880  172.6520  138.8000 C   0  0  0  0  0  1  0  0  0  0  0  0
  188.2470  173.1760  140.2030 C   0  0  0  0  0  2  0  0  0  0  0  0
  1 17  2  0  0  0  0
  1  4  1  0  0  0  0
  2 13  1  0  0  0  0
  2 17  1  0  0  0  0
  3 10  1  0  0  0  0
  4 18  2  0  0  0  0
  5  1  1  0  0  0  0
  6  8  1  0  0  0  0
  7  9  1  0  0  0  0
  7 25  1  1  0  0  0
  8 12  2  0  0  0  0
  9 20  1  0  0  0  0
 10 19  2  0  0  0  0
 11  5  2  0  0  0  0
 11  8  1  0  0  0  0
 12  4  1  0  0  0  0
 12 24  1  0  0  0  0
 13 16  1  0  0  0  0
 14  2  2  0  0  0  0
 15  3  1  0  0  0  0
 16 22  2  0  0  0  0
 17 23  1  0  0  0  0
 18 15  1  0  0  0  0
 20 18  1  6  0  0  0
 20 10  1  0  0  0  0
 23 22  1  0  0  0  0
 23 15  2  0  0  0  0
 24 21  2  0  0  0  0
 24  7  1  0  0  0  0
 25 27  1  0  0  0  0
 26 27  1  0  0  0  0
 28 11  1  0  0  0  0
 29 30  1  0  0  0  0
 30 28  1  0  0  0  0
M  END
>  <MODEL>
5

>  <REMARK>
 VINA RESULT:      -7.6      1.759      5.692
  Name = 
  4 active torsions:
  status: ('A' for Active; 'I' for Inactive)
    1  A    between atoms: C_7  and  C_15
    2  A    between atoms: C_11  and  C_28
    3  A    between atoms: C_15  and  C_23
    4  A    between atoms: C_28  and  C_30
                            x       y       z     vdW  Elec       q    Type
                         _______ _______ _______ _____ _____    ______ ____

>  <TORSDO>
F 4

$$$$
=
 OpenBabel11112416173D

 30 34  0  0  1  0  0  0  0  0999 V2000
  190.4700  174.7670  143.7220 C   0  0  0  0  0  0  0  0  0  0  0  0
  191.7220  173.3780  141.9540 C   0  0  0  0  0  0  0  0  0  0  0  0
  187.4590  175.7450  140.9670 N   0  0  0  0  0  2  0  0  0  0  0  0
  189.3380  175.5560  144.0890 C   0  0  0  0  0  0  0  0  0  0  0  0
  191.4840  174.5720  144.6620 C   0  0  0  0  0  3  0  0  0  0  0  0
  190.3180  176.5440  147.5440 O   0  0  0  0  0  1  0  0  0  0  0  0
  187.4560  178.0500  144.9860 C   0  0  2  0  0  3  0  0  0  0  0  0
  190.3290  175.9430  146.2870 C   0  0  0  0  0  0  0  0  0  0  0  0
  187.6100  177.9080  143.5870 O   0  0  0  0  0  0  0  0  0  0  0  0
  186.6910  176.6050  141.8030 C   0  0  0  0  0  0  0  0  0  0  0  0
  191.4240  175.1480  145.9260 C   0  0  0  0  0  0  0  0  0  0  0  0
  189.2580  176.1440  145.3840 C   0  0  0  0  0  0  0  0  0  0  0  0
  191.6060  172.5550  140.7030 C   0  0  0  0  0  2  0  0  0  0  0  0
  192.7940  173.3210  142.6120 O   0  0  0  0  0  0  0  0  0  0  0  0
  188.4650  175.2540  141.8410 C   0  0  0  0  0  0  0  0  0  0  0  0
  190.6330  173.1360  139.7160 C   0  0  0  0  0  3  0  0  0  0  0  0
  190.5680  174.2040  142.4120 C   0  0  0  0  0  0  0  0  0  0  0  0
  188.3390  175.7420  143.1230 C   0  0  0  0  0  0  0  0  0  0  0  0
  185.7030  177.2570  141.3770 O   0  0  0  0  0  0  0  0  0  0  0  0
  187.1570  176.6320  143.2240 C   0  0  1  0  0  3  0  0  0  0  0  0
  187.5550  176.6920  147.0450 C   0  0  0  0  0  2  0  0  0  0  0  0
  189.6700  173.9850  140.0780 C   0  0  0  0  0  3  0  0  0  0  0  0
  189.5500  174.4670  141.4650 C   0  0  0  0  0  0  0  0  0  0  0  0
  188.0500  176.9160  145.8270 C   0  0  0  0  0  0  0  0  0  0  0  0
  186.0070  178.4010  145.3410 C   0  0  0  0  0  2  0  0  0  0  0  0
  184.0900  179.0410  143.9150 C   0  0  0  0  0  1  0  0  0  0  0  0
  185.4690  179.4480  144.3850 C   0  0  0  0  0  2  0  0  0  0  0  0
  192.5620  174.9280  146.8740 C   0  0  0  0  0  2  0  0  0  0  0  0
  194.1900  176.7870  146.5100 C   0  0  0  0  0  1  0  0  0  0  0  0
  193.8890  175.3250  146.2440 C   0  0  0  0  0  2  0  0  0  0  0  0
  1  4  1  0  0  0  0
  1  5  2  0  0  0  0
  2 17  1  0  0  0  0
  2 14  2  0  0  0  0
  3 10  1  0  0  0  0
  3 15  1  0  0  0  0
  4 12  2  0  0  0  0
  5 11  1  0  0  0  0
  7 25  1  6  0  0  0
  7 24  1  0  0  0  0
  8  6  1  0  0  0  0
  9  7  1  0  0  0  0
 11  8  2  0  0  0  0
 11 28  1  0  0  0  0
 12 24  1  0  0  0  0
 12  8  1  0  0  0  0
 13  2  1  0  0  0  0
 15 18  2  0  0  0  0
 16 22  2  0  0  0  0
 16 13  1  0  0  0  0
 17  1  1  0  0  0  0
 18 20  1  0  0  0  0
 18  4  1  0  0  0  0
 19 10  2  0  0  0  0
 20 10  1  6  0  0  0
 20  9  1  0  0  0  0
 22 23  1  0  0  0  0
 23 15  1  0  0  0  0
 23 17  2  0  0  0  0
 24 21  2  0  0  0  0
 26 27  1  0  0  0  0
 27 25  1  0  0  0  0
 30 29  1  0  0  0  0
 30 28  1  0  0  0  0
M  END
>  <MODEL>
6

>  <REMARK>
 VINA RESULT:      -7.6      1.764      5.619
  Name = 
  4 active torsions:
  status: ('A' for Active; 'I' for Inactive)
    1  A    between atoms: C_7  and  C_15
    2  A    between atoms: C_11  and  C_28
    3  A    between atoms: C_15  and  C_23
    4  A    between atoms: C_28  and  C_30
                            x       y       z     vdW  Elec       q    Type
                         _______ _______ _______ _____ _____    ______ ____

>  <TORSDO>
F 4

$$$$
=
 OpenBabel11112416173D

 30 34  0  0  1  0  0  0  0  0999 V2000
  188.6350  176.8920  145.4450 C   0  0  0  0  0  0  0  0  0  0  0  0
  186.5940  178.1460  146.3840 C   0  0  0  0  0  0  0  0  0  0  0  0
  186.8500  176.6180  141.6570 N   0  0  0  0  0  2  0  0  0  0  0  0
  189.3050  176.2920  144.3360 C   0  0  0  0  0  0  0  0  0  0  0  0
  189.2480  176.8510  146.7000 C   0  0  0  0  0  3  0  0  0  0  0  0
  192.3270  174.9440  146.0450 O   0  0  0  0  0  1  0  0  0  0  0  0
  190.6840  174.1140  142.3560 C   0  0  2  0  0  3  0  0  0  0  0  0
  191.1250  175.6080  145.8150 C   0  0  0  0  0  0  0  0  0  0  0  0
  189.3010  174.3100  142.1360 O   0  0  0  0  0  0  0  0  0  0  0  0
  187.8650  175.8570  141.0100 C   0  0  0  0  0  0  0  0  0  0  0  0
  190.4710  176.2200  146.8910 C   0  0  0  0  0  0  0  0  0  0  0  0
  190.5650  175.6500  144.5150 C   0  0  0  0  0  0  0  0  0  0  0  0
  185.4350  179.0500  146.0760 C   0  0  0  0  0  2  0  0  0  0  0  0
  186.9180  177.9760  147.5900 O   0  0  0  0  0  0  0  0  0  0  0  0
  187.4040  176.8740  142.9390 C   0  0  0  0  0  0  0  0  0  0  0  0
  184.7630  178.7060  144.7760 C   0  0  0  0  0  3  0  0  0  0  0  0
  187.3570  177.5070  145.2730 C   0  0  0  0  0  0  0  0  0  0  0  0
  188.6640  176.3400  143.0900 C   0  0  0  0  0  0  0  0  0  0  0  0
  187.7350  175.4140  139.8390 O   0  0  0  0  0  0  0  0  0  0  0  0
  189.0920  175.6650  141.8410 C   0  0  1  0  0  3  0  0  0  0  0  0
  192.6390  175.3080  143.2750 C   0  0  0  0  0  2  0  0  0  0  0  0
  185.3790  178.0180  143.8140 C   0  0  0  0  0  3  0  0  0  0  0  0
  186.7390  177.4820  144.0010 C   0  0  0  0  0  0  0  0  0  0  0  0
  191.3290  175.0750  143.3590 C   0  0  0  0  0  0  0  0  0  0  0  0
  191.4360  173.9990  141.0250 C   0  0  0  0  0  2  0  0  0  0  0  0
  190.8160  173.3370  138.7240 C   0  0  0  0  0  1  0  0  0  0  0  0
  190.8350  172.8990  140.1730 C   0  0  0  0  0  2  0  0  0  0  0  0
  191.0560  176.1830  148.2690 C   0  0  0  0  0  2  0  0  0  0  0  0
  191.3820  178.1780  149.7370 C   0  0  0  0  0  1  0  0  0  0  0  0
  191.9100  177.4130  148.5380 C   0  0  0  0  0  2  0  0  0  0  0  0
  1  5  2  0  0  0  0
  2 14  2  0  0  0  0
  3 15  1  0  0  0  0
  4 12  2  0  0  0  0
  4  1  1  0  0  0  0
  5 11  1  0  0  0  0
  7 25  1  6  0  0  0
  7 24  1  0  0  0  0
  8  6  1  0  0  0  0
  8 11  2  0  0  0  0
  9  7  1  0  0  0  0
 10  3  1  0  0  0  0
 11 28  1  0  0  0  0
 12  8  1  0  0  0  0
 13  2  1  0  0  0  0
 15 18  2  0  0  0  0
 15 23  1  0  0  0  0
 16 13  1  0  0  0  0
 17  1  1  0  0  0  0
 17  2  1  0  0  0  0
 18  4  1  0  0  0  0
 19 10  2  0  0  0  0
 20 10  1  6  0  0  0
 20  9  1  0  0  0  0
 20 18  1  0  0  0  0
 21 24  2  0  0  0  0
 22 23  1  0  0  0  0
 22 16  2  0  0  0  0
 23 17  2  0  0  0  0
 24 12  1  0  0  0  0
 26 27  1  0  0  0  0
 27 25  1  0  0  0  0
 28 30  1  0  0  0  0
 30 29  1  0  0  0  0
M  END
>  <MODEL>
7

>  <REMARK>
 VINA RESULT:      -7.4      1.477      1.879
  Name = 
  4 active torsions:
  status: ('A' for Active; 'I' for Inactive)
    1  A    between atoms: C_7  and  C_15
    2  A    between atoms: C_11  and  C_28
    3  A    between atoms: C_15  and  C_23
    4  A    between atoms: C_28  and  C_30
                            x       y       z     vdW  Elec       q    Type
                         _______ _______ _______ _____ _____    ______ ____

>  <TORSDO>
F 4

$$$$
=
 OpenBabel11112416173D

 30 34  0  0  1  0  0  0  0  0999 V2000
  187.3390  176.6290  143.7800 C   0  0  0  0  0  0  0  0  0  0  0  0
  185.6710  177.8570  142.2540 C   0  0  0  0  0  0  0  0  0  0  0  0
  189.1300  174.7520  140.4820 N   0  0  0  0  0  2  0  0  0  0  0  0
  188.4620  175.7580  143.9250 C   0  0  0  0  0  0  0  0  0  0  0  0
  186.7300  177.1320  144.9320 C   0  0  0  0  0  3  0  0  0  0  0  0
  188.6560  175.5450  147.6380 O   0  0  0  0  0  1  0  0  0  0  0  0
  190.3330  173.2100  144.6820 C   0  0  2  0  0  3  0  0  0  0  0  0
  188.2600  175.9120  146.3540 C   0  0  0  0  0  0  0  0  0  0  0  0
  189.7180  173.1260  143.4100 O   0  0  0  0  0  0  0  0  0  0  0  0
  190.0680  173.9480  141.1910 C   0  0  0  0  0  0  0  0  0  0  0  0
  187.1750  176.7840  146.2020 C   0  0  0  0  0  0  0  0  0  0  0  0
  188.9360  175.4010  145.2200 C   0  0  0  0  0  0  0  0  0  0  0  0
  185.4150  178.4220  140.8870 C   0  0  0  0  0  2  0  0  0  0  0  0
  184.8990  178.1850  143.1930 O   0  0  0  0  0  0  0  0  0  0  0  0
  188.5290  175.5310  141.5060 C   0  0  0  0  0  0  0  0  0  0  0  0
  185.9390  177.5410  139.7890 C   0  0  0  0  0  3  0  0  0  0  0  0
  186.8420  176.9630  142.4830 C   0  0  0  0  0  0  0  0  0  0  0  0
  189.0490  175.2620  142.7520 C   0  0  0  0  0  0  0  0  0  0  0  0
  190.7950  173.0940  140.6200 O   0  0  0  0  0  0  0  0  0  0  0  0
  190.1190  174.2390  142.6560 C   0  0  1  0  0  3  0  0  0  0  0  0
  191.0570  174.9060  146.3220 C   0  0  0  0  0  2  0  0  0  0  0  0
  186.8960  176.6360  139.9940 C   0  0  0  0  0  3  0  0  0  0  0  0
  187.4480  176.3910  141.3390 C   0  0  0  0  0  0  0  0  0  0  0  0
  190.1570  174.5490  145.4050 C   0  0  0  0  0  0  0  0  0  0  0  0
  191.7830  172.7170  144.6190 C   0  0  0  0  0  2  0  0  0  0  0  0
  192.9560  171.4220  142.8690 C   0  0  0  0  0  1  0  0  0  0  0  0
  191.8540  171.3810  143.9050 C   0  0  0  0  0  2  0  0  0  0  0  0
  186.4550  177.3320  147.3950 C   0  0  0  0  0  2  0  0  0  0  0  0
  184.2050  178.2910  146.8880 C   0  0  0  0  0  1  0  0  0  0  0  0
  185.6830  178.5940  147.0400 C   0  0  0  0  0  2  0  0  0  0  0  0
  1  4  1  0  0  0  0
  1  5  2  0  0  0  0
  2 17  1  0  0  0  0
  2 14  2  0  0  0  0
  3 10  1  0  0  0  0
  3 15  1  0  0  0  0
  4 12  2  0  0  0  0
  5 11  1  0  0  0  0
  7 25  1  6  0  0  0
  7 24  1  0  0  0  0
  8  6  1  0  0  0  0
  9  7  1  0  0  0  0
 11  8  2  0  0  0  0
 11 28  1  0  0  0  0
 12 24  1  0  0  0  0
 12  8  1  0  0  0  0
 13  2  1  0  0  0  0
 15 18  2  0  0  0  0
 16 22  2  0  0  0  0
 16 13  1  0  0  0  0
 17  1  1  0  0  0  0
 18  4  1  0  0  0  0
 19 10  2  0  0  0  0
 20 10  1  6  0  0  0
 20 18  1  0  0  0  0
 20  9  1  0  0  0  0
 22 23  1  0  0  0  0
 23 15  1  0  0  0  0
 23 17  2  0  0  0  0
 24 21  2  0  0  0  0
 26 27  1  0  0  0  0
 27 25  1  0  0  0  0
 29 30  1  0  0  0  0
 30 28  1  0  0  0  0
M  END
>  <MODEL>
8

>  <REMARK>
 VINA RESULT:      -7.4      2.055      4.330
  Name = 
  4 active torsions:
  status: ('A' for Active; 'I' for Inactive)
    1  A    between atoms: C_7  and  C_15
    2  A    between atoms: C_11  and  C_28
    3  A    between atoms: C_15  and  C_23
    4  A    between atoms: C_28  and  C_30
                            x       y       z     vdW  Elec       q    Type
                         _______ _______ _______ _____ _____    ______ ____

>  <TORSDO>
F 4

$$$$
=
 OpenBabel11112416173D

 30 34  0  0  1  0  0  0  0  0999 V2000
  190.9720  175.1550  143.2970 C   0  0  0  0  0  0  0  0  0  0  0  0
  193.2260  174.0810  142.6750 C   0  0  0  0  0  0  0  0  0  0  0  0
  192.4200  176.2440  147.0820 N   0  0  0  0  0  2  0  0  0  0  0  0
  190.1750  175.8860  144.2280 C   0  0  0  0  0  0  0  0  0  0  0  0
  190.3870  174.7360  142.0990 C   0  0  0  0  0  3  0  0  0  0  0  0
  186.9080  175.8890  142.4390 O   0  0  0  0  0  1  0  0  0  0  0  0
  187.8660  176.6970  146.3670 C   0  0  2  0  0  3  0  0  0  0  0  0
  188.2550  175.6870  142.7320 C   0  0  0  0  0  0  0  0  0  0  0  0
  189.0240  176.1290  146.9460 O   0  0  0  0  0  0  0  0  0  0  0  0
  191.2210  176.8110  147.6010 C   0  0  0  0  0  0  0  0  0  0  0  0
  189.0510  174.9910  141.8140 C   0  0  0  0  0  0  0  0  0  0  0  0
  188.8070  176.1650  143.9450 C   0  0  0  0  0  0  0  0  0  0  0  0
  194.7110  174.0820  142.8960 C   0  0  0  0  0  2  0  0  0  0  0  0
  192.7680  173.4520  141.6840 O   0  0  0  0  0  0  0  0  0  0  0  0
  192.0780  175.9340  145.7390 C   0  0  0  0  0  0  0  0  0  0  0  0
  195.0820  174.2850  144.3380 C   0  0  0  0  0  3  0  0  0  0  0  0
  192.3360  174.8470  143.5930 C   0  0  0  0  0  0  0  0  0  0  0  0
  190.7850  176.2880  145.4250 C   0  0  0  0  0  0  0  0  0  0  0  0
  191.1180  177.1980  148.7940 O   0  0  0  0  0  0  0  0  0  0  0  0
  190.1250  176.9230  146.5920 C   0  0  1  0  0  3  0  0  0  0  0  0
  187.1760  177.9360  144.3470 C   0  0  0  0  0  2  0  0  0  0  0  0
  194.2510  174.8490  145.2160 C   0  0  0  0  0  3  0  0  0  0  0  0
  192.8810  175.2380  144.8390 C   0  0  0  0  0  0  0  0  0  0  0  0
  187.9630  176.9930  144.8680 C   0  0  0  0  0  0  0  0  0  0  0  0
  187.3590  177.8750  147.2070 C   0  0  0  0  0  2  0  0  0  0  0  0
  184.9600  178.4730  147.2750 C   0  0  0  0  0  1  0  0  0  0  0  0
  186.0170  177.5410  147.8280 C   0  0  0  0  0  2  0  0  0  0  0  0
  188.4780  174.4830  140.5270 C   0  0  0  0  0  2  0  0  0  0  0  0
  188.4350  172.5630  138.9300 C   0  0  0  0  0  1  0  0  0  0  0  0
  188.7680  173.0000  140.3430 C   0  0  0  0  0  2  0  0  0  0  0  0
  1 17  2  0  0  0  0
  1  4  1  0  0  0  0
  2 13  1  0  0  0  0
  2 17  1  0  0  0  0
  3 10  1  0  0  0  0
  4 18  2  0  0  0  0
  5  1  1  0  0  0  0
  6  8  1  0  0  0  0
  7  9  1  0  0  0  0
  7 25  1  1  0  0  0
  8 12  2  0  0  0  0
 10 19  2  0  0  0  0
 11  5  2  0  0  0  0
 11  8  1  0  0  0  0
 12  4  1  0  0  0  0
 12 24  1  0  0  0  0
 13 16  1  0  0  0  0
 14  2  2  0  0  0  0
 15  3  1  0  0  0  0
 16 22  2  0  0  0  0
 17 23  1  0  0  0  0
 18 15  1  0  0  0  0
 20 18  1  6  0  0  0
 20  9  1  0  0  0  0
 20 10  1  0  0  0  0
 21 24  2  0  0  0  0
 23 22  1  0  0  0  0
 23 15  2  0  0  0  0
 24  7  1  0  0  0  0
 25 27  1  0  0  0  0
 26 27  1  0  0  0  0
 28 11  1  0  0  0  0
 29 30  1  0  0  0  0
 30 28  1  0  0  0  0
M  END
>  <MODEL>
9

>  <REMARK>
 VINA RESULT:      -7.2      2.710      7.580
  Name = 
  4 active torsions:
  status: ('A' for Active; 'I' for Inactive)
    1  A    between atoms: C_7  and  C_15
    2  A    between atoms: C_11  and  C_28
    3  A    between atoms: C_15  and  C_23
    4  A    between atoms: C_28  and  C_30
                            x       y       z     vdW  Elec       q    Type
                         _______ _______ _______ _____ _____    ______ ____

>  <TORSDO>
F 4

$$$$
