=
 OpenBabel11112416373D

 32 37  0  0  1  0  0  0  0  0999 V2000
  194.5670  175.8780  146.5070 C   0  0  0  0  0  2  0  0  0  0  0  0
  189.5070  175.0970  144.8470 N   0  0  0  0  0  0  0  0  0  0  0  0
  189.6670  172.4210  140.7720 C   0  0  0  0  0  2  0  0  0  0  0  0
  188.4150  173.1400  140.2330 C   0  0  0  0  0  2  0  0  0  0  0  0
  187.9480  177.1360  144.9720 C   0  0  0  0  0  0  0  0  0  0  0  0
  186.8820  177.9010  144.3350 C   0  0  0  0  0  0  0  0  0  0  0  0
  191.6450  176.0250  145.5730 C   0  0  2  0  0  3  0  0  0  0  0  0
  191.4850  174.4750  143.5730 C   0  0  0  0  0  2  0  0  0  0  0  0
  185.3130  178.4460  142.8510 N   0  0  0  0  0  0  0  0  0  0  0  0
  193.6580  175.5000  144.1410 C   0  0  0  0  0  2  0  0  0  0  0  0
  189.6390  172.2180  142.2890 C   0  0  0  0  0  2  0  0  0  0  0  0
  190.1300  174.0060  144.0930 C   0  0  2  0  0  3  0  0  0  0  0  0
  189.2720  173.5040  142.9700 C   0  0  0  0  0  0  0  0  0  0  0  0
  187.8060  175.4720  143.1580 C   0  0  0  0  0  0  0  0  0  0  0  0
  185.2810  179.4720  143.8880 C   0  0  0  0  0  2  0  0  0  0  0  0
  193.6740  176.9530  146.4880 O   0  0  0  0  0  0  0  0  0  0  0  0
  192.3650  174.9440  144.7320 C   0  0  1  0  0  3  0  0  0  0  0  0
  186.3200  179.0860  144.7900 O   0  0  0  0  0  0  0  0  0  0  0  0
  192.4400  176.3900  146.8250 C   0  0  0  0  0  2  0  0  0  0  0  0
  194.8550  175.3720  145.0910 C   0  0  1  0  0  3  0  0  0  0  0  0
  187.4690  173.6710  141.3230 C   0  0  0  0  0  2  0  0  0  0  0  0
  188.2330  174.2150  142.5030 C   0  0  0  0  0  0  0  0  0  0  0  0
  186.6530  176.2370  142.5200 C   0  0  0  0  0  2  0  0  0  0  0  0
  190.2680  175.5320  146.0130 C   0  0  0  0  0  2  0  0  0  0  0  0
  188.4350  177.5410  146.0590 O   0  0  0  0  0  0  0  0  0  0  0  0
  184.2580  178.2100  141.8820 C   0  0  0  0  0  1  0  0  0  0  0  0
  188.4190  175.8850  144.3010 C   0  0  0  0  0  0  0  0  0  0  0  0
  186.3140  177.5150  143.2270 C   0  0  0  0  0  0  0  0  0  0  0  0
  195.9950  176.0920  144.5420 N   0  0  0  0  0  2  0  0  0  0  0  0
  196.8080  175.5660  143.4930 C   0  0  0  0  0  0  0  0  0  0  0  0
  196.5780  174.4260  143.0100 O   0  0  0  0  0  0  0  0  0  0  0  0
  197.9410  176.3720  142.9680 C   0  0  0  0  0  1  0  0  0  0  0  0
  2 24  1  0  0  0  0
  3 11  1  0  0  0  0
  4  3  1  0  0  0  0
  4 21  1  0  0  0  0
  5 25  2  0  0  0  0
  6 18  1  0  0  0  0
  6  5  1  0  0  0  0
  7 24  1  1  0  0  0
  7 19  1  0  0  0  0
  9 28  1  0  0  0  0
  9 15  1  0  0  0  0
 10 17  1  0  0  0  0
 10 20  1  0  0  0  0
 11 13  1  0  0  0  0
 12  8  1  6  0  0  0
 12  2  1  0  0  0  0
 13 12  1  0  0  0  0
 14 27  2  0  0  0  0
 15 18  1  0  0  0  0
 16  1  1  0  0  0  0
 16 19  1  0  0  0  0
 17  8  1  6  0  0  0
 17  7  1  0  0  0  0
 20 29  1  6  0  0  0
 20  1  1  0  0  0  0
 21 22  1  0  0  0  0
 22 13  2  0  0  0  0
 22 14  1  0  0  0  0
 23 14  1  0  0  0  0
 23 28  1  0  0  0  0
 26  9  1  0  0  0  0
 27  2  1  0  0  0  0
 27  5  1  0  0  0  0
 28  6  2  0  0  0  0
 30 29  1  0  0  0  0
 31 30  2  0  0  0  0
 32 30  1  0  0  0  0
M  END
>  <MODEL>
1

>  <REMARK>
 VINA RESULT:      -8.3      0.000      0.000
  Name = 
  1 active torsions:
  status: ('A' for Active; 'I' for Inactive)
    1  A    between atoms: C_20  and  N_29
                            x       y       z     vdW  Elec       q    Type
                         _______ _______ _______ _____ _____    ______ ____

>  <TORSDO>
F 1

$$$$
=
 OpenBabel11112416373D

 32 37  0  0  1  0  0  0  0  0999 V2000
  189.6650  172.6930  139.2130 C   0  0  0  0  0  2  0  0  0  0  0  0
  189.2940  176.4000  143.0980 N   0  0  0  0  0  0  0  0  0  0  0  0
  192.4090  175.1660  146.6420 C   0  0  0  0  0  2  0  0  0  0  0  0
  191.4610  175.7590  147.7030 C   0  0  0  0  0  2  0  0  0  0  0  0
  186.9190  177.1720  143.7020 C   0  0  0  0  0  0  0  0  0  0  0  0
  185.9870  177.5510  144.7580 C   0  0  0  0  0  0  0  0  0  0  0  0
  188.8750  174.6710  141.4260 C   0  0  2  0  0  3  0  0  0  0  0  0
  190.5680  174.3340  143.2830 C   0  0  0  0  0  2  0  0  0  0  0  0
  185.2420  178.0250  146.8020 N   0  0  0  0  0  0  0  0  0  0  0  0
  190.0860  172.4760  141.7310 C   0  0  0  0  0  2  0  0  0  0  0  0
  192.4050  175.9470  145.3270 C   0  0  0  0  0  2  0  0  0  0  0  0
  190.5960  175.8470  143.4800 C   0  0  2  0  0  3  0  0  0  0  0  0
  190.9920  176.1950  144.8840 C   0  0  0  0  0  0  0  0  0  0  0  0
  188.7020  176.9390  145.3880 C   0  0  0  0  0  0  0  0  0  0  0  0
  184.1200  178.2310  145.8920 C   0  0  0  0  0  2  0  0  0  0  0  0
  188.4040  173.1210  139.6390 O   0  0  0  0  0  0  0  0  0  0  0  0
  190.2040  173.9940  141.8370 C   0  0  1  0  0  3  0  0  0  0  0  0
  184.6490  177.8880  144.6090 O   0  0  0  0  0  0  0  0  0  0  0  0
  188.5770  174.4760  139.9400 C   0  0  0  0  0  2  0  0  0  0  0  0
  190.4030  171.9460  140.3270 C   0  0  1  0  0  3  0  0  0  0  0  0
  190.5680  176.8990  147.1880 C   0  0  0  0  0  2  0  0  0  0  0  0
  190.1000  176.6440  145.7790 C   0  0  0  0  0  0  0  0  0  0  0  0
  187.7480  177.3910  146.4880 C   0  0  0  0  0  2  0  0  0  0  0  0
  188.9300  176.1720  141.7040 C   0  0  0  0  0  2  0  0  0  0  0  0
  186.5220  177.1470  142.5080 O   0  0  0  0  0  0  0  0  0  0  0  0
  185.3130  178.5310  148.1610 C   0  0  0  0  0  1  0  0  0  0  0  0
  188.3230  176.8320  144.0850 C   0  0  0  0  0  0  0  0  0  0  0  0
  186.3480  177.6290  146.0090 C   0  0  0  0  0  0  0  0  0  0  0  0
  190.0820  170.5290  140.2540 N   0  0  0  0  0  2  0  0  0  0  0  0
  190.8420  169.6040  139.4750 C   0  0  0  0  0  0  0  0  0  0  0  0
  191.8240  169.9950  138.7890 O   0  0  0  0  0  0  0  0  0  0  0  0
  190.4670  168.1660  139.4690 C   0  0  0  0  0  1  0  0  0  0  0  0
  1 16  1  0  0  0  0
  1 20  1  0  0  0  0
  2 12  1  0  0  0  0
  2 27  1  0  0  0  0
  3  4  1  0  0  0  0
  5 27  1  0  0  0  0
  5  6  1  0  0  0  0
  6 28  2  0  0  0  0
  7 19  1  6  0  0  0
  7 24  1  0  0  0  0
  7 17  1  0  0  0  0
  9 26  1  0  0  0  0
 11  3  1  0  0  0  0
 12  8  1  1  0  0  0
 12 13  1  0  0  0  0
 13 11  1  0  0  0  0
 13 22  2  0  0  0  0
 14 22  1  0  0  0  0
 14 23  1  0  0  0  0
 15  9  1  0  0  0  0
 16 19  1  0  0  0  0
 17 10  1  1  0  0  0
 17  8  1  0  0  0  0
 18  6  1  0  0  0  0
 18 15  1  0  0  0  0
 20 29  1  1  0  0  0
 20 10  1  0  0  0  0
 21  4  1  0  0  0  0
 22 21  1  0  0  0  0
 24  2  1  0  0  0  0
 25  5  2  0  0  0  0
 27 14  2  0  0  0  0
 28 23  1  0  0  0  0
 28  9  1  0  0  0  0
 30 29  1  0  0  0  0
 31 30  2  0  0  0  0
 32 30  1  0  0  0  0
M  END
>  <MODEL>
2

>  <REMARK>
 VINA RESULT:      -8.2      3.221      5.933
  Name = 
  1 active torsions:
  status: ('A' for Active; 'I' for Inactive)
    1  A    between atoms: C_20  and  N_29
                            x       y       z     vdW  Elec       q    Type
                         _______ _______ _______ _____ _____    ______ ____

>  <TORSDO>
F 1

$$$$
=
 OpenBabel11112416373D

 32 37  0  0  1  0  0  0  0  0999 V2000
  191.7980  174.0860  142.8000 C   0  0  0  0  0  2  0  0  0  0  0  0
  187.8640  177.7020  143.4490 N   0  0  0  0  0  0  0  0  0  0  0  0
  186.4630  177.5630  148.1190 C   0  0  0  0  0  2  0  0  0  0  0  0
  185.0170  177.9080  147.7120 C   0  0  0  0  0  2  0  0  0  0  0  0
  186.0920  177.7930  141.5900 C   0  0  0  0  0  0  0  0  0  0  0  0
  184.6810  177.9370  141.2520 C   0  0  0  0  0  0  0  0  0  0  0  0
  189.2870  175.8530  142.7300 C   0  0  2  0  0  3  0  0  0  0  0  0
  188.5500  176.0940  145.1430 C   0  0  0  0  0  2  0  0  0  0  0  0
  182.4980  178.2700  141.5350 N   0  0  0  0  0  0  0  0  0  0  0  0
  189.8510  174.1090  144.4670 C   0  0  0  0  0  2  0  0  0  0  0  0
  187.5150  178.2520  147.2480 C   0  0  0  0  0  2  0  0  0  0  0  0
  188.2330  177.5600  144.8600 C   0  0  2  0  0  3  0  0  0  0  0  0
  187.1770  178.0670  145.7970 C   0  0  0  0  0  0  0  0  0  0  0  0
  185.5360  178.1510  143.9650 C   0  0  0  0  0  0  0  0  0  0  0  0
  182.7120  178.1080  140.1010 C   0  0  0  0  0  2  0  0  0  0  0  0
  190.7640  174.1560  141.8610 O   0  0  0  0  0  0  0  0  0  0  0  0
  189.6570  175.6010  144.2110 C   0  0  1  0  0  3  0  0  0  0  0  0
  184.1170  177.8730  139.9860 O   0  0  0  0  0  0  0  0  0  0  0  0
  190.4450  175.5160  141.7920 C   0  0  0  0  0  2  0  0  0  0  0  0
  191.2770  173.6290  144.1650 C   0  0  1  0  0  3  0  0  0  0  0  0
  184.9020  178.7240  146.4130 C   0  0  0  0  0  2  0  0  0  0  0  0
  185.9170  178.2840  145.3900 C   0  0  0  0  0  0  0  0  0  0  0  0
  184.0690  178.3610  143.6100 C   0  0  0  0  0  2  0  0  0  0  0  0
  188.9140  177.3190  142.5120 C   0  0  0  0  0  2  0  0  0  0  0  0
  186.9320  177.6030  140.6730 O   0  0  0  0  0  0  0  0  0  0  0  0
  181.3040  178.8350  142.1390 C   0  0  0  0  0  1  0  0  0  0  0  0
  186.4880  177.8840  143.0290 C   0  0  0  0  0  0  0  0  0  0  0  0
  183.7690  178.1700  142.1540 C   0  0  0  0  0  0  0  0  0  0  0  0
  191.3320  172.1770  144.2440 N   0  0  0  0  0  2  0  0  0  0  0  0
  192.5620  171.4540  144.3100 C   0  0  0  0  0  0  0  0  0  0  0  0
  193.6670  172.0590  144.2780 O   0  0  0  0  0  0  0  0  0  0  0  0
  192.5380  169.9720  144.4130 C   0  0  0  0  0  1  0  0  0  0  0  0
  1 20  1  0  0  0  0
  2 12  1  0  0  0  0
  4  3  1  0  0  0  0
  5 27  1  0  0  0  0
  6  5  1  0  0  0  0
  6 28  2  0  0  0  0
  7 19  1  6  0  0  0
  7 17  1  0  0  0  0
  9 26  1  0  0  0  0
  9 28  1  0  0  0  0
 11  3  1  0  0  0  0
 12  8  1  1  0  0  0
 12 13  1  0  0  0  0
 13 11  1  0  0  0  0
 14 22  1  0  0  0  0
 15  9  1  0  0  0  0
 16  1  1  0  0  0  0
 17 10  1  6  0  0  0
 17  8  1  0  0  0  0
 18 15  1  0  0  0  0
 18  6  1  0  0  0  0
 19 16  1  0  0  0  0
 20 29  1  6  0  0  0
 20 10  1  0  0  0  0
 21  4  1  0  0  0  0
 22 13  2  0  0  0  0
 22 21  1  0  0  0  0
 23 14  1  0  0  0  0
 24  7  1  0  0  0  0
 24  2  1  0  0  0  0
 25  5  2  0  0  0  0
 27  2  1  0  0  0  0
 27 14  2  0  0  0  0
 28 23  1  0  0  0  0
 29 30  1  0  0  0  0
 30 32  1  0  0  0  0
 31 30  2  0  0  0  0
M  END
>  <MODEL>
3

>  <REMARK>
 VINA RESULT:      -8.2      3.332      5.333
  Name = 
  1 active torsions:
  status: ('A' for Active; 'I' for Inactive)
    1  A    between atoms: C_20  and  N_29
                            x       y       z     vdW  Elec       q    Type
                         _______ _______ _______ _____ _____    ______ ____

>  <TORSDO>
F 1

$$$$
=
 OpenBabel11112416373D

 32 37  0  0  1  0  0  0  0  0999 V2000
  186.4110  176.0360  142.7630 C   0  0  0  0  0  2  0  0  0  0  0  0
  191.5680  174.5120  142.9980 N   0  0  0  0  0  0  0  0  0  0  0  0
  193.5890  176.6740  146.8750 C   0  0  0  0  0  2  0  0  0  0  0  0
  194.9420  176.7610  146.1420 C   0  0  0  0  0  2  0  0  0  0  0  0
  192.8360  174.4600  140.7640 C   0  0  0  0  0  0  0  0  0  0  0  0
  194.0830  174.7310  140.0590 C   0  0  0  0  0  0  0  0  0  0  0  0
  189.3800  175.3750  142.3420 C   0  0  2  0  0  3  0  0  0  0  0  0
  190.5720  176.2250  144.4120 C   0  0  0  0  0  2  0  0  0  0  0  0
  196.2070  175.3220  139.7410 N   0  0  0  0  0  0  0  0  0  0  0  0
  188.4410  177.2650  143.7280 C   0  0  0  0  0  2  0  0  0  0  0  0
  192.8000  175.4070  146.5380 C   0  0  0  0  0  2  0  0  0  0  0  0
  191.4350  174.9670  144.3850 C   0  0  2  0  0  3  0  0  0  0  0  0
  192.7570  175.2130  145.0510 C   0  0  0  0  0  0  0  0  0  0  0  0
  193.9110  175.1290  142.8790 C   0  0  0  0  0  0  0  0  0  0  0  0
  195.6880  174.9140  138.4400 C   0  0  0  0  0  2  0  0  0  0  0  0
  187.1840  176.0380  141.5980 O   0  0  0  0  0  0  0  0  0  0  0  0
  189.2120  175.9490  143.7690 C   0  0  1  0  0  3  0  0  0  0  0  0
  194.3250  174.5750  138.7010 O   0  0  0  0  0  0  0  0  0  0  0  0
  188.0430  174.9440  141.7440 C   0  0  0  0  0  2  0  0  0  0  0  0
  186.9200  177.0710  143.7680 C   0  0  1  0  0  3  0  0  0  0  0  0
  195.1620  175.6630  145.0870 C   0  0  0  0  0  2  0  0  0  0  0  0
  193.8900  175.3440  144.3440 C   0  0  0  0  0  0  0  0  0  0  0  0
  195.2340  175.3580  142.1570 C   0  0  0  0  0  2  0  0  0  0  0  0
  190.3050  174.1590  142.3590 C   0  0  0  0  0  2  0  0  0  0  0  0
  191.8460  174.0210  140.1230 O   0  0  0  0  0  0  0  0  0  0  0  0
  197.6150  175.4570  140.0700 C   0  0  0  0  0  1  0  0  0  0  0  0
  192.7860  174.7110  142.2370 C   0  0  0  0  0  0  0  0  0  0  0  0
  195.1520  175.1540  140.6740 C   0  0  0  0  0  0  0  0  0  0  0  0
  186.2560  178.3440  143.5310 N   0  0  0  0  0  2  0  0  0  0  0  0
  185.8420  179.2080  144.5900 C   0  0  0  0  0  0  0  0  0  0  0  0
  186.0170  178.8800  145.7930 O   0  0  0  0  0  0  0  0  0  0  0  0
  185.1910  180.5050  144.2670 C   0  0  0  0  0  1  0  0  0  0  0  0
  1 20  1  0  0  0  0
  2 12  1  0  0  0  0
  4  3  1  0  0  0  0
  5 27  1  0  0  0  0
  6 28  2  0  0  0  0
  6  5  1  0  0  0  0
  7 19  1  1  0  0  0
  7 24  1  0  0  0  0
  7 17  1  0  0  0  0
  9 26  1  0  0  0  0
  9 28  1  0  0  0  0
 10 20  1  0  0  0  0
 11  3  1  0  0  0  0
 12  8  1  6  0  0  0
 12 13  1  0  0  0  0
 13 11  1  0  0  0  0
 14 22  1  0  0  0  0
 15 18  1  0  0  0  0
 15  9  1  0  0  0  0
 16 19  1  0  0  0  0
 16  1  1  0  0  0  0
 17 10  1  6  0  0  0
 17  8  1  0  0  0  0
 18  6  1  0  0  0  0
 20 29  1  6  0  0  0
 21  4  1  0  0  0  0
 22 13  2  0  0  0  0
 22 21  1  0  0  0  0
 23 14  1  0  0  0  0
 24  2  1  0  0  0  0
 25  5  2  0  0  0  0
 27 14  2  0  0  0  0
 27  2  1  0  0  0  0
 28 23  1  0  0  0  0
 29 30  1  0  0  0  0
 30 31  2  0  0  0  0
 32 30  1  0  0  0  0
M  END
>  <MODEL>
4

>  <REMARK>
 VINA RESULT:      -7.8      2.576      8.409
  Name = 
  1 active torsions:
  status: ('A' for Active; 'I' for Inactive)
    1  A    between atoms: C_20  and  N_29
                            x       y       z     vdW  Elec       q    Type
                         _______ _______ _______ _____ _____    ______ ____

>  <TORSDO>
F 1

$$$$
=
 OpenBabel11112416373D

 32 37  0  0  1  0  0  0  0  0999 V2000
  186.8810  175.9410  142.9980 C   0  0  0  0  0  2  0  0  0  0  0  0
  191.9620  174.3810  142.1440 N   0  0  0  0  0  0  0  0  0  0  0  0
  194.8100  176.7820  145.2920 C   0  0  0  0  0  2  0  0  0  0  0  0
  195.9570  176.8030  144.2630 C   0  0  0  0  0  2  0  0  0  0  0  0
  192.6810  174.1620  139.6870 C   0  0  0  0  0  0  0  0  0  0  0  0
  193.7310  174.3710  138.6970 C   0  0  0  0  0  0  0  0  0  0  0  0
  189.6770  175.2220  141.9510 C   0  0  2  0  0  3  0  0  0  0  0  0
  191.3100  176.1980  143.6270 C   0  0  0  0  0  2  0  0  0  0  0  0
  195.7210  174.9160  137.8590 N   0  0  0  0  0  0  0  0  0  0  0  0
  189.0730  177.2120  143.3820 C   0  0  0  0  0  2  0  0  0  0  0  0
  193.9720  175.5030  145.2350 C   0  0  0  0  0  2  0  0  0  0  0  0
  192.1500  174.9320  143.4890 C   0  0  2  0  0  3  0  0  0  0  0  0
  193.5880  175.2080  143.8140 C   0  0  0  0  0  0  0  0  0  0  0  0
  194.2110  174.9630  141.4460 C   0  0  0  0  0  0  0  0  0  0  0  0
  194.9180  174.4260  136.7430 C   0  0  0  0  0  2  0  0  0  0  0  0
  187.3650  175.8560  141.6890 O   0  0  0  0  0  0  0  0  0  0  0  0
  189.8400  175.8940  143.3350 C   0  0  1  0  0  3  0  0  0  0  0  0
  193.6540  174.1200  137.3340 O   0  0  0  0  0  0  0  0  0  0  0  0
  188.2400  174.7650  141.7090 C   0  0  0  0  0  2  0  0  0  0  0  0
  187.6030  177.0370  143.7850 C   0  0  1  0  0  3  0  0  0  0  0  0
  195.9340  175.6340  143.2640 C   0  0  0  0  0  2  0  0  0  0  0  0
  194.5270  175.2790  142.8580 C   0  0  0  0  0  0  0  0  0  0  0  0
  195.3300  175.1280  140.4250 C   0  0  0  0  0  2  0  0  0  0  0  0
  190.5870  173.9990  141.8390 C   0  0  0  0  0  2  0  0  0  0  0  0
  191.5720  173.6910  139.3230 O   0  0  0  0  0  0  0  0  0  0  0  0
  197.1660  175.0580  137.8440 C   0  0  0  0  0  1  0  0  0  0  0  0
  192.9700  174.5150  141.1110 C   0  0  0  0  0  0  0  0  0  0  0  0
  194.9110  174.8240  139.0180 C   0  0  0  0  0  0  0  0  0  0  0  0
  186.8960  178.2990  143.6190 N   0  0  0  0  0  2  0  0  0  0  0  0
  185.8510  178.7190  144.4970 C   0  0  0  0  0  0  0  0  0  0  0  0
  185.4800  177.9870  145.4530 O   0  0  0  0  0  0  0  0  0  0  0  0
  185.1910  180.0330  144.2780 C   0  0  0  0  0  1  0  0  0  0  0  0
  1 20  1  0  0  0  0
  2 12  1  0  0  0  0
  4  3  1  0  0  0  0
  5 27  1  0  0  0  0
  6 28  2  0  0  0  0
  6  5  1  0  0  0  0
  7 19  1  1  0  0  0
  7 17  1  0  0  0  0
  9 28  1  0  0  0  0
 10 20  1  0  0  0  0
 11  3  1  0  0  0  0
 12  8  1  6  0  0  0
 12 13  1  0  0  0  0
 13 11  1  0  0  0  0
 14 22  1  0  0  0  0
 15 18  1  0  0  0  0
 15  9  1  0  0  0  0
 16 19  1  0  0  0  0
 16  1  1  0  0  0  0
 17 10  1  6  0  0  0
 17  8  1  0  0  0  0
 18  6  1  0  0  0  0
 20 29  1  6  0  0  0
 21  4  1  0  0  0  0
 22 21  1  0  0  0  0
 22 13  2  0  0  0  0
 23 14  1  0  0  0  0
 24  7  1  0  0  0  0
 24  2  1  0  0  0  0
 25  5  2  0  0  0  0
 26  9  1  0  0  0  0
 27 14  2  0  0  0  0
 27  2  1  0  0  0  0
 28 23  1  0  0  0  0
 29 30  1  0  0  0  0
 30 31  2  0  0  0  0
 32 30  1  0  0  0  0
M  END
>  <MODEL>
5

>  <REMARK>
 VINA RESULT:      -7.1      3.368      8.521
  Name = 
  1 active torsions:
  status: ('A' for Active; 'I' for Inactive)
    1  A    between atoms: C_20  and  N_29
                            x       y       z     vdW  Elec       q    Type
                         _______ _______ _______ _____ _____    ______ ____

>  <TORSDO>
F 1

$$$$
=
 OpenBabel11112416373D

 32 37  0  0  1  0  0  0  0  0999 V2000
  188.5090  177.9160  143.9040 C   0  0  0  0  0  2  0  0  0  0  0  0
  192.4780  174.6280  142.3520 N   0  0  0  0  0  0  0  0  0  0  0  0
  190.5660  170.1900  141.6870 C   0  0  0  0  0  2  0  0  0  0  0  0
  191.8850  169.5360  142.1440 C   0  0  0  0  0  2  0  0  0  0  0  0
  194.7090  174.8790  143.6020 C   0  0  0  0  0  0  0  0  0  0  0  0
  195.8610  174.2100  144.1950 C   0  0  0  0  0  0  0  0  0  0  0  0
  191.0400  176.2210  143.5180 C   0  0  2  0  0  3  0  0  0  0  0  0
  190.2250  173.8980  142.9140 C   0  0  0  0  0  2  0  0  0  0  0  0
  197.2310  172.5540  144.7790 N   0  0  0  0  0  0  0  0  0  0  0  0
  188.7670  175.3880  144.2350 C   0  0  0  0  0  2  0  0  0  0  0  0
  190.7770  171.4880  140.9030 C   0  0  0  0  0  2  0  0  0  0  0  0
  191.3540  173.8090  141.8910 C   0  0  2  0  0  3  0  0  0  0  0  0
  191.7340  172.3800  141.6400 C   0  0  0  0  0  0  0  0  0  0  0  0
  193.8640  172.6960  142.8310 C   0  0  0  0  0  0  0  0  0  0  0  0
  197.8460  173.7910  145.2510 C   0  0  0  0  0  2  0  0  0  0  0  0
  189.7350  177.9510  144.5750 O   0  0  0  0  0  0  0  0  0  0  0  0
  189.8180  175.3560  143.1290 C   0  0  1  0  0  3  0  0  0  0  0  0
  196.9140  174.8060  144.8730 O   0  0  0  0  0  0  0  0  0  0  0  0
  190.6860  177.7050  143.5800 C   0  0  0  0  0  2  0  0  0  0  0  0
  187.8020  176.5740  144.1110 C   0  0  1  0  0  3  0  0  0  0  0  0
  193.1380  170.3910  141.8900 C   0  0  0  0  0  2  0  0  0  0  0  0
  192.8690  171.8550  142.1270 C   0  0  0  0  0  0  0  0  0  0  0  0
  195.0950  171.9970  143.3970 C   0  0  0  0  0  2  0  0  0  0  0  0
  192.1670  176.0450  142.5000 C   0  0  0  0  0  2  0  0  0  0  0  0
  194.6190  176.1320  143.6710 O   0  0  0  0  0  0  0  0  0  0  0  0
  197.9210  171.2840  144.6380 C   0  0  0  0  0  1  0  0  0  0  0  0
  193.6740  174.0400  142.9230 C   0  0  0  0  0  0  0  0  0  0  0  0
  196.0270  172.9180  144.1250 C   0  0  0  0  0  0  0  0  0  0  0  0
  186.9610  176.6480  145.2970 N   0  0  0  0  0  2  0  0  0  0  0  0
  185.6220  177.1440  145.2640 C   0  0  0  0  0  0  0  0  0  0  0  0
  185.1190  177.5670  144.1900 O   0  0  0  0  0  0  0  0  0  0  0  0
  184.8160  177.1650  146.5130 C   0  0  0  0  0  1  0  0  0  0  0  0
  1 20  1  0  0  0  0
  1 16  1  0  0  0  0
  2 24  1  0  0  0  0
  2 27  1  0  0  0  0
  3  4  1  0  0  0  0
  5 25  2  0  0  0  0
  5  6  1  0  0  0  0
  6 18  1  0  0  0  0
  7 24  1  6  0  0  0
  7 19  1  0  0  0  0
  9 15  1  0  0  0  0
 11 13  1  0  0  0  0
 11  3  1  0  0  0  0
 12  2  1  0  0  0  0
 12  8  1  1  0  0  0
 13 12  1  0  0  0  0
 13 22  2  0  0  0  0
 14 27  2  0  0  0  0
 14 23  1  0  0  0  0
 17  8  1  1  0  0  0
 17  7  1  0  0  0  0
 17 10  1  0  0  0  0
 18 15  1  0  0  0  0
 19 16  1  0  0  0  0
 20 10  1  0  0  0  0
 20 29  1  1  0  0  0
 21 22  1  0  0  0  0
 21  4  1  0  0  0  0
 22 14  1  0  0  0  0
 23 28  1  0  0  0  0
 26  9  1  0  0  0  0
 27  5  1  0  0  0  0
 28  6  2  0  0  0  0
 28  9  1  0  0  0  0
 30 29  1  0  0  0  0
 30 32  1  0  0  0  0
 31 30  2  0  0  0  0
M  END
>  <MODEL>
6

>  <REMARK>
 VINA RESULT:      -7.1      2.592      8.091
  Name = 
  1 active torsions:
  status: ('A' for Active; 'I' for Inactive)
    1  A    between atoms: C_20  and  N_29
                            x       y       z     vdW  Elec       q    Type
                         _______ _______ _______ _____ _____    ______ ____

>  <TORSDO>
F 1

$$$$
=
 OpenBabel11112416373D

 32 37  0  0  1  0  0  0  0  0999 V2000
  197.9140  175.2040  142.5080 C   0  0  0  0  0  2  0  0  0  0  0  0
  193.3540  173.9050  145.0550 N   0  0  0  0  0  0  0  0  0  0  0  0
  190.8130  170.9290  142.1440 C   0  0  0  0  0  2  0  0  0  0  0  0
  189.4890  171.5030  142.6860 C   0  0  0  0  0  2  0  0  0  0  0  0
  192.1550  175.8210  146.2770 C   0  0  0  0  0  0  0  0  0  0  0  0
  190.8830  176.4480  146.6180 C   0  0  0  0  0  0  0  0  0  0  0  0
  195.2320  175.0500  143.9960 C   0  0  2  0  0  3  0  0  0  0  0  0
  193.8480  173.3360  142.7410 C   0  0  0  0  0  2  0  0  0  0  0  0
  188.6800  176.7490  146.7430 N   0  0  0  0  0  0  0  0  0  0  0  0
  195.6250  174.5670  141.5490 C   0  0  0  0  0  2  0  0  0  0  0  0
  191.9130  170.8470  143.2040 C   0  0  0  0  0  2  0  0  0  0  0  0
  193.3540  172.8070  144.0840 C   0  0  2  0  0  3  0  0  0  0  0  0
  192.0130  172.1520  143.9380 C   0  0  0  0  0  0  0  0  0  0  0  0
  190.9320  174.0100  145.1360 C   0  0  0  0  0  0  0  0  0  0  0  0
  189.2940  177.8500  147.4780 C   0  0  0  0  0  2  0  0  0  0  0  0
  197.1730  176.2030  143.1460 O   0  0  0  0  0  0  0  0  0  0  0  0
  195.2350  173.9640  142.8940 C   0  0  1  0  0  3  0  0  0  0  0  0
  190.6970  177.6190  147.3390 O   0  0  0  0  0  0  0  0  0  0  0  0
  196.6390  175.5750  144.2760 C   0  0  0  0  0  2  0  0  0  0  0  0
  197.1420  174.6100  141.3270 C   0  0  1  0  0  3  0  0  0  0  0  0
  189.5750  172.0460  144.1220 C   0  0  0  0  0  2  0  0  0  0  0  0
  190.8890  172.7400  144.3750 C   0  0  0  0  0  0  0  0  0  0  0  0
  189.5990  174.6300  145.5390 C   0  0  0  0  0  2  0  0  0  0  0  0
  194.6670  174.4900  145.3000 C   0  0  0  0  0  2  0  0  0  0  0  0
  193.2280  176.3490  146.6670 O   0  0  0  0  0  0  0  0  0  0  0  0
  187.2860  176.3550  146.8470 C   0  0  0  0  0  1  0  0  0  0  0  0
  192.1300  174.5600  145.4740 C   0  0  0  0  0  0  0  0  0  0  0  0
  189.7370  175.9310  146.2710 C   0  0  0  0  0  0  0  0  0  0  0  0
  197.4410  175.3690  140.1220 N   0  0  0  0  0  2  0  0  0  0  0  0
  197.6490  174.7500  138.8520 C   0  0  0  0  0  0  0  0  0  0  0  0
  197.6050  173.4970  138.7320 O   0  0  0  0  0  0  0  0  0  0  0  0
  197.9270  175.5940  137.6600 C   0  0  0  0  0  1  0  0  0  0  0  0
  1 16  1  0  0  0  0
  2 24  1  0  0  0  0
  2 27  1  0  0  0  0
  3  4  1  0  0  0  0
  3 11  1  0  0  0  0
  4 21  1  0  0  0  0
  5  6  1  0  0  0  0
  5 25  2  0  0  0  0
  6 18  1  0  0  0  0
  7 19  1  1  0  0  0
  7 24  1  0  0  0  0
  8 17  1  0  0  0  0
  9 26  1  0  0  0  0
  9 15  1  0  0  0  0
 11 13  1  0  0  0  0
 12  8  1  6  0  0  0
 12  2  1  0  0  0  0
 13 12  1  0  0  0  0
 13 22  2  0  0  0  0
 14 27  2  0  0  0  0
 14 23  1  0  0  0  0
 16 19  1  0  0  0  0
 17 10  1  6  0  0  0
 17  7  1  0  0  0  0
 18 15  1  0  0  0  0
 20 29  1  6  0  0  0
 20 10  1  0  0  0  0
 20  1  1  0  0  0  0
 21 22  1  0  0  0  0
 22 14  1  0  0  0  0
 23 28  1  0  0  0  0
 27  5  1  0  0  0  0
 28  6  2  0  0  0  0
 28  9  1  0  0  0  0
 30 29  1  0  0  0  0
 31 30  2  0  0  0  0
 32 30  1  0  0  0  0
M  END
>  <MODEL>
7

>  <REMARK>
 VINA RESULT:      -6.8      2.871      4.403
  Name = 
  1 active torsions:
  status: ('A' for Active; 'I' for Inactive)
    1  A    between atoms: C_20  and  N_29
                            x       y       z     vdW  Elec       q    Type
                         _______ _______ _______ _____ _____    ______ ____

>  <TORSDO>
F 1

$$$$
=
 OpenBabel11112416373D

 32 37  0  0  1  0  0  0  0  0999 V2000
  188.7520  177.9310  145.7580 C   0  0  0  0  0  2  0  0  0  0  0  0
  191.9620  174.3900  143.2830 N   0  0  0  0  0  0  0  0  0  0  0  0
  189.4960  172.5210  139.5120 C   0  0  0  0  0  2  0  0  0  0  0  0
  190.2200  171.1720  139.6870 C   0  0  0  0  0  2  0  0  0  0  0  0
  193.3230  172.8350  144.8110 C   0  0  0  0  0  0  0  0  0  0  0  0
  193.8400  171.4910  145.0400 C   0  0  0  0  0  0  0  0  0  0  0  0
  190.6220  175.6580  144.8820 C   0  0  2  0  0  3  0  0  0  0  0  0
  189.6070  174.7150  142.7590 C   0  0  0  0  0  2  0  0  0  0  0  0
  194.2850  169.3420  144.6620 N   0  0  0  0  0  0  0  0  0  0  0  0
  188.1500  175.8430  144.4010 C   0  0  0  0  0  2  0  0  0  0  0  0
  190.3820  173.7270  139.8300 C   0  0  0  0  0  2  0  0  0  0  0  0
  191.0150  174.5970  142.1830 C   0  0  2  0  0  3  0  0  0  0  0  0
  191.0770  173.5170  141.1440 C   0  0  0  0  0  0  0  0  0  0  0  0
  192.3980  172.0880  142.6510 C   0  0  0  0  0  0  0  0  0  0  0  0
  194.9070  169.6790  145.9390 C   0  0  0  0  0  2  0  0  0  0  0  0
  189.4800  177.0120  146.5200 O   0  0  0  0  0  0  0  0  0  0  0  0
  189.5460  175.8460  143.7860 C   0  0  1  0  0  3  0  0  0  0  0  0
  194.5660  171.0520  146.1380 O   0  0  0  0  0  0  0  0  0  0  0  0
  190.6840  176.8580  145.8250 C   0  0  0  0  0  2  0  0  0  0  0  0
  187.7060  177.2270  144.8900 C   0  0  1  0  0  3  0  0  0  0  0  0
  191.6210  171.2810  140.3120 C   0  0  0  0  0  2  0  0  0  0  0  0
  191.6680  172.3370  141.3870 C   0  0  0  0  0  0  0  0  0  0  0  0
  192.9860  170.6980  142.8580 C   0  0  0  0  0  2  0  0  0  0  0  0
  192.0030  175.4780  144.2530 C   0  0  0  0  0  2  0  0  0  0  0  0
  193.5430  173.7360  145.6610 O   0  0  0  0  0  0  0  0  0  0  0  0
  194.5990  168.1660  143.8700 C   0  0  0  0  0  1  0  0  0  0  0  0
  192.5480  173.0920  143.5580 C   0  0  0  0  0  0  0  0  0  0  0  0
  193.6730  170.5250  144.1790 C   0  0  0  0  0  0  0  0  0  0  0  0
  186.4600  177.1090  145.6330 N   0  0  0  0  0  2  0  0  0  0  0  0
  185.5290  178.1850  145.7540 C   0  0  0  0  0  0  0  0  0  0  0  0
  185.7680  179.3050  145.2300 O   0  0  0  0  0  0  0  0  0  0  0  0
  184.2650  177.9800  146.5090 C   0  0  0  0  0  1  0  0  0  0  0  0
  1 16  1  0  0  0  0
  2 27  1  0  0  0  0
  2 24  1  0  0  0  0
  3  4  1  0  0  0  0
  3 11  1  0  0  0  0
  4 21  1  0  0  0  0
  5  6  1  0  0  0  0
  5 25  2  0  0  0  0
  6 18  1  0  0  0  0
  7 24  1  6  0  0  0
  7 19  1  0  0  0  0
  9 15  1  0  0  0  0
 10 20  1  0  0  0  0
 11 13  1  0  0  0  0
 12  8  1  1  0  0  0
 12  2  1  0  0  0  0
 13 22  2  0  0  0  0
 13 12  1  0  0  0  0
 14 23  1  0  0  0  0
 14 27  2  0  0  0  0
 15 18  1  0  0  0  0
 17  8  1  6  0  0  0
 17 10  1  0  0  0  0
 17  7  1  0  0  0  0
 19 16  1  0  0  0  0
 20 29  1  1  0  0  0
 20  1  1  0  0  0  0
 21 22  1  0  0  0  0
 22 14  1  0  0  0  0
 23 28  1  0  0  0  0
 26  9  1  0  0  0  0
 27  5  1  0  0  0  0
 28  9  1  0  0  0  0
 28  6  2  0  0  0  0
 29 30  1  0  0  0  0
 30 32  1  0  0  0  0
 31 30  2  0  0  0  0
M  END
>  <MODEL>
8

>  <REMARK>
 VINA RESULT:      -6.8      3.031      7.792
  Name = 
  1 active torsions:
  status: ('A' for Active; 'I' for Inactive)
    1  A    between atoms: C_20  and  N_29
                            x       y       z     vdW  Elec       q    Type
                         _______ _______ _______ _____ _____    ______ ____

>  <TORSDO>
F 1

$$$$
=
 OpenBabel11112416373D

 32 37  0  0  1  0  0  0  0  0999 V2000
  194.8780  174.3310  145.7410 C   0  0  0  0  0  2  0  0  0  0  0  0
  190.0120  174.1460  143.4470 N   0  0  0  0  0  0  0  0  0  0  0  0
  190.4880  171.9700  139.1080 C   0  0  0  0  0  2  0  0  0  0  0  0
  189.3570  172.8420  138.5290 C   0  0  0  0  0  2  0  0  0  0  0  0
  188.5810  176.2700  143.6570 C   0  0  0  0  0  0  0  0  0  0  0  0
  187.6480  177.1850  143.0090 C   0  0  0  0  0  0  0  0  0  0  0  0
  192.1030  174.8130  144.5170 C   0  0  2  0  0  3  0  0  0  0  0  0
  192.0850  173.5300  142.3310 C   0  0  0  0  0  2  0  0  0  0  0  0
  186.3050  178.0220  141.4420 N   0  0  0  0  0  0  0  0  0  0  0  0
  194.2350  174.3080  143.2610 C   0  0  0  0  0  2  0  0  0  0  0  0
  190.2670  171.5900  140.5740 C   0  0  0  0  0  2  0  0  0  0  0  0
  190.6510  173.1070  142.6340 C   0  0  2  0  0  3  0  0  0  0  0  0
  189.9030  172.8110  141.3680 C   0  0  0  0  0  0  0  0  0  0  0  0
  188.5520  174.8500  141.6420 C   0  0  0  0  0  0  0  0  0  0  0  0
  186.2150  178.9170  142.5910 C   0  0  0  0  0  2  0  0  0  0  0  0
  194.0630  175.4670  145.7610 O   0  0  0  0  0  0  0  0  0  0  0  0
  192.8490  173.7880  143.6300 C   0  0  1  0  0  3  0  0  0  0  0  0
  187.1120  178.3470  143.5460 O   0  0  0  0  0  0  0  0  0  0  0  0
  192.7640  174.9640  145.8850 C   0  0  0  0  0  2  0  0  0  0  0  0
  195.3010  173.9770  144.3130 C   0  0  1  0  0  3  0  0  0  0  0  0
  188.3240  173.3110  139.5670 C   0  0  0  0  0  2  0  0  0  0  0  0
  188.9740  173.6500  140.8840 C   0  0  0  0  0  0  0  0  0  0  0  0
  187.5330  175.7710  140.9830 C   0  0  0  0  0  2  0  0  0  0  0  0
  190.6550  174.3790  144.7360 C   0  0  0  0  0  2  0  0  0  0  0  0
  188.9600  176.5030  144.8340 O   0  0  0  0  0  0  0  0  0  0  0  0
  185.3610  177.9850  140.3400 C   0  0  0  0  0  1  0  0  0  0  0  0
  189.0490  175.0750  142.8890 C   0  0  0  0  0  0  0  0  0  0  0  0
  187.1940  176.9780  141.8050 C   0  0  0  0  0  0  0  0  0  0  0  0
  196.5400  174.6670  143.9900 N   0  0  0  0  0  2  0  0  0  0  0  0
  196.5700  175.9240  143.3120 C   0  0  0  0  0  0  0  0  0  0  0  0
  195.5030  176.4800  142.9410 O   0  0  0  0  0  0  0  0  0  0  0  0
  197.8760  176.5800  143.0390 C   0  0  0  0  0  1  0  0  0  0  0  0
  1 16  1  0  0  0  0
  2 24  1  0  0  0  0
  3 11  1  0  0  0  0
  4  3  1  0  0  0  0
  4 21  1  0  0  0  0
  5 25  2  0  0  0  0
  6 18  1  0  0  0  0
  6  5  1  0  0  0  0
  7 24  1  1  0  0  0
  7 19  1  0  0  0  0
  9 28  1  0  0  0  0
  9 15  1  0  0  0  0
 10 17  1  0  0  0  0
 10 20  1  0  0  0  0
 11 13  1  0  0  0  0
 12  8  1  6  0  0  0
 12  2  1  0  0  0  0
 13 12  1  0  0  0  0
 14 27  2  0  0  0  0
 15 18  1  0  0  0  0
 16 19  1  0  0  0  0
 17  8  1  6  0  0  0
 17  7  1  0  0  0  0
 20 29  1  6  0  0  0
 20  1  1  0  0  0  0
 21 22  1  0  0  0  0
 22 13  2  0  0  0  0
 22 14  1  0  0  0  0
 23 14  1  0  0  0  0
 23 28  1  0  0  0  0
 26  9  1  0  0  0  0
 27  2  1  0  0  0  0
 27  5  1  0  0  0  0
 28  6  2  0  0  0  0
 30 29  1  0  0  0  0
 31 30  2  0  0  0  0
 32 30  1  0  0  0  0
M  END
>  <MODEL>
9

>  <REMARK>
 VINA RESULT:      -6.7      1.446      1.734
  Name = 
  1 active torsions:
  status: ('A' for Active; 'I' for Inactive)
    1  A    between atoms: C_20  and  N_29
                            x       y       z     vdW  Elec       q    Type
                         _______ _______ _______ _____ _____    ______ ____

>  <TORSDO>
F 1

$$$$
