=
 OpenBabel11112417293D

 37 42  0  0  1  0  0  0  0  0999 V2000
  190.2960  174.9190  145.4210 C   0  0  1  0  0  3  0  0  0  0  0  0
  187.3720  175.3680  143.7500 O   0  0  0  0  0  0  0  0  0  0  0  0
  192.7550  174.3860  144.9450 C   0  0  2  0  0  3  0  0  0  0  0  0
  189.7290  175.5470  144.1820 C   0  0  2  0  0  3  0  0  0  0  0  0
  191.2900  173.9330  144.8140 C   0  0  2  0  0  3  0  0  0  0  0  0
  188.3450  176.2040  144.3240 C   0  0  2  0  0  3  0  0  0  0  0  0
  193.1210  174.6900  146.4050 C   0  0  0  0  0  2  0  0  0  0  0  0
  190.9340  173.7820  143.4010 N   0  0  0  0  0  2  0  0  0  0  0  0
  189.8950  176.5540  147.2060 N   0  0  0  0  0  2  0  0  0  0  0  0
  191.9900  175.3310  147.2210 C   0  0  0  0  0  2  0  0  0  0  0  0
  187.9240  176.7920  141.7000 C   0  0  0  0  0  2  0  0  0  0  0  0
  187.0780  175.7340  142.4040 C   0  0  1  0  0  3  0  0  0  0  0  0
  190.9200  175.9760  146.3440 C   0  0  1  0  0  3  0  0  0  0  0  0
  189.7100  174.4630  143.2080 N   0  0  2  0  0  0  0  0  0  0  0  0
  187.9420  176.6410  145.7400 C   0  0  1  0  0  3  0  0  0  0  0  0
  188.1920  175.3250  141.4100 C   0  0  2  0  0  3  0  0  0  0  0  0
  189.6470  175.0590  141.8660 C   0  0  2  0  0  3  0  0  0  0  0  0
  189.0500  177.4440  146.4190 C   0  0  0  0  0  2  0  0  0  0  0  0
  185.6710  177.0610  146.5040 C   0  0  0  0  0  3  0  0  0  0  0  0
  186.6760  177.4370  145.7090 C   0  0  0  0  0  0  0  0  0  0  0  0
  186.5590  178.6310  144.7890 C   0  0  0  0  0  2  0  0  0  0  0  0
  184.9810  180.2970  144.1300 O   0  0  0  0  0  0  0  0  0  0  0  0
  184.2030  178.8210  145.7530 N   0  0  0  0  0  0  0  0  0  0  0  0
  185.2160  179.3000  144.8600 C   0  0  0  0  0  0  0  0  0  0  0  0
  184.3950  177.7920  146.5180 C   0  0  0  0  0  3  0  0  0  0  0  0
  190.3160  174.1690  140.7980 C   0  0  0  0  0  2  0  0  0  0  0  0
  189.3650  173.5770  139.8500 N   0  0  0  0  0  0  0  0  0  0  0  0
  188.6490  173.9240  137.8560 N   0  0  0  0  0  1  0  0  0  0  0  0
  189.7860  173.8360  138.5860 O   0  0  0  0  0  0  0  0  0  0  0  0
  189.3550  172.1300  140.0290 C   0  0  0  0  0  2  0  0  0  0  0  0
  190.7130  171.6510  140.5070 C   0  0  0  0  0  2  0  0  0  0  0  0
  190.5550  170.7020  141.5180 O   0  0  0  0  0  1  0  0  0  0  0  0
  193.0000  175.5210  144.1500 O   0  0  0  0  0  0  0  0  0  0  0  0
  194.2740  175.3810  143.5620 C   0  0  0  0  0  0  0  0  0  0  0  0
  195.2230  176.1110  144.2620 F   0  0  0  0  0  0  0  0  0  0  0  0
  194.6530  174.0490  143.5100 F   0  0  0  0  0  0  0  0  0  0  0  0
  194.2180  175.8700  142.2710 F   0  0  0  0  0  0  0  0  0  0  0  0
  1 13  1  0  0  0  0
  2  6  1  0  0  0  0
  3  7  1  0  0  0  0
  4  6  1  0  0  0  0
  4  1  1  0  0  0  0
  5  3  1  0  0  0  0
  5  1  1  0  0  0  0
  6 15  1  0  0  0  0
  7 10  1  0  0  0  0
  8  5  1  0  0  0  0
 11 12  1  0  0  0  0
 12  2  1  0  0  0  0
 13  9  1  0  0  0  0
 13 10  1  0  0  0  0
 14  8  1  0  0  0  0
 14  4  1  0  0  0  0
 15 18  1  0  0  0  0
 16 11  1  0  0  0  0
 16 17  1  0  0  0  0
 16 12  1  0  0  0  0
 17 14  1  0  0  0  0
 18  9  1  0  0  0  0
 19 25  1  0  0  0  0
 20 15  1  0  0  0  0
 20 19  2  0  0  0  0
 21 24  1  0  0  0  0
 21 20  1  0  0  0  0
 22 24  2  0  0  0  0
 23 25  2  0  0  0  0
 24 23  1  0  0  0  0
 26 17  1  0  0  0  0
 27 30  1  0  0  0  0
 27 26  1  0  0  0  0
 28 29  1  0  0  0  0
 29 27  1  0  0  0  0
 30 31  1  0  0  0  0
 31 32  1  0  0  0  0
 33  3  1  0  0  0  0
 34 33  1  0  0  0  0
 34 35  1  0  0  0  0
 36 34  1  0  0  0  0
 37 34  1  0  0  0  0
M  END
>  <MODEL>
1

>  <REMARK>
 VINA RESULT:      -7.4      0.000      0.000
  Name = 
  8 active torsions:
  status: ('A' for Active; 'I' for Inactive)
    1  A    between atoms: C_1  and  N_4
    2  A    between atoms: C_1  and  C_27
    3  A    between atoms: C_2  and  O_22
    4  A    between atoms: N_4  and  C_12
    5  A    between atoms: N_4  and  O_37
    6  A    between atoms: C_6  and  O_22
    7  A    between atoms: C_8  and  C_12
    8  A    between atoms: C_23  and  C_30
                            x       y       z     vdW  Elec       q    Type
                         _______ _______ _______ _____ _____    ______ ____

>  <TORSDO>
F 8

$$$$
=
 OpenBabel11112417293D

 37 42  0  0  1  0  0  0  0  0999 V2000
  191.1010  175.2420  145.4330 C   0  0  1  0  0  3  0  0  0  0  0  0
  188.0940  175.0560  143.8620 O   0  0  0  0  0  0  0  0  0  0  0  0
  193.5980  175.0260  144.9040 C   0  0  2  0  0  3  0  0  0  0  0  0
  190.4080  175.6300  144.1600 C   0  0  2  0  0  3  0  0  0  0  0  0
  192.2150  174.3490  144.8930 C   0  0  2  0  0  3  0  0  0  0  0  0
  188.9450  176.0880  144.2930 C   0  0  2  0  0  3  0  0  0  0  0  0
  193.9560  175.5500  146.3010 C   0  0  0  0  0  2  0  0  0  0  0  0
  191.8440  173.9830  143.5240 N   0  0  0  0  0  2  0  0  0  0  0  0
  190.5110  176.9990  147.0410 N   0  0  0  0  0  2  0  0  0  0  0  0
  192.7660  176.1080  147.0930 C   0  0  0  0  0  2  0  0  0  0  0  0
  188.3610  176.2960  141.6430 C   0  0  0  0  0  2  0  0  0  0  0  0
  187.7080  175.2140  142.5000 C   0  0  1  0  0  3  0  0  0  0  0  0
  191.5850  176.4810  146.2010 C   0  0  1  0  0  3  0  0  0  0  0  0
  190.5250  174.4480  143.3150 N   0  0  2  0  0  0  0  0  0  0  0  0
  188.5240  176.6240  145.6700 C   0  0  1  0  0  3  0  0  0  0  0  0
  188.8410  174.8600  141.5060 C   0  0  2  0  0  3  0  0  0  0  0  0
  190.3330  174.8670  141.9190 C   0  0  2  0  0  3  0  0  0  0  0  0
  189.5170  177.6560  146.2010 C   0  0  0  0  0  2  0  0  0  0  0  0
  186.2190  176.7400  146.4400 C   0  0  0  0  0  3  0  0  0  0  0  0
  187.1510  177.2160  145.6090 C   0  0  0  0  0  0  0  0  0  0  0  0
  186.8490  178.3190  144.6220 C   0  0  0  0  0  2  0  0  0  0  0  0
  185.0310  179.6830  143.8890 O   0  0  0  0  0  0  0  0  0  0  0  0
  184.4970  178.2080  145.6070 N   0  0  0  0  0  0  0  0  0  0  0  0
  185.4200  178.7800  144.6730 C   0  0  0  0  0  0  0  0  0  0  0  0
  184.8470  177.2680  146.4290 C   0  0  0  0  0  3  0  0  0  0  0  0
  191.0960  173.9670  140.9270 C   0  0  0  0  0  2  0  0  0  0  0  0
  190.3790  172.7330  140.5840 N   0  0  0  0  0  0  0  0  0  0  0  0
  188.9560  172.1740  139.0770 N   0  0  0  0  0  1  0  0  0  0  0  0
  190.1990  172.6880  139.2400 O   0  0  0  0  0  0  0  0  0  0  0  0
  191.1990  171.5870  140.9620 C   0  0  0  0  0  2  0  0  0  0  0  0
  190.5230  170.8020  142.0720 C   0  0  0  0  0  2  0  0  0  0  0  0
  189.3880  171.4800  142.5140 O   0  0  0  0  0  1  0  0  0  0  0  0
  193.6430  176.0840  143.9760 O   0  0  0  0  0  0  0  0  0  0  0  0
  194.8780  176.0230  143.2980 C   0  0  0  0  0  0  0  0  0  0  0  0
  194.7290  176.3870  141.9680 F   0  0  0  0  0  0  0  0  0  0  0  0
  195.8180  176.8420  143.9050 F   0  0  0  0  0  0  0  0  0  0  0  0
  195.3400  174.7220  143.3420 F   0  0  0  0  0  0  0  0  0  0  0  0
  1 13  1  0  0  0  0
  2  6  1  0  0  0  0
  3  7  1  0  0  0  0
  4  6  1  0  0  0  0
  4  1  1  0  0  0  0
  5  3  1  0  0  0  0
  5  1  1  0  0  0  0
  6 15  1  0  0  0  0
  7 10  1  0  0  0  0
  8  5  1  0  0  0  0
 11 12  1  0  0  0  0
 12  2  1  0  0  0  0
 13  9  1  0  0  0  0
 13 10  1  0  0  0  0
 14  8  1  0  0  0  0
 14  4  1  0  0  0  0
 15 18  1  0  0  0  0
 16 11  1  0  0  0  0
 16 17  1  0  0  0  0
 16 12  1  0  0  0  0
 17 14  1  0  0  0  0
 18  9  1  0  0  0  0
 20 15  1  0  0  0  0
 20 19  2  0  0  0  0
 21 24  1  0  0  0  0
 21 20  1  0  0  0  0
 22 24  2  0  0  0  0
 23 25  2  0  0  0  0
 24 23  1  0  0  0  0
 25 19  1  0  0  0  0
 26 17  1  0  0  0  0
 27 26  1  0  0  0  0
 27 30  1  0  0  0  0
 28 29  1  0  0  0  0
 29 27  1  0  0  0  0
 30 31  1  0  0  0  0
 31 32  1  0  0  0  0
 33  3  1  0  0  0  0
 34 37  1  0  0  0  0
 34 36  1  0  0  0  0
 34 33  1  0  0  0  0
 35 34  1  0  0  0  0
M  END
>  <MODEL>
2

>  <REMARK>
 VINA RESULT:      -7.3      0.988      1.230
  Name = 
  8 active torsions:
  status: ('A' for Active; 'I' for Inactive)
    1  A    between atoms: C_1  and  N_4
    2  A    between atoms: C_1  and  C_27
    3  A    between atoms: C_2  and  O_22
    4  A    between atoms: N_4  and  C_12
    5  A    between atoms: N_4  and  O_37
    6  A    between atoms: C_6  and  O_22
    7  A    between atoms: C_8  and  C_12
    8  A    between atoms: C_23  and  C_30
                            x       y       z     vdW  Elec       q    Type
                         _______ _______ _______ _____ _____    ______ ____

>  <TORSDO>
F 8

$$$$
=
 OpenBabel11112417293D

 37 42  0  0  1  0  0  0  0  0999 V2000
  189.7310  175.2100  142.0480 C   0  0  1  0  0  3  0  0  0  0  0  0
  189.5780  177.4540  144.5950 O   0  0  0  0  0  0  0  0  0  0  0  0
  190.9490  173.0450  141.4240 C   0  0  2  0  0  3  0  0  0  0  0  0
  189.7180  175.2970  143.5460 C   0  0  2  0  0  3  0  0  0  0  0  0
  191.0770  174.5290  141.8120 C   0  0  2  0  0  3  0  0  0  0  0  0
  188.7990  176.3690  144.1580 C   0  0  2  0  0  3  0  0  0  0  0  0
  190.0310  172.8590  140.2080 C   0  0  0  0  0  2  0  0  0  0  0  0
  191.8460  174.6610  143.0520 N   0  0  0  0  0  2  0  0  0  0  0  0
  187.3730  175.3260  141.3810 N   0  0  0  0  0  2  0  0  0  0  0  0
  188.8360  173.8230  140.1640 C   0  0  0  0  0  2  0  0  0  0  0  0
  189.5570  176.0920  146.7570 C   0  0  0  0  0  2  0  0  0  0  0  0
  189.8960  177.3620  145.9800 C   0  0  1  0  0  3  0  0  0  0  0  0
  188.5150  174.4300  141.5260 C   0  0  1  0  0  3  0  0  0  0  0  0
  191.1130  175.5190  143.9030 N   0  0  2  0  0  0  0  0  0  0  0  0
  187.6260  176.8370  143.2840 C   0  0  1  0  0  3  0  0  0  0  0  0
  190.9840  176.3030  146.2800 C   0  0  2  0  0  3  0  0  0  0  0  0
  191.2880  175.1340  145.3120 C   0  0  2  0  0  3  0  0  0  0  0  0
  186.8510  175.6570  142.7020 C   0  0  0  0  0  2  0  0  0  0  0  0
  186.3290  178.8820  143.5190 C   0  0  0  0  0  3  0  0  0  0  0  0
  186.7050  177.7220  144.0630 C   0  0  0  0  0  0  0  0  0  0  0  0
  186.2300  177.2950  145.4330 C   0  0  0  0  0  2  0  0  0  0  0  0
  184.8850  178.0850  147.2420 O   0  0  0  0  0  0  0  0  0  0  0  0
  184.9860  179.5240  145.4160 N   0  0  0  0  0  0  0  0  0  0  0  0
  185.3360  178.3090  146.0890 C   0  0  0  0  0  0  0  0  0  0  0  0
  185.4330  179.8060  144.2320 C   0  0  0  0  0  3  0  0  0  0  0  0
  192.7170  174.6390  145.6110 C   0  0  0  0  0  2  0  0  0  0  0  0
  193.7310  175.6990  145.5410 N   0  0  0  0  0  0  0  0  0  0  0  0
  194.3950  177.3080  146.7970 N   0  0  0  0  0  1  0  0  0  0  0  0
  194.1670  175.9730  146.7970 O   0  0  0  0  0  0  0  0  0  0  0  0
  194.8700  175.2150  144.7700 C   0  0  0  0  0  2  0  0  0  0  0  0
  195.0950  176.0990  143.5560 C   0  0  0  0  0  2  0  0  0  0  0  0
  196.2900  176.8060  143.6960 O   0  0  0  0  0  1  0  0  0  0  0  0
  190.4620  172.2860  142.5050 O   0  0  0  0  0  0  0  0  0  0  0  0
  191.2240  171.1030  142.5910 C   0  0  0  0  0  0  0  0  0  0  0  0
  191.6080  170.8580  143.9010 F   0  0  0  0  0  0  0  0  0  0  0  0
  190.5120  170.0180  142.1020 F   0  0  0  0  0  0  0  0  0  0  0  0
  192.3640  171.2580  141.8270 F   0  0  0  0  0  0  0  0  0  0  0  0
  1  4  1  0  0  0  0
  2 12  1  0  0  0  0
  3  5  1  0  0  0  0
  3 33  1  0  0  0  0
  4 14  1  0  0  0  0
  4  6  1  0  0  0  0
  5  1  1  0  0  0  0
  5  8  1  0  0  0  0
  6  2  1  0  0  0  0
  7  3  1  0  0  0  0
  8 14  1  0  0  0  0
  9 13  1  0  0  0  0
  9 18  1  0  0  0  0
 10  7  1  0  0  0  0
 10 13  1  0  0  0  0
 12 16  1  0  0  0  0
 12 11  1  0  0  0  0
 13  1  1  0  0  0  0
 14 17  1  0  0  0  0
 15 20  1  0  0  0  0
 15  6  1  0  0  0  0
 16 11  1  0  0  0  0
 17 26  1  0  0  0  0
 17 16  1  0  0  0  0
 18 15  1  0  0  0  0
 19 20  2  0  0  0  0
 19 25  1  0  0  0  0
 20 21  1  0  0  0  0
 21 24  1  0  0  0  0
 23 24  1  0  0  0  0
 24 22  2  0  0  0  0
 25 23  2  0  0  0  0
 27 26  1  0  0  0  0
 27 29  1  0  0  0  0
 28 29  1  0  0  0  0
 30 27  1  0  0  0  0
 31 32  1  0  0  0  0
 31 30  1  0  0  0  0
 33 34  1  0  0  0  0
 34 35  1  0  0  0  0
 36 34  1  0  0  0  0
 37 34  1  0  0  0  0
M  END
>  <MODEL>
3

>  <REMARK>
 VINA RESULT:      -7.0      2.356      5.328
  Name = 
  8 active torsions:
  status: ('A' for Active; 'I' for Inactive)
    1  A    between atoms: C_1  and  N_4
    2  A    between atoms: C_1  and  C_27
    3  A    between atoms: C_2  and  O_22
    4  A    between atoms: N_4  and  C_12
    5  A    between atoms: N_4  and  O_37
    6  A    between atoms: C_6  and  O_22
    7  A    between atoms: C_8  and  C_12
    8  A    between atoms: C_23  and  C_30
                            x       y       z     vdW  Elec       q    Type
                         _______ _______ _______ _____ _____    ______ ____

>  <TORSDO>
F 8

$$$$
=
 OpenBabel11112417293D

 37 42  0  0  1  0  0  0  0  0999 V2000
  190.6740  174.2410  141.5030 C   0  0  1  0  0  3  0  0  0  0  0  0
  189.7120  177.4200  142.2210 O   0  0  0  0  0  0  0  0  0  0  0  0
  192.4170  172.5160  142.2380 C   0  0  2  0  0  3  0  0  0  0  0  0
  190.4630  175.1790  142.6540 C   0  0  2  0  0  3  0  0  0  0  0  0
  192.1570  173.9200  141.6630 C   0  0  2  0  0  3  0  0  0  0  0  0
  189.2580  176.1310  142.5460 C   0  0  2  0  0  3  0  0  0  0  0  0
  191.7170  171.4300  141.4090 C   0  0  0  0  0  2  0  0  0  0  0  0
  192.7230  174.9400  142.5490 N   0  0  0  0  0  2  0  0  0  0  0  0
  188.4480  173.3440  140.9950 N   0  0  0  0  0  2  0  0  0  0  0  0
  190.3490  171.8450  140.8500 C   0  0  0  0  0  2  0  0  0  0  0  0
  189.7440  177.6260  144.7690 C   0  0  0  0  0  2  0  0  0  0  0  0
  189.8760  178.2380  143.3760 C   0  0  1  0  0  3  0  0  0  0  0  0
  189.7380  173.0270  141.5970 C   0  0  1  0  0  3  0  0  0  0  0  0
  191.7180  175.9130  142.7530 N   0  0  2  0  0  0  0  0  0  0  0  0
  188.1220  175.6850  141.6140 C   0  0  1  0  0  3  0  0  0  0  0  0
  191.1330  177.8720  144.2020 C   0  0  2  0  0  3  0  0  0  0  0  0
  191.8070  176.4820  144.1060 C   0  0  2  0  0  3  0  0  0  0  0  0
  187.7100  174.2380  141.8790 C   0  0  0  0  0  2  0  0  0  0  0  0
  186.5180  177.2520  140.6720 C   0  0  0  0  0  3  0  0  0  0  0  0
  186.9380  176.5890  141.7530 C   0  0  0  0  0  0  0  0  0  0  0  0
  186.2540  176.7360  143.0930 C   0  0  0  0  0  2  0  0  0  0  0  0
  184.4590  177.9290  144.1190 O   0  0  0  0  0  0  0  0  0  0  0  0
  184.7270  178.3600  141.8490 N   0  0  0  0  0  0  0  0  0  0  0  0
  185.1030  177.7010  143.0630 C   0  0  0  0  0  0  0  0  0  0  0  0
  185.3670  178.1650  140.7370 C   0  0  0  0  0  3  0  0  0  0  0  0
  193.2660  176.6370  144.5820 C   0  0  0  0  0  2  0  0  0  0  0  0
  193.4430  176.3920  146.0180 N   0  0  0  0  0  0  0  0  0  0  0  0
  191.9190  176.2390  147.5220 N   0  0  0  0  0  1  0  0  0  0  0  0
  192.4400  175.5890  146.4540 O   0  0  0  0  0  0  0  0  0  0  0  0
  194.7020  175.6860  146.2270 C   0  0  0  0  0  2  0  0  0  0  0  0
  195.4580  175.5610  144.9160 C   0  0  0  0  0  2  0  0  0  0  0  0
  195.9740  174.2720  144.7850 O   0  0  0  0  0  1  0  0  0  0  0  0
  191.9910  172.4370  143.5770 O   0  0  0  0  0  0  0  0  0  0  0  0
  193.0510  171.9170  144.3480 C   0  0  0  0  0  0  0  0  0  0  0  0
  193.2400  172.6700  145.4970 F   0  0  0  0  0  0  0  0  0  0  0  0
  192.8140  170.5940  144.6880 F   0  0  0  0  0  0  0  0  0  0  0  0
  194.2090  171.9750  143.5970 F   0  0  0  0  0  0  0  0  0  0  0  0
  1 13  1  0  0  0  0
  1  5  1  0  0  0  0
  1  4  1  0  0  0  0
  2  6  1  0  0  0  0
  2 12  1  0  0  0  0
  3 33  1  0  0  0  0
  4 14  1  0  0  0  0
  5  3  1  0  0  0  0
  5  8  1  0  0  0  0
  6  4  1  0  0  0  0
  7  3  1  0  0  0  0
  8 14  1  0  0  0  0
  9 13  1  0  0  0  0
  9 18  1  0  0  0  0
 10  7  1  0  0  0  0
 10 13  1  0  0  0  0
 12 16  1  0  0  0  0
 12 11  1  0  0  0  0
 14 17  1  0  0  0  0
 15 20  1  0  0  0  0
 15 18  1  0  0  0  0
 15  6  1  0  0  0  0
 16 11  1  0  0  0  0
 17 16  1  0  0  0  0
 17 26  1  0  0  0  0
 19 25  1  0  0  0  0
 19 20  2  0  0  0  0
 20 21  1  0  0  0  0
 23 24  1  0  0  0  0
 24 21  1  0  0  0  0
 24 22  2  0  0  0  0
 25 23  2  0  0  0  0
 26 27  1  0  0  0  0
 27 30  1  0  0  0  0
 27 29  1  0  0  0  0
 29 28  1  0  0  0  0
 31 30  1  0  0  0  0
 32 31  1  0  0  0  0
 33 34  1  0  0  0  0
 34 36  1  0  0  0  0
 34 35  1  0  0  0  0
 37 34  1  0  0  0  0
M  END
>  <MODEL>
4

>  <REMARK>
 VINA RESULT:      -6.9      2.586      5.243
  Name = 
  8 active torsions:
  status: ('A' for Active; 'I' for Inactive)
    1  A    between atoms: C_1  and  N_4
    2  A    between atoms: C_1  and  C_27
    3  A    between atoms: C_2  and  O_22
    4  A    between atoms: N_4  and  C_12
    5  A    between atoms: N_4  and  O_37
    6  A    between atoms: C_6  and  O_22
    7  A    between atoms: C_8  and  C_12
    8  A    between atoms: C_23  and  C_30
                            x       y       z     vdW  Elec       q    Type
                         _______ _______ _______ _____ _____    ______ ____

>  <TORSDO>
F 8

$$$$
=
 OpenBabel11112417293D

 37 42  0  0  1  0  0  0  0  0999 V2000
  190.4720  176.2580  144.9550 C   0  0  1  0  0  3  0  0  0  0  0  0
  190.1930  174.9090  141.8490 O   0  0  0  0  0  0  0  0  0  0  0  0
  189.0180  177.4110  146.7210 C   0  0  2  0  0  3  0  0  0  0  0  0
  189.5620  175.4150  144.1120 C   0  0  2  0  0  3  0  0  0  0  0  0
  189.5540  177.4340  145.2780 C   0  0  2  0  0  3  0  0  0  0  0  0
  190.2450  174.4140  143.1630 C   0  0  2  0  0  3  0  0  0  0  0  0
  190.1590  177.3200  147.7430 C   0  0  0  0  0  2  0  0  0  0  0  0
  188.4420  177.3840  144.3260 N   0  0  0  0  0  2  0  0  0  0  0  0
  192.1570  174.7020  145.8260 N   0  0  0  0  0  2  0  0  0  0  0  0
  191.3430  176.4520  147.2960 C   0  0  0  0  0  2  0  0  0  0  0  0
  188.0260  173.5530  141.8420 C   0  0  0  0  0  2  0  0  0  0  0  0
  189.0860  174.3850  141.1220 C   0  0  1  0  0  3  0  0  0  0  0  0
  190.9740  175.4780  146.1800 C   0  0  1  0  0  3  0  0  0  0  0  0
  188.7550  176.3820  143.3790 N   0  0  2  0  0  0  0  0  0  0  0  0
  191.6700  173.9830  143.5430 C   0  0  1  0  0  3  0  0  0  0  0  0
  187.7350  175.0150  141.5430 C   0  0  2  0  0  3  0  0  0  0  0  0
  187.5360  175.7000  142.9170 C   0  0  2  0  0  3  0  0  0  0  0  0
  191.7590  173.5630  145.0090 C   0  0  0  0  0  2  0  0  0  0  0  0
  193.2910  173.0230  142.0040 C   0  0  0  0  0  3  0  0  0  0  0  0
  192.1380  172.8690  142.6610 C   0  0  0  0  0  0  0  0  0  0  0  0
  191.3090  171.6130  142.5270 C   0  0  0  0  0  2  0  0  0  0  0  0
  191.3070  169.5250  141.3680 O   0  0  0  0  0  0  0  0  0  0  0  0
  193.1560  170.8680  140.9300 N   0  0  0  0  0  0  0  0  0  0  0  0
  191.9080  170.6090  141.5830 C   0  0  0  0  0  0  0  0  0  0  0  0
  193.8080  171.9740  141.1120 C   0  0  0  0  0  3  0  0  0  0  0  0
  186.3390  176.6630  142.7890 C   0  0  0  0  0  2  0  0  0  0  0  0
  186.5310  177.7070  141.7760 N   0  0  0  0  0  0  0  0  0  0  0  0
  186.3190  177.5420  139.6460 N   0  0  0  0  0  1  0  0  0  0  0  0
  185.6050  177.5460  140.7970 O   0  0  0  0  0  0  0  0  0  0  0  0
  186.3090  179.0110  142.3900 C   0  0  0  0  0  2  0  0  0  0  0  0
  185.2820  178.8990  143.5010 C   0  0  0  0  0  2  0  0  0  0  0  0
  185.6020  179.7770  144.5370 O   0  0  0  0  0  1  0  0  0  0  0  0
  188.1300  176.3340  146.9060 O   0  0  0  0  0  0  0  0  0  0  0  0
  186.8380  176.8580  147.1100 C   0  0  0  0  0  0  0  0  0  0  0  0
  186.3120  176.4190  148.3150 F   0  0  0  0  0  0  0  0  0  0  0  0
  186.8550  178.2440  147.0840 F   0  0  0  0  0  0  0  0  0  0  0  0
  186.0170  176.4120  146.0920 F   0  0  0  0  0  0  0  0  0  0  0  0
  1  5  1  0  0  0  0
  1 13  1  0  0  0  0
  2  6  1  0  0  0  0
  3 33  1  0  0  0  0
  3  7  1  0  0  0  0
  4  1  1  0  0  0  0
  5  3  1  0  0  0  0
  6 15  1  0  0  0  0
  6  4  1  0  0  0  0
  8  5  1  0  0  0  0
  9 13  1  0  0  0  0
 10  7  1  0  0  0  0
 12 16  1  0  0  0  0
 12 11  1  0  0  0  0
 12  2  1  0  0  0  0
 13 10  1  0  0  0  0
 14  4  1  0  0  0  0
 14  8  1  0  0  0  0
 15 18  1  0  0  0  0
 16 11  1  0  0  0  0
 16 17  1  0  0  0  0
 17 14  1  0  0  0  0
 18  9  1  0  0  0  0
 19 20  2  0  0  0  0
 20 15  1  0  0  0  0
 21 20  1  0  0  0  0
 22 24  2  0  0  0  0
 23 25  2  0  0  0  0
 23 24  1  0  0  0  0
 24 21  1  0  0  0  0
 25 19  1  0  0  0  0
 26 17  1  0  0  0  0
 27 30  1  0  0  0  0
 27 26  1  0  0  0  0
 28 29  1  0  0  0  0
 29 27  1  0  0  0  0
 30 31  1  0  0  0  0
 31 32  1  0  0  0  0
 33 34  1  0  0  0  0
 34 35  1  0  0  0  0
 36 34  1  0  0  0  0
 37 34  1  0  0  0  0
M  END
>  <MODEL>
5

>  <REMARK>
 VINA RESULT:      -6.7      3.502      6.957
  Name = 
  8 active torsions:
  status: ('A' for Active; 'I' for Inactive)
    1  A    between atoms: C_1  and  N_4
    2  A    between atoms: C_1  and  C_27
    3  A    between atoms: C_2  and  O_22
    4  A    between atoms: N_4  and  C_12
    5  A    between atoms: N_4  and  O_37
    6  A    between atoms: C_6  and  O_22
    7  A    between atoms: C_8  and  C_12
    8  A    between atoms: C_23  and  C_30
                            x       y       z     vdW  Elec       q    Type
                         _______ _______ _______ _____ _____    ______ ____

>  <TORSDO>
F 8

$$$$
=
 OpenBabel11112417293D

 37 42  0  0  1  0  0  0  0  0999 V2000
  191.0640  175.1210  145.0250 C   0  0  1  0  0  3  0  0  0  0  0  0
  187.9660  174.9690  143.6370 O   0  0  0  0  0  0  0  0  0  0  0  0
  193.4970  174.5800  144.4340 C   0  0  2  0  0  3  0  0  0  0  0  0
  190.3350  175.3580  143.7350 C   0  0  2  0  0  3  0  0  0  0  0  0
  192.0620  174.0480  144.5980 C   0  0  2  0  0  3  0  0  0  0  0  0
  188.9290  175.9710  143.8500 C   0  0  2  0  0  3  0  0  0  0  0  0
  193.9810  175.2910  145.7050 C   0  0  0  0  0  2  0  0  0  0  0  0
  191.5810  173.4970  143.3280 N   0  0  0  0  0  2  0  0  0  0  0  0
  190.7250  177.1690  146.3330 N   0  0  0  0  0  2  0  0  0  0  0  0
  192.8920  176.0850  146.4410 C   0  0  0  0  0  2  0  0  0  0  0  0
  188.2120  175.7920  141.2300 C   0  0  0  0  0  2  0  0  0  0  0  0
  187.5170  174.9360  142.2860 C   0  0  1  0  0  3  0  0  0  0  0  0
  191.6990  176.4180  145.5490 C   0  0  1  0  0  3  0  0  0  0  0  0
  190.2990  174.0470  143.0990 N   0  0  2  0  0  0  0  0  0  0  0  0
  188.6370  176.7650  145.1310 C   0  0  1  0  0  3  0  0  0  0  0  0
  188.5550  174.3140  141.3190 C   0  0  2  0  0  3  0  0  0  0  0  0
  190.0630  174.2450  141.6610 C   0  0  2  0  0  3  0  0  0  0  0  0
  189.7460  177.7700  145.4360 C   0  0  0  0  0  2  0  0  0  0  0  0
  187.1150  178.2820  143.9890 C   0  0  0  0  0  3  0  0  0  0  0  0
  187.3210  177.4690  145.0290 C   0  0  0  0  0  0  0  0  0  0  0  0
  186.2670  177.2540  146.0910 C   0  0  0  0  0  2  0  0  0  0  0  0
  184.0680  177.9820  146.6740 O   0  0  0  0  0  0  0  0  0  0  0  0
  184.8940  178.8960  144.6990 N   0  0  0  0  0  0  0  0  0  0  0  0
  185.0180  178.0550  145.8520 C   0  0  0  0  0  0  0  0  0  0  0  0
  185.8490  179.0130  143.8300 C   0  0  0  0  0  3  0  0  0  0  0  0
  190.6850  173.1230  140.8050 C   0  0  0  0  0  2  0  0  0  0  0  0
  191.1050  173.5680  139.4720 N   0  0  0  0  0  0  0  0  0  0  0  0
  192.9620  172.7260  140.1420 N   0  0  0  0  0  1  0  0  0  0  0  0
  192.4440  173.7890  139.4830 O   0  0  0  0  0  0  0  0  0  0  0  0
  190.8370  172.5040  138.5100 C   0  0  0  0  0  2  0  0  0  0  0  0
  189.3890  172.5560  138.0600 C   0  0  0  0  0  2  0  0  0  0  0  0
  189.0490  173.8580  137.6920 O   0  0  0  0  0  1  0  0  0  0  0  0
  193.5820  175.4600  143.3390 O   0  0  0  0  0  0  0  0  0  0  0  0
  194.7460  175.1450  142.6090 C   0  0  0  0  0  0  0  0  0  0  0  0
  194.5750  175.4260  141.2620 F   0  0  0  0  0  0  0  0  0  0  0  0
  195.8410  175.8420  143.0970 F   0  0  0  0  0  0  0  0  0  0  0  0
  194.9950  173.7930  142.7410 F   0  0  0  0  0  0  0  0  0  0  0  0
  1 13  1  0  0  0  0
  2  6  1  0  0  0  0
  3  5  1  0  0  0  0
  3  7  1  0  0  0  0
  4  6  1  0  0  0  0
  4  1  1  0  0  0  0
  5  1  1  0  0  0  0
  6 15  1  0  0  0  0
  7 10  1  0  0  0  0
  8  5  1  0  0  0  0
 11 16  1  0  0  0  0
 11 12  1  0  0  0  0
 12  2  1  0  0  0  0
 13  9  1  0  0  0  0
 13 10  1  0  0  0  0
 14  8  1  0  0  0  0
 14  4  1  0  0  0  0
 15 18  1  0  0  0  0
 16 17  1  0  0  0  0
 16 12  1  0  0  0  0
 17 14  1  0  0  0  0
 18  9  1  0  0  0  0
 19 20  2  0  0  0  0
 20 15  1  0  0  0  0
 20 21  1  0  0  0  0
 23 24  1  0  0  0  0
 24 21  1  0  0  0  0
 24 22  2  0  0  0  0
 25 19  1  0  0  0  0
 25 23  2  0  0  0  0
 26 17  1  0  0  0  0
 27 29  1  0  0  0  0
 27 26  1  0  0  0  0
 29 28  1  0  0  0  0
 30 27  1  0  0  0  0
 31 30  1  0  0  0  0
 32 31  1  0  0  0  0
 33  3  1  0  0  0  0
 34 37  1  0  0  0  0
 34 36  1  0  0  0  0
 34 33  1  0  0  0  0
 35 34  1  0  0  0  0
M  END
>  <MODEL>
6

>  <REMARK>
 VINA RESULT:      -6.6      1.463      2.081
  Name = 
  8 active torsions:
  status: ('A' for Active; 'I' for Inactive)
    1  A    between atoms: C_1  and  N_4
    2  A    between atoms: C_1  and  C_27
    3  A    between atoms: C_2  and  O_22
    4  A    between atoms: N_4  and  C_12
    5  A    between atoms: N_4  and  O_37
    6  A    between atoms: C_6  and  O_22
    7  A    between atoms: C_8  and  C_12
    8  A    between atoms: C_23  and  C_30
                            x       y       z     vdW  Elec       q    Type
                         _______ _______ _______ _____ _____    ______ ____

>  <TORSDO>
F 8

$$$$
=
 OpenBabel11112417293D

 37 42  0  0  1  0  0  0  0  0999 V2000
  192.3110  175.8080  143.6850 C   0  0  1  0  0  3  0  0  0  0  0  0
  189.9670  175.1950  141.3030 O   0  0  0  0  0  0  0  0  0  0  0  0
  192.4580  176.4190  146.1680 C   0  0  2  0  0  3  0  0  0  0  0  0
  190.9950  175.1200  143.4730 C   0  0  2  0  0  3  0  0  0  0  0  0
  191.9390  176.8120  144.7730 C   0  0  2  0  0  3  0  0  0  0  0  0
  190.8040  174.4160  142.1190 C   0  0  2  0  0  3  0  0  0  0  0  0
  193.9730  176.1760  146.1550 C   0  0  0  0  0  2  0  0  0  0  0  0
  190.4770  176.9040  144.7880 N   0  0  0  0  0  2  0  0  0  0  0  0
  193.9980  174.2150  142.8870 N   0  0  0  0  0  2  0  0  0  0  0  0
  194.4990  175.5180  144.8720 C   0  0  0  0  0  2  0  0  0  0  0  0
  188.1860  173.7290  142.4030 C   0  0  0  0  0  2  0  0  0  0  0  0
  188.6080  174.7760  141.3750 C   0  0  1  0  0  3  0  0  0  0  0  0
  193.4040  174.8050  144.0820 C   0  0  1  0  0  3  0  0  0  0  0  0
  190.0060  176.1720  143.6740 N   0  0  2  0  0  0  0  0  0  0  0  0
  192.0870  174.0080  141.3790 C   0  0  1  0  0  3  0  0  0  0  0  0
  187.9150  175.1960  142.6940 C   0  0  2  0  0  3  0  0  0  0  0  0
  188.7160  175.5320  143.9760 C   0  0  2  0  0  3  0  0  0  0  0  0
  193.0580  173.2690  142.2990 C   0  0  0  0  0  2  0  0  0  0  0  0
  192.1990  173.5650  138.9900 C   0  0  0  0  0  3  0  0  0  0  0  0
  191.7650  173.1630  140.1880 C   0  0  0  0  0  0  0  0  0  0  0  0
  190.9640  171.8930  140.3580 C   0  0  0  0  0  2  0  0  0  0  0  0
  190.0330  170.1180  139.0600 O   0  0  0  0  0  0  0  0  0  0  0  0
  191.2210  171.6930  137.8260 N   0  0  0  0  0  0  0  0  0  0  0  0
  190.7060  171.1810  139.0610 C   0  0  0  0  0  0  0  0  0  0  0  0
  191.9120  172.7890  137.7740 C   0  0  0  0  0  3  0  0  0  0  0  0
  187.8200  176.4120  144.8690 C   0  0  0  0  0  2  0  0  0  0  0  0
  186.6470  176.9530  144.1720 N   0  0  0  0  0  0  0  0  0  0  0  0
  186.1190  176.7610  146.2440 N   0  0  0  0  0  1  0  0  0  0  0  0
  185.5810  176.9160  145.0110 O   0  0  0  0  0  0  0  0  0  0  0  0
  186.8990  178.3490  143.8330 C   0  0  0  0  0  2  0  0  0  0  0  0
  185.5960  179.0520  143.5010 C   0  0  0  0  0  2  0  0  0  0  0  0
  185.4620  180.2010  144.2800 O   0  0  0  0  0  1  0  0  0  0  0  0
  191.7980  175.2700  146.6420 O   0  0  0  0  0  0  0  0  0  0  0  0
  191.0900  175.6180  147.8100 C   0  0  0  0  0  0  0  0  0  0  0  0
  191.5710  174.9170  148.9050 F   0  0  0  0  0  0  0  0  0  0  0  0
  191.1720  176.9800  148.0520 F   0  0  0  0  0  0  0  0  0  0  0  0
  189.7600  175.2850  147.6330 F   0  0  0  0  0  0  0  0  0  0  0  0
  1 13  1  0  0  0  0
  1  5  1  0  0  0  0
  2 12  1  0  0  0  0
  2  6  1  0  0  0  0
  3 33  1  0  0  0  0
  4 14  1  0  0  0  0
  4  1  1  0  0  0  0
  5  8  1  0  0  0  0
  5  3  1  0  0  0  0
  6  4  1  0  0  0  0
  7  3  1  0  0  0  0
  9 13  1  0  0  0  0
 10  7  1  0  0  0  0
 11 16  1  0  0  0  0
 12 11  1  0  0  0  0
 12 16  1  0  0  0  0
 13 10  1  0  0  0  0
 14 17  1  0  0  0  0
 14  8  1  0  0  0  0
 15  6  1  0  0  0  0
 15 18  1  0  0  0  0
 16 17  1  0  0  0  0
 17 26  1  0  0  0  0
 18  9  1  0  0  0  0
 19 20  2  0  0  0  0
 20 21  1  0  0  0  0
 20 15  1  0  0  0  0
 22 24  2  0  0  0  0
 23 24  1  0  0  0  0
 24 21  1  0  0  0  0
 25 23  2  0  0  0  0
 25 19  1  0  0  0  0
 27 26  1  0  0  0  0
 27 29  1  0  0  0  0
 29 28  1  0  0  0  0
 30 27  1  0  0  0  0
 31 30  1  0  0  0  0
 31 32  1  0  0  0  0
 33 34  1  0  0  0  0
 34 36  1  0  0  0  0
 34 35  1  0  0  0  0
 37 34  1  0  0  0  0
M  END
>  <MODEL>
7

>  <REMARK>
 VINA RESULT:      -6.5      2.637      6.936
  Name = 
  8 active torsions:
  status: ('A' for Active; 'I' for Inactive)
    1  A    between atoms: C_1  and  N_4
    2  A    between atoms: C_1  and  C_27
    3  A    between atoms: C_2  and  O_22
    4  A    between atoms: N_4  and  C_12
    5  A    between atoms: N_4  and  O_37
    6  A    between atoms: C_6  and  O_22
    7  A    between atoms: C_8  and  C_12
    8  A    between atoms: C_23  and  C_30
                            x       y       z     vdW  Elec       q    Type
                         _______ _______ _______ _____ _____    ______ ____

>  <TORSDO>
F 8

$$$$
=
 OpenBabel11112417293D

 37 42  0  0  1  0  0  0  0  0999 V2000
  190.0260  175.2350  145.1490 C   0  0  1  0  0  3  0  0  0  0  0  0
  187.8150  174.3430  142.7270 O   0  0  0  0  0  0  0  0  0  0  0  0
  192.3870  174.6500  145.9490 C   0  0  2  0  0  3  0  0  0  0  0  0
  189.9490  174.8820  143.6930 C   0  0  2  0  0  3  0  0  0  0  0  0
  190.9630  174.1430  145.6590 C   0  0  2  0  0  3  0  0  0  0  0  0
  188.7180  175.4010  142.9300 C   0  0  2  0  0  3  0  0  0  0  0  0
  192.3740  175.8440  146.9130 C   0  0  0  0  0  2  0  0  0  0  0  0
  190.9980  173.0960  144.6350 N   0  0  0  0  0  2  0  0  0  0  0  0
  189.4310  177.6130  145.2610 N   0  0  0  0  0  2  0  0  0  0  0  0
  191.1890  176.8000  146.7210 C   0  0  0  0  0  2  0  0  0  0  0  0
  189.1620  174.1300  140.5640 C   0  0  0  0  0  2  0  0  0  0  0  0
  187.9810  173.7360  141.4480 C   0  0  1  0  0  3  0  0  0  0  0  0
  190.5400  176.6690  145.3460 C   0  0  1  0  0  3  0  0  0  0  0  0
  190.0160  173.4260  143.6740 N   0  0  2  0  0  0  0  0  0  0  0  0
  188.0160  176.6290  143.5290 C   0  0  1  0  0  3  0  0  0  0  0  0
  189.2400  172.8400  141.3640 C   0  0  2  0  0  3  0  0  0  0  0  0
  190.4390  173.0080  142.3280 C   0  0  2  0  0  3  0  0  0  0  0  0
  189.0100  177.7370  143.8700 C   0  0  0  0  0  2  0  0  0  0  0  0
  187.3140  177.3870  141.3270 C   0  0  0  0  0  3  0  0  0  0  0  0
  186.9690  177.1490  142.5950 C   0  0  0  0  0  0  0  0  0  0  0  0
  185.5650  177.3960  143.0980 C   0  0  0  0  0  2  0  0  0  0  0  0
  183.4550  178.2100  142.3320 O   0  0  0  0  0  0  0  0  0  0  0  0
  185.1150  178.1580  140.7030 N   0  0  0  0  0  0  0  0  0  0  0  0
  184.6490  177.9430  142.0400 C   0  0  0  0  0  0  0  0  0  0  0  0
  186.3400  177.9070  140.3550 C   0  0  0  0  0  3  0  0  0  0  0  0
  191.2140  171.6760  142.3460 C   0  0  0  0  0  2  0  0  0  0  0  0
  192.5410  171.7610  141.7230 N   0  0  0  0  0  0  0  0  0  0  0  0
  193.9440  173.0300  140.7100 N   0  0  0  0  0  1  0  0  0  0  0  0
  192.8260  173.0640  141.4730 O   0  0  0  0  0  0  0  0  0  0  0  0
  193.5380  171.2590  142.6610 C   0  0  0  0  0  2  0  0  0  0  0  0
  192.9150  170.2360  143.5930 C   0  0  0  0  0  2  0  0  0  0  0  0
  193.8480  169.2470  143.9090 O   0  0  0  0  0  1  0  0  0  0  0  0
  193.0400  175.0120  144.7550 O   0  0  0  0  0  0  0  0  0  0  0  0
  194.3910  174.6210  144.8560 C   0  0  0  0  0  0  0  0  0  0  0  0
  195.1750  175.6690  145.3130 F   0  0  0  0  0  0  0  0  0  0  0  0
  194.5300  173.5290  145.6990 F   0  0  0  0  0  0  0  0  0  0  0  0
  194.8390  174.2620  143.5990 F   0  0  0  0  0  0  0  0  0  0  0  0
  1 13  1  0  0  0  0
  1  5  1  0  0  0  0
  2  6  1  0  0  0  0
  3  7  1  0  0  0  0
  4  1  1  0  0  0  0
  5  3  1  0  0  0  0
  6 15  1  0  0  0  0
  6  4  1  0  0  0  0
  8  5  1  0  0  0  0
  9 13  1  0  0  0  0
 10  7  1  0  0  0  0
 11 16  1  0  0  0  0
 11 12  1  0  0  0  0
 12  2  1  0  0  0  0
 13 10  1  0  0  0  0
 14  4  1  0  0  0  0
 14  8  1  0  0  0  0
 15 18  1  0  0  0  0
 16 12  1  0  0  0  0
 16 17  1  0  0  0  0
 17 26  1  0  0  0  0
 17 14  1  0  0  0  0
 18  9  1  0  0  0  0
 19 20  2  0  0  0  0
 20 21  1  0  0  0  0
 20 15  1  0  0  0  0
 23 24  1  0  0  0  0
 24 22  2  0  0  0  0
 24 21  1  0  0  0  0
 25 23  2  0  0  0  0
 25 19  1  0  0  0  0
 27 26  1  0  0  0  0
 27 30  1  0  0  0  0
 28 29  1  0  0  0  0
 29 27  1  0  0  0  0
 30 31  1  0  0  0  0
 31 32  1  0  0  0  0
 33 34  1  0  0  0  0
 33  3  1  0  0  0  0
 34 35  1  0  0  0  0
 34 36  1  0  0  0  0
 37 34  1  0  0  0  0
M  END
>  <MODEL>
8

>  <REMARK>
 VINA RESULT:      -6.4      2.374      3.084
  Name = 
  8 active torsions:
  status: ('A' for Active; 'I' for Inactive)
    1  A    between atoms: C_1  and  N_4
    2  A    between atoms: C_1  and  C_27
    3  A    between atoms: C_2  and  O_22
    4  A    between atoms: N_4  and  C_12
    5  A    between atoms: N_4  and  O_37
    6  A    between atoms: C_6  and  O_22
    7  A    between atoms: C_8  and  C_12
    8  A    between atoms: C_23  and  C_30
                            x       y       z     vdW  Elec       q    Type
                         _______ _______ _______ _____ _____    ______ ____

>  <TORSDO>
F 8

$$$$
=
 OpenBabel11112417293D

 37 42  0  0  1  0  0  0  0  0999 V2000
  190.3960  173.6800  142.4770 C   0  0  1  0  0  3  0  0  0  0  0  0
  192.0830  173.9960  145.4100 O   0  0  0  0  0  0  0  0  0  0  0  0
  188.2680  174.5460  141.3460 C   0  0  2  0  0  3  0  0  0  0  0  0
  190.8000  174.6970  143.5030 C   0  0  2  0  0  3  0  0  0  0  0  0
  188.8750  173.7950  142.5440 C   0  0  2  0  0  3  0  0  0  0  0  0
  192.2020  174.5290  144.1150 C   0  0  2  0  0  3  0  0  0  0  0  0
  188.7040  173.9250  140.0120 C   0  0  0  0  0  2  0  0  0  0  0  0
  188.5530  174.4910  143.7920 N   0  0  0  0  0  2  0  0  0  0  0  0
  192.3490  173.4410  141.0120 N   0  0  0  0  0  2  0  0  0  0  0  0
  190.1450  173.3960  140.0010 C   0  0  0  0  0  2  0  0  0  0  0  0
  192.0400  176.4820  146.0030 C   0  0  0  0  0  2  0  0  0  0  0  0
  192.0950  175.0110  146.4090 C   0  0  1  0  0  3  0  0  0  0  0  0
  191.0060  174.0030  141.1050 C   0  0  1  0  0  3  0  0  0  0  0  0
  189.7590  174.6150  144.5190 N   0  0  2  0  0  0  0  0  0  0  0  0
  193.2180  173.7400  143.2750 C   0  0  1  0  0  3  0  0  0  0  0  0
  190.7670  175.8030  146.4810 C   0  0  2  0  0  3  0  0  0  0  0  0
  189.7780  175.8650  145.2920 C   0  0  2  0  0  3  0  0  0  0  0  0
  193.2600  174.2330  141.8310 C   0  0  0  0  0  2  0  0  0  0  0  0
  195.2600  174.9650  143.7730 C   0  0  0  0  0  3  0  0  0  0  0  0
  194.5830  173.8200  143.8840 C   0  0  0  0  0  0  0  0  0  0  0  0
  195.1610  172.6200  144.5990 C   0  0  0  0  0  2  0  0  0  0  0  0
  197.1510  171.9340  145.7260 O   0  0  0  0  0  0  0  0  0  0  0  0
  197.1870  174.1300  144.9580 N   0  0  0  0  0  0  0  0  0  0  0  0
  196.5470  172.8600  145.1260 C   0  0  0  0  0  0  0  0  0  0  0  0
  196.6100  175.1120  144.3390 C   0  0  0  0  0  3  0  0  0  0  0  0
  188.3890  176.2250  145.8590 C   0  0  0  0  0  2  0  0  0  0  0  0
  188.0170  177.6290  145.6520 N   0  0  0  0  0  0  0  0  0  0  0  0
  186.6320  178.7660  144.4700 N   0  0  0  0  0  1  0  0  0  0  0  0
  187.5560  177.7800  144.3840 O   0  0  0  0  0  0  0  0  0  0  0  0
  186.9330  177.9720  146.5650 C   0  0  0  0  0  2  0  0  0  0  0  0
  186.2240  176.7150  147.0350 C   0  0  0  0  0  2  0  0  0  0  0  0
  184.9300  176.6740  146.5170 O   0  0  0  0  0  1  0  0  0  0  0  0
  188.6300  175.9070  141.3740 O   0  0  0  0  0  0  0  0  0  0  0  0
  187.4700  176.6760  141.1520 C   0  0  0  0  0  0  0  0  0  0  0  0
  186.4380  176.2630  141.9810 F   0  0  0  0  0  0  0  0  0  0  0  0
  187.7220  178.0240  141.3560 F   0  0  0  0  0  0  0  0  0  0  0  0
  187.0690  176.5000  139.8420 F   0  0  0  0  0  0  0  0  0  0  0  0
  1  5  1  0  0  0  0
  1  4  1  0  0  0  0
  2 12  1  0  0  0  0
  3 33  1  0  0  0  0
  3  5  1  0  0  0  0
  4  6  1  0  0  0  0
  4 14  1  0  0  0  0
  5  8  1  0  0  0  0
  6  2  1  0  0  0  0
  7  3  1  0  0  0  0
  8 14  1  0  0  0  0
  9 13  1  0  0  0  0
  9 18  1  0  0  0  0
 10  7  1  0  0  0  0
 10 13  1  0  0  0  0
 11 12  1  0  0  0  0
 11 16  1  0  0  0  0
 12 16  1  0  0  0  0
 13  1  1  0  0  0  0
 14 17  1  0  0  0  0
 15 20  1  0  0  0  0
 15  6  1  0  0  0  0
 17 26  1  0  0  0  0
 17 16  1  0  0  0  0
 18 15  1  0  0  0  0
 19 20  2  0  0  0  0
 19 25  1  0  0  0  0
 20 21  1  0  0  0  0
 21 24  1  0  0  0  0
 23 24  1  0  0  0  0
 24 22  2  0  0  0  0
 25 23  2  0  0  0  0
 27 26  1  0  0  0  0
 27 30  1  0  0  0  0
 29 28  1  0  0  0  0
 29 27  1  0  0  0  0
 30 31  1  0  0  0  0
 32 31  1  0  0  0  0
 34 36  1  0  0  0  0
 34 33  1  0  0  0  0
 34 35  1  0  0  0  0
 37 34  1  0  0  0  0
M  END
>  <MODEL>
9

>  <REMARK>
 VINA RESULT:      -6.3      3.130      7.932
  Name = 
  8 active torsions:
  status: ('A' for Active; 'I' for Inactive)
    1  A    between atoms: C_1  and  N_4
    2  A    between atoms: C_1  and  C_27
    3  A    between atoms: C_2  and  O_22
    4  A    between atoms: N_4  and  C_12
    5  A    between atoms: N_4  and  O_37
    6  A    between atoms: C_6  and  O_22
    7  A    between atoms: C_8  and  C_12
    8  A    between atoms: C_23  and  C_30
                            x       y       z     vdW  Elec       q    Type
                         _______ _______ _______ _____ _____    ______ ____

>  <TORSDO>
F 8

$$$$
