=
 OpenBabel11112418073D

 34 40  0  0  1  0  0  0  0  0999 V2000
  190.9150  173.4310  141.8380 C   0  0  1  0  0  3  0  0  0  0  0  0
  188.5360  173.9320  141.9540 C   0  0  0  0  0  2  0  0  0  0  0  0
  196.7000  174.4180  144.5530 C   0  0  1  0  0  3  0  0  0  0  0  0
  193.3870  172.9900  141.8790 C   0  0  2  0  0  3  0  0  0  0  0  0
  194.9010  174.8520  142.6820 C   0  0  2  0  0  3  0  0  0  0  0  0
  196.3500  176.7580  143.6040 C   0  0  0  0  0  1  0  0  0  0  0  0
  195.7650  174.5360  145.7440 C   0  0  0  0  0  1  0  0  0  0  0  0
  197.1910  172.6730  142.7410 C   0  0  0  0  0  2  0  0  0  0  0  0
  190.0770  175.5070  142.4240 C   0  0  2  0  0  3  0  0  0  0  0  0
  189.5200  177.8300  144.6320 C   0  0  0  0  0  2  0  0  0  0  0  0
  193.6800  175.4650  143.3700 C   0  0  0  0  0  2  0  0  0  0  0  0
  195.8850  172.5990  141.9330 C   0  0  0  0  0  2  0  0  0  0  0  0
  191.3450  175.9170  143.1780 C   0  0  1  0  0  3  0  0  0  0  0  0
  187.7320  175.1670  142.3620 C   0  0  0  0  0  2  0  0  0  0  0  0
  194.7020  173.3280  142.5840 C   0  0  2  0  0  3  0  0  0  0  0  0
  196.9600  172.9360  144.2330 C   0  0  0  0  0  2  0  0  0  0  0  0
  188.6510  176.6240  144.2190 C   0  0  1  0  0  3  0  0  0  0  0  0
  192.2400  173.7680  142.5500 C   0  0  1  0  0  3  0  0  0  0  0  0
  196.2320  175.2620  143.3510 C   0  0  1  0  0  3  0  0  0  0  0  0
  192.4900  175.2270  142.5530 N   0  0  2  0  0  0  0  0  0  0  0  0
  192.0130  171.3090  141.1900 C   0  0  0  0  0  2  0  0  0  0  0  0
  190.6460  178.2480  143.7080 C   0  0  0  0  0  3  0  0  0  0  0  0
  193.1330  171.6060  141.9930 O   0  0  0  0  0  0  0  0  0  0  0  0
  191.4870  177.4090  143.0840 C   0  0  0  0  0  3  0  0  0  0  0  0
  188.7710  176.2150  142.7390 C   0  0  1  0  0  3  0  0  0  0  0  0
  190.7470  171.9140  141.8030 C   0  0  0  0  0  2  0  0  0  0  0  0
  189.8410  174.0870  142.5760 N   0  0  2  0  0  0  0  0  0  0  0  0
  188.9100  175.5450  145.0720 O   0  0  0  0  0  0  0  0  0  0  0  0
  188.9410  176.0940  146.3560 C   0  0  0  0  0  2  0  0  0  0  0  0
  192.2510  174.8150  146.5480 O   0  0  0  0  0  0  0  0  0  0  0  0
  191.0200  176.5000  147.6530 C   0  0  0  0  0  2  0  0  0  0  0  0
  190.0590  175.4570  147.1620 C   0  0  2  0  0  3  0  0  0  0  0  0
  192.3160  176.1530  146.9620 C   0  0  0  0  0  2  0  0  0  0  0  0
  190.8990  174.5870  146.2560 C   0  0  0  0  0  2  0  0  0  0  0  0
  1 26  1  1  0  0  0
  1 18  1  0  0  0  0
  1 27  1  0  0  0  0
  2 14  1  0  0  0  0
  2 27  1  0  0  0  0
  3  7  1  1  0  0  0
  4 23  1  1  0  0  0
  4 18  1  0  0  0  0
  4 15  1  0  0  0  0
  5 19  1  0  0  0  0
  5 11  1  1  0  0  0
  8 16  1  0  0  0  0
  9 27  1  0  0  0  0
  9 25  1  0  0  0  0
  9 13  1  0  0  0  0
 12 15  1  0  0  0  0
 12  8  1  0  0  0  0
 14 25  1  0  0  0  0
 15  5  1  0  0  0  0
 16  3  1  0  0  0  0
 17 10  1  0  0  0  0
 17 28  1  0  0  0  0
 18 20  1  0  0  0  0
 19  6  1  0  0  0  0
 19  3  1  0  0  0  0
 20 13  1  0  0  0  0
 20 11  1  0  0  0  0
 21 26  1  0  0  0  0
 21 23  1  0  0  0  0
 22 10  1  0  0  0  0
 24 13  1  0  0  0  0
 24 22  2  0  0  0  0
 25 17  1  0  0  0  0
 28 29  1  0  0  0  0
 29 32  1  0  0  0  0
 30 33  1  0  0  0  0
 32 31  1  0  0  0  0
 33 31  1  0  0  0  0
 34 30  1  0  0  0  0
 34 32  1  0  0  0  0
M  END
>  <MODEL>
1

>  <REMARK>
 VINA RESULT:      -7.3      0.000      0.000
  Name = 
  3 active torsions:
  status: ('A' for Active; 'I' for Inactive)
    1  A    between atoms: C_17  and  O_28
    2  A    between atoms: O_28  and  C_29
    3  A    between atoms: C_29  and  C_32
                            x       y       z     vdW  Elec       q    Type
                         _______ _______ _______ _____ _____    ______ ____

>  <TORSDO>
F 3

$$$$
=
 OpenBabel11112418073D

 34 40  0  0  1  0  0  0  0  0999 V2000
  192.4900  176.1240  146.2660 C   0  0  1  0  0  3  0  0  0  0  0  0
  194.7190  175.1480  146.3100 C   0  0  0  0  0  2  0  0  0  0  0  0
  186.9630  176.6220  142.9460 C   0  0  1  0  0  3  0  0  0  0  0  0
  190.1530  177.0240  146.0810 C   0  0  2  0  0  3  0  0  0  0  0  0
  189.2790  177.5630  143.7680 C   0  0  2  0  0  3  0  0  0  0  0  0
  188.4410  177.9870  141.3810 C   0  0  0  0  0  1  0  0  0  0  0  0
  187.4540  175.2420  142.5430 C   0  0  0  0  0  1  0  0  0  0  0  0
  186.4440  177.8430  145.1390 C   0  0  0  0  0  2  0  0  0  0  0  0
  193.8180  175.8930  144.3840 C   0  0  2  0  0  3  0  0  0  0  0  0
  194.4880  174.4850  141.5300 C   0  0  0  0  0  2  0  0  0  0  0  0
  190.3610  176.6370  143.2100 C   0  0  0  0  0  2  0  0  0  0  0  0
  187.8080  177.9410  145.8420 C   0  0  0  0  0  2  0  0  0  0  0  0
  192.6290  175.9270  143.4190 C   0  0  1  0  0  3  0  0  0  0  0  0
  195.7580  174.8280  145.2330 C   0  0  0  0  0  2  0  0  0  0  0  0
  188.9120  177.0980  145.1900 C   0  0  2  0  0  3  0  0  0  0  0  0
  186.2800  176.5560  144.3220 C   0  0  0  0  0  2  0  0  0  0  0  0
  194.9240  174.0920  142.9570 C   0  0  1  0  0  3  0  0  0  0  0  0
  191.2380  176.1950  145.3690 C   0  0  1  0  0  3  0  0  0  0  0  0
  188.0630  177.6960  142.8260 C   0  0  1  0  0  3  0  0  0  0  0  0
  191.5650  176.7430  144.0350 N   0  0  2  0  0  0  0  0  0  0  0  0
  190.9370  176.5040  148.1560 C   0  0  0  0  0  2  0  0  0  0  0  0
  193.9490  175.8830  141.3080 C   0  0  0  0  0  3  0  0  0  0  0  0
  189.8200  176.3980  147.3010 O   0  0  0  0  0  0  0  0  0  0  0  0
  193.0940  176.5210  142.1210 C   0  0  0  0  0  3  0  0  0  0  0  0
  195.1250  175.2760  143.9220 C   0  0  1  0  0  3  0  0  0  0  0  0
  192.0780  175.6200  147.6470 C   0  0  0  0  0  2  0  0  0  0  0  0
  193.4440  175.2310  145.6150 N   0  0  2  0  0  0  0  0  0  0  0  0
  194.0270  173.1530  143.4800 O   0  0  0  0  0  0  0  0  0  0  0  0
  193.5990  172.4060  142.3800 C   0  0  0  0  0  2  0  0  0  0  0  0
  190.8130  171.9640  144.5410 O   0  0  0  0  0  0  0  0  0  0  0  0
  191.1250  172.6000  142.2890 C   0  0  0  0  0  2  0  0  0  0  0  0
  192.2770  171.7300  142.6990 C   0  0  2  0  0  3  0  0  0  0  0  0
  190.4320  172.9220  143.5910 C   0  0  0  0  0  2  0  0  0  0  0  0
  192.1240  171.6070  144.1970 C   0  0  0  0  0  2  0  0  0  0  0  0
  1 26  1  1  0  0  0
  3  7  1  1  0  0  0
  3 16  1  0  0  0  0
  4 23  1  1  0  0  0
  5 11  1  6  0  0  0
  5 15  1  0  0  0  0
  6 19  1  0  0  0  0
  8 12  1  0  0  0  0
  9 27  1  0  0  0  0
 10 17  1  0  0  0  0
 11 20  1  0  0  0  0
 13 20  1  0  0  0  0
 13  9  1  0  0  0  0
 14  2  1  0  0  0  0
 15 12  1  0  0  0  0
 15  4  1  0  0  0  0
 16  8  1  0  0  0  0
 17 28  1  0  0  0  0
 17 25  1  0  0  0  0
 18  4  1  0  0  0  0
 18  1  1  0  0  0  0
 19  3  1  0  0  0  0
 19  5  1  0  0  0  0
 20 18  1  0  0  0  0
 22 10  1  0  0  0  0
 22 24  2  0  0  0  0
 23 21  1  0  0  0  0
 24 13  1  0  0  0  0
 25  9  1  0  0  0  0
 25 14  1  0  0  0  0
 26 21  1  0  0  0  0
 27  1  1  0  0  0  0
 27  2  1  0  0  0  0
 29 32  1  0  0  0  0
 29 28  1  0  0  0  0
 31 32  1  0  0  0  0
 31 33  1  0  0  0  0
 32 34  1  0  0  0  0
 33 30  1  0  0  0  0
 34 30  1  0  0  0  0
M  END
>  <MODEL>
2

>  <REMARK>
 VINA RESULT:      -7.2      1.792      6.981
  Name = 
  3 active torsions:
  status: ('A' for Active; 'I' for Inactive)
    1  A    between atoms: C_17  and  O_28
    2  A    between atoms: O_28  and  C_29
    3  A    between atoms: C_29  and  C_32
                            x       y       z     vdW  Elec       q    Type
                         _______ _______ _______ _____ _____    ______ ____

>  <TORSDO>
F 3

$$$$
=
 OpenBabel11112418073D

 34 40  0  0  1  0  0  0  0  0999 V2000
  190.4930  172.9350  140.8300 C   0  0  1  0  0  3  0  0  0  0  0  0
  192.3820  171.6380  140.0080 C   0  0  0  0  0  2  0  0  0  0  0  0
  188.5760  177.4850  145.0060 C   0  0  1  0  0  3  0  0  0  0  0  0
  188.6620  174.3730  141.7680 C   0  0  2  0  0  3  0  0  0  0  0  0
  188.7830  174.9810  144.2220 C   0  0  2  0  0  3  0  0  0  0  0  0
  189.0380  175.6290  146.6910 C   0  0  0  0  0  1  0  0  0  0  0  0
  190.0170  177.8850  144.7370 C   0  0  0  0  0  1  0  0  0  0  0  0
  186.4760  177.0520  143.6020 C   0  0  0  0  0  2  0  0  0  0  0  0
  192.1740  172.1210  142.1990 C   0  0  2  0  0  3  0  0  0  0  0  0
  194.7730  172.5880  144.0970 C   0  0  0  0  0  2  0  0  0  0  0  0
  190.2760  174.6520  144.1670 C   0  0  0  0  0  2  0  0  0  0  0  0
  186.8370  175.8140  142.7640 C   0  0  0  0  0  2  0  0  0  0  0  0
  191.9210  173.1610  143.2940 C   0  0  1  0  0  3  0  0  0  0  0  0
  193.6300  171.0470  140.6680 C   0  0  0  0  0  2  0  0  0  0  0  0
  188.3210  175.4280  142.8220 C   0  0  2  0  0  3  0  0  0  0  0  0
  187.6730  177.9730  143.8600 C   0  0  0  0  0  2  0  0  0  0  0  0
  194.6860  172.3320  142.5780 C   0  0  1  0  0  3  0  0  0  0  0  0
  190.1500  174.0000  141.8900 C   0  0  1  0  0  3  0  0  0  0  0  0
  188.4330  175.9860  145.3410 C   0  0  1  0  0  3  0  0  0  0  0  0
  190.4940  173.5320  143.2510 N   0  0  2  0  0  0  0  0  0  0  0  0
  188.5800  173.8490  139.5530 C   0  0  0  0  0  2  0  0  0  0  0  0
  193.5590  172.2690  144.9450 C   0  0  0  0  0  3  0  0  0  0  0  0
  188.4220  174.8990  140.4810 O   0  0  0  0  0  0  0  0  0  0  0  0
  192.2890  172.5510  144.6160 C   0  0  0  0  0  3  0  0  0  0  0  0
  193.5220  171.4250  142.1390 C   0  0  1  0  0  3  0  0  0  0  0  0
  190.0540  173.4430  139.4590 C   0  0  0  0  0  2  0  0  0  0  0  0
  191.9330  172.7000  140.8940 N   0  0  2  0  0  0  0  0  0  0  0  0
  194.6680  173.5550  141.8960 O   0  0  0  0  0  0  0  0  0  0  0  0
  195.6240  174.3450  142.5390 C   0  0  0  0  0  2  0  0  0  0  0  0
  192.9540  176.6690  142.8500 O   0  0  0  0  0  0  0  0  0  0  0  0
  194.9240  176.1810  144.0560 C   0  0  0  0  0  2  0  0  0  0  0  0
  195.1340  175.7790  142.6260 C   0  0  2  0  0  3  0  0  0  0  0  0
  193.4400  176.4450  144.1450 C   0  0  0  0  0  2  0  0  0  0  0  0
  193.7560  175.8770  142.0150 C   0  0  0  0  0  2  0  0  0  0  0  0
  1 26  1  6  0  0  0
  1 27  1  0  0  0  0
  1 18  1  0  0  0  0
  2 14  1  0  0  0  0
  2 27  1  0  0  0  0
  3  7  1  6  0  0  0
  3 19  1  0  0  0  0
  4 23  1  6  0  0  0
  4 18  1  0  0  0  0
  4 15  1  0  0  0  0
  5 11  1  6  0  0  0
  5 19  1  0  0  0  0
  8 16  1  0  0  0  0
  9 13  1  0  0  0  0
 10 22  1  0  0  0  0
 12 15  1  0  0  0  0
 12  8  1  0  0  0  0
 13 24  1  0  0  0  0
 14 25  1  0  0  0  0
 15  5  1  0  0  0  0
 16  3  1  0  0  0  0
 17 10  1  0  0  0  0
 18 20  1  0  0  0  0
 19  6  1  0  0  0  0
 20 13  1  0  0  0  0
 20 11  1  0  0  0  0
 21 23  1  0  0  0  0
 24 22  2  0  0  0  0
 25  9  1  0  0  0  0
 25 17  1  0  0  0  0
 26 21  1  0  0  0  0
 27  9  1  0  0  0  0
 28 29  1  0  0  0  0
 28 17  1  0  0  0  0
 29 32  1  0  0  0  0
 30 33  1  0  0  0  0
 31 33  1  0  0  0  0
 32 31  1  0  0  0  0
 34 32  1  0  0  0  0
 34 30  1  0  0  0  0
M  END
>  <MODEL>
3

>  <REMARK>
 VINA RESULT:      -7.2      1.963      6.352
  Name = 
  3 active torsions:
  status: ('A' for Active; 'I' for Inactive)
    1  A    between atoms: C_17  and  O_28
    2  A    between atoms: O_28  and  C_29
    3  A    between atoms: C_29  and  C_32
                            x       y       z     vdW  Elec       q    Type
                         _______ _______ _______ _____ _____    ______ ____

>  <TORSDO>
F 3

$$$$
=
 OpenBabel11112418073D

 34 40  0  0  1  0  0  0  0  0999 V2000
  192.3280  176.4110  146.3030 C   0  0  1  0  0  3  0  0  0  0  0  0
  194.6020  175.5560  146.4510 C   0  0  0  0  0  2  0  0  0  0  0  0
  186.8680  176.4410  142.8390 C   0  0  1  0  0  3  0  0  0  0  0  0
  189.9540  177.1780  146.0170 C   0  0  2  0  0  3  0  0  0  0  0  0
  189.1120  177.5440  143.6590 C   0  0  2  0  0  3  0  0  0  0  0  0
  188.3140  177.7930  141.2330 C   0  0  0  0  0  1  0  0  0  0  0  0
  187.4380  175.0680  142.5240 C   0  0  0  0  0  1  0  0  0  0  0  0
  186.2330  177.7500  144.9480 C   0  0  0  0  0  2  0  0  0  0  0  0
  193.7130  176.1480  144.4670 C   0  0  2  0  0  3  0  0  0  0  0  0
  194.5240  174.6230  141.7120 C   0  0  0  0  0  2  0  0  0  0  0  0
  190.2530  176.6460  143.1770 C   0  0  0  0  0  2  0  0  0  0  0  0
  187.5730  177.9570  145.6750 C   0  0  0  0  0  2  0  0  0  0  0  0
  192.5480  176.0670  143.4760 C   0  0  1  0  0  3  0  0  0  0  0  0
  195.6820  175.2330  145.4170 C   0  0  0  0  0  2  0  0  0  0  0  0
  188.7340  177.1380  145.0960 C   0  0  2  0  0  3  0  0  0  0  0  0
  186.1550  176.4140  144.2010 C   0  0  0  0  0  2  0  0  0  0  0  0
  194.9440  174.3320  143.1680 C   0  0  1  0  0  3  0  0  0  0  0  0
  191.0970  176.3690  145.3770 C   0  0  1  0  0  3  0  0  0  0  0  0
  187.9140  177.5620  142.6830 C   0  0  1  0  0  3  0  0  0  0  0  0
  191.4290  176.8600  144.0210 N   0  0  2  0  0  0  0  0  0  0  0  0
  190.7110  176.8130  148.1340 C   0  0  0  0  0  2  0  0  0  0  0  0
  193.9210  175.9770  141.4000 C   0  0  0  0  0  3  0  0  0  0  0  0
  189.6230  176.6020  147.2620 O   0  0  0  0  0  0  0  0  0  0  0  0
  193.0150  176.6130  142.1570 C   0  0  0  0  0  3  0  0  0  0  0  0
  195.0610  175.5750  144.0690 C   0  0  1  0  0  3  0  0  0  0  0  0
  191.9080  175.9620  147.7010 C   0  0  0  0  0  2  0  0  0  0  0  0
  193.3420  175.5350  145.7250 N   0  0  2  0  0  0  0  0  0  0  0  0
  194.0830  173.3770  143.7220 O   0  0  0  0  0  0  0  0  0  0  0  0
  194.8500  172.2150  143.8320 C   0  0  0  0  0  2  0  0  0  0  0  0
  195.1950  169.6110  146.2250 O   0  0  0  0  0  0  0  0  0  0  0  0
  196.3030  171.6440  145.7630 C   0  0  0  0  0  2  0  0  0  0  0  0
  194.8870  171.7560  145.2790 C   0  0  2  0  0  3  0  0  0  0  0  0
  196.4690  170.1740  146.0630 C   0  0  0  0  0  2  0  0  0  0  0  0
  194.3580  170.3440  145.3720 C   0  0  0  0  0  2  0  0  0  0  0  0
  1 26  1  1  0  0  0
  3  7  1  1  0  0  0
  3 16  1  0  0  0  0
  4 23  1  1  0  0  0
  5 11  1  6  0  0  0
  5 15  1  0  0  0  0
  6 19  1  0  0  0  0
  8 12  1  0  0  0  0
  9 27  1  0  0  0  0
 10 17  1  0  0  0  0
 11 20  1  0  0  0  0
 13 20  1  0  0  0  0
 13  9  1  0  0  0  0
 14  2  1  0  0  0  0
 15 12  1  0  0  0  0
 15  4  1  0  0  0  0
 16  8  1  0  0  0  0
 17 28  1  0  0  0  0
 17 25  1  0  0  0  0
 18  4  1  0  0  0  0
 18  1  1  0  0  0  0
 19  3  1  0  0  0  0
 19  5  1  0  0  0  0
 20 18  1  0  0  0  0
 22 10  1  0  0  0  0
 22 24  2  0  0  0  0
 23 21  1  0  0  0  0
 24 13  1  0  0  0  0
 25  9  1  0  0  0  0
 25 14  1  0  0  0  0
 26 21  1  0  0  0  0
 27  1  1  0  0  0  0
 27  2  1  0  0  0  0
 28 29  1  0  0  0  0
 29 32  1  0  0  0  0
 31 33  1  0  0  0  0
 32 34  1  0  0  0  0
 32 31  1  0  0  0  0
 33 30  1  0  0  0  0
 34 30  1  0  0  0  0
M  END
>  <MODEL>
4

>  <REMARK>
 VINA RESULT:      -7.0      2.144      7.211
  Name = 
  3 active torsions:
  status: ('A' for Active; 'I' for Inactive)
    1  A    between atoms: C_17  and  O_28
    2  A    between atoms: O_28  and  C_29
    3  A    between atoms: C_29  and  C_32
                            x       y       z     vdW  Elec       q    Type
                         _______ _______ _______ _____ _____    ______ ____

>  <TORSDO>
F 3

$$$$
=
 OpenBabel11112418073D

 34 40  0  0  1  0  0  0  0  0999 V2000
  190.4120  173.0700  142.5350 C   0  0  1  0  0  3  0  0  0  0  0  0
  188.0730  173.6860  142.2640 C   0  0  0  0  0  2  0  0  0  0  0  0
  195.9850  174.4980  145.4870 C   0  0  1  0  0  3  0  0  0  0  0  0
  192.8330  172.5500  142.9500 C   0  0  2  0  0  3  0  0  0  0  0  0
  194.3950  174.4920  143.3900 C   0  0  2  0  0  3  0  0  0  0  0  0
  195.8850  176.5100  143.9250 C   0  0  0  0  0  1  0  0  0  0  0  0
  194.9560  174.9720  146.5010 C   0  0  0  0  0  1  0  0  0  0  0  0
  196.5130  172.3120  144.2600 C   0  0  0  0  0  2  0  0  0  0  0  0
  189.6710  175.2620  142.4640 C   0  0  2  0  0  3  0  0  0  0  0  0
  189.0820  178.1140  143.9120 C   0  0  0  0  0  2  0  0  0  0  0  0
  193.1630  175.3190  143.7610 C   0  0  0  0  0  2  0  0  0  0  0  0
  195.2830  172.0800  143.3660 C   0  0  0  0  0  2  0  0  0  0  0  0
  190.8920  175.8030  143.2120 C   0  0  1  0  0  3  0  0  0  0  0  0
  187.3230  175.0190  142.2470 C   0  0  0  0  0  2  0  0  0  0  0  0
  194.0990  173.0070  143.6750 C   0  0  2  0  0  3  0  0  0  0  0  0
  196.1680  172.9750  145.5970 C   0  0  0  0  0  2  0  0  0  0  0  0
  188.1710  176.8800  143.7420 C   0  0  1  0  0  3  0  0  0  0  0  0
  191.6880  173.5280  143.2680 C   0  0  1  0  0  3  0  0  0  0  0  0
  195.6860  175.0080  144.0630 C   0  0  1  0  0  3  0  0  0  0  0  0
  192.0370  174.9220  142.9140 N   0  0  2  0  0  0  0  0  0  0  0  0
  191.4130  170.8060  142.5860 C   0  0  0  0  0  2  0  0  0  0  0  0
  190.3120  178.2190  143.0340 C   0  0  0  0  0  3  0  0  0  0  0  0
  192.4750  171.2600  143.3960 O   0  0  0  0  0  0  0  0  0  0  0  0
  191.1450  177.2080  142.7450 C   0  0  0  0  0  3  0  0  0  0  0  0
  188.3940  176.0840  142.4430 C   0  0  1  0  0  3  0  0  0  0  0  0
  190.1420  171.6080  142.8820 C   0  0  0  0  0  2  0  0  0  0  0  0
  189.3240  173.9460  142.9580 N   0  0  2  0  0  0  0  0  0  0  0  0
  188.2760  176.0590  144.8710 O   0  0  0  0  0  0  0  0  0  0  0  0
  188.1860  176.9260  145.9620 C   0  0  0  0  0  2  0  0  0  0  0  0
  185.2230  178.1790  147.4720 O   0  0  0  0  0  0  0  0  0  0  0  0
  185.7280  176.6400  145.7540 C   0  0  0  0  0  2  0  0  0  0  0  0
  186.8860  176.6810  146.7080 C   0  0  2  0  0  3  0  0  0  0  0  0
  184.8810  177.8220  146.1600 C   0  0  0  0  0  2  0  0  0  0  0  0
  186.5840  177.8660  147.5950 C   0  0  0  0  0  2  0  0  0  0  0  0
  1 26  1  1  0  0  0
  1 27  1  0  0  0  0
  1 18  1  0  0  0  0
  2 27  1  0  0  0  0
  3 16  1  0  0  0  0
  3  7  1  1  0  0  0
  4 18  1  0  0  0  0
  4 23  1  1  0  0  0
  4 15  1  0  0  0  0
  5 15  1  0  0  0  0
  5 11  1  1  0  0  0
  5 19  1  0  0  0  0
  6 19  1  0  0  0  0
  8 16  1  0  0  0  0
  9 27  1  0  0  0  0
  9 13  1  0  0  0  0
 12 15  1  0  0  0  0
 12  8  1  0  0  0  0
 14  2  1  0  0  0  0
 14 25  1  0  0  0  0
 17 10  1  0  0  0  0
 17 28  1  0  0  0  0
 19  3  1  0  0  0  0
 20 13  1  0  0  0  0
 20 18  1  0  0  0  0
 20 11  1  0  0  0  0
 21 26  1  0  0  0  0
 21 23  1  0  0  0  0
 22 10  1  0  0  0  0
 24 22  2  0  0  0  0
 24 13  1  0  0  0  0
 25  9  1  0  0  0  0
 25 17  1  0  0  0  0
 28 29  1  0  0  0  0
 29 32  1  0  0  0  0
 30 34  1  0  0  0  0
 31 33  1  0  0  0  0
 31 32  1  0  0  0  0
 32 34  1  0  0  0  0
 33 30  1  0  0  0  0
M  END
>  <MODEL>
5

>  <REMARK>
 VINA RESULT:      -6.9      1.707      2.581
  Name = 
  3 active torsions:
  status: ('A' for Active; 'I' for Inactive)
    1  A    between atoms: C_17  and  O_28
    2  A    between atoms: O_28  and  C_29
    3  A    between atoms: C_29  and  C_32
                            x       y       z     vdW  Elec       q    Type
                         _______ _______ _______ _____ _____    ______ ____

>  <TORSDO>
F 3

$$$$
=
 OpenBabel11112418073D

 34 40  0  0  1  0  0  0  0  0999 V2000
  189.1690  174.4010  141.1210 C   0  0  1  0  0  3  0  0  0  0  0  0
  187.4170  176.0410  141.5260 C   0  0  0  0  0  2  0  0  0  0  0  0
  194.3050  171.3710  143.6240 C   0  0  1  0  0  3  0  0  0  0  0  0
  191.0160  172.7170  140.8780 C   0  0  2  0  0  3  0  0  0  0  0  0
  193.1990  173.1840  142.0700 C   0  0  2  0  0  3  0  0  0  0  0  0
  195.3390  173.6900  143.3910 C   0  0  0  0  0  1  0  0  0  0  0  0
  193.4620  171.6440  144.8590 C   0  0  0  0  0  1  0  0  0  0  0  0
  193.9730  170.2000  141.3690 C   0  0  0  0  0  2  0  0  0  0  0  0
  189.5030  176.3540  142.3180 C   0  0  2  0  0  3  0  0  0  0  0  0
  190.0480  177.9170  145.1180 C   0  0  0  0  0  2  0  0  0  0  0  0
  192.4270  174.1420  142.9790 C   0  0  0  0  0  2  0  0  0  0  0  0
  192.9110  171.0560  140.6590 C   0  0  0  0  0  2  0  0  0  0  0  0
  190.7160  175.8020  143.0720 C   0  0  1  0  0  3  0  0  0  0  0  0
  187.3520  177.3500  142.3150 C   0  0  0  0  0  2  0  0  0  0  0  0
  192.2350  172.0960  141.5620 C   0  0  2  0  0  3  0  0  0  0  0  0
  193.7720  170.1320  142.8870 C   0  0  0  0  0  2  0  0  0  0  0  0
  188.7170  177.5260  144.4410 C   0  0  1  0  0  3  0  0  0  0  0  0
  190.3960  173.7720  141.8120 C   0  0  1  0  0  3  0  0  0  0  0  0
  194.4730  172.6220  142.7380 C   0  0  1  0  0  3  0  0  0  0  0  0
  191.3770  174.8060  142.2070 N   0  0  2  0  0  0  0  0  0  0  0  0
  189.0360  172.2890  139.8370 C   0  0  0  0  0  2  0  0  0  0  0  0
  191.3070  177.9000  144.2760 C   0  0  0  0  0  3  0  0  0  0  0  0
  190.0600  171.7130  140.6170 O   0  0  0  0  0  0  0  0  0  0  0  0
  191.6330  176.9470  143.3900 C   0  0  0  0  0  3  0  0  0  0  0  0
  188.7460  177.5330  142.9020 C   0  0  1  0  0  3  0  0  0  0  0  0
  188.2290  173.2840  140.6750 C   0  0  0  0  0  2  0  0  0  0  0  0
  188.5390  175.3010  142.0820 N   0  0  2  0  0  0  0  0  0  0  0  0
  188.2820  176.2930  144.9400 O   0  0  0  0  0  0  0  0  0  0  0  0
  187.6530  176.5900  146.1520 C   0  0  0  0  0  2  0  0  0  0  0  0
  184.3360  177.8110  146.5150 O   0  0  0  0  0  0  0  0  0  0  0  0
  186.4850  178.5240  147.1830 C   0  0  0  0  0  2  0  0  0  0  0  0
  186.6270  177.6900  145.9430 C   0  0  2  0  0  3  0  0  0  0  0  0
  185.0590  178.2880  147.6170 C   0  0  0  0  0  2  0  0  0  0  0  0
  185.2600  177.0740  145.7610 C   0  0  0  0  0  2  0  0  0  0  0  0
  1 26  1  1  0  0  0
  1 18  1  0  0  0  0
  1 27  1  0  0  0  0
  2 27  1  0  0  0  0
  2 14  1  0  0  0  0
  3  7  1  1  0  0  0
  4 23  1  1  0  0  0
  4 15  1  0  0  0  0
  4 18  1  0  0  0  0
  5 19  1  0  0  0  0
  5 11  1  1  0  0  0
  8 16  1  0  0  0  0
  9 25  1  0  0  0  0
  9 13  1  0  0  0  0
 12  8  1  0  0  0  0
 12 15  1  0  0  0  0
 13 24  1  0  0  0  0
 14 25  1  0  0  0  0
 15  5  1  0  0  0  0
 16  3  1  0  0  0  0
 17 28  1  0  0  0  0
 17 10  1  0  0  0  0
 18 20  1  0  0  0  0
 19  6  1  0  0  0  0
 19  3  1  0  0  0  0
 20 11  1  0  0  0  0
 20 13  1  0  0  0  0
 21 23  1  0  0  0  0
 21 26  1  0  0  0  0
 22 10  1  0  0  0  0
 24 22  2  0  0  0  0
 25 17  1  0  0  0  0
 27  9  1  0  0  0  0
 28 29  1  0  0  0  0
 30 33  1  0  0  0  0
 31 33  1  0  0  0  0
 32 29  1  0  0  0  0
 32 31  1  0  0  0  0
 34 32  1  0  0  0  0
 34 30  1  0  0  0  0
M  END
>  <MODEL>
6

>  <REMARK>
 VINA RESULT:      -6.8      2.153      3.444
  Name = 
  3 active torsions:
  status: ('A' for Active; 'I' for Inactive)
    1  A    between atoms: C_17  and  O_28
    2  A    between atoms: O_28  and  C_29
    3  A    between atoms: C_29  and  C_32
                            x       y       z     vdW  Elec       q    Type
                         _______ _______ _______ _____ _____    ______ ____

>  <TORSDO>
F 3

$$$$
=
 OpenBabel11112418073D

 34 40  0  0  1  0  0  0  0  0999 V2000
  190.4700  173.0600  140.6100 C   0  0  1  0  0  3  0  0  0  0  0  0
  192.3580  171.8600  139.6490 C   0  0  0  0  0  2  0  0  0  0  0  0
  188.6260  177.4540  144.9810 C   0  0  1  0  0  3  0  0  0  0  0  0
  188.6420  174.4020  141.6860 C   0  0  2  0  0  3  0  0  0  0  0  0
  188.8900  174.9750  144.1390 C   0  0  2  0  0  3  0  0  0  0  0  0
  189.2710  175.5930  146.6000 C   0  0  0  0  0  1  0  0  0  0  0  0
  190.0290  177.9210  144.6320 C   0  0  0  0  0  1  0  0  0  0  0  0
  186.4630  176.9530  143.7020 C   0  0  0  0  0  2  0  0  0  0  0  0
  192.2660  172.2980  141.8580 C   0  0  2  0  0  3  0  0  0  0  0  0
  194.9560  172.8470  143.6000 C   0  0  0  0  0  2  0  0  0  0  0  0
  190.3890  174.7110  143.9860 C   0  0  0  0  0  2  0  0  0  0  0  0
  186.8230  175.7460  142.8200 C   0  0  0  0  0  2  0  0  0  0  0  0
  192.0380  173.3080  142.9860 C   0  0  1  0  0  3  0  0  0  0  0  0
  193.6680  171.3140  140.2190 C   0  0  0  0  0  2  0  0  0  0  0  0
  188.3230  175.4240  142.7790 C   0  0  2  0  0  3  0  0  0  0  0  0
  187.6340  177.9210  143.9040 C   0  0  0  0  0  2  0  0  0  0  0  0
  194.7860  172.6120  142.0850 C   0  0  1  0  0  3  0  0  0  0  0  0
  190.1500  174.0920  141.7090 C   0  0  1  0  0  3  0  0  0  0  0  0
  188.5690  175.9460  145.2960 C   0  0  1  0  0  3  0  0  0  0  0  0
  190.5960  173.6170  143.0370 N   0  0  2  0  0  0  0  0  0  0  0  0
  188.4440  173.9110  139.4710 C   0  0  0  0  0  2  0  0  0  0  0  0
  193.8120  172.4610  144.5150 C   0  0  0  0  0  3  0  0  0  0  0  0
  188.3000  174.9380  140.4270 O   0  0  0  0  0  0  0  0  0  0  0  0
  192.5130  172.6930  144.2700 C   0  0  0  0  0  3  0  0  0  0  0  0
  193.6350  171.6620  141.7010 C   0  0  1  0  0  3  0  0  0  0  0  0
  189.9250  173.5720  139.2790 C   0  0  0  0  0  2  0  0  0  0  0  0
  191.9200  172.8870  140.5810 N   0  0  2  0  0  0  0  0  0  0  0  0
  194.6740  173.8440  141.4290 O   0  0  0  0  0  0  0  0  0  0  0  0
  195.8980  174.0240  140.7800 C   0  0  0  0  0  2  0  0  0  0  0  0
  196.1650  176.8040  142.9770 O   0  0  0  0  0  0  0  0  0  0  0  0
  197.6730  175.3030  141.9520 C   0  0  0  0  0  2  0  0  0  0  0  0
  196.4480  175.4040  141.0920 C   0  0  2  0  0  3  0  0  0  0  0  0
  197.2690  175.9800  143.2400 C   0  0  0  0  0  2  0  0  0  0  0  0
  195.4600  176.1560  141.9530 C   0  0  0  0  0  2  0  0  0  0  0  0
  1 26  1  6  0  0  0
  1 18  1  0  0  0  0
  2 14  1  0  0  0  0
  2 27  1  0  0  0  0
  3  7  1  6  0  0  0
  3 19  1  0  0  0  0
  4 23  1  6  0  0  0
  4 18  1  0  0  0  0
  4 15  1  0  0  0  0
  5 11  1  6  0  0  0
  5 19  1  0  0  0  0
  8 16  1  0  0  0  0
  9 13  1  0  0  0  0
 10 22  1  0  0  0  0
 12  8  1  0  0  0  0
 13 20  1  0  0  0  0
 13 24  1  0  0  0  0
 14 25  1  0  0  0  0
 15 12  1  0  0  0  0
 15  5  1  0  0  0  0
 16  3  1  0  0  0  0
 17 10  1  0  0  0  0
 18 20  1  0  0  0  0
 19  6  1  0  0  0  0
 20 11  1  0  0  0  0
 21 23  1  0  0  0  0
 24 22  2  0  0  0  0
 25  9  1  0  0  0  0
 25 17  1  0  0  0  0
 26 21  1  0  0  0  0
 27  1  1  0  0  0  0
 27  9  1  0  0  0  0
 28 17  1  0  0  0  0
 29 32  1  0  0  0  0
 29 28  1  0  0  0  0
 30 33  1  0  0  0  0
 31 33  1  0  0  0  0
 32 31  1  0  0  0  0
 32 34  1  0  0  0  0
 34 30  1  0  0  0  0
M  END
>  <MODEL>
7

>  <REMARK>
 VINA RESULT:      -6.7      2.083      6.699
  Name = 
  3 active torsions:
  status: ('A' for Active; 'I' for Inactive)
    1  A    between atoms: C_17  and  O_28
    2  A    between atoms: O_28  and  C_29
    3  A    between atoms: C_29  and  C_32
                            x       y       z     vdW  Elec       q    Type
                         _______ _______ _______ _____ _____    ______ ____

>  <TORSDO>
F 3

$$$$
=
 OpenBabel11112418073D

 34 40  0  0  1  0  0  0  0  0999 V2000
  191.9250  172.3940  142.8460 C   0  0  1  0  0  3  0  0  0  0  0  0
  194.1620  171.4670  143.0950 C   0  0  0  0  0  2  0  0  0  0  0  0
  188.3310  177.7640  143.0940 C   0  0  1  0  0  3  0  0  0  0  0  0
  189.6910  173.5120  142.5970 C   0  0  2  0  0  3  0  0  0  0  0  0
  189.1910  175.4880  144.0980 C   0  0  2  0  0  3  0  0  0  0  0  0
  188.8090  177.5410  145.5880 C   0  0  0  0  0  1  0  0  0  0  0  0
  189.6860  178.3060  142.6710 C   0  0  0  0  0  1  0  0  0  0  0  0
  186.6880  175.9950  142.2350 C   0  0  0  0  0  2  0  0  0  0  0  0
  193.4240  173.0970  144.4640 C   0  0  2  0  0  3  0  0  0  0  0  0
  195.4400  175.3330  145.6950 C   0  0  0  0  0  2  0  0  0  0  0  0
  190.7000  175.6330  144.3070 C   0  0  0  0  0  2  0  0  0  0  0  0
  187.4520  174.6700  142.3910 C   0  0  0  0  0  2  0  0  0  0  0  0
  192.7520  174.4630  144.6340 C   0  0  1  0  0  3  0  0  0  0  0  0
  195.3440  171.7830  144.0130 C   0  0  0  0  0  2  0  0  0  0  0  0
  188.9410  174.8390  142.7230 C   0  0  2  0  0  3  0  0  0  0  0  0
  187.5980  177.1750  141.8770 C   0  0  0  0  0  2  0  0  0  0  0  0
  195.7140  174.1960  144.6880 C   0  0  1  0  0  3  0  0  0  0  0  0
  191.1690  173.7310  142.9700 C   0  0  1  0  0  3  0  0  0  0  0  0
  188.4290  176.8150  144.3050 C   0  0  1  0  0  3  0  0  0  0  0  0
  191.3180  174.3070  144.3240 N   0  0  2  0  0  0  0  0  0  0  0  0
  190.1640  171.7550  141.2280 C   0  0  0  0  0  2  0  0  0  0  0  0
  194.1700  175.2670  146.5170 C   0  0  0  0  0  3  0  0  0  0  0  0
  189.6150  173.0530  141.2650 O   0  0  0  0  0  0  0  0  0  0  0  0
  192.9620  174.9170  146.0490 C   0  0  0  0  0  3  0  0  0  0  0  0
  194.8680  172.9260  144.8990 C   0  0  1  0  0  3  0  0  0  0  0  0
  191.6770  171.8140  141.4550 C   0  0  0  0  0  2  0  0  0  0  0  0
  193.3400  172.6660  143.0850 N   0  0  2  0  0  0  0  0  0  0  0  0
  195.5880  174.6840  143.3830 O   0  0  0  0  0  0  0  0  0  0  0  0
  196.0390  176.0050  143.4420 C   0  0  0  0  0  2  0  0  0  0  0  0
  196.7920  175.4230  140.0180 O   0  0  0  0  0  0  0  0  0  0  0  0
  195.0160  176.4140  141.2170 C   0  0  0  0  0  2  0  0  0  0  0  0
  196.2660  176.5360  142.0380 C   0  0  2  0  0  3  0  0  0  0  0  0
  195.3940  175.4490  140.1200 C   0  0  0  0  0  2  0  0  0  0  0  0
  197.2590  175.6510  141.3200 C   0  0  0  0  0  2  0  0  0  0  0  0
  1 26  1  6  0  0  0
  1 18  1  0  0  0  0
  1 27  1  0  0  0  0
  2 14  1  0  0  0  0
  3  7  1  6  0  0  0
  3 19  1  0  0  0  0
  4 23  1  6  0  0  0
  4 15  1  0  0  0  0
  4 18  1  0  0  0  0
  5 19  1  0  0  0  0
  5 11  1  6  0  0  0
  8 12  1  0  0  0  0
  9 13  1  0  0  0  0
  9 25  1  0  0  0  0
 10 22  1  0  0  0  0
 11 20  1  0  0  0  0
 12 15  1  0  0  0  0
 13 24  1  0  0  0  0
 14 25  1  0  0  0  0
 15  5  1  0  0  0  0
 16  8  1  0  0  0  0
 16  3  1  0  0  0  0
 17 25  1  0  0  0  0
 17 10  1  0  0  0  0
 18 20  1  0  0  0  0
 19  6  1  0  0  0  0
 20 13  1  0  0  0  0
 21 23  1  0  0  0  0
 21 26  1  0  0  0  0
 24 22  2  0  0  0  0
 27  2  1  0  0  0  0
 27  9  1  0  0  0  0
 28 29  1  0  0  0  0
 28 17  1  0  0  0  0
 30 33  1  0  0  0  0
 30 34  1  0  0  0  0
 31 32  1  0  0  0  0
 32 29  1  0  0  0  0
 33 31  1  0  0  0  0
 34 32  1  0  0  0  0
M  END
>  <MODEL>
8

>  <REMARK>
 VINA RESULT:      -6.6      2.095      6.574
  Name = 
  3 active torsions:
  status: ('A' for Active; 'I' for Inactive)
    1  A    between atoms: C_17  and  O_28
    2  A    between atoms: O_28  and  C_29
    3  A    between atoms: C_29  and  C_32
                            x       y       z     vdW  Elec       q    Type
                         _______ _______ _______ _____ _____    ______ ____

>  <TORSDO>
F 3

$$$$
=
 OpenBabel11112418073D

 34 40  0  0  1  0  0  0  0  0999 V2000
  193.8360  175.4680  144.5090 C   0  0  1  0  0  3  0  0  0  0  0  0
  193.5470  176.7630  146.5500 C   0  0  0  0  0  2  0  0  0  0  0  0
  190.8310  172.6370  139.5330 C   0  0  1  0  0  3  0  0  0  0  0  0
  193.9610  174.1620  142.3690 C   0  0  2  0  0  3  0  0  0  0  0  0
  192.0690  172.5630  141.8530 C   0  0  2  0  0  3  0  0  0  0  0  0
  190.0620  171.0410  141.3660 C   0  0  0  0  0  1  0  0  0  0  0  0
  189.8950  173.7900  139.8570 C   0  0  0  0  0  1  0  0  0  0  0  0
  193.3120  172.3650  138.9530 C   0  0  0  0  0  2  0  0  0  0  0  0
  192.0920  175.1340  145.9950 C   0  0  2  0  0  3  0  0  0  0  0  0
  188.9400  175.3280  146.7710 C   0  0  0  0  0  2  0  0  0  0  0  0
  191.2120  173.3540  142.8430 C   0  0  0  0  0  2  0  0  0  0  0  0
  194.0430  172.8180  140.2280 C   0  0  0  0  0  2  0  0  0  0  0  0
  191.1880  174.4870  144.9420 C   0  0  1  0  0  3  0  0  0  0  0  0
  192.4810  176.7900  147.6460 C   0  0  0  0  0  2  0  0  0  0  0  0
  193.1380  173.5010  141.2620 C   0  0  2  0  0  3  0  0  0  0  0  0
  192.0170  173.1430  138.6950 C   0  0  0  0  0  2  0  0  0  0  0  0
  190.0770  176.3500  146.9780 C   0  0  1  0  0  3  0  0  0  0  0  0
  193.0070  174.8040  143.3930 C   0  0  1  0  0  3  0  0  0  0  0  0
  191.2270  171.8310  140.7860 C   0  0  1  0  0  3  0  0  0  0  0  0
  192.0510  173.8210  143.9480 N   0  0  2  0  0  0  0  0  0  0  0  0
  195.6420  175.6300  142.8250 C   0  0  0  0  0  2  0  0  0  0  0  0
  189.3160  173.8910  146.4730 C   0  0  0  0  0  3  0  0  0  0  0  0
  194.7800  175.1660  141.8100 O   0  0  0  0  0  0  0  0  0  0  0  0
  190.2890  173.5040  145.6350 C   0  0  0  0  0  3  0  0  0  0  0  0
  191.4630  175.7320  147.2410 C   0  0  1  0  0  3  0  0  0  0  0  0
  194.8500  176.4160  143.8730 C   0  0  0  0  0  2  0  0  0  0  0  0
  192.9050  176.1680  145.3890 N   0  0  2  0  0  0  0  0  0  0  0  0
  190.1110  177.2410  145.8980 O   0  0  0  0  0  0  0  0  0  0  0  0
  188.7730  177.5410  145.6330 C   0  0  0  0  0  2  0  0  0  0  0  0
  189.5550  176.5230  142.3200 O   0  0  0  0  0  0  0  0  0  0  0  0
  187.6040  176.6180  143.6460 C   0  0  0  0  0  2  0  0  0  0  0  0
  188.5600  177.6670  144.1350 C   0  0  2  0  0  3  0  0  0  0  0  0
  188.4380  175.7730  142.7140 C   0  0  0  0  0  2  0  0  0  0  0  0
  189.8490  177.3470  143.4160 C   0  0  0  0  0  2  0  0  0  0  0  0
  1 26  1  6  0  0  0
  1 27  1  0  0  0  0
  2 14  1  0  0  0  0
  3  7  1  1  0  0  0
  3 19  1  0  0  0  0
  4 23  1  6  0  0  0
  4 18  1  0  0  0  0
  5 11  1  1  0  0  0
  8 12  1  0  0  0  0
  9 25  1  0  0  0  0
 10 17  1  0  0  0  0
 11 20  1  0  0  0  0
 12 15  1  0  0  0  0
 13 24  1  0  0  0  0
 13  9  1  0  0  0  0
 15  5  1  0  0  0  0
 15  4  1  0  0  0  0
 16  8  1  0  0  0  0
 16  3  1  0  0  0  0
 17 25  1  0  0  0  0
 18 20  1  0  0  0  0
 18  1  1  0  0  0  0
 19  6  1  0  0  0  0
 19  5  1  0  0  0  0
 20 13  1  0  0  0  0
 21 26  1  0  0  0  0
 22 10  1  0  0  0  0
 23 21  1  0  0  0  0
 24 22  2  0  0  0  0
 25 14  1  0  0  0  0
 27  9  1  0  0  0  0
 27  2  1  0  0  0  0
 28 17  1  0  0  0  0
 29 28  1  0  0  0  0
 30 33  1  0  0  0  0
 30 34  1  0  0  0  0
 31 32  1  0  0  0  0
 32 29  1  0  0  0  0
 33 31  1  0  0  0  0
 34 32  1  0  0  0  0
M  END
>  <MODEL>
9

>  <REMARK>
 VINA RESULT:      -6.5      1.866      5.069
  Name = 
  3 active torsions:
  status: ('A' for Active; 'I' for Inactive)
    1  A    between atoms: C_17  and  O_28
    2  A    between atoms: O_28  and  C_29
    3  A    between atoms: C_29  and  C_32
                            x       y       z     vdW  Elec       q    Type
                         _______ _______ _______ _____ _____    ______ ____

>  <TORSDO>
F 3

$$$$
