=
 OpenBabel11112416463D

 31 35  0  0  1  0  0  0  0  0999 V2000
  184.9290  177.8740  146.7790 C   0  0  0  0  0  0  0  0  0  0  0  0
  186.6040  176.7730  143.6680 N   0  0  0  0  0  0  0  0  0  0  0  0
  185.8010  177.2560  142.5610 C   0  0  0  0  0  0  0  0  0  0  0  0
  183.7710  178.2790  141.6880 C   0  0  0  0  0  0  0  0  0  0  0  0
  186.4020  177.2310  145.0220 C   0  0  0  0  0  0  0  0  0  0  0  0
  186.0060  178.0970  147.6360 C   0  0  0  0  0  3  0  0  0  0  0  0
  184.5300  177.8190  142.7660 C   0  0  0  0  0  3  0  0  0  0  0  0
  189.0130  176.7420  143.9680 C   0  0  0  0  0  0  0  0  0  0  0  0
  183.6630  178.0810  147.2140 F   0  0  0  0  0  0  0  0  0  0  0  0
  187.6660  176.6270  140.9940 C   0  0  0  0  0  2  0  0  0  0  0  0
  182.4280  178.8700  141.9250 C   0  0  0  0  0  1  0  0  0  0  0  0
  188.9320  177.2180  145.3950 C   0  0  0  0  0  2  0  0  0  0  0  0
  187.8280  175.9920  143.4280 C   0  0  2  0  0  3  0  0  0  0  0  0
  190.0710  176.9200  143.2270 N   0  0  0  0  0  0  0  0  0  0  0  0
  185.1470  177.4490  145.5050 N   0  0  0  0  0  0  0  0  0  0  0  0
  184.2760  178.1890  140.3890 C   0  0  0  0  0  3  0  0  0  0  0  0
  187.5170  177.4420  145.8640 C   0  0  0  0  0  0  0  0  0  0  0  0
  187.3030  177.8780  147.1720 C   0  0  0  0  0  3  0  0  0  0  0  0
  187.9700  175.5080  141.9760 C   0  0  0  0  0  2  0  0  0  0  0  0
  186.2950  177.1610  141.2440 C   0  0  0  0  0  0  0  0  0  0  0  0
  185.5380  177.6360  140.1690 C   0  0  0  0  0  3  0  0  0  0  0  0
  191.3240  178.8290  143.8020 O   0  0  0  0  0  0  0  0  0  0  0  0
  191.2940  177.5880  143.5820 C   0  0  0  0  0  0  0  0  0  0  0  0
  191.9560  173.9790  143.5090 C   0  0  0  0  0  0  0  0  0  0  0  0
  192.8560  176.0140  142.3960 C   0  0  0  0  0  2  0  0  0  0  0  0
  192.3860  176.6180  146.0810 O   0  0  0  0  0  1  0  0  0  0  0  0
  191.7310  172.7210  143.4350 N   0  0  0  0  0  2  0  0  0  0  0  0
  191.9370  174.7990  142.2550 C   0  0  0  0  0  2  0  0  0  0  0  0
  192.6650  175.9000  144.9170 C   0  0  2  0  0  3  0  0  0  0  0  0
  192.5720  176.8080  143.6770 C   0  0  2  0  0  3  0  0  0  0  0  0
  191.7500  174.6780  144.8190 C   0  0  0  0  0  2  0  0  0  0  0  0
  1  9  1  0  0  0  0
  1  6  1  0  0  0  0
  2  5  1  0  0  0  0
  3  7  1  0  0  0  0
  3  2  1  0  0  0  0
  4 11  1  0  0  0  0
  4  7  2  0  0  0  0
  5 15  1  0  0  0  0
  5 17  2  0  0  0  0
  8 12  1  0  0  0  0
 10 20  1  0  0  0  0
 10 19  1  0  0  0  0
 12 17  1  0  0  0  0
 13 19  1  6  0  0  0
 13  2  1  0  0  0  0
 13  8  1  0  0  0  0
 14 23  1  0  0  0  0
 14  8  2  0  0  0  0
 15  1  2  0  0  0  0
 16  4  1  0  0  0  0
 17 18  1  0  0  0  0
 18  6  2  0  0  0  0
 20  3  2  0  0  0  0
 21 16  2  0  0  0  0
 21 20  1  0  0  0  0
 23 22  2  0  0  0  0
 24 31  1  0  0  0  0
 25 30  1  0  0  0  0
 27 24  2  0  0  0  0
 28 25  1  0  0  0  0
 28 24  1  0  0  0  0
 29 26  1  1  0  0  0
 30 23  1  6  0  0  0
 30 29  1  0  0  0  0
 31 29  1  0  0  0  0
M  END
>  <MODEL>
1

>  <REMARK>
 VINA RESULT:      -8.8      0.000      0.000
  Name = 
  2 active torsions:
  status: ('A' for Active; 'I' for Inactive)
    1  A    between atoms: C_5  and  N_16
    2  A    between atoms: C_5  and  C_30
                            x       y       z     vdW  Elec       q    Type
                         _______ _______ _______ _____ _____    ______ ____

>  <TORSDO>
F 2

$$$$
=
 OpenBabel11112416463D

 31 35  0  0  1  0  0  0  0  0999 V2000
  184.7540  178.2420  146.0350 C   0  0  0  0  0  0  0  0  0  0  0  0
  186.9890  176.3900  143.7420 N   0  0  0  0  0  0  0  0  0  0  0  0
  186.6370  176.7890  142.3930 C   0  0  0  0  0  0  0  0  0  0  0  0
  185.1700  177.9370  140.8240 C   0  0  0  0  0  0  0  0  0  0  0  0
  186.5080  177.0970  144.9040 C   0  0  0  0  0  0  0  0  0  0  0  0
  185.5690  178.4470  147.1490 C   0  0  0  0  0  3  0  0  0  0  0  0
  185.4930  177.5610  142.1300 C   0  0  0  0  0  3  0  0  0  0  0  0
  189.1650  176.0540  144.7660 C   0  0  0  0  0  0  0  0  0  0  0  0
  183.4810  178.7060  146.0350 F   0  0  0  0  0  0  0  0  0  0  0  0
  188.7100  175.6330  141.5580 C   0  0  0  0  0  2  0  0  0  0  0  0
  183.9540  178.7520  140.5670 C   0  0  0  0  0  1  0  0  0  0  0  0
  188.7800  176.7740  146.0320 C   0  0  0  0  0  2  0  0  0  0  0  0
  188.0580  175.4060  143.9820 C   0  0  2  0  0  3  0  0  0  0  0  0
  190.4020  175.9440  144.3680 N   0  0  0  0  0  0  0  0  0  0  0  0
  185.2340  177.5780  144.9500 N   0  0  0  0  0  0  0  0  0  0  0  0
  185.9920  177.5530  139.7630 C   0  0  0  0  0  3  0  0  0  0  0  0
  187.3610  177.2820  146.0150 C   0  0  0  0  0  0  0  0  0  0  0  0
  186.8770  177.9620  147.1330 C   0  0  0  0  0  3  0  0  0  0  0  0
  188.5060  174.6660  142.7130 C   0  0  0  0  0  2  0  0  0  0  0  0
  187.4530  176.3990  141.3110 C   0  0  0  0  0  0  0  0  0  0  0  0
  187.1350  176.7900  140.0070 C   0  0  0  0  0  3  0  0  0  0  0  0
  192.1130  177.5450  144.5980 O   0  0  0  0  0  0  0  0  0  0  0  0
  191.5810  176.4740  144.9980 C   0  0  0  0  0  0  0  0  0  0  0  0
  194.9920  175.2160  145.4980 C   0  0  0  0  0  0  0  0  0  0  0  0
  193.3400  176.5510  146.7940 C   0  0  0  0  0  2  0  0  0  0  0  0
  191.6750  173.5870  145.1790 O   0  0  0  0  0  1  0  0  0  0  0  0
  196.2250  174.9680  145.2570 N   0  0  0  0  0  2  0  0  0  0  0  0
  194.5950  176.5980  145.9210 C   0  0  0  0  0  2  0  0  0  0  0  0
  192.6930  174.3190  145.7910 C   0  0  2  0  0  3  0  0  0  0  0  0
  192.2130  175.7390  146.1430 C   0  0  2  0  0  3  0  0  0  0  0  0
  193.9420  174.3240  144.9080 C   0  0  0  0  0  2  0  0  0  0  0  0
  1  9  1  0  0  0  0
  1  6  1  0  0  0  0
  2 13  1  0  0  0  0
  2  5  1  0  0  0  0
  3  2  1  0  0  0  0
  4  7  2  0  0  0  0
  5 15  1  0  0  0  0
  5 17  2  0  0  0  0
  7  3  1  0  0  0  0
  8 12  1  0  0  0  0
 10 19  1  0  0  0  0
 11  4  1  0  0  0  0
 13 19  1  6  0  0  0
 13  8  1  0  0  0  0
 14  8  2  0  0  0  0
 14 23  1  0  0  0  0
 15  1  2  0  0  0  0
 16 21  2  0  0  0  0
 16  4  1  0  0  0  0
 17 12  1  0  0  0  0
 17 18  1  0  0  0  0
 18  6  2  0  0  0  0
 20 10  1  0  0  0  0
 20  3  2  0  0  0  0
 21 20  1  0  0  0  0
 22 23  2  0  0  0  0
 24 28  1  0  0  0  0
 27 24  2  0  0  0  0
 28 25  1  0  0  0  0
 29 26  1  6  0  0  0
 29 30  1  0  0  0  0
 30 23  1  6  0  0  0
 30 25  1  0  0  0  0
 31 24  1  0  0  0  0
 31 29  1  0  0  0  0
M  END
>  <MODEL>
2

>  <REMARK>
 VINA RESULT:      -8.8      1.632      2.202
  Name = 
  2 active torsions:
  status: ('A' for Active; 'I' for Inactive)
    1  A    between atoms: C_5  and  N_16
    2  A    between atoms: C_5  and  C_30
                            x       y       z     vdW  Elec       q    Type
                         _______ _______ _______ _____ _____    ______ ____

>  <TORSDO>
F 2

$$$$
=
 OpenBabel11112416463D

 31 35  0  0  1  0  0  0  0  0999 V2000
  186.1240  177.9200  141.0000 C   0  0  0  0  0  0  0  0  0  0  0  0
  188.0580  177.5420  144.1320 N   0  0  0  0  0  0  0  0  0  0  0  0
  187.1340  177.7580  145.2290 C   0  0  0  0  0  0  0  0  0  0  0  0
  184.9570  178.4420  146.0780 C   0  0  0  0  0  0  0  0  0  0  0  0
  187.6080  177.3540  142.7730 C   0  0  0  0  0  0  0  0  0  0  0  0
  186.7490  177.0080  140.1490 C   0  0  0  0  0  3  0  0  0  0  0  0
  185.8330  178.2410  145.0090 C   0  0  0  0  0  3  0  0  0  0  0  0
  189.8080  175.8820  143.8530 C   0  0  0  0  0  0  0  0  0  0  0  0
  185.0780  178.6550  140.5520 F   0  0  0  0  0  0  0  0  0  0  0  0
  188.8910  176.9060  146.8160 C   0  0  0  0  0  2  0  0  0  0  0  0
  183.5860  178.9570  145.8250 C   0  0  0  0  0  1  0  0  0  0  0  0
  189.4330  175.5970  142.4210 C   0  0  0  0  0  2  0  0  0  0  0  0
  189.4770  177.2470  144.3880 C   0  0  2  0  0  3  0  0  0  0  0  0
  190.4330  175.0160  144.6010 N   0  0  0  0  0  0  0  0  0  0  0  0
  186.5630  178.0730  142.2780 N   0  0  0  0  0  0  0  0  0  0  0  0
  185.3670  178.1550  147.3810 C   0  0  0  0  0  3  0  0  0  0  0  0
  188.2690  176.4240  141.9380 C   0  0  0  0  0  0  0  0  0  0  0  0
  187.8260  176.2590  140.6260 C   0  0  0  0  0  3  0  0  0  0  0  0
  189.9010  177.4950  145.8440 C   0  0  0  0  0  2  0  0  0  0  0  0
  187.5390  177.4810  146.5500 C   0  0  0  0  0  0  0  0  0  0  0  0
  186.6540  177.6700  147.6160 C   0  0  0  0  0  3  0  0  0  0  0  0
  190.0040  172.7790  144.0060 O   0  0  0  0  0  0  0  0  0  0  0  0
  190.8460  173.6840  144.2520 C   0  0  0  0  0  0  0  0  0  0  0  0
  193.8460  175.7610  144.6450 C   0  0  0  0  0  0  0  0  0  0  0  0
  193.0070  173.5930  145.5340 C   0  0  0  0  0  2  0  0  0  0  0  0
  192.4160  173.8220  141.8230 O   0  0  0  0  0  1  0  0  0  0  0  0
  194.5660  176.8010  144.8450 N   0  0  0  0  0  2  0  0  0  0  0  0
  193.2000  175.0840  145.8160 C   0  0  0  0  0  2  0  0  0  0  0  0
  193.0650  174.0300  143.0420 C   0  0  2  0  0  3  0  0  0  0  0  0
  192.3070  173.3450  144.1920 C   0  0  2  0  0  3  0  0  0  0  0  0
  193.2690  175.5270  143.2810 C   0  0  0  0  0  2  0  0  0  0  0  0
  1 15  1  0  0  0  0
  2 13  1  0  0  0  0
  2  3  1  0  0  0  0
  3 20  1  0  0  0  0
  4 16  2  0  0  0  0
  5  2  1  0  0  0  0
  6 18  1  0  0  0  0
  6  1  2  0  0  0  0
  7  3  2  0  0  0  0
  7  4  1  0  0  0  0
  8 13  1  0  0  0  0
  8 14  2  0  0  0  0
  9  1  1  0  0  0  0
 11  4  1  0  0  0  0
 12  8  1  0  0  0  0
 13 19  1  1  0  0  0
 15  5  2  0  0  0  0
 16 21  1  0  0  0  0
 17 12  1  0  0  0  0
 17  5  1  0  0  0  0
 18 17  2  0  0  0  0
 19 10  1  0  0  0  0
 20 10  1  0  0  0  0
 20 21  2  0  0  0  0
 22 23  2  0  0  0  0
 23 14  1  0  0  0  0
 24 27  2  0  0  0  0
 24 28  1  0  0  0  0
 25 28  1  0  0  0  0
 29 26  1  6  0  0  0
 29 31  1  0  0  0  0
 29 30  1  0  0  0  0
 30 23  1  1  0  0  0
 30 25  1  0  0  0  0
 31 24  1  0  0  0  0
M  END
>  <MODEL>
3

>  <REMARK>
 VINA RESULT:      -8.7      2.459      4.636
  Name = 
  2 active torsions:
  status: ('A' for Active; 'I' for Inactive)
    1  A    between atoms: C_5  and  N_16
    2  A    between atoms: C_5  and  C_30
                            x       y       z     vdW  Elec       q    Type
                         _______ _______ _______ _____ _____    ______ ____

>  <TORSDO>
F 2

$$$$
=
 OpenBabel11112416463D

 31 35  0  0  1  0  0  0  0  0999 V2000
  185.4150  178.3060  140.9030 C   0  0  0  0  0  0  0  0  0  0  0  0
  187.8490  177.7740  143.6380 N   0  0  0  0  0  0  0  0  0  0  0  0
  187.1160  177.8800  144.8840 C   0  0  0  0  0  0  0  0  0  0  0  0
  185.0960  178.4290  146.1280 C   0  0  0  0  0  0  0  0  0  0  0  0
  187.1850  177.6670  142.3610 C   0  0  0  0  0  0  0  0  0  0  0  0
  185.9100  177.4770  139.8950 C   0  0  0  0  0  3  0  0  0  0  0  0
  185.7870  178.3330  144.9180 C   0  0  0  0  0  3  0  0  0  0  0  0
  189.5650  176.1980  142.9510 C   0  0  0  0  0  0  0  0  0  0  0  0
  184.2930  179.0340  140.6890 F   0  0  0  0  0  0  0  0  0  0  0  0
  189.1300  176.9800  146.0930 C   0  0  0  0  0  2  0  0  0  0  0  0
  183.6910  178.9130  146.1430 C   0  0  0  0  0  1  0  0  0  0  0  0
  188.9640  176.0020  141.5840 C   0  0  0  0  0  2  0  0  0  0  0  0
  189.2980  177.5100  143.6350 C   0  0  2  0  0  3  0  0  0  0  0  0
  190.3240  175.3040  143.5200 N   0  0  0  0  0  0  0  0  0  0  0  0
  186.0560  178.3830  142.0990 N   0  0  0  0  0  0  0  0  0  0  0  0
  185.7220  178.0650  147.3210 C   0  0  0  0  0  3  0  0  0  0  0  0
  187.7170  176.8210  141.3620 C   0  0  0  0  0  0  0  0  0  0  0  0
  187.0660  176.7340  140.1310 C   0  0  0  0  0  3  0  0  0  0  0  0
  189.9520  177.6690  145.0160 C   0  0  0  0  0  2  0  0  0  0  0  0
  187.7410  177.5260  146.0970 C   0  0  0  0  0  0  0  0  0  0  0  0
  187.0410  177.6080  147.3050 C   0  0  0  0  0  3  0  0  0  0  0  0
  191.4620  173.9030  142.0090 O   0  0  0  0  0  0  0  0  0  0  0  0
  190.7030  174.0140  143.0090 C   0  0  0  0  0  0  0  0  0  0  0  0
  191.2320  170.4640  142.2440 C   0  0  0  0  0  0  0  0  0  0  0  0
  191.2990  171.9180  144.2630 C   0  0  0  0  0  2  0  0  0  0  0  0
  188.2670  172.6930  142.1710 O   0  0  0  0  0  1  0  0  0  0  0  0
  191.6780  169.4190  141.6540 N   0  0  0  0  0  2  0  0  0  0  0  0
  192.1260  171.2050  143.1910 C   0  0  0  0  0  2  0  0  0  0  0  0
  189.2770  171.9160  142.7410 C   0  0  2  0  0  3  0  0  0  0  0  0
  190.1750  172.7670  143.6560 C   0  0  2  0  0  3  0  0  0  0  0  0
  190.0670  171.1950  141.6480 C   0  0  0  0  0  2  0  0  0  0  0  0
  1 15  1  0  0  0  0
  2  3  1  0  0  0  0
  3  7  2  0  0  0  0
  3 20  1  0  0  0  0
  4 11  1  0  0  0  0
  4 16  2  0  0  0  0
  5  2  1  0  0  0  0
  6 18  1  0  0  0  0
  6  1  2  0  0  0  0
  7  4  1  0  0  0  0
  8 14  2  0  0  0  0
  8 13  1  0  0  0  0
  9  1  1  0  0  0  0
 10 20  1  0  0  0  0
 12  8  1  0  0  0  0
 13  2  1  0  0  0  0
 13 19  1  1  0  0  0
 15  5  2  0  0  0  0
 17 12  1  0  0  0  0
 17  5  1  0  0  0  0
 18 17  2  0  0  0  0
 19 10  1  0  0  0  0
 20 21  2  0  0  0  0
 21 16  1  0  0  0  0
 22 23  2  0  0  0  0
 23 14  1  0  0  0  0
 24 28  1  0  0  0  0
 27 24  2  0  0  0  0
 28 25  1  0  0  0  0
 29 26  1  6  0  0  0
 29 30  1  0  0  0  0
 30 23  1  6  0  0  0
 30 25  1  0  0  0  0
 31 24  1  0  0  0  0
 31 29  1  0  0  0  0
M  END
>  <MODEL>
4

>  <REMARK>
 VINA RESULT:      -8.3      2.659      4.827
  Name = 
  2 active torsions:
  status: ('A' for Active; 'I' for Inactive)
    1  A    between atoms: C_5  and  N_16
    2  A    between atoms: C_5  and  C_30
                            x       y       z     vdW  Elec       q    Type
                         _______ _______ _______ _____ _____    ______ ____

>  <TORSDO>
F 2

$$$$
=
 OpenBabel11112416463D

 31 35  0  0  1  0  0  0  0  0999 V2000
  186.4210  177.5290  147.1560 C   0  0  0  0  0  0  0  0  0  0  0  0
  189.2490  177.4400  144.7720 N   0  0  0  0  0  0  0  0  0  0  0  0
  190.4320  177.0800  145.5310 C   0  0  0  0  0  0  0  0  0  0  0  0
  191.5650  176.6820  147.6500 C   0  0  0  0  0  0  0  0  0  0  0  0
  187.9190  177.3170  145.3180 C   0  0  0  0  0  0  0  0  0  0  0  0
  185.3520  177.1000  146.3690 C   0  0  0  0  0  3  0  0  0  0  0  0
  190.4160  177.0310  146.9350 C   0  0  0  0  0  3  0  0  0  0  0  0
  188.4950  176.6920  142.5880 C   0  0  0  0  0  0  0  0  0  0  0  0
  186.2180  177.8470  148.4570 F   0  0  0  0  0  0  0  0  0  0  0  0
  191.6670  176.7520  143.3640 C   0  0  0  0  0  2  0  0  0  0  0  0
  191.5290  176.6380  149.1350 C   0  0  0  0  0  1  0  0  0  0  0  0
  187.0670  176.5250  143.0400 C   0  0  0  0  0  2  0  0  0  0  0  0
  189.3320  177.7000  143.3260 C   0  0  2  0  0  3  0  0  0  0  0  0
  188.9930  176.0380  141.5770 N   0  0  0  0  0  0  0  0  0  0  0  0
  187.6660  177.6290  146.6200 N   0  0  0  0  0  0  0  0  0  0  0  0
  192.7430  176.3700  146.9690 C   0  0  0  0  0  3  0  0  0  0  0  0
  186.8590  176.8840  144.4900 C   0  0  0  0  0  0  0  0  0  0  0  0
  185.5770  176.7780  145.0310 C   0  0  0  0  0  3  0  0  0  0  0  0
  190.7720  177.8500  142.8120 C   0  0  0  0  0  2  0  0  0  0  0  0
  191.6310  176.7730  144.8570 C   0  0  0  0  0  0  0  0  0  0  0  0
  192.7740  176.4100  145.5740 C   0  0  0  0  0  3  0  0  0  0  0  0
  187.4800  175.4010  139.8900 O   0  0  0  0  0  0  0  0  0  0  0  0
  188.3380  175.0630  140.7490 C   0  0  0  0  0  0  0  0  0  0  0  0
  190.8940  173.3390  142.7410 C   0  0  0  0  0  0  0  0  0  0  0  0
  188.4440  173.1300  142.3540 C   0  0  0  0  0  2  0  0  0  0  0  0
  190.2590  173.6600  139.0990 O   0  0  0  0  0  1  0  0  0  0  0  0
  191.8750  173.1740  143.5460 N   0  0  0  0  0  2  0  0  0  0  0  0
  189.5350  173.6400  143.2970 C   0  0  0  0  0  2  0  0  0  0  0  0
  190.0560  173.2080  140.4050 C   0  0  2  0  0  3  0  0  0  0  0  0
  188.6580  173.6050  140.9120 C   0  0  2  0  0  3  0  0  0  0  0  0
  191.1770  173.7110  141.3160 C   0  0  0  0  0  2  0  0  0  0  0  0
  1  9  1  0  0  0  0
  2  5  1  0  0  0  0
  2  3  1  0  0  0  0
  3  7  1  0  0  0  0
  4 11  1  0  0  0  0
  5 15  2  0  0  0  0
  6  1  2  0  0  0  0
  7  4  2  0  0  0  0
  8 12  1  0  0  0  0
  8 13  1  0  0  0  0
 10 20  1  0  0  0  0
 12 17  1  0  0  0  0
 13 19  1  6  0  0  0
 13  2  1  0  0  0  0
 14  8  2  0  0  0  0
 15  1  1  0  0  0  0
 16  4  1  0  0  0  0
 17 18  2  0  0  0  0
 17  5  1  0  0  0  0
 18  6  1  0  0  0  0
 19 10  1  0  0  0  0
 20  3  2  0  0  0  0
 20 21  1  0  0  0  0
 21 16  2  0  0  0  0
 22 23  2  0  0  0  0
 23 14  1  0  0  0  0
 24 28  1  0  0  0  0
 24 27  2  0  0  0  0
 25 28  1  0  0  0  0
 29 26  1  6  0  0  0
 29 30  1  0  0  0  0
 29 31  1  0  0  0  0
 30 23  1  1  0  0  0
 30 25  1  0  0  0  0
 31 24  1  0  0  0  0
M  END
>  <MODEL>
5

>  <REMARK>
 VINA RESULT:      -8.2      2.790      5.424
  Name = 
  2 active torsions:
  status: ('A' for Active; 'I' for Inactive)
    1  A    between atoms: C_5  and  N_16
    2  A    between atoms: C_5  and  C_30
                            x       y       z     vdW  Elec       q    Type
                         _______ _______ _______ _____ _____    ______ ____

>  <TORSDO>
F 2

$$$$
=
 OpenBabel11112416463D

 31 35  0  0  1  0  0  0  0  0999 V2000
  194.1540  175.8390  145.0660 C   0  0  0  0  0  0  0  0  0  0  0  0
  190.7630  176.3100  143.6610 N   0  0  0  0  0  0  0  0  0  0  0  0
  190.6290  175.3800  142.5570 C   0  0  0  0  0  0  0  0  0  0  0  0
  191.5820  173.7660  141.0030 C   0  0  0  0  0  0  0  0  0  0  0  0
  191.8510  176.2300  144.6070 C   0  0  0  0  0  0  0  0  0  0  0  0
  193.9540  176.0910  146.4230 C   0  0  0  0  0  3  0  0  0  0  0  0
  191.7300  174.6580  142.0670 C   0  0  0  0  0  3  0  0  0  0  0  0
  189.1940  176.9060  145.4160 C   0  0  0  0  0  0  0  0  0  0  0  0
  195.3890  175.5170  144.6120 F   0  0  0  0  0  0  0  0  0  0  0  0
  188.1660  175.8900  142.4860 C   0  0  0  0  0  2  0  0  0  0  0  0
  192.7590  173.0130  140.4970 C   0  0  0  0  0  1  0  0  0  0  0  0
  190.2440  176.8540  146.4950 C   0  0  0  0  0  2  0  0  0  0  0  0
  189.6610  177.2180  144.0210 C   0  0  2  0  0  3  0  0  0  0  0  0
  187.9250  176.7370  145.6610 N   0  0  0  0  0  0  0  0  0  0  0  0
  193.1110  175.9140  144.1970 N   0  0  0  0  0  0  0  0  0  0  0  0
  190.3280  173.5780  140.4180 C   0  0  0  0  0  3  0  0  0  0  0  0
  191.6120  176.4970  145.9740 C   0  0  0  0  0  0  0  0  0  0  0  0
  192.6760  176.4210  146.8740 C   0  0  0  0  0  3  0  0  0  0  0  0
  188.5500  177.2820  142.9620 C   0  0  0  0  0  2  0  0  0  0  0  0
  189.3700  175.1890  141.9510 C   0  0  0  0  0  0  0  0  0  0  0  0
  189.2230  174.2840  140.8960 C   0  0  0  0  0  3  0  0  0  0  0  0
  187.8160  175.6540  147.7480 O   0  0  0  0  0  0  0  0  0  0  0  0
  187.3000  176.4580  146.9250 C   0  0  0  0  0  0  0  0  0  0  0  0
  185.2790  178.9630  145.1620 C   0  0  0  0  0  0  0  0  0  0  0  0
  184.8920  176.7700  146.2730 C   0  0  0  0  0  2  0  0  0  0  0  0
  187.1170  178.9510  148.3850 O   0  0  0  0  0  1  0  0  0  0  0  0
  184.9190  179.7860  144.2500 N   0  0  0  0  0  2  0  0  0  0  0  0
  185.0800  177.4940  144.9390 C   0  0  0  0  0  2  0  0  0  0  0  0
  186.0960  178.6360  147.4860 C   0  0  2  0  0  3  0  0  0  0  0  0
  185.9980  177.1140  147.2780 C   0  0  2  0  0  3  0  0  0  0  0  0
  186.2960  179.3960  146.1740 C   0  0  0  0  0  2  0  0  0  0  0  0
  1  6  1  0  0  0  0
  2 13  1  0  0  0  0
  2  5  1  0  0  0  0
  3  2  1  0  0  0  0
  4  7  2  0  0  0  0
  5 17  2  0  0  0  0
  6 18  2  0  0  0  0
  7  3  1  0  0  0  0
  8 14  2  0  0  0  0
  8 12  1  0  0  0  0
  9  1  1  0  0  0  0
 10 19  1  0  0  0  0
 11  4  1  0  0  0  0
 13 19  1  6  0  0  0
 13  8  1  0  0  0  0
 14 23  1  0  0  0  0
 15  5  1  0  0  0  0
 15  1  2  0  0  0  0
 16 21  2  0  0  0  0
 16  4  1  0  0  0  0
 17 12  1  0  0  0  0
 17 18  1  0  0  0  0
 20 10  1  0  0  0  0
 20  3  2  0  0  0  0
 21 20  1  0  0  0  0
 23 22  2  0  0  0  0
 24 31  1  0  0  0  0
 25 30  1  0  0  0  0
 27 24  2  0  0  0  0
 28 24  1  0  0  0  0
 28 25  1  0  0  0  0
 29 26  1  1  0  0  0
 30 23  1  6  0  0  0
 30 29  1  0  0  0  0
 31 29  1  0  0  0  0
M  END
>  <MODEL>
6

>  <REMARK>
 VINA RESULT:      -8.2      3.375      6.951
  Name = 
  2 active torsions:
  status: ('A' for Active; 'I' for Inactive)
    1  A    between atoms: C_5  and  N_16
    2  A    between atoms: C_5  and  C_30
                            x       y       z     vdW  Elec       q    Type
                         _______ _______ _______ _____ _____    ______ ____

>  <TORSDO>
F 2

$$$$
=
 OpenBabel11112416463D

 31 35  0  0  1  0  0  0  0  0999 V2000
  186.1310  177.9210  140.9480 C   0  0  0  0  0  0  0  0  0  0  0  0
  188.0720  177.5650  144.0770 N   0  0  0  0  0  0  0  0  0  0  0  0
  187.1540  177.8030  145.1750 C   0  0  0  0  0  0  0  0  0  0  0  0
  184.9860  178.5170  146.0220 C   0  0  0  0  0  0  0  0  0  0  0  0
  187.6160  177.3640  142.7230 C   0  0  0  0  0  0  0  0  0  0  0  0
  186.7450  176.9920  140.1070 C   0  0  0  0  0  3  0  0  0  0  0  0
  185.8570  178.2950  144.9530 C   0  0  0  0  0  3  0  0  0  0  0  0
  189.8070  175.8870  143.8140 C   0  0  0  0  0  0  0  0  0  0  0  0
  185.0900  178.6590  140.4940 F   0  0  0  0  0  0  0  0  0  0  0  0
  188.9090  176.9570  146.7670 C   0  0  0  0  0  2  0  0  0  0  0  0
  183.6180  179.0410  145.7680 C   0  0  0  0  0  1  0  0  0  0  0  0
  189.4240  175.5870  142.3870 C   0  0  0  0  0  2  0  0  0  0  0  0
  189.4900  177.2620  144.3320 C   0  0  2  0  0  3  0  0  0  0  0  0
  190.4270  175.0260  144.5710 N   0  0  0  0  0  0  0  0  0  0  0  0
  186.5750  178.0860  142.2220 N   0  0  0  0  0  0  0  0  0  0  0  0
  185.3980  178.2440  147.3280 C   0  0  0  0  0  3  0  0  0  0  0  0
  188.2650  176.4180  141.8980 C   0  0  0  0  0  0  0  0  0  0  0  0
  187.8160  176.2400  140.5890 C   0  0  0  0  0  3  0  0  0  0  0  0
  189.9210  177.5250  145.7840 C   0  0  0  0  0  2  0  0  0  0  0  0
  187.5610  177.5410  146.4990 C   0  0  0  0  0  0  0  0  0  0  0  0
  186.6820  177.7500  147.5640 C   0  0  0  0  0  3  0  0  0  0  0  0
  190.1730  172.6860  144.6390 O   0  0  0  0  0  0  0  0  0  0  0  0
  190.8270  173.6860  144.2370 C   0  0  0  0  0  0  0  0  0  0  0  0
  193.3710  171.0420  144.3390 C   0  0  0  0  0  0  0  0  0  0  0  0
  191.9740  172.1540  142.6060 C   0  0  0  0  0  2  0  0  0  0  0  0
  193.4410  174.6990  144.9580 O   0  0  0  0  0  1  0  0  0  0  0  0
  193.9810  169.9800  144.7130 N   0  0  0  0  0  2  0  0  0  0  0  0
  192.1420  170.9170  143.4910 C   0  0  0  0  0  2  0  0  0  0  0  0
  193.3730  173.5240  144.2090 C   0  0  2  0  0  3  0  0  0  0  0  0
  192.0590  173.4560  143.4110 C   0  0  2  0  0  3  0  0  0  0  0  0
  193.5730  172.3090  145.1160 C   0  0  0  0  0  2  0  0  0  0  0  0
  1 15  1  0  0  0  0
  2 13  1  0  0  0  0
  2  3  1  0  0  0  0
  3 20  1  0  0  0  0
  4 16  2  0  0  0  0
  5  2  1  0  0  0  0
  6 18  1  0  0  0  0
  6  1  2  0  0  0  0
  7  3  2  0  0  0  0
  7  4  1  0  0  0  0
  8 13  1  0  0  0  0
  8 14  2  0  0  0  0
  9  1  1  0  0  0  0
 11  4  1  0  0  0  0
 12  8  1  0  0  0  0
 13 19  1  1  0  0  0
 15  5  2  0  0  0  0
 16 21  1  0  0  0  0
 17 12  1  0  0  0  0
 17  5  1  0  0  0  0
 18 17  2  0  0  0  0
 19 10  1  0  0  0  0
 20 10  1  0  0  0  0
 20 21  2  0  0  0  0
 23 14  1  0  0  0  0
 23 22  2  0  0  0  0
 24 27  2  0  0  0  0
 24 31  1  0  0  0  0
 25 30  1  0  0  0  0
 25 28  1  0  0  0  0
 28 24  1  0  0  0  0
 29 26  1  1  0  0  0
 29 31  1  0  0  0  0
 30 29  1  0  0  0  0
 30 23  1  1  0  0  0
M  END
>  <MODEL>
7

>  <REMARK>
 VINA RESULT:      -8.1      2.419      4.555
  Name = 
  2 active torsions:
  status: ('A' for Active; 'I' for Inactive)
    1  A    between atoms: C_5  and  N_16
    2  A    between atoms: C_5  and  C_30
                            x       y       z     vdW  Elec       q    Type
                         _______ _______ _______ _____ _____    ______ ____

>  <TORSDO>
F 2

$$$$
=
 OpenBabel11112416463D

 31 35  0  0  1  0  0  0  0  0999 V2000
  192.1480  170.6500  142.9910 C   0  0  0  0  0  0  0  0  0  0  0  0
  191.4830  173.5920  145.1340 N   0  0  0  0  0  0  0  0  0  0  0  0
  192.7700  174.1660  145.4770 C   0  0  0  0  0  0  0  0  0  0  0  0
  195.2030  174.0700  145.5180 C   0  0  0  0  0  0  0  0  0  0  0  0
  191.3360  172.5920  144.1040 C   0  0  0  0  0  0  0  0  0  0  0  0
  191.0490  170.6510  142.1310 C   0  0  0  0  0  3  0  0  0  0  0  0
  193.9720  173.5020  145.1810 C   0  0  0  0  0  3  0  0  0  0  0  0
  189.4050  174.6660  144.4800 C   0  0  0  0  0  0  0  0  0  0  0  0
  193.0980  169.6930  142.8720 F   0  0  0  0  0  0  0  0  0  0  0  0
  191.5760  176.1810  146.3940 C   0  0  0  0  0  2  0  0  0  0  0  0
  196.4640  173.3510  145.2000 C   0  0  0  0  0  1  0  0  0  0  0  0
  189.1420  173.6800  143.3710 C   0  0  0  0  0  2  0  0  0  0  0  0
  190.2340  174.1850  145.6390 C   0  0  2  0  0  3  0  0  0  0  0  0
  188.9110  175.8720  144.4810 N   0  0  0  0  0  0  0  0  0  0  0  0
  192.2650  171.6080  143.9490 N   0  0  0  0  0  0  0  0  0  0  0  0
  195.2480  175.3150  146.1490 C   0  0  0  0  0  3  0  0  0  0  0  0
  190.2080  172.6220  143.2530 C   0  0  0  0  0  0  0  0  0  0  0  0
  190.0780  171.6430  142.2670 C   0  0  0  0  0  3  0  0  0  0  0  0
  190.4540  175.2200  146.7540 C   0  0  0  0  0  2  0  0  0  0  0  0
  192.8290  175.4180  146.1230 C   0  0  0  0  0  0  0  0  0  0  0  0
  194.0630  175.9900  146.4450 C   0  0  0  0  0  3  0  0  0  0  0  0
  188.5890  177.0370  142.4610 O   0  0  0  0  0  0  0  0  0  0  0  0
  188.0860  176.4880  143.4770 C   0  0  0  0  0  0  0  0  0  0  0  0
  185.7210  179.2410  144.0240 C   0  0  0  0  0  0  0  0  0  0  0  0
  185.9020  177.2740  142.5100 C   0  0  0  0  0  2  0  0  0  0  0  0
  186.7620  176.3080  146.0450 O   0  0  0  0  0  1  0  0  0  0  0  0
  185.2900  180.4340  144.1930 N   0  0  0  0  0  2  0  0  0  0  0  0
  186.0920  178.7860  142.6460 C   0  0  0  0  0  2  0  0  0  0  0  0
  186.1160  176.9960  145.0170 C   0  0  2  0  0  3  0  0  0  0  0  0
  186.5940  176.5010  143.6400 C   0  0  2  0  0  3  0  0  0  0  0  0
  186.3000  178.5040  145.1950 C   0  0  0  0  0  2  0  0  0  0  0  0
  1 15  1  0  0  0  0
  2  3  1  0  0  0  0
  2 13  1  0  0  0  0
  3 20  1  0  0  0  0
  4 16  2  0  0  0  0
  5  2  1  0  0  0  0
  6 18  1  0  0  0  0
  6  1  2  0  0  0  0
  7  3  2  0  0  0  0
  7  4  1  0  0  0  0
  8 14  2  0  0  0  0
  8 13  1  0  0  0  0
  9  1  1  0  0  0  0
 10 19  1  0  0  0  0
 11  4  1  0  0  0  0
 12  8  1  0  0  0  0
 13 19  1  1  0  0  0
 15  5  2  0  0  0  0
 16 21  1  0  0  0  0
 17 12  1  0  0  0  0
 17  5  1  0  0  0  0
 18 17  2  0  0  0  0
 20 10  1  0  0  0  0
 20 21  2  0  0  0  0
 22 23  2  0  0  0  0
 23 14  1  0  0  0  0
 24 27  2  0  0  0  0
 24 31  1  0  0  0  0
 25 28  1  0  0  0  0
 25 30  1  0  0  0  0
 28 24  1  0  0  0  0
 29 31  1  0  0  0  0
 29 26  1  1  0  0  0
 30 23  1  1  0  0  0
 30 29  1  0  0  0  0
M  END
>  <MODEL>
8

>  <REMARK>
 VINA RESULT:      -8.1      3.478      8.377
  Name = 
  2 active torsions:
  status: ('A' for Active; 'I' for Inactive)
    1  A    between atoms: C_5  and  N_16
    2  A    between atoms: C_5  and  C_30
                            x       y       z     vdW  Elec       q    Type
                         _______ _______ _______ _____ _____    ______ ____

>  <TORSDO>
F 2

$$$$
=
 OpenBabel11112416463D

 31 35  0  0  1  0  0  0  0  0999 V2000
  185.1680  177.2630  146.5880 C   0  0  0  0  0  0  0  0  0  0  0  0
  186.7210  176.2520  143.3860 N   0  0  0  0  0  0  0  0  0  0  0  0
  185.9990  176.9360  142.3300 C   0  0  0  0  0  0  0  0  0  0  0  0
  184.1290  178.2910  141.5600 C   0  0  0  0  0  0  0  0  0  0  0  0
  186.5650  176.6030  144.7770 C   0  0  0  0  0  0  0  0  0  0  0  0
  186.2550  177.2640  147.4620 C   0  0  0  0  0  3  0  0  0  0  0  0
  184.8100  177.6370  142.5890 C   0  0  0  0  0  3  0  0  0  0  0  0
  189.1030  175.8810  143.6780 C   0  0  0  0  0  0  0  0  0  0  0  0
  183.9350  177.5910  147.0430 F   0  0  0  0  0  0  0  0  0  0  0  0
  187.7850  176.2210  140.7080 C   0  0  0  0  0  2  0  0  0  0  0  0
  182.8700  179.0250  141.8530 C   0  0  0  0  0  1  0  0  0  0  0  0
  189.0670  176.2270  145.1440 C   0  0  0  0  0  2  0  0  0  0  0  0
  187.8370  175.3440  143.0710 C   0  0  2  0  0  3  0  0  0  0  0  0
  190.1830  175.9900  142.9560 N   0  0  0  0  0  0  0  0  0  0  0  0
  185.3430  176.9350  145.2800 N   0  0  0  0  0  0  0  0  0  0  0  0
  184.6320  178.2580  140.2580 C   0  0  0  0  0  3  0  0  0  0  0  0
  187.6880  176.5880  145.6340 C   0  0  0  0  0  0  0  0  0  0  0  0
  187.5190  176.9230  146.9780 C   0  0  0  0  0  3  0  0  0  0  0  0
  187.9320  174.9850  141.5800 C   0  0  0  0  0  2  0  0  0  0  0  0
  186.4910  176.9020  141.0090 C   0  0  0  0  0  0  0  0  0  0  0  0
  185.8150  177.5700  139.9850 C   0  0  0  0  0  3  0  0  0  0  0  0
  191.7970  177.6730  143.2780 O   0  0  0  0  0  0  0  0  0  0  0  0
  191.4780  176.4570  143.3710 C   0  0  0  0  0  0  0  0  0  0  0  0
  193.9910  176.7790  146.0270 C   0  0  0  0  0  0  0  0  0  0  0  0
  192.2270  175.1460  145.3820 C   0  0  0  0  0  2  0  0  0  0  0  0
  194.1820  176.2470  142.3600 O   0  0  0  0  0  1  0  0  0  0  0  0
  194.6760  177.3080  146.9700 N   0  0  0  0  0  2  0  0  0  0  0  0
  192.6010  176.3000  146.3150 C   0  0  0  0  0  2  0  0  0  0  0  0
  193.9500  175.9170  143.6960 C   0  0  2  0  0  3  0  0  0  0  0  0
  192.4870  175.4860  143.9100 C   0  0  2  0  0  3  0  0  0  0  0  0
  194.3590  177.0770  144.6040 C   0  0  0  0  0  2  0  0  0  0  0  0
  1  9  1  0  0  0  0
  1  6  1  0  0  0  0
  2  5  1  0  0  0  0
  3  7  1  0  0  0  0
  3  2  1  0  0  0  0
  4 11  1  0  0  0  0
  4  7  2  0  0  0  0
  5 15  1  0  0  0  0
  5 17  2  0  0  0  0
  8 12  1  0  0  0  0
 10 20  1  0  0  0  0
 10 19  1  0  0  0  0
 12 17  1  0  0  0  0
 13 19  1  6  0  0  0
 13  2  1  0  0  0  0
 13  8  1  0  0  0  0
 14 23  1  0  0  0  0
 14  8  2  0  0  0  0
 15  1  2  0  0  0  0
 16  4  1  0  0  0  0
 17 18  1  0  0  0  0
 18  6  2  0  0  0  0
 20  3  2  0  0  0  0
 21 16  2  0  0  0  0
 21 20  1  0  0  0  0
 22 23  2  0  0  0  0
 24 28  1  0  0  0  0
 24 27  2  0  0  0  0
 25 28  1  0  0  0  0
 29 26  1  6  0  0  0
 29 30  1  0  0  0  0
 29 31  1  0  0  0  0
 30 23  1  1  0  0  0
 30 25  1  0  0  0  0
 31 24  1  0  0  0  0
M  END
>  <MODEL>
9

>  <REMARK>
 VINA RESULT:      -7.8      1.606      2.107
  Name = 
  2 active torsions:
  status: ('A' for Active; 'I' for Inactive)
    1  A    between atoms: C_5  and  N_16
    2  A    between atoms: C_5  and  C_30
                            x       y       z     vdW  Elec       q    Type
                         _______ _______ _______ _____ _____    ______ ____

>  <TORSDO>
F 2

$$$$
