=
 OpenBabel11112416463D

 31 35  0  0  1  0  0  0  0  0999 V2000
  185.0010  177.7070  146.6000 C   0  0  0  0  0  0  0  0  0  0  0  0
  187.2870  176.2870  143.9740 N   0  0  0  0  0  0  0  0  0  0  0  0
  186.8160  176.6840  142.6610 C   0  0  0  0  0  0  0  0  0  0  0  0
  185.2140  177.8120  141.2180 C   0  0  0  0  0  0  0  0  0  0  0  0
  186.8000  176.9250  145.1710 C   0  0  0  0  0  0  0  0  0  0  0  0
  185.9370  178.1570  147.5360 C   0  0  0  0  0  3  0  0  0  0  0  0
  185.6070  177.3790  142.4860 C   0  0  0  0  0  3  0  0  0  0  0  0
  189.6060  176.6090  144.6770 C   0  0  2  0  0  3  0  0  0  0  0  0
  183.6760  177.8670  146.8350 F   0  0  0  0  0  0  0  0  0  0  0  0
  188.8220  175.7440  141.6910 O   0  0  0  0  0  0  0  0  0  0  0  0
  183.9310  178.5430  141.0490 C   0  0  0  0  0  1  0  0  0  0  0  0
  189.1080  177.1750  145.8960 O   0  0  0  0  0  0  0  0  0  0  0  0
  188.5870  175.6100  144.1200 C   0  0  2  0  0  3  0  0  0  0  0  0
  185.4300  177.0880  145.4220 C   0  0  0  0  0  3  0  0  0  0  0  0
  186.0320  177.5700  140.1120 C   0  0  0  0  0  3  0  0  0  0  0  0
  187.7370  177.3710  146.1220 C   0  0  0  0  0  0  0  0  0  0  0  0
  187.3040  177.9880  147.2990 C   0  0  0  0  0  3  0  0  0  0  0  0
  189.0480  174.9220  142.8310 C   0  0  0  0  0  2  0  0  0  0  0  0
  187.6220  176.4330  141.5380 C   0  0  0  0  0  0  0  0  0  0  0  0
  187.2370  176.8840  140.2720 C   0  0  0  0  0  3  0  0  0  0  0  0
  190.8830  175.9560  144.9370 N   0  0  0  0  0  2  0  0  0  0  0  0
  191.3650  178.0740  143.8540 C   0  0  0  0  0  1  0  0  0  0  0  0
  191.9020  176.6920  144.2030 C   0  0  1  0  0  3  0  0  0  0  0  0
  194.1660  174.1150  145.4640 C   0  0  1  0  0  3  0  0  0  0  0  0
  194.3700  176.1700  144.2640 C   0  0  0  0  0  2  0  0  0  0  0  0
  192.1520  176.7110  147.2180 O   0  0  0  0  0  1  0  0  0  0  0  0
  194.0320  172.6140  145.3300 C   0  0  0  0  0  1  0  0  0  0  0  0
  194.1560  174.7260  144.1330 N   0  0  0  0  0  2  0  0  0  0  0  0
  193.1520  176.1680  146.4120 C   0  0  2  0  0  3  0  0  0  0  0  0
  193.2040  176.8230  145.0210 C   0  0  2  0  0  3  0  0  0  0  0  0
  193.0140  174.6540  146.3080 C   0  0  0  0  0  2  0  0  0  0  0  0
  1  9  1  0  0  0  0
  1  6  1  0  0  0  0
  2 13  1  0  0  0  0
  2  5  1  0  0  0  0
  3  2  1  0  0  0  0
  4  7  2  0  0  0  0
  5 14  1  0  0  0  0
  5 16  2  0  0  0  0
  7  3  1  0  0  0  0
  8 21  1  1  0  0  0
  8 12  1  0  0  0  0
 10 18  1  0  0  0  0
 11  4  1  0  0  0  0
 12 16  1  0  0  0  0
 13 18  1  6  0  0  0
 13  8  1  0  0  0  0
 14  1  2  0  0  0  0
 15 20  2  0  0  0  0
 15  4  1  0  0  0  0
 16 17  1  0  0  0  0
 17  6  2  0  0  0  0
 19 10  1  0  0  0  0
 19  3  2  0  0  0  0
 20 19  1  0  0  0  0
 23 22  1  1  0  0  0
 23 21  1  0  0  0  0
 24 27  1  6  0  0  0
 24 31  1  0  0  0  0
 25 30  1  0  0  0  0
 28 25  1  0  0  0  0
 28 24  1  0  0  0  0
 29 26  1  1  0  0  0
 30 23  1  6  0  0  0
 30 29  1  0  0  0  0
 31 29  1  0  0  0  0
M  END
>  <MODEL>
1

>  <REMARK>
 VINA RESULT:      -8.9      0.000      0.000
  Name = 
  3 active torsions:
  status: ('A' for Active; 'I' for Inactive)
    1  A    between atoms: C_5  and  N_16
    2  A    between atoms: C_5  and  C_30
    3  A    between atoms: C_10  and  N_16
                            x       y       z     vdW  Elec       q    Type
                         _______ _______ _______ _____ _____    ______ ____

>  <TORSDO>
F 3

$$$$
=
 OpenBabel11112416463D

 31 35  0  0  1  0  0  0  0  0999 V2000
  185.5910  178.2720  140.6300 C   0  0  0  0  0  0  0  0  0  0  0  0
  188.0880  177.7880  143.3990 N   0  0  0  0  0  0  0  0  0  0  0  0
  187.4080  177.8620  144.6770 C   0  0  0  0  0  0  0  0  0  0  0  0
  185.4010  178.1910  146.0130 C   0  0  0  0  0  0  0  0  0  0  0  0
  187.3560  177.6320  142.1670 C   0  0  0  0  0  0  0  0  0  0  0  0
  186.0020  177.2750  139.7400 C   0  0  0  0  0  3  0  0  0  0  0  0
  186.0480  178.2000  144.7760 C   0  0  0  0  0  3  0  0  0  0  0  0
  189.5740  175.9350  142.8180 C   0  0  2  0  0  3  0  0  0  0  0  0
  184.5370  179.0650  140.3200 F   0  0  0  0  0  0  0  0  0  0  0  0
  189.4550  177.1810  145.7700 O   0  0  0  0  0  0  0  0  0  0  0  0
  183.9620  178.5540  146.1000 C   0  0  0  0  0  1  0  0  0  0  0  0
  188.8840  175.8380  141.5650 O   0  0  0  0  0  0  0  0  0  0  0  0
  189.5010  177.3760  143.3350 C   0  0  2  0  0  3  0  0  0  0  0  0
  186.2690  178.4540  141.8390 C   0  0  0  0  0  3  0  0  0  0  0  0
  186.1020  177.8310  147.1660 C   0  0  0  0  0  3  0  0  0  0  0  0
  187.7720  176.6370  141.2610 C   0  0  0  0  0  0  0  0  0  0  0  0
  187.0920  176.4600  140.0540 C   0  0  0  0  0  3  0  0  0  0  0  0
  190.2440  177.5890  144.6580 C   0  0  0  0  0  2  0  0  0  0  0  0
  188.1060  177.5170  145.8470 C   0  0  0  0  0  0  0  0  0  0  0  0
  187.4530  177.4900  147.0830 C   0  0  0  0  0  3  0  0  0  0  0  0
  190.9580  175.5190  142.6390 N   0  0  0  0  0  2  0  0  0  0  0  0
  190.3980  173.4270  143.7350 C   0  0  0  0  0  1  0  0  0  0  0  0
  191.2990  174.6550  143.7610 C   0  0  1  0  0  3  0  0  0  0  0  0
  194.1540  175.8030  145.7330 C   0  0  1  0  0  3  0  0  0  0  0  0
  193.2210  173.7010  145.0890 C   0  0  0  0  0  2  0  0  0  0  0  0
  193.4870  175.8810  142.0690 O   0  0  0  0  0  1  0  0  0  0  0  0
  194.1730  176.8700  146.8060 C   0  0  0  0  0  1  0  0  0  0  0  0
  193.1760  174.7720  146.0880 N   0  0  0  0  0  2  0  0  0  0  0  0
  193.7590  175.3480  143.3290 C   0  0  2  0  0  3  0  0  0  0  0  0
  192.7800  174.2250  143.7140 C   0  0  2  0  0  3  0  0  0  0  0  0
  193.7970  176.4390  144.3920 C   0  0  0  0  0  2  0  0  0  0  0  0
  1 14  1  0  0  0  0
  2  3  1  0  0  0  0
  3  7  2  0  0  0  0
  3 19  1  0  0  0  0
  4 11  1  0  0  0  0
  4 15  2  0  0  0  0
  5  2  1  0  0  0  0
  6 17  1  0  0  0  0
  6  1  2  0  0  0  0
  7  4  1  0  0  0  0
  8 21  1  6  0  0  0
  8 13  1  0  0  0  0
  9  1  1  0  0  0  0
 10 19  1  0  0  0  0
 12  8  1  0  0  0  0
 13  2  1  0  0  0  0
 13 18  1  1  0  0  0
 14  5  2  0  0  0  0
 16 12  1  0  0  0  0
 16  5  1  0  0  0  0
 17 16  2  0  0  0  0
 18 10  1  0  0  0  0
 19 20  2  0  0  0  0
 20 15  1  0  0  0  0
 21 23  1  0  0  0  0
 23 22  1  6  0  0  0
 24 28  1  0  0  0  0
 24 27  1  1  0  0  0
 25 28  1  0  0  0  0
 29 26  1  6  0  0  0
 29 30  1  0  0  0  0
 29 31  1  0  0  0  0
 30 23  1  1  0  0  0
 30 25  1  0  0  0  0
 31 24  1  0  0  0  0
M  END
>  <MODEL>
2

>  <REMARK>
 VINA RESULT:      -8.7      1.955      4.442
  Name = 
  3 active torsions:
  status: ('A' for Active; 'I' for Inactive)
    1  A    between atoms: C_5  and  N_16
    2  A    between atoms: C_5  and  C_30
    3  A    between atoms: C_10  and  N_16
                            x       y       z     vdW  Elec       q    Type
                         _______ _______ _______ _____ _____    ______ ____

>  <TORSDO>
F 3

$$$$
=
 OpenBabel11112416463D

 31 35  0  0  1  0  0  0  0  0999 V2000
  186.8280  177.5290  140.9400 C   0  0  0  0  0  0  0  0  0  0  0  0
  188.2250  177.4450  144.4300 N   0  0  0  0  0  0  0  0  0  0  0  0
  187.1920  177.8290  145.3710 C   0  0  0  0  0  0  0  0  0  0  0  0
  184.9280  178.5710  145.8730 C   0  0  0  0  0  0  0  0  0  0  0  0
  187.9090  177.0920  143.0680 C   0  0  0  0  0  0  0  0  0  0  0  0
  187.3590  176.3440  140.4240 C   0  0  0  0  0  3  0  0  0  0  0  0
  185.9300  178.2780  144.9440 C   0  0  0  0  0  3  0  0  0  0  0  0
  189.5500  175.4100  144.7090 C   0  0  2  0  0  3  0  0  0  0  0  0
  186.0450  178.3160  140.1620 F   0  0  0  0  0  0  0  0  0  0  0  0
  188.6720  177.2410  147.1900 O   0  0  0  0  0  0  0  0  0  0  0  0
  183.6000  179.0470  145.4060 C   0  0  0  0  0  1  0  0  0  0  0  0
  189.2880  175.1070  143.3330 O   0  0  0  0  0  0  0  0  0  0  0  0
  189.5150  176.9270  144.9180 C   0  0  2  0  0  3  0  0  0  0  0  0
  187.1040  177.9060  142.2570 C   0  0  0  0  0  3  0  0  0  0  0  0
  185.1710  178.4050  147.2380 C   0  0  0  0  0  3  0  0  0  0  0  0
  188.4500  175.9050  142.5400 C   0  0  0  0  0  0  0  0  0  0  0  0
  188.1710  175.5330  141.2220 C   0  0  0  0  0  3  0  0  0  0  0  0
  189.8210  177.3530  146.3570 C   0  0  0  0  0  2  0  0  0  0  0  0
  187.4280  177.6820  146.7480 C   0  0  0  0  0  0  0  0  0  0  0  0
  186.4190  177.9570  147.6760 C   0  0  0  0  0  3  0  0  0  0  0  0
  190.8500  174.8660  145.0820 N   0  0  0  0  0  2  0  0  0  0  0  0
  192.6700  175.0370  143.4860 C   0  0  0  0  0  1  0  0  0  0  0  0
  191.4230  174.2590  143.8890 C   0  0  1  0  0  3  0  0  0  0  0  0
  191.0400  171.3640  141.6920 C   0  0  1  0  0  3  0  0  0  0  0  0
  192.7680  172.2960  143.0510 C   0  0  0  0  0  2  0  0  0  0  0  0
  189.6190  172.1260  145.0500 O   0  0  0  0  0  1  0  0  0  0  0  0
  190.4470  171.3260  140.3000 C   0  0  0  0  0  1  0  0  0  0  0  0
  192.1450  172.3240  141.7250 N   0  0  0  0  0  2  0  0  0  0  0  0
  190.5760  171.8170  144.0840 C   0  0  2  0  0  3  0  0  0  0  0  0
  191.7790  172.7770  144.1230 C   0  0  2  0  0  3  0  0  0  0  0  0
  189.9570  171.7610  142.6930 C   0  0  0  0  0  2  0  0  0  0  0  0
  1 14  1  0  0  0  0
  2 13  1  0  0  0  0
  2  3  1  0  0  0  0
  3 19  1  0  0  0  0
  4 15  2  0  0  0  0
  5  2  1  0  0  0  0
  6  1  2  0  0  0  0
  6 17  1  0  0  0  0
  7  3  2  0  0  0  0
  7  4  1  0  0  0  0
  8 13  1  0  0  0  0
  8 21  1  6  0  0  0
  9  1  1  0  0  0  0
 11  4  1  0  0  0  0
 12  8  1  0  0  0  0
 13 18  1  1  0  0  0
 14  5  2  0  0  0  0
 15 20  1  0  0  0  0
 16  5  1  0  0  0  0
 16 12  1  0  0  0  0
 17 16  2  0  0  0  0
 18 10  1  0  0  0  0
 19 10  1  0  0  0  0
 19 20  2  0  0  0  0
 23 22  1  1  0  0  0
 23 21  1  0  0  0  0
 24 27  1  6  0  0  0
 24 28  1  0  0  0  0
 24 31  1  0  0  0  0
 25 30  1  0  0  0  0
 28 25  1  0  0  0  0
 29 30  1  0  0  0  0
 29 26  1  1  0  0  0
 30 23  1  6  0  0  0
 31 29  1  0  0  0  0
M  END
>  <MODEL>
3

>  <REMARK>
 VINA RESULT:      -8.7      2.602      4.826
  Name = 
  3 active torsions:
  status: ('A' for Active; 'I' for Inactive)
    1  A    between atoms: C_5  and  N_16
    2  A    between atoms: C_5  and  C_30
    3  A    between atoms: C_10  and  N_16
                            x       y       z     vdW  Elec       q    Type
                         _______ _______ _______ _____ _____    ______ ____

>  <TORSDO>
F 3

$$$$
=
 OpenBabel11112416463D

 31 35  0  0  1  0  0  0  0  0999 V2000
  189.6280  172.0290  142.6940 C   0  0  0  0  0  0  0  0  0  0  0  0
  190.2700  174.5980  145.3640 N   0  0  0  0  0  0  0  0  0  0  0  0
  191.6990  174.7360  145.5640 C   0  0  0  0  0  0  0  0  0  0  0  0
  193.9970  174.1060  145.0670 C   0  0  0  0  0  0  0  0  0  0  0  0
  189.7350  173.9220  144.2080 C   0  0  0  0  0  0  0  0  0  0  0  0
  188.6260  172.6700  141.9600 C   0  0  0  0  0  3  0  0  0  0  0  0
  192.6240  173.9020  144.9120 C   0  0  0  0  0  3  0  0  0  0  0  0
  188.8150  176.5250  144.9830 C   0  0  2  0  0  3  0  0  0  0  0  0
  190.0650  170.8030  142.3180 F   0  0  0  0  0  0  0  0  0  0  0  0
  191.2810  176.6140  147.0300 O   0  0  0  0  0  0  0  0  0  0  0  0
  194.9610  173.2130  144.3730 C   0  0  0  0  0  1  0  0  0  0  0  0
  188.2400  175.8130  143.8790 O   0  0  0  0  0  0  0  0  0  0  0  0
  189.3370  175.5290  146.0220 C   0  0  2  0  0  3  0  0  0  0  0  0
  190.1790  172.6510  143.8180 C   0  0  0  0  0  3  0  0  0  0  0  0
  194.4630  175.1550  145.8620 C   0  0  0  0  0  3  0  0  0  0  0  0
  188.7180  174.5580  143.4710 C   0  0  0  0  0  0  0  0  0  0  0  0
  188.1690  173.9320  142.3490 C   0  0  0  0  0  3  0  0  0  0  0  0
  189.9400  176.1980  147.2620 C   0  0  0  0  0  2  0  0  0  0  0  0
  192.1810  175.7780  146.3740 C   0  0  0  0  0  0  0  0  0  0  0  0
  193.5550  175.9930  146.5130 C   0  0  0  0  0  3  0  0  0  0  0  0
  187.8080  177.4020  145.5650 N   0  0  0  0  0  2  0  0  0  0  0  0
  185.3980  177.1530  145.4130 C   0  0  0  0  0  1  0  0  0  0  0  0
  186.6810  177.4400  144.6430 C   0  0  1  0  0  3  0  0  0  0  0  0
  184.2290  178.6630  142.2260 C   0  0  1  0  0  3  0  0  0  0  0  0
  185.2220  179.4590  144.2460 C   0  0  0  0  0  2  0  0  0  0  0  0
  187.9180  178.2030  141.9900 O   0  0  0  0  0  1  0  0  0  0  0  0
  183.0520  177.9160  141.6380 C   0  0  0  0  0  1  0  0  0  0  0  0
  184.1250  178.6640  143.6860 N   0  0  0  0  0  2  0  0  0  0  0  0
  186.7000  178.7420  142.4020 C   0  0  2  0  0  3  0  0  0  0  0  0
  186.5770  178.8060  143.9350 C   0  0  2  0  0  3  0  0  0  0  0  0
  185.5270  177.9920  141.7830 C   0  0  0  0  0  2  0  0  0  0  0  0
  1 14  1  0  0  0  0
  2  3  1  0  0  0  0
  2 13  1  0  0  0  0
  3 19  1  0  0  0  0
  4 15  2  0  0  0  0
  5  2  1  0  0  0  0
  6 17  1  0  0  0  0
  6  1  2  0  0  0  0
  7  4  1  0  0  0  0
  7  3  2  0  0  0  0
  8 21  1  1  0  0  0
  8 13  1  0  0  0  0
  9  1  1  0  0  0  0
 10 18  1  0  0  0  0
 11  4  1  0  0  0  0
 12  8  1  0  0  0  0
 13 18  1  1  0  0  0
 14  5  2  0  0  0  0
 15 20  1  0  0  0  0
 16 12  1  0  0  0  0
 16  5  1  0  0  0  0
 17 16  2  0  0  0  0
 19 20  2  0  0  0  0
 19 10  1  0  0  0  0
 23 22  1  1  0  0  0
 23 21  1  0  0  0  0
 24 27  1  6  0  0  0
 24 28  1  0  0  0  0
 28 25  1  0  0  0  0
 29 26  1  1  0  0  0
 29 30  1  0  0  0  0
 30 25  1  0  0  0  0
 30 23  1  1  0  0  0
 31 24  1  0  0  0  0
 31 29  1  0  0  0  0
M  END
>  <MODEL>
4

>  <REMARK>
 VINA RESULT:      -8.2      2.658      7.802
  Name = 
  3 active torsions:
  status: ('A' for Active; 'I' for Inactive)
    1  A    between atoms: C_5  and  N_16
    2  A    between atoms: C_5  and  C_30
    3  A    between atoms: C_10  and  N_16
                            x       y       z     vdW  Elec       q    Type
                         _______ _______ _______ _____ _____    ______ ____

>  <TORSDO>
F 3

$$$$
=
 OpenBabel11112416463D

 31 35  0  0  1  0  0  0  0  0999 V2000
  191.2370  171.1590  143.2220 C   0  0  0  0  0  0  0  0  0  0  0  0
  190.9470  174.2130  145.3960 N   0  0  0  0  0  0  0  0  0  0  0  0
  192.2730  174.6880  145.7370 C   0  0  0  0  0  0  0  0  0  0  0  0
  194.6980  174.4930  145.6570 C   0  0  0  0  0  0  0  0  0  0  0  0
  190.7400  173.2560  144.3380 C   0  0  0  0  0  0  0  0  0  0  0  0
  190.2620  171.4370  142.2600 C   0  0  0  0  0  3  0  0  0  0  0  0
  193.4310  173.9760  145.3790 C   0  0  0  0  0  3  0  0  0  0  0  0
  189.2330  175.6910  144.4690 C   0  0  2  0  0  3  0  0  0  0  0  0
  191.9520  170.0100  143.1500 F   0  0  0  0  0  0  0  0  0  0  0  0
  191.2790  176.6490  146.7450 O   0  0  0  0  0  0  0  0  0  0  0  0
  195.9120  173.7260  145.2740 C   0  0  0  0  0  1  0  0  0  0  0  0
  188.9870  174.6980  143.4650 O   0  0  0  0  0  0  0  0  0  0  0  0
  189.7620  175.0180  145.7400 C   0  0  2  0  0  3  0  0  0  0  0  0
  191.4740  172.0630  144.2620 C   0  0  0  0  0  3  0  0  0  0  0  0
  194.8240  175.7350  146.2830 C   0  0  0  0  0  3  0  0  0  0  0  0
  189.7520  173.5260  143.3720 C   0  0  0  0  0  0  0  0  0  0  0  0
  189.5180  172.6180  142.3350 C   0  0  0  0  0  3  0  0  0  0  0  0
  190.0210  175.9980  146.8880 C   0  0  0  0  0  2  0  0  0  0  0  0
  192.4140  175.9290  146.3800 C   0  0  0  0  0  0  0  0  0  0  0  0
  193.6830  176.4550  146.6410 C   0  0  0  0  0  3  0  0  0  0  0  0
  187.9990  176.4150  144.7420 N   0  0  0  0  0  2  0  0  0  0  0  0
  189.3480  177.7440  143.2240 C   0  0  0  0  0  1  0  0  0  0  0  0
  188.1270  177.7330  144.1350 C   0  0  1  0  0  3  0  0  0  0  0  0
  184.7120  178.3760  145.2660 C   0  0  1  0  0  3  0  0  0  0  0  0
  186.2970  179.4440  143.8350 C   0  0  0  0  0  2  0  0  0  0  0  0
  186.1070  175.8260  142.9360 O   0  0  0  0  0  1  0  0  0  0  0  0
  184.1720  178.3040  146.6780 C   0  0  0  0  0  1  0  0  0  0  0  0
  185.8330  179.3170  145.2190 N   0  0  0  0  0  2  0  0  0  0  0  0
  185.7250  177.0800  143.4120 C   0  0  2  0  0  3  0  0  0  0  0  0
  186.8650  178.1100  143.3310 C   0  0  2  0  0  3  0  0  0  0  0  0
  185.1630  176.9850  144.8250 C   0  0  0  0  0  2  0  0  0  0  0  0
  1 14  1  0  0  0  0
  2  3  1  0  0  0  0
  2 13  1  0  0  0  0
  3 19  1  0  0  0  0
  4 15  2  0  0  0  0
  5  2  1  0  0  0  0
  6 17  1  0  0  0  0
  6  1  2  0  0  0  0
  7  4  1  0  0  0  0
  7  3  2  0  0  0  0
  8 21  1  1  0  0  0
  8 13  1  0  0  0  0
  9  1  1  0  0  0  0
 10 18  1  0  0  0  0
 11  4  1  0  0  0  0
 12  8  1  0  0  0  0
 13 18  1  1  0  0  0
 14  5  2  0  0  0  0
 15 20  1  0  0  0  0
 16 12  1  0  0  0  0
 16  5  1  0  0  0  0
 17 16  2  0  0  0  0
 19 20  2  0  0  0  0
 19 10  1  0  0  0  0
 23 22  1  6  0  0  0
 23 21  1  0  0  0  0
 24 27  1  1  0  0  0
 25 28  1  0  0  0  0
 28 24  1  0  0  0  0
 29 26  1  1  0  0  0
 29 31  1  0  0  0  0
 30 29  1  0  0  0  0
 30 25  1  0  0  0  0
 30 23  1  1  0  0  0
 31 24  1  0  0  0  0
M  END
>  <MODEL>
5

>  <REMARK>
 VINA RESULT:      -8.1      2.941      7.914
  Name = 
  3 active torsions:
  status: ('A' for Active; 'I' for Inactive)
    1  A    between atoms: C_5  and  N_16
    2  A    between atoms: C_5  and  C_30
    3  A    between atoms: C_10  and  N_16
                            x       y       z     vdW  Elec       q    Type
                         _______ _______ _______ _____ _____    ______ ____

>  <TORSDO>
F 3

$$$$
=
 OpenBabel11112416463D

 31 35  0  0  1  0  0  0  0  0999 V2000
  185.2790  177.9110  146.4850 C   0  0  0  0  0  0  0  0  0  0  0  0
  187.3980  176.1480  143.9290 N   0  0  0  0  0  0  0  0  0  0  0  0
  186.9820  176.5500  142.5990 C   0  0  0  0  0  0  0  0  0  0  0  0
  185.5280  177.8040  141.1040 C   0  0  0  0  0  0  0  0  0  0  0  0
  186.9830  176.8790  145.1000 C   0  0  0  0  0  0  0  0  0  0  0  0
  186.2560  178.2840  147.4130 C   0  0  0  0  0  3  0  0  0  0  0  0
  185.8630  177.3720  142.3900 C   0  0  0  0  0  3  0  0  0  0  0  0
  189.7360  176.2250  144.6410 C   0  0  2  0  0  3  0  0  0  0  0  0
  183.9800  178.2310  146.7030 F   0  0  0  0  0  0  0  0  0  0  0  0
  188.8720  175.3530  141.6790 O   0  0  0  0  0  0  0  0  0  0  0  0
  184.3390  178.6710  140.8990 C   0  0  0  0  0  1  0  0  0  0  0  0
  189.3010  176.8870  145.8360 O   0  0  0  0  0  0  0  0  0  0  0  0
  188.6120  175.3310  144.1090 C   0  0  2  0  0  3  0  0  0  0  0  0
  185.6390  177.2070  145.3330 C   0  0  0  0  0  3  0  0  0  0  0  0
  186.3180  177.4310  140.0140 C   0  0  0  0  0  3  0  0  0  0  0  0
  187.9610  177.2470  146.0430 C   0  0  0  0  0  0  0  0  0  0  0  0
  187.5950  177.9500  147.1940 C   0  0  0  0  0  3  0  0  0  0  0  0
  188.9960  174.5510  142.8480 C   0  0  0  0  0  2  0  0  0  0  0  0
  187.7590  176.1690  141.4930 C   0  0  0  0  0  0  0  0  0  0  0  0
  187.4350  176.6170  140.2090 C   0  0  0  0  0  3  0  0  0  0  0  0
  190.9280  175.4390  144.9340 N   0  0  0  0  0  2  0  0  0  0  0  0
  192.3490  177.3820  144.6270 C   0  0  0  0  0  1  0  0  0  0  0  0
  192.0130  175.9820  144.1290 C   0  0  1  0  0  3  0  0  0  0  0  0
  194.1430  174.7160  141.4430 C   0  0  1  0  0  3  0  0  0  0  0  0
  194.4610  175.8020  143.5460 C   0  0  0  0  0  2  0  0  0  0  0  0
  192.0840  172.9600  144.0030 O   0  0  0  0  0  1  0  0  0  0  0  0
  193.9840  174.9280  139.9540 C   0  0  0  0  0  1  0  0  0  0  0  0
  194.2240  176.0140  142.1150 N   0  0  0  0  0  2  0  0  0  0  0  0
  193.1180  173.7310  143.4740 C   0  0  2  0  0  3  0  0  0  0  0  0
  193.2660  175.0850  144.1910 C   0  0  2  0  0  3  0  0  0  0  0  0
  192.9550  173.9150  141.9700 C   0  0  0  0  0  2  0  0  0  0  0  0
  1  9  1  0  0  0  0
  1  6  1  0  0  0  0
  2 13  1  0  0  0  0
  2  5  1  0  0  0  0
  3  2  1  0  0  0  0
  4  7  2  0  0  0  0
  5 14  1  0  0  0  0
  5 16  2  0  0  0  0
  7  3  1  0  0  0  0
  8 21  1  1  0  0  0
  8 12  1  0  0  0  0
 10 18  1  0  0  0  0
 11  4  1  0  0  0  0
 12 16  1  0  0  0  0
 13 18  1  6  0  0  0
 13  8  1  0  0  0  0
 14  1  2  0  0  0  0
 15 20  2  0  0  0  0
 15  4  1  0  0  0  0
 16 17  1  0  0  0  0
 17  6  2  0  0  0  0
 19 10  1  0  0  0  0
 19  3  2  0  0  0  0
 20 19  1  0  0  0  0
 23 22  1  1  0  0  0
 23 21  1  0  0  0  0
 24 27  1  6  0  0  0
 24 31  1  0  0  0  0
 24 28  1  0  0  0  0
 25 30  1  0  0  0  0
 28 25  1  0  0  0  0
 29 26  1  1  0  0  0
 29 30  1  0  0  0  0
 30 23  1  6  0  0  0
 31 29  1  0  0  0  0
M  END
>  <MODEL>
6

>  <REMARK>
 VINA RESULT:      -8.0      1.650      2.003
  Name = 
  3 active torsions:
  status: ('A' for Active; 'I' for Inactive)
    1  A    between atoms: C_5  and  N_16
    2  A    between atoms: C_5  and  C_30
    3  A    between atoms: C_10  and  N_16
                            x       y       z     vdW  Elec       q    Type
                         _______ _______ _______ _____ _____    ______ ____

>  <TORSDO>
F 3

$$$$
=
 OpenBabel11112416463D

 31 35  0  0  1  0  0  0  0  0999 V2000
  187.4450  177.1080  146.8500 C   0  0  0  0  0  0  0  0  0  0  0  0
  187.9690  175.9320  143.3170 N   0  0  0  0  0  0  0  0  0  0  0  0
  187.0240  176.5980  142.4430 C   0  0  0  0  0  0  0  0  0  0  0  0
  185.1640  178.1250  142.0760 C   0  0  0  0  0  0  0  0  0  0  0  0
  188.2110  176.4000  144.6590 C   0  0  0  0  0  0  0  0  0  0  0  0
  188.7700  177.2870  147.2580 C   0  0  0  0  0  3  0  0  0  0  0  0
  186.0150  177.4380  142.9450 C   0  0  0  0  0  3  0  0  0  0  0  0
  190.3670  175.8770  142.8420 C   0  0  2  0  0  3  0  0  0  0  0  0
  186.4300  177.3650  147.7100 F   0  0  0  0  0  0  0  0  0  0  0  0
  188.1540  175.6340  140.5350 O   0  0  0  0  0  0  0  0  0  0  0  0
  184.1000  179.0070  142.6230 C   0  0  0  0  0  1  0  0  0  0  0  0
  190.5960  176.2720  144.2010 O   0  0  0  0  0  0  0  0  0  0  0  0
  189.0470  175.1050  142.7470 C   0  0  2  0  0  3  0  0  0  0  0  0
  187.1650  176.6620  145.5550 C   0  0  0  0  0  3  0  0  0  0  0  0
  185.3220  177.9930  140.6950 C   0  0  0  0  0  3  0  0  0  0  0  0
  189.5440  176.5710  145.0790 C   0  0  0  0  0  0  0  0  0  0  0  0
  189.8190  177.0170  146.3750 C   0  0  0  0  0  3  0  0  0  0  0  0
  188.7310  174.6070  141.3340 C   0  0  0  0  0  2  0  0  0  0  0  0
  187.1610  176.4620  141.0520 C   0  0  0  0  0  0  0  0  0  0  0  0
  186.3220  177.1650  140.1820 C   0  0  0  0  0  3  0  0  0  0  0  0
  191.4810  175.0570  142.3860 N   0  0  0  0  0  2  0  0  0  0  0  0
  191.5780  172.9930  143.6600 C   0  0  0  0  0  1  0  0  0  0  0  0
  192.0690  174.4320  143.5620 C   0  0  1  0  0  3  0  0  0  0  0  0
  194.4770  176.1470  145.7110 C   0  0  1  0  0  3  0  0  0  0  0  0
  194.1960  173.9460  144.8290 C   0  0  0  0  0  2  0  0  0  0  0  0
  193.7900  176.4160  142.0600 O   0  0  0  0  0  1  0  0  0  0  0  0
  194.1910  177.0530  146.8890 C   0  0  0  0  0  1  0  0  0  0  0  0
  193.8470  174.8440  145.9330 N   0  0  0  0  0  2  0  0  0  0  0  0
  194.2150  175.8550  143.2630 C   0  0  2  0  0  3  0  0  0  0  0  0
  193.6110  174.4610  143.5060 C   0  0  2  0  0  3  0  0  0  0  0  0
  193.9400  176.7900  144.4350 C   0  0  0  0  0  2  0  0  0  0  0  0
  1  6  1  0  0  0  0
  1  9  1  0  0  0  0
  2  5  1  0  0  0  0
  3  7  1  0  0  0  0
  3  2  1  0  0  0  0
  4 11  1  0  0  0  0
  4  7  2  0  0  0  0
  5 16  2  0  0  0  0
  5 14  1  0  0  0  0
  8 21  1  1  0  0  0
  8 12  1  0  0  0  0
 10 19  1  0  0  0  0
 10 18  1  0  0  0  0
 12 16  1  0  0  0  0
 13 18  1  6  0  0  0
 13  8  1  0  0  0  0
 13  2  1  0  0  0  0
 14  1  2  0  0  0  0
 15  4  1  0  0  0  0
 16 17  1  0  0  0  0
 17  6  2  0  0  0  0
 19  3  2  0  0  0  0
 20 15  2  0  0  0  0
 20 19  1  0  0  0  0
 21 23  1  0  0  0  0
 23 22  1  6  0  0  0
 24 28  1  0  0  0  0
 24 27  1  1  0  0  0
 25 28  1  0  0  0  0
 29 26  1  6  0  0  0
 29 30  1  0  0  0  0
 29 31  1  0  0  0  0
 30 23  1  1  0  0  0
 30 25  1  0  0  0  0
 31 24  1  0  0  0  0
M  END
>  <MODEL>
7

>  <REMARK>
 VINA RESULT:      -8.0      1.764      2.533
  Name = 
  3 active torsions:
  status: ('A' for Active; 'I' for Inactive)
    1  A    between atoms: C_5  and  N_16
    2  A    between atoms: C_5  and  C_30
    3  A    between atoms: C_10  and  N_16
                            x       y       z     vdW  Elec       q    Type
                         _______ _______ _______ _____ _____    ______ ____

>  <TORSDO>
F 3

$$$$
=
 OpenBabel11112416463D

 31 35  0  0  1  0  0  0  0  0999 V2000
  194.4570  176.4000  144.9130 C   0  0  0  0  0  0  0  0  0  0  0  0
  190.8720  176.6230  143.7990 N   0  0  0  0  0  0  0  0  0  0  0  0
  190.6530  175.7070  142.6980 C   0  0  0  0  0  0  0  0  0  0  0  0
  191.4560  174.0520  141.1030 C   0  0  0  0  0  0  0  0  0  0  0  0
  192.0510  176.5390  144.6240 C   0  0  0  0  0  0  0  0  0  0  0  0
  194.2930  176.3980  146.3010 C   0  0  0  0  0  3  0  0  0  0  0  0
  191.7070  174.9840  142.1140 C   0  0  0  0  0  3  0  0  0  0  0  0
  189.4260  176.6620  145.7700 C   0  0  2  0  0  3  0  0  0  0  0  0
  195.6990  176.3330  144.3770 F   0  0  0  0  0  0  0  0  0  0  0  0
  188.2850  176.1840  142.8120 O   0  0  0  0  0  0  0  0  0  0  0  0
  192.5820  173.2980  140.4940 C   0  0  0  0  0  1  0  0  0  0  0  0
  190.6090  176.6510  146.5790 O   0  0  0  0  0  0  0  0  0  0  0  0
  189.7320  177.3190  144.4210 C   0  0  2  0  0  3  0  0  0  0  0  0
  193.3400  176.4750  144.0750 C   0  0  0  0  0  3  0  0  0  0  0  0
  190.1470  173.8210  140.6750 C   0  0  0  0  0  3  0  0  0  0  0  0
  191.8930  176.5470  146.0230 C   0  0  0  0  0  0  0  0  0  0  0  0
  193.0120  176.4730  146.8570 C   0  0  0  0  0  3  0  0  0  0  0  0
  188.5150  177.4110  143.4950 C   0  0  0  0  0  2  0  0  0  0  0  0
  189.3420  175.4760  142.2470 C   0  0  0  0  0  0  0  0  0  0  0  0
  189.0900  174.5300  141.2490 C   0  0  0  0  0  3  0  0  0  0  0  0
  188.3710  177.3830  146.4700 N   0  0  0  0  0  2  0  0  0  0  0  0
  187.8600  175.3760  147.7350 C   0  0  0  0  0  1  0  0  0  0  0  0
  187.3180  176.4240  146.7720 C   0  0  1  0  0  3  0  0  0  0  0  0
  185.1120  178.9840  145.3790 C   0  0  1  0  0  3  0  0  0  0  0  0
  184.8530  176.8870  146.4920 C   0  0  0  0  0  2  0  0  0  0  0  0
  187.2920  178.9740  148.4000 O   0  0  0  0  0  1  0  0  0  0  0  0
  185.2130  179.6640  144.0310 C   0  0  0  0  0  1  0  0  0  0  0  0
  185.0340  177.5340  145.1900 N   0  0  0  0  0  2  0  0  0  0  0  0
  186.2260  178.6370  147.5660 C   0  0  2  0  0  3  0  0  0  0  0  0
  186.0820  177.1160  147.3850 C   0  0  2  0  0  3  0  0  0  0  0  0
  186.3320  179.3480  146.2220 C   0  0  0  0  0  2  0  0  0  0  0  0
  1  6  1  0  0  0  0
  2 13  1  0  0  0  0
  2  5  1  0  0  0  0
  3  2  1  0  0  0  0
  4  7  1  0  0  0  0
  5 16  2  0  0  0  0
  6 17  2  0  0  0  0
  7  3  2  0  0  0  0
  8 21  1  1  0  0  0
  8 12  1  0  0  0  0
  9  1  1  0  0  0  0
 10 18  1  0  0  0  0
 11  4  1  0  0  0  0
 13 18  1  6  0  0  0
 13  8  1  0  0  0  0
 14  5  1  0  0  0  0
 14  1  2  0  0  0  0
 15  4  2  0  0  0  0
 15 20  1  0  0  0  0
 16 12  1  0  0  0  0
 16 17  1  0  0  0  0
 19  3  1  0  0  0  0
 19 10  1  0  0  0  0
 20 19  2  0  0  0  0
 21 23  1  0  0  0  0
 23 22  1  1  0  0  0
 24 27  1  6  0  0  0
 24 31  1  0  0  0  0
 25 30  1  0  0  0  0
 28 24  1  0  0  0  0
 28 25  1  0  0  0  0
 29 26  1  1  0  0  0
 30 23  1  6  0  0  0
 30 29  1  0  0  0  0
 31 29  1  0  0  0  0
M  END
>  <MODEL>
8

>  <REMARK>
 VINA RESULT:      -7.9      3.084      6.868
  Name = 
  3 active torsions:
  status: ('A' for Active; 'I' for Inactive)
    1  A    between atoms: C_5  and  N_16
    2  A    between atoms: C_5  and  C_30
    3  A    between atoms: C_10  and  N_16
                            x       y       z     vdW  Elec       q    Type
                         _______ _______ _______ _____ _____    ______ ____

>  <TORSDO>
F 3

$$$$
=
 OpenBabel11112416463D

 31 35  0  0  1  0  0  0  0  0999 V2000
  191.5580  176.1140  147.4270 C   0  0  0  0  0  0  0  0  0  0  0  0
  190.0300  175.0260  144.1690 N   0  0  0  0  0  0  0  0  0  0  0  0
  188.7030  175.5960  144.0460 C   0  0  0  0  0  0  0  0  0  0  0  0
  186.8580  176.9210  144.9210 C   0  0  0  0  0  0  0  0  0  0  0  0
  190.9670  175.5070  145.1540 C   0  0  0  0  0  0  0  0  0  0  0  0
  192.8550  176.4280  147.0090 C   0  0  0  0  0  3  0  0  0  0  0  0
  188.1070  176.3210  145.0930 C   0  0  0  0  0  3  0  0  0  0  0  0
  191.7030  175.2280  142.3970 C   0  0  2  0  0  3  0  0  0  0  0  0
  191.2140  176.2560  148.7300 F   0  0  0  0  0  0  0  0  0  0  0  0
  188.5910  174.7700  141.7760 O   0  0  0  0  0  0  0  0  0  0  0  0
  186.2410  177.6810  146.0390 C   0  0  0  0  0  1  0  0  0  0  0  0
  192.6450  175.6350  143.3980 O   0  0  0  0  0  0  0  0  0  0  0  0
  190.6410  174.3220  143.0280 C   0  0  2  0  0  3  0  0  0  0  0  0
  190.6170  175.6500  146.5040 C   0  0  0  0  0  3  0  0  0  0  0  0
  186.1950  176.8170  143.6960 C   0  0  0  0  0  3  0  0  0  0  0  0
  192.2770  175.8150  144.7400 C   0  0  0  0  0  0  0  0  0  0  0  0
  193.2150  176.2770  145.6670 C   0  0  0  0  0  3  0  0  0  0  0  0
  189.6050  173.8040  142.0250 C   0  0  0  0  0  2  0  0  0  0  0  0
  188.0180  175.4860  142.8240 C   0  0  0  0  0  0  0  0  0  0  0  0
  186.7760  176.1030  142.6470 C   0  0  0  0  0  3  0  0  0  0  0  0
  192.4080  174.5330  141.3280 N   0  0  0  0  0  2  0  0  0  0  0  0
  193.4070  172.4480  142.0650 C   0  0  0  0  0  1  0  0  0  0  0  0
  193.6080  173.9500  141.9090 C   0  0  1  0  0  3  0  0  0  0  0  0
  197.1000  174.4490  142.8680 C   0  0  1  0  0  3  0  0  0  0  0  0
  195.9090  173.1380  141.2650 C   0  0  0  0  0  2  0  0  0  0  0  0
  194.6810  176.6600  141.0970 O   0  0  0  0  0  1  0  0  0  0  0  0
  197.6870  174.4620  144.2620 C   0  0  0  0  0  1  0  0  0  0  0  0
  196.4040  173.1800  142.6440 N   0  0  0  0  0  2  0  0  0  0  0  0
  195.5350  175.5790  141.3130 C   0  0  2  0  0  3  0  0  0  0  0  0
  194.8510  174.2280  141.0380 C   0  0  2  0  0  3  0  0  0  0  0  0
  196.1350  175.6210  142.7130 C   0  0  0  0  0  2  0  0  0  0  0  0
  1  9  1  0  0  0  0
  2  5  1  0  0  0  0
  3  2  1  0  0  0  0
  3  7  1  0  0  0  0
  4  7  2  0  0  0  0
  4 11  1  0  0  0  0
  5 14  1  0  0  0  0
  6  1  1  0  0  0  0
  8 21  1  6  0  0  0
  8 13  1  0  0  0  0
  8 12  1  0  0  0  0
 10 18  1  0  0  0  0
 10 19  1  0  0  0  0
 12 16  1  0  0  0  0
 13 18  1  6  0  0  0
 13  2  1  0  0  0  0
 14  1  2  0  0  0  0
 15  4  1  0  0  0  0
 16  5  2  0  0  0  0
 16 17  1  0  0  0  0
 17  6  2  0  0  0  0
 19  3  2  0  0  0  0
 20 19  1  0  0  0  0
 20 15  2  0  0  0  0
 21 23  1  0  0  0  0
 23 22  1  6  0  0  0
 24 27  1  1  0  0  0
 25 28  1  0  0  0  0
 28 24  1  0  0  0  0
 29 26  1  1  0  0  0
 29 31  1  0  0  0  0
 30 25  1  0  0  0  0
 30 29  1  0  0  0  0
 30 23  1  1  0  0  0
 31 24  1  0  0  0  0
M  END
>  <MODEL>
9

>  <REMARK>
 VINA RESULT:      -7.7      2.945      4.682
  Name = 
  3 active torsions:
  status: ('A' for Active; 'I' for Inactive)
    1  A    between atoms: C_5  and  N_16
    2  A    between atoms: C_5  and  C_30
    3  A    between atoms: C_10  and  N_16
                            x       y       z     vdW  Elec       q    Type
                         _______ _______ _______ _____ _____    ______ ____

>  <TORSDO>
F 3

$$$$
