=
 OpenBabel11112416153D

 30 35  0  0  1  0  0  0  0  0999 V2000
  187.1940  177.3590  143.7480 C   0  0  1  0  0  3  0  0  0  0  0  0
  185.3690  178.5050  145.3110 C   0  0  0  0  0  0  0  0  0  0  0  0
  189.5970  176.4170  147.1860 C   0  0  0  0  0  2  0  0  0  0  0  0
  188.3510  176.3590  143.9050 C   0  0  1  0  0  3  0  0  0  0  0  0
  186.1350  176.7230  143.0740 O   0  0  0  0  0  0  0  0  0  0  0  0
  188.1110  175.4760  140.3650 O   0  0  0  0  0  0  0  0  0  0  0  0
  191.2880  175.7870  142.6040 C   0  0  1  0  0  3  0  0  0  0  0  0
  187.8320  175.9610  141.4940 C   0  0  0  0  0  0  0  0  0  0  0  0
  191.6950  176.0100  144.0690 C   0  0  2  0  0  3  0  0  0  0  0  0
  190.6260  175.7420  146.3780 C   0  0  0  0  0  0  0  0  0  0  0  0
  186.4870  176.6160  141.7040 C   0  0  2  0  0  3  0  0  0  0  0  0
  188.7900  175.9120  142.5710 N   0  0  0  0  0  0  0  0  0  0  0  0
  185.0840  179.0820  146.4840 C   0  0  0  0  0  3  0  0  0  0  0  0
  192.6740  174.9180  144.3380 C   0  0  0  0  0  2  0  0  0  0  0  0
  192.4300  174.9620  142.0220 C   0  0  0  0  0  2  0  0  0  0  0  0
  184.2880  178.4000  144.2870 C   0  0  0  0  0  1  0  0  0  0  0  0
  188.9470  177.3700  146.1860 C   0  0  1  0  0  3  0  0  0  0  0  0
  186.1600  179.2370  147.5210 C   0  0  0  0  0  2  0  0  0  0  0  0
  186.7850  178.0130  145.0870 C   0  0  1  0  0  3  0  0  0  0  0  0
  189.4680  176.9770  144.7680 C   0  0  1  0  0  3  0  0  0  0  0  0
  191.4880  174.9750  146.8810 O   0  0  0  0  0  0  0  0  0  0  0  0
  190.5490  176.0270  144.9850 N   0  0  0  0  0  0  0  0  0  0  0  0
  193.0870  174.3550  143.2120 C   0  0  0  0  0  2  0  0  0  0  0  0
  189.8060  173.7290  143.1550 C   0  0  0  0  0  1  0  0  0  0  0  0
  186.9490  177.9310  147.6660 C   0  0  0  0  0  2  0  0  0  0  0  0
  187.4170  177.3380  146.3190 C   0  0  2  0  0  3  0  0  0  0  0  0
  189.9550  175.0440  142.3920 C   0  0  2  0  0  3  0  0  0  0  0  0
  186.4050  177.9580  140.9810 C   0  0  0  0  0  2  0  0  0  0  0  0
  184.1650  178.7180  141.0480 F   0  0  0  0  0  0  0  0  0  0  0  0
  185.0860  178.0750  140.2430 C   0  0  0  0  0  2  0  0  0  0  0  0
  1  5  1  1  0  0  0
  1  4  1  0  0  0  0
  1 19  1  0  0  0  0
  2 13  2  0  0  0  0
  4 12  1  6  0  0  0
  4 20  1  0  0  0  0
  6  8  2  0  0  0  0
  7 15  1  6  0  0  0
  7  9  1  0  0  0  0
  8 11  1  0  0  0  0
  8 12  1  0  0  0  0
  9 14  1  1  0  0  0
  9 22  1  0  0  0  0
 10 21  2  0  0  0  0
 10  3  1  0  0  0  0
 11 28  1  1  0  0  0
 11  5  1  0  0  0  0
 13 18  1  0  0  0  0
 15 23  1  0  0  0  0
 16  2  1  0  0  0  0
 17 26  1  0  0  0  0
 17  3  1  1  0  0  0
 18 25  1  0  0  0  0
 19  2  1  1  0  0  0
 19 26  1  0  0  0  0
 20 22  1  1  0  0  0
 20 17  1  0  0  0  0
 22 10  1  0  0  0  0
 23 14  1  0  0  0  0
 26 25  1  1  0  0  0
 27 12  1  0  0  0  0
 27  7  1  0  0  0  0
 27 24  1  1  0  0  0
 30 28  1  0  0  0  0
 30 29  1  0  0  0  0
M  END
>  <MODEL>
1

>  <REMARK>
 VINA RESULT:      -8.6      0.000      0.000
  Name = 
  2 active torsions:
  status: ('A' for Active; 'I' for Inactive)
    1  A    between atoms: C_11  and  C_28
    2  A    between atoms: C_28  and  C_30
                            x       y       z     vdW  Elec       q    Type
                         _______ _______ _______ _____ _____    ______ ____

>  <TORSDO>
F 2

$$$$
=
 OpenBabel11112416153D

 30 35  0  0  1  0  0  0  0  0999 V2000
  189.6880  174.8630  143.8350 C   0  0  1  0  0  3  0  0  0  0  0  0
  192.1460  173.8580  143.6570 C   0  0  0  0  0  0  0  0  0  0  0  0
  190.7840  177.0060  147.3970 C   0  0  0  0  0  2  0  0  0  0  0  0
  188.9970  176.0460  144.5330 C   0  0  1  0  0  3  0  0  0  0  0  0
  189.7580  175.1310  142.4560 O   0  0  0  0  0  0  0  0  0  0  0  0
  186.3030  175.9740  142.0610 O   0  0  0  0  0  0  0  0  0  0  0  0
  186.1070  176.7500  145.8780 C   0  0  1  0  0  3  0  0  0  0  0  0
  187.4020  175.7450  142.6340 C   0  0  0  0  0  0  0  0  0  0  0  0
  187.0180  176.9650  147.0960 C   0  0  2  0  0  3  0  0  0  0  0  0
  189.4530  177.6190  147.5320 C   0  0  0  0  0  0  0  0  0  0  0  0
  188.4620  174.9520  141.9060 C   0  0  2  0  0  3  0  0  0  0  0  0
  187.6420  176.2140  143.9760 N   0  0  0  0  0  0  0  0  0  0  0  0
  193.2910  173.5510  144.2760 C   0  0  0  0  0  3  0  0  0  0  0  0
  186.5160  178.2350  147.6970 C   0  0  0  0  0  2  0  0  0  0  0  0
  184.8670  177.5800  146.1870 C   0  0  0  0  0  2  0  0  0  0  0  0
  192.0080  173.5280  142.2080 C   0  0  0  0  0  1  0  0  0  0  0  0
  190.5000  175.7420  146.5890 C   0  0  1  0  0  3  0  0  0  0  0  0
  193.4470  173.8350  145.7430 C   0  0  0  0  0  2  0  0  0  0  0  0
  191.0460  174.5040  144.4770 C   0  0  1  0  0  3  0  0  0  0  0  0
  189.0360  175.8520  146.0620 C   0  0  1  0  0  3  0  0  0  0  0  0
  189.2370  178.6160  148.2690 O   0  0  0  0  0  0  0  0  0  0  0  0
  188.4440  176.9890  146.7500 N   0  0  0  0  0  0  0  0  0  0  0  0
  185.3290  178.5610  147.2070 C   0  0  0  0  0  2  0  0  0  0  0  0
  187.2590  178.6100  144.4800 C   0  0  0  0  0  1  0  0  0  0  0  0
  192.9450  175.2460  146.0660 C   0  0  0  0  0  2  0  0  0  0  0  0
  191.5490  175.5560  145.4820 C   0  0  2  0  0  3  0  0  0  0  0  0
  186.6980  177.1890  144.5230 C   0  0  2  0  0  3  0  0  0  0  0  0
  188.0790  173.4780  141.8030 C   0  0  0  0  0  2  0  0  0  0  0  0
  189.3840  171.9770  140.5210 F   0  0  0  0  0  0  0  0  0  0  0  0
  188.4060  172.9480  140.4210 C   0  0  0  0  0  2  0  0  0  0  0  0
  1  5  1  6  0  0  0
  1 19  1  0  0  0  0
  1  4  1  0  0  0  0
  2 13  2  0  0  0  0
  3 10  1  0  0  0  0
  4 12  1  6  0  0  0
  4 20  1  0  0  0  0
  6  8  2  0  0  0  0
  7 15  1  1  0  0  0
  7  9  1  0  0  0  0
  8 12  1  0  0  0  0
  9 14  1  6  0  0  0
 10 21  2  0  0  0  0
 11 28  1  1  0  0  0
 11  5  1  0  0  0  0
 11  8  1  0  0  0  0
 12 27  1  0  0  0  0
 13 18  1  0  0  0  0
 15 23  1  0  0  0  0
 16  2  1  0  0  0  0
 17  3  1  6  0  0  0
 18 25  1  0  0  0  0
 19  2  1  6  0  0  0
 19 26  1  0  0  0  0
 20 17  1  0  0  0  0
 20 22  1  1  0  0  0
 22  9  1  0  0  0  0
 22 10  1  0  0  0  0
 23 14  1  0  0  0  0
 26 25  1  1  0  0  0
 26 17  1  0  0  0  0
 27 24  1  1  0  0  0
 27  7  1  0  0  0  0
 30 29  1  0  0  0  0
 30 28  1  0  0  0  0
M  END
>  <MODEL>
2

>  <REMARK>
 VINA RESULT:      -7.8      2.423      5.853
  Name = 
  2 active torsions:
  status: ('A' for Active; 'I' for Inactive)
    1  A    between atoms: C_11  and  C_28
    2  A    between atoms: C_28  and  C_30
                            x       y       z     vdW  Elec       q    Type
                         _______ _______ _______ _____ _____    ______ ____

>  <TORSDO>
F 2

$$$$
=
 OpenBabel11112416153D

 30 35  0  0  1  0  0  0  0  0999 V2000
  187.2600  176.7120  144.3290 C   0  0  1  0  0  3  0  0  0  0  0  0
  185.5400  178.4920  143.3520 C   0  0  0  0  0  0  0  0  0  0  0  0
  188.1470  175.3360  140.3540 C   0  0  0  0  0  2  0  0  0  0  0  0
  188.4430  175.8780  143.8090 C   0  0  1  0  0  3  0  0  0  0  0  0
  187.7590  177.7330  145.1590 O   0  0  0  0  0  0  0  0  0  0  0  0
  189.7830  175.6030  147.2000 O   0  0  0  0  0  0  0  0  0  0  0  0
  189.8000  172.9570  144.3360 C   0  0  1  0  0  3  0  0  0  0  0  0
  189.0850  175.9810  146.2200 C   0  0  0  0  0  0  0  0  0  0  0  0
  189.4460  172.8120  142.8480 C   0  0  2  0  0  3  0  0  0  0  0  0
  189.1350  174.3540  140.8310 C   0  0  0  0  0  0  0  0  0  0  0  0
  188.1430  177.1490  146.3930 C   0  0  2  0  0  3  0  0  0  0  0  0
  189.1680  175.2970  144.9540 N   0  0  0  0  0  0  0  0  0  0  0  0
  184.7450  178.8620  142.3420 C   0  0  0  0  0  3  0  0  0  0  0  0
  190.6630  172.1900  142.2500 C   0  0  0  0  0  2  0  0  0  0  0  0
  190.9220  171.9480  144.5530 C   0  0  0  0  0  2  0  0  0  0  0  0
  185.5730  179.3390  144.5800 C   0  0  0  0  0  1  0  0  0  0  0  0
  187.2430  175.5300  141.5680 C   0  0  1  0  0  3  0  0  0  0  0  0
  184.6610  178.0110  141.1070 C   0  0  0  0  0  2  0  0  0  0  0  0
  186.3420  177.2150  143.1940 C   0  0  1  0  0  3  0  0  0  0  0  0
  187.9450  174.8430  142.7810 C   0  0  1  0  0  3  0  0  0  0  0  0
  189.9780  173.8140  140.0670 O   0  0  0  0  0  0  0  0  0  0  0  0
  189.0540  174.0810  142.2250 N   0  0  0  0  0  0  0  0  0  0  0  0
  191.4630  171.7040  143.1880 C   0  0  0  0  0  2  0  0  0  0  0  0
  191.3990  174.9600  143.9310 C   0  0  0  0  0  1  0  0  0  0  0  0
  186.0640  177.5950  140.6520 C   0  0  0  0  0  2  0  0  0  0  0  0
  186.9380  177.0200  141.7870 C   0  0  2  0  0  3  0  0  0  0  0  0
  190.2750  174.3570  144.7710 C   0  0  2  0  0  3  0  0  0  0  0  0
  186.9390  176.7670  147.2490 C   0  0  0  0  0  2  0  0  0  0  0  0
  184.9850  178.0670  147.5540 F   0  0  0  0  0  0  0  0  0  0  0  0
  186.3270  178.0050  147.8750 C   0  0  0  0  0  2  0  0  0  0  0  0
  1  5  1  6  0  0  0
  2 16  1  0  0  0  0
  3 10  1  0  0  0  0
  4  1  1  0  0  0  0
  4 12  1  1  0  0  0
  5 11  1  0  0  0  0
  7 15  1  6  0  0  0
  7 27  1  0  0  0  0
  8 11  1  0  0  0  0
  8  6  2  0  0  0  0
  9 14  1  6  0  0  0
  9  7  1  0  0  0  0
 10 22  1  0  0  0  0
 11 28  1  6  0  0  0
 12  8  1  0  0  0  0
 13  2  2  0  0  0  0
 14 23  1  0  0  0  0
 17  3  1  6  0  0  0
 17 26  1  0  0  0  0
 17 20  1  0  0  0  0
 18 13  1  0  0  0  0
 19  2  1  1  0  0  0
 19  1  1  0  0  0  0
 20 22  1  6  0  0  0
 20  4  1  0  0  0  0
 21 10  2  0  0  0  0
 22  9  1  0  0  0  0
 23 15  1  0  0  0  0
 25 18  1  0  0  0  0
 26 25  1  6  0  0  0
 26 19  1  0  0  0  0
 27 24  1  6  0  0  0
 27 12  1  0  0  0  0
 28 30  1  0  0  0  0
 29 30  1  0  0  0  0
M  END
>  <MODEL>
3

>  <REMARK>
 VINA RESULT:      -7.7      1.967      4.737
  Name = 
  2 active torsions:
  status: ('A' for Active; 'I' for Inactive)
    1  A    between atoms: C_11  and  C_28
    2  A    between atoms: C_28  and  C_30
                            x       y       z     vdW  Elec       q    Type
                         _______ _______ _______ _____ _____    ______ ____

>  <TORSDO>
F 2

$$$$
=
 OpenBabel11112416153D

 30 35  0  0  1  0  0  0  0  0999 V2000
  189.2540  175.7180  144.0560 C   0  0  1  0  0  3  0  0  0  0  0  0
  191.3820  175.0300  145.4990 C   0  0  0  0  0  0  0  0  0  0  0  0
  187.8170  178.1730  147.2790 C   0  0  0  0  0  2  0  0  0  0  0  0
  188.2010  176.8380  144.0550 C   0  0  1  0  0  3  0  0  0  0  0  0
  190.1260  175.9180  142.9690 O   0  0  0  0  0  0  0  0  0  0  0  0
  187.5660  176.2860  140.4970 O   0  0  0  0  0  0  0  0  0  0  0  0
  185.0470  177.2350  143.3180 C   0  0  1  0  0  3  0  0  0  0  0  0
  188.1070  176.2320  141.6340 C   0  0  0  0  0  0  0  0  0  0  0  0
  185.0160  177.6310  144.8020 C   0  0  2  0  0  3  0  0  0  0  0  0
  186.6370  178.6160  146.5180 C   0  0  0  0  0  0  0  0  0  0  0  0
  189.4440  175.5440  141.7830 C   0  0  2  0  0  3  0  0  0  0  0  0
  187.4520  176.8000  142.7860 N   0  0  0  0  0  0  0  0  0  0  0  0
  191.9370  174.9070  146.7100 C   0  0  0  0  0  3  0  0  0  0  0  0
  184.1650  178.8560  144.8260 C   0  0  0  0  0  2  0  0  0  0  0  0
  183.8170  177.9140  142.7240 C   0  0  0  0  0  2  0  0  0  0  0  0
  192.1730  174.6080  144.3060 C   0  0  0  0  0  1  0  0  0  0  0  0
  188.1700  176.8420  146.6200 C   0  0  1  0  0  3  0  0  0  0  0  0
  191.1520  175.2870  147.9330 C   0  0  0  0  0  2  0  0  0  0  0  0
  189.9680  175.5720  145.4170 C   0  0  1  0  0  3  0  0  0  0  0  0
  187.3200  176.7330  145.3160 C   0  0  1  0  0  3  0  0  0  0  0  0
  185.9490  179.6150  146.8550 O   0  0  0  0  0  0  0  0  0  0  0  0
  186.3540  177.8200  145.3730 N   0  0  0  0  0  0  0  0  0  0  0  0
  183.4970  179.0000  143.6910 C   0  0  0  0  0  2  0  0  0  0  0  0
  186.6740  179.1500  142.6690 C   0  0  0  0  0  1  0  0  0  0  0  0
  190.4600  176.6380  147.7210 C   0  0  0  0  0  2  0  0  0  0  0  0
  189.6850  176.7330  146.3880 C   0  0  2  0  0  3  0  0  0  0  0  0
  186.3030  177.6730  142.5400 C   0  0  2  0  0  3  0  0  0  0  0  0
  189.3060  174.0300  141.6500 C   0  0  0  0  0  2  0  0  0  0  0  0
  189.3220  174.1260  139.2860 F   0  0  0  0  0  0  0  0  0  0  0  0
  189.9610  173.5540  140.3690 C   0  0  0  0  0  2  0  0  0  0  0  0
  1  5  1  6  0  0  0
  1 19  1  0  0  0  0
  2 13  2  0  0  0  0
  4 12  1  6  0  0  0
  4  1  1  0  0  0  0
  4 20  1  0  0  0  0
  6  8  2  0  0  0  0
  7 15  1  6  0  0  0
  7  9  1  0  0  0  0
  8 11  1  0  0  0  0
  8 12  1  0  0  0  0
  9 14  1  6  0  0  0
  9 22  1  0  0  0  0
 10 21  2  0  0  0  0
 10  3  1  0  0  0  0
 11 28  1  1  0  0  0
 11  5  1  0  0  0  0
 13 18  1  0  0  0  0
 15 23  1  0  0  0  0
 16  2  1  0  0  0  0
 17  3  1  6  0  0  0
 19  2  1  6  0  0  0
 19 26  1  0  0  0  0
 20 22  1  6  0  0  0
 20 17  1  0  0  0  0
 22 10  1  0  0  0  0
 23 14  1  0  0  0  0
 25 18  1  0  0  0  0
 26 17  1  0  0  0  0
 26 25  1  1  0  0  0
 27 24  1  1  0  0  0
 27 12  1  0  0  0  0
 27  7  1  0  0  0  0
 29 30  1  0  0  0  0
 30 28  1  0  0  0  0
M  END
>  <MODEL>
4

>  <REMARK>
 VINA RESULT:      -7.6      2.214      5.676
  Name = 
  2 active torsions:
  status: ('A' for Active; 'I' for Inactive)
    1  A    between atoms: C_11  and  C_28
    2  A    between atoms: C_28  and  C_30
                            x       y       z     vdW  Elec       q    Type
                         _______ _______ _______ _____ _____    ______ ____

>  <TORSDO>
F 2

$$$$
=
 OpenBabel11112416153D

 30 35  0  0  1  0  0  0  0  0999 V2000
  187.9550  176.2400  142.9660 C   0  0  1  0  0  3  0  0  0  0  0  0
  185.8270  177.8290  143.1470 C   0  0  0  0  0  0  0  0  0  0  0  0
  189.0800  177.2280  146.9960 C   0  0  0  0  0  2  0  0  0  0  0  0
  188.9230  175.5300  143.9270 C   0  0  1  0  0  3  0  0  0  0  0  0
  187.1140  175.2760  142.3790 O   0  0  0  0  0  0  0  0  0  0  0  0
  189.7360  173.0710  141.3460 O   0  0  0  0  0  0  0  0  0  0  0  0
  192.0660  174.6600  144.0380 C   0  0  1  0  0  3  0  0  0  0  0  0
  189.1560  174.0050  141.9630 C   0  0  0  0  0  0  0  0  0  0  0  0
  192.0100  175.5790  145.2690 C   0  0  2  0  0  3  0  0  0  0  0  0
  190.2540  176.3400  146.9670 C   0  0  0  0  0  0  0  0  0  0  0  0
  187.8680  174.5660  141.4090 C   0  0  2  0  0  3  0  0  0  0  0  0
  189.7210  174.5470  143.1730 N   0  0  0  0  0  0  0  0  0  0  0  0
  185.2360  178.8640  143.7550 C   0  0  0  0  0  3  0  0  0  0  0  0
  192.7670  174.8270  146.3110 C   0  0  0  0  0  2  0  0  0  0  0  0
  193.2650  173.7570  144.3020 C   0  0  0  0  0  2  0  0  0  0  0  0
  185.1170  177.1660  142.0150 C   0  0  0  0  0  1  0  0  0  0  0  0
  188.8520  177.5410  145.5190 C   0  0  1  0  0  3  0  0  0  0  0  0
  185.9410  179.5770  144.8730 C   0  0  0  0  0  2  0  0  0  0  0  0
  187.2000  177.4090  143.6360 C   0  0  1  0  0  3  0  0  0  0  0  0
  189.7580  176.5720  144.6970 C   0  0  1  0  0  3  0  0  0  0  0  0
  190.8530  175.9750  148.0130 O   0  0  0  0  0  0  0  0  0  0  0  0
  190.6400  175.9300  145.6600 N   0  0  0  0  0  0  0  0  0  0  0  0
  193.4670  173.8380  145.7750 C   0  0  0  0  0  2  0  0  0  0  0  0
  190.3300  172.9880  145.0010 C   0  0  0  0  0  1  0  0  0  0  0  0
  186.5410  178.5630  145.8530 C   0  0  0  0  0  2  0  0  0  0  0  0
  187.3590  177.4480  145.1670 C   0  0  2  0  0  3  0  0  0  0  0  0
  190.8130  173.7970  143.7980 C   0  0  2  0  0  3  0  0  0  0  0  0
  188.1210  175.3990  140.1550 C   0  0  0  0  0  2  0  0  0  0  0  0
  189.2220  174.1660  138.4620 F   0  0  0  0  0  0  0  0  0  0  0  0
  187.9720  174.5380  138.9160 C   0  0  0  0  0  2  0  0  0  0  0  0
  1  5  1  1  0  0  0
  1 19  1  0  0  0  0
  1  4  1  0  0  0  0
  2 13  2  0  0  0  0
  4 12  1  6  0  0  0
  4 20  1  0  0  0  0
  6  8  2  0  0  0  0
  7 15  1  1  0  0  0
  7  9  1  0  0  0  0
  8 12  1  0  0  0  0
  9 22  1  0  0  0  0
  9 14  1  1  0  0  0
 10  3  1  0  0  0  0
 10 21  2  0  0  0  0
 11 28  1  6  0  0  0
 11  8  1  0  0  0  0
 11  5  1  0  0  0  0
 12 27  1  0  0  0  0
 13 18  1  0  0  0  0
 15 23  1  0  0  0  0
 16  2  1  0  0  0  0
 17  3  1  1  0  0  0
 18 25  1  0  0  0  0
 19  2  1  1  0  0  0
 19 26  1  0  0  0  0
 20 17  1  0  0  0  0
 20 22  1  1  0  0  0
 22 10  1  0  0  0  0
 23 14  1  0  0  0  0
 26 17  1  0  0  0  0
 26 25  1  6  0  0  0
 27  7  1  0  0  0  0
 27 24  1  1  0  0  0
 29 30  1  0  0  0  0
 30 28  1  0  0  0  0
M  END
>  <MODEL>
5

>  <REMARK>
 VINA RESULT:      -7.4      1.979      2.520
  Name = 
  2 active torsions:
  status: ('A' for Active; 'I' for Inactive)
    1  A    between atoms: C_11  and  C_28
    2  A    between atoms: C_28  and  C_30
                            x       y       z     vdW  Elec       q    Type
                         _______ _______ _______ _____ _____    ______ ____

>  <TORSDO>
F 2

$$$$
=
 OpenBabel11112416153D

 30 35  0  0  1  0  0  0  0  0999 V2000
  189.8810  175.8930  144.4700 C   0  0  1  0  0  3  0  0  0  0  0  0
  191.3580  176.4740  146.6060 C   0  0  0  0  0  0  0  0  0  0  0  0
  192.6810  172.8410  143.3190 C   0  0  0  0  0  2  0  0  0  0  0  0
  189.7210  174.7200  143.4890 C   0  0  1  0  0  3  0  0  0  0  0  0
  188.7520  175.9380  145.3080 O   0  0  0  0  0  0  0  0  0  0  0  0
  186.3270  175.8140  142.6800 O   0  0  0  0  0  0  0  0  0  0  0  0
  189.0170  174.2360  140.3390 C   0  0  1  0  0  3  0  0  0  0  0  0
  187.4410  175.7140  143.2610 C   0  0  0  0  0  0  0  0  0  0  0  0
  190.4130  173.5960  140.3930 C   0  0  2  0  0  3  0  0  0  0  0  0
  191.8910  172.4520  142.1390 C   0  0  0  0  0  0  0  0  0  0  0  0
  187.6660  176.4570  144.5570 C   0  0  2  0  0  3  0  0  0  0  0  0
  188.4980  174.9180  142.6900 N   0  0  0  0  0  0  0  0  0  0  0  0
  192.5560  176.4310  147.2000 C   0  0  0  0  0  3  0  0  0  0  0  0
  190.2540  172.3290  139.6220 C   0  0  0  0  0  2  0  0  0  0  0  0
  188.3530  173.5840  139.1330 C   0  0  0  0  0  2  0  0  0  0  0  0
  190.2320  177.1430  147.3210 C   0  0  0  0  0  1  0  0  0  0  0  0
  192.2480  174.2850  143.5610 C   0  0  1  0  0  3  0  0  0  0  0  0
  193.7190  175.7980  146.4900 C   0  0  0  0  0  2  0  0  0  0  0  0
  191.2270  175.8580  145.2270 C   0  0  1  0  0  3  0  0  0  0  0  0
  191.0060  174.5520  142.6550 C   0  0  1  0  0  3  0  0  0  0  0  0
  192.0730  171.3660  141.5300 O   0  0  0  0  0  0  0  0  0  0  0  0
  190.9050  173.4070  141.7620 N   0  0  0  0  0  0  0  0  0  0  0  0
  189.1300  172.3320  138.9200 C   0  0  0  0  0  2  0  0  0  0  0  0
  188.0070  172.5730  142.0570 C   0  0  0  0  0  1  0  0  0  0  0  0
  193.3010  174.4580  145.8760 C   0  0  0  0  0  2  0  0  0  0  0  0
  191.9950  174.5340  145.0560 C   0  0  2  0  0  3  0  0  0  0  0  0
  188.1410  174.0210  141.5890 C   0  0  2  0  0  3  0  0  0  0  0  0
  187.7960  177.9590  144.3200 C   0  0  0  0  0  2  0  0  0  0  0  0
  186.0780  179.4060  143.5760 F   0  0  0  0  0  0  0  0  0  0  0  0
  186.4950  178.6580  144.6600 C   0  0  0  0  0  2  0  0  0  0  0  0
  1 19  1  0  0  0  0
  1  5  1  1  0  0  0
  2 13  2  0  0  0  0
  2 16  1  0  0  0  0
  4 12  1  6  0  0  0
  4  1  1  0  0  0  0
  6  8  2  0  0  0  0
  7 15  1  6  0  0  0
  7  9  1  0  0  0  0
  7 27  1  0  0  0  0
  8 11  1  0  0  0  0
  9 14  1  1  0  0  0
  9 22  1  0  0  0  0
 10  3  1  0  0  0  0
 11 28  1  6  0  0  0
 11  5  1  0  0  0  0
 12  8  1  0  0  0  0
 17  3  1  1  0  0  0
 17 26  1  0  0  0  0
 18 13  1  0  0  0  0
 19  2  1  1  0  0  0
 20 22  1  6  0  0  0
 20  4  1  0  0  0  0
 20 17  1  0  0  0  0
 21 10  2  0  0  0  0
 22 10  1  0  0  0  0
 23 15  1  0  0  0  0
 23 14  1  0  0  0  0
 25 18  1  0  0  0  0
 26 19  1  0  0  0  0
 26 25  1  1  0  0  0
 27 24  1  1  0  0  0
 27 12  1  0  0  0  0
 28 30  1  0  0  0  0
 29 30  1  0  0  0  0
M  END
>  <MODEL>
6

>  <REMARK>
 VINA RESULT:      -7.3      2.406      4.960
  Name = 
  2 active torsions:
  status: ('A' for Active; 'I' for Inactive)
    1  A    between atoms: C_11  and  C_28
    2  A    between atoms: C_28  and  C_30
                            x       y       z     vdW  Elec       q    Type
                         _______ _______ _______ _____ _____    ______ ____

>  <TORSDO>
F 2

$$$$
=
 OpenBabel11112416153D

 30 35  0  0  1  0  0  0  0  0999 V2000
  188.2250  176.8590  145.8200 C   0  0  1  0  0  3  0  0  0  0  0  0
  186.4640  178.4140  147.0700 C   0  0  0  0  0  0  0  0  0  0  0  0
  186.0610  177.3110  142.1330 C   0  0  0  0  0  2  0  0  0  0  0  0
  188.6640  176.5820  144.3730 C   0  0  1  0  0  3  0  0  0  0  0  0
  189.2420  177.5840  146.4690 O   0  0  0  0  0  0  0  0  0  0  0  0
  191.9140  175.3900  145.5500 O   0  0  0  0  0  0  0  0  0  0  0  0
  189.7540  174.0840  142.5780 C   0  0  1  0  0  3  0  0  0  0  0  0
  190.7740  175.9290  145.5380 C   0  0  0  0  0  0  0  0  0  0  0  0
  188.4760  174.4240  141.7960 C   0  0  2  0  0  3  0  0  0  0  0  0
  187.0190  176.4850  141.3800 C   0  0  0  0  0  0  0  0  0  0  0  0
  190.3060  176.6910  146.7550 C   0  0  2  0  0  3  0  0  0  0  0  0
  189.9170  175.8060  144.3850 N   0  0  0  0  0  0  0  0  0  0  0  0
  185.2320  178.9350  147.0970 C   0  0  0  0  0  3  0  0  0  0  0  0
  188.9060  174.3760  140.3690 C   0  0  0  0  0  2  0  0  0  0  0  0
  190.6320  173.3620  141.5620 C   0  0  0  0  0  2  0  0  0  0  0  0
  187.3940  178.7260  148.1950 C   0  0  0  0  0  1  0  0  0  0  0  0
  186.2400  176.8210  143.5680 C   0  0  1  0  0  3  0  0  0  0  0  0
  184.2600  178.6100  145.9990 C   0  0  0  0  0  2  0  0  0  0  0  0
  186.8300  177.5160  145.9050 C   0  0  1  0  0  3  0  0  0  0  0  0
  187.5130  175.9190  143.5920 C   0  0  1  0  0  3  0  0  0  0  0  0
  187.0710  176.4840  140.1220 O   0  0  0  0  0  0  0  0  0  0  0  0
  187.8800  175.7030  142.2000 N   0  0  0  0  0  0  0  0  0  0  0  0
  190.0820  173.7790  140.2420 C   0  0  0  0  0  2  0  0  0  0  0  0
  190.8260  176.4110  142.1610 C   0  0  0  0  0  1  0  0  0  0  0  0
  184.9400  178.7370  144.6320 C   0  0  0  0  0  2  0  0  0  0  0  0
  186.2970  178.0050  144.5450 C   0  0  2  0  0  3  0  0  0  0  0  0
  190.5190  175.2920  143.1540 C   0  0  2  0  0  3  0  0  0  0  0  0
  189.9720  175.7460  147.9060 C   0  0  0  0  0  2  0  0  0  0  0  0
  188.2800  174.1390  148.2970 F   0  0  0  0  0  0  0  0  0  0  0  0
  189.2430  174.5230  147.3840 C   0  0  0  0  0  2  0  0  0  0  0  0
  1 19  1  0  0  0  0
  1  5  1  6  0  0  0
  2 13  2  0  0  0  0
  2 16  1  0  0  0  0
  4 12  1  1  0  0  0
  4  1  1  0  0  0  0
  5 11  1  0  0  0  0
  7 15  1  6  0  0  0
  7 27  1  0  0  0  0
  8  6  2  0  0  0  0
  8 11  1  0  0  0  0
  9 14  1  6  0  0  0
  9 22  1  0  0  0  0
  9  7  1  0  0  0  0
 10  3  1  0  0  0  0
 10 22  1  0  0  0  0
 11 28  1  1  0  0  0
 12  8  1  0  0  0  0
 17  3  1  6  0  0  0
 17 20  1  0  0  0  0
 17 26  1  0  0  0  0
 18 13  1  0  0  0  0
 19  2  1  1  0  0  0
 20 22  1  6  0  0  0
 20  4  1  0  0  0  0
 21 10  2  0  0  0  0
 23 14  1  0  0  0  0
 23 15  1  0  0  0  0
 25 18  1  0  0  0  0
 26 25  1  1  0  0  0
 26 19  1  0  0  0  0
 27 24  1  6  0  0  0
 27 12  1  0  0  0  0
 30 28  1  0  0  0  0
 30 29  1  0  0  0  0
M  END
>  <MODEL>
7

>  <REMARK>
 VINA RESULT:      -7.2      2.216      4.831
  Name = 
  2 active torsions:
  status: ('A' for Active; 'I' for Inactive)
    1  A    between atoms: C_11  and  C_28
    2  A    between atoms: C_28  and  C_30
                            x       y       z     vdW  Elec       q    Type
                         _______ _______ _______ _____ _____    ______ ____

>  <TORSDO>
F 2

$$$$
=
 OpenBabel11112416153D

 30 35  0  0  1  0  0  0  0  0999 V2000
  189.1940  175.3110  141.7950 C   0  0  1  0  0  3  0  0  0  0  0  0
  187.4520  175.8950  139.8700 C   0  0  0  0  0  0  0  0  0  0  0  0
  187.0060  177.7620  144.5680 C   0  0  0  0  0  2  0  0  0  0  0  0
  189.2390  175.3530  143.3310 C   0  0  1  0  0  3  0  0  0  0  0  0
  189.1150  173.9680  141.3820 O   0  0  0  0  0  0  0  0  0  0  0  0
  191.8620  172.8050  143.3560 O   0  0  0  0  0  0  0  0  0  0  0  0
  191.4150  175.8860  145.7050 C   0  0  1  0  0  3  0  0  0  0  0  0
  190.9380  173.5620  142.9520 C   0  0  0  0  0  0  0  0  0  0  0  0
  190.4150  177.0110  146.0140 C   0  0  2  0  0  3  0  0  0  0  0  0
  187.9180  177.4510  145.6810 C   0  0  0  0  0  0  0  0  0  0  0  0
  190.3930  173.3780  141.5560 C   0  0  2  0  0  3  0  0  0  0  0  0
  190.4170  174.6030  143.8030 N   0  0  0  0  0  0  0  0  0  0  0  0
  186.5170  176.7320  139.4040 C   0  0  0  0  0  3  0  0  0  0  0  0
  190.2610  176.9540  147.4960 C   0  0  0  0  0  2  0  0  0  0  0  0
  192.1360  175.6530  147.0280 C   0  0  0  0  0  2  0  0  0  0  0  0
  187.8260  174.7120  139.0410 C   0  0  0  0  0  1  0  0  0  0  0  0
  187.8770  177.5260  143.3360 C   0  0  1  0  0  3  0  0  0  0  0  0
  186.1450  177.9520  140.1970 C   0  0  0  0  0  2  0  0  0  0  0  0
  188.0900  176.2180  141.2070 C   0  0  1  0  0  3  0  0  0  0  0  0
  189.1780  176.8130  143.8200 C   0  0  1  0  0  3  0  0  0  0  0  0
  187.6170  177.6680  146.8840 O   0  0  0  0  0  0  0  0  0  0  0  0
  189.1550  176.8790  145.2740 N   0  0  0  0  0  0  0  0  0  0  0  0
  191.2140  176.2200  148.0510 C   0  0  0  0  0  2  0  0  0  0  0  0
  189.6680  174.0040  146.0870 C   0  0  0  0  0  1  0  0  0  0  0  0
  185.9470  177.5860  141.6720 C   0  0  0  0  0  2  0  0  0  0  0  0
  187.1020  176.7480  142.2620 C   0  0  2  0  0  3  0  0  0  0  0  0
  190.7920  174.5630  145.2170 C   0  0  2  0  0  3  0  0  0  0  0  0
  191.3930  173.8500  140.5040 C   0  0  0  0  0  2  0  0  0  0  0  0
  190.9470  171.9340  139.1900 F   0  0  0  0  0  0  0  0  0  0  0  0
  191.9720  172.6630  139.7610 C   0  0  0  0  0  2  0  0  0  0  0  0
  1  5  1  1  0  0  0
  1  4  1  0  0  0  0
  3 10  1  0  0  0  0
  4 12  1  6  0  0  0
  4 20  1  0  0  0  0
  5 11  1  0  0  0  0
  7  9  1  0  0  0  0
  7 15  1  1  0  0  0
  8  6  2  0  0  0  0
  8 12  1  0  0  0  0
  9 14  1  1  0  0  0
 10 21  2  0  0  0  0
 11 28  1  6  0  0  0
 11  8  1  0  0  0  0
 12 27  1  0  0  0  0
 13  2  2  0  0  0  0
 13 18  1  0  0  0  0
 14 23  1  0  0  0  0
 15 23  1  0  0  0  0
 16  2  1  0  0  0  0
 17 20  1  0  0  0  0
 17  3  1  1  0  0  0
 18 25  1  0  0  0  0
 19  2  1  6  0  0  0
 19  1  1  0  0  0  0
 19 26  1  0  0  0  0
 20 22  1  1  0  0  0
 22 10  1  0  0  0  0
 22  9  1  0  0  0  0
 26 25  1  6  0  0  0
 26 17  1  0  0  0  0
 27  7  1  0  0  0  0
 27 24  1  1  0  0  0
 29 30  1  0  0  0  0
 30 28  1  0  0  0  0
M  END
>  <MODEL>
8

>  <REMARK>
 VINA RESULT:      -6.9      2.663      5.098
  Name = 
  2 active torsions:
  status: ('A' for Active; 'I' for Inactive)
    1  A    between atoms: C_11  and  C_28
    2  A    between atoms: C_28  and  C_30
                            x       y       z     vdW  Elec       q    Type
                         _______ _______ _______ _____ _____    ______ ____

>  <TORSDO>
F 2

$$$$
=
 OpenBabel11112416153D

 30 35  0  0  1  0  0  0  0  0999 V2000
  189.1110  175.9610  143.3910 C   0  0  1  0  0  3  0  0  0  0  0  0
  188.3630  177.1510  145.6510 C   0  0  0  0  0  0  0  0  0  0  0  0
  192.2390  173.8810  145.4820 C   0  0  0  0  0  2  0  0  0  0  0  0
  189.9260  174.7230  142.9800 C   0  0  1  0  0  3  0  0  0  0  0  0
  187.7500  175.7100  143.1390 O   0  0  0  0  0  0  0  0  0  0  0  0
  188.1910  174.6090  139.7630 O   0  0  0  0  0  0  0  0  0  0  0  0
  191.9180  173.7910  140.5690 C   0  0  1  0  0  3  0  0  0  0  0  0
  188.4840  174.9170  140.9500 C   0  0  0  0  0  0  0  0  0  0  0  0
  192.8700  173.6360  141.7650 C   0  0  2  0  0  3  0  0  0  0  0  0
  192.6790  173.1670  144.2720 C   0  0  0  0  0  0  0  0  0  0  0  0
  187.5390  175.7940  141.7380 C   0  0  2  0  0  3  0  0  0  0  0  0
  189.7130  174.4570  141.5460 N   0  0  0  0  0  0  0  0  0  0  0  0
  188.6910  177.5410  146.8880 C   0  0  0  0  0  3  0  0  0  0  0  0
  193.5420  172.3270  141.5190 C   0  0  0  0  0  2  0  0  0  0  0  0
  192.4990  172.8660  139.5060 C   0  0  0  0  0  2  0  0  0  0  0  0
  187.0000  177.4810  145.1370 C   0  0  0  0  0  1  0  0  0  0  0  0
  191.5580  175.1250  144.9180 C   0  0  1  0  0  3  0  0  0  0  0  0
  190.0670  177.2580  147.4200 C   0  0  0  0  0  2  0  0  0  0  0  0
  189.4100  176.4180  144.8360 C   0  0  1  0  0  3  0  0  0  0  0  0
  191.4020  174.9080  143.3800 C   0  0  1  0  0  3  0  0  0  0  0  0
  193.4200  172.1500  144.3170 O   0  0  0  0  0  0  0  0  0  0  0  0
  192.1850  173.7240  143.0590 N   0  0  0  0  0  0  0  0  0  0  0  0
  193.3490  171.9150  140.2740 C   0  0  0  0  0  2  0  0  0  0  0  0
  190.2330  172.0350  141.4720 C   0  0  0  0  0  1  0  0  0  0  0  0
  190.4660  175.8100  147.1160 C   0  0  0  0  0  2  0  0  0  0  0  0
  190.2330  175.3990  145.6460 C   0  0  2  0  0  3  0  0  0  0  0  0
  190.4490  173.4080  140.8380 C   0  0  2  0  0  3  0  0  0  0  0  0
  187.5720  177.2350  141.2360 C   0  0  0  0  0  2  0  0  0  0  0  0
  186.4250  179.0370  142.2540 F   0  0  0  0  0  0  0  0  0  0  0  0
  186.2350  177.9060  141.4840 C   0  0  0  0  0  2  0  0  0  0  0  0
  1  5  1  1  0  0  0
  1 19  1  0  0  0  0
  2 13  2  0  0  0  0
  4 12  1  6  0  0  0
  4 20  1  0  0  0  0
  4  1  1  0  0  0  0
  6  8  2  0  0  0  0
  7 15  1  6  0  0  0
  7 27  1  0  0  0  0
  7  9  1  0  0  0  0
  8 12  1  0  0  0  0
  8 11  1  0  0  0  0
  9 14  1  6  0  0  0
  9 22  1  0  0  0  0
 10 21  2  0  0  0  0
 10  3  1  0  0  0  0
 11 28  1  6  0  0  0
 11  5  1  0  0  0  0
 13 18  1  0  0  0  0
 15 23  1  0  0  0  0
 16  2  1  0  0  0  0
 17  3  1  1  0  0  0
 17 26  1  0  0  0  0
 19 26  1  0  0  0  0
 19  2  1  1  0  0  0
 20 22  1  1  0  0  0
 20 17  1  0  0  0  0
 22 10  1  0  0  0  0
 23 14  1  0  0  0  0
 25 18  1  0  0  0  0
 26 25  1  1  0  0  0
 27 24  1  1  0  0  0
 27 12  1  0  0  0  0
 28 30  1  0  0  0  0
 30 29  1  0  0  0  0
M  END
>  <MODEL>
9

>  <REMARK>
 VINA RESULT:      -6.9      1.927      3.092
  Name = 
  2 active torsions:
  status: ('A' for Active; 'I' for Inactive)
    1  A    between atoms: C_11  and  C_28
    2  A    between atoms: C_28  and  C_30
                            x       y       z     vdW  Elec       q    Type
                         _______ _______ _______ _____ _____    ______ ____

>  <TORSDO>
F 2

$$$$
