=
 OpenBabel11112416513D

 31 36  0  0  1  0  0  0  0  0999 V2000
  186.2930  177.9420  147.2450 C   0  0  0  0  0  0  0  0  0  0  0  0
  188.3490  175.2460  145.5270 C   0  0  2  0  0  3  0  0  0  0  0  0
  188.2890  175.5410  144.0350 C   0  0  0  0  0  0  0  0  0  0  0  0
  187.2770  176.6620  142.1280 C   0  0  0  0  0  0  0  0  0  0  0  0
  187.9940  176.4420  146.3770 C   0  0  0  0  0  0  0  0  0  0  0  0
  187.2820  178.7240  147.8440 C   0  0  0  0  0  3  0  0  0  0  0  0
  187.3390  176.4280  143.5040 C   0  0  0  0  0  3  0  0  0  0  0  0
  190.7900  175.7510  145.9540 C   0  0  2  0  0  3  0  0  0  0  0  0
  184.8630  178.3210  147.3800 C   0  0  0  0  0  1  0  0  0  0  0  0
  190.0750  173.9320  143.6450 O   0  0  0  0  0  0  0  0  0  0  0  0
  186.0980  177.7860  141.4860 Cl  0  0  0  0  0  0  0  0  0  0  0  0
  190.4340  176.8130  147.0010 C   0  0  0  0  0  2  0  0  0  0  0  0
  189.7100  174.6490  145.9440 C   0  0  2  0  0  3  0  0  0  0  0  0
  186.6480  176.8050  146.5160 C   0  0  0  0  0  3  0  0  0  0  0  0
  188.1520  175.9990  141.2660 C   0  0  0  0  0  3  0  0  0  0  0  0
  188.9930  177.2330  146.9860 C   0  0  0  0  0  0  0  0  0  0  0  0
  188.6270  178.3640  147.7220 C   0  0  0  0  0  3  0  0  0  0  0  0
  190.0450  173.4910  145.0010 C   0  0  0  0  0  2  0  0  0  0  0  0
  189.1450  174.8500  143.1530 C   0  0  0  0  0  0  0  0  0  0  0  0
  189.0840  175.0930  141.7770 C   0  0  0  0  0  3  0  0  0  0  0  0
  192.9830  176.3880  146.4840 C   0  0  0  0  0  2  0  0  0  0  0  0
  193.0550  175.6670  145.2230 C   0  0  2  0  0  3  0  0  0  0  0  0
  192.1150  175.2180  146.2670 N   0  0  2  0  0  0  0  0  0  0  0  0
  196.0550  175.6980  142.9780 C   0  0  1  0  0  3  0  0  0  0  0  0
  195.4990  175.6290  145.3430 O   0  0  0  0  0  0  0  0  0  0  0  0
  193.1040  173.1830  143.5180 O   0  0  0  0  0  0  0  0  0  0  0  0
  196.3870  176.6720  141.8680 C   0  0  0  0  0  1  0  0  0  0  0  0
  195.5960  176.4720  144.2120 C   0  0  0  0  0  2  0  0  0  0  0  0
  194.5110  173.6550  143.8530 S   0  0  2  0  0  0  0  0  0  0  0  0
  194.3390  174.8260  145.2330 C   0  0  2  0  0  3  0  0  0  0  0  0
  194.9510  174.7630  142.5060 C   0  0  0  0  0  2  0  0  0  0  0  0
  1  9  1  0  0  0  0
  1  6  1  0  0  0  0
  2  3  1  6  0  0  0
  2 13  1  0  0  0  0
  2  5  1  0  0  0  0
  4  7  2  0  0  0  0
  5 14  1  0  0  0  0
  5 16  2  0  0  0  0
  7  3  1  0  0  0  0
  8 23  1  0  0  0  0
  8 12  1  1  0  0  0
 10 18  1  0  0  0  0
 11  4  1  0  0  0  0
 13 18  1  6  0  0  0
 13  8  1  0  0  0  0
 14  1  2  0  0  0  0
 15 20  2  0  0  0  0
 15  4  1  0  0  0  0
 16 12  1  0  0  0  0
 16 17  1  0  0  0  0
 17  6  2  0  0  0  0
 19 10  1  0  0  0  0
 19  3  2  0  0  0  0
 20 19  1  0  0  0  0
 22 30  1  0  0  0  0
 22 23  1  0  0  0  0
 22 21  1  1  0  0  0
 23 21  1  1  0  0  0
 24 27  1  6  0  0  0
 24 28  1  0  0  0  0
 28 25  1  0  0  0  0
 29 26  2  6  0  0  0
 29 30  1  0  0  0  0
 30 25  1  6  0  0  0
 31 24  1  0  0  0  0
 31 29  1  0  0  0  0
M  END
>  <MODEL>
1

>  <REMARK>
 VINA RESULT:      -7.9      0.000      0.000
  Name = 
  2 active torsions:
  status: ('A' for Active; 'I' for Inactive)
    1  A    between atoms: C_5  and  C_30
    2  A    between atoms: C_10  and  N_16
                            x       y       z     vdW  Elec       q    Type
                         _______ _______ _______ _____ _____    ______ ____

>  <TORSDO>
F 2

$$$$
=
 OpenBabel11112416513D

 31 36  0  0  1  0  0  0  0  0999 V2000
  187.2720  177.4820  147.1510 C   0  0  0  0  0  0  0  0  0  0  0  0
  189.1590  174.7350  145.3210 C   0  0  2  0  0  3  0  0  0  0  0  0
  188.9520  174.9850  143.8340 C   0  0  0  0  0  0  0  0  0  0  0  0
  187.7530  176.0480  142.0030 C   0  0  0  0  0  0  0  0  0  0  0  0
  188.8850  175.9560  146.1650 C   0  0  0  0  0  0  0  0  0  0  0  0
  188.3130  178.2820  147.6260 C   0  0  0  0  0  3  0  0  0  0  0  0
  187.9520  175.8560  143.3720 C   0  0  0  0  0  3  0  0  0  0  0  0
  191.6290  175.2540  145.4910 C   0  0  2  0  0  3  0  0  0  0  0  0
  185.8610  177.8640  147.4140 C   0  0  0  0  0  1  0  0  0  0  0  0
  190.6960  173.3660  143.3190 O   0  0  0  0  0  0  0  0  0  0  0  0
  186.5140  177.1510  141.4460 Cl  0  0  0  0  0  0  0  0  0  0  0  0
  191.3730  176.3480  146.5350 C   0  0  0  0  0  2  0  0  0  0  0  0
  190.5560  174.1520  145.6200 C   0  0  2  0  0  3  0  0  0  0  0  0
  187.5580  176.3230  146.4250 C   0  0  0  0  0  3  0  0  0  0  0  0
  188.5420  175.3590  141.0790 C   0  0  0  0  0  3  0  0  0  0  0  0
  189.9360  176.7660  146.6490 C   0  0  0  0  0  0  0  0  0  0  0  0
  189.6400  177.9190  147.3830 C   0  0  0  0  0  3  0  0  0  0  0  0
  190.8010  172.9660  144.6840 C   0  0  0  0  0  2  0  0  0  0  0  0
  189.7190  174.2680  142.8930 C   0  0  0  0  0  0  0  0  0  0  0  0
  189.5230  174.4700  141.5230 C   0  0  0  0  0  3  0  0  0  0  0  0
  193.8330  175.9010  145.9550 C   0  0  0  0  0  2  0  0  0  0  0  0
  193.8510  175.2880  144.6370 C   0  0  2  0  0  3  0  0  0  0  0  0
  192.9800  174.7310  145.6880 N   0  0  2  0  0  0  0  0  0  0  0  0
  196.6010  175.4060  142.0940 C   0  0  1  0  0  3  0  0  0  0  0  0
  196.2940  175.3160  144.5030 O   0  0  0  0  0  0  0  0  0  0  0  0
  193.7900  172.8110  142.9210 O   0  0  0  0  0  0  0  0  0  0  0  0
  196.7910  176.3930  140.9610 C   0  0  0  0  0  1  0  0  0  0  0  0
  196.2520  176.1640  143.3730 C   0  0  0  0  0  2  0  0  0  0  0  0
  195.2110  173.3200  143.1120 S   0  0  2  0  0  0  0  0  0  0  0  0
  195.1510  174.4820  144.5090 C   0  0  2  0  0  3  0  0  0  0  0  0
  195.4790  174.4430  141.7330 C   0  0  0  0  0  2  0  0  0  0  0  0
  1  9  1  0  0  0  0
  1  6  1  0  0  0  0
  2  3  1  6  0  0  0
  2 13  1  0  0  0  0
  2  5  1  0  0  0  0
  4  7  2  0  0  0  0
  5 14  1  0  0  0  0
  5 16  2  0  0  0  0
  7  3  1  0  0  0  0
  8 13  1  0  0  0  0
  8 23  1  0  0  0  0
  8 12  1  1  0  0  0
 10 18  1  0  0  0  0
 11  4  1  0  0  0  0
 12 16  1  0  0  0  0
 13 18  1  6  0  0  0
 14  1  2  0  0  0  0
 15 20  2  0  0  0  0
 15  4  1  0  0  0  0
 16 17  1  0  0  0  0
 17  6  2  0  0  0  0
 19 10  1  0  0  0  0
 19  3  2  0  0  0  0
 20 19  1  0  0  0  0
 22 23  1  0  0  0  0
 22 21  1  1  0  0  0
 23 21  1  1  0  0  0
 24 27  1  6  0  0  0
 24 28  1  0  0  0  0
 28 25  1  0  0  0  0
 29 26  2  6  0  0  0
 29 30  1  0  0  0  0
 30 25  1  6  0  0  0
 30 22  1  0  0  0  0
 31 24  1  0  0  0  0
 31 29  1  0  0  0  0
M  END
>  <MODEL>
2

>  <REMARK>
 VINA RESULT:      -7.3      0.917      1.021
  Name = 
  2 active torsions:
  status: ('A' for Active; 'I' for Inactive)
    1  A    between atoms: C_5  and  C_30
    2  A    between atoms: C_10  and  N_16
                            x       y       z     vdW  Elec       q    Type
                         _______ _______ _______ _____ _____    ______ ____

>  <TORSDO>
F 2

$$$$
=
 OpenBabel11112416513D

 31 36  0  0  1  0  0  0  0  0999 V2000
  186.0940  177.3660  142.8270 C   0  0  0  0  0  0  0  0  0  0  0  0
  188.5320  174.4840  143.2750 C   0  0  2  0  0  3  0  0  0  0  0  0
  188.9980  174.0900  141.8800 C   0  0  0  0  0  0  0  0  0  0  0  0
  188.7380  174.1290  139.4620 C   0  0  0  0  0  0  0  0  0  0  0  0
  187.9430  175.8730  143.3280 C   0  0  0  0  0  0  0  0  0  0  0  0
  186.8410  178.4520  143.2880 C   0  0  0  0  0  3  0  0  0  0  0  0
  188.3160  174.5270  140.7330 C   0  0  0  0  0  3  0  0  0  0  0  0
  190.6920  175.4370  144.1830 C   0  0  2  0  0  3  0  0  0  0  0  0
  184.7180  177.5760  142.3110 C   0  0  0  0  0  1  0  0  0  0  0  0
  190.7580  172.7190  142.8560 O   0  0  0  0  0  0  0  0  0  0  0  0
  187.8870  174.6990  138.0420 Cl  0  0  0  0  0  0  0  0  0  0  0  0
  190.0300  176.7920  144.4590 C   0  0  0  0  0  2  0  0  0  0  0  0
  189.6470  174.3100  144.3270 C   0  0  2  0  0  3  0  0  0  0  0  0
  186.6430  176.0820  142.8490 C   0  0  0  0  0  3  0  0  0  0  0  0
  189.8360  173.2770  139.3240 C   0  0  0  0  0  3  0  0  0  0  0  0
  188.6960  176.9720  143.7960 C   0  0  0  0  0  0  0  0  0  0  0  0
  188.1340  178.2520  143.7790 C   0  0  0  0  0  3  0  0  0  0  0  0
  190.2510  172.9120  144.1740 C   0  0  0  0  0  2  0  0  0  0  0  0
  190.0830  173.2030  141.7330 C   0  0  0  0  0  0  0  0  0  0  0  0
  190.5070  172.8130  140.4580 C   0  0  0  0  0  3  0  0  0  0  0  0
  192.4840  176.5790  145.1720 C   0  0  0  0  0  2  0  0  0  0  0  0
  193.0640  175.5140  144.3700 C   0  0  2  0  0  3  0  0  0  0  0  0
  191.8110  175.2700  145.1090 N   0  0  2  0  0  0  0  0  0  0  0  0
  196.6830  175.2640  143.4310 C   0  0  1  0  0  3  0  0  0  0  0  0
  195.2870  175.9290  145.3060 O   0  0  0  0  0  0  0  0  0  0  0  0
  193.8150  172.6370  143.8740 O   0  0  0  0  0  0  0  0  0  0  0  0
  197.3790  175.8340  142.2130 C   0  0  0  0  0  1  0  0  0  0  0  0
  195.7760  176.3300  144.0420 C   0  0  0  0  0  2  0  0  0  0  0  0
  194.9820  173.4250  144.4520 S   0  0  2  0  0  0  0  0  0  0  0  0
  194.2740  174.9560  145.1320 C   0  0  2  0  0  3  0  0  0  0  0  0
  195.8610  174.0530  143.0150 C   0  0  0  0  0  2  0  0  0  0  0  0
  1 14  2  0  0  0  0
  1  6  1  0  0  0  0
  2  3  1  6  0  0  0
  2  5  1  0  0  0  0
  2 13  1  0  0  0  0
  4  7  1  0  0  0  0
  5 16  2  0  0  0  0
  6 17  2  0  0  0  0
  7  3  2  0  0  0  0
  8 13  1  0  0  0  0
  8 12  1  1  0  0  0
  8 23  1  0  0  0  0
  9  1  1  0  0  0  0
 10 18  1  0  0  0  0
 11  4  1  0  0  0  0
 13 18  1  6  0  0  0
 14  5  1  0  0  0  0
 15  4  2  0  0  0  0
 15 20  1  0  0  0  0
 16 12  1  0  0  0  0
 17 16  1  0  0  0  0
 19  3  1  0  0  0  0
 19 10  1  0  0  0  0
 20 19  2  0  0  0  0
 22 23  1  0  0  0  0
 22 30  1  0  0  0  0
 22 21  1  1  0  0  0
 23 21  1  1  0  0  0
 24 27  1  6  0  0  0
 24 28  1  0  0  0  0
 28 25  1  0  0  0  0
 29 26  2  6  0  0  0
 29 30  1  0  0  0  0
 30 25  1  6  0  0  0
 31 24  1  0  0  0  0
 31 29  1  0  0  0  0
M  END
>  <MODEL>
3

>  <REMARK>
 VINA RESULT:      -7.3      2.252      2.767
  Name = 
  2 active torsions:
  status: ('A' for Active; 'I' for Inactive)
    1  A    between atoms: C_5  and  C_30
    2  A    between atoms: C_10  and  N_16
                            x       y       z     vdW  Elec       q    Type
                         _______ _______ _______ _____ _____    ______ ____

>  <TORSDO>
F 2

$$$$
=
 OpenBabel11112416513D

 31 36  0  0  1  0  0  0  0  0999 V2000
  188.2550  176.4630  145.9460 C   0  0  0  0  0  0  0  0  0  0  0  0
  191.1110  173.9840  145.5570 C   0  0  2  0  0  3  0  0  0  0  0  0
  190.8650  173.2420  144.2510 C   0  0  0  0  0  0  0  0  0  0  0  0
  189.4000  172.5790  142.4260 C   0  0  0  0  0  0  0  0  0  0  0  0
  190.3610  175.2920  145.6400 C   0  0  0  0  0  0  0  0  0  0  0  0
  188.8890  177.6800  145.6890 C   0  0  0  0  0  3  0  0  0  0  0  0
  189.6180  173.2930  143.6070 C   0  0  0  0  0  3  0  0  0  0  0  0
  193.1790  175.2900  144.9120 C   0  0  2  0  0  3  0  0  0  0  0  0
  186.8000  176.4320  146.2410 C   0  0  0  0  0  1  0  0  0  0  0  0
  193.1150  172.3170  144.3530 O   0  0  0  0  0  0  0  0  0  0  0  0
  187.8450  172.6680  141.6270 Cl  0  0  0  0  0  0  0  0  0  0  0  0
  192.4900  176.6230  145.2240 C   0  0  0  0  0  2  0  0  0  0  0  0
  192.6160  174.1860  145.8320 C   0  0  2  0  0  3  0  0  0  0  0  0
  188.9880  175.2750  145.9240 C   0  0  0  0  0  3  0  0  0  0  0  0
  190.4190  171.7930  141.8850 C   0  0  0  0  0  3  0  0  0  0  0  0
  191.0010  176.5240  145.3820 C   0  0  0  0  0  0  0  0  0  0  0  0
  190.2600  177.7090  145.4170 C   0  0  0  0  0  3  0  0  0  0  0  0
  193.3290  172.8430  145.6620 C   0  0  0  0  0  2  0  0  0  0  0  0
  191.8770  172.4190  143.7160 C   0  0  0  0  0  0  0  0  0  0  0  0
  191.6560  171.7130  142.5290 C   0  0  0  0  0  3  0  0  0  0  0  0
  194.9340  176.8020  144.5570 C   0  0  0  0  0  2  0  0  0  0  0  0
  195.2280  175.6300  143.7480 C   0  0  2  0  0  3  0  0  0  0  0  0
  194.6210  175.4620  145.0820 N   0  0  2  0  0  0  0  0  0  0  0  0
  197.7640  175.2610  141.0140 C   0  0  1  0  0  3  0  0  0  0  0  0
  197.4620  176.4160  143.1310 O   0  0  0  0  0  0  0  0  0  0  0  0
  196.1960  172.7800  143.6030 O   0  0  0  0  0  0  0  0  0  0  0  0
  197.5730  175.4520  139.5240 C   0  0  0  0  0  1  0  0  0  0  0  0
  197.1120  176.4230  141.7610 C   0  0  0  0  0  2  0  0  0  0  0  0
  197.2940  173.7600  143.2150 S   0  0  2  0  0  0  0  0  0  0  0  0
  196.7440  175.3940  143.7940 C   0  0  2  0  0  3  0  0  0  0  0  0
  197.1260  173.9460  141.4340 C   0  0  0  0  0  2  0  0  0  0  0  0
  1  9  1  0  0  0  0
  2  3  1  6  0  0  0
  2  5  1  0  0  0  0
  2 13  1  0  0  0  0
  4  7  1  0  0  0  0
  5 14  2  0  0  0  0
  6  1  2  0  0  0  0
  7  3  2  0  0  0  0
  8 23  1  0  0  0  0
  8 12  1  1  0  0  0
  8 13  1  0  0  0  0
 10 18  1  0  0  0  0
 11  4  1  0  0  0  0
 12 16  1  0  0  0  0
 13 18  1  6  0  0  0
 14  1  1  0  0  0  0
 15  4  2  0  0  0  0
 15 20  1  0  0  0  0
 16 17  2  0  0  0  0
 16  5  1  0  0  0  0
 17  6  1  0  0  0  0
 19  3  1  0  0  0  0
 19 10  1  0  0  0  0
 20 19  2  0  0  0  0
 22 30  1  0  0  0  0
 22 21  1  1  0  0  0
 22 23  1  0  0  0  0
 23 21  1  1  0  0  0
 24 27  1  6  0  0  0
 24 31  1  0  0  0  0
 24 28  1  0  0  0  0
 28 25  1  0  0  0  0
 29 26  2  1  0  0  0
 29 30  1  0  0  0  0
 30 25  1  6  0  0  0
 31 29  1  0  0  0  0
M  END
>  <MODEL>
4

>  <REMARK>
 VINA RESULT:      -7.1      2.282      3.278
  Name = 
  2 active torsions:
  status: ('A' for Active; 'I' for Inactive)
    1  A    between atoms: C_5  and  C_30
    2  A    between atoms: C_10  and  N_16
                            x       y       z     vdW  Elec       q    Type
                         _______ _______ _______ _____ _____    ______ ____

>  <TORSDO>
F 2

$$$$
=
 OpenBabel11112416513D

 31 36  0  0  1  0  0  0  0  0999 V2000
  188.3110  175.7860  141.7350 C   0  0  0  0  0  0  0  0  0  0  0  0
  191.6220  176.3050  143.5290 C   0  0  2  0  0  3  0  0  0  0  0  0
  191.3850  175.9460  144.9890 C   0  0  0  0  0  0  0  0  0  0  0  0
  189.8860  175.5240  146.8570 C   0  0  0  0  0  0  0  0  0  0  0  0
  190.5780  175.7270  142.6040 C   0  0  0  0  0  0  0  0  0  0  0  0
  188.5600  174.6280  140.9960 C   0  0  0  0  0  3  0  0  0  0  0  0
  190.0860  175.8220  145.5070 C   0  0  0  0  0  3  0  0  0  0  0  0
  193.1570  174.4030  142.8760 C   0  0  2  0  0  3  0  0  0  0  0  0
  186.9760  176.4340  141.6750 C   0  0  0  0  0  1  0  0  0  0  0  0
  193.7870  175.9710  145.3850 O   0  0  0  0  0  0  0  0  0  0  0  0
  188.2600  175.3550  147.4830 Cl  0  0  0  0  0  0  0  0  0  0  0  0
  192.1990  173.9510  141.7680 C   0  0  0  0  0  2  0  0  0  0  0  0
  193.0460  175.9310  143.0660 C   0  0  2  0  0  3  0  0  0  0  0  0
  189.3170  176.3340  142.5340 C   0  0  0  0  0  3  0  0  0  0  0  0
  190.9820  175.3630  147.7080 C   0  0  0  0  0  3  0  0  0  0  0  0
  190.8290  174.5580  141.8530 C   0  0  0  0  0  0  0  0  0  0  0  0
  189.8180  174.0220  141.0490 C   0  0  0  0  0  3  0  0  0  0  0  0
  194.0510  176.4820  144.0800 C   0  0  0  0  0  2  0  0  0  0  0  0
  192.4840  175.8150  145.8620 C   0  0  0  0  0  0  0  0  0  0  0  0
  192.2790  175.5100  147.2110 C   0  0  0  0  0  3  0  0  0  0  0  0
  194.4000  172.6070  142.0260 C   0  0  0  0  0  2  0  0  0  0  0  0
  194.8970  172.8560  143.3690 C   0  0  2  0  0  3  0  0  0  0  0  0
  194.5130  173.9930  142.5130 N   0  0  2  0  0  0  0  0  0  0  0  0
  197.1170  170.7210  145.5060 C   0  0  1  0  0  3  0  0  0  0  0  0
  196.7600  171.2810  143.1680 O   0  0  0  0  0  0  0  0  0  0  0  0
  196.5620  174.5840  145.1930 O   0  0  0  0  0  0  0  0  0  0  0  0
  196.7160  169.7050  146.5530 C   0  0  0  0  0  1  0  0  0  0  0  0
  196.2700  170.5170  144.2510 C   0  0  0  0  0  2  0  0  0  0  0  0
  197.3100  173.3220  144.7860 S   0  0  2  0  0  0  0  0  0  0  0  0
  196.4170  172.6410  143.3570 C   0  0  2  0  0  3  0  0  0  0  0  0
  196.9000  172.1210  146.0610 C   0  0  0  0  0  2  0  0  0  0  0  0
  1 14  1  0  0  0  0
  2  5  1  6  0  0  0
  2  3  1  0  0  0  0
  3  7  2  0  0  0  0
  3 19  1  0  0  0  0
  4 11  1  0  0  0  0
  4 15  2  0  0  0  0
  6 17  1  0  0  0  0
  6  1  2  0  0  0  0
  7  4  1  0  0  0  0
  8 12  1  6  0  0  0
  8 13  1  0  0  0  0
  9  1  1  0  0  0  0
 10 19  1  0  0  0  0
 12 16  1  0  0  0  0
 13  2  1  0  0  0  0
 13 18  1  1  0  0  0
 14  5  2  0  0  0  0
 16  5  1  0  0  0  0
 17 16  2  0  0  0  0
 18 10  1  0  0  0  0
 19 20  2  0  0  0  0
 20 15  1  0  0  0  0
 22 21  1  6  0  0  0
 23 21  1  6  0  0  0
 23  8  1  0  0  0  0
 23 22  1  0  0  0  0
 24 31  1  0  0  0  0
 24 27  1  1  0  0  0
 25 28  1  0  0  0  0
 28 24  1  0  0  0  0
 29 26  2  1  0  0  0
 29 31  1  0  0  0  0
 30 25  1  1  0  0  0
 30 22  1  0  0  0  0
 30 29  1  0  0  0  0
M  END
>  <MODEL>
5

>  <REMARK>
 VINA RESULT:      -7.1      2.929      5.499
  Name = 
  2 active torsions:
  status: ('A' for Active; 'I' for Inactive)
    1  A    between atoms: C_5  and  C_30
    2  A    between atoms: C_10  and  N_16
                            x       y       z     vdW  Elec       q    Type
                         _______ _______ _______ _____ _____    ______ ____

>  <TORSDO>
F 2

$$$$
=
 OpenBabel11112416513D

 31 36  0  0  1  0  0  0  0  0999 V2000
  185.6420  178.8030  143.5600 C   0  0  0  0  0  0  0  0  0  0  0  0
  189.0990  177.2570  143.9030 C   0  0  2  0  0  3  0  0  0  0  0  0
  189.0540  176.3660  145.1360 C   0  0  0  0  0  0  0  0  0  0  0  0
  188.0060  175.6660  147.2160 C   0  0  0  0  0  0  0  0  0  0  0  0
  187.7270  177.5730  143.3570 C   0  0  0  0  0  0  0  0  0  0  0  0
  185.1250  178.1160  142.4610 C   0  0  0  0  0  3  0  0  0  0  0  0
  188.0140  176.4680  146.0730 C   0  0  0  0  0  3  0  0  0  0  0  0
  189.3280  175.4820  142.1140 C   0  0  2  0  0  3  0  0  0  0  0  0
  184.8140  179.8170  144.2610 C   0  0  0  0  0  1  0  0  0  0  0  0
  191.1870  175.3780  144.4990 O   0  0  0  0  0  0  0  0  0  0  0  0
  186.6910  175.7940  148.3650 Cl  0  0  0  0  0  0  0  0  0  0  0  0
  188.0480  175.9570  141.4160 C   0  0  0  0  0  2  0  0  0  0  0  0
  190.0160  176.6780  142.8050 C   0  0  2  0  0  3  0  0  0  0  0  0
  186.9390  178.5330  144.0050 C   0  0  0  0  0  3  0  0  0  0  0  0
  189.0470  174.7630  147.4440 C   0  0  0  0  0  3  0  0  0  0  0  0
  187.2030  176.8820  142.2420 C   0  0  0  0  0  0  0  0  0  0  0  0
  185.9080  177.1660  141.7990 C   0  0  0  0  0  3  0  0  0  0  0  0
  191.3620  176.3120  143.4360 C   0  0  0  0  0  2  0  0  0  0  0  0
  190.1170  175.4760  145.3920 C   0  0  0  0  0  0  0  0  0  0  0  0
  190.1020  174.6690  146.5340 C   0  0  0  0  0  3  0  0  0  0  0  0
  189.3610  173.8420  140.4400 C   0  0  0  0  0  2  0  0  0  0  0  0
  190.3160  173.4200  141.4520 C   0  0  2  0  0  3  0  0  0  0  0  0
  190.1930  174.8510  141.1190 N   0  0  2  0  0  0  0  0  0  0  0  0
  191.5000  169.8690  141.2740 C   0  0  1  0  0  3  0  0  0  0  0  0
  191.1140  171.7790  139.8220 O   0  0  0  0  0  0  0  0  0  0  0  0
  192.8670  173.0930  143.0240 O   0  0  0  0  0  0  0  0  0  0  0  0
  190.8170  168.6240  141.7990 C   0  0  0  0  0  1  0  0  0  0  0  0
  190.4830  170.7290  140.5270 C   0  0  0  0  0  2  0  0  0  0  0  0
  192.8310  172.1610  141.8220 S   0  0  2  0  0  0  0  0  0  0  0  0
  191.5140  172.7840  140.7340 C   0  0  2  0  0  3  0  0  0  0  0  0
  192.0830  170.6480  142.4450 C   0  0  0  0  0  2  0  0  0  0  0  0
  1 14  1  0  0  0  0
  1  9  1  0  0  0  0
  2  5  1  6  0  0  0
  2  3  1  0  0  0  0
  3 19  2  0  0  0  0
  3  7  1  0  0  0  0
  4 15  1  0  0  0  0
  4 11  1  0  0  0  0
  5 14  2  0  0  0  0
  6  1  2  0  0  0  0
  7  4  2  0  0  0  0
  8 12  1  6  0  0  0
  8 13  1  0  0  0  0
 10 19  1  0  0  0  0
 12 16  1  0  0  0  0
 13 18  1  1  0  0  0
 13  2  1  0  0  0  0
 16  5  1  0  0  0  0
 17 16  2  0  0  0  0
 17  6  1  0  0  0  0
 18 10  1  0  0  0  0
 19 20  1  0  0  0  0
 20 15  2  0  0  0  0
 22 21  1  6  0  0  0
 23 21  1  6  0  0  0
 23 22  1  0  0  0  0
 23  8  1  0  0  0  0
 24 27  1  1  0  0  0
 24 31  1  0  0  0  0
 25 28  1  0  0  0  0
 28 24  1  0  0  0  0
 29 31  1  0  0  0  0
 29 26  2  1  0  0  0
 30 25  1  1  0  0  0
 30 22  1  0  0  0  0
 30 29  1  0  0  0  0
M  END
>  <MODEL>
6

>  <REMARK>
 VINA RESULT:      -6.9      3.102      5.305
  Name = 
  2 active torsions:
  status: ('A' for Active; 'I' for Inactive)
    1  A    between atoms: C_5  and  C_30
    2  A    between atoms: C_10  and  N_16
                            x       y       z     vdW  Elec       q    Type
                         _______ _______ _______ _____ _____    ______ ____

>  <TORSDO>
F 2

$$$$
=
 OpenBabel11112416513D

 31 36  0  0  1  0  0  0  0  0999 V2000
  186.3370  178.2160  146.5780 C   0  0  0  0  0  0  0  0  0  0  0  0
  189.4200  177.7880  144.3960 C   0  0  2  0  0  3  0  0  0  0  0  0
  190.5140  177.2310  145.2960 C   0  0  0  0  0  0  0  0  0  0  0  0
  191.4230  176.7800  147.5060 C   0  0  0  0  0  0  0  0  0  0  0  0
  188.0350  177.5850  144.9600 C   0  0  0  0  0  0  0  0  0  0  0  0
  185.5180  177.1790  146.1310 C   0  0  0  0  0  3  0  0  0  0  0  0
  190.3950  177.2640  146.6950 C   0  0  0  0  0  3  0  0  0  0  0  0
  189.0380  175.7750  142.9120 C   0  0  2  0  0  3  0  0  0  0  0  0
  185.8800  179.1030  147.6790 C   0  0  0  0  0  1  0  0  0  0  0  0
  191.8740  176.7370  143.3380 O   0  0  0  0  0  0  0  0  0  0  0  0
  191.2500  176.8120  149.2480 Cl  0  0  0  0  0  0  0  0  0  0  0  0
  187.5570  175.7090  143.3060 C   0  0  0  0  0  2  0  0  0  0  0  0
  189.5220  177.2400  142.9570 C   0  0  2  0  0  3  0  0  0  0  0  0
  187.5890  178.4190  145.9940 C   0  0  0  0  0  3  0  0  0  0  0  0
  192.5890  176.2710  146.9300 C   0  0  0  0  0  3  0  0  0  0  0  0
  187.2030  176.5370  144.5070 C   0  0  0  0  0  0  0  0  0  0  0  0
  185.9470  176.3480  145.0910 C   0  0  0  0  0  3  0  0  0  0  0  0
  190.9630  177.4090  142.4700 C   0  0  0  0  0  2  0  0  0  0  0  0
  191.7080  176.7480  144.7240 C   0  0  0  0  0  0  0  0  0  0  0  0
  192.7320  176.2570  145.5400 C   0  0  0  0  0  3  0  0  0  0  0  0
  188.3730  173.9620  141.5830 C   0  0  0  0  0  2  0  0  0  0  0  0
  189.8160  173.8610  141.7300 C   0  0  2  0  0  3  0  0  0  0  0  0
  189.1900  175.1880  141.5810 N   0  0  2  0  0  0  0  0  0  0  0  0
  191.8960  170.8600  140.8870 C   0  0  1  0  0  3  0  0  0  0  0  0
  189.9460  172.0620  140.0750 O   0  0  0  0  0  0  0  0  0  0  0  0
  192.6230  174.7030  141.0280 O   0  0  0  0  0  0  0  0  0  0  0  0
  192.2840  169.7040  141.7850 C   0  0  0  0  0  1  0  0  0  0  0  0
  190.4070  171.1540  141.0560 C   0  0  0  0  0  2  0  0  0  0  0  0
  192.2000  173.4700  140.2430 S   0  0  2  0  0  0  0  0  0  0  0  0
  190.3910  173.3670  140.3950 C   0  0  2  0  0  3  0  0  0  0  0  0
  192.7170  172.0830  141.2650 C   0  0  0  0  0  2  0  0  0  0  0  0
  1  9  1  0  0  0  0
  2  5  1  1  0  0  0
  2  3  1  0  0  0  0
  3  7  1  0  0  0  0
  4 11  1  0  0  0  0
  5 14  1  0  0  0  0
  6  1  1  0  0  0  0
  7  4  2  0  0  0  0
  8 13  1  0  0  0  0
  8 12  1  6  0  0  0
 10 19  1  0  0  0  0
 12 16  1  0  0  0  0
 13 18  1  1  0  0  0
 13  2  1  0  0  0  0
 14  1  2  0  0  0  0
 15  4  1  0  0  0  0
 16  5  2  0  0  0  0
 16 17  1  0  0  0  0
 17  6  2  0  0  0  0
 18 10  1  0  0  0  0
 19  3  2  0  0  0  0
 19 20  1  0  0  0  0
 20 15  2  0  0  0  0
 22 21  1  6  0  0  0
 23 21  1  1  0  0  0
 23 22  1  0  0  0  0
 23  8  1  0  0  0  0
 24 28  1  0  0  0  0
 24 31  1  0  0  0  0
 24 27  1  1  0  0  0
 25 28  1  0  0  0  0
 29 30  1  0  0  0  0
 29 26  2  1  0  0  0
 29 31  1  0  0  0  0
 30 25  1  1  0  0  0
 30 22  1  0  0  0  0
M  END
>  <MODEL>
7

>  <REMARK>
 VINA RESULT:      -6.8      3.197      5.183
  Name = 
  2 active torsions:
  status: ('A' for Active; 'I' for Inactive)
    1  A    between atoms: C_5  and  C_30
    2  A    between atoms: C_10  and  N_16
                            x       y       z     vdW  Elec       q    Type
                         _______ _______ _______ _____ _____    ______ ____

>  <TORSDO>
F 2

$$$$
=
 OpenBabel11112416513D

 31 36  0  0  1  0  0  0  0  0999 V2000
  187.7910  177.2940  142.0960 C   0  0  0  0  0  0  0  0  0  0  0  0
  191.3800  176.7380  143.2180 C   0  0  2  0  0  3  0  0  0  0  0  0
  191.3580  176.7060  144.7400 C   0  0  0  0  0  0  0  0  0  0  0  0
  190.2570  177.1630  146.8600 C   0  0  0  0  0  0  0  0  0  0  0  0
  190.0240  176.4850  142.6050 C   0  0  0  0  0  0  0  0  0  0  0  0
  187.4470  176.0390  141.5910 C   0  0  0  0  0  3  0  0  0  0  0  0
  190.2470  177.1680  145.4630 C   0  0  0  0  0  3  0  0  0  0  0  0
  191.9630  174.3190  142.7600 C   0  0  2  0  0  3  0  0  0  0  0  0
  186.7910  178.3920  142.1020 C   0  0  0  0  0  1  0  0  0  0  0  0
  193.6400  175.8560  144.7550 O   0  0  0  0  0  0  0  0  0  0  0  0
  188.8550  177.7260  147.7450 Cl  0  0  0  0  0  0  0  0  0  0  0  0
  190.6880  174.1220  141.9310 C   0  0  0  0  0  2  0  0  0  0  0  0
  192.4420  175.7810  142.6360 C   0  0  2  0  0  3  0  0  0  0  0  0
  189.0740  177.5160  142.6000 C   0  0  0  0  0  3  0  0  0  0  0  0
  191.3840  176.7120  147.5500 C   0  0  0  0  0  3  0  0  0  0  0  0
  189.6740  175.2170  142.0920 C   0  0  0  0  0  0  0  0  0  0  0  0
  188.3900  175.0070  141.5810 C   0  0  0  0  0  3  0  0  0  0  0  0
  193.7730  176.0370  143.3470 C   0  0  0  0  0  2  0  0  0  0  0  0
  192.5040  176.2850  145.4450 C   0  0  0  0  0  0  0  0  0  0  0  0
  192.5060  176.2740  146.8430 C   0  0  0  0  0  3  0  0  0  0  0  0
  192.3060  172.0570  142.2540 C   0  0  0  0  0  2  0  0  0  0  0  0
  193.1990  172.3740  143.3560 C   0  0  2  0  0  3  0  0  0  0  0  0
  192.9720  173.3700  142.2920 N   0  0  2  0  0  0  0  0  0  0  0  0
  195.0220  169.8910  145.4910 C   0  0  1  0  0  3  0  0  0  0  0  0
  194.3310  170.2110  143.1830 O   0  0  0  0  0  0  0  0  0  0  0  0
  195.7230  173.6010  144.4560 O   0  0  0  0  0  0  0  0  0  0  0  0
  194.5650  169.2520  146.7850 C   0  0  0  0  0  1  0  0  0  0  0  0
  193.8850  169.8420  144.4720 C   0  0  0  0  0  2  0  0  0  0  0  0
  195.8920  172.1090  144.2080 S   0  0  2  0  0  0  0  0  0  0  0  0
  194.5140  171.6130  143.1310 C   0  0  2  0  0  3  0  0  0  0  0  0
  195.4190  171.3350  145.7610 C   0  0  0  0  0  2  0  0  0  0  0  0
  1  9  1  0  0  0  0
  1 14  1  0  0  0  0
  2  5  1  6  0  0  0
  2  3  1  0  0  0  0
  3 19  2  0  0  0  0
  3  7  1  0  0  0  0
  4 15  1  0  0  0  0
  4 11  1  0  0  0  0
  6  1  2  0  0  0  0
  7  4  2  0  0  0  0
  8 12  1  6  0  0  0
 10 19  1  0  0  0  0
 12 16  1  0  0  0  0
 13  8  1  0  0  0  0
 13  2  1  0  0  0  0
 13 18  1  1  0  0  0
 14  5  2  0  0  0  0
 16  5  1  0  0  0  0
 17  6  1  0  0  0  0
 17 16  2  0  0  0  0
 18 10  1  0  0  0  0
 19 20  1  0  0  0  0
 20 15  2  0  0  0  0
 22 21  1  6  0  0  0
 23 21  1  6  0  0  0
 23  8  1  0  0  0  0
 23 22  1  0  0  0  0
 24 31  1  0  0  0  0
 24 27  1  1  0  0  0
 25 28  1  0  0  0  0
 28 24  1  0  0  0  0
 29 26  2  1  0  0  0
 29 31  1  0  0  0  0
 30 25  1  1  0  0  0
 30 22  1  0  0  0  0
 30 29  1  0  0  0  0
M  END
>  <MODEL>
8

>  <REMARK>
 VINA RESULT:      -6.7      2.973      5.345
  Name = 
  2 active torsions:
  status: ('A' for Active; 'I' for Inactive)
    1  A    between atoms: C_5  and  C_30
    2  A    between atoms: C_10  and  N_16
                            x       y       z     vdW  Elec       q    Type
                         _______ _______ _______ _____ _____    ______ ____

>  <TORSDO>
F 2

$$$$
=
 OpenBabel11112416513D

 31 36  0  0  1  0  0  0  0  0999 V2000
  188.0620  175.6320  142.1190 C   0  0  0  0  0  0  0  0  0  0  0  0
  191.7610  175.2530  142.9120 C   0  0  2  0  0  3  0  0  0  0  0  0
  191.9300  175.6260  144.3780 C   0  0  0  0  0  0  0  0  0  0  0  0
  191.1050  176.6710  146.4140 C   0  0  0  0  0  0  0  0  0  0  0  0
  190.3370  174.9000  142.5560 C   0  0  0  0  0  0  0  0  0  0  0  0
  187.6500  174.3020  142.0130 C   0  0  0  0  0  3  0  0  0  0  0  0
  190.9210  176.3060  145.0790 C   0  0  0  0  0  3  0  0  0  0  0  0
  192.2680  172.7780  143.0510 C   0  0  2  0  0  3  0  0  0  0  0  0
  187.0780  176.7310  141.9500 C   0  0  0  0  0  1  0  0  0  0  0  0
  194.1900  174.7220  144.3480 O   0  0  0  0  0  0  0  0  0  0  0  0
  189.8290  177.5020  147.2780 Cl  0  0  0  0  0  0  0  0  0  0  0  0
  190.8980  172.4190  142.4630 C   0  0  0  0  0  2  0  0  0  0  0  0
  192.7360  174.1360  142.4850 C   0  0  2  0  0  3  0  0  0  0  0  0
  189.4000  175.9290  142.3880 C   0  0  0  0  0  3  0  0  0  0  0  0
  192.3080  176.3740  147.0600 C   0  0  0  0  0  3  0  0  0  0  0  0
  189.9180  173.5560  142.4450 C   0  0  0  0  0  0  0  0  0  0  0  0
  188.5790  173.2690  142.1660 C   0  0  0  0  0  3  0  0  0  0  0  0
  194.1470  174.5190  142.9370 C   0  0  0  0  0  2  0  0  0  0  0  0
  193.1520  175.3620  145.0280 C   0  0  0  0  0  0  0  0  0  0  0  0
  193.3300  175.7220  146.3680 C   0  0  0  0  0  3  0  0  0  0  0  0
  192.4600  170.4450  142.9370 C   0  0  0  0  0  2  0  0  0  0  0  0
  193.4010  170.8890  143.9530 C   0  0  2  0  0  3  0  0  0  0  0  0
  193.2040  171.7010  142.7380 N   0  0  2  0  0  0  0  0  0  0  0  0
  195.0600  168.6030  146.4160 C   0  0  1  0  0  3  0  0  0  0  0  0
  194.3840  168.6520  144.0820 O   0  0  0  0  0  0  0  0  0  0  0  0
  196.0040  172.0830  144.8900 O   0  0  0  0  0  0  0  0  0  0  0  0
  194.5660  168.1780  147.7820 C   0  0  0  0  0  1  0  0  0  0  0  0
  193.9190  168.4920  145.4070 C   0  0  0  0  0  2  0  0  0  0  0  0
  196.0730  170.5630  144.8480 S   0  0  2  0  0  0  0  0  0  0  0  0
  194.6600  170.0180  143.8410 C   0  0  2  0  0  3  0  0  0  0  0  0
  195.5540  170.0410  146.4900 C   0  0  0  0  0  2  0  0  0  0  0  0
  1 14  1  0  0  0  0
  2  5  1  1  0  0  0
  2  3  1  0  0  0  0
  3 19  2  0  0  0  0
  3  7  1  0  0  0  0
  4 15  1  0  0  0  0
  4 11  1  0  0  0  0
  6  1  2  0  0  0  0
  6 17  1  0  0  0  0
  7  4  2  0  0  0  0
  8 12  1  6  0  0  0
  9  1  1  0  0  0  0
 10 19  1  0  0  0  0
 13  2  1  0  0  0  0
 13 18  1  1  0  0  0
 13  8  1  0  0  0  0
 14  5  2  0  0  0  0
 16 12  1  0  0  0  0
 16  5  1  0  0  0  0
 17 16  2  0  0  0  0
 18 10  1  0  0  0  0
 19 20  1  0  0  0  0
 20 15  2  0  0  0  0
 22 21  1  6  0  0  0
 23 21  1  6  0  0  0
 23  8  1  0  0  0  0
 23 22  1  0  0  0  0
 24 31  1  0  0  0  0
 24 27  1  1  0  0  0
 25 28  1  0  0  0  0
 28 24  1  0  0  0  0
 29 26  2  1  0  0  0
 29 31  1  0  0  0  0
 30 22  1  0  0  0  0
 30 25  1  1  0  0  0
 30 29  1  0  0  0  0
M  END
>  <MODEL>
9

>  <REMARK>
 VINA RESULT:      -6.6      3.559      5.968
  Name = 
  2 active torsions:
  status: ('A' for Active; 'I' for Inactive)
    1  A    between atoms: C_5  and  C_30
    2  A    between atoms: C_10  and  N_16
                            x       y       z     vdW  Elec       q    Type
                         _______ _______ _______ _____ _____    ______ ____

>  <TORSDO>
F 2

$$$$
