=
 OpenBabel11112416553D

 31 35  0  0  1  0  0  0  0  0999 V2000
  185.9320  178.2910  140.9010 C   0  0  0  0  0  0  0  0  0  0  0  0
  188.3650  178.2730  143.8270 C   0  0  2  0  0  3  0  0  0  0  0  0
  187.5880  177.8120  145.0410 C   0  0  0  0  0  0  0  0  0  0  0  0
  190.9090  173.8710  142.0510 O   0  0  0  0  0  0  0  0  0  0  0  0
  191.5890  174.4010  142.9700 C   0  0  0  0  0  0  0  0  0  0  0  0
  185.5200  177.7130  146.3160 C   0  0  0  0  0  0  0  0  0  0  0  0
  187.6870  177.9100  142.5320 C   0  0  0  0  0  0  0  0  0  0  0  0
  186.3500  177.1660  140.1850 C   0  0  0  0  0  3  0  0  0  0  0  0
  186.2180  178.0860  145.1630 C   0  0  0  0  0  3  0  0  0  0  0  0
  190.0540  176.4380  143.1760 C   0  0  0  0  0  0  0  0  0  0  0  0
  184.8760  179.0180  140.4630 F   0  0  0  0  0  0  0  0  0  0  0  0
  189.7230  176.9020  145.9980 C   0  0  0  0  0  2  0  0  0  0  0  0
  184.0660  177.9960  146.4270 C   0  0  0  0  0  1  0  0  0  0  0  0
  189.2640  176.0430  142.2200 N   0  0  0  0  0  0  0  0  0  0  0  0
  189.8320  177.7760  143.8590 C   0  0  2  0  0  3  0  0  0  0  0  0
  191.2090  175.6660  143.5300 N   0  0  0  0  0  2  0  0  0  0  0  0
  186.5970  178.6610  142.0730 C   0  0  0  0  0  3  0  0  0  0  0  0
  186.1910  177.0770  147.3630 C   0  0  0  0  0  3  0  0  0  0  0  0
  188.1170  176.7880  141.8000 C   0  0  0  0  0  0  0  0  0  0  0  0
  187.4410  176.4160  140.6330 C   0  0  0  0  0  3  0  0  0  0  0  0
  190.3800  177.8370  145.1650 O   0  0  0  0  0  0  0  0  0  0  0  0
  188.2620  177.2070  146.1160 C   0  0  0  0  0  0  0  0  0  0  0  0
  187.5620  176.8220  147.2630 C   0  0  0  0  0  3  0  0  0  0  0  0
  194.1650  175.1970  145.6220 C   0  0  1  0  0  3  0  0  0  0  0  0
  192.6360  173.3150  144.9760 C   0  0  0  0  0  2  0  0  0  0  0  0
  194.2330  174.7990  141.9090 O   0  0  0  0  0  1  0  0  0  0  0  0
  194.3070  176.4130  146.5130 C   0  0  0  0  0  1  0  0  0  0  0  0
  192.8120  174.5410  145.8740 C   0  0  0  0  0  2  0  0  0  0  0  0
  194.1220  174.4100  143.2450 C   0  0  2  0  0  3  0  0  0  0  0  0
  192.7940  173.6750  143.4950 C   0  0  2  0  0  3  0  0  0  0  0  0
  194.2880  175.6200  144.1630 C   0  0  0  0  0  2  0  0  0  0  0  0
  1 17  1  0  0  0  0
  2  7  1  6  0  0  0
  2 15  1  0  0  0  0
  2  3  1  0  0  0  0
  3  9  2  0  0  0  0
  3 22  1  0  0  0  0
  4  5  2  0  0  0  0
  5 16  1  0  0  0  0
  6 13  1  0  0  0  0
  6 18  2  0  0  0  0
  8 20  1  0  0  0  0
  8  1  2  0  0  0  0
  9  6  1  0  0  0  0
 10 16  1  0  0  0  0
 11  1  1  0  0  0  0
 12 22  1  0  0  0  0
 14 10  2  0  0  0  0
 15 10  1  1  0  0  0
 15 21  1  0  0  0  0
 17  7  2  0  0  0  0
 19 14  1  0  0  0  0
 19  7  1  0  0  0  0
 20 19  2  0  0  0  0
 21 12  1  0  0  0  0
 22 23  2  0  0  0  0
 23 18  1  0  0  0  0
 24 28  1  0  0  0  0
 24 27  1  1  0  0  0
 25 28  1  0  0  0  0
 29 26  1  6  0  0  0
 29 30  1  0  0  0  0
 29 31  1  0  0  0  0
 30  5  1  1  0  0  0
 30 25  1  0  0  0  0
 31 24  1  0  0  0  0
M  END
>  <MODEL>
1

>  <REMARK>
 VINA RESULT:      -9.5      0.000      0.000
  Name = 
  1 active torsions:
  status: ('A' for Active; 'I' for Inactive)
    1  A    between atoms: C_5  and  C_30
                            x       y       z     vdW  Elec       q    Type
                         _______ _______ _______ _____ _____    ______ ____

>  <TORSDO>
F 1

$$$$
=
 OpenBabel11112416553D

 31 35  0  0  1  0  0  0  0  0999 V2000
  194.6720  176.0930  144.9620 C   0  0  0  0  0  0  0  0  0  0  0  0
  191.3940  176.8060  143.1660 C   0  0  2  0  0  3  0  0  0  0  0  0
  191.0590  175.5730  142.3550 C   0  0  0  0  0  0  0  0  0  0  0  0
  188.4920  176.3340  147.6780 O   0  0  0  0  0  0  0  0  0  0  0  0
  187.7760  176.8430  146.7760 C   0  0  0  0  0  0  0  0  0  0  0  0
  191.7620  173.6560  141.0360 C   0  0  0  0  0  0  0  0  0  0  0  0
  192.3910  176.5290  144.2600 C   0  0  0  0  0  0  0  0  0  0  0  0
  194.2330  175.8970  146.2750 C   0  0  0  0  0  3  0  0  0  0  0  0
  192.0760  174.7580  141.8370 C   0  0  0  0  0  3  0  0  0  0  0  0
  189.6990  177.0170  145.0970 C   0  0  0  0  0  0  0  0  0  0  0  0
  195.9880  175.9710  144.6630 F   0  0  0  0  0  0  0  0  0  0  0  0
  188.6270  176.1560  142.5670 C   0  0  0  0  0  2  0  0  0  0  0  0
  192.8460  172.7920  140.5030 C   0  0  0  0  0  1  0  0  0  0  0  0
  190.5760  176.5300  145.9260 N   0  0  0  0  0  0  0  0  0  0  0  0
  190.1210  177.4950  143.7190 C   0  0  2  0  0  3  0  0  0  0  0  0
  188.3390  177.2060  145.5070 N   0  0  0  0  0  2  0  0  0  0  0  0
  193.7530  176.4060  143.9560 C   0  0  0  0  0  3  0  0  0  0  0  0
  190.4280  173.3700  140.7350 C   0  0  0  0  0  3  0  0  0  0  0  0
  191.9550  176.3500  145.5850 C   0  0  0  0  0  0  0  0  0  0  0  0
  192.8770  176.0260  146.5860 C   0  0  0  0  0  3  0  0  0  0  0  0
  189.0640  177.4850  142.7740 O   0  0  0  0  0  0  0  0  0  0  0  0
  189.7230  175.2990  142.0160 C   0  0  0  0  0  0  0  0  0  0  0  0
  189.4090  174.1900  141.2260 C   0  0  0  0  0  3  0  0  0  0  0  0
  185.0920  178.9360  145.1240 C   0  0  1  0  0  3  0  0  0  0  0  0
  185.4580  176.5630  145.8550 C   0  0  0  0  0  2  0  0  0  0  0  0
  186.7600  178.9380  148.4660 O   0  0  0  0  0  1  0  0  0  0  0  0
  185.1800  179.8860  143.9490 C   0  0  0  0  0  1  0  0  0  0  0  0
  185.5240  177.5410  144.6810 C   0  0  0  0  0  2  0  0  0  0  0  0
  185.9370  178.4780  147.4380 C   0  0  2  0  0  3  0  0  0  0  0  0
  186.3100  177.0410  147.0350 C   0  0  2  0  0  3  0  0  0  0  0  0
  185.9910  179.4380  146.2500 C   0  0  0  0  0  2  0  0  0  0  0  0
  1  8  1  0  0  0  0
  2  3  1  1  0  0  0
  2 15  1  0  0  0  0
  2  7  1  0  0  0  0
  5  4  2  0  0  0  0
  6  9  1  0  0  0  0
  7 19  2  0  0  0  0
  8 20  2  0  0  0  0
  9  3  2  0  0  0  0
 10 16  1  0  0  0  0
 10 14  2  0  0  0  0
 11  1  1  0  0  0  0
 12 21  1  0  0  0  0
 13  6  1  0  0  0  0
 15 21  1  6  0  0  0
 15 10  1  0  0  0  0
 16  5  1  0  0  0  0
 17  7  1  0  0  0  0
 17  1  2  0  0  0  0
 18  6  2  0  0  0  0
 18 23  1  0  0  0  0
 19 14  1  0  0  0  0
 19 20  1  0  0  0  0
 22  3  1  0  0  0  0
 22 12  1  0  0  0  0
 23 22  2  0  0  0  0
 24 27  1  6  0  0  0
 24 31  1  0  0  0  0
 25 30  1  0  0  0  0
 28 24  1  0  0  0  0
 28 25  1  0  0  0  0
 29 26  1  1  0  0  0
 30  5  1  6  0  0  0
 30 29  1  0  0  0  0
 31 29  1  0  0  0  0
M  END
>  <MODEL>
2

>  <REMARK>
 VINA RESULT:      -9.0      3.185      7.662
  Name = 
  1 active torsions:
  status: ('A' for Active; 'I' for Inactive)
    1  A    between atoms: C_5  and  C_30
                            x       y       z     vdW  Elec       q    Type
                         _______ _______ _______ _____ _____    ______ ____

>  <TORSDO>
F 1

$$$$
=
 OpenBabel11112416553D

 31 35  0  0  1  0  0  0  0  0999 V2000
  185.9090  178.2550  140.9200 C   0  0  0  0  0  0  0  0  0  0  0  0
  188.4810  178.0950  143.7200 C   0  0  2  0  0  3  0  0  0  0  0  0
  187.7650  177.5690  144.9450 C   0  0  0  0  0  0  0  0  0  0  0  0
  190.9410  173.8000  141.5970 O   0  0  0  0  0  0  0  0  0  0  0  0
  191.6640  174.2840  142.5080 C   0  0  0  0  0  0  0  0  0  0  0  0
  185.7620  177.3960  146.3110 C   0  0  0  0  0  0  0  0  0  0  0  0
  187.7410  177.7960  142.4420 C   0  0  0  0  0  0  0  0  0  0  0  0
  186.2930  177.1690  140.1270 C   0  0  0  0  0  3  0  0  0  0  0  0
  186.4020  177.8310  145.1460 C   0  0  0  0  0  3  0  0  0  0  0  0
  190.1390  176.3020  142.8930 C   0  0  0  0  0  0  0  0  0  0  0  0
  184.8320  179.0000  140.5720 F   0  0  0  0  0  0  0  0  0  0  0  0
  189.9450  176.6190  145.7480 C   0  0  0  0  0  2  0  0  0  0  0  0
  184.3150  177.6680  146.5080 C   0  0  0  0  0  1  0  0  0  0  0  0
  189.3040  175.9550  141.9570 N   0  0  0  0  0  0  0  0  0  0  0  0
  189.9480  177.6020  143.6540 C   0  0  2  0  0  3  0  0  0  0  0  0
  191.3110  175.5170  143.1500 N   0  0  0  0  0  2  0  0  0  0  0  0
  186.6290  178.5660  142.0760 C   0  0  0  0  0  3  0  0  0  0  0  0
  186.4840  176.7100  147.2900 C   0  0  0  0  0  3  0  0  0  0  0  0
  188.1370  176.7160  141.6320 C   0  0  0  0  0  0  0  0  0  0  0  0
  187.4060  176.4020  140.4820 C   0  0  0  0  0  3  0  0  0  0  0  0
  190.5600  177.5980  144.9340 O   0  0  0  0  0  0  0  0  0  0  0  0
  188.4910  176.9110  145.9520 C   0  0  0  0  0  0  0  0  0  0  0  0
  187.8480  176.4660  147.1110 C   0  0  0  0  0  3  0  0  0  0  0  0
  192.5840  170.6170  142.6200 C   0  0  1  0  0  3  0  0  0  0  0  0
  193.5290  172.7790  141.7650 C   0  0  0  0  0  2  0  0  0  0  0  0
  192.0300  173.2800  145.1790 O   0  0  0  0  0  1  0  0  0  0  0  0
  191.7760  169.3950  142.2390 C   0  0  0  0  0  1  0  0  0  0  0  0
  192.7270  171.5270  141.4040 C   0  0  0  0  0  2  0  0  0  0  0  0
  192.6720  172.6060  144.1390 C   0  0  2  0  0  3  0  0  0  0  0  0
  192.8950  173.5370  142.9350 C   0  0  2  0  0  3  0  0  0  0  0  0
  191.8850  171.3540  143.7570 C   0  0  0  0  0  2  0  0  0  0  0  0
  1 17  1  0  0  0  0
  2  7  1  6  0  0  0
  2  3  1  0  0  0  0
  3  9  2  0  0  0  0
  3 22  1  0  0  0  0
  4  5  2  0  0  0  0
  5 16  1  0  0  0  0
  6 13  1  0  0  0  0
  6 18  2  0  0  0  0
  8 20  1  0  0  0  0
  8  1  2  0  0  0  0
  9  6  1  0  0  0  0
 10 16  1  0  0  0  0
 11  1  1  0  0  0  0
 12 22  1  0  0  0  0
 14 10  2  0  0  0  0
 15 10  1  1  0  0  0
 15  2  1  0  0  0  0
 15 21  1  0  0  0  0
 17  7  2  0  0  0  0
 19 14  1  0  0  0  0
 19  7  1  0  0  0  0
 20 19  2  0  0  0  0
 21 12  1  0  0  0  0
 22 23  2  0  0  0  0
 23 18  1  0  0  0  0
 24 27  1  6  0  0  0
 24 31  1  0  0  0  0
 25 30  1  0  0  0  0
 28 25  1  0  0  0  0
 28 24  1  0  0  0  0
 29 26  1  1  0  0  0
 30  5  1  6  0  0  0
 30 29  1  0  0  0  0
 31 29  1  0  0  0  0
M  END
>  <MODEL>
3

>  <REMARK>
 VINA RESULT:      -8.3      1.457      2.527
  Name = 
  1 active torsions:
  status: ('A' for Active; 'I' for Inactive)
    1  A    between atoms: C_5  and  C_30
                            x       y       z     vdW  Elec       q    Type
                         _______ _______ _______ _____ _____    ______ ____

>  <TORSDO>
F 1

$$$$
=
 OpenBabel11112416553D

 31 35  0  0  1  0  0  0  0  0999 V2000
  185.3090  177.7530  146.7700 C   0  0  0  0  0  0  0  0  0  0  0  0
  186.9480  175.8380  143.9190 C   0  0  2  0  0  3  0  0  0  0  0  0
  186.6090  176.5750  142.6420 C   0  0  0  0  0  0  0  0  0  0  0  0
  191.8840  177.5410  145.2380 O   0  0  0  0  0  0  0  0  0  0  0  0
  191.9780  176.6030  144.4020 C   0  0  0  0  0  0  0  0  0  0  0  0
  185.0680  177.9090  141.3160 C   0  0  0  0  0  0  0  0  0  0  0  0
  186.7660  176.6900  145.1480 C   0  0  0  0  0  0  0  0  0  0  0  0
  186.4140  178.3710  147.3610 C   0  0  0  0  0  3  0  0  0  0  0  0
  185.4030  177.2820  142.5200 C   0  0  0  0  0  3  0  0  0  0  0  0
  189.4660  176.1160  144.3950 C   0  0  0  0  0  0  0  0  0  0  0  0
  184.0660  177.9730  147.2630 F   0  0  0  0  0  0  0  0  0  0  0  0
  188.7420  175.7140  141.6380 C   0  0  0  0  0  2  0  0  0  0  0  0
  183.7950  178.6660  141.2030 C   0  0  0  0  0  1  0  0  0  0  0  0
  189.2020  177.0330  145.2810 N   0  0  0  0  0  0  0  0  0  0  0  0
  188.3650  175.2150  143.8650 C   0  0  2  0  0  3  0  0  0  0  0  0
  190.8170  175.8720  143.9820 N   0  0  0  0  0  2  0  0  0  0  0  0
  185.4830  176.9170  145.6630 C   0  0  0  0  0  3  0  0  0  0  0  0
  185.9280  177.8190  140.2190 C   0  0  0  0  0  3  0  0  0  0  0  0
  187.8790  177.2990  145.7560 C   0  0  0  0  0  0  0  0  0  0  0  0
  187.6970  178.1430  146.8570 C   0  0  0  0  0  3  0  0  0  0  0  0
  188.6530  174.6700  142.5880 O   0  0  0  0  0  0  0  0  0  0  0  0
  187.4490  176.4590  141.5210 C   0  0  0  0  0  0  0  0  0  0  0  0
  187.1190  177.0960  140.3220 C   0  0  0  0  0  3  0  0  0  0  0  0
  194.3290  173.6620  144.7760 C   0  0  1  0  0  3  0  0  0  0  0  0
  193.2720  175.0190  142.9480 C   0  0  0  0  0  2  0  0  0  0  0  0
  194.4450  177.2740  145.7220 O   0  0  0  0  0  1  0  0  0  0  0  0
  194.1930  172.4030  145.6040 C   0  0  0  0  0  1  0  0  0  0  0  0
  193.1680  173.7470  143.7900 C   0  0  0  0  0  2  0  0  0  0  0  0
  194.4430  176.1630  144.8780 C   0  0  2  0  0  3  0  0  0  0  0  0
  193.3250  176.2730  143.8260 C   0  0  2  0  0  3  0  0  0  0  0  0
  194.3330  174.8770  145.6970 C   0  0  0  0  0  2  0  0  0  0  0  0
  1 11  1  0  0  0  0
  1  8  1  0  0  0  0
  2  3  1  6  0  0  0
  2  7  1  0  0  0  0
  5  4  2  0  0  0  0
  6  9  2  0  0  0  0
  7 17  1  0  0  0  0
  7 19  2  0  0  0  0
  9  3  1  0  0  0  0
 10 14  2  0  0  0  0
 12 21  1  0  0  0  0
 13  6  1  0  0  0  0
 14 19  1  0  0  0  0
 15 21  1  6  0  0  0
 15  2  1  0  0  0  0
 15 10  1  0  0  0  0
 16 10  1  0  0  0  0
 16  5  1  0  0  0  0
 17  1  2  0  0  0  0
 18 23  2  0  0  0  0
 18  6  1  0  0  0  0
 19 20  1  0  0  0  0
 20  8  2  0  0  0  0
 22 12  1  0  0  0  0
 22  3  2  0  0  0  0
 23 22  1  0  0  0  0
 24 27  1  1  0  0  0
 24 31  1  0  0  0  0
 25 28  1  0  0  0  0
 25 30  1  0  0  0  0
 28 24  1  0  0  0  0
 29 31  1  0  0  0  0
 29 26  1  1  0  0  0
 30  5  1  1  0  0  0
 30 29  1  0  0  0  0
M  END
>  <MODEL>
4

>  <REMARK>
 VINA RESULT:      -8.3      2.076      4.338
  Name = 
  1 active torsions:
  status: ('A' for Active; 'I' for Inactive)
    1  A    between atoms: C_5  and  C_30
                            x       y       z     vdW  Elec       q    Type
                         _______ _______ _______ _____ _____    ______ ____

>  <TORSDO>
F 1

$$$$
=
 OpenBabel11112416553D

 31 35  0  0  1  0  0  0  0  0999 V2000
  190.5850  171.2170  142.6840 C   0  0  0  0  0  0  0  0  0  0  0  0
  190.1620  174.3270  144.8360 C   0  0  2  0  0  3  0  0  0  0  0  0
  191.4730  175.0800  144.7830 C   0  0  0  0  0  0  0  0  0  0  0  0
  187.0140  176.7560  141.2040 O   0  0  0  0  0  0  0  0  0  0  0  0
  186.9570  177.3890  142.2920 C   0  0  0  0  0  0  0  0  0  0  0  0
  193.9000  175.0930  144.6390 C   0  0  0  0  0  0  0  0  0  0  0  0
  190.0120  173.3410  143.7080 C   0  0  0  0  0  0  0  0  0  0  0  0
  189.8310  171.5540  141.5570 C   0  0  0  0  0  3  0  0  0  0  0  0
  192.6870  174.3960  144.6240 C   0  0  0  0  0  3  0  0  0  0  0  0
  188.3730  175.6810  143.5670 C   0  0  0  0  0  0  0  0  0  0  0  0
  191.2340  170.0290  142.7340 F   0  0  0  0  0  0  0  0  0  0  0  0
  190.2060  177.2110  145.1750 C   0  0  0  0  0  2  0  0  0  0  0  0
  195.1790  174.3590  144.4560 C   0  0  0  0  0  1  0  0  0  0  0  0
  188.5030  174.8970  142.5370 N   0  0  0  0  0  0  0  0  0  0  0  0
  188.9490  175.2870  144.9160 C   0  0  2  0  0  3  0  0  0  0  0  0
  187.5950  176.8820  143.4730 N   0  0  0  0  0  2  0  0  0  0  0  0
  190.6790  172.1090  143.7560 C   0  0  0  0  0  3  0  0  0  0  0  0
  193.9080  176.4770  144.8280 C   0  0  0  0  0  3  0  0  0  0  0  0
  189.2390  173.6700  142.5800 C   0  0  0  0  0  0  0  0  0  0  0  0
  189.1570  172.7780  141.5060 C   0  0  0  0  0  3  0  0  0  0  0  0
  189.2090  176.3960  145.7600 O   0  0  0  0  0  0  0  0  0  0  0  0
  191.4940  176.4670  145.0110 C   0  0  0  0  0  0  0  0  0  0  0  0
  192.7060  177.1640  145.0130 C   0  0  0  0  0  3  0  0  0  0  0  0
  184.6000  178.9930  144.7780 C   0  0  1  0  0  3  0  0  0  0  0  0
  186.6900  179.5650  143.5130 C   0  0  0  0  0  2  0  0  0  0  0  0
  184.2850  177.7270  141.2780 O   0  0  0  0  0  1  0  0  0  0  0  0
  184.0660  178.4710  146.0950 C   0  0  0  0  0  1  0  0  0  0  0  0
  186.1230  179.0530  144.8380 C   0  0  0  0  0  2  0  0  0  0  0  0
  184.6980  178.5690  142.3110 C   0  0  2  0  0  3  0  0  0  0  0  0
  186.2310  178.7030  142.3330 C   0  0  2  0  0  3  0  0  0  0  0  0
  184.1480  178.0740  143.6480 C   0  0  0  0  0  2  0  0  0  0  0  0
  1 11  1  0  0  0  0
  1 17  1  0  0  0  0
  2  7  1  6  0  0  0
  2 15  1  0  0  0  0
  3  2  1  0  0  0  0
  3 22  1  0  0  0  0
  4  5  2  0  0  0  0
  5 16  1  0  0  0  0
  6 18  2  0  0  0  0
  7 17  2  0  0  0  0
  8  1  2  0  0  0  0
  9  6  1  0  0  0  0
  9  3  2  0  0  0  0
 12 21  1  0  0  0  0
 13  6  1  0  0  0  0
 14 19  1  0  0  0  0
 14 10  2  0  0  0  0
 15 10  1  6  0  0  0
 15 21  1  0  0  0  0
 16 10  1  0  0  0  0
 18 23  1  0  0  0  0
 19  7  1  0  0  0  0
 20  8  1  0  0  0  0
 20 19  2  0  0  0  0
 22 23  2  0  0  0  0
 22 12  1  0  0  0  0
 24 28  1  0  0  0  0
 24 27  1  1  0  0  0
 25 28  1  0  0  0  0
 29 26  1  6  0  0  0
 29 30  1  0  0  0  0
 29 31  1  0  0  0  0
 30  5  1  1  0  0  0
 30 25  1  0  0  0  0
 31 24  1  0  0  0  0
M  END
>  <MODEL>
5

>  <REMARK>
 VINA RESULT:      -8.0      3.204      7.262
  Name = 
  1 active torsions:
  status: ('A' for Active; 'I' for Inactive)
    1  A    between atoms: C_5  and  C_30
                            x       y       z     vdW  Elec       q    Type
                         _______ _______ _______ _____ _____    ______ ____

>  <TORSDO>
F 1

$$$$
=
 OpenBabel11112416553D

 31 35  0  0  1  0  0  0  0  0999 V2000
  187.0240  177.2930  140.5990 C   0  0  0  0  0  0  0  0  0  0  0  0
  189.6490  177.3360  143.3530 C   0  0  2  0  0  3  0  0  0  0  0  0
  188.9130  177.1650  144.6650 C   0  0  0  0  0  0  0  0  0  0  0  0
  191.4390  172.4100  142.1130 O   0  0  0  0  0  0  0  0  0  0  0  0
  192.2520  172.9610  142.9030 C   0  0  0  0  0  0  0  0  0  0  0  0
  186.9550  177.5420  146.0540 C   0  0  0  0  0  0  0  0  0  0  0  0
  188.8320  176.8960  142.1670 C   0  0  0  0  0  0  0  0  0  0  0  0
  187.2320  176.0300  140.0360 C   0  0  0  0  0  3  0  0  0  0  0  0
  187.6050  177.6470  144.8210 C   0  0  0  0  0  3  0  0  0  0  0  0
  191.0240  175.2050  142.8890 C   0  0  0  0  0  0  0  0  0  0  0  0
  186.0440  178.0950  140.1180 F   0  0  0  0  0  0  0  0  0  0  0  0
  190.9740  176.1010  145.6240 C   0  0  0  0  0  2  0  0  0  0  0  0
  185.5640  178.0430  146.2040 C   0  0  0  0  0  1  0  0  0  0  0  0
  190.1180  174.7980  142.0480 N   0  0  0  0  0  0  0  0  0  0  0  0
  191.0350  176.6430  143.3760 C   0  0  2  0  0  3  0  0  0  0  0  0
  192.0890  174.3330  143.2880 N   0  0  0  0  0  2  0  0  0  0  0  0
  187.8200  177.7240  141.6640 C   0  0  0  0  0  3  0  0  0  0  0  0
  187.6130  176.9690  147.1450 C   0  0  0  0  0  3  0  0  0  0  0  0
  189.0510  175.6330  141.5870 C   0  0  0  0  0  0  0  0  0  0  0  0
  188.2450  175.2030  140.5280 C   0  0  0  0  0  3  0  0  0  0  0  0
  191.6850  176.8070  144.6250 O   0  0  0  0  0  0  0  0  0  0  0  0
  189.5810  176.6260  145.7770 C   0  0  0  0  0  0  0  0  0  0  0  0
  188.9250  176.5100  147.0070 C   0  0  0  0  0  3  0  0  0  0  0  0
  195.1820  173.7740  145.1530 C   0  0  1  0  0  3  0  0  0  0  0  0
  193.3340  172.0840  144.9910 C   0  0  0  0  0  2  0  0  0  0  0  0
  194.8010  172.7310  141.5870 O   0  0  0  0  0  1  0  0  0  0  0  0
  195.5930  175.0870  145.7850 C   0  0  0  0  0  1  0  0  0  0  0  0
  193.7800  173.4020  145.6260 C   0  0  0  0  0  2  0  0  0  0  0  0
  194.7750  172.6030  142.9760 C   0  0  2  0  0  3  0  0  0  0  0  0
  193.3870  172.1500  143.4610 C   0  0  2  0  0  3  0  0  0  0  0  0
  195.2110  173.9110  143.6350 C   0  0  0  0  0  2  0  0  0  0  0  0
  1 17  1  0  0  0  0
  2  7  1  6  0  0  0
  2 15  1  0  0  0  0
  2  3  1  0  0  0  0
  3  9  2  0  0  0  0
  3 22  1  0  0  0  0
  4  5  2  0  0  0  0
  5 16  1  0  0  0  0
  6 13  1  0  0  0  0
  6 18  2  0  0  0  0
  8 20  1  0  0  0  0
  8  1  2  0  0  0  0
  9  6  1  0  0  0  0
 10 16  1  0  0  0  0
 11  1  1  0  0  0  0
 12 22  1  0  0  0  0
 14 10  2  0  0  0  0
 15 10  1  1  0  0  0
 15 21  1  0  0  0  0
 17  7  2  0  0  0  0
 19 14  1  0  0  0  0
 19  7  1  0  0  0  0
 20 19  2  0  0  0  0
 21 12  1  0  0  0  0
 22 23  2  0  0  0  0
 23 18  1  0  0  0  0
 24 28  1  0  0  0  0
 24 27  1  1  0  0  0
 25 28  1  0  0  0  0
 29 26  1  6  0  0  0
 29 30  1  0  0  0  0
 29 31  1  0  0  0  0
 30  5  1  1  0  0  0
 30 25  1  0  0  0  0
 31 24  1  0  0  0  0
M  END
>  <MODEL>
6

>  <REMARK>
 VINA RESULT:      -7.9      1.319      1.623
  Name = 
  1 active torsions:
  status: ('A' for Active; 'I' for Inactive)
    1  A    between atoms: C_5  and  C_30
                            x       y       z     vdW  Elec       q    Type
                         _______ _______ _______ _____ _____    ______ ____

>  <TORSDO>
F 1

$$$$
=
 OpenBabel11112416553D

 31 35  0  0  1  0  0  0  0  0999 V2000
  194.7430  175.2750  145.9980 C   0  0  0  0  0  0  0  0  0  0  0  0
  192.5370  174.6720  142.9570 C   0  0  2  0  0  3  0  0  0  0  0  0
  192.0350  173.2480  143.0530 C   0  0  0  0  0  0  0  0  0  0  0  0
  188.5300  177.6930  144.9130 O   0  0  0  0  0  0  0  0  0  0  0  0
  188.3090  177.4470  143.6970 C   0  0  0  0  0  0  0  0  0  0  0  0
  192.3700  170.9280  143.6980 C   0  0  0  0  0  0  0  0  0  0  0  0
  193.0370  175.2030  144.2750 C   0  0  0  0  0  0  0  0  0  0  0  0
  193.9220  176.0920  146.7800 C   0  0  0  0  0  3  0  0  0  0  0  0
  192.8110  172.2540  143.6680 C   0  0  0  0  0  3  0  0  0  0  0  0
  190.5570  176.2780  143.3390 C   0  0  0  0  0  0  0  0  0  0  0  0
  195.9650  174.9090  146.4540 F   0  0  0  0  0  0  0  0  0  0  0  0
  189.9920  173.9340  141.7660 C   0  0  0  0  0  2  0  0  0  0  0  0
  193.1940  169.8870  144.3640 C   0  0  0  0  0  1  0  0  0  0  0  0
  190.9500  176.4790  144.5640 N   0  0  0  0  0  0  0  0  0  0  0  0
  191.4780  175.6150  142.3310 C   0  0  2  0  0  3  0  0  0  0  0  0
  189.2880  176.7730  142.8930 N   0  0  0  0  0  2  0  0  0  0  0  0
  194.3020  174.8290  144.7490 C   0  0  0  0  0  3  0  0  0  0  0  0
  191.1560  170.5820  143.0990 C   0  0  0  0  0  3  0  0  0  0  0  0
  192.2200  176.0390  145.0560 C   0  0  0  0  0  0  0  0  0  0  0  0
  192.6630  176.4740  146.3100 C   0  0  0  0  0  3  0  0  0  0  0  0
  190.7840  174.9920  141.2630 O   0  0  0  0  0  0  0  0  0  0  0  0
  190.8340  172.8840  142.4200 C   0  0  0  0  0  0  0  0  0  0  0  0
  190.3870  171.5600  142.4610 C   0  0  0  0  0  3  0  0  0  0  0  0
  184.8790  178.1000  145.1530 C   0  0  1  0  0  3  0  0  0  0  0  0
  186.5260  179.2120  143.6210 C   0  0  0  0  0  2  0  0  0  0  0  0
  186.3310  175.5320  142.8620 O   0  0  0  0  0  1  0  0  0  0  0  0
  184.3940  178.0200  146.5850 C   0  0  0  0  0  1  0  0  0  0  0  0
  186.0080  179.1210  145.0570 C   0  0  0  0  0  2  0  0  0  0  0  0
  185.8840  176.7900  143.2700 C   0  0  2  0  0  3  0  0  0  0  0  0
  186.9890  177.8460  143.1020 C   0  0  2  0  0  3  0  0  0  0  0  0
  185.3660  176.7260  144.7060 C   0  0  0  0  0  2  0  0  0  0  0  0
  1 11  1  0  0  0  0
  1  8  1  0  0  0  0
  2  3  1  1  0  0  0
  2  7  1  0  0  0  0
  3  9  1  0  0  0  0
  5  4  2  0  0  0  0
  6 13  1  0  0  0  0
  7 17  1  0  0  0  0
  7 19  2  0  0  0  0
  9  6  2  0  0  0  0
 10 14  2  0  0  0  0
 12 22  1  0  0  0  0
 14 19  1  0  0  0  0
 15 21  1  6  0  0  0
 15  2  1  0  0  0  0
 15 10  1  0  0  0  0
 16 10  1  0  0  0  0
 16  5  1  0  0  0  0
 17  1  2  0  0  0  0
 18  6  1  0  0  0  0
 19 20  1  0  0  0  0
 20  8  2  0  0  0  0
 21 12  1  0  0  0  0
 22 23  1  0  0  0  0
 22  3  2  0  0  0  0
 23 18  2  0  0  0  0
 24 27  1  1  0  0  0
 25 28  1  0  0  0  0
 28 24  1  0  0  0  0
 29 26  1  1  0  0  0
 29 31  1  0  0  0  0
 30 29  1  0  0  0  0
 30 25  1  0  0  0  0
 30  5  1  1  0  0  0
 31 24  1  0  0  0  0
M  END
>  <MODEL>
7

>  <REMARK>
 VINA RESULT:      -7.9      3.051      7.870
  Name = 
  1 active torsions:
  status: ('A' for Active; 'I' for Inactive)
    1  A    between atoms: C_5  and  C_30
                            x       y       z     vdW  Elec       q    Type
                         _______ _______ _______ _____ _____    ______ ____

>  <TORSDO>
F 1

$$$$
=
 OpenBabel11112416553D

 31 35  0  0  1  0  0  0  0  0999 V2000
  186.3970  178.4230  141.9720 C   0  0  0  0  0  0  0  0  0  0  0  0
  189.4720  176.9650  143.6760 C   0  0  2  0  0  3  0  0  0  0  0  0
  189.0030  176.3500  144.9760 C   0  0  0  0  0  0  0  0  0  0  0  0
  189.7810  172.8450  140.2210 O   0  0  0  0  0  0  0  0  0  0  0  0
  190.8430  172.9020  140.8950 C   0  0  0  0  0  0  0  0  0  0  0  0
  187.5140  176.3460  146.8980 C   0  0  0  0  0  0  0  0  0  0  0  0
  188.3480  177.1750  142.6950 C   0  0  0  0  0  0  0  0  0  0  0  0
  186.1880  177.5020  140.9420 C   0  0  0  0  0  3  0  0  0  0  0  0
  187.9030  176.8800  145.6650 C   0  0  0  0  0  3  0  0  0  0  0  0
  190.1910  175.0760  142.0750 C   0  0  0  0  0  0  0  0  0  0  0  0
  185.5520  179.4700  142.1270 F   0  0  0  0  0  0  0  0  0  0  0  0
  190.9150  174.7290  144.8400 C   0  0  0  0  0  2  0  0  0  0  0  0
  186.3390  176.9080  147.6120 C   0  0  0  0  0  1  0  0  0  0  0  0
  189.0620  175.1810  141.4360 N   0  0  0  0  0  0  0  0  0  0  0  0
  190.6340  176.1590  143.0430 C   0  0  2  0  0  3  0  0  0  0  0  0
  191.0850  173.9900  141.7980 N   0  0  0  0  0  2  0  0  0  0  0  0
  187.4730  178.2590  142.8490 C   0  0  0  0  0  3  0  0  0  0  0  0
  188.2330  175.2880  147.4580 C   0  0  0  0  0  3  0  0  0  0  0  0
  188.1450  176.2600  141.6460 C   0  0  0  0  0  0  0  0  0  0  0  0
  187.0610  176.4230  140.7780 C   0  0  0  0  0  3  0  0  0  0  0  0
  191.5480  175.6950  144.0230 O   0  0  0  0  0  0  0  0  0  0  0  0
  189.7430  175.3100  145.5660 C   0  0  0  0  0  0  0  0  0  0  0  0
  189.3460  174.7680  146.7920 C   0  0  0  0  0  3  0  0  0  0  0  0
  191.3320  170.1040  138.3970 C   0  0  1  0  0  3  0  0  0  0  0  0
  192.6710  171.9310  139.4750 C   0  0  0  0  0  2  0  0  0  0  0  0
  190.4420  170.2840  142.0200 O   0  0  0  0  0  1  0  0  0  0  0  0
  190.5210  169.7340  137.1730 C   0  0  0  0  0  1  0  0  0  0  0  0
  191.8580  171.5270  138.2440 C   0  0  0  0  0  2  0  0  0  0  0  0
  191.2470  170.3850  140.8840 C   0  0  2  0  0  3  0  0  0  0  0  0
  191.8500  171.7950  140.7620 C   0  0  2  0  0  3  0  0  0  0  0  0
  190.4540  169.9920  139.6390 C   0  0  0  0  0  2  0  0  0  0  0  0
  1 11  1  0  0  0  0
  1 17  1  0  0  0  0
  2  7  1  6  0  0  0
  2  3  1  0  0  0  0
  3 22  2  0  0  0  0
  3  9  1  0  0  0  0
  4  5  2  0  0  0  0
  5 16  1  0  0  0  0
  6 18  1  0  0  0  0
  6 13  1  0  0  0  0
  7 17  2  0  0  0  0
  8  1  2  0  0  0  0
  9  6  2  0  0  0  0
 12 22  1  0  0  0  0
 14 19  1  0  0  0  0
 14 10  2  0  0  0  0
 15 10  1  1  0  0  0
 15  2  1  0  0  0  0
 15 21  1  0  0  0  0
 16 10  1  0  0  0  0
 19  7  1  0  0  0  0
 20  8  1  0  0  0  0
 20 19  2  0  0  0  0
 21 12  1  0  0  0  0
 22 23  1  0  0  0  0
 23 18  2  0  0  0  0
 24 27  1  6  0  0  0
 24 31  1  0  0  0  0
 25 30  1  0  0  0  0
 28 24  1  0  0  0  0
 28 25  1  0  0  0  0
 29 26  1  1  0  0  0
 30 29  1  0  0  0  0
 30  5  1  6  0  0  0
 31 29  1  0  0  0  0
M  END
>  <MODEL>
8

>  <REMARK>
 VINA RESULT:      -7.7      2.994      4.300
  Name = 
  1 active torsions:
  status: ('A' for Active; 'I' for Inactive)
    1  A    between atoms: C_5  and  C_30
                            x       y       z     vdW  Elec       q    Type
                         _______ _______ _______ _____ _____    ______ ____

>  <TORSDO>
F 1

$$$$
=
 OpenBabel11112416553D

 31 35  0  0  1  0  0  0  0  0999 V2000
  191.1900  169.9080  141.3020 C   0  0  0  0  0  0  0  0  0  0  0  0
  190.7840  172.1890  144.3210 C   0  0  2  0  0  3  0  0  0  0  0  0
  192.1630  172.7070  144.6690 C   0  0  0  0  0  0  0  0  0  0  0  0
  188.5180  176.1110  141.4080 O   0  0  0  0  0  0  0  0  0  0  0  0
  188.3640  176.3620  142.6330 C   0  0  0  0  0  0  0  0  0  0  0  0
  194.5690  172.3890  144.8010 C   0  0  0  0  0  0  0  0  0  0  0  0
  190.7030  171.6520  142.9160 C   0  0  0  0  0  0  0  0  0  0  0  0
  190.6590  170.7010  140.2810 C   0  0  0  0  0  3  0  0  0  0  0  0
  193.3050  171.9310  144.4200 C   0  0  0  0  0  3  0  0  0  0  0  0
  189.3710  174.1380  143.3990 C   0  0  0  0  0  0  0  0  0  0  0  0
  191.6890  168.6810  141.0160 F   0  0  0  0  0  0  0  0  0  0  0  0
  191.0920  174.7680  145.6200 C   0  0  0  0  0  2  0  0  0  0  0  0
  195.7730  171.5650  144.5210 C   0  0  0  0  0  1  0  0  0  0  0  0
  189.5720  173.7150  142.1850 N   0  0  0  0  0  0  0  0  0  0  0  0
  189.6860  173.2480  144.5890 C   0  0  2  0  0  3  0  0  0  0  0  0
  188.7530  175.4100  143.6340 N   0  0  0  0  0  2  0  0  0  0  0  0
  191.2140  170.3830  142.6160 C   0  0  0  0  0  3  0  0  0  0  0  0
  194.7000  173.6200  145.4480 C   0  0  0  0  0  3  0  0  0  0  0  0
  190.1520  172.4410  141.8890 C   0  0  0  0  0  0  0  0  0  0  0  0
  190.1400  171.9650  140.5740 C   0  0  0  0  0  3  0  0  0  0  0  0
  189.9330  173.9730  145.7820 O   0  0  0  0  0  0  0  0  0  0  0  0
  192.3010  173.9260  145.3540 C   0  0  0  0  0  0  0  0  0  0  0  0
  193.5660  174.3900  145.7240 C   0  0  0  0  0  3  0  0  0  0  0  0
  185.9780  177.4510  145.3580 C   0  0  1  0  0  3  0  0  0  0  0  0
  188.2290  178.0880  144.4500 C   0  0  0  0  0  2  0  0  0  0  0  0
  185.8550  177.3460  141.6260 O   0  0  0  0  0  1  0  0  0  0  0  0
  185.2680  176.6360  146.4180 C   0  0  0  0  0  1  0  0  0  0  0  0
  187.4860  177.2840  145.5180 C   0  0  0  0  0  2  0  0  0  0  0  0
  186.2600  177.7760  142.8910 C   0  0  2  0  0  3  0  0  0  0  0  0
  187.7890  177.6890  143.0370 C   0  0  2  0  0  3  0  0  0  0  0  0
  185.5350  176.9830  143.9760 C   0  0  0  0  0  2  0  0  0  0  0  0
  1 17  1  0  0  0  0
  2  7  1  6  0  0  0
  2 15  1  0  0  0  0
  2  3  1  0  0  0  0
  3 22  1  0  0  0  0
  4  5  2  0  0  0  0
  5 16  1  0  0  0  0
  6 18  2  0  0  0  0
  8 20  1  0  0  0  0
  8  1  2  0  0  0  0
  9  3  2  0  0  0  0
  9  6  1  0  0  0  0
 10 16  1  0  0  0  0
 11  1  1  0  0  0  0
 12 21  1  0  0  0  0
 13  6  1  0  0  0  0
 14 10  2  0  0  0  0
 15 10  1  6  0  0  0
 15 21  1  0  0  0  0
 17  7  2  0  0  0  0
 18 23  1  0  0  0  0
 19 14  1  0  0  0  0
 19  7  1  0  0  0  0
 20 19  2  0  0  0  0
 22 12  1  0  0  0  0
 22 23  2  0  0  0  0
 24 28  1  0  0  0  0
 24 27  1  1  0  0  0
 25 28  1  0  0  0  0
 29 26  1  6  0  0  0
 29 30  1  0  0  0  0
 29 31  1  0  0  0  0
 30  5  1  1  0  0  0
 30 25  1  0  0  0  0
 31 24  1  0  0  0  0
M  END
>  <MODEL>
9

>  <REMARK>
 VINA RESULT:      -7.7      3.416      7.454
  Name = 
  1 active torsions:
  status: ('A' for Active; 'I' for Inactive)
    1  A    between atoms: C_5  and  C_30
                            x       y       z     vdW  Elec       q    Type
                         _______ _______ _______ _____ _____    ______ ____

>  <TORSDO>
F 1

$$$$
