=
 OpenBabel11112417003D

 31 35  0  0  1  0  0  0  0  0999 V2000
  184.8200  178.4060  146.7970 C   0  0  0  0  0  0  0  0  0  0  0  0
  187.3410  175.9930  145.2770 C   0  0  2  0  0  3  0  0  0  0  0  0
  187.4050  176.3400  143.7980 C   0  0  0  0  0  0  0  0  0  0  0  0
  186.3440  177.2280  141.7960 C   0  0  0  0  0  0  0  0  0  0  0  0
  186.7580  177.0980  146.1320 C   0  0  0  0  0  0  0  0  0  0  0  0
  185.6230  179.1780  147.6380 C   0  0  0  0  0  3  0  0  0  0  0  0
  186.3240  176.9750  143.1680 C   0  0  0  0  0  3  0  0  0  0  0  0
  189.6240  176.6780  146.1570 C   0  0  2  0  0  3  0  0  0  0  0  0
  183.4940  178.6650  146.7020 F   0  0  0  0  0  0  0  0  0  0  0  0
  189.6760  175.2320  143.6300 C   0  0  0  0  0  2  0  0  0  0  0  0
  185.1970  177.9160  141.1500 C   0  0  0  0  0  1  0  0  0  0  0  0
  189.0030  177.5350  147.2550 C   0  0  0  0  0  2  0  0  0  0  0  0
  188.6970  175.5000  145.8200 C   0  0  2  0  0  3  0  0  0  0  0  0
  185.3850  177.3700  146.0520 C   0  0  0  0  0  3  0  0  0  0  0  0
  187.4410  176.8300  141.0300 C   0  0  0  0  0  3  0  0  0  0  0  0
  187.5660  177.8760  146.9930 C   0  0  0  0  0  0  0  0  0  0  0  0
  186.9880  178.9060  147.7440 C   0  0  0  0  0  3  0  0  0  0  0  0
  189.3160  174.5560  144.8800 N   0  0  0  0  0  2  0  0  0  0  0  0
  188.4920  175.9060  143.0080 C   0  0  0  0  0  0  0  0  0  0  0  0
  188.5130  176.1720  141.6360 C   0  0  0  0  0  3  0  0  0  0  0  0
  192.1090  177.1660  144.8490 O   0  0  0  0  0  0  0  0  0  0  0  0
  192.1320  176.4740  145.9040 C   0  0  0  0  0  0  0  0  0  0  0  0
  190.9200  176.1850  146.6030 N   0  0  0  0  0  2  0  0  0  0  0  0
  195.6620  176.0590  144.5710 N   0  0  0  0  0  0  0  0  0  0  0  0
  194.5050  177.0160  146.5130 C   0  0  0  0  0  2  0  0  0  0  0  0
  192.9170  173.7780  145.4430 O   0  0  0  0  0  1  0  0  0  0  0  0
  196.2090  176.4040  143.2720 C   0  0  0  0  0  1  0  0  0  0  0  0
  195.1040  177.2890  145.1310 C   0  0  0  0  0  2  0  0  0  0  0  0
  193.9410  174.7040  145.6590 C   0  0  2  0  0  3  0  0  0  0  0  0
  193.4270  175.9300  146.4340 C   0  0  2  0  0  3  0  0  0  0  0  0
  194.5670  175.1210  144.3290 C   0  0  0  0  0  2  0  0  0  0  0  0
  1  6  1  0  0  0  0
  2  3  1  6  0  0  0
  2 13  1  0  0  0  0
  2  5  1  0  0  0  0
  4  7  2  0  0  0  0
  5 16  2  0  0  0  0
  6 17  2  0  0  0  0
  7  3  1  0  0  0  0
  8 23  1  1  0  0  0
  8 12  1  0  0  0  0
  9  1  1  0  0  0  0
 10 18  1  0  0  0  0
 11  4  1  0  0  0  0
 13 18  1  6  0  0  0
 13  8  1  0  0  0  0
 14  5  1  0  0  0  0
 14  1  2  0  0  0  0
 15 20  2  0  0  0  0
 15  4  1  0  0  0  0
 16 12  1  0  0  0  0
 16 17  1  0  0  0  0
 19 10  1  0  0  0  0
 19  3  2  0  0  0  0
 20 19  1  0  0  0  0
 21 22  2  0  0  0  0
 22 23  1  0  0  0  0
 24 28  1  0  0  0  0
 27 24  1  0  0  0  0
 28 25  1  0  0  0  0
 29 26  1  6  0  0  0
 29 30  1  0  0  0  0
 30 22  1  6  0  0  0
 30 25  1  0  0  0  0
 31 24  1  0  0  0  0
 31 29  1  0  0  0  0
M  END
>  <MODEL>
1

>  <REMARK>
 VINA RESULT:      -9.1      0.000      0.000
  Name = 
  2 active torsions:
  status: ('A' for Active; 'I' for Inactive)
    1  A    between atoms: C_5  and  C_30
    2  A    between atoms: C_10  and  N_16
                            x       y       z     vdW  Elec       q    Type
                         _______ _______ _______ _____ _____    ______ ____

>  <TORSDO>
F 2

$$$$
=
 OpenBabel11112417003D

 31 35  0  0  1  0  0  0  0  0999 V2000
  184.7760  177.8360  146.7540 C   0  0  0  0  0  0  0  0  0  0  0  0
  187.1200  176.0400  144.3520 C   0  0  2  0  0  3  0  0  0  0  0  0
  186.8610  176.6540  142.9860 C   0  0  0  0  0  0  0  0  0  0  0  0
  185.3560  177.7630  141.4270 C   0  0  0  0  0  0  0  0  0  0  0  0
  186.6360  176.8990  145.5020 C   0  0  0  0  0  0  0  0  0  0  0  0
  185.6690  178.5290  147.5730 C   0  0  0  0  0  3  0  0  0  0  0  0
  185.6300  177.2650  142.7020 C   0  0  0  0  0  3  0  0  0  0  0  0
  189.4740  176.8100  144.9230 C   0  0  2  0  0  3  0  0  0  0  0  0
  183.4420  177.9550  146.9550 F   0  0  0  0  0  0  0  0  0  0  0  0
  189.1300  175.8610  142.1910 C   0  0  0  0  0  2  0  0  0  0  0  0
  184.0530  178.4210  141.1500 C   0  0  0  0  0  1  0  0  0  0  0  0
  189.0210  177.3780  146.2640 C   0  0  0  0  0  2  0  0  0  0  0  0
  188.5910  175.6150  144.5310 C   0  0  2  0  0  3  0  0  0  0  0  0
  185.2580  177.0230  145.7280 C   0  0  0  0  0  3  0  0  0  0  0  0
  186.3050  177.6380  140.4110 C   0  0  0  0  0  3  0  0  0  0  0  0
  187.5380  177.5950  146.3400 C   0  0  0  0  0  0  0  0  0  0  0  0
  187.0450  178.3990  147.3730 C   0  0  0  0  0  3  0  0  0  0  0  0
  189.0810  174.9330  143.3250 N   0  0  0  0  0  2  0  0  0  0  0  0
  187.7980  176.4960  141.9410 C   0  0  0  0  0  0  0  0  0  0  0  0
  187.5240  177.0070  140.6690 C   0  0  0  0  0  3  0  0  0  0  0  0
  191.6850  178.1900  143.7700 O   0  0  0  0  0  0  0  0  0  0  0  0
  191.9310  177.1390  144.4230 C   0  0  0  0  0  0  0  0  0  0  0  0
  190.8670  176.3950  145.0180 N   0  0  0  0  0  2  0  0  0  0  0  0
  193.6060  173.7480  144.7490 N   0  0  0  0  0  0  0  0  0  0  0  0
  193.7650  175.7810  143.3810 C   0  0  0  0  0  2  0  0  0  0  0  0
  193.0620  176.6160  146.9800 O   0  0  0  0  0  1  0  0  0  0  0  0
  193.0170  172.4230  144.7750 C   0  0  0  0  0  1  0  0  0  0  0  0
  193.1820  174.3700  143.4950 C   0  0  0  0  0  2  0  0  0  0  0  0
  193.5920  175.9060  145.9000 C   0  0  2  0  0  3  0  0  0  0  0  0
  193.3400  176.6430  144.5730 C   0  0  2  0  0  3  0  0  0  0  0  0
  193.0140  174.4930  145.8590 C   0  0  0  0  0  2  0  0  0  0  0  0
  1  9  1  0  0  0  0
  1  6  1  0  0  0  0
  2  3  1  6  0  0  0
  2 13  1  0  0  0  0
  2  5  1  0  0  0  0
  4  7  2  0  0  0  0
  5 14  1  0  0  0  0
  5 16  2  0  0  0  0
  7  3  1  0  0  0  0
  8 23  1  1  0  0  0
  8 12  1  0  0  0  0
 10 18  1  0  0  0  0
 11  4  1  0  0  0  0
 12 16  1  0  0  0  0
 13 18  1  6  0  0  0
 13  8  1  0  0  0  0
 14  1  2  0  0  0  0
 15 20  2  0  0  0  0
 15  4  1  0  0  0  0
 16 17  1  0  0  0  0
 17  6  2  0  0  0  0
 19 10  1  0  0  0  0
 19  3  2  0  0  0  0
 20 19  1  0  0  0  0
 21 22  2  0  0  0  0
 22 23  1  0  0  0  0
 24 27  1  0  0  0  0
 24 31  1  0  0  0  0
 25 28  1  0  0  0  0
 25 30  1  0  0  0  0
 28 24  1  0  0  0  0
 29 26  1  1  0  0  0
 30 22  1  6  0  0  0
 30 29  1  0  0  0  0
 31 29  1  0  0  0  0
M  END
>  <MODEL>
2

>  <REMARK>
 VINA RESULT:      -8.9      1.389      1.956
  Name = 
  2 active torsions:
  status: ('A' for Active; 'I' for Inactive)
    1  A    between atoms: C_5  and  C_30
    2  A    between atoms: C_10  and  N_16
                            x       y       z     vdW  Elec       q    Type
                         _______ _______ _______ _____ _____    ______ ____

>  <TORSDO>
F 2

$$$$
=
 OpenBabel11112417003D

 31 35  0  0  1  0  0  0  0  0999 V2000
  186.5610  177.8770  140.8670 C   0  0  0  0  0  0  0  0  0  0  0  0
  188.4820  177.8710  144.1530 C   0  0  2  0  0  3  0  0  0  0  0  0
  187.4280  177.7990  145.2470 C   0  0  0  0  0  0  0  0  0  0  0  0
  185.1690  178.2590  146.0280 C   0  0  0  0  0  0  0  0  0  0  0  0
  187.9730  177.4350  142.7950 C   0  0  0  0  0  0  0  0  0  0  0  0
  186.9370  176.6560  140.3040 C   0  0  0  0  0  3  0  0  0  0  0  0
  186.1210  178.2500  145.0070 C   0  0  0  0  0  3  0  0  0  0  0  0
  189.6590  175.6240  144.3020 C   0  0  2  0  0  3  0  0  0  0  0  0
  185.6910  178.6840  140.2130 F   0  0  0  0  0  0  0  0  0  0  0  0
  189.1600  176.9100  146.8660 C   0  0  0  0  0  2  0  0  0  0  0  0
  183.7870  178.7260  145.7510 C   0  0  0  0  0  1  0  0  0  0  0  0
  189.4350  175.3480  142.8190 C   0  0  0  0  0  2  0  0  0  0  0  0
  189.7790  177.1360  144.5440 C   0  0  2  0  0  3  0  0  0  0  0  0
  187.0800  178.2650  142.1030 C   0  0  0  0  0  3  0  0  0  0  0  0
  185.5190  177.8340  147.3110 C   0  0  0  0  0  3  0  0  0  0  0  0
  188.3600  176.2040  142.2170 C   0  0  0  0  0  0  0  0  0  0  0  0
  187.8420  175.8290  140.9730 C   0  0  0  0  0  3  0  0  0  0  0  0
  190.1520  177.4500  145.9310 N   0  0  0  0  0  2  0  0  0  0  0  0
  187.7830  177.4090  146.5570 C   0  0  0  0  0  0  0  0  0  0  0  0
  186.8230  177.4090  147.5730 C   0  0  0  0  0  3  0  0  0  0  0  0
  192.3020  176.2490  143.4360 O   0  0  0  0  0  0  0  0  0  0  0  0
  192.1690  175.3160  144.2740 C   0  0  0  0  0  0  0  0  0  0  0  0
  190.8710  174.9470  144.7420 N   0  0  0  0  0  2  0  0  0  0  0  0
  195.9360  175.7070  144.0160 N   0  0  0  0  0  0  0  0  0  0  0  0
  194.2060  175.4280  145.7350 C   0  0  0  0  0  2  0  0  0  0  0  0
  193.4640  173.3270  142.7050 O   0  0  0  0  0  1  0  0  0  0  0  0
  196.7180  176.7130  143.3230 C   0  0  0  0  0  1  0  0  0  0  0  0
  195.0700  176.4200  144.9530 C   0  0  0  0  0  2  0  0  0  0  0  0
  194.2430  173.9770  143.6640 C   0  0  2  0  0  3  0  0  0  0  0  0
  193.3680  174.5680  144.7840 C   0  0  2  0  0  3  0  0  0  0  0  0
  195.0970  175.0600  143.0080 C   0  0  0  0  0  2  0  0  0  0  0  0
  1 14  1  0  0  0  0
  2  5  1  6  0  0  0
  2 13  1  0  0  0  0
  2  3  1  0  0  0  0
  3 19  1  0  0  0  0
  4 15  2  0  0  0  0
  6  1  2  0  0  0  0
  6 17  1  0  0  0  0
  7  3  2  0  0  0  0
  7  4  1  0  0  0  0
  8 13  1  0  0  0  0
  8 23  1  6  0  0  0
  9  1  1  0  0  0  0
 11  4  1  0  0  0  0
 12  8  1  0  0  0  0
 13 18  1  1  0  0  0
 14  5  2  0  0  0  0
 15 20  1  0  0  0  0
 16  5  1  0  0  0  0
 16 12  1  0  0  0  0
 17 16  2  0  0  0  0
 18 10  1  0  0  0  0
 19 10  1  0  0  0  0
 19 20  2  0  0  0  0
 21 22  2  0  0  0  0
 22 23  1  0  0  0  0
 24 28  1  0  0  0  0
 27 24  1  0  0  0  0
 28 25  1  0  0  0  0
 29 26  1  6  0  0  0
 29 30  1  0  0  0  0
 30 22  1  6  0  0  0
 30 25  1  0  0  0  0
 31 29  1  0  0  0  0
 31 24  1  0  0  0  0
M  END
>  <MODEL>
3

>  <REMARK>
 VINA RESULT:      -8.7      1.818      4.074
  Name = 
  2 active torsions:
  status: ('A' for Active; 'I' for Inactive)
    1  A    between atoms: C_5  and  C_30
    2  A    between atoms: C_10  and  N_16
                            x       y       z     vdW  Elec       q    Type
                         _______ _______ _______ _____ _____    ______ ____

>  <TORSDO>
F 2

$$$$
=
 OpenBabel11112417003D

 31 35  0  0  1  0  0  0  0  0999 V2000
  185.0330  177.6390  146.9150 C   0  0  0  0  0  0  0  0  0  0  0  0
  187.3240  175.9370  144.3950 C   0  0  2  0  0  3  0  0  0  0  0  0
  186.9990  176.5660  143.0510 C   0  0  0  0  0  0  0  0  0  0  0  0
  185.4120  177.6660  141.5690 C   0  0  0  0  0  0  0  0  0  0  0  0
  186.8650  176.7650  145.5770 C   0  0  0  0  0  0  0  0  0  0  0  0
  185.9420  178.3400  147.7100 C   0  0  0  0  0  3  0  0  0  0  0  0
  185.7450  177.1540  142.8240 C   0  0  0  0  0  3  0  0  0  0  0  0
  189.6800  176.7500  144.8900 C   0  0  2  0  0  3  0  0  0  0  0  0
  183.7060  177.7250  147.1680 F   0  0  0  0  0  0  0  0  0  0  0  0
  189.2540  175.8380  142.1580 C   0  0  0  0  0  2  0  0  0  0  0  0
  184.0850  178.2980  141.3520 C   0  0  0  0  0  1  0  0  0  0  0  0
  189.2660  177.2860  146.2570 C   0  0  0  0  0  2  0  0  0  0  0  0
  188.8100  175.5420  144.5120 C   0  0  2  0  0  3  0  0  0  0  0  0
  185.4940  176.8540  145.8570 C   0  0  0  0  0  3  0  0  0  0  0  0
  186.3240  177.5790  140.5160 C   0  0  0  0  0  3  0  0  0  0  0  0
  187.7820  177.4680  146.3930 C   0  0  0  0  0  0  0  0  0  0  0  0
  187.3110  178.2440  147.4560 C   0  0  0  0  0  3  0  0  0  0  0  0
  189.2680  174.8910  143.2770 N   0  0  0  0  0  2  0  0  0  0  0  0
  187.8990  176.4470  141.9690 C   0  0  0  0  0  0  0  0  0  0  0  0
  187.5660  176.9720  140.7170 C   0  0  0  0  0  3  0  0  0  0  0  0
  190.8210  174.8480  146.6800 O   0  0  0  0  0  0  0  0  0  0  0  0
  191.5910  175.3970  145.8450 C   0  0  0  0  0  0  0  0  0  0  0  0
  191.0840  176.3660  144.9260 N   0  0  0  0  0  2  0  0  0  0  0  0
  194.3530  175.4970  143.2440 N   0  0  0  0  0  0  0  0  0  0  0  0
  193.9140  176.2890  145.5250 C   0  0  0  0  0  2  0  0  0  0  0  0
  192.5060  172.8440  144.9880 O   0  0  0  0  0  1  0  0  0  0  0  0
  194.3020  175.9080  141.8530 C   0  0  0  0  0  1  0  0  0  0  0  0
  193.8890  176.6360  144.0350 C   0  0  0  0  0  2  0  0  0  0  0  0
  193.3930  173.9120  144.8400 C   0  0  2  0  0  3  0  0  0  0  0  0
  193.0530  175.0550  145.8120 C   0  0  2  0  0  3  0  0  0  0  0  0
  193.3930  174.4050  143.3940 C   0  0  0  0  0  2  0  0  0  0  0  0
  1  9  1  0  0  0  0
  1  6  1  0  0  0  0
  2  3  1  6  0  0  0
  2 13  1  0  0  0  0
  2  5  1  0  0  0  0
  4  7  2  0  0  0  0
  5 14  1  0  0  0  0
  5 16  2  0  0  0  0
  7  3  1  0  0  0  0
  8 23  1  1  0  0  0
  8 12  1  0  0  0  0
 10 18  1  0  0  0  0
 11  4  1  0  0  0  0
 12 16  1  0  0  0  0
 13 18  1  6  0  0  0
 13  8  1  0  0  0  0
 14  1  2  0  0  0  0
 15 20  2  0  0  0  0
 15  4  1  0  0  0  0
 16 17  1  0  0  0  0
 17  6  2  0  0  0  0
 19 10  1  0  0  0  0
 19  3  2  0  0  0  0
 20 19  1  0  0  0  0
 22 21  2  0  0  0  0
 23 22  1  0  0  0  0
 24 31  1  0  0  0  0
 24 28  1  0  0  0  0
 25 30  1  0  0  0  0
 27 24  1  0  0  0  0
 28 25  1  0  0  0  0
 29 26  1  6  0  0  0
 29 30  1  0  0  0  0
 30 22  1  6  0  0  0
 31 29  1  0  0  0  0
M  END
>  <MODEL>
4

>  <REMARK>
 VINA RESULT:      -8.0      1.298      1.407
  Name = 
  2 active torsions:
  status: ('A' for Active; 'I' for Inactive)
    1  A    between atoms: C_5  and  C_30
    2  A    between atoms: C_10  and  N_16
                            x       y       z     vdW  Elec       q    Type
                         _______ _______ _______ _____ _____    ______ ____

>  <TORSDO>
F 2

$$$$
=
 OpenBabel11112417003D

 31 35  0  0  1  0  0  0  0  0999 V2000
  186.3710  177.9220  140.9510 C   0  0  0  0  0  0  0  0  0  0  0  0
  188.6210  177.9160  144.0220 C   0  0  2  0  0  3  0  0  0  0  0  0
  187.6980  177.6990  145.2100 C   0  0  0  0  0  0  0  0  0  0  0  0
  185.5040  177.9220  146.2400 C   0  0  0  0  0  0  0  0  0  0  0  0
  188.0090  177.5070  142.6980 C   0  0  0  0  0  0  0  0  0  0  0  0
  186.7830  176.7680  140.2830 C   0  0  0  0  0  3  0  0  0  0  0  0
  186.3400  178.0470  145.1290 C   0  0  0  0  0  3  0  0  0  0  0  0
  189.9840  175.7740  143.9180 C   0  0  2  0  0  3  0  0  0  0  0  0
  185.3740  178.6820  140.4370 F   0  0  0  0  0  0  0  0  0  0  0  0
  189.6560  176.8820  146.5910 C   0  0  0  0  0  2  0  0  0  0  0  0
  184.0660  178.2820  146.1310 C   0  0  0  0  0  1  0  0  0  0  0  0
  189.6280  175.5550  142.4510 C   0  0  0  0  0  2  0  0  0  0  0  0
  190.0070  177.2770  144.2360 C   0  0  2  0  0  3  0  0  0  0  0  0
  186.9830  178.2900  142.1500 C   0  0  0  0  0  3  0  0  0  0  0  0
  186.0200  177.4650  147.4540 C   0  0  0  0  0  3  0  0  0  0  0  0
  188.4300  176.3440  142.0120 C   0  0  0  0  0  0  0  0  0  0  0  0
  187.8160  175.9890  140.8070 C   0  0  0  0  0  3  0  0  0  0  0  0
  190.4970  177.5510  145.5940 N   0  0  0  0  0  2  0  0  0  0  0  0
  188.2180  177.2760  146.4530 C   0  0  0  0  0  0  0  0  0  0  0  0
  187.3740  177.1410  147.5580 C   0  0  0  0  0  3  0  0  0  0  0  0
  192.4630  176.6700  142.8330 O   0  0  0  0  0  0  0  0  0  0  0  0
  192.4950  175.6870  143.6220 C   0  0  0  0  0  0  0  0  0  0  0  0
  191.2870  175.1830  144.1940 N   0  0  0  0  0  2  0  0  0  0  0  0
  193.6460  172.1270  144.2660 N   0  0  0  0  0  0  0  0  0  0  0  0
  194.2390  174.0520  142.8620 C   0  0  0  0  0  2  0  0  0  0  0  0
  193.2330  175.1480  146.3160 O   0  0  0  0  0  1  0  0  0  0  0  0
  192.8850  170.8920  144.2630 C   0  0  0  0  0  1  0  0  0  0  0  0
  193.4620  172.7360  142.9490 C   0  0  0  0  0  2  0  0  0  0  0  0
  193.7870  174.3230  145.3350 C   0  0  2  0  0  3  0  0  0  0  0  0
  193.7960  175.0200  143.9630 C   0  0  2  0  0  3  0  0  0  0  0  0
  193.0320  172.9960  145.2680 C   0  0  0  0  0  2  0  0  0  0  0  0
  1 14  1  0  0  0  0
  2  5  1  6  0  0  0
  2 13  1  0  0  0  0
  2  3  1  0  0  0  0
  3 19  1  0  0  0  0
  4 15  2  0  0  0  0
  6 17  1  0  0  0  0
  6  1  2  0  0  0  0
  7  3  2  0  0  0  0
  7  4  1  0  0  0  0
  8 23  1  6  0  0  0
  8 13  1  0  0  0  0
  9  1  1  0  0  0  0
 11  4  1  0  0  0  0
 12  8  1  0  0  0  0
 13 18  1  1  0  0  0
 14  5  2  0  0  0  0
 15 20  1  0  0  0  0
 16 12  1  0  0  0  0
 16  5  1  0  0  0  0
 17 16  2  0  0  0  0
 18 10  1  0  0  0  0
 19 10  1  0  0  0  0
 19 20  2  0  0  0  0
 21 22  2  0  0  0  0
 22 23  1  0  0  0  0
 24 31  1  0  0  0  0
 25 28  1  0  0  0  0
 25 30  1  0  0  0  0
 27 24  1  0  0  0  0
 28 24  1  0  0  0  0
 29 26  1  1  0  0  0
 30 22  1  6  0  0  0
 30 29  1  0  0  0  0
 31 29  1  0  0  0  0
M  END
>  <MODEL>
5

>  <REMARK>
 VINA RESULT:      -7.6      2.165      4.496
  Name = 
  2 active torsions:
  status: ('A' for Active; 'I' for Inactive)
    1  A    between atoms: C_5  and  C_30
    2  A    between atoms: C_10  and  N_16
                            x       y       z     vdW  Elec       q    Type
                         _______ _______ _______ _____ _____    ______ ____

>  <TORSDO>
F 2

$$$$
=
 OpenBabel11112417003D

 31 35  0  0  1  0  0  0  0  0999 V2000
  186.1160  178.7700  142.6320 C   0  0  0  0  0  0  0  0  0  0  0  0
  189.2500  176.7970  143.5160 C   0  0  2  0  0  3  0  0  0  0  0  0
  188.9560  176.1330  144.8510 C   0  0  0  0  0  0  0  0  0  0  0  0
  187.7790  176.1170  146.9820 C   0  0  0  0  0  0  0  0  0  0  0  0
  188.0060  177.2480  142.7790 C   0  0  0  0  0  0  0  0  0  0  0  0
  185.6520  178.0940  141.5020 C   0  0  0  0  0  3  0  0  0  0  0  0
  187.9990  176.6770  145.7220 C   0  0  0  0  0  3  0  0  0  0  0  0
  189.3660  174.8510  141.8860 C   0  0  2  0  0  3  0  0  0  0  0  0
  185.4260  179.8300  143.1160 F   0  0  0  0  0  0  0  0  0  0  0  0
  190.7650  174.4190  144.4040 C   0  0  0  0  0  2  0  0  0  0  0  0
  186.7500  176.6970  147.8830 C   0  0  0  0  0  1  0  0  0  0  0  0
  188.3410  175.4960  140.9590 C   0  0  0  0  0  2  0  0  0  0  0  0
  190.1660  175.9360  142.6240 C   0  0  2  0  0  3  0  0  0  0  0  0
  187.2880  178.3500  143.2640 C   0  0  0  0  0  3  0  0  0  0  0  0
  188.5290  175.0150  147.3960 C   0  0  0  0  0  3  0  0  0  0  0  0
  187.5380  176.5730  141.6280 C   0  0  0  0  0  0  0  0  0  0  0  0
  186.3680  177.0070  140.9960 C   0  0  0  0  0  3  0  0  0  0  0  0
  191.2710  175.3740  143.4120 N   0  0  0  0  0  2  0  0  0  0  0  0
  189.7380  175.0440  145.2950 C   0  0  0  0  0  0  0  0  0  0  0  0
  189.5050  174.4790  146.5530 C   0  0  0  0  0  3  0  0  0  0  0  0
  189.5840  172.0180  142.1170 O   0  0  0  0  0  0  0  0  0  0  0  0
  190.3170  172.5920  141.2650 C   0  0  0  0  0  0  0  0  0  0  0  0
  190.2640  174.0100  141.1060 N   0  0  0  0  0  2  0  0  0  0  0  0
  192.2860  169.3710  141.6630 N   0  0  0  0  0  0  0  0  0  0  0  0
  190.7100  170.4090  140.0930 C   0  0  0  0  0  2  0  0  0  0  0  0
  193.1340  172.9390  141.4580 O   0  0  0  0  0  1  0  0  0  0  0  0
  192.3550  168.4600  142.7900 C   0  0  0  0  0  1  0  0  0  0  0  0
  190.8760  169.4640  141.2860 C   0  0  0  0  0  2  0  0  0  0  0  0
  192.6820  171.6950  141.0130 C   0  0  2  0  0  3  0  0  0  0  0  0
  191.2680  171.7980  140.4160 C   0  0  2  0  0  3  0  0  0  0  0  0
  192.7230  170.6770  142.1520 C   0  0  0  0  0  2  0  0  0  0  0  0
  1  9  1  0  0  0  0
  1 14  1  0  0  0  0
  2  5  1  6  0  0  0
  2  3  1  0  0  0  0
  3 19  2  0  0  0  0
  3  7  1  0  0  0  0
  4 15  1  0  0  0  0
  4 11  1  0  0  0  0
  5 14  2  0  0  0  0
  6  1  2  0  0  0  0
  7  4  2  0  0  0  0
  8 23  1  6  0  0  0
  8 13  1  0  0  0  0
 10 19  1  0  0  0  0
 12 16  1  0  0  0  0
 12  8  1  0  0  0  0
 13 18  1  1  0  0  0
 13  2  1  0  0  0  0
 16  5  1  0  0  0  0
 17  6  1  0  0  0  0
 17 16  2  0  0  0  0
 18 10  1  0  0  0  0
 19 20  1  0  0  0  0
 20 15  2  0  0  0  0
 22 21  2  0  0  0  0
 23 22  1  0  0  0  0
 24 31  1  0  0  0  0
 24 27  1  0  0  0  0
 25 30  1  0  0  0  0
 25 28  1  0  0  0  0
 28 24  1  0  0  0  0
 29 26  1  1  0  0  0
 29 31  1  0  0  0  0
 30 29  1  0  0  0  0
 30 22  1  1  0  0  0
M  END
>  <MODEL>
6

>  <REMARK>
 VINA RESULT:      -7.4      3.501      5.779
  Name = 
  2 active torsions:
  status: ('A' for Active; 'I' for Inactive)
    1  A    between atoms: C_5  and  C_30
    2  A    between atoms: C_10  and  N_16
                            x       y       z     vdW  Elec       q    Type
                         _______ _______ _______ _____ _____    ______ ____

>  <TORSDO>
F 2

$$$$
=
 OpenBabel11112417003D

 31 35  0  0  1  0  0  0  0  0999 V2000
  186.4000  178.4650  144.5610 C   0  0  0  0  0  0  0  0  0  0  0  0
  189.7570  176.9840  143.5460 C   0  0  2  0  0  3  0  0  0  0  0  0
  190.4490  176.6030  144.8440 C   0  0  0  0  0  0  0  0  0  0  0  0
  190.7970  176.9540  147.2280 C   0  0  0  0  0  0  0  0  0  0  0  0
  188.2600  177.1650  143.6900 C   0  0  0  0  0  0  0  0  0  0  0  0
  185.5000  177.5260  144.0540 C   0  0  0  0  0  3  0  0  0  0  0  0
  190.1120  177.2440  146.0460 C   0  0  0  0  0  3  0  0  0  0  0  0
  189.2610  174.7480  142.4460 C   0  0  2  0  0  3  0  0  0  0  0  0
  185.9420  179.5460  145.2350 F   0  0  0  0  0  0  0  0  0  0  0  0
  191.9320  174.9820  143.5850 C   0  0  0  0  0  2  0  0  0  0  0  0
  190.4150  177.6310  148.4930 C   0  0  0  0  0  1  0  0  0  0  0  0
  187.7850  175.0940  142.2840 C   0  0  0  0  0  2  0  0  0  0  0  0
  190.1120  176.0260  142.3920 C   0  0  2  0  0  3  0  0  0  0  0  0
  187.7720  178.2860  144.3770 C   0  0  0  0  0  3  0  0  0  0  0  0
  191.8430  176.0300  147.2180 C   0  0  0  0  0  3  0  0  0  0  0  0
  187.3440  176.2230  143.1690 C   0  0  0  0  0  0  0  0  0  0  0  0
  185.9710  176.4160  143.3510 C   0  0  0  0  0  3  0  0  0  0  0  0
  191.5520  175.7370  142.3870 N   0  0  0  0  0  2  0  0  0  0  0  0
  191.5360  175.7000  144.8370 C   0  0  0  0  0  0  0  0  0  0  0  0
  192.2100  175.4040  146.0250 C   0  0  0  0  0  3  0  0  0  0  0  0
  189.2980  171.9050  142.6550 O   0  0  0  0  0  0  0  0  0  0  0  0
  189.6510  172.4130  141.5550 C   0  0  0  0  0  0  0  0  0  0  0  0
  189.6630  173.8320  141.3880 N   0  0  0  0  0  2  0  0  0  0  0  0
  191.7070  172.8720  138.3980 N   0  0  0  0  0  0  0  0  0  0  0  0
  191.6000  171.3900  140.3520 C   0  0  0  0  0  2  0  0  0  0  0  0
  188.1560  172.2910  139.1380 O   0  0  0  0  0  1  0  0  0  0  0  0
  192.3710  174.0570  137.8880 C   0  0  0  0  0  1  0  0  0  0  0  0
  192.2460  172.6330  139.7360 C   0  0  0  0  0  2  0  0  0  0  0  0
  189.5190  171.9970  139.0510 C   0  0  2  0  0  3  0  0  0  0  0  0
  190.0760  171.5400  140.4100 C   0  0  2  0  0  3  0  0  0  0  0  0
  190.2890  173.2050  138.5210 C   0  0  0  0  0  2  0  0  0  0  0  0
  1  9  1  0  0  0  0
  2  5  1  1  0  0  0
  2  3  1  0  0  0  0
  3  7  1  0  0  0  0
  4 11  1  0  0  0  0
  5 14  2  0  0  0  0
  6  1  2  0  0  0  0
  7  4  2  0  0  0  0
  8 23  1  6  0  0  0
 10 19  1  0  0  0  0
 12  8  1  0  0  0  0
 12 16  1  0  0  0  0
 13 18  1  1  0  0  0
 13  8  1  0  0  0  0
 13  2  1  0  0  0  0
 14  1  1  0  0  0  0
 15  4  1  0  0  0  0
 16 17  2  0  0  0  0
 16  5  1  0  0  0  0
 17  6  1  0  0  0  0
 18 10  1  0  0  0  0
 19  3  2  0  0  0  0
 19 20  1  0  0  0  0
 20 15  2  0  0  0  0
 22 21  2  0  0  0  0
 23 22  1  0  0  0  0
 24 31  1  0  0  0  0
 24 28  1  0  0  0  0
 25 30  1  0  0  0  0
 27 24  1  0  0  0  0
 28 25  1  0  0  0  0
 29 26  1  1  0  0  0
 29 30  1  0  0  0  0
 30 22  1  1  0  0  0
 31 29  1  0  0  0  0
M  END
>  <MODEL>
7

>  <REMARK>
 VINA RESULT:      -7.4      3.543      5.895
  Name = 
  2 active torsions:
  status: ('A' for Active; 'I' for Inactive)
    1  A    between atoms: C_5  and  C_30
    2  A    between atoms: C_10  and  N_16
                            x       y       z     vdW  Elec       q    Type
                         _______ _______ _______ _____ _____    ______ ____

>  <TORSDO>
F 2

$$$$
=
 OpenBabel11112417003D

 31 35  0  0  1  0  0  0  0  0999 V2000
  186.1330  177.2680  142.5500 C   0  0  0  0  0  0  0  0  0  0  0  0
  188.4540  174.2590  142.7750 C   0  0  2  0  0  3  0  0  0  0  0  0
  188.9510  174.0150  141.3600 C   0  0  0  0  0  0  0  0  0  0  0  0
  188.6140  174.1650  138.9540 C   0  0  0  0  0  0  0  0  0  0  0  0
  187.8930  175.6500  142.9870 C   0  0  0  0  0  0  0  0  0  0  0  0
  186.8290  178.2310  143.2820 C   0  0  0  0  0  3  0  0  0  0  0  0
  188.2030  174.4520  140.2570 C   0  0  0  0  0  3  0  0  0  0  0  0
  190.5290  175.0340  144.0200 C   0  0  2  0  0  3  0  0  0  0  0  0
  184.9460  177.5810  141.9770 F   0  0  0  0  0  0  0  0  0  0  0  0
  190.9410  172.7410  142.2720 C   0  0  0  0  0  2  0  0  0  0  0  0
  187.8160  174.6490  137.7980 C   0  0  0  0  0  1  0  0  0  0  0  0
  189.8250  176.2910  144.5200 C   0  0  0  0  0  2  0  0  0  0  0  0
  189.5120  173.8980  143.8370 C   0  0  2  0  0  3  0  0  0  0  0  0
  186.6610  175.9840  142.4080 C   0  0  0  0  0  3  0  0  0  0  0  0
  189.7730  173.4170  138.7380 C   0  0  0  0  0  3  0  0  0  0  0  0
  188.5900  176.6260  143.7360 C   0  0  0  0  0  0  0  0  0  0  0  0
  188.0470  177.9070  143.8820 C   0  0  0  0  0  3  0  0  0  0  0  0
  190.1580  172.6200  143.5060 N   0  0  0  0  0  2  0  0  0  0  0  0
  190.1000  173.2250  141.1320 C   0  0  0  0  0  0  0  0  0  0  0  0
  190.5150  172.9510  139.8260 C   0  0  0  0  0  3  0  0  0  0  0  0
  193.3400  175.1550  143.5610 O   0  0  0  0  0  0  0  0  0  0  0  0
  192.9500  174.7340  144.6850 C   0  0  0  0  0  0  0  0  0  0  0  0
  191.5550  174.6410  144.9760 N   0  0  0  0  0  2  0  0  0  0  0  0
  196.7090  174.2180  144.8220 N   0  0  0  0  0  0  0  0  0  0  0  0
  194.9490  175.4260  146.0350 C   0  0  0  0  0  2  0  0  0  0  0  0
  193.7670  172.0230  144.9560 O   0  0  0  0  0  1  0  0  0  0  0  0
  197.7050  174.3790  143.7800 C   0  0  0  0  0  1  0  0  0  0  0  0
  196.0220  175.5040  144.9470 C   0  0  0  0  0  2  0  0  0  0  0  0
  194.6670  172.9970  145.3910 C   0  0  2  0  0  3  0  0  0  0  0  0
  193.9430  174.3120  145.7300 C   0  0  2  0  0  3  0  0  0  0  0  0
  195.7510  173.2260  144.3380 C   0  0  0  0  0  2  0  0  0  0  0  0
  1  6  1  0  0  0  0
  2  3  1  6  0  0  0
  2  5  1  0  0  0  0
  2 13  1  0  0  0  0
  4  7  1  0  0  0  0
  5 16  2  0  0  0  0
  6 17  2  0  0  0  0
  7  3  2  0  0  0  0
  8 12  1  0  0  0  0
  8 23  1  1  0  0  0
  9  1  1  0  0  0  0
 10 18  1  0  0  0  0
 11  4  1  0  0  0  0
 13 18  1  6  0  0  0
 13  8  1  0  0  0  0
 14  1  2  0  0  0  0
 14  5  1  0  0  0  0
 15  4  2  0  0  0  0
 15 20  1  0  0  0  0
 16 17  1  0  0  0  0
 16 12  1  0  0  0  0
 19  3  1  0  0  0  0
 19 10  1  0  0  0  0
 20 19  2  0  0  0  0
 21 22  2  0  0  0  0
 22 23  1  0  0  0  0
 24 28  1  0  0  0  0
 27 24  1  0  0  0  0
 28 25  1  0  0  0  0
 29 26  1  6  0  0  0
 29 30  1  0  0  0  0
 30 22  1  6  0  0  0
 30 25  1  0  0  0  0
 31 24  1  0  0  0  0
 31 29  1  0  0  0  0
M  END
>  <MODEL>
8

>  <REMARK>
 VINA RESULT:      -7.4      2.470      3.448
  Name = 
  2 active torsions:
  status: ('A' for Active; 'I' for Inactive)
    1  A    between atoms: C_5  and  C_30
    2  A    between atoms: C_10  and  N_16
                            x       y       z     vdW  Elec       q    Type
                         _______ _______ _______ _____ _____    ______ ____

>  <TORSDO>
F 2

$$$$
=
 OpenBabel11112417003D

 31 35  0  0  1  0  0  0  0  0999 V2000
  185.7730  178.8410  142.7330 C   0  0  0  0  0  0  0  0  0  0  0  0
  189.0120  177.1350  143.7750 C   0  0  2  0  0  3  0  0  0  0  0  0
  188.7100  176.4460  145.0960 C   0  0  0  0  0  0  0  0  0  0  0  0
  187.4330  176.3260  147.1650 C   0  0  0  0  0  0  0  0  0  0  0  0
  187.7730  177.4820  142.9770 C   0  0  0  0  0  0  0  0  0  0  0  0
  185.4240  178.1310  141.5820 C   0  0  0  0  0  3  0  0  0  0  0  0
  187.6680  176.9060  145.9160 C   0  0  0  0  0  3  0  0  0  0  0  0
  189.3720  175.2100  142.1570 C   0  0  2  0  0  3  0  0  0  0  0  0
  184.9740  179.8380  143.1800 F   0  0  0  0  0  0  0  0  0  0  0  0
  190.6760  174.8900  144.7420 C   0  0  0  0  0  2  0  0  0  0  0  0
  186.3160  176.8160  148.0130 C   0  0  0  0  0  1  0  0  0  0  0  0
  188.3440  175.7680  141.1790 C   0  0  0  0  0  2  0  0  0  0  0  0
  190.0400  176.3550  142.9320 C   0  0  2  0  0  3  0  0  0  0  0  0
  186.9420  178.5190  143.4230 C   0  0  0  0  0  3  0  0  0  0  0  0
  188.2520  175.2900  147.6180 C   0  0  0  0  0  3  0  0  0  0  0  0
  187.4220  176.7730  141.8050 C   0  0  0  0  0  0  0  0  0  0  0  0
  186.2520  177.1090  141.1150 C   0  0  0  0  0  3  0  0  0  0  0  0
  191.1480  175.8860  143.7750 N   0  0  0  0  0  2  0  0  0  0  0  0
  189.5560  175.4250  145.5800 C   0  0  0  0  0  0  0  0  0  0  0  0
  189.3100  174.8400  146.8250 C   0  0  0  0  0  3  0  0  0  0  0  0
  189.4470  172.3680  141.9400 O   0  0  0  0  0  0  0  0  0  0  0  0
  190.3490  173.0220  141.3480 C   0  0  0  0  0  0  0  0  0  0  0  0
  190.3740  174.4480  141.4240 N   0  0  0  0  0  2  0  0  0  0  0  0
  190.6940  171.6530  137.8240 N   0  0  0  0  0  0  0  0  0  0  0  0
  191.8840  173.1460  139.3670 C   0  0  0  0  0  2  0  0  0  0  0  0
  190.4440  170.1840  141.1810 O   0  0  0  0  0  1  0  0  0  0  0  0
  189.7380  171.6520  136.7330 C   0  0  0  0  0  1  0  0  0  0  0  0
  190.8800  173.0500  138.2150 C   0  0  0  0  0  2  0  0  0  0  0  0
  191.0190  170.8950  140.1260 C   0  0  2  0  0  3  0  0  0  0  0  0
  191.4190  172.3140  140.5660 C   0  0  2  0  0  3  0  0  0  0  0  0
  190.0650  170.9400  138.9340 C   0  0  0  0  0  2  0  0  0  0  0  0
  1  9  1  0  0  0  0
  1 14  1  0  0  0  0
  2  5  1  6  0  0  0
  2  3  1  0  0  0  0
  3 19  2  0  0  0  0
  3  7  1  0  0  0  0
  4 15  1  0  0  0  0
  4 11  1  0  0  0  0
  5 14  2  0  0  0  0
  6  1  2  0  0  0  0
  7  4  2  0  0  0  0
  8 23  1  6  0  0  0
  8 13  1  0  0  0  0
 10 19  1  0  0  0  0
 12 16  1  0  0  0  0
 12  8  1  0  0  0  0
 13  2  1  0  0  0  0
 13 18  1  1  0  0  0
 16  5  1  0  0  0  0
 17  6  1  0  0  0  0
 17 16  2  0  0  0  0
 18 10  1  0  0  0  0
 19 20  1  0  0  0  0
 20 15  2  0  0  0  0
 22 23  1  0  0  0  0
 22 21  2  0  0  0  0
 24 28  1  0  0  0  0
 24 31  1  0  0  0  0
 25 30  1  0  0  0  0
 27 24  1  0  0  0  0
 28 25  1  0  0  0  0
 29 30  1  0  0  0  0
 29 26  1  1  0  0  0
 30 22  1  6  0  0  0
 31 29  1  0  0  0  0
M  END
>  <MODEL>
9

>  <REMARK>
 VINA RESULT:      -7.2      3.558      5.951
  Name = 
  2 active torsions:
  status: ('A' for Active; 'I' for Inactive)
    1  A    between atoms: C_5  and  C_30
    2  A    between atoms: C_10  and  N_16
                            x       y       z     vdW  Elec       q    Type
                         _______ _______ _______ _____ _____    ______ ____

>  <TORSDO>
F 2

$$$$
