=
 OpenBabel11112416583D

 31 35  0  0  0  0  0  0  0  0999 V2000
  185.0070  178.0060  146.7780 C   0  0  0  0  0  0  0  0  0  0  0  0
  186.8930  177.6500  143.5390 C   0  0  0  0  0  0  0  0  0  0  0  0
  185.9530  177.8190  142.4810 C   0  0  0  0  0  0  0  0  0  0  0  0
  191.5150  176.8130  145.9080 O   0  0  0  0  0  0  0  0  0  0  0  0
  191.6920  176.7760  144.6610 C   0  0  0  0  0  0  0  0  0  0  0  0
  183.7000  178.2270  141.6310 C   0  0  0  0  0  0  0  0  0  0  0  0
  186.5750  177.7130  144.9290 C   0  0  0  0  0  0  0  0  0  0  0  0
  186.0380  177.8210  147.6990 C   0  0  0  0  0  3  0  0  0  0  0  0
  184.5870  178.0690  142.6980 C   0  0  0  0  0  3  0  0  0  0  0  0
  189.2230  177.2260  144.1620 C   0  0  0  0  0  0  0  0  0  0  0  0
  183.7140  178.2440  147.2230 O   0  0  0  0  0  1  0  0  0  0  0  0
  187.7120  177.4910  140.8850 N   0  0  0  0  0  0  0  0  0  0  0  0
  182.0060  178.5390  141.9420 Cl  0  0  0  0  0  0  0  0  0  0  0  0
  188.8820  177.2930  145.4730 N   0  0  0  0  0  0  0  0  0  0  0  0
  188.2430  177.4020  143.1760 C   0  0  0  0  0  0  0  0  0  0  0  0
  190.5820  176.9770  143.7740 N   0  0  0  0  0  2  0  0  0  0  0  0
  185.2750  177.9530  145.4100 C   0  0  0  0  0  3  0  0  0  0  0  0
  184.1650  178.1390  140.3190 C   0  0  0  0  0  3  0  0  0  0  0  0
  187.6110  177.5270  145.8790 C   0  0  0  0  0  0  0  0  0  0  0  0
  187.3370  177.5820  147.2500 C   0  0  0  0  0  3  0  0  0  0  0  0
  188.5960  177.3330  141.8660 N   0  0  0  0  0  0  0  0  0  0  0  0
  186.4060  177.7310  141.1430 C   0  0  0  0  0  0  0  0  0  0  0  0
  185.5160  177.8900  140.0760 C   0  0  0  0  0  3  0  0  0  0  0  0
  195.5300  176.0290  142.8680 C   0  0  0  0  0  0  0  0  0  0  0  0
  193.1260  176.2030  142.7270 C   0  0  0  0  0  3  0  0  0  0  0  0
  194.2950  176.9950  146.5590 Cl  0  0  0  0  0  0  0  0  0  0  0  0
  196.7260  175.7890  142.2790 F   0  0  0  0  0  0  0  0  0  0  0  0
  194.3570  175.9550  142.1190 C   0  0  0  0  0  3  0  0  0  0  0  0
  194.2430  176.6000  144.8460 C   0  0  0  0  0  0  0  0  0  0  0  0
  193.0420  176.5290  144.0920 C   0  0  0  0  0  0  0  0  0  0  0  0
  195.4700  176.3500  144.2240 C   0  0  0  0  0  3  0  0  0  0  0  0
  1 11  1  0  0  0  0
  1  8  1  0  0  0  0
  2  7  1  0  0  0  0
  3  9  1  0  0  0  0
  3  2  2  0  0  0  0
  5  4  2  0  0  0  0
  6 13  1  0  0  0  0
  6  9  2  0  0  0  0
  7 17  1  0  0  0  0
  7 19  2  0  0  0  0
 10 14  2  0  0  0  0
 12 22  2  0  0  0  0
 12 21  1  0  0  0  0
 14 19  1  0  0  0  0
 15  2  1  0  0  0  0
 15 10  1  0  0  0  0
 16 10  1  0  0  0  0
 16  5  1  0  0  0  0
 17  1  2  0  0  0  0
 18  6  1  0  0  0  0
 19 20  1  0  0  0  0
 20  8  2  0  0  0  0
 21 15  2  0  0  0  0
 22  3  1  0  0  0  0
 23 18  2  0  0  0  0
 23 22  1  0  0  0  0
 24 31  1  0  0  0  0
 25 30  2  0  0  0  0
 27 24  1  0  0  0  0
 28 25  1  0  0  0  0
 28 24  2  0  0  0  0
 29 26  1  0  0  0  0
 30  5  1  0  0  0  0
 30 29  1  0  0  0  0
 31 29  2  0  0  0  0
M  END
>  <MODEL>
1

>  <REMARK>
 VINA RESULT:     -10.0      0.000      0.000
  Name = 
  1 active torsions:
  status: ('A' for Active; 'I' for Inactive)
    1  A    between atoms: C_5  and  C_30
                            x       y       z     vdW  Elec       q    Type
                         _______ _______ _______ _____ _____    ______ ____

>  <TORSDO>
F 1

$$$$
=
 OpenBabel11112416583D

 31 35  0  0  0  0  0  0  0  0999 V2000
  184.7660  178.1090  146.3920 C   0  0  0  0  0  0  0  0  0  0  0  0
  187.2480  177.0630  143.7620 C   0  0  0  0  0  0  0  0  0  0  0  0
  186.6340  177.2740  142.4930 C   0  0  0  0  0  0  0  0  0  0  0  0
  190.9270  175.6980  147.2650 O   0  0  0  0  0  0  0  0  0  0  0  0
  191.3800  175.4900  146.1080 C   0  0  0  0  0  0  0  0  0  0  0  0
  184.7700  177.9740  141.0790 C   0  0  0  0  0  0  0  0  0  0  0  0
  186.6330  177.3370  145.0200 C   0  0  0  0  0  0  0  0  0  0  0  0
  185.4950  177.8500  147.5520 C   0  0  0  0  0  3  0  0  0  0  0  0
  185.3330  177.7830  142.3430 C   0  0  0  0  0  3  0  0  0  0  0  0
  189.2360  176.3080  144.9760 C   0  0  0  0  0  0  0  0  0  0  0  0
  183.4780  178.6190  146.4810 O   0  0  0  0  0  1  0  0  0  0  0  0
  188.6170  176.4630  141.4140 N   0  0  0  0  0  0  0  0  0  0  0  0
  183.1470  178.6110  140.9330 Cl  0  0  0  0  0  0  0  0  0  0  0  0
  188.6180  176.5820  146.1520 N   0  0  0  0  0  0  0  0  0  0  0  0
  188.5690  176.5410  143.7660 C   0  0  0  0  0  0  0  0  0  0  0  0
  190.5710  175.7810  144.9590 N   0  0  0  0  0  2  0  0  0  0  0  0
  185.3310  177.8540  145.1410 C   0  0  0  0  0  3  0  0  0  0  0  0
  185.5010  177.6570  139.9350 C   0  0  0  0  0  3  0  0  0  0  0  0
  187.3600  177.0800  146.2100 C   0  0  0  0  0  0  0  0  0  0  0  0
  186.7890  177.3370  147.4610 C   0  0  0  0  0  3  0  0  0  0  0  0
  189.1980  176.2630  142.5940 N   0  0  0  0  0  0  0  0  0  0  0  0
  187.3610  176.9570  141.3200 C   0  0  0  0  0  0  0  0  0  0  0  0
  186.7950  177.1480  140.0550 C   0  0  0  0  0  3  0  0  0  0  0  0
  195.4030  174.0500  145.6110 C   0  0  0  0  0  0  0  0  0  0  0  0
  193.8320  175.7270  146.3500 C   0  0  0  0  0  3  0  0  0  0  0  0
  191.7710  172.6020  144.7170 Cl  0  0  0  0  0  0  0  0  0  0  0  0
  196.6780  173.6190  145.4660 F   0  0  0  0  0  0  0  0  0  0  0  0
  195.1470  175.2860  146.2020 C   0  0  0  0  0  3  0  0  0  0  0  0
  193.0200  173.6880  145.3120 C   0  0  0  0  0  0  0  0  0  0  0  0
  192.7490  174.9460  145.9140 C   0  0  0  0  0  0  0  0  0  0  0  0
  194.3430  173.2570  145.1690 C   0  0  0  0  0  3  0  0  0  0  0  0
  1 11  1  0  0  0  0
  1  8  1  0  0  0  0
  2 15  1  0  0  0  0
  2  7  1  0  0  0  0
  3  2  2  0  0  0  0
  5  4  2  0  0  0  0
  6  9  2  0  0  0  0
  7 17  1  0  0  0  0
  7 19  2  0  0  0  0
  9  3  1  0  0  0  0
 10 14  2  0  0  0  0
 12 21  1  0  0  0  0
 13  6  1  0  0  0  0
 14 19  1  0  0  0  0
 15 10  1  0  0  0  0
 16 10  1  0  0  0  0
 16  5  1  0  0  0  0
 17  1  2  0  0  0  0
 18 23  2  0  0  0  0
 18  6  1  0  0  0  0
 19 20  1  0  0  0  0
 20  8  2  0  0  0  0
 21 15  2  0  0  0  0
 22 12  2  0  0  0  0
 22  3  1  0  0  0  0
 23 22  1  0  0  0  0
 24 28  1  0  0  0  0
 26 29  1  0  0  0  0
 27 24  1  0  0  0  0
 28 25  2  0  0  0  0
 29 30  2  0  0  0  0
 30  5  1  0  0  0  0
 30 25  1  0  0  0  0
 31 29  1  0  0  0  0
 31 24  2  0  0  0  0
M  END
>  <MODEL>
2

>  <REMARK>
 VINA RESULT:      -9.8      2.008      2.177
  Name = 
  1 active torsions:
  status: ('A' for Active; 'I' for Inactive)
    1  A    between atoms: C_5  and  C_30
                            x       y       z     vdW  Elec       q    Type
                         _______ _______ _______ _____ _____    ______ ____

>  <TORSDO>
F 1

$$$$
=
 OpenBabel11112416583D

 31 35  0  0  0  0  0  0  0  0999 V2000
  190.8950  176.6750  147.1330 C   0  0  0  0  0  0  0  0  0  0  0  0
  188.3380  176.3050  144.3940 C   0  0  0  0  0  0  0  0  0  0  0  0
  187.1980  177.0730  144.7720 C   0  0  0  0  0  0  0  0  0  0  0  0
  191.3820  173.1490  141.4880 O   0  0  0  0  0  0  0  0  0  0  0  0
  190.2900  173.3190  140.8830 C   0  0  0  0  0  0  0  0  0  0  0  0
  185.9900  178.5450  146.3020 C   0  0  0  0  0  0  0  0  0  0  0  0
  189.5320  176.1830  145.1670 C   0  0  0  0  0  0  0  0  0  0  0  0
  191.9280  175.8860  146.6290 C   0  0  0  0  0  3  0  0  0  0  0  0
  187.1270  177.8060  145.9700 C   0  0  0  0  0  3  0  0  0  0  0  0
  189.3560  174.8390  142.7180 C   0  0  0  0  0  0  0  0  0  0  0  0
  191.0440  177.3170  148.3550 O   0  0  0  0  0  1  0  0  0  0  0  0
  186.1000  176.4170  142.7440 N   0  0  0  0  0  0  0  0  0  0  0  0
  185.9390  179.4450  147.8020 Cl  0  0  0  0  0  0  0  0  0  0  0  0
  190.4740  174.7480  143.4820 N   0  0  0  0  0  0  0  0  0  0  0  0
  188.2730  175.6140  143.1560 C   0  0  0  0  0  0  0  0  0  0  0  0
  189.2720  174.1480  141.4630 N   0  0  0  0  0  2  0  0  0  0  0  0
  189.7110  176.8210  146.4080 C   0  0  0  0  0  3  0  0  0  0  0  0
  184.8950  178.5660  145.4370 C   0  0  0  0  0  3  0  0  0  0  0  0
  190.5920  175.3840  144.6710 C   0  0  0  0  0  0  0  0  0  0  0  0
  191.7770  175.2430  145.4010 C   0  0  0  0  0  3  0  0  0  0  0  0
  187.1590  175.6970  142.3830 N   0  0  0  0  0  0  0  0  0  0  0  0
  186.0780  177.1060  143.9080 C   0  0  0  0  0  0  0  0  0  0  0  0
  184.9390  177.8470  144.2420 C   0  0  0  0  0  3  0  0  0  0  0  0
  189.5210  171.5960  137.0180 C   0  0  0  0  0  0  0  0  0  0  0  0
  189.6060  173.4910  138.5100 C   0  0  0  0  0  3  0  0  0  0  0  0
  190.7480  170.1410  140.5480 Cl  0  0  0  0  0  0  0  0  0  0  0  0
  189.2730  171.0780  135.7910 F   0  0  0  0  0  0  0  0  0  0  0  0
  189.3490  172.9590  137.2470 C   0  0  0  0  0  3  0  0  0  0  0  0
  190.2120  171.2850  139.3250 C   0  0  0  0  0  0  0  0  0  0  0  0
  190.0400  172.6740  139.5680 C   0  0  0  0  0  0  0  0  0  0  0  0
  189.9510  170.7660  138.0530 C   0  0  0  0  0  3  0  0  0  0  0  0
  1 11  1  0  0  0  0
  2  3  1  0  0  0  0
  2  7  1  0  0  0  0
  3  9  1  0  0  0  0
  5 16  1  0  0  0  0
  5  4  2  0  0  0  0
  6 13  1  0  0  0  0
  7 17  1  0  0  0  0
  8  1  1  0  0  0  0
  9  6  2  0  0  0  0
 10 15  1  0  0  0  0
 10 14  2  0  0  0  0
 12 22  1  0  0  0  0
 14 19  1  0  0  0  0
 15  2  2  0  0  0  0
 16 10  1  0  0  0  0
 17  1  2  0  0  0  0
 18  6  1  0  0  0  0
 19  7  2  0  0  0  0
 19 20  1  0  0  0  0
 20  8  2  0  0  0  0
 21 12  2  0  0  0  0
 21 15  1  0  0  0  0
 22 23  1  0  0  0  0
 22  3  2  0  0  0  0
 23 18  2  0  0  0  0
 24 28  2  0  0  0  0
 24 31  1  0  0  0  0
 25 30  2  0  0  0  0
 27 24  1  0  0  0  0
 28 25  1  0  0  0  0
 29 30  1  0  0  0  0
 29 26  1  0  0  0  0
 30  5  1  0  0  0  0
 31 29  2  0  0  0  0
M  END
>  <MODEL>
3

>  <REMARK>
 VINA RESULT:      -9.1      4.685      5.959
  Name = 
  1 active torsions:
  status: ('A' for Active; 'I' for Inactive)
    1  A    between atoms: C_5  and  C_30
                            x       y       z     vdW  Elec       q    Type
                         _______ _______ _______ _____ _____    ______ ____

>  <TORSDO>
F 1

$$$$
=
 OpenBabel11112416583D

 31 35  0  0  0  0  0  0  0  0999 V2000
  195.1170  174.0960  145.4550 C   0  0  0  0  0  0  0  0  0  0  0  0
  191.6650  173.3530  144.1480 C   0  0  0  0  0  0  0  0  0  0  0  0
  191.7450  172.1390  143.4070 C   0  0  0  0  0  0  0  0  0  0  0  0
  189.5310  177.6430  146.3190 O   0  0  0  0  0  0  0  0  0  0  0  0
  188.6280  177.0160  145.7050 C   0  0  0  0  0  0  0  0  0  0  0  0
  192.9730  170.2280  142.5070 C   0  0  0  0  0  0  0  0  0  0  0  0
  192.7650  173.9790  144.8090 C   0  0  0  0  0  0  0  0  0  0  0  0
  194.8810  175.2850  146.1440 C   0  0  0  0  0  3  0  0  0  0  0  0
  192.9390  171.4140  143.2430 C   0  0  0  0  0  3  0  0  0  0  0  0
  190.2380  175.1770  144.9440 C   0  0  0  0  0  0  0  0  0  0  0  0
  196.3930  173.5520  145.4250 O   0  0  0  0  0  1  0  0  0  0  0  0
  189.4000  172.2910  142.9300 N   0  0  0  0  0  0  0  0  0  0  0  0
  194.4780  169.3540  142.3270 Cl  0  0  0  0  0  0  0  0  0  0  0  0
  191.3080  175.7420  145.5590 N   0  0  0  0  0  0  0  0  0  0  0  0
  190.3940  173.9800  144.2320 C   0  0  0  0  0  0  0  0  0  0  0  0
  188.9460  175.7960  145.0180 N   0  0  0  0  0  2  0  0  0  0  0  0
  194.0690  173.4520  144.7960 C   0  0  0  0  0  3  0  0  0  0  0  0
  191.8070  169.7400  141.9180 C   0  0  0  0  0  3  0  0  0  0  0  0
  192.5440  175.1890  145.5140 C   0  0  0  0  0  0  0  0  0  0  0  0
  193.5980  175.8300  146.1730 C   0  0  0  0  0  3  0  0  0  0  0  0
  189.3160  173.4250  143.6200 N   0  0  0  0  0  0  0  0  0  0  0  0
  190.5730  171.6280  142.8000 C   0  0  0  0  0  0  0  0  0  0  0  0
  190.6080  170.4400  142.0640 C   0  0  0  0  0  3  0  0  0  0  0  0
  184.5690  178.4340  145.7940 C   0  0  0  0  0  0  0  0  0  0  0  0
  186.4910  177.4500  146.8740 C   0  0  0  0  0  3  0  0  0  0  0  0
  187.4050  178.2150  142.9670 Cl  0  0  0  0  0  0  0  0  0  0  0  0
  183.2890  178.8750  145.8490 F   0  0  0  0  0  0  0  0  0  0  0  0
  185.1720  177.9020  146.9320 C   0  0  0  0  0  3  0  0  0  0  0  0
  186.6070  178.0630  144.5270 C   0  0  0  0  0  0  0  0  0  0  0  0
  187.2310  177.5200  145.6810 C   0  0  0  0  0  0  0  0  0  0  0  0
  185.2840  178.5130  144.6000 C   0  0  0  0  0  3  0  0  0  0  0  0
  1  8  1  0  0  0  0
  2 15  1  0  0  0  0
  2  7  1  0  0  0  0
  3  2  2  0  0  0  0
  5  4  2  0  0  0  0
  6  9  2  0  0  0  0
  7 19  2  0  0  0  0
  8 20  2  0  0  0  0
  9  3  1  0  0  0  0
 10 16  1  0  0  0  0
 10 14  2  0  0  0  0
 11  1  1  0  0  0  0
 12 21  1  0  0  0  0
 13  6  1  0  0  0  0
 15 10  1  0  0  0  0
 16  5  1  0  0  0  0
 17  7  1  0  0  0  0
 17  1  2  0  0  0  0
 18 23  2  0  0  0  0
 18  6  1  0  0  0  0
 19 14  1  0  0  0  0
 19 20  1  0  0  0  0
 21 15  2  0  0  0  0
 22 12  2  0  0  0  0
 22  3  1  0  0  0  0
 23 22  1  0  0  0  0
 24 27  1  0  0  0  0
 24 28  1  0  0  0  0
 25 28  2  0  0  0  0
 26 29  1  0  0  0  0
 29 31  1  0  0  0  0
 29 30  2  0  0  0  0
 30  5  1  0  0  0  0
 30 25  1  0  0  0  0
 31 24  2  0  0  0  0
M  END
>  <MODEL>
4

>  <REMARK>
 VINA RESULT:      -8.8      4.575      8.778
  Name = 
  1 active torsions:
  status: ('A' for Active; 'I' for Inactive)
    1  A    between atoms: C_5  and  C_30
                            x       y       z     vdW  Elec       q    Type
                         _______ _______ _______ _____ _____    ______ ____

>  <TORSDO>
F 1

$$$$
=
 OpenBabel11112416583D

 31 35  0  0  0  0  0  0  0  0999 V2000
  192.6340  172.7670  140.3790 C   0  0  0  0  0  0  0  0  0  0  0  0
  192.0200  174.7760  143.5030 C   0  0  0  0  0  0  0  0  0  0  0  0
  193.2420  174.8040  144.2360 C   0  0  0  0  0  0  0  0  0  0  0  0
  186.9810  175.7310  142.3280 O   0  0  0  0  0  0  0  0  0  0  0  0
  187.2460  176.2820  143.4290 C   0  0  0  0  0  0  0  0  0  0  0  0
  195.5930  174.2210  144.5480 C   0  0  0  0  0  0  0  0  0  0  0  0
  191.8340  174.1120  142.2530 C   0  0  0  0  0  0  0  0  0  0  0  0
  191.3760  172.8290  139.7810 C   0  0  0  0  0  3  0  0  0  0  0  0
  194.4160  174.1690  143.7970 C   0  0  0  0  0  3  0  0  0  0  0  0
  189.6750  175.4770  143.4010 C   0  0  0  0  0  0  0  0  0  0  0  0
  193.6640  172.0740  139.7590 O   0  0  0  0  0  1  0  0  0  0  0  0
  192.1800  176.1290  145.9290 N   0  0  0  0  0  0  0  0  0  0  0  0
  197.0360  173.4180  143.9680 Cl  0  0  0  0  0  0  0  0  0  0  0  0
  189.5380  174.8340  142.2130 N   0  0  0  0  0  0  0  0  0  0  0  0
  190.9100  175.4610  144.0640 C   0  0  0  0  0  0  0  0  0  0  0  0
  188.5660  176.1760  143.9840 N   0  0  0  0  0  2  0  0  0  0  0  0
  192.8580  173.4020  141.6010 C   0  0  0  0  0  3  0  0  0  0  0  0
  195.6180  174.9150  145.7570 C   0  0  0  0  0  3  0  0  0  0  0  0
  190.5610  174.1650  141.6300 C   0  0  0  0  0  0  0  0  0  0  0  0
  190.3430  173.5270  140.4050 C   0  0  0  0  0  3  0  0  0  0  0  0
  191.0350  176.1080  145.2520 N   0  0  0  0  0  0  0  0  0  0  0  0
  193.2860  175.5020  145.4660 C   0  0  0  0  0  0  0  0  0  0  0  0
  194.4650  175.5540  146.2160 C   0  0  0  0  0  3  0  0  0  0  0  0
  184.2650  178.4010  145.6920 C   0  0  0  0  0  0  0  0  0  0  0  0
  185.9430  176.6770  145.4960 C   0  0  0  0  0  3  0  0  0  0  0  0
  185.6920  178.6990  141.9560 Cl  0  0  0  0  0  0  0  0  0  0  0  0
  183.3320  179.0530  146.4260 F   0  0  0  0  0  0  0  0  0  0  0  0
  184.9820  177.3460  146.2530 C   0  0  0  0  0  3  0  0  0  0  0  0
  185.4720  178.1230  143.6030 C   0  0  0  0  0  0  0  0  0  0  0  0
  186.2080  177.0470  144.1660 C   0  0  0  0  0  0  0  0  0  0  0  0
  184.5110  178.7860  144.3740 C   0  0  0  0  0  3  0  0  0  0  0  0
  1 17  1  0  0  0  0
  2 15  2  0  0  0  0
  2  3  1  0  0  0  0
  3 22  1  0  0  0  0
  4  5  2  0  0  0  0
  5 16  1  0  0  0  0
  5 30  1  0  0  0  0
  6 18  2  0  0  0  0
  7  2  1  0  0  0  0
  8  1  2  0  0  0  0
  8 20  1  0  0  0  0
  9  3  2  0  0  0  0
  9  6  1  0  0  0  0
 10 16  1  0  0  0  0
 10 15  1  0  0  0  0
 11  1  1  0  0  0  0
 13  6  1  0  0  0  0
 14 10  2  0  0  0  0
 15 21  1  0  0  0  0
 17  7  2  0  0  0  0
 18 23  1  0  0  0  0
 19 14  1  0  0  0  0
 19  7  1  0  0  0  0
 20 19  2  0  0  0  0
 21 12  2  0  0  0  0
 22 12  1  0  0  0  0
 22 23  2  0  0  0  0
 24 28  1  0  0  0  0
 24 27  1  0  0  0  0
 25 28  2  0  0  0  0
 26 29  1  0  0  0  0
 29 30  2  0  0  0  0
 29 31  1  0  0  0  0
 30 25  1  0  0  0  0
 31 24  2  0  0  0  0
M  END
>  <MODEL>
5

>  <REMARK>
 VINA RESULT:      -8.7      4.018      9.354
  Name = 
  1 active torsions:
  status: ('A' for Active; 'I' for Inactive)
    1  A    between atoms: C_5  and  C_30
                            x       y       z     vdW  Elec       q    Type
                         _______ _______ _______ _____ _____    ______ ____

>  <TORSDO>
F 1

$$$$
=
 OpenBabel11112416583D

 31 35  0  0  0  0  0  0  0  0999 V2000
  195.0350  175.1300  145.2190 C   0  0  0  0  0  0  0  0  0  0  0  0
  191.8520  174.8480  143.2270 C   0  0  0  0  0  0  0  0  0  0  0  0
  192.1400  174.0550  142.0790 C   0  0  0  0  0  0  0  0  0  0  0  0
  189.0590  177.7560  146.6050 O   0  0  0  0  0  0  0  0  0  0  0  0
  188.3020  177.4010  145.6630 C   0  0  0  0  0  0  0  0  0  0  0  0
  193.6500  172.7440  140.6760 C   0  0  0  0  0  0  0  0  0  0  0  0
  192.7980  175.1900  144.2390 C   0  0  0  0  0  0  0  0  0  0  0  0
  194.6020  175.9150  146.2870 C   0  0  0  0  0  3  0  0  0  0  0  0
  193.4120  173.5160  141.8150 C   0  0  0  0  0  3  0  0  0  0  0  0
  190.1660  176.1150  144.4720 C   0  0  0  0  0  0  0  0  0  0  0  0
  196.3540  174.7020  145.1610 O   0  0  0  0  0  1  0  0  0  0  0  0
  189.8640  174.2900  141.3620 N   0  0  0  0  0  0  0  0  0  0  0  0
  195.2460  172.0890  140.3820 Cl  0  0  0  0  0  0  0  0  0  0  0  0
  191.0950  176.4190  145.4140 N   0  0  0  0  0  0  0  0  0  0  0  0
  190.5240  175.3290  143.3680 C   0  0  0  0  0  0  0  0  0  0  0  0
  188.8180  176.5910  144.5970 N   0  0  0  0  0  2  0  0  0  0  0  0
  194.1410  174.7720  144.2080 C   0  0  0  0  0  3  0  0  0  0  0  0
  192.6160  172.4950  139.7730 C   0  0  0  0  0  3  0  0  0  0  0  0
  192.3760  175.9880  145.3330 C   0  0  0  0  0  0  0  0  0  0  0  0
  193.2760  176.3430  146.3430 C   0  0  0  0  0  3  0  0  0  0  0  0
  189.5860  175.0310  142.4310 N   0  0  0  0  0  0  0  0  0  0  0  0
  191.1040  173.7920  141.1510 C   0  0  0  0  0  0  0  0  0  0  0  0
  191.3450  173.0190  140.0110 C   0  0  0  0  0  3  0  0  0  0  0  0
  184.1960  178.6660  145.4580 C   0  0  0  0  0  0  0  0  0  0  0  0
  186.4430  178.6220  144.5770 C   0  0  0  0  0  3  0  0  0  0  0  0
  186.3160  176.4160  148.0120 Cl  0  0  0  0  0  0  0  0  0  0  0  0
  182.9090  179.0770  145.3700 F   0  0  0  0  0  0  0  0  0  0  0  0
  185.1180  179.0470  144.4850 C   0  0  0  0  0  3  0  0  0  0  0  0
  185.9270  177.4270  146.6270 C   0  0  0  0  0  0  0  0  0  0  0  0
  186.8740  177.8090  145.6390 C   0  0  0  0  0  0  0  0  0  0  0  0
  184.6010  177.8600  146.5220 C   0  0  0  0  0  3  0  0  0  0  0  0
  1  8  1  0  0  0  0
  2 15  1  0  0  0  0
  2  7  1  0  0  0  0
  3  2  2  0  0  0  0
  5  4  2  0  0  0  0
  6  9  2  0  0  0  0
  7 19  2  0  0  0  0
  8 20  2  0  0  0  0
  9  3  1  0  0  0  0
 10 16  1  0  0  0  0
 10 14  2  0  0  0  0
 11  1  1  0  0  0  0
 12 21  1  0  0  0  0
 13  6  1  0  0  0  0
 15 10  1  0  0  0  0
 16  5  1  0  0  0  0
 17  7  1  0  0  0  0
 17  1  2  0  0  0  0
 18 23  2  0  0  0  0
 18  6  1  0  0  0  0
 19 14  1  0  0  0  0
 19 20  1  0  0  0  0
 21 15  2  0  0  0  0
 22 12  2  0  0  0  0
 22  3  1  0  0  0  0
 23 22  1  0  0  0  0
 24 31  1  0  0  0  0
 25 30  2  0  0  0  0
 27 24  1  0  0  0  0
 28 25  1  0  0  0  0
 28 24  2  0  0  0  0
 29 26  1  0  0  0  0
 30  5  1  0  0  0  0
 30 29  1  0  0  0  0
 31 29  2  0  0  0  0
M  END
>  <MODEL>
6

>  <REMARK>
 VINA RESULT:      -8.7      4.047      8.379
  Name = 
  1 active torsions:
  status: ('A' for Active; 'I' for Inactive)
    1  A    between atoms: C_5  and  C_30
                            x       y       z     vdW  Elec       q    Type
                         _______ _______ _______ _____ _____    ______ ____

>  <TORSDO>
F 1

$$$$
=
 OpenBabel11112416583D

 31 35  0  0  0  0  0  0  0  0999 V2000
  192.0860  173.1600  139.6650 C   0  0  0  0  0  0  0  0  0  0  0  0
  192.2530  175.2920  142.7640 C   0  0  0  0  0  0  0  0  0  0  0  0
  193.6300  175.4520  143.0950 C   0  0  0  0  0  0  0  0  0  0  0  0
  187.0300  175.8060  143.1250 O   0  0  0  0  0  0  0  0  0  0  0  0
  187.5600  176.4360  144.0780 C   0  0  0  0  0  0  0  0  0  0  0  0
  196.0100  175.0620  142.7060 C   0  0  0  0  0  0  0  0  0  0  0  0
  191.7640  174.5470  141.6500 C   0  0  0  0  0  0  0  0  0  0  0  0
  190.7070  173.0960  139.4710 C   0  0  0  0  0  3  0  0  0  0  0  0
  194.6730  174.8800  142.3450 C   0  0  0  0  0  3  0  0  0  0  0  0
  189.9320  175.8120  143.3480 C   0  0  0  0  0  0  0  0  0  0  0  0
  192.9430  172.5110  138.7870 O   0  0  0  0  0  1  0  0  0  0  0  0
  193.0070  176.7880  144.9860 N   0  0  0  0  0  0  0  0  0  0  0  0
  197.2800  174.3360  141.7460 Cl  0  0  0  0  0  0  0  0  0  0  0  0
  189.5060  175.0950  142.2780 N   0  0  0  0  0  0  0  0  0  0  0  0
  191.3040  175.9240  143.6100 C   0  0  0  0  0  0  0  0  0  0  0  0
  188.9890  176.4590  144.2140 N   0  0  0  0  0  2  0  0  0  0  0  0
  192.6060  173.8790  140.7430 C   0  0  0  0  0  3  0  0  0  0  0  0
  196.3320  175.8220  143.8290 C   0  0  0  0  0  3  0  0  0  0  0  0
  190.3640  174.4700  141.4360 C   0  0  0  0  0  0  0  0  0  0  0  0
  189.8490  173.7500  140.3540 C   0  0  0  0  0  3  0  0  0  0  0  0
  191.7190  176.6450  144.6850 N   0  0  0  0  0  0  0  0  0  0  0  0
  193.9760  176.2190  144.2330 C   0  0  0  0  0  0  0  0  0  0  0  0
  195.3160  176.4000  144.5920 C   0  0  0  0  0  3  0  0  0  0  0  0
  185.1820  178.4310  147.0560 C   0  0  0  0  0  0  0  0  0  0  0  0
  186.6740  176.6580  146.3780 C   0  0  0  0  0  3  0  0  0  0  0  0
  185.9410  179.0790  143.1720 Cl  0  0  0  0  0  0  0  0  0  0  0  0
  184.4410  179.0400  148.0120 F   0  0  0  0  0  0  0  0  0  0  0  0
  185.9120  177.2840  147.3640 C   0  0  0  0  0  3  0  0  0  0  0  0
  185.9770  178.3320  144.7630 C   0  0  0  0  0  0  0  0  0  0  0  0
  186.7250  177.1630  145.0680 C   0  0  0  0  0  0  0  0  0  0  0  0
  185.2160  178.9500  145.7620 C   0  0  0  0  0  3  0  0  0  0  0  0
  1 17  1  0  0  0  0
  2  3  2  0  0  0  0
  2 15  1  0  0  0  0
  3 22  1  0  0  0  0
  4  5  2  0  0  0  0
  5 16  1  0  0  0  0
  5 30  1  0  0  0  0
  6 18  1  0  0  0  0
  7  2  1  0  0  0  0
  8  1  2  0  0  0  0
  8 20  1  0  0  0  0
  9  6  2  0  0  0  0
  9  3  1  0  0  0  0
 10 15  1  0  0  0  0
 10 16  1  0  0  0  0
 11  1  1  0  0  0  0
 13  6  1  0  0  0  0
 14 10  2  0  0  0  0
 15 21  2  0  0  0  0
 17  7  2  0  0  0  0
 18 23  2  0  0  0  0
 19  7  1  0  0  0  0
 19 14  1  0  0  0  0
 20 19  2  0  0  0  0
 21 12  1  0  0  0  0
 22 23  1  0  0  0  0
 22 12  2  0  0  0  0
 24 28  1  0  0  0  0
 24 27  1  0  0  0  0
 25 28  2  0  0  0  0
 26 29  1  0  0  0  0
 29 30  2  0  0  0  0
 29 31  1  0  0  0  0
 30 25  1  0  0  0  0
 31 24  2  0  0  0  0
M  END
>  <MODEL>
7

>  <REMARK>
 VINA RESULT:      -8.6      3.946      9.133
  Name = 
  1 active torsions:
  status: ('A' for Active; 'I' for Inactive)
    1  A    between atoms: C_5  and  C_30
                            x       y       z     vdW  Elec       q    Type
                         _______ _______ _______ _____ _____    ______ ____

>  <TORSDO>
F 1

$$$$
=
 OpenBabel11112416583D

 31 35  0  0  0  0  0  0  0  0999 V2000
  186.2280  177.1660  141.2070 C   0  0  0  0  0  0  0  0  0  0  0  0
  187.8880  176.8260  144.5690 C   0  0  0  0  0  0  0  0  0  0  0  0
  186.9890  177.3520  145.5410 C   0  0  0  0  0  0  0  0  0  0  0  0
  192.2360  174.6160  142.5970 O   0  0  0  0  0  0  0  0  0  0  0  0
  192.3670  174.7100  143.8460 C   0  0  0  0  0  0  0  0  0  0  0  0
  184.8780  178.3890  146.2010 C   0  0  0  0  0  0  0  0  0  0  0  0
  187.6320  176.7710  143.1660 C   0  0  0  0  0  0  0  0  0  0  0  0
  187.2080  176.6210  140.3790 C   0  0  0  0  0  3  0  0  0  0  0  0
  185.7280  177.8830  145.2150 C   0  0  0  0  0  3  0  0  0  0  0  0
  190.0650  175.7880  144.1410 C   0  0  0  0  0  0  0  0  0  0  0  0
  185.0410  177.6370  140.6620 O   0  0  0  0  0  1  0  0  0  0  0  0
  188.5760  176.8440  147.2650 N   0  0  0  0  0  0  0  0  0  0  0  0
  183.3160  179.0410  145.7560 Cl  0  0  0  0  0  0  0  0  0  0  0  0
  189.7840  175.7530  142.8140 N   0  0  0  0  0  0  0  0  0  0  0  0
  189.1300  176.3210  145.0380 C   0  0  0  0  0  0  0  0  0  0  0  0
  191.3140  175.2820  144.6350 N   0  0  0  0  0  2  0  0  0  0  0  0
  186.4390  177.2390  142.5850 C   0  0  0  0  0  3  0  0  0  0  0  0
  185.2730  178.3730  147.5380 C   0  0  0  0  0  3  0  0  0  0  0  0
  188.6170  176.2200  142.3090 C   0  0  0  0  0  0  0  0  0  0  0  0
  188.3990  176.1490  140.9290 C   0  0  0  0  0  3  0  0  0  0  0  0
  189.4230  176.3510  146.3650 N   0  0  0  0  0  0  0  0  0  0  0  0
  187.3730  177.3450  146.9030 C   0  0  0  0  0  0  0  0  0  0  0  0
  186.5190  177.8520  147.8890 C   0  0  0  0  0  3  0  0  0  0  0  0
  195.8980  173.1740  145.7630 C   0  0  0  0  0  0  0  0  0  0  0  0
  193.8340  172.8470  144.5550 C   0  0  0  0  0  3  0  0  0  0  0  0
  194.3990  176.8450  145.1630 Cl  0  0  0  0  0  0  0  0  0  0  0  0
  197.0020  172.6650  146.3600 F   0  0  0  0  0  0  0  0  0  0  0  0
  194.9700  172.3200  145.1700 C   0  0  0  0  0  3  0  0  0  0  0  0
  194.5530  175.0940  145.1270 C   0  0  0  0  0  0  0  0  0  0  0  0
  193.6020  174.2320  144.5190 C   0  0  0  0  0  0  0  0  0  0  0  0
  195.6880  174.5530  145.7410 C   0  0  0  0  0  3  0  0  0  0  0  0
  1 17  1  0  0  0  0
  2 15  2  0  0  0  0
  2  3  1  0  0  0  0
  3 22  1  0  0  0  0
  4  5  2  0  0  0  0
  5 30  1  0  0  0  0
  5 16  1  0  0  0  0
  6 18  2  0  0  0  0
  7  2  1  0  0  0  0
  8 20  1  0  0  0  0
  8  1  2  0  0  0  0
  9  3  2  0  0  0  0
  9  6  1  0  0  0  0
 10 16  1  0  0  0  0
 10 15  1  0  0  0  0
 11  1  1  0  0  0  0
 13  6  1  0  0  0  0
 14 10  2  0  0  0  0
 15 21  1  0  0  0  0
 17  7  2  0  0  0  0
 18 23  1  0  0  0  0
 19 14  1  0  0  0  0
 19  7  1  0  0  0  0
 20 19  2  0  0  0  0
 21 12  2  0  0  0  0
 22 12  1  0  0  0  0
 22 23  2  0  0  0  0
 24 27  1  0  0  0  0
 25 28  1  0  0  0  0
 28 24  2  0  0  0  0
 29 26  1  0  0  0  0
 29 31  2  0  0  0  0
 30 25  2  0  0  0  0
 30 29  1  0  0  0  0
 31 24  1  0  0  0  0
M  END
>  <MODEL>
8

>  <REMARK>
 VINA RESULT:      -8.6      2.560      4.483
  Name = 
  1 active torsions:
  status: ('A' for Active; 'I' for Inactive)
    1  A    between atoms: C_5  and  C_30
                            x       y       z     vdW  Elec       q    Type
                         _______ _______ _______ _____ _____    ______ ____

>  <TORSDO>
F 1

$$$$
=
 OpenBabel11112416583D

 31 35  0  0  0  0  0  0  0  0999 V2000
  192.2140  170.2990  142.5300 C   0  0  0  0  0  0  0  0  0  0  0  0
  192.3110  173.6600  144.2260 C   0  0  0  0  0  0  0  0  0  0  0  0
  193.5970  173.7950  144.8240 C   0  0  0  0  0  0  0  0  0  0  0  0
  187.4020  174.9140  142.8110 O   0  0  0  0  0  0  0  0  0  0  0  0
  187.8810  175.8680  143.4800 C   0  0  0  0  0  0  0  0  0  0  0  0
  195.8380  172.9770  145.3500 C   0  0  0  0  0  0  0  0  0  0  0  0
  191.8730  172.5220  143.4840 C   0  0  0  0  0  0  0  0  0  0  0  0
  190.9240  170.3140  142.0020 C   0  0  0  0  0  3  0  0  0  0  0  0
  194.5900  172.8030  144.7470 C   0  0  0  0  0  3  0  0  0  0  0  0
  190.1210  174.6790  143.8220 C   0  0  0  0  0  0  0  0  0  0  0  0
  193.0350  169.1990  142.3270 O   0  0  0  0  0  1  0  0  0  0  0  0
  192.9750  175.9640  145.6360 N   0  0  0  0  0  0  0  0  0  0  0  0
  197.0490  171.7200  145.2310 Cl  0  0  0  0  0  0  0  0  0  0  0  0
  189.7420  173.5800  143.1230 N   0  0  0  0  0  0  0  0  0  0  0  0
  191.4040  174.7410  144.3830 C   0  0  0  0  0  0  0  0  0  0  0  0
  189.2190  175.7820  143.9910 N   0  0  0  0  0  2  0  0  0  0  0  0
  192.6810  171.3920  143.2620 C   0  0  0  0  0  3  0  0  0  0  0  0
  196.1180  174.1530  146.0450 C   0  0  0  0  0  3  0  0  0  0  0  0
  190.5630  172.5190  142.9400 C   0  0  0  0  0  0  0  0  0  0  0  0
  190.1010  171.4210  142.2070 C   0  0  0  0  0  3  0  0  0  0  0  0
  191.7720  175.8460  145.0810 N   0  0  0  0  0  0  0  0  0  0  0  0
  193.9000  174.9810  145.5350 C   0  0  0  0  0  0  0  0  0  0  0  0
  195.1500  175.1540  146.1380 C   0  0  0  0  0  3  0  0  0  0  0  0
  185.5560  179.4340  144.0960 C   0  0  0  0  0  0  0  0  0  0  0  0
  186.7020  177.8790  142.6480 C   0  0  0  0  0  3  0  0  0  0  0  0
  187.0660  176.6140  146.5140 Cl  0  0  0  0  0  0  0  0  0  0  0  0
  184.8240  180.5610  144.2630 F   0  0  0  0  0  0  0  0  0  0  0  0
  185.9490  179.0410  142.8180 C   0  0  0  0  0  3  0  0  0  0  0  0
  186.6730  177.4980  145.0460 C   0  0  0  0  0  0  0  0  0  0  0  0
  187.0780  177.0880  143.7480 C   0  0  0  0  0  0  0  0  0  0  0  0
  185.9170  178.6650  145.2020 C   0  0  0  0  0  3  0  0  0  0  0  0
  1 17  1  0  0  0  0
  2 15  2  0  0  0  0
  2  3  1  0  0  0  0
  3 22  1  0  0  0  0
  4  5  2  0  0  0  0
  5 30  1  0  0  0  0
  5 16  1  0  0  0  0
  6 18  2  0  0  0  0
  7  2  1  0  0  0  0
  8 20  1  0  0  0  0
  8  1  2  0  0  0  0
  9  3  2  0  0  0  0
  9  6  1  0  0  0  0
 10 16  1  0  0  0  0
 10 15  1  0  0  0  0
 11  1  1  0  0  0  0
 13  6  1  0  0  0  0
 14 10  2  0  0  0  0
 15 21  1  0  0  0  0
 17  7  2  0  0  0  0
 18 23  1  0  0  0  0
 19 14  1  0  0  0  0
 19  7  1  0  0  0  0
 20 19  2  0  0  0  0
 21 12  2  0  0  0  0
 22 12  1  0  0  0  0
 22 23  2  0  0  0  0
 24 27  1  0  0  0  0
 24 31  1  0  0  0  0
 25 28  1  0  0  0  0
 25 30  2  0  0  0  0
 28 24  2  0  0  0  0
 29 31  2  0  0  0  0
 29 26  1  0  0  0  0
 30 29  1  0  0  0  0
M  END
>  <MODEL>
9

>  <REMARK>
 VINA RESULT:      -8.6      4.540      9.282
  Name = 
  1 active torsions:
  status: ('A' for Active; 'I' for Inactive)
    1  A    between atoms: C_5  and  C_30
                            x       y       z     vdW  Elec       q    Type
                         _______ _______ _______ _____ _____    ______ ____

>  <TORSDO>
F 1

$$$$
