=
 OpenBabel11112416393D

 32 37  0  0  1  0  0  0  0  0999 V2000
  188.4850  176.2220  144.3130 C   0  0  0  0  0  0  0  0  0  0  0  0
  186.5490  178.6930  148.1440 C   0  0  0  0  0  3  0  0  0  0  0  0
  185.6330  179.3110  147.2920 C   0  0  0  0  0  3  0  0  0  0  0  0
  187.6540  176.5780  141.9590 C   0  0  0  0  0  0  0  0  0  0  0  0
  186.7020  177.1360  141.2120 C   0  0  0  0  0  0  0  0  0  0  0  0
  190.1890  174.4040  144.7890 C   0  0  2  0  0  3  0  0  0  0  0  0
  189.0220  175.5440  146.6940 C   0  0  0  0  0  2  0  0  0  0  0  0
  184.8780  178.4830  140.7610 N   0  0  0  0  0  0  0  0  0  0  0  0
  187.4530  177.7590  147.6350 C   0  0  0  0  0  3  0  0  0  0  0  0
  188.3790  176.4590  145.7420 N   0  0  0  0  0  0  0  0  0  0  0  0
  187.4530  177.4330  146.2660 C   0  0  0  0  0  0  0  0  0  0  0  0
  186.5490  177.7140  143.9790 C   0  0  0  0  0  0  0  0  0  0  0  0
  185.3720  177.9920  139.5180 N   0  0  0  0  0  0  0  0  0  0  0  0
  190.3560  175.0060  146.1840 C   0  0  2  0  0  3  0  0  0  0  0  0
  186.5520  177.1390  139.7610 C   0  0  0  0  0  3  0  0  0  0  0  0
  185.6250  178.9970  145.9320 C   0  0  0  0  0  3  0  0  0  0  0  0
  186.5340  178.0590  145.4120 C   0  0  0  0  0  0  0  0  0  0  0  0
  185.6410  178.2450  143.1440 C   0  0  0  0  0  3  0  0  0  0  0  0
  189.6680  175.4400  143.7980 C   0  0  0  0  0  2  0  0  0  0  0  0
  188.6460  175.8250  141.3380 O   0  0  0  0  0  1  0  0  0  0  0  0
  183.5340  177.9470  140.9190 C   0  0  0  0  0  1  0  0  0  0  0  0
  187.6110  176.7980  143.4460 C   0  0  0  0  0  0  0  0  0  0  0  0
  185.6820  177.9110  141.7540 N   0  0  0  0  0  0  0  0  0  0  0  0
  191.8620  176.3620  147.6300 C   0  0  0  0  0  2  0  0  0  0  0  0
  191.4260  176.0910  146.2040 C   0  0  1  0  0  3  0  0  0  0  0  0
  192.7230  175.5060  146.7250 C   0  0  1  0  0  3  0  0  0  0  0  0
  193.8360  176.2940  146.2260 N   0  0  0  0  0  2  0  0  0  0  0  0
  194.5310  175.9330  145.0340 C   0  0  0  0  0  0  0  0  0  0  0  0
  194.1530  174.8100  144.3080 O   0  0  0  0  0  0  0  0  0  0  0  0
  195.4940  176.6390  144.6350 O   0  0  0  0  0  1  0  0  0  0  0  0
  190.0850  172.2400  144.3360 C   0  0  0  0  0  1  0  0  0  0  0  0
  189.3290  173.3030  144.8330 O   0  0  0  0  0  0  0  0  0  0  0  0
  1 10  1  0  0  0  0
  3  2  2  0  0  0  0
  4 22  1  0  0  0  0
  5 23  1  0  0  0  0
  5  4  2  0  0  0  0
  6 32  1  1  0  0  0
  6 14  1  0  0  0  0
  8 21  1  0  0  0  0
  8 23  1  0  0  0  0
  9  2  1  0  0  0  0
 10 11  1  0  0  0  0
 10  7  1  0  0  0  0
 11  9  2  0  0  0  0
 12 17  1  0  0  0  0
 13 15  2  0  0  0  0
 13  8  1  0  0  0  0
 14 25  1  0  0  0  0
 14  7  1  6  0  0  0
 15  5  1  0  0  0  0
 16  3  1  0  0  0  0
 17 16  2  0  0  0  0
 17 11  1  0  0  0  0
 18 12  2  0  0  0  0
 19  1  1  0  0  0  0
 19  6  1  0  0  0  0
 20  4  1  0  0  0  0
 22 12  1  0  0  0  0
 22  1  2  0  0  0  0
 23 18  1  0  0  0  0
 25 26  1  0  0  0  0
 25 24  1  1  0  0  0
 26 27  1  6  0  0  0
 26 24  1  0  0  0  0
 28 27  1  0  0  0  0
 29 28  2  0  0  0  0
 30 28  1  0  0  0  0
 31 32  1  0  0  0  0
M  END
>  <MODEL>
1

>  <REMARK>
 VINA RESULT:      -8.6      0.000      0.000
  Name = 
  3 active torsions:
  status: ('A' for Active; 'I' for Inactive)
    1  A    between atoms: C_7  and  O_19
    2  A    between atoms: C_10  and  C_17
    3  A    between atoms: C_20  and  N_29
                            x       y       z     vdW  Elec       q    Type
                         _______ _______ _______ _____ _____    ______ ____

>  <TORSDO>
F 3

$$$$
=
 OpenBabel11112416393D

 32 37  0  0  1  0  0  0  0  0999 V2000
  189.0510  175.6270  143.4580 C   0  0  0  0  0  0  0  0  0  0  0  0
  191.7970  176.4120  147.5040 C   0  0  0  0  0  3  0  0  0  0  0  0
  190.8260  177.2800  148.0040 C   0  0  0  0  0  3  0  0  0  0  0  0
  186.8590  176.8210  143.1000 C   0  0  0  0  0  0  0  0  0  0  0  0
  185.9320  177.5930  143.6690 C   0  0  0  0  0  0  0  0  0  0  0  0
  189.7790  173.8120  141.8420 C   0  0  2  0  0  3  0  0  0  0  0  0
  191.0090  174.1150  144.0060 C   0  0  0  0  0  2  0  0  0  0  0  0
  185.0170  178.9580  145.2930 N   0  0  0  0  0  0  0  0  0  0  0  0
  191.5920  175.7650  146.2840 C   0  0  0  0  0  3  0  0  0  0  0  0
  190.1940  175.3030  144.2940 N   0  0  0  0  0  0  0  0  0  0  0  0
  190.4130  175.9800  145.5480 C   0  0  0  0  0  0  0  0  0  0  0  0
  188.2120  177.0780  145.2680 C   0  0  0  0  0  0  0  0  0  0  0  0
  184.1490  178.9860  144.1640 N   0  0  0  0  0  0  0  0  0  0  0  0
  191.1530  173.8480  142.5110 C   0  0  2  0  0  3  0  0  0  0  0  0
  184.7090  178.1380  143.0930 C   0  0  0  0  0  3  0  0  0  0  0  0
  189.6520  177.5020  147.2820 C   0  0  0  0  0  3  0  0  0  0  0  0
  189.4400  176.8560  146.0520 C   0  0  0  0  0  0  0  0  0  0  0  0
  187.2310  177.8590  145.7490 C   0  0  0  0  0  3  0  0  0  0  0  0
  189.0360  175.1300  142.0340 C   0  0  0  0  0  2  0  0  0  0  0  0
  186.6680  176.3860  141.7920 O   0  0  0  0  0  1  0  0  0  0  0  0
  184.2620  178.3640  146.3870 C   0  0  0  0  0  1  0  0  0  0  0  0
  188.0770  176.4620  143.9060 C   0  0  0  0  0  0  0  0  0  0  0  0
  186.0540  178.0760  144.9670 N   0  0  0  0  0  0  0  0  0  0  0  0
  193.3310  175.0390  142.6810 C   0  0  0  0  0  2  0  0  0  0  0  0
  192.0700  174.8750  141.8580 C   0  0  1  0  0  3  0  0  0  0  0  0
  193.3530  174.1960  141.4230 C   0  0  1  0  0  3  0  0  0  0  0  0
  193.9520  174.9560  140.3400 N   0  0  0  0  0  2  0  0  0  0  0  0
  195.2700  174.6760  139.8720 C   0  0  0  0  0  0  0  0  0  0  0  0
  196.0200  173.6540  140.4410 O   0  0  0  0  0  1  0  0  0  0  0  0
  195.7570  175.3580  138.9330 O   0  0  0  0  0  0  0  0  0  0  0  0
  187.8160  172.8110  141.6400 C   0  0  0  0  0  1  0  0  0  0  0  0
  189.0190  172.7520  142.3440 O   0  0  0  0  0  0  0  0  0  0  0  0
  1 22  2  0  0  0  0
  1 10  1  0  0  0  0
  2  3  1  0  0  0  0
  4  5  2  0  0  0  0
  4 22  1  0  0  0  0
  5 23  1  0  0  0  0
  6 19  1  0  0  0  0
  6 32  1  1  0  0  0
  6 14  1  0  0  0  0
  7 10  1  0  0  0  0
  8 21  1  0  0  0  0
  9  2  2  0  0  0  0
 10 11  1  0  0  0  0
 11 17  2  0  0  0  0
 11  9  1  0  0  0  0
 12 18  2  0  0  0  0
 12 17  1  0  0  0  0
 13  8  1  0  0  0  0
 14  7  1  1  0  0  0
 15  5  1  0  0  0  0
 15 13  2  0  0  0  0
 16  3  2  0  0  0  0
 17 16  1  0  0  0  0
 19  1  1  0  0  0  0
 20  4  1  0  0  0  0
 22 12  1  0  0  0  0
 23  8  1  0  0  0  0
 23 18  1  0  0  0  0
 25 14  1  0  0  0  0
 25 24  1  1  0  0  0
 26 27  1  6  0  0  0
 26 25  1  0  0  0  0
 26 24  1  0  0  0  0
 28 27  1  0  0  0  0
 28 29  1  0  0  0  0
 30 28  2  0  0  0  0
 31 32  1  0  0  0  0
M  END
>  <MODEL>
2

>  <REMARK>
 VINA RESULT:      -7.9      2.797      4.057
  Name = 
  3 active torsions:
  status: ('A' for Active; 'I' for Inactive)
    1  A    between atoms: C_7  and  O_19
    2  A    between atoms: C_10  and  C_17
    3  A    between atoms: C_20  and  N_29
                            x       y       z     vdW  Elec       q    Type
                         _______ _______ _______ _____ _____    ______ ____

>  <TORSDO>
F 3

$$$$
=
 OpenBabel11112416393D

 32 37  0  0  1  0  0  0  0  0999 V2000
  190.6620  175.7400  144.7850 C   0  0  0  0  0  0  0  0  0  0  0  0
  189.8970  173.7630  140.3090 C   0  0  0  0  0  3  0  0  0  0  0  0
  188.5790  174.2220  140.3230 C   0  0  0  0  0  3  0  0  0  0  0  0
  188.8130  176.8990  146.0480 C   0  0  0  0  0  0  0  0  0  0  0  0
  187.5730  177.3810  145.9660 C   0  0  0  0  0  0  0  0  0  0  0  0
  193.0280  175.7710  145.6990 C   0  0  2  0  0  3  0  0  0  0  0  0
  192.6110  174.9750  143.3590 C   0  0  0  0  0  2  0  0  0  0  0  0
  185.4970  177.7400  145.0160 N   0  0  0  0  0  0  0  0  0  0  0  0
  190.7460  174.0480  141.3800 C   0  0  0  0  0  3  0  0  0  0  0  0
  191.1650  175.0980  143.5820 N   0  0  0  0  0  0  0  0  0  0  0  0
  190.2850  174.7930  142.4810 C   0  0  0  0  0  0  0  0  0  0  0  0
  188.4870  176.0230  143.6560 C   0  0  0  0  0  0  0  0  0  0  0  0
  185.4590  178.2490  146.3470 N   0  0  0  0  0  0  0  0  0  0  0  0
  193.3870  174.7210  144.6480 C   0  0  2  0  0  3  0  0  0  0  0  0
  186.7650  178.0220  146.9970 C   0  0  0  0  0  3  0  0  0  0  0  0
  188.1110  174.9610  141.4100 C   0  0  0  0  0  3  0  0  0  0  0  0
  188.9590  175.2500  142.4940 C   0  0  0  0  0  0  0  0  0  0  0  0
  187.2440  176.5310  143.6740 C   0  0  0  0  0  3  0  0  0  0  0  0
  191.5360  175.7510  146.0140 C   0  0  0  0  0  2  0  0  0  0  0  0
  189.5190  177.0460  147.2380 O   0  0  0  0  0  1  0  0  0  0  0  0
  185.3020  178.8760  144.1280 C   0  0  0  0  0  1  0  0  0  0  0  0
  189.3880  176.2080  144.8420 C   0  0  0  0  0  0  0  0  0  0  0  0
  186.7990  177.2650  144.8170 N   0  0  0  0  0  0  0  0  0  0  0  0
  193.2320  172.3200  144.0130 C   0  0  0  0  0  2  0  0  0  0  0  0
  193.1480  173.3070  145.1600 C   0  0  1  0  0  3  0  0  0  0  0  0
  194.4030  172.4820  144.9590 C   0  0  1  0  0  3  0  0  0  0  0  0
  194.4130  171.3870  145.9130 N   0  0  0  0  0  2  0  0  0  0  0  0
  195.4520  170.4090  145.9170 C   0  0  0  0  0  0  0  0  0  0  0  0
  196.4970  170.4850  145.0040 O   0  0  0  0  0  0  0  0  0  0  0  0
  195.4240  169.4730  146.7560 O   0  0  0  0  0  1  0  0  0  0  0  0
  194.6210  177.2910  145.9260 C   0  0  0  0  0  1  0  0  0  0  0  0
  193.4140  177.0440  145.2700 O   0  0  0  0  0  0  0  0  0  0  0  0
  1 22  2  0  0  0  0
  1 19  1  0  0  0  0
  2  3  2  0  0  0  0
  2  9  1  0  0  0  0
  3 16  1  0  0  0  0
  4 20  1  0  0  0  0
  5  4  2  0  0  0  0
  5 15  1  0  0  0  0
  6 32  1  6  0  0  0
  6 19  1  0  0  0  0
  7 10  1  0  0  0  0
  8 13  1  0  0  0  0
  9 11  2  0  0  0  0
 10  1  1  0  0  0  0
 11 17  1  0  0  0  0
 11 10  1  0  0  0  0
 12 18  2  0  0  0  0
 12 22  1  0  0  0  0
 13 15  2  0  0  0  0
 14  7  1  6  0  0  0
 14 25  1  0  0  0  0
 14  6  1  0  0  0  0
 16 17  2  0  0  0  0
 17 12  1  0  0  0  0
 18 23  1  0  0  0  0
 21  8  1  0  0  0  0
 22  4  1  0  0  0  0
 23  8  1  0  0  0  0
 23  5  1  0  0  0  0
 24 26  1  0  0  0  0
 25 24  1  6  0  0  0
 26 25  1  0  0  0  0
 26 27  1  1  0  0  0
 27 28  1  0  0  0  0
 28 30  1  0  0  0  0
 29 28  2  0  0  0  0
 32 31  1  0  0  0  0
M  END
>  <MODEL>
3

>  <REMARK>
 VINA RESULT:      -7.7      2.939      5.387
  Name = 
  3 active torsions:
  status: ('A' for Active; 'I' for Inactive)
    1  A    between atoms: C_7  and  O_19
    2  A    between atoms: C_10  and  C_17
    3  A    between atoms: C_20  and  N_29
                            x       y       z     vdW  Elec       q    Type
                         _______ _______ _______ _____ _____    ______ ____

>  <TORSDO>
F 3

$$$$
=
 OpenBabel11112416393D

 32 37  0  0  1  0  0  0  0  0999 V2000
  191.6120  175.7020  144.9410 C   0  0  0  0  0  0  0  0  0  0  0  0
  189.3440  171.9180  142.6890 C   0  0  0  0  0  3  0  0  0  0  0  0
  190.5290  171.5890  142.0310 C   0  0  0  0  0  3  0  0  0  0  0  0
  194.0230  176.2660  144.4640 C   0  0  0  0  0  0  0  0  0  0  0  0
  195.1430  175.8510  143.8720 C   0  0  0  0  0  0  0  0  0  0  0  0
  190.3640  176.9360  146.7730 C   0  0  2  0  0  3  0  0  0  0  0  0
  189.3510  174.8860  145.7420 C   0  0  0  0  0  2  0  0  0  0  0  0
  196.4540  174.5180  142.5130 N   0  0  0  0  0  0  0  0  0  0  0  0
  189.3200  172.9840  143.5900 C   0  0  0  0  0  3  0  0  0  0  0  0
  190.4600  174.8300  144.7810 N   0  0  0  0  0  0  0  0  0  0  0  0
  190.4820  173.7360  143.8420 C   0  0  0  0  0  0  0  0  0  0  0  0
  192.8790  174.2050  143.4440 C   0  0  0  0  0  0  0  0  0  0  0  0
  197.2490  175.6230  142.9340 N   0  0  0  0  0  0  0  0  0  0  0  0
  189.0780  176.3010  146.2450 C   0  0  2  0  0  3  0  0  0  0  0  0
  196.4410  176.5110  143.7930 C   0  0  0  0  0  3  0  0  0  0  0  0
  191.6880  172.3290  142.2720 C   0  0  0  0  0  3  0  0  0  0  0  0
  191.6710  173.4050  143.1760 C   0  0  0  0  0  0  0  0  0  0  0  0
  194.0510  173.8770  142.8740 C   0  0  0  0  0  3  0  0  0  0  0  0
  191.4350  177.0000  145.6880 C   0  0  0  0  0  2  0  0  0  0  0  0
  194.0370  177.4600  145.1770 O   0  0  0  0  0  1  0  0  0  0  0  0
  197.0720  173.3220  143.0640 C   0  0  0  0  0  1  0  0  0  0  0  0
  192.7890  175.4170  144.3240 C   0  0  0  0  0  0  0  0  0  0  0  0
  195.2080  174.6750  143.1330 N   0  0  0  0  0  0  0  0  0  0  0  0
  187.2860  176.3970  144.5200 C   0  0  0  0  0  2  0  0  0  0  0  0
  188.4360  177.1520  145.1570 C   0  0  1  0  0  3  0  0  0  0  0  0
  187.0070  177.4730  145.5490 C   0  0  1  0  0  3  0  0  0  0  0  0
  186.5900  178.6910  144.8780 N   0  0  0  0  0  2  0  0  0  0  0  0
  185.2240  179.1020  144.8580 C   0  0  0  0  0  0  0  0  0  0  0  0
  184.2490  178.3430  145.4950 O   0  0  0  0  0  1  0  0  0  0  0  0
  184.8990  180.1610  144.2630 O   0  0  0  0  0  0  0  0  0  0  0  0
  191.5660  177.1630  148.6170 C   0  0  0  0  0  1  0  0  0  0  0  0
  190.8400  176.2270  147.8790 O   0  0  0  0  0  0  0  0  0  0  0  0
  1 19  1  0  0  0  0
  2  9  1  0  0  0  0
  3 16  1  0  0  0  0
  3  2  2  0  0  0  0
  4 20  1  0  0  0  0
  5  4  2  0  0  0  0
  6 32  1  1  0  0  0
  8 13  1  0  0  0  0
  8 21  1  0  0  0  0
  8 23  1  0  0  0  0
  9 11  2  0  0  0  0
 10  1  1  0  0  0  0
 10  7  1  0  0  0  0
 11 10  1  0  0  0  0
 12 22  1  0  0  0  0
 13 15  2  0  0  0  0
 14  7  1  6  0  0  0
 14  6  1  0  0  0  0
 15  5  1  0  0  0  0
 16 17  2  0  0  0  0
 17 12  1  0  0  0  0
 17 11  1  0  0  0  0
 18 23  1  0  0  0  0
 18 12  2  0  0  0  0
 19  6  1  0  0  0  0
 22  4  1  0  0  0  0
 22  1  2  0  0  0  0
 23  5  1  0  0  0  0
 24 26  1  0  0  0  0
 25 24  1  6  0  0  0
 25 26  1  0  0  0  0
 25 14  1  0  0  0  0
 26 27  1  6  0  0  0
 28 27  1  0  0  0  0
 28 29  1  0  0  0  0
 30 28  2  0  0  0  0
 32 31  1  0  0  0  0
M  END
>  <MODEL>
4

>  <REMARK>
 VINA RESULT:      -7.6      2.903      8.058
  Name = 
  3 active torsions:
  status: ('A' for Active; 'I' for Inactive)
    1  A    between atoms: C_7  and  O_19
    2  A    between atoms: C_10  and  C_17
    3  A    between atoms: C_20  and  N_29
                            x       y       z     vdW  Elec       q    Type
                         _______ _______ _______ _____ _____    ______ ____

>  <TORSDO>
F 3

$$$$
=
 OpenBabel11112416393D

 32 37  0  0  1  0  0  0  0  0999 V2000
  191.6610  175.6580  143.9540 C   0  0  0  0  0  0  0  0  0  0  0  0
  189.5270  173.2830  140.1680 C   0  0  0  0  0  3  0  0  0  0  0  0
  190.7590  173.1920  139.5200 C   0  0  0  0  0  3  0  0  0  0  0  0
  194.1160  176.2340  143.9330 C   0  0  0  0  0  0  0  0  0  0  0  0
  195.2760  176.0410  143.3050 C   0  0  0  0  0  0  0  0  0  0  0  0
  190.2800  176.0860  146.0390 C   0  0  2  0  0  3  0  0  0  0  0  0
  189.3220  174.7100  144.1750 C   0  0  0  0  0  2  0  0  0  0  0  0
  196.6750  175.3230  141.6120 N   0  0  0  0  0  0  0  0  0  0  0  0
  189.4440  173.8780  141.4280 C   0  0  0  0  0  3  0  0  0  0  0  0
  190.5110  174.9960  143.3620 N   0  0  0  0  0  0  0  0  0  0  0  0
  190.5940  174.3920  142.0550 C   0  0  0  0  0  0  0  0  0  0  0  0
  193.0260  174.8500  142.0650 C   0  0  0  0  0  0  0  0  0  0  0  0
  197.4520  176.1060  142.5130 N   0  0  0  0  0  0  0  0  0  0  0  0
  189.0340  175.8010  145.2020 C   0  0  2  0  0  3  0  0  0  0  0  0
  196.5880  176.6010  143.6040 C   0  0  0  0  0  3  0  0  0  0  0  0
  191.9070  173.6990  140.1320 C   0  0  0  0  0  3  0  0  0  0  0  0
  191.8310  174.3020  141.4000 C   0  0  0  0  0  0  0  0  0  0  0  0
  194.2370  174.7240  141.4970 C   0  0  0  0  0  3  0  0  0  0  0  0
  191.4440  176.5350  145.1610 C   0  0  0  0  0  2  0  0  0  0  0  0
  194.0910  177.0220  145.0800 O   0  0  0  0  0  1  0  0  0  0  0  0
  197.2180  173.9730  141.6550 C   0  0  0  0  0  1  0  0  0  0  0  0
  192.8830  175.5900  143.3620 C   0  0  0  0  0  0  0  0  0  0  0  0
  195.3830  175.2770  142.1490 N   0  0  0  0  0  0  0  0  0  0  0  0
  187.4700  176.6960  143.4850 C   0  0  0  0  0  2  0  0  0  0  0  0
  188.5080  177.0610  144.5270 C   0  0  1  0  0  3  0  0  0  0  0  0
  187.0330  177.2180  144.8380 C   0  0  1  0  0  3  0  0  0  0  0  0
  186.6680  178.6190  144.7220 N   0  0  0  0  0  2  0  0  0  0  0  0
  185.3700  179.0180  144.2820 C   0  0  0  0  0  0  0  0  0  0  0  0
  184.4110  178.0670  143.9570 O   0  0  0  0  0  0  0  0  0  0  0  0
  185.0920  180.2410  144.1910 O   0  0  0  0  0  1  0  0  0  0  0  0
  191.1630  175.4630  147.9700 C   0  0  0  0  0  1  0  0  0  0  0  0
  190.6410  174.9570  146.7780 O   0  0  0  0  0  0  0  0  0  0  0  0
  1 19  1  0  0  0  0
  2  9  1  0  0  0  0
  3 16  1  0  0  0  0
  3  2  2  0  0  0  0
  4 20  1  0  0  0  0
  5 15  1  0  0  0  0
  5  4  2  0  0  0  0
  6 32  1  6  0  0  0
  8 21  1  0  0  0  0
  8 23  1  0  0  0  0
  8 13  1  0  0  0  0
  9 11  2  0  0  0  0
 10  1  1  0  0  0  0
 10  7  1  0  0  0  0
 11 10  1  0  0  0  0
 12 22  1  0  0  0  0
 13 15  2  0  0  0  0
 14  7  1  6  0  0  0
 14  6  1  0  0  0  0
 16 17  2  0  0  0  0
 17 11  1  0  0  0  0
 17 12  1  0  0  0  0
 18 12  2  0  0  0  0
 18 23  1  0  0  0  0
 19  6  1  0  0  0  0
 22  4  1  0  0  0  0
 22  1  2  0  0  0  0
 23  5  1  0  0  0  0
 24 26  1  0  0  0  0
 25 24  1  6  0  0  0
 25 26  1  0  0  0  0
 25 14  1  0  0  0  0
 26 27  1  6  0  0  0
 28 27  1  0  0  0  0
 29 28  2  0  0  0  0
 30 28  1  0  0  0  0
 32 31  1  0  0  0  0
M  END
>  <MODEL>
5

>  <REMARK>
 VINA RESULT:      -7.5      3.295      8.092
  Name = 
  3 active torsions:
  status: ('A' for Active; 'I' for Inactive)
    1  A    between atoms: C_7  and  O_19
    2  A    between atoms: C_10  and  C_17
    3  A    between atoms: C_20  and  N_29
                            x       y       z     vdW  Elec       q    Type
                         _______ _______ _______ _____ _____    ______ ____

>  <TORSDO>
F 3

$$$$
=
 OpenBabel11112416393D

 32 37  0  0  1  0  0  0  0  0999 V2000
  190.0130  175.5940  143.6890 C   0  0  0  0  0  0  0  0  0  0  0  0
  191.3160  177.0100  148.2530 C   0  0  0  0  0  3  0  0  0  0  0  0
  190.2090  177.8570  148.3150 C   0  0  0  0  0  3  0  0  0  0  0  0
  188.0080  176.5840  142.5240 C   0  0  0  0  0  0  0  0  0  0  0  0
  186.9250  177.3460  142.6760 C   0  0  0  0  0  0  0  0  0  0  0  0
  191.2720  173.6690  142.6200 C   0  0  2  0  0  3  0  0  0  0  0  0
  191.7460  174.2930  145.0020 C   0  0  0  0  0  2  0  0  0  0  0  0
  185.5000  178.8130  143.7520 N   0  0  0  0  0  0  0  0  0  0  0  0
  191.5270  176.2200  147.1210 C   0  0  0  0  0  3  0  0  0  0  0  0
  190.8440  175.4450  144.8720 N   0  0  0  0  0  0  0  0  0  0  0  0
  190.6340  176.2700  146.0360 C   0  0  0  0  0  0  0  0  0  0  0  0
  188.5990  177.1720  144.9530 C   0  0  0  0  0  0  0  0  0  0  0  0
  185.0320  178.6560  142.4160 N   0  0  0  0  0  0  0  0  0  0  0  0
  192.3630  173.8750  143.6710 C   0  0  2  0  0  3  0  0  0  0  0  0
  185.9280  177.7380  141.6870 C   0  0  0  0  0  3  0  0  0  0  0  0
  189.3160  177.9160  147.2430 C   0  0  0  0  0  3  0  0  0  0  0  0
  189.5230  177.1250  146.0990 C   0  0  0  0  0  0  0  0  0  0  0  0
  187.4910  177.9300  145.0050 C   0  0  0  0  0  3  0  0  0  0  0  0
  190.4640  174.9440  142.4050 C   0  0  0  0  0  2  0  0  0  0  0  0
  188.2530  175.9960  141.2870 O   0  0  0  0  0  1  0  0  0  0  0  0
  184.4580  178.2910  144.6250 C   0  0  0  0  0  1  0  0  0  0  0  0
  188.9200  176.4020  143.7060 C   0  0  0  0  0  0  0  0  0  0  0  0
  186.6150  177.9760  143.8770 N   0  0  0  0  0  0  0  0  0  0  0  0
  194.1590  175.4340  144.4040 C   0  0  0  0  0  2  0  0  0  0  0  0
  193.4050  174.8860  143.2090 C   0  0  1  0  0  3  0  0  0  0  0  0
  194.7890  174.3640  143.5370 C   0  0  1  0  0  3  0  0  0  0  0  0
  195.7540  174.9730  142.6390 N   0  0  0  0  0  2  0  0  0  0  0  0
  197.1230  175.1290  143.0090 C   0  0  0  0  0  0  0  0  0  0  0  0
  197.5750  174.6900  144.2470 O   0  0  0  0  0  1  0  0  0  0  0  0
  197.9290  175.6650  142.2050 O   0  0  0  0  0  0  0  0  0  0  0  0
  189.6570  172.3620  141.8580 C   0  0  0  0  0  1  0  0  0  0  0  0
  190.4280  172.6190  142.9930 O   0  0  0  0  0  0  0  0  0  0  0  0
  1 22  2  0  0  0  0
  1 10  1  0  0  0  0
  2  3  1  0  0  0  0
  4  5  2  0  0  0  0
  4 22  1  0  0  0  0
  5 23  1  0  0  0  0
  6 32  1  1  0  0  0
  6 14  1  0  0  0  0
  8 23  1  0  0  0  0
  8 21  1  0  0  0  0
  9  2  2  0  0  0  0
 10  7  1  0  0  0  0
 10 11  1  0  0  0  0
 11 17  2  0  0  0  0
 11  9  1  0  0  0  0
 12 18  2  0  0  0  0
 12 17  1  0  0  0  0
 13  8  1  0  0  0  0
 14  7  1  1  0  0  0
 15 13  2  0  0  0  0
 15  5  1  0  0  0  0
 16  3  2  0  0  0  0
 17 16  1  0  0  0  0
 19  6  1  0  0  0  0
 19  1  1  0  0  0  0
 20  4  1  0  0  0  0
 22 12  1  0  0  0  0
 23 18  1  0  0  0  0
 25 26  1  0  0  0  0
 25 14  1  0  0  0  0
 25 24  1  1  0  0  0
 26 27  1  6  0  0  0
 26 24  1  0  0  0  0
 27 28  1  0  0  0  0
 28 29  1  0  0  0  0
 30 28  2  0  0  0  0
 31 32  1  0  0  0  0
M  END
>  <MODEL>
6

>  <REMARK>
 VINA RESULT:      -7.5      2.056      3.179
  Name = 
  3 active torsions:
  status: ('A' for Active; 'I' for Inactive)
    1  A    between atoms: C_7  and  O_19
    2  A    between atoms: C_10  and  C_17
    3  A    between atoms: C_20  and  N_29
                            x       y       z     vdW  Elec       q    Type
                         _______ _______ _______ _____ _____    ______ ____

>  <TORSDO>
F 3

$$$$
=
 OpenBabel11112416393D

 32 37  0  0  1  0  0  0  0  0999 V2000
  189.4900  175.0630  143.1150 C   0  0  0  0  0  0  0  0  0  0  0  0
  192.3380  175.3550  147.1560 C   0  0  0  0  0  3  0  0  0  0  0  0
  191.3750  176.1420  147.7880 C   0  0  0  0  0  3  0  0  0  0  0  0
  187.2810  176.2710  142.9690 C   0  0  0  0  0  0  0  0  0  0  0  0
  186.3650  176.9540  143.6550 C   0  0  0  0  0  0  0  0  0  0  0  0
  190.1860  173.4760  141.2630 C   0  0  2  0  0  3  0  0  0  0  0  0
  191.4710  173.5140  143.4150 C   0  0  0  0  0  2  0  0  0  0  0  0
  185.4840  178.0920  145.4640 N   0  0  0  0  0  0  0  0  0  0  0  0
  192.1050  174.8660  145.8700 C   0  0  0  0  0  3  0  0  0  0  0  0
  190.6570  174.6470  143.8730 N   0  0  0  0  0  0  0  0  0  0  0  0
  190.9050  175.1610  145.1980 C   0  0  0  0  0  0  0  0  0  0  0  0
  188.6900  176.2640  145.1160 C   0  0  0  0  0  0  0  0  0  0  0  0
  184.5860  178.2560  144.3700 N   0  0  0  0  0  0  0  0  0  0  0  0
  191.5770  173.4400  141.8950 C   0  0  2  0  0  3  0  0  0  0  0  0
  185.1230  177.5560  143.1850 C   0  0  0  0  0  3  0  0  0  0  0  0
  190.1810  176.4430  147.1310 C   0  0  0  0  0  3  0  0  0  0  0  0
  189.9390  175.9560  145.8340 C   0  0  0  0  0  0  0  0  0  0  0  0
  187.7170  176.9670  145.7180 C   0  0  0  0  0  3  0  0  0  0  0  0
  189.4400  174.7510  141.6400 C   0  0  0  0  0  2  0  0  0  0  0  0
  187.0580  176.0040  141.6220 O   0  0  0  0  0  1  0  0  0  0  0  0
  184.7630  177.3560  146.4910 C   0  0  0  0  0  1  0  0  0  0  0  0
  188.5230  175.8240  143.6920 C   0  0  0  0  0  0  0  0  0  0  0  0
  186.5180  177.2700  145.0010 N   0  0  0  0  0  0  0  0  0  0  0  0
  193.7470  174.6280  142.1660 C   0  0  0  0  0  2  0  0  0  0  0  0
  192.4690  174.5510  141.3550 C   0  0  1  0  0  3  0  0  0  0  0  0
  193.7500  173.9470  140.8140 C   0  0  1  0  0  3  0  0  0  0  0  0
  194.3160  174.8420  139.8200 N   0  0  0  0  0  2  0  0  0  0  0  0
  195.0570  174.3470  138.7060 C   0  0  0  0  0  0  0  0  0  0  0  0
  195.2510  172.9810  138.5370 O   0  0  0  0  0  1  0  0  0  0  0  0
  195.5360  175.1530  137.8680 O   0  0  0  0  0  0  0  0  0  0  0  0
  190.1890  171.2640  141.1830 C   0  0  0  0  0  1  0  0  0  0  0  0
  189.4480  172.3530  141.6450 O   0  0  0  0  0  0  0  0  0  0  0  0
  1 22  2  0  0  0  0
  1 10  1  0  0  0  0
  2  3  1  0  0  0  0
  4  5  2  0  0  0  0
  4 22  1  0  0  0  0
  5 23  1  0  0  0  0
  6 19  1  0  0  0  0
  6 32  1  1  0  0  0
  6 14  1  0  0  0  0
  7 10  1  0  0  0  0
  8 21  1  0  0  0  0
  9  2  2  0  0  0  0
 10 11  1  0  0  0  0
 11 17  2  0  0  0  0
 11  9  1  0  0  0  0
 12 18  2  0  0  0  0
 12 17  1  0  0  0  0
 13  8  1  0  0  0  0
 14  7  1  1  0  0  0
 15  5  1  0  0  0  0
 15 13  2  0  0  0  0
 16  3  2  0  0  0  0
 17 16  1  0  0  0  0
 19  1  1  0  0  0  0
 20  4  1  0  0  0  0
 22 12  1  0  0  0  0
 23  8  1  0  0  0  0
 23 18  1  0  0  0  0
 25 14  1  0  0  0  0
 25 24  1  1  0  0  0
 26 27  1  6  0  0  0
 26 25  1  0  0  0  0
 26 24  1  0  0  0  0
 28 27  1  0  0  0  0
 29 28  1  0  0  0  0
 30 28  2  0  0  0  0
 31 32  1  0  0  0  0
M  END
>  <MODEL>
7

>  <REMARK>
 VINA RESULT:      -7.3      3.165      4.664
  Name = 
  3 active torsions:
  status: ('A' for Active; 'I' for Inactive)
    1  A    between atoms: C_7  and  O_19
    2  A    between atoms: C_10  and  C_17
    3  A    between atoms: C_20  and  N_29
                            x       y       z     vdW  Elec       q    Type
                         _______ _______ _______ _____ _____    ______ ____

>  <TORSDO>
F 3

$$$$
=
 OpenBabel11112416393D

 32 37  0  0  1  0  0  0  0  0999 V2000
  190.7590  173.9090  143.6340 C   0  0  0  0  0  0  0  0  0  0  0  0
  193.8620  176.7980  146.1950 C   0  0  0  0  0  3  0  0  0  0  0  0
  194.7460  175.7290  146.3450 C   0  0  0  0  0  3  0  0  0  0  0  0
  191.2450  171.4640  143.2530 C   0  0  0  0  0  0  0  0  0  0  0  0
  192.1670  170.5070  143.3570 C   0  0  0  0  0  0  0  0  0  0  0  0
  188.7630  174.9920  142.5030 C   0  0  2  0  0  3  0  0  0  0  0  0
  190.4780  176.4270  143.6360 C   0  0  0  0  0  2  0  0  0  0  0  0
  194.1640  169.5510  144.0180 N   0  0  0  0  0  0  0  0  0  0  0  0
  192.6820  176.6300  145.4670 C   0  0  0  0  0  3  0  0  0  0  0  0
  191.1590  175.2190  144.1190 N   0  0  0  0  0  0  0  0  0  0  0  0
  192.3720  175.3890  144.8820 C   0  0  0  0  0  0  0  0  0  0  0  0
  192.9200  173.0200  144.4230 C   0  0  0  0  0  0  0  0  0  0  0  0
  193.3630  168.5250  143.4410 N   0  0  0  0  0  0  0  0  0  0  0  0
  188.9870  176.2080  143.4000 C   0  0  2  0  0  3  0  0  0  0  0  0
  192.0660  169.0920  143.0200 C   0  0  0  0  0  3  0  0  0  0  0  0
  194.4480  174.4920  145.7690 C   0  0  0  0  0  3  0  0  0  0  0  0
  193.2610  174.3160  145.0360 C   0  0  0  0  0  0  0  0  0  0  0  0
  193.7770  171.9880  144.4960 C   0  0  0  0  0  3  0  0  0  0  0  0
  189.3510  173.7290  143.1250 C   0  0  0  0  0  2  0  0  0  0  0  0
  190.0080  171.1550  142.6970 O   0  0  0  0  0  1  0  0  0  0  0  0
  195.3400  169.6900  143.1720 C   0  0  0  0  0  1  0  0  0  0  0  0
  191.5900  172.8410  143.7520 C   0  0  0  0  0  0  0  0  0  0  0  0
  193.4220  170.7340  143.9100 N   0  0  0  0  0  0  0  0  0  0  0  0
  188.7260  177.1300  145.6970 C   0  0  0  0  0  2  0  0  0  0  0  0
  188.2380  176.0790  144.7210 C   0  0  1  0  0  3  0  0  0  0  0  0
  187.4190  177.3320  144.9580 C   0  0  1  0  0  3  0  0  0  0  0  0
  186.3090  177.0160  145.8390 N   0  0  0  0  0  2  0  0  0  0  0  0
  185.1920  177.8930  145.9750 C   0  0  0  0  0  0  0  0  0  0  0  0
  185.1330  179.0790  145.2540 O   0  0  0  0  0  0  0  0  0  0  0  0
  184.2500  177.5880  146.7510 O   0  0  0  0  0  1  0  0  0  0  0  0
  188.7750  174.2070  140.4330 C   0  0  0  0  0  1  0  0  0  0  0  0
  189.3180  175.2100  141.2380 O   0  0  0  0  0  0  0  0  0  0  0  0
  1 22  2  0  0  0  0
  1 10  1  0  0  0  0
  2  3  1  0  0  0  0
  4  5  2  0  0  0  0
  4 22  1  0  0  0  0
  5 23  1  0  0  0  0
  6 32  1  6  0  0  0
  6 19  1  0  0  0  0
  6 14  1  0  0  0  0
  7 10  1  0  0  0  0
  9  2  2  0  0  0  0
 10 11  1  0  0  0  0
 11 17  2  0  0  0  0
 11  9  1  0  0  0  0
 12 18  2  0  0  0  0
 12 17  1  0  0  0  0
 13  8  1  0  0  0  0
 14  7  1  1  0  0  0
 14 25  1  0  0  0  0
 15  5  1  0  0  0  0
 15 13  2  0  0  0  0
 16  3  2  0  0  0  0
 17 16  1  0  0  0  0
 19  1  1  0  0  0  0
 20  4  1  0  0  0  0
 21  8  1  0  0  0  0
 22 12  1  0  0  0  0
 23  8  1  0  0  0  0
 23 18  1  0  0  0  0
 25 26  1  0  0  0  0
 25 24  1  1  0  0  0
 26 24  1  0  0  0  0
 26 27  1  1  0  0  0
 27 28  1  0  0  0  0
 28 30  1  0  0  0  0
 29 28  2  0  0  0  0
 31 32  1  0  0  0  0
M  END
>  <MODEL>
8

>  <REMARK>
 VINA RESULT:      -7.1      3.527      7.989
  Name = 
  3 active torsions:
  status: ('A' for Active; 'I' for Inactive)
    1  A    between atoms: C_7  and  O_19
    2  A    between atoms: C_10  and  C_17
    3  A    between atoms: C_20  and  N_29
                            x       y       z     vdW  Elec       q    Type
                         _______ _______ _______ _____ _____    ______ ____

>  <TORSDO>
F 3

$$$$
=
 OpenBabel11112416393D

 32 37  0  0  1  0  0  0  0  0999 V2000
  189.3100  175.3270  141.9980 C   0  0  0  0  0  0  0  0  0  0  0  0
  193.0570  177.1570  144.6710 C   0  0  0  0  0  3  0  0  0  0  0  0
  193.8580  176.0750  144.3040 C   0  0  0  0  0  3  0  0  0  0  0  0
  189.5080  173.1240  140.7860 C   0  0  0  0  0  0  0  0  0  0  0  0
  190.3470  172.1610  140.4040 C   0  0  0  0  0  0  0  0  0  0  0  0
  187.2460  176.7660  141.6740 C   0  0  2  0  0  3  0  0  0  0  0  0
  189.2530  177.7150  142.8390 C   0  0  0  0  0  2  0  0  0  0  0  0
  192.3400  170.9940  140.3300 N   0  0  0  0  0  0  0  0  0  0  0  0
  191.7560  177.2620  144.1740 C   0  0  0  0  0  3  0  0  0  0  0  0
  189.9020  176.3990  142.7790 N   0  0  0  0  0  0  0  0  0  0  0  0
  191.2410  176.2850  143.3030 C   0  0  0  0  0  0  0  0  0  0  0  0
  191.4920  174.1760  142.0310 C   0  0  0  0  0  0  0  0  0  0  0  0
  191.3630  170.2290  139.6300 N   0  0  0  0  0  0  0  0  0  0  0  0
  187.7300  177.6220  142.8440 C   0  0  2  0  0  3  0  0  0  0  0  0
  190.0670  170.9340  139.6700 C   0  0  0  0  0  3  0  0  0  0  0  0
  193.3560  175.0980  143.4420 C   0  0  0  0  0  3  0  0  0  0  0  0
  192.0470  175.1970  142.9380 C   0  0  0  0  0  0  0  0  0  0  0  0
  192.2560  173.1550  141.6090 C   0  0  0  0  0  3  0  0  0  0  0  0
  187.8240  175.3560  141.7450 C   0  0  0  0  0  2  0  0  0  0  0  0
  188.1690  173.0410  140.4150 O   0  0  0  0  0  1  0  0  0  0  0  0
  193.3550  171.3690  139.3560 C   0  0  0  0  0  1  0  0  0  0  0  0
  190.0540  174.2570  141.6120 C   0  0  0  0  0  0  0  0  0  0  0  0
  191.6960  172.1660  140.7430 N   0  0  0  0  0  0  0  0  0  0  0  0
  188.1340  177.5440  145.2990 C   0  0  0  0  0  2  0  0  0  0  0  0
  187.2200  177.0920  144.1780 C   0  0  1  0  0  3  0  0  0  0  0  0
  186.8200  178.2570  145.0610 C   0  0  1  0  0  3  0  0  0  0  0  0
  185.8400  177.8060  146.0320 N   0  0  0  0  0  2  0  0  0  0  0  0
  184.5120  178.3290  146.0520 C   0  0  0  0  0  0  0  0  0  0  0  0
  184.1180  179.2880  145.1270 O   0  0  0  0  0  0  0  0  0  0  0  0
  183.6920  177.9160  146.9110 O   0  0  0  0  0  1  0  0  0  0  0  0
  186.3680  177.5410  139.7970 C   0  0  0  0  0  1  0  0  0  0  0  0
  187.5840  177.3660  140.4580 O   0  0  0  0  0  0  0  0  0  0  0  0
  1 10  1  0  0  0  0
  3  2  1  0  0  0  0
  4 22  1  0  0  0  0
  5 23  1  0  0  0  0
  5  4  2  0  0  0  0
  6 32  1  6  0  0  0
  6 19  1  0  0  0  0
  6 14  1  0  0  0  0
  8 23  1  0  0  0  0
  9  2  2  0  0  0  0
 10  7  1  0  0  0  0
 10 11  1  0  0  0  0
 11  9  1  0  0  0  0
 12 17  1  0  0  0  0
 13 15  2  0  0  0  0
 13  8  1  0  0  0  0
 14  7  1  1  0  0  0
 14 25  1  0  0  0  0
 15  5  1  0  0  0  0
 16  3  2  0  0  0  0
 17 11  2  0  0  0  0
 17 16  1  0  0  0  0
 18 12  2  0  0  0  0
 19  1  1  0  0  0  0
 20  4  1  0  0  0  0
 21  8  1  0  0  0  0
 22  1  2  0  0  0  0
 22 12  1  0  0  0  0
 23 18  1  0  0  0  0
 25 26  1  0  0  0  0
 25 24  1  1  0  0  0
 26 24  1  0  0  0  0
 26 27  1  1  0  0  0
 27 28  1  0  0  0  0
 28 30  1  0  0  0  0
 29 28  2  0  0  0  0
 31 32  1  0  0  0  0
M  END
>  <MODEL>
9

>  <REMARK>
 VINA RESULT:      -7.1      3.931      7.318
  Name = 
  3 active torsions:
  status: ('A' for Active; 'I' for Inactive)
    1  A    between atoms: C_7  and  O_19
    2  A    between atoms: C_10  and  C_17
    3  A    between atoms: C_20  and  N_29
                            x       y       z     vdW  Elec       q    Type
                         _______ _______ _______ _____ _____    ______ ____

>  <TORSDO>
F 3

$$$$
