=
 OpenBabel11112416253D

 30 35  0  0  1  0  0  0  0  0999 V2000
  189.8750  176.1240  142.8690 C   0  0  0  0  0  0  0  0  0  0  0  0
  192.2610  175.4350  142.7240 C   0  0  0  0  0  0  0  0  0  0  0  0
  189.9610  176.2650  146.4820 N   0  0  0  0  0  2  0  0  0  0  0  0
  188.7200  176.7740  143.5650 C   0  0  2  0  0  3  0  0  0  0  0  0
  189.5820  175.4840  141.6590 O   0  0  0  0  0  0  0  0  0  0  0  0
  187.1550  177.1730  140.2540 O   0  0  0  0  0  1  0  0  0  0  0  0
  185.8480  177.5600  144.1860 C   0  0  1  0  0  3  0  0  0  0  0  0
  187.3250  176.4960  141.4610 C   0  0  1  0  0  3  0  0  0  0  0  0
  186.5480  176.7800  145.3090 C   0  0  2  0  0  3  0  0  0  0  0  0
  188.5770  176.3980  146.7490 C   0  0  0  0  0  0  0  0  0  0  0  0
  188.2300  175.2670  141.2310 C   0  0  2  0  0  3  0  0  0  0  0  0
  187.8440  177.4760  142.5340 C   0  0  1  0  0  3  0  0  0  0  0  0
  193.5890  175.3830  143.4200 C   0  0  0  0  0  2  0  0  0  0  0  0
  185.5130  176.7600  146.4120 C   0  0  0  0  0  2  0  0  0  0  0  0
  184.8920  178.4570  144.8140 N   0  0  0  0  0  2  0  0  0  0  0  0
  192.1340  174.8560  141.6120 O   0  0  0  0  0  0  0  0  0  0  0  0
  190.2880  177.2940  145.5140 C   0  0  2  0  0  3  0  0  0  0  0  0
  193.6600  176.4430  144.5210 C   0  0  0  0  0  2  0  0  0  0  0  0
  191.1170  176.1170  143.3840 C   0  0  0  0  0  0  0  0  0  0  0  0
  188.9830  177.6500  144.7960 C   0  0  2  0  0  3  0  0  0  0  0  0
  188.0140  175.7660  147.6810 O   0  0  0  0  0  0  0  0  0  0  0  0
  187.8810  177.3710  145.8530 C   0  0  1  0  0  3  0  0  0  0  0  0
  184.4450  177.7630  146.0130 C   0  0  0  0  0  2  0  0  0  0  0  0
  185.9560  178.9560  142.2210 O   0  0  0  0  0  1  0  0  0  0  0  0
  192.5180  176.3620  145.3360 O   0  0  0  0  0  0  0  0  0  0  0  0
  191.4660  176.9460  144.6020 C   0  0  2  0  0  3  0  0  0  0  0  0
  186.7370  178.3240  143.1910 C   0  0  1  0  0  3  0  0  0  0  0  0
  187.6400  174.0640  141.9500 C   0  0  0  0  0  2  0  0  0  0  0  0
  188.8390  172.3270  142.5860 C   0  0  0  0  0  1  0  0  0  0  0  0
  188.2230  172.8920  141.4700 O   0  0  0  0  0  0  0  0  0  0  0  0
  1 19  2  0  0  0  0
  2 19  1  0  0  0  0
  2 13  1  0  0  0  0
  3 10  1  0  0  0  0
  4  1  1  6  0  0  0
  4 20  1  0  0  0  0
  5  1  1  0  0  0  0
  7 15  1  1  0  0  0
  7  9  1  0  0  0  0
  8  6  1  6  0  0  0
  8 12  1  0  0  0  0
  9 22  1  0  0  0  0
  9 14  1  1  0  0  0
 10 21  2  0  0  0  0
 11  8  1  0  0  0  0
 11  5  1  0  0  0  0
 11 28  1  1  0  0  0
 12 27  1  0  0  0  0
 12  4  1  0  0  0  0
 13 18  1  0  0  0  0
 15 23  1  0  0  0  0
 16  2  2  0  0  0  0
 17  3  1  0  0  0  0
 18 25  1  0  0  0  0
 19 26  1  0  0  0  0
 20 17  1  0  0  0  0
 20 22  1  0  0  0  0
 22 10  1  0  0  0  0
 23 14  1  0  0  0  0
 24 27  1  0  0  0  0
 26 25  1  0  0  0  0
 26 17  1  0  0  0  0
 27  7  1  0  0  0  0
 30 28  1  0  0  0  0
 30 29  1  0  0  0  0
M  END
>  <MODEL>
1

>  <REMARK>
 VINA RESULT:      -8.4      0.000      0.000
  Name = 
  2 active torsions:
  status: ('A' for Active; 'I' for Inactive)
    1  A    between atoms: C_11  and  C_28
    2  A    between atoms: C_28  and  O_30
                            x       y       z     vdW  Elec       q    Type
                         _______ _______ _______ _____ _____    ______ ____

>  <TORSDO>
F 2

$$$$
=
 OpenBabel11112416253D

 30 35  0  0  1  0  0  0  0  0999 V2000
  187.1490  177.0850  144.0320 C   0  0  0  0  0  0  0  0  0  0  0  0
  185.0660  178.4040  144.3650 C   0  0  0  0  0  0  0  0  0  0  0  0
  188.2120  177.5850  147.4530 N   0  0  0  0  0  2  0  0  0  0  0  0
  188.2880  176.2540  144.5320 C   0  0  2  0  0  3  0  0  0  0  0  0
  187.1700  177.3990  142.6680 O   0  0  0  0  0  0  0  0  0  0  0  0
  188.5600  174.8660  141.1300 O   0  0  0  0  0  1  0  0  0  0  0  0
  190.9500  174.7820  144.5360 C   0  0  1  0  0  3  0  0  0  0  0  0
  188.9490  175.7550  142.1320 C   0  0  1  0  0  3  0  0  0  0  0  0
  190.8490  175.9100  145.5750 C   0  0  2  0  0  3  0  0  0  0  0  0
  189.5400  177.1020  147.3630 C   0  0  0  0  0  0  0  0  0  0  0  0
  188.3200  177.1380  141.8530 C   0  0  2  0  0  3  0  0  0  0  0  0
  188.6000  175.1640  143.5130 C   0  0  1  0  0  3  0  0  0  0  0  0
  184.0840  178.9560  145.3560 C   0  0  0  0  0  2  0  0  0  0  0  0
  192.1620  175.8130  146.3190 C   0  0  0  0  0  2  0  0  0  0  0  0
  191.8300  173.7650  145.0880 N   0  0  0  0  0  2  0  0  0  0  0  0
  184.9520  178.7250  143.1520 O   0  0  0  0  0  0  0  0  0  0  0  0
  187.3650  176.5490  146.8960 C   0  0  2  0  0  3  0  0  0  0  0  0
  184.1370  178.1640  146.6630 C   0  0  0  0  0  2  0  0  0  0  0  0
  186.1760  177.5400  144.8430 C   0  0  0  0  0  0  0  0  0  0  0  0
  188.2490  175.7120  145.9670 C   0  0  2  0  0  3  0  0  0  0  0  0
  190.5020  177.6900  147.9230 O   0  0  0  0  0  0  0  0  0  0  0  0
  189.6680  175.8320  146.5860 C   0  0  1  0  0  3  0  0  0  0  0  0
  192.7870  174.4900  145.9120 C   0  0  0  0  0  2  0  0  0  0  0  0
  189.8980  173.1680  143.0840 O   0  0  0  0  0  1  0  0  0  0  0  0
  185.4690  178.0450  147.0950 O   0  0  0  0  0  0  0  0  0  0  0  0
  186.0650  177.0660  146.2760 C   0  0  2  0  0  3  0  0  0  0  0  0
  189.6390  174.1540  144.0390 C   0  0  1  0  0  3  0  0  0  0  0  0
  189.3680  178.2200  142.0640 C   0  0  0  0  0  2  0  0  0  0  0  0
  191.0600  178.5130  143.4460 C   0  0  0  0  0  1  0  0  0  0  0  0
  190.5690  177.6440  142.4730 O   0  0  0  0  0  0  0  0  0  0  0  0
  1 19  2  0  0  0  0
  2 19  1  0  0  0  0
  2 13  1  0  0  0  0
  4  1  1  6  0  0  0
  4 20  1  0  0  0  0
  5  1  1  0  0  0  0
  7 15  1  1  0  0  0
  7  9  1  0  0  0  0
  8  6  1  6  0  0  0
  8 12  1  0  0  0  0
  9 14  1  1  0  0  0
  9 22  1  0  0  0  0
 10  3  1  0  0  0  0
 10 21  2  0  0  0  0
 11 28  1  1  0  0  0
 11  8  1  0  0  0  0
 11  5  1  0  0  0  0
 12 27  1  0  0  0  0
 12  4  1  0  0  0  0
 13 18  1  0  0  0  0
 15 23  1  0  0  0  0
 16  2  2  0  0  0  0
 17  3  1  0  0  0  0
 18 25  1  0  0  0  0
 19 26  1  0  0  0  0
 20 22  1  0  0  0  0
 20 17  1  0  0  0  0
 22 10  1  0  0  0  0
 23 14  1  0  0  0  0
 24 27  1  0  0  0  0
 26 17  1  0  0  0  0
 26 25  1  0  0  0  0
 27  7  1  0  0  0  0
 28 30  1  0  0  0  0
 30 29  1  0  0  0  0
M  END
>  <MODEL>
2

>  <REMARK>
 VINA RESULT:      -8.2      2.046      5.646
  Name = 
  2 active torsions:
  status: ('A' for Active; 'I' for Inactive)
    1  A    between atoms: C_11  and  C_28
    2  A    between atoms: C_28  and  O_30
                            x       y       z     vdW  Elec       q    Type
                         _______ _______ _______ _____ _____    ______ ____

>  <TORSDO>
F 2

$$$$
=
 OpenBabel11112416253D

 30 35  0  0  1  0  0  0  0  0999 V2000
  188.1720  176.9470  145.6990 C   0  0  0  0  0  0  0  0  0  0  0  0
  185.9060  177.6860  146.4110 C   0  0  0  0  0  0  0  0  0  0  0  0
  187.1310  176.4970  142.2650 N   0  0  0  0  0  2  0  0  0  0  0  0
  189.2410  176.7450  144.6720 C   0  0  2  0  0  3  0  0  0  0  0  0
  188.4550  176.4660  146.9830 O   0  0  0  0  0  0  0  0  0  0  0  0
  191.6810  176.7950  147.4320 O   0  0  0  0  0  1  0  0  0  0  0  0
  191.8210  175.7440  143.4070 C   0  0  1  0  0  3  0  0  0  0  0  0
  190.8690  176.1220  146.5190 C   0  0  1  0  0  3  0  0  0  0  0  0
  190.5430  175.2850  142.6880 C   0  0  2  0  0  3  0  0  0  0  0  0
  188.2650  175.8160  141.7590 C   0  0  0  0  0  0  0  0  0  0  0  0
  189.5940  175.6330  147.2410 C   0  0  2  0  0  3  0  0  0  0  0  0
  190.6020  177.0280  145.2990 C   0  0  1  0  0  3  0  0  0  0  0  0
  184.5810  178.2390  145.9760 C   0  0  0  0  0  2  0  0  0  0  0  0
  191.0740  174.5250  141.4930 C   0  0  0  0  0  2  0  0  0  0  0  0
  192.8630  175.8630  142.4020 N   0  0  0  0  0  2  0  0  0  0  0  0
  186.0530  177.3290  147.6100 O   0  0  0  0  0  0  0  0  0  0  0  0
  187.6320  177.6860  142.9250 C   0  0  2  0  0  3  0  0  0  0  0  0
  184.7150  178.9660  144.6370 C   0  0  0  0  0  2  0  0  0  0  0  0
  186.9920  177.5230  145.4090 C   0  0  0  0  0  0  0  0  0  0  0  0
  189.0910  177.4010  143.2930 C   0  0  2  0  0  3  0  0  0  0  0  0
  188.1590  174.8340  140.9790 O   0  0  0  0  0  0  0  0  0  0  0  0
  189.5670  176.3980  142.2080 C   0  0  1  0  0  3  0  0  0  0  0  0
  192.5550  174.8460  141.4060 C   0  0  0  0  0  2  0  0  0  0  0  0
  192.9670  177.2880  144.8640 O   0  0  0  0  0  1  0  0  0  0  0  0
  185.3890  178.1460  143.7150 O   0  0  0  0  0  0  0  0  0  0  0  0
  186.7510  178.1870  144.0710 C   0  0  2  0  0  3  0  0  0  0  0  0
  191.7370  177.0210  144.2580 C   0  0  1  0  0  3  0  0  0  0  0  0
  189.2980  174.2000  146.8260 C   0  0  0  0  0  2  0  0  0  0  0  0
  189.6570  172.7880  145.1730 C   0  0  0  0  0  1  0  0  0  0  0  0
  190.2940  173.7410  145.9660 O   0  0  0  0  0  0  0  0  0  0  0  0
  1  5  1  0  0  0  0
  2 16  2  0  0  0  0
  3 17  1  0  0  0  0
  4 12  1  0  0  0  0
  4  1  1  1  0  0  0
  5 11  1  0  0  0  0
  7 15  1  6  0  0  0
  7 27  1  0  0  0  0
  8 11  1  0  0  0  0
  8  6  1  1  0  0  0
  9 14  1  6  0  0  0
  9  7  1  0  0  0  0
 10 22  1  0  0  0  0
 10  3  1  0  0  0  0
 11 28  1  6  0  0  0
 12  8  1  0  0  0  0
 13  2  1  0  0  0  0
 17 20  1  0  0  0  0
 17 26  1  0  0  0  0
 18 13  1  0  0  0  0
 19  1  2  0  0  0  0
 19  2  1  0  0  0  0
 20  4  1  0  0  0  0
 21 10  2  0  0  0  0
 22  9  1  0  0  0  0
 22 20  1  0  0  0  0
 23 14  1  0  0  0  0
 23 15  1  0  0  0  0
 25 26  1  0  0  0  0
 25 18  1  0  0  0  0
 26 19  1  0  0  0  0
 27 24  1  0  0  0  0
 27 12  1  0  0  0  0
 29 30  1  0  0  0  0
 30 28  1  0  0  0  0
M  END
>  <MODEL>
3

>  <REMARK>
 VINA RESULT:      -8.1      1.898      6.336
  Name = 
  2 active torsions:
  status: ('A' for Active; 'I' for Inactive)
    1  A    between atoms: C_11  and  C_28
    2  A    between atoms: C_28  and  O_30
                            x       y       z     vdW  Elec       q    Type
                         _______ _______ _______ _____ _____    ______ ____

>  <TORSDO>
F 2

$$$$
=
 OpenBabel11112416253D

 30 35  0  0  1  0  0  0  0  0999 V2000
  190.6130  175.6310  142.4440 C   0  0  0  0  0  0  0  0  0  0  0  0
  192.8840  174.8880  141.7530 C   0  0  0  0  0  0  0  0  0  0  0  0
  191.5930  175.9640  145.9090 N   0  0  0  0  0  2  0  0  0  0  0  0
  189.6710  176.3410  143.3650 C   0  0  2  0  0  3  0  0  0  0  0  0
  190.0250  174.9340  141.3820 O   0  0  0  0  0  0  0  0  0  0  0  0
  187.3360  176.5940  140.5260 O   0  0  0  0  0  1  0  0  0  0  0  0
  187.0480  177.2180  144.6310 C   0  0  1  0  0  3  0  0  0  0  0  0
  187.7960  175.9800  141.6910 C   0  0  1  0  0  3  0  0  0  0  0  0
  187.9990  176.4840  145.5890 C   0  0  2  0  0  3  0  0  0  0  0  0
  190.3190  176.1380  146.5020 C   0  0  0  0  0  0  0  0  0  0  0  0
  188.6080  174.7220  141.3140 C   0  0  2  0  0  3  0  0  0  0  0  0
  188.5710  177.0050  142.5450 C   0  0  1  0  0  3  0  0  0  0  0  0
  194.3420  174.8460  142.1010 C   0  0  0  0  0  2  0  0  0  0  0  0
  187.2700  176.5440  146.9120 C   0  0  0  0  0  2  0  0  0  0  0  0
  186.2830  178.1650  145.4240 N   0  0  0  0  0  2  0  0  0  0  0  0
  192.4810  174.2530  140.7410 O   0  0  0  0  0  0  0  0  0  0  0  0
  191.6770  176.9320  144.8340 C   0  0  2  0  0  3  0  0  0  0  0  0
  194.6910  175.9620  143.0870 C   0  0  0  0  0  2  0  0  0  0  0  0
  191.9440  175.6270  142.6350 C   0  0  0  0  0  0  0  0  0  0  0  0
  190.2370  177.2760  144.4420 C   0  0  2  0  0  3  0  0  0  0  0  0
  190.0020  175.5690  147.5790 O   0  0  0  0  0  0  0  0  0  0  0  0
  189.4290  177.0770  145.7520 C   0  0  1  0  0  3  0  0  0  0  0  0
  186.1430  177.5460  146.7340 C   0  0  0  0  0  2  0  0  0  0  0  0
  186.6740  178.5040  142.6240 O   0  0  0  0  0  1  0  0  0  0  0  0
  193.7860  175.9470  144.1630 O   0  0  0  0  0  0  0  0  0  0  0  0
  192.5890  176.5120  143.6800 C   0  0  2  0  0  3  0  0  0  0  0  0
  187.6670  177.9090  143.4060 C   0  0  1  0  0  3  0  0  0  0  0  0
  188.2070  173.5710  142.2230 C   0  0  0  0  0  2  0  0  0  0  0  0
  189.3610  171.9580  143.1850 C   0  0  0  0  0  1  0  0  0  0  0  0
  188.9800  172.4480  141.9360 O   0  0  0  0  0  0  0  0  0  0  0  0
  1 19  2  0  0  0  0
  2 13  1  0  0  0  0
  2 19  1  0  0  0  0
  3 10  1  0  0  0  0
  4  1  1  6  0  0  0
  4 20  1  0  0  0  0
  5  1  1  0  0  0  0
  7 15  1  1  0  0  0
  7  9  1  0  0  0  0
  8  6  1  6  0  0  0
  8 12  1  0  0  0  0
  9 22  1  0  0  0  0
  9 14  1  1  0  0  0
 10 21  2  0  0  0  0
 11  5  1  0  0  0  0
 11  8  1  0  0  0  0
 11 28  1  1  0  0  0
 12  4  1  0  0  0  0
 12 27  1  0  0  0  0
 13 18  1  0  0  0  0
 15 23  1  0  0  0  0
 16  2  2  0  0  0  0
 17  3  1  0  0  0  0
 18 25  1  0  0  0  0
 19 26  1  0  0  0  0
 20 17  1  0  0  0  0
 20 22  1  0  0  0  0
 22 10  1  0  0  0  0
 23 14  1  0  0  0  0
 24 27  1  0  0  0  0
 26 25  1  0  0  0  0
 26 17  1  0  0  0  0
 27  7  1  0  0  0  0
 30 28  1  0  0  0  0
 30 29  1  0  0  0  0
M  END
>  <MODEL>
4

>  <REMARK>
 VINA RESULT:      -7.9      1.150      1.358
  Name = 
  2 active torsions:
  status: ('A' for Active; 'I' for Inactive)
    1  A    between atoms: C_11  and  C_28
    2  A    between atoms: C_28  and  O_30
                            x       y       z     vdW  Elec       q    Type
                         _______ _______ _______ _____ _____    ______ ____

>  <TORSDO>
F 2

$$$$
=
 OpenBabel11112416253D

 30 35  0  0  1  0  0  0  0  0999 V2000
  189.0120  174.7450  141.1830 C   0  0  0  0  0  0  0  0  0  0  0  0
  188.7230  173.3600  139.1370 C   0  0  0  0  0  0  0  0  0  0  0  0
  189.9030  171.8800  143.2010 N   0  0  0  0  0  2  0  0  0  0  0  0
  189.5860  175.0050  142.5400 C   0  0  2  0  0  3  0  0  0  0  0  0
  188.0980  175.6940  140.7100 O   0  0  0  0  0  0  0  0  0  0  0  0
  189.0280  178.5930  141.9150 O   0  0  0  0  0  1  0  0  0  0  0  0
  189.9850  176.3090  145.2590 C   0  0  1  0  0  3  0  0  0  0  0  0
  188.6520  177.3650  142.4590 C   0  0  1  0  0  3  0  0  0  0  0  0
  189.5810  174.8280  145.3210 C   0  0  2  0  0  3  0  0  0  0  0  0
  189.8510  172.4680  144.4880 C   0  0  0  0  0  0  0  0  0  0  0  0
  187.5720  176.7220  141.5610 C   0  0  2  0  0  3  0  0  0  0  0  0
  189.9040  176.4900  142.6760 C   0  0  1  0  0  3  0  0  0  0  0  0
  189.0400  172.0620  138.4540 C   0  0  0  0  0  2  0  0  0  0  0  0
  189.6120  174.5220  146.8010 C   0  0  0  0  0  2  0  0  0  0  0  0
  190.8160  176.5780  146.4210 N   0  0  0  0  0  2  0  0  0  0  0  0
  187.9150  174.1560  138.5870 O   0  0  0  0  0  0  0  0  0  0  0  0
  190.7510  172.7360  142.3970 C   0  0  2  0  0  3  0  0  0  0  0  0
  190.2990  171.4340  139.0530 C   0  0  0  0  0  2  0  0  0  0  0  0
  189.3220  173.6500  140.4660 C   0  0  0  0  0  0  0  0  0  0  0  0
  190.7280  174.1180  143.0550 C   0  0  2  0  0  3  0  0  0  0  0  0
  189.3380  171.8740  145.4720 O   0  0  0  0  0  0  0  0  0  0  0  0
  190.4880  173.8180  144.5590 C   0  0  1  0  0  3  0  0  0  0  0  0
  190.3170  175.6930  147.4640 C   0  0  0  0  0  2  0  0  0  0  0  0
  190.9470  178.1720  144.0660 O   0  0  0  0  0  1  0  0  0  0  0  0
  190.1940  171.3990  140.4550 O   0  0  0  0  0  0  0  0  0  0  0  0
  190.4290  172.7140  140.9010 C   0  0  2  0  0  3  0  0  0  0  0  0
  190.6680  176.8060  143.9750 C   0  0  1  0  0  3  0  0  0  0  0  0
  186.4600  176.1610  142.4330 C   0  0  0  0  0  2  0  0  0  0  0  0
  184.9280  177.7430  142.3510 C   0  0  0  0  0  1  0  0  0  0  0  0
  185.8900  177.1830  143.1900 O   0  0  0  0  0  0  0  0  0  0  0  0
  2 19  1  0  0  0  0
  3 10  1  0  0  0  0
  4  1  1  6  0  0  0
  4 12  1  0  0  0  0
  4 20  1  0  0  0  0
  5  1  1  0  0  0  0
  5 11  1  0  0  0  0
  7  9  1  0  0  0  0
  7 15  1  1  0  0  0
  8  6  1  6  0  0  0
  8 12  1  0  0  0  0
  9 14  1  1  0  0  0
 10 22  1  0  0  0  0
 10 21  2  0  0  0  0
 11 28  1  1  0  0  0
 11  8  1  0  0  0  0
 12 27  1  0  0  0  0
 13 18  1  0  0  0  0
 13  2  1  0  0  0  0
 14 23  1  0  0  0  0
 15 23  1  0  0  0  0
 16  2  2  0  0  0  0
 17 20  1  0  0  0  0
 17  3  1  0  0  0  0
 18 25  1  0  0  0  0
 19 26  1  0  0  0  0
 19  1  2  0  0  0  0
 20 22  1  0  0  0  0
 22  9  1  0  0  0  0
 25 26  1  0  0  0  0
 26 17  1  0  0  0  0
 27 24  1  0  0  0  0
 27  7  1  0  0  0  0
 28 30  1  0  0  0  0
 29 30  1  0  0  0  0
M  END
>  <MODEL>
5

>  <REMARK>
 VINA RESULT:      -7.5      2.606      4.911
  Name = 
  2 active torsions:
  status: ('A' for Active; 'I' for Inactive)
    1  A    between atoms: C_11  and  C_28
    2  A    between atoms: C_28  and  O_30
                            x       y       z     vdW  Elec       q    Type
                         _______ _______ _______ _____ _____    ______ ____

>  <TORSDO>
F 2

$$$$
=
 OpenBabel11112416253D

 30 35  0  0  1  0  0  0  0  0999 V2000
  189.9320  174.7760  143.5920 C   0  0  0  0  0  0  0  0  0  0  0  0
  191.1630  173.0870  142.2440 C   0  0  0  0  0  0  0  0  0  0  0  0
  187.8170  175.7030  140.8090 N   0  0  0  0  0  2  0  0  0  0  0  0
  188.7360  175.6260  143.8840 C   0  0  2  0  0  3  0  0  0  0  0  0
  191.0400  174.9670  144.4270 O   0  0  0  0  0  0  0  0  0  0  0  0
  189.8780  175.7550  147.3840 O   0  0  0  0  0  1  0  0  0  0  0  0
  187.0370  177.8110  145.1450 C   0  0  1  0  0  3  0  0  0  0  0  0
  189.7780  176.2930  146.1010 C   0  0  1  0  0  3  0  0  0  0  0  0
  187.2010  177.9370  143.6230 C   0  0  2  0  0  3  0  0  0  0  0  0
  187.2110  176.8640  141.3450 C   0  0  0  0  0  0  0  0  0  0  0  0
  191.1070  176.0620  145.3490 C   0  0  2  0  0  3  0  0  0  0  0  0
  188.5360  175.7130  145.3930 C   0  0  1  0  0  3  0  0  0  0  0  0
  191.1520  172.2170  141.0210 C   0  0  0  0  0  2  0  0  0  0  0  0
  186.3350  179.1280  143.2790 C   0  0  0  0  0  2  0  0  0  0  0  0
  185.7350  178.3610  145.4860 N   0  0  0  0  0  2  0  0  0  0  0  0
  192.2110  173.1400  142.9430 O   0  0  0  0  0  0  0  0  0  0  0  0
  187.6330  174.6560  141.7930 C   0  0  2  0  0  3  0  0  0  0  0  0
  189.7180  171.9770  140.5460 C   0  0  0  0  0  2  0  0  0  0  0  0
  189.9650  173.9020  142.5700 C   0  0  0  0  0  0  0  0  0  0  0  0
  187.4220  175.3540  143.1400 C   0  0  2  0  0  3  0  0  0  0  0  0
  187.0430  177.9060  140.6590 O   0  0  0  0  0  0  0  0  0  0  0  0
  186.7690  176.7110  142.7650 C   0  0  1  0  0  3  0  0  0  0  0  0
  185.4960  179.4160  144.5110 C   0  0  0  0  0  2  0  0  0  0  0  0
  187.0650  176.4770  147.1540 O   0  0  0  0  0  1  0  0  0  0  0  0
  189.0340  173.2020  140.4550 O   0  0  0  0  0  0  0  0  0  0  0  0
  188.7180  173.5770  141.7760 C   0  0  2  0  0  3  0  0  0  0  0  0
  187.2190  176.4180  145.7670 C   0  0  1  0  0  3  0  0  0  0  0  0
  191.5010  177.3370  144.6210 C   0  0  0  0  0  2  0  0  0  0  0  0
  193.6380  176.9940  145.0430 C   0  0  0  0  0  1  0  0  0  0  0  0
  192.7340  177.1630  143.9940 O   0  0  0  0  0  0  0  0  0  0  0  0
  1  5  1  0  0  0  0
  2 19  1  0  0  0  0
  2 16  2  0  0  0  0
  3 10  1  0  0  0  0
  3 17  1  0  0  0  0
  4  1  1  1  0  0  0
  4 12  1  0  0  0  0
  5 11  1  0  0  0  0
  7 15  1  6  0  0  0
  7 27  1  0  0  0  0
  8  6  1  1  0  0  0
  9 14  1  6  0  0  0
  9  7  1  0  0  0  0
 10 22  1  0  0  0  0
 11 28  1  6  0  0  0
 11  8  1  0  0  0  0
 12 27  1  0  0  0  0
 12  8  1  0  0  0  0
 13  2  1  0  0  0  0
 14 23  1  0  0  0  0
 17 20  1  0  0  0  0
 18 13  1  0  0  0  0
 19  1  2  0  0  0  0
 20  4  1  0  0  0  0
 21 10  2  0  0  0  0
 22 20  1  0  0  0  0
 22  9  1  0  0  0  0
 23 15  1  0  0  0  0
 25 18  1  0  0  0  0
 25 26  1  0  0  0  0
 26 17  1  0  0  0  0
 26 19  1  0  0  0  0
 27 24  1  0  0  0  0
 30 28  1  0  0  0  0
 30 29  1  0  0  0  0
M  END
>  <MODEL>
6

>  <REMARK>
 VINA RESULT:      -7.5      1.825      4.752
  Name = 
  2 active torsions:
  status: ('A' for Active; 'I' for Inactive)
    1  A    between atoms: C_11  and  C_28
    2  A    between atoms: C_28  and  O_30
                            x       y       z     vdW  Elec       q    Type
                         _______ _______ _______ _____ _____    ______ ____

>  <TORSDO>
F 2

$$$$
=
 OpenBabel11112416253D

 30 35  0  0  1  0  0  0  0  0999 V2000
  187.8460  177.3230  144.0250 C   0  0  0  0  0  0  0  0  0  0  0  0
  185.9390  178.5100  142.9570 C   0  0  0  0  0  0  0  0  0  0  0  0
  187.6780  174.5840  141.6690 N   0  0  0  0  0  2  0  0  0  0  0  0
  188.9880  176.3560  144.0030 C   0  0  2  0  0  3  0  0  0  0  0  0
  187.5650  177.9140  145.2630 O   0  0  0  0  0  0  0  0  0  0  0  0
  190.4180  178.2280  146.8360 O   0  0  0  0  0  1  0  0  0  0  0  0
  191.2200  174.5640  145.0330 C   0  0  1  0  0  3  0  0  0  0  0  0
  189.6870  177.1650  146.3070 C   0  0  1  0  0  3  0  0  0  0  0  0
  190.1090  173.8200  144.2750 C   0  0  2  0  0  3  0  0  0  0  0  0
  188.5520  173.6690  142.3030 C   0  0  0  0  0  0  0  0  0  0  0  0
  188.1790  177.4530  146.4740 C   0  0  2  0  0  3  0  0  0  0  0  0
  190.1290  176.9080  144.8510 C   0  0  1  0  0  3  0  0  0  0  0  0
  185.0990  178.6660  141.7240 C   0  0  0  0  0  2  0  0  0  0  0  0
  190.6060  172.3920  144.2480 C   0  0  0  0  0  2  0  0  0  0  0  0
  192.4570  173.8340  144.8110 N   0  0  0  0  0  2  0  0  0  0  0  0
  185.6070  179.1340  144.0020 O   0  0  0  0  0  0  0  0  0  0  0  0
  188.4000  175.8370  141.5710 C   0  0  2  0  0  3  0  0  0  0  0  0
  185.8580  178.1710  140.4920 C   0  0  0  0  0  2  0  0  0  0  0  0
  187.1030  177.5880  142.9350 C   0  0  0  0  0  0  0  0  0  0  0  0
  189.4790  175.8050  142.6580 C   0  0  2  0  0  3  0  0  0  0  0  0
  188.2910  172.4400  142.3790 O   0  0  0  0  0  0  0  0  0  0  0  0
  189.8050  174.2970  142.8250 C   0  0  1  0  0  3  0  0  0  0  0  0
  192.0610  172.4390  144.6800 C   0  0  0  0  0  2  0  0  0  0  0  0
  192.4340  176.5920  145.5130 O   0  0  0  0  0  1  0  0  0  0  0  0
  186.3850  176.8910  140.7380 O   0  0  0  0  0  0  0  0  0  0  0  0
  187.5070  177.0790  141.5680 C   0  0  2  0  0  3  0  0  0  0  0  0
  191.4090  176.0590  144.7290 C   0  0  1  0  0  3  0  0  0  0  0  0
  187.4780  176.2000  146.9720 C   0  0  0  0  0  2  0  0  0  0  0  0
  185.9410  177.3890  148.0130 C   0  0  0  0  0  1  0  0  0  0  0  0
  186.1020  176.4160  147.0270 O   0  0  0  0  0  0  0  0  0  0  0  0
  1  5  1  0  0  0  0
  2 16  2  0  0  0  0
  3 10  1  0  0  0  0
  4  1  1  6  0  0  0
  4 12  1  0  0  0  0
  5 11  1  0  0  0  0
  7 15  1  6  0  0  0
  8 11  1  0  0  0  0
  8  6  1  6  0  0  0
  9 14  1  6  0  0  0
  9  7  1  0  0  0  0
 10 21  2  0  0  0  0
 10 22  1  0  0  0  0
 11 28  1  6  0  0  0
 12  8  1  0  0  0  0
 13  2  1  0  0  0  0
 14 23  1  0  0  0  0
 17  3  1  0  0  0  0
 17 20  1  0  0  0  0
 18 25  1  0  0  0  0
 18 13  1  0  0  0  0
 19  2  1  0  0  0  0
 19  1  2  0  0  0  0
 20 22  1  0  0  0  0
 20  4  1  0  0  0  0
 22  9  1  0  0  0  0
 23 15  1  0  0  0  0
 25 26  1  0  0  0  0
 26 17  1  0  0  0  0
 26 19  1  0  0  0  0
 27 12  1  0  0  0  0
 27  7  1  0  0  0  0
 27 24  1  0  0  0  0
 28 30  1  0  0  0  0
 30 29  1  0  0  0  0
M  END
>  <MODEL>
7

>  <REMARK>
 VINA RESULT:      -7.1      2.114      6.319
  Name = 
  2 active torsions:
  status: ('A' for Active; 'I' for Inactive)
    1  A    between atoms: C_11  and  C_28
    2  A    between atoms: C_28  and  O_30
                            x       y       z     vdW  Elec       q    Type
                         _______ _______ _______ _____ _____    ______ ____

>  <TORSDO>
F 2

$$$$
=
 OpenBabel11112416253D

 30 35  0  0  1  0  0  0  0  0999 V2000
  191.6160  175.1590  142.9120 C   0  0  0  0  0  0  0  0  0  0  0  0
  193.9930  174.6840  142.3530 C   0  0  0  0  0  0  0  0  0  0  0  0
  192.4060  175.9330  146.3550 N   0  0  0  0  0  2  0  0  0  0  0  0
  190.5510  175.8080  143.7380 C   0  0  2  0  0  3  0  0  0  0  0  0
  191.1720  174.2940  141.9050 O   0  0  0  0  0  0  0  0  0  0  0  0
  188.3150  175.4760  140.8290 O   0  0  0  0  0  1  0  0  0  0  0  0
  187.7850  176.4160  144.8480 C   0  0  1  0  0  3  0  0  0  0  0  0
  188.8100  175.0390  142.0570 C   0  0  1  0  0  3  0  0  0  0  0  0
  188.7900  175.9120  145.8950 C   0  0  2  0  0  3  0  0  0  0  0  0
  191.0990  175.9790  146.8960 C   0  0  0  0  0  0  0  0  0  0  0  0
  189.8010  173.8790  141.8210 C   0  0  2  0  0  3  0  0  0  0  0  0
  189.4020  176.2350  142.8310 C   0  0  1  0  0  3  0  0  0  0  0  0
  195.4290  174.8790  142.7410 C   0  0  0  0  0  2  0  0  0  0  0  0
  188.0090  175.9860  147.1880 C   0  0  0  0  0  2  0  0  0  0  0  0
  186.8660  177.3140  145.5290 N   0  0  0  0  0  2  0  0  0  0  0  0
  193.7220  173.9110  141.3950 O   0  0  0  0  0  0  0  0  0  0  0  0
  192.3970  176.8040  145.1970 C   0  0  2  0  0  3  0  0  0  0  0  0
  195.5820  176.1160  143.6280 C   0  0  0  0  0  2  0  0  0  0  0  0
  192.9270  175.3590  143.1370 C   0  0  0  0  0  0  0  0  0  0  0  0
  190.9400  176.9060  144.7370 C   0  0  2  0  0  3  0  0  0  0  0  0
  190.8210  175.4690  148.0130 O   0  0  0  0  0  0  0  0  0  0  0  0
  190.1180  176.7120  146.0390 C   0  0  1  0  0  3  0  0  0  0  0  0
  186.7630  176.8000  146.8870 C   0  0  0  0  0  2  0  0  0  0  0  0
  187.3150  177.4530  142.7210 O   0  0  0  0  0  1  0  0  0  0  0  0
  194.6470  176.0700  144.6760 O   0  0  0  0  0  0  0  0  0  0  0  0
  193.4030  176.4160  144.1110 C   0  0  2  0  0  3  0  0  0  0  0  0
  188.3500  177.0750  143.5800 C   0  0  1  0  0  3  0  0  0  0  0  0
  189.5270  172.7690  142.8230 C   0  0  0  0  0  2  0  0  0  0  0  0
  190.4240  170.9260  142.0130 C   0  0  0  0  0  1  0  0  0  0  0  0
  190.6460  171.9460  142.9370 O   0  0  0  0  0  0  0  0  0  0  0  0
  1 19  2  0  0  0  0
  2 13  1  0  0  0  0
  2 19  1  0  0  0  0
  3 10  1  0  0  0  0
  4  1  1  6  0  0  0
  4 20  1  0  0  0  0
  5  1  1  0  0  0  0
  7 15  1  1  0  0  0
  7  9  1  0  0  0  0
  8  6  1  6  0  0  0
  8 12  1  0  0  0  0
  9 22  1  0  0  0  0
  9 14  1  1  0  0  0
 10 21  2  0  0  0  0
 11  5  1  0  0  0  0
 11  8  1  0  0  0  0
 11 28  1  1  0  0  0
 12 27  1  0  0  0  0
 12  4  1  0  0  0  0
 13 18  1  0  0  0  0
 15 23  1  0  0  0  0
 16  2  2  0  0  0  0
 17  3  1  0  0  0  0
 18 25  1  0  0  0  0
 19 26  1  0  0  0  0
 20 17  1  0  0  0  0
 20 22  1  0  0  0  0
 22 10  1  0  0  0  0
 23 14  1  0  0  0  0
 24 27  1  0  0  0  0
 26 25  1  0  0  0  0
 26 17  1  0  0  0  0
 27  7  1  0  0  0  0
 28 30  1  0  0  0  0
 29 30  1  0  0  0  0
M  END
>  <MODEL>
8

>  <REMARK>
 VINA RESULT:      -7.1      1.668      2.273
  Name = 
  2 active torsions:
  status: ('A' for Active; 'I' for Inactive)
    1  A    between atoms: C_11  and  C_28
    2  A    between atoms: C_28  and  O_30
                            x       y       z     vdW  Elec       q    Type
                         _______ _______ _______ _____ _____    ______ ____

>  <TORSDO>
F 2

$$$$
=
 OpenBabel11112416253D

 30 35  0  0  1  0  0  0  0  0999 V2000
  190.9640  174.4530  142.2710 C   0  0  0  0  0  0  0  0  0  0  0  0
  191.7080  173.5210  140.0880 C   0  0  0  0  0  0  0  0  0  0  0  0
  187.9330  175.8170  140.8470 N   0  0  0  0  0  2  0  0  0  0  0  0
  189.9140  174.9420  143.2170 C   0  0  2  0  0  3  0  0  0  0  0  0
  192.2890  174.5660  142.7110 O   0  0  0  0  0  0  0  0  0  0  0  0
  192.2470  174.1650  145.9600 O   0  0  0  0  0  1  0  0  0  0  0  0
  188.6770  176.2820  145.6520 C   0  0  1  0  0  3  0  0  0  0  0  0
  191.6560  175.0520  145.0610 C   0  0  1  0  0  3  0  0  0  0  0  0
  188.2670  176.9060  144.3100 C   0  0  2  0  0  3  0  0  0  0  0  0
  187.5030  176.6230  141.9280 C   0  0  0  0  0  0  0  0  0  0  0  0
  192.6290  175.3100  143.8890 C   0  0  2  0  0  3  0  0  0  0  0  0
  190.2750  174.5130  144.6350 C   0  0  1  0  0  3  0  0  0  0  0  0
  191.2980  173.0920  138.7090 C   0  0  0  0  0  2  0  0  0  0  0  0
  187.2720  177.9710  144.7140 C   0  0  0  0  0  2  0  0  0  0  0  0
  187.5620  176.4560  146.5680 N   0  0  0  0  0  2  0  0  0  0  0  0
  192.9340  173.5370  140.3800 O   0  0  0  0  0  0  0  0  0  0  0  0
  188.1770  174.4980  141.3960 C   0  0  2  0  0  3  0  0  0  0  0  0
  189.8050  172.7630  138.6720 C   0  0  0  0  0  2  0  0  0  0  0  0
  190.6690  173.9660  141.0520 C   0  0  0  0  0  0  0  0  0  0  0  0
  188.4350  174.6880  142.8930 C   0  0  2  0  0  3  0  0  0  0  0  0
  187.0400  177.7810  141.7530 O   0  0  0  0  0  0  0  0  0  0  0  0
  187.6180  175.9560  143.2600 C   0  0  1  0  0  3  0  0  0  0  0  0
  186.9270  177.7030  146.1680 C   0  0  0  0  0  2  0  0  0  0  0  0
  189.5100  174.4110  146.9270 O   0  0  0  0  0  1  0  0  0  0  0  0
  189.0700  173.8120  139.2500 O   0  0  0  0  0  0  0  0  0  0  0  0
  189.2380  173.6910  140.6440 C   0  0  2  0  0  3  0  0  0  0  0  0
  189.1490  174.8190  145.6410 C   0  0  1  0  0  3  0  0  0  0  0  0
  192.6610  176.7980  143.5780 C   0  0  0  0  0  2  0  0  0  0  0  0
  191.2510  178.4910  143.6590 C   0  0  0  0  0  1  0  0  0  0  0  0
  191.8080  177.4810  144.4430 O   0  0  0  0  0  0  0  0  0  0  0  0
  1  5  1  0  0  0  0
  2 16  2  0  0  0  0
  2 19  1  0  0  0  0
  3 17  1  0  0  0  0
  3 10  1  0  0  0  0
  4  1  1  6  0  0  0
  4 12  1  0  0  0  0
  5 11  1  0  0  0  0
  7 15  1  1  0  0  0
  8  6  1  1  0  0  0
  9 14  1  1  0  0  0
  9  7  1  0  0  0  0
 10 22  1  0  0  0  0
 11 28  1  6  0  0  0
 11  8  1  0  0  0  0
 12  8  1  0  0  0  0
 12 27  1  0  0  0  0
 13  2  1  0  0  0  0
 14 23  1  0  0  0  0
 17 20  1  0  0  0  0
 18 13  1  0  0  0  0
 18 25  1  0  0  0  0
 19  1  2  0  0  0  0
 20  4  1  0  0  0  0
 20 22  1  0  0  0  0
 21 10  2  0  0  0  0
 22  9  1  0  0  0  0
 23 15  1  0  0  0  0
 25 26  1  0  0  0  0
 26 19  1  0  0  0  0
 26 17  1  0  0  0  0
 27  7  1  0  0  0  0
 27 24  1  0  0  0  0
 28 30  1  0  0  0  0
 29 30  1  0  0  0  0
M  END
>  <MODEL>
9

>  <REMARK>
 VINA RESULT:      -7.1      2.281      5.066
  Name = 
  2 active torsions:
  status: ('A' for Active; 'I' for Inactive)
    1  A    between atoms: C_11  and  C_28
    2  A    between atoms: C_28  and  O_30
                            x       y       z     vdW  Elec       q    Type
                         _______ _______ _______ _____ _____    ______ ____

>  <TORSDO>
F 2

$$$$
