=
 OpenBabel11112416133D

 30 35  0  0  1  0  0  0  0  0999 V2000
  186.3780  177.6090  143.7840 C   0  0  0  0  0  0  0  0  0  0  0  0
  184.6430  178.6380  145.2820 C   0  0  0  0  0  0  0  0  0  0  0  0
  188.5310  176.1910  147.1100 N   0  0  0  0  0  0  0  0  0  0  0  0
  187.5610  176.8280  143.6400 C   0  0  0  0  0  0  0  0  0  0  0  0
  185.7830  178.2160  142.5450 C   0  0  0  0  0  2  0  0  0  0  0  0
  187.5710  176.4540  140.0080 O   0  0  0  0  0  0  0  0  0  0  0  0
  190.3860  175.9080  142.7370 C   0  0  1  0  0  3  0  0  0  0  0  0
  187.1590  176.7060  141.1750 C   0  0  0  0  0  0  0  0  0  0  0  0
  190.4750  175.5290  144.1630 C   0  0  1  0  0  3  0  0  0  0  0  0
  189.6320  175.6020  146.4820 N   0  0  0  0  0  0  0  0  0  0  0  0
  185.7700  177.2360  141.3880 C   0  0  2  0  0  3  0  0  0  0  0  0
  187.9860  176.4000  142.3140 N   0  0  0  0  0  0  0  0  0  0  0  0
  184.1700  178.8770  146.5750 C   0  0  0  0  0  3  0  0  0  0  0  0
  191.7560  174.8600  144.4450 C   0  0  0  0  0  2  0  0  0  0  0  0
  191.5250  175.2850  142.0710 N   0  0  0  0  0  2  0  0  0  0  0  0
  183.8960  179.1380  144.2210 O   0  0  0  0  0  1  0  0  0  0  0  0
  187.7100  176.7100  146.0670 C   0  0  0  0  0  0  0  0  0  0  0  0
  184.8570  178.3950  147.6880 C   0  0  0  0  0  3  0  0  0  0  0  0
  185.8410  177.8980  145.0810 C   0  0  0  0  0  0  0  0  0  0  0  0
  188.2370  176.4560  144.8180 C   0  0  0  0  0  0  0  0  0  0  0  0
  190.7340  175.0130  147.2250 C   0  0  0  0  0  1  0  0  0  0  0  0
  189.5180  175.7810  145.0660 C   0  0  0  0  0  0  0  0  0  0  0  0
  192.4870  174.9350  143.1180 C   0  0  0  0  0  2  0  0  0  0  0  0
  188.6700  174.0220  142.3910 C   0  0  0  0  0  1  0  0  0  0  0  0
  186.0300  177.6680  147.5160 C   0  0  0  0  0  3  0  0  0  0  0  0
  186.5240  177.4150  146.2330 C   0  0  0  0  0  0  0  0  0  0  0  0
  189.0840  175.4590  142.0800 C   0  0  2  0  0  3  0  0  0  0  0  0
  185.2150  177.9400  140.1570 C   0  0  0  0  0  2  0  0  0  0  0  0
  183.0140  177.9460  140.3090 C   0  0  0  0  0  1  0  0  0  0  0  0
  184.1360  178.7480  140.5150 O   0  0  0  0  0  0  0  0  0  0  0  0
  1 19  1  0  0  0  0
  2 13  1  0  0  0  0
  4  1  2  0  0  0  0
  4 20  1  0  0  0  0
  5  1  1  0  0  0  0
  6  8  2  0  0  0  0
  7 15  1  6  0  0  0
  7  9  1  0  0  0  0
  8 11  1  0  0  0  0
  8 12  1  0  0  0  0
  9 14  1  1  0  0  0
  9 22  1  0  0  0  0
 10  3  1  0  0  0  0
 10 21  1  0  0  0  0
 11 28  1  6  0  0  0
 11  5  1  0  0  0  0
 12  4  1  0  0  0  0
 13 18  2  0  0  0  0
 15 23  1  0  0  0  0
 16  2  1  0  0  0  0
 17 26  1  0  0  0  0
 17  3  2  0  0  0  0
 19  2  2  0  0  0  0
 19 26  1  0  0  0  0
 20 22  2  0  0  0  0
 20 17  1  0  0  0  0
 22 10  1  0  0  0  0
 23 14  1  0  0  0  0
 25 18  1  0  0  0  0
 26 25  2  0  0  0  0
 27 12  1  0  0  0  0
 27 24  1  1  0  0  0
 27  7  1  0  0  0  0
 28 30  1  0  0  0  0
 29 30  1  0  0  0  0
M  END
>  <MODEL>
1

>  <REMARK>
 VINA RESULT:      -8.7      0.000      0.000
  Name = 
  2 active torsions:
  status: ('A' for Active; 'I' for Inactive)
    1  A    between atoms: C_11  and  C_28
    2  A    between atoms: C_28  and  O_30
                            x       y       z     vdW  Elec       q    Type
                         _______ _______ _______ _____ _____    ______ ____

>  <TORSDO>
F 2

$$$$
=
 OpenBabel11112416133D

 30 35  0  0  1  0  0  0  0  0999 V2000
  187.7540  176.5490  144.8330 C   0  0  0  0  0  0  0  0  0  0  0  0
  186.3670  178.3720  145.8660 C   0  0  0  0  0  0  0  0  0  0  0  0
  186.4670  177.6350  140.9770 N   0  0  0  0  0  0  0  0  0  0  0  0
  188.2350  175.8910  143.6650 C   0  0  0  0  0  0  0  0  0  0  0  0
  188.1350  175.9740  146.1690 C   0  0  0  0  0  2  0  0  0  0  0  0
  190.7080  173.6930  145.2100 O   0  0  0  0  0  0  0  0  0  0  0  0
  188.9830  173.6510  141.6480 C   0  0  1  0  0  3  0  0  0  0  0  0
  189.8840  174.6400  145.0680 C   0  0  0  0  0  0  0  0  0  0  0  0
  188.4030  174.6220  140.6960 C   0  0  1  0  0  3  0  0  0  0  0  0
  187.1040  176.6630  140.2010 N   0  0  0  0  0  0  0  0  0  0  0  0
  189.5950  175.5700  146.2120 C   0  0  2  0  0  3  0  0  0  0  0  0
  189.2880  174.8910  143.7810 N   0  0  0  0  0  0  0  0  0  0  0  0
  185.4890  179.4460  145.6980 C   0  0  0  0  0  3  0  0  0  0  0  0
  188.5220  174.1300  139.3130 C   0  0  0  0  0  2  0  0  0  0  0  0
  189.6610  172.6380  140.8460 N   0  0  0  0  0  2  0  0  0  0  0  0
  186.7510  178.0510  147.1630 O   0  0  0  0  0  1  0  0  0  0  0  0
  186.8400  177.3710  142.3280 C   0  0  0  0  0  0  0  0  0  0  0  0
  185.0700  179.8350  144.4270 C   0  0  0  0  0  3  0  0  0  0  0  0
  186.8460  177.6530  144.7360 C   0  0  0  0  0  0  0  0  0  0  0  0
  187.6930  176.2920  142.4280 C   0  0  0  0  0  0  0  0  0  0  0  0
  186.9160  176.5620  138.7630 C   0  0  0  0  0  1  0  0  0  0  0  0
  187.8370  175.7810  141.0590 C   0  0  0  0  0  0  0  0  0  0  0  0
  189.1300  172.7510  139.4860 C   0  0  0  0  0  2  0  0  0  0  0  0
  190.9680  175.2490  141.9980 C   0  0  0  0  0  1  0  0  0  0  0  0
  185.5270  179.1490  143.3060 C   0  0  0  0  0  3  0  0  0  0  0  0
  186.4060  178.0710  143.4480 C   0  0  0  0  0  0  0  0  0  0  0  0
  189.9620  174.2880  142.6280 C   0  0  2  0  0  3  0  0  0  0  0  0
  189.8880  174.9390  147.5670 C   0  0  0  0  0  2  0  0  0  0  0  0
  191.2240  176.6570  147.9330 C   0  0  0  0  0  1  0  0  0  0  0  0
  191.1820  175.2640  147.9760 O   0  0  0  0  0  0  0  0  0  0  0  0
  1  5  1  0  0  0  0
  2 16  1  0  0  0  0
  3 17  2  0  0  0  0
  4 12  1  0  0  0  0
  4  1  2  0  0  0  0
  5 11  1  0  0  0  0
  7 15  1  6  0  0  0
  7 27  1  0  0  0  0
  8  6  2  0  0  0  0
  8 11  1  0  0  0  0
  9 14  1  1  0  0  0
  9 22  1  0  0  0  0
  9  7  1  0  0  0  0
 10  3  1  0  0  0  0
 10 22  1  0  0  0  0
 11 28  1  1  0  0  0
 12  8  1  0  0  0  0
 13  2  1  0  0  0  0
 14 23  1  0  0  0  0
 17 20  1  0  0  0  0
 17 26  1  0  0  0  0
 18 13  2  0  0  0  0
 19  1  1  0  0  0  0
 19  2  2  0  0  0  0
 20  4  1  0  0  0  0
 21 10  1  0  0  0  0
 22 20  2  0  0  0  0
 23 15  1  0  0  0  0
 25 26  2  0  0  0  0
 25 18  1  0  0  0  0
 26 19  1  0  0  0  0
 27 24  1  6  0  0  0
 27 12  1  0  0  0  0
 28 30  1  0  0  0  0
 29 30  1  0  0  0  0
M  END
>  <MODEL>
2

>  <REMARK>
 VINA RESULT:      -8.7      2.735      5.407
  Name = 
  2 active torsions:
  status: ('A' for Active; 'I' for Inactive)
    1  A    between atoms: C_11  and  C_28
    2  A    between atoms: C_28  and  O_30
                            x       y       z     vdW  Elec       q    Type
                         _______ _______ _______ _____ _____    ______ ____

>  <TORSDO>
F 2

$$$$
=
 OpenBabel11112416133D

 30 35  0  0  1  0  0  0  0  0999 V2000
  188.3460  176.2930  143.6470 C   0  0  0  0  0  0  0  0  0  0  0  0
  186.0070  177.1470  143.9870 C   0  0  0  0  0  0  0  0  0  0  0  0
  189.4250  177.4430  147.5480 N   0  0  0  0  0  0  0  0  0  0  0  0
  189.6440  176.0390  144.1760 C   0  0  0  0  0  0  0  0  0  0  0  0
  188.1130  176.0060  142.1890 C   0  0  0  0  0  2  0  0  0  0  0  0
  191.0350  174.1120  141.4040 O   0  0  0  0  0  0  0  0  0  0  0  0
  192.7340  175.9490  144.4700 C   0  0  1  0  0  3  0  0  0  0  0  0
  190.1880  174.6850  142.1460 C   0  0  0  0  0  0  0  0  0  0  0  0
  192.3890  176.3160  145.8610 C   0  0  1  0  0  3  0  0  0  0  0  0
  190.7790  177.0970  147.5620 N   0  0  0  0  0  0  0  0  0  0  0  0
  188.7330  174.6880  141.7700 C   0  0  2  0  0  3  0  0  0  0  0  0
  190.5990  175.2580  143.4020 N   0  0  0  0  0  0  0  0  0  0  0  0
  185.0630  177.7420  144.8280 C   0  0  0  0  0  3  0  0  0  0  0  0
  193.6000  176.3800  146.6970 C   0  0  0  0  0  2  0  0  0  0  0  0
  194.1440  175.5750  144.4780 N   0  0  0  0  0  2  0  0  0  0  0  0
  185.5980  176.7960  142.7050 O   0  0  0  0  0  1  0  0  0  0  0  0
  188.9370  177.0870  146.2560 C   0  0  0  0  0  0  0  0  0  0  0  0
  185.3950  178.1080  146.1300 C   0  0  0  0  0  3  0  0  0  0  0  0
  187.3300  176.9070  144.4510 C   0  0  0  0  0  0  0  0  0  0  0  0
  189.9190  176.5200  145.4710 C   0  0  0  0  0  0  0  0  0  0  0  0
  191.6450  177.3670  148.6980 C   0  0  0  0  0  1  0  0  0  0  0  0
  191.1420  176.5650  146.2820 C   0  0  0  0  0  0  0  0  0  0  0  0
  194.7200  176.1210  145.7080 C   0  0  0  0  0  2  0  0  0  0  0  0
  191.7210  173.6210  144.8810 C   0  0  0  0  0  1  0  0  0  0  0  0
  186.6830  177.8820  146.6070 C   0  0  0  0  0  3  0  0  0  0  0  0
  187.6460  177.2880  145.7860 C   0  0  0  0  0  0  0  0  0  0  0  0
  191.8880  174.8020  143.9280 C   0  0  2  0  0  3  0  0  0  0  0  0
  188.5140  174.4990  140.2750 C   0  0  0  0  0  2  0  0  0  0  0  0
  188.3200  173.0660  138.6090 C   0  0  0  0  0  1  0  0  0  0  0  0
  188.2360  173.1610  139.9980 O   0  0  0  0  0  0  0  0  0  0  0  0
  1  4  2  0  0  0  0
  1 19  1  0  0  0  0
  2 19  2  0  0  0  0
  2 13  1  0  0  0  0
  3 10  1  0  0  0  0
  4 20  1  0  0  0  0
  5  1  1  0  0  0  0
  6  8  2  0  0  0  0
  7 15  1  1  0  0  0
  7  9  1  0  0  0  0
  8 12  1  0  0  0  0
  9 22  1  0  0  0  0
  9 14  1  6  0  0  0
 10 21  1  0  0  0  0
 11 28  1  6  0  0  0
 11  8  1  0  0  0  0
 11  5  1  0  0  0  0
 12 27  1  0  0  0  0
 12  4  1  0  0  0  0
 13 18  2  0  0  0  0
 15 23  1  0  0  0  0
 16  2  1  0  0  0  0
 17  3  2  0  0  0  0
 18 25  1  0  0  0  0
 19 26  1  0  0  0  0
 20 17  1  0  0  0  0
 20 22  2  0  0  0  0
 22 10  1  0  0  0  0
 23 14  1  0  0  0  0
 26 17  1  0  0  0  0
 26 25  2  0  0  0  0
 27  7  1  0  0  0  0
 27 24  1  1  0  0  0
 29 30  1  0  0  0  0
 30 28  1  0  0  0  0
M  END
>  <MODEL>
3

>  <REMARK>
 VINA RESULT:      -8.5      2.153      3.374
  Name = 
  2 active torsions:
  status: ('A' for Active; 'I' for Inactive)
    1  A    between atoms: C_11  and  C_28
    2  A    between atoms: C_28  and  O_30
                            x       y       z     vdW  Elec       q    Type
                         _______ _______ _______ _____ _____    ______ ____

>  <TORSDO>
F 2

$$$$
=
 OpenBabel11112416133D

 30 35  0  0  1  0  0  0  0  0999 V2000
  189.3150  175.3570  144.1020 C   0  0  0  0  0  0  0  0  0  0  0  0
  191.1510  174.5150  145.5960 C   0  0  0  0  0  0  0  0  0  0  0  0
  187.8470  177.8420  147.1640 N   0  0  0  0  0  0  0  0  0  0  0  0
  188.2070  176.2280  143.8990 C   0  0  0  0  0  0  0  0  0  0  0  0
  189.6520  174.3830  143.0070 C   0  0  0  0  0  2  0  0  0  0  0  0
  187.6750  175.6740  140.3290 O   0  0  0  0  0  0  0  0  0  0  0  0
  185.3800  177.2620  143.1350 C   0  0  1  0  0  3  0  0  0  0  0  0
  188.2350  175.6710  141.4620 C   0  0  0  0  0  0  0  0  0  0  0  0
  185.5470  177.9950  144.4080 C   0  0  1  0  0  3  0  0  0  0  0  0
  186.7250  178.3960  146.5410 N   0  0  0  0  0  0  0  0  0  0  0  0
  189.5820  175.0300  141.6370 C   0  0  2  0  0  3  0  0  0  0  0  0
  187.6260  176.3620  142.5700 N   0  0  0  0  0  0  0  0  0  0  0  0
  191.7920  174.5480  146.8370 C   0  0  0  0  0  3  0  0  0  0  0  0
  184.3960  178.8800  144.6550 C   0  0  0  0  0  2  0  0  0  0  0  0
  184.2170  177.8440  142.4720 N   0  0  0  0  0  2  0  0  0  0  0  0
  191.6740  173.6680  144.6240 O   0  0  0  0  0  1  0  0  0  0  0  0
  188.4440  176.9720  146.2050 C   0  0  0  0  0  0  0  0  0  0  0  0
  191.3340  175.3810  147.8560 C   0  0  0  0  0  3  0  0  0  0  0  0
  190.0150  175.3340  145.3520 C   0  0  0  0  0  0  0  0  0  0  0  0
  187.7580  176.9720  145.0080 C   0  0  0  0  0  0  0  0  0  0  0  0
  185.8120  179.2950  147.2280 C   0  0  0  0  0  1  0  0  0  0  0  0
  186.6020  177.8530  145.2210 C   0  0  0  0  0  0  0  0  0  0  0  0
  183.4670  178.5720  143.4960 C   0  0  0  0  0  2  0  0  0  0  0  0
  187.1970  178.7520  142.0900 C   0  0  0  0  0  1  0  0  0  0  0  0
  190.2240  176.1930  147.6410 C   0  0  0  0  0  3  0  0  0  0  0  0
  189.5670  176.1780  146.4070 C   0  0  0  0  0  0  0  0  0  0  0  0
  186.6030  177.3520  142.2290 C   0  0  2  0  0  3  0  0  0  0  0  0
  189.8700  173.9710  140.5820 C   0  0  0  0  0  2  0  0  0  0  0  0
  188.6450  172.4850  139.5050 C   0  0  0  0  0  1  0  0  0  0  0  0
  189.0530  172.8590  140.7850 O   0  0  0  0  0  0  0  0  0  0  0  0
  1 19  1  0  0  0  0
  2 13  1  0  0  0  0
  4  1  2  0  0  0  0
  4 20  1  0  0  0  0
  5  1  1  0  0  0  0
  6  8  2  0  0  0  0
  7 15  1  6  0  0  0
  7  9  1  0  0  0  0
  8 11  1  0  0  0  0
  8 12  1  0  0  0  0
  9 14  1  1  0  0  0
  9 22  1  0  0  0  0
 10  3  1  0  0  0  0
 10 21  1  0  0  0  0
 11 28  1  6  0  0  0
 11  5  1  0  0  0  0
 12  4  1  0  0  0  0
 13 18  2  0  0  0  0
 15 23  1  0  0  0  0
 16  2  1  0  0  0  0
 17 26  1  0  0  0  0
 17  3  2  0  0  0  0
 19  2  2  0  0  0  0
 19 26  1  0  0  0  0
 20 22  2  0  0  0  0
 20 17  1  0  0  0  0
 22 10  1  0  0  0  0
 23 14  1  0  0  0  0
 25 18  1  0  0  0  0
 26 25  2  0  0  0  0
 27 24  1  1  0  0  0
 27 12  1  0  0  0  0
 27  7  1  0  0  0  0
 28 30  1  0  0  0  0
 29 30  1  0  0  0  0
M  END
>  <MODEL>
4

>  <REMARK>
 VINA RESULT:      -8.0      2.204      5.632
  Name = 
  2 active torsions:
  status: ('A' for Active; 'I' for Inactive)
    1  A    between atoms: C_11  and  C_28
    2  A    between atoms: C_28  and  O_30
                            x       y       z     vdW  Elec       q    Type
                         _______ _______ _______ _____ _____    ______ ____

>  <TORSDO>
F 2

$$$$
=
 OpenBabel11112416133D

 30 35  0  0  1  0  0  0  0  0999 V2000
  188.6960  176.4050  145.4810 C   0  0  0  0  0  0  0  0  0  0  0  0
  186.6260  177.6740  146.1270 C   0  0  0  0  0  0  0  0  0  0  0  0
  187.2370  175.8440  141.5740 N   0  0  0  0  0  0  0  0  0  0  0  0
  189.4590  175.7400  144.4790 C   0  0  0  0  0  0  0  0  0  0  0  0
  189.2270  176.4000  146.8870 C   0  0  0  0  0  2  0  0  0  0  0  0
  192.5620  175.2480  146.3420 O   0  0  0  0  0  0  0  0  0  0  0  0
  191.1690  173.5920  143.0280 C   0  0  1  0  0  3  0  0  0  0  0  0
  191.4210  175.6930  146.0290 C   0  0  0  0  0  0  0  0  0  0  0  0
  190.2750  173.9560  141.9080 C   0  0  1  0  0  3  0  0  0  0  0  0
  188.2580  175.0680  141.0180 N   0  0  0  0  0  0  0  0  0  0  0  0
  190.7180  176.6700  146.9270 C   0  0  2  0  0  3  0  0  0  0  0  0
  190.8310  175.3380  144.7640 N   0  0  0  0  0  0  0  0  0  0  0  0
  185.3840  178.2010  145.7610 C   0  0  0  0  0  3  0  0  0  0  0  0
  190.6500  173.2290  140.6840 C   0  0  0  0  0  2  0  0  0  0  0  0
  192.2460  172.7910  142.4530 N   0  0  0  0  0  2  0  0  0  0  0  0
  187.0540  177.8820  147.4340 O   0  0  0  0  0  1  0  0  0  0  0  0
  187.6280  176.1100  142.9190 C   0  0  0  0  0  0  0  0  0  0  0  0
  184.8950  178.0450  144.4670 C   0  0  0  0  0  3  0  0  0  0  0  0
  187.4120  176.9640  145.1780 C   0  0  0  0  0  0  0  0  0  0  0  0
  188.8520  175.5520  143.2220 C   0  0  0  0  0  0  0  0  0  0  0  0
  188.1910  174.5390  139.6660 C   0  0  0  0  0  1  0  0  0  0  0  0
  189.2570  174.8210  142.0140 C   0  0  0  0  0  0  0  0  0  0  0  0
  191.7750  172.3250  141.1480 C   0  0  0  0  0  2  0  0  0  0  0  0
  192.2760  175.9060  142.8360 C   0  0  0  0  0  1  0  0  0  0  0  0
  185.6470  177.3560  143.5200 C   0  0  0  0  0  3  0  0  0  0  0  0
  186.8920  176.8200  143.8600 C   0  0  0  0  0  0  0  0  0  0  0  0
  191.7450  174.8050  143.7510 C   0  0  2  0  0  3  0  0  0  0  0  0
  191.1920  176.5840  148.3720 C   0  0  0  0  0  2  0  0  0  0  0  0
  191.5660  178.1390  149.8910 C   0  0  0  0  0  1  0  0  0  0  0  0
  192.0290  177.6610  148.6660 O   0  0  0  0  0  0  0  0  0  0  0  0
  1  5  1  0  0  0  0
  2 16  1  0  0  0  0
  3 17  2  0  0  0  0
  4 12  1  0  0  0  0
  4  1  2  0  0  0  0
  5 11  1  0  0  0  0
  7 15  1  6  0  0  0
  7 27  1  0  0  0  0
  8  6  2  0  0  0  0
  8 11  1  0  0  0  0
  9 14  1  1  0  0  0
  9 22  1  0  0  0  0
  9  7  1  0  0  0  0
 10  3  1  0  0  0  0
 10 22  1  0  0  0  0
 11 28  1  1  0  0  0
 12  8  1  0  0  0  0
 13  2  1  0  0  0  0
 14 23  1  0  0  0  0
 17 20  1  0  0  0  0
 17 26  1  0  0  0  0
 18 13  2  0  0  0  0
 19  1  1  0  0  0  0
 19  2  2  0  0  0  0
 20  4  1  0  0  0  0
 21 10  1  0  0  0  0
 22 20  2  0  0  0  0
 23 15  1  0  0  0  0
 25 26  2  0  0  0  0
 25 18  1  0  0  0  0
 26 19  1  0  0  0  0
 27 24  1  6  0  0  0
 27 12  1  0  0  0  0
 28 30  1  0  0  0  0
 30 29  1  0  0  0  0
M  END
>  <MODEL>
5

>  <REMARK>
 VINA RESULT:      -7.8      2.969      5.552
  Name = 
  2 active torsions:
  status: ('A' for Active; 'I' for Inactive)
    1  A    between atoms: C_11  and  C_28
    2  A    between atoms: C_28  and  O_30
                            x       y       z     vdW  Elec       q    Type
                         _______ _______ _______ _____ _____    ______ ____

>  <TORSDO>
F 2

$$$$
=
 OpenBabel11112416133D

 30 35  0  0  1  0  0  0  0  0999 V2000
  188.2370  175.7560  142.7360 C   0  0  0  0  0  0  0  0  0  0  0  0
  186.1130  177.0580  143.0700 C   0  0  0  0  0  0  0  0  0  0  0  0
  189.2130  176.1380  146.8110 N   0  0  0  0  0  0  0  0  0  0  0  0
  189.4030  175.1560  143.2920 C   0  0  0  0  0  0  0  0  0  0  0  0
  188.0690  175.7130  141.2430 C   0  0  0  0  0  2  0  0  0  0  0  0
  190.5750  173.3310  140.3530 O   0  0  0  0  0  0  0  0  0  0  0  0
  192.3690  174.3460  143.7320 C   0  0  1  0  0  3  0  0  0  0  0  0
  189.8110  173.9810  141.1220 C   0  0  0  0  0  0  0  0  0  0  0  0
  191.9970  174.6020  145.1400 C   0  0  1  0  0  3  0  0  0  0  0  0
  190.4570  175.5010  146.8470 N   0  0  0  0  0  0  0  0  0  0  0  0
  188.4260  174.3540  140.6750 C   0  0  2  0  0  3  0  0  0  0  0  0
  190.2300  174.2850  142.4660 N   0  0  0  0  0  0  0  0  0  0  0  0
  185.2520  177.7370  143.9350 C   0  0  0  0  0  3  0  0  0  0  0  0
  193.1210  174.2910  146.0390 C   0  0  0  0  0  2  0  0  0  0  0  0
  193.6610  173.6700  143.7610 N   0  0  0  0  0  2  0  0  0  0  0  0
  185.7450  176.9710  141.7320 O   0  0  0  0  0  1  0  0  0  0  0  0
  188.7680  176.0650  145.4580 C   0  0  0  0  0  0  0  0  0  0  0  0
  185.5470  177.8540  145.2920 C   0  0  0  0  0  3  0  0  0  0  0  0
  187.3130  176.4740  143.5640 C   0  0  0  0  0  0  0  0  0  0  0  0
  189.6680  175.3970  144.6540 C   0  0  0  0  0  0  0  0  0  0  0  0
  191.2640  175.4270  148.0540 C   0  0  0  0  0  1  0  0  0  0  0  0
  190.8020  175.0670  145.5270 C   0  0  0  0  0  0  0  0  0  0  0  0
  194.2370  173.9160  145.0840 C   0  0  0  0  0  2  0  0  0  0  0  0
  190.8540  172.2680  143.7580 C   0  0  0  0  0  1  0  0  0  0  0  0
  186.7140  177.2900  145.7990 C   0  0  0  0  0  3  0  0  0  0  0  0
  187.5920  176.6050  144.9540 C   0  0  0  0  0  0  0  0  0  0  0  0
  191.3450  173.4930  142.9900 C   0  0  2  0  0  3  0  0  0  0  0  0
  188.2940  174.4080  139.1590 C   0  0  0  0  0  2  0  0  0  0  0  0
  187.3370  175.3430  137.4050 C   0  0  0  0  0  1  0  0  0  0  0  0
  187.4600  175.4630  138.7890 O   0  0  0  0  0  0  0  0  0  0  0  0
  1  4  2  0  0  0  0
  1 19  1  0  0  0  0
  2 19  2  0  0  0  0
  2 13  1  0  0  0  0
  3 10  1  0  0  0  0
  4 20  1  0  0  0  0
  5  1  1  0  0  0  0
  6  8  2  0  0  0  0
  7 15  1  1  0  0  0
  7  9  1  0  0  0  0
  8 12  1  0  0  0  0
  9 22  1  0  0  0  0
  9 14  1  6  0  0  0
 10 21  1  0  0  0  0
 11 28  1  6  0  0  0
 11  8  1  0  0  0  0
 11  5  1  0  0  0  0
 12 27  1  0  0  0  0
 12  4  1  0  0  0  0
 13 18  2  0  0  0  0
 15 23  1  0  0  0  0
 16  2  1  0  0  0  0
 17  3  2  0  0  0  0
 18 25  1  0  0  0  0
 19 26  1  0  0  0  0
 20 17  1  0  0  0  0
 20 22  2  0  0  0  0
 22 10  1  0  0  0  0
 23 14  1  0  0  0  0
 26 17  1  0  0  0  0
 26 25  2  0  0  0  0
 27  7  1  0  0  0  0
 27 24  1  1  0  0  0
 29 30  1  0  0  0  0
 30 28  1  0  0  0  0
M  END
>  <MODEL>
6

>  <REMARK>
 VINA RESULT:      -7.6      1.931      3.082
  Name = 
  2 active torsions:
  status: ('A' for Active; 'I' for Inactive)
    1  A    between atoms: C_11  and  C_28
    2  A    between atoms: C_28  and  O_30
                            x       y       z     vdW  Elec       q    Type
                         _______ _______ _______ _____ _____    ______ ____

>  <TORSDO>
F 2

$$$$
=
 OpenBabel11112416133D

 30 35  0  0  1  0  0  0  0  0999 V2000
  186.8070  176.5910  143.8790 C   0  0  0  0  0  0  0  0  0  0  0  0
  185.0900  178.0300  142.7400 C   0  0  0  0  0  0  0  0  0  0  0  0
  188.2980  175.2830  140.1670 N   0  0  0  0  0  0  0  0  0  0  0  0
  187.9220  175.7090  143.7820 C   0  0  0  0  0  0  0  0  0  0  0  0
  186.2400  176.8580  145.2450 C   0  0  0  0  0  2  0  0  0  0  0  0
  188.8180  175.5150  147.3170 O   0  0  0  0  0  0  0  0  0  0  0  0
  189.7760  173.2560  144.2110 C   0  0  1  0  0  3  0  0  0  0  0  0
  188.2810  175.9210  146.2470 C   0  0  0  0  0  0  0  0  0  0  0  0
  189.9470  173.4100  142.7510 C   0  0  1  0  0  3  0  0  0  0  0  0
  189.2790  174.3770  140.5800 N   0  0  0  0  0  0  0  0  0  0  0  0
  187.3310  177.0840  146.2730 C   0  0  2  0  0  3  0  0  0  0  0  0
  188.6500  175.3320  144.9860 N   0  0  0  0  0  0  0  0  0  0  0  0
  184.5300  178.5090  141.5520 C   0  0  0  0  0  3  0  0  0  0  0  0
  190.9230  172.4350  142.2350 C   0  0  0  0  0  2  0  0  0  0  0  0
  190.8060  172.3200  144.6530 N   0  0  0  0  0  2  0  0  0  0  0  0
  184.5520  178.4890  143.9370 O   0  0  0  0  0  1  0  0  0  0  0  0
  187.7160  175.8080  141.3590 C   0  0  0  0  0  0  0  0  0  0  0  0
  185.0260  178.1050  140.3150 C   0  0  0  0  0  3  0  0  0  0  0  0
  186.1790  177.1160  142.7020 C   0  0  0  0  0  0  0  0  0  0  0  0
  188.3010  175.2860  142.4930 C   0  0  0  0  0  0  0  0  0  0  0  0
  190.0560  173.5840  139.6420 C   0  0  0  0  0  1  0  0  0  0  0  0
  189.2860  174.3100  142.0100 C   0  0  0  0  0  0  0  0  0  0  0  0
  191.2700  171.6100  143.4600 C   0  0  0  0  0  2  0  0  0  0  0  0
  191.0840  175.4450  144.5500 C   0  0  0  0  0  1  0  0  0  0  0  0
  186.0910  177.2130  140.2520 C   0  0  0  0  0  3  0  0  0  0  0  0
  186.6690  176.7190  141.4250 C   0  0  0  0  0  0  0  0  0  0  0  0
  189.9030  174.5730  144.9700 C   0  0  2  0  0  3  0  0  0  0  0  0
  186.6830  177.2830  147.6370 C   0  0  0  0  0  2  0  0  0  0  0  0
  185.9750  179.3710  147.6880 C   0  0  0  0  0  1  0  0  0  0  0  0
  185.5320  178.0610  147.5110 O   0  0  0  0  0  0  0  0  0  0  0  0
  1  5  1  0  0  0  0
  2 16  1  0  0  0  0
  3 10  1  0  0  0  0
  3 17  2  0  0  0  0
  4  1  2  0  0  0  0
  4 12  1  0  0  0  0
  5 11  1  0  0  0  0
  7 15  1  1  0  0  0
  7 27  1  0  0  0  0
  8 11  1  0  0  0  0
  8  6  2  0  0  0  0
  9 14  1  6  0  0  0
  9  7  1  0  0  0  0
 10 22  1  0  0  0  0
 11 28  1  1  0  0  0
 12  8  1  0  0  0  0
 13  2  2  0  0  0  0
 14 23  1  0  0  0  0
 17 26  1  0  0  0  0
 17 20  1  0  0  0  0
 18 13  1  0  0  0  0
 19  2  1  0  0  0  0
 19  1  1  0  0  0  0
 20  4  1  0  0  0  0
 21 10  1  0  0  0  0
 22 20  2  0  0  0  0
 22  9  1  0  0  0  0
 23 15  1  0  0  0  0
 25 18  2  0  0  0  0
 25 26  1  0  0  0  0
 26 19  2  0  0  0  0
 27 24  1  6  0  0  0
 27 12  1  0  0  0  0
 30 28  1  0  0  0  0
 30 29  1  0  0  0  0
M  END
>  <MODEL>
7

>  <REMARK>
 VINA RESULT:      -7.6      2.237      4.974
  Name = 
  2 active torsions:
  status: ('A' for Active; 'I' for Inactive)
    1  A    between atoms: C_11  and  C_28
    2  A    between atoms: C_28  and  O_30
                            x       y       z     vdW  Elec       q    Type
                         _______ _______ _______ _____ _____    ______ ____

>  <TORSDO>
F 2

$$$$
=
 OpenBabel11112416133D

 30 35  0  0  1  0  0  0  0  0999 V2000
  188.3380  176.1200  144.2160 C   0  0  0  0  0  0  0  0  0  0  0  0
  186.8680  178.0380  144.9040 C   0  0  0  0  0  0  0  0  0  0  0  0
  187.0990  176.4940  140.2120 N   0  0  0  0  0  0  0  0  0  0  0  0
  188.8660  175.2940  143.1820 C   0  0  0  0  0  0  0  0  0  0  0  0
  188.7090  175.7920  145.6350 C   0  0  0  0  0  2  0  0  0  0  0  0
  191.3790  173.4810  145.1140 O   0  0  0  0  0  0  0  0  0  0  0  0
  189.7340  172.7760  141.5840 C   0  0  1  0  0  3  0  0  0  0  0  0
  190.5270  174.3590  144.8020 C   0  0  0  0  0  0  0  0  0  0  0  0
  189.1420  173.5510  140.4730 C   0  0  1  0  0  3  0  0  0  0  0  0
  187.7850  175.4300  139.6210 N   0  0  0  0  0  0  0  0  0  0  0  0
  190.1820  175.4560  145.7690 C   0  0  2  0  0  3  0  0  0  0  0  0
  189.9500  174.3680  143.4820 N   0  0  0  0  0  0  0  0  0  0  0  0
  185.9570  179.0350  144.5430 C   0  0  0  0  0  3  0  0  0  0  0  0
  189.3080  172.8380  139.1950 C   0  0  0  0  0  2  0  0  0  0  0  0
  190.4630  171.6690  140.9750 N   0  0  0  0  0  2  0  0  0  0  0  0
  187.2340  177.9540  146.2420 O   0  0  0  0  0  1  0  0  0  0  0  0
  187.4510  176.4750  141.5930 C   0  0  0  0  0  0  0  0  0  0  0  0
  185.5530  179.1890  143.2190 C   0  0  0  0  0  3  0  0  0  0  0  0
  187.3960  177.1580  143.9190 C   0  0  0  0  0  0  0  0  0  0  0  0
  188.3380  175.4610  141.8870 C   0  0  0  0  0  0  0  0  0  0  0  0
  187.6320  175.0820  138.2180 C   0  0  0  0  0  1  0  0  0  0  0  0
  188.5290  174.7320  140.6270 C   0  0  0  0  0  0  0  0  0  0  0  0
  189.9580  171.5320  139.6080 C   0  0  0  0  0  2  0  0  0  0  0  0
  191.6550  174.4830  141.6910 C   0  0  0  0  0  1  0  0  0  0  0  0
  186.0570  178.3410  142.2370 C   0  0  0  0  0  3  0  0  0  0  0  0
  186.9690  177.3360  142.5720 C   0  0  0  0  0  0  0  0  0  0  0  0
  190.6700  173.6050  142.4580 C   0  0  2  0  0  3  0  0  0  0  0  0
  190.4660  175.0740  147.2150 C   0  0  0  0  0  2  0  0  0  0  0  0
  192.2290  176.3990  147.2680 C   0  0  0  0  0  1  0  0  0  0  0  0
  191.0080  176.1620  147.8990 O   0  0  0  0  0  0  0  0  0  0  0  0
  1  5  1  0  0  0  0
  2 16  1  0  0  0  0
  3 17  2  0  0  0  0
  4 12  1  0  0  0  0
  4  1  2  0  0  0  0
  5 11  1  0  0  0  0
  7 15  1  6  0  0  0
  7 27  1  0  0  0  0
  8  6  2  0  0  0  0
  8 11  1  0  0  0  0
  9 14  1  1  0  0  0
  9 22  1  0  0  0  0
  9  7  1  0  0  0  0
 10  3  1  0  0  0  0
 10 22  1  0  0  0  0
 11 28  1  1  0  0  0
 12  8  1  0  0  0  0
 13  2  1  0  0  0  0
 14 23  1  0  0  0  0
 17 20  1  0  0  0  0
 17 26  1  0  0  0  0
 18 13  2  0  0  0  0
 19  1  1  0  0  0  0
 19  2  2  0  0  0  0
 20  4  1  0  0  0  0
 21 10  1  0  0  0  0
 22 20  2  0  0  0  0
 23 15  1  0  0  0  0
 25 26  2  0  0  0  0
 25 18  1  0  0  0  0
 26 19  1  0  0  0  0
 27 24  1  6  0  0  0
 27 12  1  0  0  0  0
 28 30  1  0  0  0  0
 29 30  1  0  0  0  0
M  END
>  <MODEL>
8

>  <REMARK>
 VINA RESULT:      -7.6      2.869      5.669
  Name = 
  2 active torsions:
  status: ('A' for Active; 'I' for Inactive)
    1  A    between atoms: C_11  and  C_28
    2  A    between atoms: C_28  and  O_30
                            x       y       z     vdW  Elec       q    Type
                         _______ _______ _______ _____ _____    ______ ____

>  <TORSDO>
F 2

$$$$
=
 OpenBabel11112416133D

 30 35  0  0  1  0  0  0  0  0999 V2000
  189.1940  176.2870  144.8440 C   0  0  0  0  0  0  0  0  0  0  0  0
  190.2410  176.8890  147.0470 C   0  0  0  0  0  0  0  0  0  0  0  0
  192.2600  173.5190  144.0450 N   0  0  0  0  0  0  0  0  0  0  0  0
  189.1970  175.4830  143.6680 C   0  0  0  0  0  0  0  0  0  0  0  0
  188.1550  177.3680  144.9530 C   0  0  0  0  0  2  0  0  0  0  0  0
  185.9610  176.4620  142.2870 O   0  0  0  0  0  0  0  0  0  0  0  0
  189.0870  174.6420  140.6810 C   0  0  1  0  0  3  0  0  0  0  0  0
  186.9050  176.3160  143.1130 C   0  0  0  0  0  0  0  0  0  0  0  0
  190.1920  173.7620  141.1180 C   0  0  1  0  0  3  0  0  0  0  0  0
  191.8950  173.0780  142.7700 N   0  0  0  0  0  0  0  0  0  0  0  0
  186.7910  176.8860  144.4990 C   0  0  2  0  0  3  0  0  0  0  0  0
  188.0560  175.5240  142.7630 N   0  0  0  0  0  0  0  0  0  0  0  0
  191.2650  176.6910  147.9770 C   0  0  0  0  0  3  0  0  0  0  0  0
  190.6360  172.8950  140.0140 C   0  0  0  0  0  2  0  0  0  0  0  0
  188.6910  174.1800  139.3540 N   0  0  0  0  0  2  0  0  0  0  0  0
  189.2600  177.8230  147.3590 O   0  0  0  0  0  1  0  0  0  0  0  0
  191.2740  174.4720  144.4340 C   0  0  0  0  0  0  0  0  0  0  0  0
  192.2760  175.7620  147.7410 C   0  0  0  0  0  3  0  0  0  0  0  0
  190.2170  176.1420  145.8370 C   0  0  0  0  0  0  0  0  0  0  0  0
  190.3020  174.6330  143.4690 C   0  0  0  0  0  0  0  0  0  0  0  0
  192.6990  172.1380  142.0060 C   0  0  0  0  0  1  0  0  0  0  0  0
  190.7150  173.7740  142.3520 C   0  0  0  0  0  0  0  0  0  0  0  0
  189.7940  173.3650  138.8430 C   0  0  0  0  0  2  0  0  0  0  0  0
  187.4610  173.2200  142.0780 C   0  0  0  0  0  1  0  0  0  0  0  0
  192.2730  175.0190  146.5650 C   0  0  0  0  0  3  0  0  0  0  0  0
  191.2600  175.1980  145.6180 C   0  0  0  0  0  0  0  0  0  0  0  0
  187.8910  174.6140  141.6260 C   0  0  2  0  0  3  0  0  0  0  0  0
  185.8110  178.0490  144.5760 C   0  0  0  0  0  2  0  0  0  0  0  0
  184.2530  178.6740  146.0070 C   0  0  0  0  0  1  0  0  0  0  0  0
  185.6210  178.4260  145.9060 O   0  0  0  0  0  0  0  0  0  0  0  0
  1  5  1  0  0  0  0
  1 19  1  0  0  0  0
  2 16  1  0  0  0  0
  2 13  1  0  0  0  0
  3 17  2  0  0  0  0
  4  1  2  0  0  0  0
  6  8  2  0  0  0  0
  7 15  1  6  0  0  0
  7  9  1  0  0  0  0
  7 27  1  0  0  0  0
  8 11  1  0  0  0  0
  9 14  1  6  0  0  0
  9 22  1  0  0  0  0
 10  3  1  0  0  0  0
 11 28  1  6  0  0  0
 11  5  1  0  0  0  0
 12  8  1  0  0  0  0
 12  4  1  0  0  0  0
 17 26  1  0  0  0  0
 18 13  2  0  0  0  0
 19  2  2  0  0  0  0
 20  4  1  0  0  0  0
 20 17  1  0  0  0  0
 21 10  1  0  0  0  0
 22 10  1  0  0  0  0
 22 20  2  0  0  0  0
 23 15  1  0  0  0  0
 23 14  1  0  0  0  0
 25 18  1  0  0  0  0
 26 19  1  0  0  0  0
 26 25  2  0  0  0  0
 27 24  1  1  0  0  0
 27 12  1  0  0  0  0
 28 30  1  0  0  0  0
 30 29  1  0  0  0  0
M  END
>  <MODEL>
9

>  <REMARK>
 VINA RESULT:      -7.4      2.277      4.700
  Name = 
  2 active torsions:
  status: ('A' for Active; 'I' for Inactive)
    1  A    between atoms: C_11  and  C_28
    2  A    between atoms: C_28  and  O_30
                            x       y       z     vdW  Elec       q    Type
                         _______ _______ _______ _____ _____    ______ ____

>  <TORSDO>
F 2

$$$$
