=
 OpenBabel11112417393D

 28 32  0  0  1  0  0  0  0  0999 V2000
  190.0970  175.4770  142.8300 C   0  0  0  0  0  0  0  0  0  0  0  0
  187.8530  177.9150  140.8910 O   0  0  0  0  0  0  0  0  0  0  0  0
  186.9960  178.4650  147.4940 O   0  0  0  0  0  0  0  0  0  0  0  0
  188.9960  173.0500  141.9610 C   0  0  0  0  0  3  0  0  0  0  0  0
  185.6730  176.7440  146.4170 C   0  0  2  0  0  3  0  0  0  0  0  0
  190.7380  176.7250  143.3480 C   0  0  0  0  0  2  0  0  0  0  0  0
  185.4600  177.5770  140.4790 O   0  0  0  0  0  0  0  0  0  0  0  0
  186.5020  177.8050  141.5380 S   0  0  0  0  0  0  0  0  0  0  0  0
  185.9300  178.9210  143.7860 C   0  0  1  0  0  3  0  0  0  0  0  0
  186.4720  176.4460  142.6970 C   0  0  2  0  0  3  0  0  0  0  0  0
  190.6920  176.7230  147.0100 O   0  0  0  0  0  0  0  0  0  0  0  0
  187.4970  176.0830  144.9110 C   0  0  2  0  0  3  0  0  0  0  0  0
  184.8900  177.9760  143.8960 O   0  0  0  0  0  0  0  0  0  0  0  0
  186.1410  179.2700  142.3880 N   0  0  0  0  0  2  0  0  0  0  0  0
  190.3640  177.0340  145.8360 C   0  0  0  0  0  0  0  0  0  0  0  0
  188.7010  175.2840  142.8800 C   0  0  0  0  0  0  0  0  0  0  0  0
  186.8870  177.5600  146.6260 C   0  0  0  0  0  0  0  0  0  0  0  0
  185.5660  180.1680  144.5650 C   0  0  0  0  0  1  0  0  0  0  0  0
  189.1870  177.9260  145.6150 C   0  0  0  0  0  2  0  0  0  0  0  0
  188.1630  174.0570  142.4550 C   0  0  0  0  0  3  0  0  0  0  0  0
  190.9230  174.4600  142.3380 C   0  0  0  0  0  3  0  0  0  0  0  0
  190.3740  173.2530  141.8990 C   0  0  0  0  0  3  0  0  0  0  0  0
  191.1300  176.5350  144.7370 N   0  0  0  0  0  2  0  0  0  0  0  0
  185.9710  176.0410  145.0720 C   0  0  2  0  0  3  0  0  0  0  0  0
  187.9400  177.1820  145.7600 N   0  0  0  0  0  0  0  0  0  0  0  0
  185.4000  176.6520  143.7770 C   0  0  2  0  0  3  0  0  0  0  0  0
  184.5140  177.5230  146.4010 O   0  0  0  0  0  1  0  0  0  0  0  0
  187.7990  176.3520  143.4400 C   0  0  1  0  0  3  0  0  0  0  0  0
  1 16  1  0  0  0  0
  1  6  1  0  0  0  0
  2  8  2  0  0  0  0
  4 20  1  0  0  0  0
  5 27  1  6  0  0  0
  5 17  1  0  0  0  0
  6 23  1  0  0  0  0
  7  8  2  0  0  0  0
  8 14  1  0  0  0  0
  9 13  1  0  0  0  0
  9 18  1  1  0  0  0
 10  8  1  6  0  0  0
 10 28  1  0  0  0  0
 10 26  1  0  0  0  0
 12 24  1  0  0  0  0
 12 25  1  1  0  0  0
 14  9  1  0  0  0  0
 15 11  2  0  0  0  0
 16 28  1  0  0  0  0
 17  3  2  0  0  0  0
 19 25  1  0  0  0  0
 19 15  1  0  0  0  0
 20 16  2  0  0  0  0
 21  1  2  0  0  0  0
 22  4  2  0  0  0  0
 22 21  1  0  0  0  0
 23 15  1  0  0  0  0
 24  5  1  0  0  0  0
 25 17  1  0  0  0  0
 26 13  1  0  0  0  0
 26 24  1  0  0  0  0
 28 12  1  0  0  0  0
M  END
>  <MODEL>
1

>  <REMARK>
 VINA RESULT:      -7.7      0.000      0.000
  Name = 
  0 active torsions:
  status: ('A' for Active; 'I' for Inactive)
                            x       y       z     vdW  Elec       q    Type
                         _______ _______ _______ _____ _____    ______ ____

>  <TORSDO>
F 0

$$$$
=
 OpenBabel11112417393D

 28 32  0  0  1  0  0  0  0  0999 V2000
  185.6440  177.1420  143.7020 C   0  0  0  0  0  0  0  0  0  0  0  0
  187.1660  173.8710  142.3880 O   0  0  0  0  0  0  0  0  0  0  0  0
  191.0520  176.7450  147.0010 O   0  0  0  0  0  0  0  0  0  0  0  0
  185.7300  178.6660  141.3510 C   0  0  0  0  0  3  0  0  0  0  0  0
  191.3720  177.5410  144.7350 C   0  0  2  0  0  3  0  0  0  0  0  0
  185.5660  176.4010  144.9990 C   0  0  0  0  0  2  0  0  0  0  0  0
  188.9850  173.7430  140.7500 O   0  0  0  0  0  0  0  0  0  0  0  0
  188.6130  174.1850  142.1370 S   0  0  0  0  0  0  0  0  0  0  0  0
  190.3580  174.3480  144.0230 C   0  0  1  0  0  3  0  0  0  0  0  0
  188.9100  175.9400  142.2970 C   0  0  2  0  0  3  0  0  0  0  0  0
  187.2910  178.2920  147.6190 O   0  0  0  0  0  0  0  0  0  0  0  0
  188.9710  177.4810  144.2220 C   0  0  2  0  0  3  0  0  0  0  0  0
  191.1280  175.1210  143.1300 O   0  0  0  0  0  0  0  0  0  0  0  0
  189.6000  173.3460  143.2860 N   0  0  0  0  0  2  0  0  0  0  0  0
  187.0940  177.3930  146.7620 C   0  0  0  0  0  0  0  0  0  0  0  0
  186.8390  177.2130  142.9580 C   0  0  0  0  0  0  0  0  0  0  0  0
  190.5730  177.0570  145.8790 C   0  0  0  0  0  0  0  0  0  0  0  0
  191.2720  173.6580  145.0140 C   0  0  0  0  0  1  0  0  0  0  0  0
  188.1860  176.4190  146.4580 C   0  0  0  0  0  2  0  0  0  0  0  0
  186.8730  177.9930  141.7900 C   0  0  0  0  0  3  0  0  0  0  0  0
  184.5050  177.8240  143.2580 C   0  0  0  0  0  3  0  0  0  0  0  0
  184.5460  178.5780  142.0830 C   0  0  0  0  0  3  0  0  0  0  0  0
  185.8290  177.3140  146.1020 N   0  0  0  0  0  2  0  0  0  0  0  0
  190.3590  177.4700  143.5670 C   0  0  2  0  0  3  0  0  0  0  0  0
  189.1890  177.0210  145.5880 N   0  0  0  0  0  0  0  0  0  0  0  0
  190.3760  176.2310  142.6500 C   0  0  2  0  0  3  0  0  0  0  0  0
  192.5190  176.7710  144.5320 O   0  0  0  0  0  1  0  0  0  0  0  0
  188.0840  176.5170  143.4400 C   0  0  1  0  0  3  0  0  0  0  0  0
  1  6  1  0  0  0  0
  4 20  2  0  0  0  0
  4 22  1  0  0  0  0
  5 27  1  6  0  0  0
  5 17  1  0  0  0  0
  6 23  1  0  0  0  0
  7  8  2  0  0  0  0
  8  2  2  0  0  0  0
  8 14  1  0  0  0  0
  9 18  1  1  0  0  0
 10  8  1  1  0  0  0
 10 26  1  0  0  0  0
 10 28  1  0  0  0  0
 12 25  1  1  0  0  0
 13  9  1  0  0  0  0
 14  9  1  0  0  0  0
 15 11  2  0  0  0  0
 16 28  1  0  0  0  0
 16  1  2  0  0  0  0
 17  3  2  0  0  0  0
 19 15  1  0  0  0  0
 20 16  1  0  0  0  0
 21  1  1  0  0  0  0
 22 21  2  0  0  0  0
 23 15  1  0  0  0  0
 24 12  1  0  0  0  0
 24  5  1  0  0  0  0
 25 17  1  0  0  0  0
 25 19  1  0  0  0  0
 26 13  1  0  0  0  0
 26 24  1  0  0  0  0
 28 12  1  0  0  0  0
M  END
>  <MODEL>
2

>  <REMARK>
 VINA RESULT:      -7.7      2.346      5.253
  Name = 
  0 active torsions:
  status: ('A' for Active; 'I' for Inactive)
                            x       y       z     vdW  Elec       q    Type
                         _______ _______ _______ _____ _____    ______ ____

>  <TORSDO>
F 0

$$$$
=
 OpenBabel11112417393D

 28 32  0  0  1  0  0  0  0  0999 V2000
  192.7100  174.0660  144.7310 C   0  0  0  0  0  0  0  0  0  0  0  0
  190.3760  175.4460  147.4500 O   0  0  0  0  0  0  0  0  0  0  0  0
  187.5350  175.6350  141.4050 O   0  0  0  0  0  0  0  0  0  0  0  0
  194.7420  175.9930  144.8500 C   0  0  0  0  0  3  0  0  0  0  0  0
  188.9310  177.5380  141.9550 C   0  0  2  0  0  3  0  0  0  0  0  0
  191.6690  173.0010  144.5990 C   0  0  0  0  0  2  0  0  0  0  0  0
  189.9700  177.8290  147.8570 O   0  0  0  0  0  0  0  0  0  0  0  0
  189.8010  176.7070  146.8710 S   0  0  0  0  0  0  0  0  0  0  0  0
  187.9150  176.7120  145.1190 C   0  0  1  0  0  3  0  0  0  0  0  0
  190.6320  177.1310  145.3470 C   0  0  2  0  0  3  0  0  0  0  0  0
  190.5140  172.8110  141.1280 O   0  0  0  0  0  0  0  0  0  0  0  0
  190.6200  176.1560  143.0820 C   0  0  2  0  0  3  0  0  0  0  0  0
  188.3540  178.0060  144.7710 O   0  0  0  0  0  0  0  0  0  0  0  0
  188.1160  176.4840  146.5430 N   0  0  0  0  0  2  0  0  0  0  0  0
  190.4910  173.0840  142.3560 C   0  0  0  0  0  0  0  0  0  0  0  0
  192.3780  175.4360  144.6950 C   0  0  0  0  0  0  0  0  0  0  0  0
  188.5680  176.1060  141.9510 C   0  0  0  0  0  0  0  0  0  0  0  0
  186.4440  176.5710  144.7900 C   0  0  0  0  0  1  0  0  0  0  0  0
  189.3600  173.8920  142.9050 C   0  0  0  0  0  2  0  0  0  0  0  0
  193.4080  176.3910  144.7400 C   0  0  0  0  0  3  0  0  0  0  0  0
  194.0500  173.6760  144.8360 C   0  0  0  0  0  3  0  0  0  0  0  0
  195.0630  174.6360  144.9020 C   0  0  0  0  0  3  0  0  0  0  0  0
  191.5400  172.6110  143.2020 N   0  0  0  0  0  2  0  0  0  0  0  0
  190.0760  177.5890  142.9940 C   0  0  2  0  0  3  0  0  0  0  0  0
  189.5390  175.3070  142.5990 N   0  0  0  0  0  0  0  0  0  0  0  0
  189.7400  177.9950  144.4430 C   0  0  2  0  0  3  0  0  0  0  0  0
  187.8440  178.3540  142.2740 O   0  0  0  0  0  1  0  0  0  0  0  0
  190.9460  175.8740  144.5450 C   0  0  1  0  0  3  0  0  0  0  0  0
  1 21  1  0  0  0  0
  3 17  2  0  0  0  0
  4 22  1  0  0  0  0
  5 27  1  1  0  0  0
  5 24  1  0  0  0  0
  6  1  1  0  0  0  0
  8  2  2  0  0  0  0
  8  7  2  0  0  0  0
  9 18  1  1  0  0  0
  9 14  1  0  0  0  0
 10  8  1  1  0  0  0
 11 15  2  0  0  0  0
 12 25  1  1  0  0  0
 12 28  1  0  0  0  0
 13  9  1  0  0  0  0
 14  8  1  0  0  0  0
 15 19  1  0  0  0  0
 15 23  1  0  0  0  0
 16  1  2  0  0  0  0
 16 20  1  0  0  0  0
 17  5  1  0  0  0  0
 17 25  1  0  0  0  0
 20  4  2  0  0  0  0
 21 22  2  0  0  0  0
 23  6  1  0  0  0  0
 24 12  1  0  0  0  0
 24 26  1  0  0  0  0
 25 19  1  0  0  0  0
 26 13  1  0  0  0  0
 26 10  1  0  0  0  0
 28 16  1  0  0  0  0
 28 10  1  0  0  0  0
M  END
>  <MODEL>
3

>  <REMARK>
 VINA RESULT:      -7.6      2.865      5.283
  Name = 
  0 active torsions:
  status: ('A' for Active; 'I' for Inactive)
                            x       y       z     vdW  Elec       q    Type
                         _______ _______ _______ _____ _____    ______ ____

>  <TORSDO>
F 0

$$$$
=
 OpenBabel11112417393D

 28 32  0  0  1  0  0  0  0  0999 V2000
  187.9560  176.8710  144.4440 C   0  0  0  0  0  0  0  0  0  0  0  0
  188.9260  173.3900  143.1450 O   0  0  0  0  0  0  0  0  0  0  0  0
  193.7660  176.0880  146.8790 O   0  0  0  0  0  0  0  0  0  0  0  0
  187.8050  178.2450  142.0060 C   0  0  0  0  0  3  0  0  0  0  0  0
  193.7870  176.7200  144.5390 C   0  0  2  0  0  3  0  0  0  0  0  0
  188.0200  176.2150  145.7860 C   0  0  0  0  0  2  0  0  0  0  0  0
  190.4340  172.9800  141.2570 O   0  0  0  0  0  0  0  0  0  0  0  0
  190.3360  173.5350  142.6500 S   0  0  0  0  0  0  0  0  0  0  0  0
  192.3720  173.6180  144.2240 C   0  0  1  0  0  3  0  0  0  0  0  0
  190.8210  175.2550  142.6360 C   0  0  2  0  0  3  0  0  0  0  0  0
  190.3190  178.0560  147.9630 O   0  0  0  0  0  0  0  0  0  0  0  0
  191.3400  176.8850  144.4130 C   0  0  2  0  0  3  0  0  0  0  0  0
  193.0570  174.2550  143.1700 O   0  0  0  0  0  0  0  0  0  0  0  0
  191.4120  172.6620  143.6880 N   0  0  0  0  0  2  0  0  0  0  0  0
  189.9010  177.1360  147.2140 C   0  0  0  0  0  0  0  0  0  0  0  0
  189.0160  176.7740  143.5190 C   0  0  0  0  0  0  0  0  0  0  0  0
  193.1420  176.3870  145.8260 C   0  0  0  0  0  0  0  0  0  0  0  0
  193.3650  172.8910  145.1070 C   0  0  0  0  0  1  0  0  0  0  0  0
  190.8310  176.0370  146.8140 C   0  0  0  0  0  2  0  0  0  0  0  0
  188.9340  177.4810  142.3070 C   0  0  0  0  0  3  0  0  0  0  0  0
  186.8300  177.6440  144.1350 C   0  0  0  0  0  3  0  0  0  0  0  0
  186.7520  178.3240  142.9170 C   0  0  0  0  0  3  0  0  0  0  0  0
  188.5440  177.1550  146.7670 N   0  0  0  0  0  2  0  0  0  0  0  0
  192.5960  176.6920  143.5520 C   0  0  2  0  0  3  0  0  0  0  0  0
  191.7320  176.4810  145.7570 N   0  0  0  0  0  0  0  0  0  0  0  0
  192.3460  175.4090  142.7340 C   0  0  2  0  0  3  0  0  0  0  0  0
  194.8080  175.8230  144.2160 O   0  0  0  0  0  1  0  0  0  0  0  0
  190.2500  175.9790  143.8490 C   0  0  1  0  0  3  0  0  0  0  0  0
  1  6  1  0  0  0  0
  4 20  2  0  0  0  0
  4 22  1  0  0  0  0
  5 27  1  6  0  0  0
  5 17  1  0  0  0  0
  6 23  1  0  0  0  0
  7  8  2  0  0  0  0
  8  2  2  0  0  0  0
  8 14  1  0  0  0  0
  9 18  1  1  0  0  0
 10  8  1  1  0  0  0
 10 26  1  0  0  0  0
 10 28  1  0  0  0  0
 12 25  1  1  0  0  0
 13  9  1  0  0  0  0
 14  9  1  0  0  0  0
 15 11  2  0  0  0  0
 16 28  1  0  0  0  0
 16  1  2  0  0  0  0
 17  3  2  0  0  0  0
 19 15  1  0  0  0  0
 20 16  1  0  0  0  0
 21  1  1  0  0  0  0
 22 21  2  0  0  0  0
 23 15  1  0  0  0  0
 24 12  1  0  0  0  0
 24  5  1  0  0  0  0
 25 17  1  0  0  0  0
 25 19  1  0  0  0  0
 26 13  1  0  0  0  0
 26 24  1  0  0  0  0
 28 12  1  0  0  0  0
M  END
>  <MODEL>
4

>  <REMARK>
 VINA RESULT:      -7.6      3.184      6.083
  Name = 
  0 active torsions:
  status: ('A' for Active; 'I' for Inactive)
                            x       y       z     vdW  Elec       q    Type
                         _______ _______ _______ _____ _____    ______ ____

>  <TORSDO>
F 0

$$$$
=
 OpenBabel11112417393D

 28 32  0  0  1  0  0  0  0  0999 V2000
  186.3210  178.3640  144.1370 C   0  0  0  0  0  0  0  0  0  0  0  0
  190.0020  178.1370  145.2050 O   0  0  0  0  0  0  0  0  0  0  0  0
  188.7750  174.5150  139.7260 O   0  0  0  0  0  0  0  0  0  0  0  0
  185.1240  177.1200  146.3450 C   0  0  0  0  0  3  0  0  0  0  0  0
  188.3300  173.3970  141.8290 C   0  0  2  0  0  3  0  0  0  0  0  0
  186.8780  179.0340  142.9210 C   0  0  0  0  0  2  0  0  0  0  0  0
  190.9900  176.2360  146.3960 O   0  0  0  0  0  0  0  0  0  0  0  0
  190.3480  176.6790  145.1110 S   0  0  0  0  0  0  0  0  0  0  0  0
  190.8270  175.4930  142.8770 C   0  0  1  0  0  3  0  0  0  0  0  0
  188.8800  175.7040  144.8190 C   0  0  2  0  0  3  0  0  0  0  0  0
  185.7420  177.2890  139.9080 O   0  0  0  0  0  0  0  0  0  0  0  0
  187.3960  175.4160  142.8700 C   0  0  2  0  0  3  0  0  0  0  0  0
  190.5100  174.2910  143.5420 O   0  0  0  0  0  0  0  0  0  0  0  0
  191.4540  176.4240  143.8040 N   0  0  0  0  0  2  0  0  0  0  0  0
  186.5240  177.6580  140.8220 C   0  0  0  0  0  0  0  0  0  0  0  0
  186.8090  177.1210  144.5890 C   0  0  0  0  0  0  0  0  0  0  0  0
  188.3580  174.5560  140.9130 C   0  0  0  0  0  0  0  0  0  0  0  0
  191.7780  175.2040  141.7340 C   0  0  0  0  0  1  0  0  0  0  0  0
  187.8860  177.0500  140.9110 C   0  0  0  0  0  2  0  0  0  0  0  0
  186.1910  176.5020  145.6890 C   0  0  0  0  0  3  0  0  0  0  0  0
  185.2480  178.9740  144.7980 C   0  0  0  0  0  3  0  0  0  0  0  0
  184.6560  178.3570  145.9020 C   0  0  0  0  0  3  0  0  0  0  0  0
  186.0980  178.6560  141.7510 N   0  0  0  0  0  2  0  0  0  0  0  0
  188.0350  174.0590  143.1950 C   0  0  2  0  0  3  0  0  0  0  0  0
  187.8210  175.7210  141.5090 N   0  0  0  0  0  0  0  0  0  0  0  0
  189.2170  174.3710  144.1340 C   0  0  2  0  0  3  0  0  0  0  0  0
  189.5250  172.6750  141.7980 O   0  0  0  0  0  1  0  0  0  0  0  0
  187.9370  176.4330  143.8690 C   0  0  1  0  0  3  0  0  0  0  0  0
  1 16  2  0  0  0  0
  1 21  1  0  0  0  0
  3 17  2  0  0  0  0
  5 27  1  1  0  0  0
  5 24  1  0  0  0  0
  6  1  1  0  0  0  0
  8  2  2  0  0  0  0
  8  7  2  0  0  0  0
  9 18  1  6  0  0  0
  9 13  1  0  0  0  0
  9 14  1  0  0  0  0
 10  8  1  6  0  0  0
 11 15  2  0  0  0  0
 12 25  1  6  0  0  0
 12 24  1  0  0  0  0
 12 28  1  0  0  0  0
 13 26  1  0  0  0  0
 14  8  1  0  0  0  0
 15 19  1  0  0  0  0
 15 23  1  0  0  0  0
 16 20  1  0  0  0  0
 17 25  1  0  0  0  0
 17  5  1  0  0  0  0
 19 25  1  0  0  0  0
 20  4  2  0  0  0  0
 21 22  2  0  0  0  0
 22  4  1  0  0  0  0
 23  6  1  0  0  0  0
 24 26  1  0  0  0  0
 26 10  1  0  0  0  0
 28 16  1  0  0  0  0
 28 10  1  0  0  0  0
M  END
>  <MODEL>
5

>  <REMARK>
 VINA RESULT:      -7.6      2.325      6.119
  Name = 
  0 active torsions:
  status: ('A' for Active; 'I' for Inactive)
                            x       y       z     vdW  Elec       q    Type
                         _______ _______ _______ _____ _____    ______ ____

>  <TORSDO>
F 0

$$$$
=
 OpenBabel11112417393D

 28 32  0  0  1  0  0  0  0  0999 V2000
  188.9450  175.5320  146.3530 C   0  0  0  0  0  0  0  0  0  0  0  0
  189.3160  172.1960  144.4890 O   0  0  0  0  0  0  0  0  0  0  0  0
  195.0050  175.7010  144.4700 O   0  0  0  0  0  0  0  0  0  0  0  0
  187.0860  176.7910  144.6760 C   0  0  0  0  0  3  0  0  0  0  0  0
  193.4400  176.2550  142.7050 C   0  0  2  0  0  3  0  0  0  0  0  0
  189.9410  174.9350  147.2970 C   0  0  0  0  0  2  0  0  0  0  0  0
  189.3050  171.9560  142.0490 O   0  0  0  0  0  0  0  0  0  0  0  0
  190.0480  172.5340  143.2220 S   0  0  0  0  0  0  0  0  0  0  0  0
  192.5840  172.9680  143.1410 C   0  0  1  0  0  3  0  0  0  0  0  0
  190.1740  174.3050  143.0250 C   0  0  2  0  0  3  0  0  0  0  0  0
  192.8250  177.1660  147.6380 O   0  0  0  0  0  0  0  0  0  0  0  0
  191.4840  176.0490  144.1770 C   0  0  2  0  0  3  0  0  0  0  0  0
  192.3430  173.6670  141.9410 O   0  0  0  0  0  0  0  0  0  0  0  0
  191.6440  171.8640  143.2720 N   0  0  0  0  0  2  0  0  0  0  0  0
  192.1540  176.1710  147.2620 C   0  0  0  0  0  0  0  0  0  0  0  0
  189.1690  175.5660  144.9620 C   0  0  0  0  0  0  0  0  0  0  0  0
  193.8200  175.8700  144.0800 C   0  0  0  0  0  0  0  0  0  0  0  0
  193.9980  172.4250  143.1350 C   0  0  0  0  0  1  0  0  0  0  0  0
  192.7490  175.2100  146.2850 C   0  0  0  0  0  2  0  0  0  0  0  0
  188.2360  176.2130  144.1340 C   0  0  0  0  0  3  0  0  0  0  0  0
  187.7920  176.1180  146.8880 C   0  0  0  0  0  3  0  0  0  0  0  0
  186.8620  176.7400  146.0510 C   0  0  0  0  0  3  0  0  0  0  0  0
  190.8380  175.9730  147.7840 N   0  0  0  0  0  2  0  0  0  0  0  0
  191.9110  176.0190  142.7030 C   0  0  2  0  0  3  0  0  0  0  0  0
  192.6960  175.7510  144.9310 N   0  0  0  0  0  0  0  0  0  0  0  0
  191.3710  174.6890  142.1420 C   0  0  2  0  0  3  0  0  0  0  0  0
  194.1260  175.5110  141.7430 O   0  0  0  0  0  1  0  0  0  0  0  0
  190.4210  174.9730  144.3730 C   0  0  1  0  0  3  0  0  0  0  0  0
  1 21  1  0  0  0  0
  1  6  1  0  0  0  0
  4 22  1  0  0  0  0
  5 27  1  6  0  0  0
  5 17  1  0  0  0  0
  6 23  1  0  0  0  0
  7  8  2  0  0  0  0
  8 14  1  0  0  0  0
  8  2  2  0  0  0  0
  9 18  1  6  0  0  0
  9 14  1  0  0  0  0
 10  8  1  1  0  0  0
 10 28  1  0  0  0  0
 12 28  1  0  0  0  0
 12 25  1  1  0  0  0
 13 26  1  0  0  0  0
 13  9  1  0  0  0  0
 15 11  2  0  0  0  0
 15 23  1  0  0  0  0
 16  1  2  0  0  0  0
 17  3  2  0  0  0  0
 17 25  1  0  0  0  0
 19 15  1  0  0  0  0
 20  4  2  0  0  0  0
 20 16  1  0  0  0  0
 22 21  2  0  0  0  0
 24  5  1  0  0  0  0
 24 12  1  0  0  0  0
 25 19  1  0  0  0  0
 26 24  1  0  0  0  0
 26 10  1  0  0  0  0
 28 16  1  0  0  0  0
M  END
>  <MODEL>
6

>  <REMARK>
 VINA RESULT:      -7.5      3.877      6.511
  Name = 
  0 active torsions:
  status: ('A' for Active; 'I' for Inactive)
                            x       y       z     vdW  Elec       q    Type
                         _______ _______ _______ _____ _____    ______ ____

>  <TORSDO>
F 0

$$$$
=
 OpenBabel11112417393D

 28 32  0  0  1  0  0  0  0  0999 V2000
  188.1330  176.2870  144.1020 C   0  0  0  0  0  0  0  0  0  0  0  0
  191.6870  177.7260  143.8950 O   0  0  0  0  0  0  0  0  0  0  0  0
  191.3740  171.5130  141.4560 O   0  0  0  0  0  0  0  0  0  0  0  0
  187.8370  176.1940  146.8880 C   0  0  0  0  0  3  0  0  0  0  0  0
  191.6930  171.6710  143.8530 C   0  0  2  0  0  3  0  0  0  0  0  0
  188.2110  176.2970  142.6090 C   0  0  0  0  0  2  0  0  0  0  0  0
  193.5070  177.1660  145.4380 O   0  0  0  0  0  0  0  0  0  0  0  0
  192.5850  176.6250  144.3810 S   0  0  0  0  0  0  0  0  0  0  0  0
  193.2230  174.5930  142.9350 C   0  0  1  0  0  3  0  0  0  0  0  0
  191.6200  175.2880  145.0700 C   0  0  2  0  0  3  0  0  0  0  0  0
  187.5200  172.9460  141.3020 O   0  0  0  0  0  0  0  0  0  0  0  0
  190.1530  173.5710  144.0770 C   0  0  2  0  0  3  0  0  0  0  0  0
  193.5110  173.9280  144.1430 O   0  0  0  0  0  0  0  0  0  0  0  0
  193.5250  176.0120  143.0630 N   0  0  0  0  0  2  0  0  0  0  0  0
  188.1910  173.9580  141.6320 C   0  0  0  0  0  0  0  0  0  0  0  0
  189.1400  175.6960  144.8940 C   0  0  0  0  0  0  0  0  0  0  0  0
  191.1290  172.0840  142.5510 C   0  0  0  0  0  0  0  0  0  0  0  0
  194.0580  174.0010  141.8190 C   0  0  0  0  0  1  0  0  0  0  0  0
  189.6820  173.9100  141.5460 C   0  0  0  0  0  2  0  0  0  0  0  0
  188.9720  175.6440  146.2880 C   0  0  0  0  0  3  0  0  0  0  0  0
  186.9970  176.8310  144.7120 C   0  0  0  0  0  3  0  0  0  0  0  0
  186.8520  176.7910  146.1010 C   0  0  0  0  0  3  0  0  0  0  0  0
  187.5140  175.1360  142.0730 N   0  0  0  0  0  2  0  0  0  0  0  0
  191.3260  172.8630  144.7680 C   0  0  2  0  0  3  0  0  0  0  0  0
  190.2420  173.1780  142.6760 N   0  0  0  0  0  0  0  0  0  0  0  0
  192.3850  173.9570  145.0140 C   0  0  2  0  0  3  0  0  0  0  0  0
  193.0650  171.4210  143.7750 O   0  0  0  0  0  1  0  0  0  0  0  0
  190.3510  175.0730  144.2530 C   0  0  1  0  0  3  0  0  0  0  0  0
  1 21  2  0  0  0  0
  1 16  1  0  0  0  0
  2  8  2  0  0  0  0
  3 17  2  0  0  0  0
  5 27  1  6  0  0  0
  5 24  1  0  0  0  0
  6  1  1  0  0  0  0
  8  7  2  0  0  0  0
  9 18  1  6  0  0  0
  9 14  1  0  0  0  0
  9 13  1  0  0  0  0
 10  8  1  6  0  0  0
 11 15  2  0  0  0  0
 12 25  1  6  0  0  0
 12 28  1  0  0  0  0
 12 24  1  0  0  0  0
 13 26  1  0  0  0  0
 14  8  1  0  0  0  0
 15 23  1  0  0  0  0
 16 20  2  0  0  0  0
 17 25  1  0  0  0  0
 17  5  1  0  0  0  0
 19 15  1  0  0  0  0
 19 25  1  0  0  0  0
 20  4  1  0  0  0  0
 21 22  1  0  0  0  0
 22  4  2  0  0  0  0
 23  6  1  0  0  0  0
 24 26  1  0  0  0  0
 26 10  1  0  0  0  0
 28 16  1  0  0  0  0
 28 10  1  0  0  0  0
M  END
>  <MODEL>
7

>  <REMARK>
 VINA RESULT:      -7.3      3.472      6.888
  Name = 
  0 active torsions:
  status: ('A' for Active; 'I' for Inactive)
                            x       y       z     vdW  Elec       q    Type
                         _______ _______ _______ _____ _____    ______ ____

>  <TORSDO>
F 0

$$$$
=
 OpenBabel11112417393D

 28 32  0  0  1  0  0  0  0  0999 V2000
  190.0980  176.8660  145.2360 C   0  0  0  0  0  0  0  0  0  0  0  0
  193.2380  176.4960  143.0580 O   0  0  0  0  0  0  0  0  0  0  0  0
  188.1280  172.9080  140.6800 O   0  0  0  0  0  0  0  0  0  0  0  0
  191.0330  175.6770  147.5960 C   0  0  0  0  0  3  0  0  0  0  0  0
  189.4570  171.8150  142.3860 C   0  0  2  0  0  3  0  0  0  0  0  0
  189.5190  177.5080  144.0160 C   0  0  0  0  0  2  0  0  0  0  0  0
  194.7430  174.5610  143.1030 O   0  0  0  0  0  0  0  0  0  0  0  0
  193.3510  175.0250  142.7780 S   0  0  0  0  0  0  0  0  0  0  0  0
  191.8890  173.8140  141.0390 C   0  0  1  0  0  3  0  0  0  0  0  0
  192.1780  174.1080  143.7660 C   0  0  2  0  0  3  0  0  0  0  0  0
  186.4240  175.8000  143.0580 O   0  0  0  0  0  0  0  0  0  0  0  0
  189.7240  173.8730  143.7010 C   0  0  2  0  0  3  0  0  0  0  0  0
  192.1790  172.6280  141.7430 O   0  0  0  0  0  0  0  0  0  0  0  0
  193.0250  174.7230  141.1050 N   0  0  0  0  0  2  0  0  0  0  0  0
  187.6340  176.1400  143.0150 C   0  0  0  0  0  0  0  0  0  0  0  0
  190.7290  175.6060  145.1820 C   0  0  0  0  0  0  0  0  0  0  0  0
  188.7890  172.9690  141.7500 C   0  0  0  0  0  0  0  0  0  0  0  0
  191.5930  173.4830  139.5910 C   0  0  0  0  0  1  0  0  0  0  0  0
  188.5460  175.4790  142.0340 C   0  0  0  0  0  2  0  0  0  0  0  0
  191.1800  175.0150  146.3750 C   0  0  0  0  0  3  0  0  0  0  0  0
  189.9510  177.5190  146.4640 C   0  0  0  0  0  3  0  0  0  0  0  0
  190.4220  176.9300  147.6400 C   0  0  0  0  0  3  0  0  0  0  0  0
  188.1110  177.1580  143.8980 N   0  0  0  0  0  2  0  0  0  0  0  0
  190.3480  172.4920  143.4540 C   0  0  2  0  0  3  0  0  0  0  0  0
  188.9410  174.1560  142.5040 N   0  0  0  0  0  0  0  0  0  0  0  0
  191.8290  172.7610  143.1170 C   0  0  2  0  0  3  0  0  0  0  0  0
  190.1690  171.0460  141.4630 O   0  0  0  0  0  1  0  0  0  0  0  0
  190.8640  174.8710  143.8760 C   0  0  1  0  0  3  0  0  0  0  0  0
  1 21  1  0  0  0  0
  3 17  2  0  0  0  0
  4 22  1  0  0  0  0
  5 27  1  6  0  0  0
  5 24  1  0  0  0  0
  6  1  1  0  0  0  0
  8  2  2  0  0  0  0
  8  7  2  0  0  0  0
  9 18  1  6  0  0  0
  9 14  1  0  0  0  0
  9 13  1  0  0  0  0
 10  8  1  6  0  0  0
 10 28  1  0  0  0  0
 12 25  1  6  0  0  0
 12 28  1  0  0  0  0
 13 26  1  0  0  0  0
 14  8  1  0  0  0  0
 15 11  2  0  0  0  0
 15 23  1  0  0  0  0
 16  1  2  0  0  0  0
 16 20  1  0  0  0  0
 17  5  1  0  0  0  0
 17 25  1  0  0  0  0
 19 25  1  0  0  0  0
 19 15  1  0  0  0  0
 20  4  2  0  0  0  0
 21 22  2  0  0  0  0
 23  6  1  0  0  0  0
 24 12  1  0  0  0  0
 26 24  1  0  0  0  0
 26 10  1  0  0  0  0
 28 16  1  0  0  0  0
M  END
>  <MODEL>
8

>  <REMARK>
 VINA RESULT:      -7.0      3.461      6.605
  Name = 
  0 active torsions:
  status: ('A' for Active; 'I' for Inactive)
                            x       y       z     vdW  Elec       q    Type
                         _______ _______ _______ _____ _____    ______ ____

>  <TORSDO>
F 0

$$$$
=
 OpenBabel11112417393D

 28 32  0  0  1  0  0  0  0  0999 V2000
  192.8200  173.8870  142.4510 C   0  0  0  0  0  0  0  0  0  0  0  0
  192.5810  174.5430  146.2270 O   0  0  0  0  0  0  0  0  0  0  0  0
  186.8010  175.7910  143.1160 O   0  0  0  0  0  0  0  0  0  0  0  0
  194.6810  175.8650  141.7590 C   0  0  0  0  0  3  0  0  0  0  0  0
  188.3890  177.6210  143.1260 C   0  0  2  0  0  3  0  0  0  0  0  0
  191.8210  172.8110  142.7340 C   0  0  0  0  0  2  0  0  0  0  0  0
  192.6530  176.7650  147.2600 O   0  0  0  0  0  0  0  0  0  0  0  0
  191.8690  175.8590  146.3520 S   0  0  0  0  0  0  0  0  0  0  0  0
  189.3240  176.1090  146.0530 C   0  0  1  0  0  3  0  0  0  0  0  0
  191.6990  176.6330  144.7510 C   0  0  2  0  0  3  0  0  0  0  0  0
  188.8700  173.2630  140.6130 O   0  0  0  0  0  0  0  0  0  0  0  0
  190.3160  176.1410  142.7680 C   0  0  2  0  0  3  0  0  0  0  0  0
  189.5730  177.4700  145.7840 O   0  0  0  0  0  0  0  0  0  0  0  0
  190.2910  175.6080  147.0200 N   0  0  0  0  0  2  0  0  0  0  0  0
  189.5760  173.2790  141.6540 C   0  0  0  0  0  0  0  0  0  0  0  0
  192.6260  175.2130  142.8880 C   0  0  0  0  0  0  0  0  0  0  0  0
  187.9900  176.2010  143.0460 C   0  0  0  0  0  0  0  0  0  0  0  0
  187.9260  175.9510  146.6130 C   0  0  0  0  0  1  0  0  0  0  0  0
  189.0280  173.8900  142.9030 C   0  0  0  0  0  2  0  0  0  0  0  0
  193.5590  176.1980  142.5210 C   0  0  0  0  0  3  0  0  0  0  0  0
  193.9450  173.5640  141.6840 C   0  0  0  0  0  3  0  0  0  0  0  0
  194.8760  174.5480  141.3430 C   0  0  0  0  0  3  0  0  0  0  0  0
  190.8850  172.7060  141.6240 N   0  0  0  0  0  2  0  0  0  0  0  0
  189.9230  177.5270  143.2990 C   0  0  2  0  0  3  0  0  0  0  0  0
  189.0970  175.3450  142.8400 N   0  0  0  0  0  0  0  0  0  0  0  0
  190.5120  177.6080  144.7220 C   0  0  2  0  0  3  0  0  0  0  0  0
  187.7450  178.2900  144.1700 O   0  0  0  0  0  1  0  0  0  0  0  0
  191.4040  175.5870  143.6830 C   0  0  1  0  0  3  0  0  0  0  0  0
  1  6  1  0  0  0  0
  1 16  1  0  0  0  0
  2  8  2  0  0  0  0
  4 20  1  0  0  0  0
  5 24  1  0  0  0  0
  5 27  1  1  0  0  0
  8 14  1  0  0  0  0
  8  7  2  0  0  0  0
  9 18  1  1  0  0  0
  9 14  1  0  0  0  0
 10  8  1  1  0  0  0
 11 15  2  0  0  0  0
 12 25  1  1  0  0  0
 12 24  1  0  0  0  0
 12 28  1  0  0  0  0
 13  9  1  0  0  0  0
 15 19  1  0  0  0  0
 16 28  1  0  0  0  0
 17  3  2  0  0  0  0
 17  5  1  0  0  0  0
 20 16  2  0  0  0  0
 21  1  2  0  0  0  0
 22 21  1  0  0  0  0
 22  4  2  0  0  0  0
 23 15  1  0  0  0  0
 23  6  1  0  0  0  0
 24 26  1  0  0  0  0
 25 19  1  0  0  0  0
 25 17  1  0  0  0  0
 26 10  1  0  0  0  0
 26 13  1  0  0  0  0
 28 10  1  0  0  0  0
M  END
>  <MODEL>
9

>  <REMARK>
 VINA RESULT:      -6.9      2.881      5.441
  Name = 
  0 active torsions:
  status: ('A' for Active; 'I' for Inactive)
                            x       y       z     vdW  Elec       q    Type
                         _______ _______ _______ _____ _____    ______ ____

>  <TORSDO>
F 0

$$$$
