=
 OpenBabel11112418053D

 34 40  0  0  1  0  0  0  0  0999 V2000
  190.1480  175.8990  145.7970 C   0  0  1  0  0  3  0  0  0  0  0  0
  187.7770  176.4540  145.5060 O   0  0  0  0  0  0  0  0  0  0  0  0
  196.3680  175.7940  143.2250 C   0  0  0  0  0  0  0  0  0  0  0  0
  192.5930  175.3530  145.8390 C   0  0  2  0  0  3  0  0  0  0  0  0
  193.8710  175.5660  143.5880 C   0  0  1  0  0  3  0  0  0  0  0  0
  194.9200  175.3720  141.2450 C   0  0  0  0  0  1  0  0  0  0  0  0
  196.8640  176.7720  142.6040 O   0  0  0  0  0  0  0  0  0  0  0  0
  196.3440  174.4520  145.2750 C   0  0  0  0  0  2  0  0  0  0  0  0
  188.8440  175.2460  143.8360 C   0  0  2  0  0  3  0  0  0  0  0  0
  188.0260  175.8000  140.8980 C   0  0  0  0  0  3  0  0  0  0  0  0
  192.5740  175.1840  142.8280 C   0  0  0  0  0  2  0  0  0  0  0  0
  195.1330  175.1470  145.8680 C   0  0  0  0  0  2  0  0  0  0  0  0
  190.0510  175.2740  142.8860 C   0  0  1  0  0  3  0  0  0  0  0  0
  186.8420  176.3520  144.4520 C   0  0  0  0  0  2  0  0  0  0  0  0
  193.8600  174.9620  145.0270 C   0  0  1  0  0  3  0  0  0  0  0  0
  196.9930  175.3430  144.3840 O   0  0  0  0  0  0  0  0  0  0  0  0
  187.5040  176.3590  141.9990 C   0  0  0  0  0  0  0  0  0  0  0  0
  191.4370  175.8300  144.9610 C   0  0  1  0  0  3  0  0  0  0  0  0
  195.0990  175.1400  142.7470 C   0  0  1  0  0  3  0  0  0  0  0  0
  191.3290  174.9670  143.6950 C   0  0  2  0  0  3  0  0  0  0  0  0
  191.5450  176.5450  147.7830 C   0  0  0  0  0  2  0  0  0  0  0  0
  188.5960  174.4100  140.9120 C   0  0  0  0  0  2  0  0  0  0  0  0
  192.8120  176.4020  146.9370 C   0  0  0  0  0  2  0  0  0  0  0  0
  189.9020  174.2890  141.7130 C   0  0  0  0  0  2  0  0  0  0  0  0
  187.4710  175.5730  143.2940 C   0  0  1  0  0  3  0  0  0  0  0  0
  190.3460  176.9280  146.9100 C   0  0  0  0  0  2  0  0  0  0  0  0
  189.0150  176.3120  144.8710 C   0  0  2  0  0  3  0  0  0  0  0  0
  186.9880  177.6950  141.9560 N   0  0  0  0  0  2  0  0  0  0  0  0
  185.6460  178.0230  141.4940 C   0  0  0  0  0  2  0  0  0  0  0  0
  184.1010  178.8240  144.5340 C   0  0  0  0  0  2  0  0  0  0  0  0
  185.9230  179.5590  143.2970 O   0  0  0  0  0  0  0  0  0  0  0  0
  184.9590  178.9220  142.5050 C   0  0  0  0  0  3  0  0  0  0  0  0
  185.2930  179.7350  144.5250 C   0  0  0  0  0  2  0  0  0  0  0  0
  184.0930  178.1650  143.3080 O   0  0  0  0  0  0  0  0  0  0  0  0
  1 26  1  1  0  0  0
  3 16  1  0  0  0  0
  4 23  1  1  0  0  0
  5 11  1  6  0  0  0
  5 15  1  0  0  0  0
  6 19  1  0  0  0  0
  7  3  2  0  0  0  0
  8 12  1  0  0  0  0
  9 27  1  0  0  0  0
 10 22  1  0  0  0  0
 10 17  2  0  0  0  0
 11 20  1  0  0  0  0
 13 20  1  0  0  0  0
 13  9  1  0  0  0  0
 14  2  1  0  0  0  0
 15  4  1  0  0  0  0
 15 12  1  0  0  0  0
 16  8  1  0  0  0  0
 17 25  1  0  0  0  0
 18  1  1  0  0  0  0
 18  4  1  0  0  0  0
 19  3  1  0  0  0  0
 19  5  1  0  0  0  0
 20 18  1  0  0  0  0
 22 24  1  0  0  0  0
 23 21  1  0  0  0  0
 24 13  1  0  0  0  0
 25  9  1  0  0  0  0
 25 14  1  0  0  0  0
 26 21  1  0  0  0  0
 27  2  1  0  0  0  0
 27  1  1  0  0  0  0
 28 17  1  0  0  0  0
 29 28  1  0  0  0  0
 29 32  1  0  0  0  0
 31 33  1  0  0  0  0
 32 31  1  0  0  0  0
 32 34  1  0  0  0  0
 33 30  1  0  0  0  0
 34 30  1  0  0  0  0
M  END
>  <MODEL>
1

>  <REMARK>
 VINA RESULT:      -8.7      0.000      0.000
  Name = 
  3 active torsions:
  status: ('A' for Active; 'I' for Inactive)
    1  A    between atoms: C_17  and  N_28
    2  A    between atoms: N_28  and  C_29
    3  A    between atoms: C_29  and  C_32
                            x       y       z     vdW  Elec       q    Type
                         _______ _______ _______ _____ _____    ______ ____

>  <TORSDO>
F 3

$$$$
=
 OpenBabel11112418053D

 34 40  0  0  1  0  0  0  0  0999 V2000
  189.9720  175.8790  146.3400 C   0  0  1  0  0  3  0  0  0  0  0  0
  191.9270  174.4480  146.7180 O   0  0  0  0  0  0  0  0  0  0  0  0
  185.3420  178.2470  142.0660 C   0  0  0  0  0  0  0  0  0  0  0  0
  188.0230  177.3200  145.7030 C   0  0  2  0  0  3  0  0  0  0  0  0
  187.5040  177.5180  143.1660 C   0  0  1  0  0  3  0  0  0  0  0  0
  187.3670  178.0010  140.6410 C   0  0  0  0  0  1  0  0  0  0  0  0
  184.7280  177.5080  141.2510 O   0  0  0  0  0  0  0  0  0  0  0  0
  185.2470  179.5610  144.1320 C   0  0  0  0  0  2  0  0  0  0  0  0
  191.9520  175.9020  144.9100 C   0  0  2  0  0  3  0  0  0  0  0  0
  193.3490  174.9570  142.3090 C   0  0  0  0  0  3  0  0  0  0  0  0
  189.0140  177.3440  142.8550 C   0  0  0  0  0  2  0  0  0  0  0  0
  185.8670  178.4810  144.9980 C   0  0  0  0  0  2  0  0  0  0  0  0
  191.1720  176.2980  143.6470 C   0  0  1  0  0  3  0  0  0  0  0  0
  193.1030  174.1410  145.9980 C   0  0  0  0  0  2  0  0  0  0  0  0
  187.3050  178.1310  144.5870 C   0  0  1  0  0  3  0  0  0  0  0  0
  184.6130  178.9500  143.0210 O   0  0  0  0  0  0  0  0  0  0  0  0
  193.2630  174.2860  143.4670 C   0  0  0  0  0  0  0  0  0  0  0  0
  189.1210  176.4010  145.1700 C   0  0  1  0  0  3  0  0  0  0  0  0
  186.8440  178.3460  142.0360 C   0  0  1  0  0  3  0  0  0  0  0  0
  189.9240  177.1040  144.0640 C   0  0  2  0  0  3  0  0  0  0  0  0
  187.9040  175.8980  147.7680 C   0  0  0  0  0  2  0  0  0  0  0  0
  193.3690  176.4590  142.2650 C   0  0  0  0  0  2  0  0  0  0  0  0
  187.1040  176.4800  146.6010 C   0  0  0  0  0  2  0  0  0  0  0  0
  192.0280  177.1020  142.6520 C   0  0  0  0  0  2  0  0  0  0  0  0
  193.1950  175.0530  144.7720 C   0  0  1  0  0  3  0  0  0  0  0  0
  189.0740  175.0500  147.2600 C   0  0  0  0  0  2  0  0  0  0  0  0
  191.0880  175.0260  145.7600 C   0  0  2  0  0  3  0  0  0  0  0  0
  193.2260  172.8550  143.4720 N   0  0  0  0  0  2  0  0  0  0  0  0
  192.5930  172.0630  142.4250 C   0  0  0  0  0  2  0  0  0  0  0  0
  189.7060  172.2140  144.4030 C   0  0  0  0  0  2  0  0  0  0  0  0
  190.3650  172.9010  142.2860 O   0  0  0  0  0  0  0  0  0  0  0  0
  191.1330  171.8320  142.7660 C   0  0  0  0  0  3  0  0  0  0  0  0
  189.3050  172.9900  143.1830 C   0  0  0  0  0  2  0  0  0  0  0  0
  190.9790  171.7090  144.1540 O   0  0  0  0  0  0  0  0  0  0  0  0
  1 26  1  1  0  0  0
  3 16  1  0  0  0  0
  4 23  1  6  0  0  0
  5 11  1  6  0  0  0
  5 15  1  0  0  0  0
  6 19  1  0  0  0  0
  7  3  2  0  0  0  0
  8 12  1  0  0  0  0
  9 27  1  0  0  0  0
 10 17  2  0  0  0  0
 11 20  1  0  0  0  0
 13 20  1  0  0  0  0
 13  9  1  0  0  0  0
 14  2  1  0  0  0  0
 15 12  1  0  0  0  0
 15  4  1  0  0  0  0
 16  8  1  0  0  0  0
 17 28  1  0  0  0  0
 17 25  1  0  0  0  0
 18  4  1  0  0  0  0
 18  1  1  0  0  0  0
 19  3  1  0  0  0  0
 19  5  1  0  0  0  0
 20 18  1  0  0  0  0
 22 10  1  0  0  0  0
 22 24  1  0  0  0  0
 23 21  1  0  0  0  0
 24 13  1  0  0  0  0
 25  9  1  0  0  0  0
 25 14  1  0  0  0  0
 26 21  1  0  0  0  0
 27  1  1  0  0  0  0
 27  2  1  0  0  0  0
 29 32  1  0  0  0  0
 29 28  1  0  0  0  0
 31 32  1  0  0  0  0
 31 33  1  0  0  0  0
 32 34  1  0  0  0  0
 33 30  1  0  0  0  0
 34 30  1  0  0  0  0
M  END
>  <MODEL>
2

>  <REMARK>
 VINA RESULT:      -8.2      2.752      7.300
  Name = 
  3 active torsions:
  status: ('A' for Active; 'I' for Inactive)
    1  A    between atoms: C_17  and  N_28
    2  A    between atoms: N_28  and  C_29
    3  A    between atoms: C_29  and  C_32
                            x       y       z     vdW  Elec       q    Type
                         _______ _______ _______ _____ _____    ______ ____

>  <TORSDO>
F 3

$$$$
=
 OpenBabel11112418053D

 34 40  0  0  1  0  0  0  0  0999 V2000
  189.1280  175.6190  142.9220 C   0  0  1  0  0  3  0  0  0  0  0  0
  191.2650  174.9620  141.9150 O   0  0  0  0  0  0  0  0  0  0  0  0
  185.8410  179.2740  147.5210 C   0  0  0  0  0  0  0  0  0  0  0  0
  187.0800  176.3810  144.1490 C   0  0  2  0  0  3  0  0  0  0  0  0
  187.4690  177.7450  146.3250 C   0  0  1  0  0  3  0  0  0  0  0  0
  187.9660  178.6790  148.6720 C   0  0  0  0  0  1  0  0  0  0  0  0
  186.1070  180.4860  147.7440 O   0  0  0  0  0  0  0  0  0  0  0  0
  184.2840  177.6510  146.5500 C   0  0  0  0  0  2  0  0  0  0  0  0
  191.0650  174.8990  144.2260 C   0  0  2  0  0  3  0  0  0  0  0  0
  193.5470  175.6610  145.9180 C   0  0  0  0  0  3  0  0  0  0  0  0
  188.7850  176.9620  146.5680 C   0  0  0  0  0  2  0  0  0  0  0  0
  185.0670  177.4770  145.2630 C   0  0  0  0  0  2  0  0  0  0  0  0
  190.7020  175.7580  145.4470 C   0  0  1  0  0  3  0  0  0  0  0  0
  192.5570  174.6640  142.4020 C   0  0  0  0  0  2  0  0  0  0  0  0
  186.4690  176.8890  145.4860 C   0  0  1  0  0  3  0  0  0  0  0  0
  184.5630  178.9330  147.0880 O   0  0  0  0  0  0  0  0  0  0  0  0
  193.4720  175.5970  144.5810 C   0  0  0  0  0  0  0  0  0  0  0  0
  188.6080  176.4110  144.1340 C   0  0  1  0  0  3  0  0  0  0  0  0
  186.8940  178.2110  147.6850 C   0  0  1  0  0  3  0  0  0  0  0  0
  189.1710  175.9470  145.4860 C   0  0  2  0  0  3  0  0  0  0  0  0
  187.1040  176.3740  141.6390 C   0  0  0  0  0  2  0  0  0  0  0  0
  192.7000  174.7890  146.8000 C   0  0  0  0  0  2  0  0  0  0  0  0
  186.5840  177.0960  142.8850 C   0  0  0  0  0  2  0  0  0  0  0  0
  191.2060  175.1500  146.7680 C   0  0  0  0  0  2  0  0  0  0  0  0
  192.5190  174.6130  143.9310 C   0  0  1  0  0  3  0  0  0  0  0  0
  188.6330  176.3030  141.6470 C   0  0  0  0  0  2  0  0  0  0  0  0
  190.6460  175.6190  142.9840 C   0  0  2  0  0  3  0  0  0  0  0  0
  194.2790  176.4580  143.7690 N   0  0  0  0  0  2  0  0  0  0  0  0
  195.7300  176.5320  143.8730 C   0  0  0  0  0  2  0  0  0  0  0  0
  196.0980  174.4560  141.0760 C   0  0  0  0  0  2  0  0  0  0  0  0
  195.8010  176.7190  141.4970 O   0  0  0  0  0  0  0  0  0  0  0  0
  196.3650  176.0410  142.5860 C   0  0  0  0  0  3  0  0  0  0  0  0
  195.8610  175.8010  140.4540 C   0  0  0  0  0  2  0  0  0  0  0  0
  196.1680  174.6590  142.4510 O   0  0  0  0  0  0  0  0  0  0  0  0
  1 26  1  6  0  0  0
  1 27  1  0  0  0  0
  1 18  1  0  0  0  0
  2 14  1  0  0  0  0
  2 27  1  0  0  0  0
  3 19  1  0  0  0  0
  3  7  2  0  0  0  0
  4 23  1  6  0  0  0
  4 15  1  0  0  0  0
  5 11  1  1  0  0  0
  5 19  1  0  0  0  0
  8 16  1  0  0  0  0
  9 13  1  0  0  0  0
 10 22  1  0  0  0  0
 12 15  1  0  0  0  0
 12  8  1  0  0  0  0
 13 20  1  0  0  0  0
 13 24  1  0  0  0  0
 14 25  1  0  0  0  0
 15  5  1  0  0  0  0
 16  3  1  0  0  0  0
 17 10  2  0  0  0  0
 18  4  1  0  0  0  0
 18 20  1  0  0  0  0
 19  6  1  0  0  0  0
 20 11  1  0  0  0  0
 21 26  1  0  0  0  0
 21 23  1  0  0  0  0
 24 22  1  0  0  0  0
 25  9  1  0  0  0  0
 25 17  1  0  0  0  0
 27  9  1  0  0  0  0
 28 29  1  0  0  0  0
 28 17  1  0  0  0  0
 30 34  1  0  0  0  0
 31 32  1  0  0  0  0
 32 29  1  0  0  0  0
 33 30  1  0  0  0  0
 33 31  1  0  0  0  0
 34 32  1  0  0  0  0
M  END
>  <MODEL>
3

>  <REMARK>
 VINA RESULT:      -8.0      2.443      8.548
  Name = 
  3 active torsions:
  status: ('A' for Active; 'I' for Inactive)
    1  A    between atoms: C_17  and  N_28
    2  A    between atoms: N_28  and  C_29
    3  A    between atoms: C_29  and  C_32
                            x       y       z     vdW  Elec       q    Type
                         _______ _______ _______ _____ _____    ______ ____

>  <TORSDO>
F 3

$$$$
=
 OpenBabel11112418053D

 34 40  0  0  1  0  0  0  0  0999 V2000
  188.9500  176.5060  146.7590 C   0  0  1  0  0  3  0  0  0  0  0  0
  190.9640  175.2590  147.3920 O   0  0  0  0  0  0  0  0  0  0  0  0
  184.5850  178.2890  141.9550 C   0  0  0  0  0  0  0  0  0  0  0  0
  186.9670  177.7530  145.8670 C   0  0  2  0  0  3  0  0  0  0  0  0
  186.6810  177.7900  143.2870 C   0  0  1  0  0  3  0  0  0  0  0  0
  186.7510  178.1430  140.7370 C   0  0  0  0  0  1  0  0  0  0  0  0
  184.1110  177.4660  141.1270 O   0  0  0  0  0  0  0  0  0  0  0  0
  184.1920  179.6860  143.9290 C   0  0  0  0  0  2  0  0  0  0  0  0
  191.0510  176.6240  145.5180 C   0  0  2  0  0  3  0  0  0  0  0  0
  192.7600  175.6760  143.1120 C   0  0  0  0  0  3  0  0  0  0  0  0
  188.2220  177.7250  143.1260 C   0  0  0  0  0  2  0  0  0  0  0  0
  184.8060  178.7010  144.9060 C   0  0  0  0  0  2  0  0  0  0  0  0
  190.3690  176.8960  144.1690 C   0  0  1  0  0  3  0  0  0  0  0  0
  192.2240  175.0150  146.8020 C   0  0  0  0  0  2  0  0  0  0  0  0
  186.3000  178.4510  144.6490 C   0  0  1  0  0  3  0  0  0  0  0  0
  183.7160  178.9740  142.7990 O   0  0  0  0  0  0  0  0  0  0  0  0
  192.6140  175.0550  144.2920 C   0  0  0  0  0  0  0  0  0  0  0  0
  188.1780  176.9020  145.4890 C   0  0  1  0  0  3  0  0  0  0  0  0
  186.0710  178.5080  142.0580 C   0  0  1  0  0  3  0  0  0  0  0  0
  189.0280  177.6160  144.4260 C   0  0  2  0  0  3  0  0  0  0  0  0
  186.7590  176.4240  147.9870 C   0  0  0  0  0  2  0  0  0  0  0  0
  192.6690  177.1700  142.9890 C   0  0  0  0  0  2  0  0  0  0  0  0
  186.0330  176.8840  146.7210 C   0  0  0  0  0  2  0  0  0  0  0  0
  191.2520  177.7200  143.2150 C   0  0  0  0  0  2  0  0  0  0  0  0
  192.3630  175.8740  145.5420 C   0  0  1  0  0  3  0  0  0  0  0  0
  188.0340  175.6510  147.6360 C   0  0  0  0  0  2  0  0  0  0  0  0
  190.1790  175.7210  146.3310 C   0  0  2  0  0  3  0  0  0  0  0  0
  192.6870  173.6260  144.3700 N   0  0  0  0  0  2  0  0  0  0  0  0
  193.9120  172.8700  144.1510 C   0  0  0  0  0  2  0  0  0  0  0  0
  196.8180  172.5020  146.0700 C   0  0  0  0  0  2  0  0  0  0  0  0
  195.9550  174.0320  144.5540 O   0  0  0  0  0  0  0  0  0  0  0  0
  194.9560  173.2720  145.1760 C   0  0  0  0  0  3  0  0  0  0  0  0
  197.1050  173.7460  145.2820 C   0  0  0  0  0  2  0  0  0  0  0  0
  195.5130  172.1270  145.7640 O   0  0  0  0  0  0  0  0  0  0  0  0
  1 26  1  1  0  0  0
  3 19  1  0  0  0  0
  3 16  1  0  0  0  0
  4 23  1  6  0  0  0
  5 11  1  6  0  0  0
  5 15  1  0  0  0  0
  6 19  1  0  0  0  0
  7  3  2  0  0  0  0
  8 12  1  0  0  0  0
  9 25  1  0  0  0  0
  9 27  1  0  0  0  0
 10 17  2  0  0  0  0
 11 20  1  0  0  0  0
 13 20  1  0  0  0  0
 13  9  1  0  0  0  0
 14  2  1  0  0  0  0
 15 12  1  0  0  0  0
 15  4  1  0  0  0  0
 16  8  1  0  0  0  0
 17 28  1  0  0  0  0
 17 25  1  0  0  0  0
 18  4  1  0  0  0  0
 18  1  1  0  0  0  0
 19  5  1  0  0  0  0
 20 18  1  0  0  0  0
 22 10  1  0  0  0  0
 22 24  1  0  0  0  0
 23 21  1  0  0  0  0
 24 13  1  0  0  0  0
 25 14  1  0  0  0  0
 26 21  1  0  0  0  0
 27  1  1  0  0  0  0
 27  2  1  0  0  0  0
 29 28  1  0  0  0  0
 29 32  1  0  0  0  0
 31 32  1  0  0  0  0
 31 33  1  0  0  0  0
 32 34  1  0  0  0  0
 33 30  1  0  0  0  0
 34 30  1  0  0  0  0
M  END
>  <MODEL>
4

>  <REMARK>
 VINA RESULT:      -7.9      2.409      8.484
  Name = 
  3 active torsions:
  status: ('A' for Active; 'I' for Inactive)
    1  A    between atoms: C_17  and  N_28
    2  A    between atoms: N_28  and  C_29
    3  A    between atoms: C_29  and  C_32
                            x       y       z     vdW  Elec       q    Type
                         _______ _______ _______ _____ _____    ______ ____

>  <TORSDO>
F 3

$$$$
=
 OpenBabel11112418053D

 34 40  0  0  1  0  0  0  0  0999 V2000
  189.3710  174.7330  142.7300 C   0  0  1  0  0  3  0  0  0  0  0  0
  191.5890  173.7270  143.0130 O   0  0  0  0  0  0  0  0  0  0  0  0
  185.1130  179.7310  144.2130 C   0  0  0  0  0  0  0  0  0  0  0  0
  187.1570  175.9040  142.6480 C   0  0  2  0  0  3  0  0  0  0  0  0
  186.8100  177.8550  144.3280 C   0  0  1  0  0  3  0  0  0  0  0  0
  186.4160  179.4450  146.3140 C   0  0  0  0  0  1  0  0  0  0  0  0
  185.4590  180.9430  144.2110 O   0  0  0  0  0  0  0  0  0  0  0  0
  183.8650  177.9430  143.0960 C   0  0  0  0  0  2  0  0  0  0  0  0
  190.4210  174.3810  144.9080 C   0  0  2  0  0  3  0  0  0  0  0  0
  192.0410  175.5400  147.2830 C   0  0  0  0  0  3  0  0  0  0  0  0
  187.7470  177.1390  145.3350 C   0  0  0  0  0  2  0  0  0  0  0  0
  185.0780  177.3560  142.4000 C   0  0  0  0  0  2  0  0  0  0  0  0
  189.7250  175.5840  145.5630 C   0  0  1  0  0  3  0  0  0  0  0  0
  192.4830  173.5480  144.0930 C   0  0  0  0  0  2  0  0  0  0  0  0
  186.1320  176.8170  143.3790 C   0  0  1  0  0  3  0  0  0  0  0  0
  184.1020  179.3170  143.3500 O   0  0  0  0  0  0  0  0  0  0  0  0
  192.5300  175.0720  146.1250 C   0  0  0  0  0  0  0  0  0  0  0  0
  188.5280  175.8760  143.3220 C   0  0  1  0  0  3  0  0  0  0  0  0
  185.8010  178.7340  145.1060 C   0  0  1  0  0  3  0  0  0  0  0  0
  188.3780  175.8290  144.8500 C   0  0  2  0  0  3  0  0  0  0  0  0
  188.2410  175.1280  140.5210 C   0  0  0  0  0  2  0  0  0  0  0  0
  190.7670  175.0090  147.8740 C   0  0  0  0  0  2  0  0  0  0  0  0
  187.3710  176.2140  141.1610 C   0  0  0  0  0  2  0  0  0  0  0  0
  189.5110  175.3940  147.0750 C   0  0  0  0  0  2  0  0  0  0  0  0
  191.7920  173.9700  145.3920 C   0  0  1  0  0  3  0  0  0  0  0  0
  189.5870  175.0100  141.2420 C   0  0  0  0  0  2  0  0  0  0  0  0
  190.6960  174.7000  143.4730 C   0  0  2  0  0  3  0  0  0  0  0  0
  193.7380  175.6140  145.5790 N   0  0  0  0  0  2  0  0  0  0  0  0
  195.0690  175.2160  146.0170 C   0  0  0  0  0  2  0  0  0  0  0  0
  196.2110  174.7410  142.7400 C   0  0  0  0  0  2  0  0  0  0  0  0
  195.8310  176.5250  144.1750 O   0  0  0  0  0  0  0  0  0  0  0  0
  196.0450  175.3210  144.8600 C   0  0  0  0  0  3  0  0  0  0  0  0
  196.1820  176.2360  142.8600 C   0  0  0  0  0  2  0  0  0  0  0  0
  195.8790  174.2330  143.9920 O   0  0  0  0  0  0  0  0  0  0  0  0
  1 26  1  6  0  0  0
  1 18  1  0  0  0  0
  1 27  1  0  0  0  0
  2 27  1  0  0  0  0
  2 14  1  0  0  0  0
  3 19  1  0  0  0  0
  4 23  1  6  0  0  0
  4 18  1  0  0  0  0
  4 15  1  0  0  0  0
  5 19  1  0  0  0  0
  5 11  1  1  0  0  0
  7  3  2  0  0  0  0
  8 16  1  0  0  0  0
  9 25  1  0  0  0  0
  9 13  1  0  0  0  0
 10 22  1  0  0  0  0
 12  8  1  0  0  0  0
 12 15  1  0  0  0  0
 13 24  1  0  0  0  0
 14 25  1  0  0  0  0
 15  5  1  0  0  0  0
 16  3  1  0  0  0  0
 17 10  2  0  0  0  0
 18 20  1  0  0  0  0
 19  6  1  0  0  0  0
 20 11  1  0  0  0  0
 20 13  1  0  0  0  0
 21 23  1  0  0  0  0
 21 26  1  0  0  0  0
 24 22  1  0  0  0  0
 25 17  1  0  0  0  0
 27  9  1  0  0  0  0
 28 29  1  0  0  0  0
 28 17  1  0  0  0  0
 30 33  1  0  0  0  0
 30 34  1  0  0  0  0
 31 32  1  0  0  0  0
 32 29  1  0  0  0  0
 33 31  1  0  0  0  0
 34 32  1  0  0  0  0
M  END
>  <MODEL>
5

>  <REMARK>
 VINA RESULT:      -7.8      2.058      8.680
  Name = 
  3 active torsions:
  status: ('A' for Active; 'I' for Inactive)
    1  A    between atoms: C_17  and  N_28
    2  A    between atoms: N_28  and  C_29
    3  A    between atoms: C_29  and  C_32
                            x       y       z     vdW  Elec       q    Type
                         _______ _______ _______ _____ _____    ______ ____

>  <TORSDO>
F 3

$$$$
=
 OpenBabel11112418053D

 34 40  0  0  1  0  0  0  0  0999 V2000
  191.6930  175.7170  145.4440 C   0  0  1  0  0  3  0  0  0  0  0  0
  189.4490  176.5390  145.9940 O   0  0  0  0  0  0  0  0  0  0  0  0
  196.6150  175.0950  140.8940 C   0  0  0  0  0  0  0  0  0  0  0  0
  193.9230  174.9090  144.6340 C   0  0  2  0  0  3  0  0  0  0  0  0
  194.3800  175.1160  142.0870 C   0  0  1  0  0  3  0  0  0  0  0  0
  194.5430  174.9500  139.5230 C   0  0  0  0  0  1  0  0  0  0  0  0
  196.9860  176.0490  140.1590 O   0  0  0  0  0  0  0  0  0  0  0  0
  197.1230  173.6450  142.8030 C   0  0  0  0  0  2  0  0  0  0  0  0
  189.7340  175.3250  144.0370 C   0  0  2  0  0  3  0  0  0  0  0  0
  188.0440  176.1360  141.5680 C   0  0  0  0  0  3  0  0  0  0  0  0
  192.8670  174.9210  141.8100 C   0  0  0  0  0  2  0  0  0  0  0  0
  196.2780  174.4300  143.7880 C   0  0  0  0  0  2  0  0  0  0  0  0
  190.5420  175.2790  142.7310 C   0  0  1  0  0  3  0  0  0  0  0  0
  188.2080  176.6010  145.3230 C   0  0  0  0  0  2  0  0  0  0  0  0
  194.7840  174.4320  143.4310 C   0  0  1  0  0  3  0  0  0  0  0  0
  197.5360  174.5120  141.7600 O   0  0  0  0  0  0  0  0  0  0  0  0
  187.9970  176.6830  142.7920 C   0  0  0  0  0  0  0  0  0  0  0  0
  192.6050  175.5590  144.2150 C   0  0  1  0  0  3  0  0  0  0  0  0
  195.1900  174.6110  140.8670 C   0  0  1  0  0  3  0  0  0  0  0  0
  191.9710  174.7890  143.0470 C   0  0  2  0  0  3  0  0  0  0  0  0
  193.7470  176.0900  146.8420 C   0  0  0  0  0  2  0  0  0  0  0  0
  188.4120  174.6950  141.3600 C   0  0  0  0  0  2  0  0  0  0  0  0
  194.6260  175.8610  145.6110 C   0  0  0  0  0  2  0  0  0  0  0  0
  189.8870  174.3870  141.6620 C   0  0  0  0  0  2  0  0  0  0  0  0
  188.3090  175.8290  144.0050 C   0  0  1  0  0  3  0  0  0  0  0  0
  192.3790  176.6510  146.4410 C   0  0  0  0  0  2  0  0  0  0  0  0
  190.3730  176.3030  144.9710 C   0  0  2  0  0  3  0  0  0  0  0  0
  187.6630  178.0660  142.9540 N   0  0  0  0  0  2  0  0  0  0  0  0
  186.4830  178.6820  142.3620 C   0  0  0  0  0  2  0  0  0  0  0  0
  184.2910  178.3140  145.0690 C   0  0  0  0  0  2  0  0  0  0  0  0
  186.2750  179.4310  144.6160 O   0  0  0  0  0  0  0  0  0  0  0  0
  185.5420  179.1490  143.4560 C   0  0  0  0  0  3  0  0  0  0  0  0
  185.3940  179.1450  145.6550 C   0  0  0  0  0  2  0  0  0  0  0  0
  184.5830  178.1590  143.7160 O   0  0  0  0  0  0  0  0  0  0  0  0
  1 26  1  1  0  0  0
  3 16  1  0  0  0  0
  4 23  1  6  0  0  0
  5 11  1  6  0  0  0
  5 15  1  0  0  0  0
  6 19  1  0  0  0  0
  7  3  2  0  0  0  0
  8 12  1  0  0  0  0
  9 27  1  0  0  0  0
 10 17  2  0  0  0  0
 11 20  1  0  0  0  0
 13 20  1  0  0  0  0
 13  9  1  0  0  0  0
 14  2  1  0  0  0  0
 15 12  1  0  0  0  0
 15  4  1  0  0  0  0
 16  8  1  0  0  0  0
 17 28  1  0  0  0  0
 17 25  1  0  0  0  0
 18  4  1  0  0  0  0
 18  1  1  0  0  0  0
 19  3  1  0  0  0  0
 19  5  1  0  0  0  0
 20 18  1  0  0  0  0
 22 10  1  0  0  0  0
 22 24  1  0  0  0  0
 23 21  1  0  0  0  0
 24 13  1  0  0  0  0
 25  9  1  0  0  0  0
 25 14  1  0  0  0  0
 26 21  1  0  0  0  0
 27  1  1  0  0  0  0
 27  2  1  0  0  0  0
 29 28  1  0  0  0  0
 29 32  1  0  0  0  0
 30 33  1  0  0  0  0
 31 33  1  0  0  0  0
 32 34  1  0  0  0  0
 32 31  1  0  0  0  0
 34 30  1  0  0  0  0
M  END
>  <MODEL>
6

>  <REMARK>
 VINA RESULT:      -7.8      1.258      1.665
  Name = 
  3 active torsions:
  status: ('A' for Active; 'I' for Inactive)
    1  A    between atoms: C_17  and  N_28
    2  A    between atoms: N_28  and  C_29
    3  A    between atoms: C_29  and  C_32
                            x       y       z     vdW  Elec       q    Type
                         _______ _______ _______ _____ _____    ______ ____

>  <TORSDO>
F 3

$$$$
=
 OpenBabel11112418053D

 34 40  0  0  1  0  0  0  0  0999 V2000
  191.8170  175.7460  145.6690 C   0  0  1  0  0  3  0  0  0  0  0  0
  189.7150  176.9890  145.4420 O   0  0  0  0  0  0  0  0  0  0  0  0
  196.7310  172.2100  142.7280 C   0  0  0  0  0  0  0  0  0  0  0  0
  193.9160  174.3780  145.6680 C   0  0  2  0  0  3  0  0  0  0  0  0
  194.4880  173.1270  143.4660 C   0  0  1  0  0  3  0  0  0  0  0  0
  194.7110  171.5900  141.4130 C   0  0  0  0  0  1  0  0  0  0  0  0
  197.2750  172.5680  141.6490 O   0  0  0  0  0  0  0  0  0  0  0  0
  196.9360  171.9670  145.1580 C   0  0  0  0  0  2  0  0  0  0  0  0
  189.8700  174.8890  144.4670 C   0  0  2  0  0  3  0  0  0  0  0  0
  188.4160  174.4340  141.7670 C   0  0  0  0  0  3  0  0  0  0  0  0
  192.9730  172.9910  143.1620 C   0  0  0  0  0  2  0  0  0  0  0  0
  196.1930  173.2510  145.4770 C   0  0  0  0  0  2  0  0  0  0  0  0
  190.7050  174.0550  143.4840 C   0  0  1  0  0  3  0  0  0  0  0  0
  188.5230  176.8230  144.7020 C   0  0  0  0  0  2  0  0  0  0  0  0
  194.7310  173.2330  145.0040 C   0  0  1  0  0  3  0  0  0  0  0  0
  197.5170  172.0820  143.8700 O   0  0  0  0  0  0  0  0  0  0  0  0
  188.4150  175.5540  142.5040 C   0  0  0  0  0  0  0  0  0  0  0  0
  192.7340  174.8480  144.8220 C   0  0  1  0  0  3  0  0  0  0  0  0
  195.2490  171.9560  142.7980 C   0  0  1  0  0  3  0  0  0  0  0  0
  192.0260  173.6500  144.1710 C   0  0  2  0  0  3  0  0  0  0  0  0
  193.8540  176.5730  146.8850 C   0  0  0  0  0  2  0  0  0  0  0  0
  188.5570  173.0750  142.3930 C   0  0  0  0  0  2  0  0  0  0  0  0
  194.7280  175.6180  146.0690 C   0  0  0  0  0  2  0  0  0  0  0  0
  189.9540  172.8100  142.9780 C   0  0  0  0  0  2  0  0  0  0  0  0
  188.5450  175.4580  144.0110 C   0  0  1  0  0  3  0  0  0  0  0  0
  192.6080  176.9840  146.0950 C   0  0  0  0  0  2  0  0  0  0  0  0
  190.6240  176.1340  144.8110 C   0  0  2  0  0  3  0  0  0  0  0  0
  188.2990  176.8340  141.8730 N   0  0  0  0  0  2  0  0  0  0  0  0
  187.2540  177.1670  140.9160 C   0  0  0  0  0  2  0  0  0  0  0  0
  184.9560  177.9790  143.4320 C   0  0  0  0  0  2  0  0  0  0  0  0
  186.7720  178.9800  142.3890 O   0  0  0  0  0  0  0  0  0  0  0  0
  186.1760  177.9910  141.5950 C   0  0  0  0  0  3  0  0  0  0  0  0
  185.8740  179.1660  143.4350 C   0  0  0  0  0  2  0  0  0  0  0  0
  185.3640  177.1610  142.3820 O   0  0  0  0  0  0  0  0  0  0  0  0
  1 26  1  6  0  0  0
  3 19  1  0  0  0  0
  3 16  1  0  0  0  0
  4 23  1  6  0  0  0
  5 11  1  1  0  0  0
  5 15  1  0  0  0  0
  6 19  1  0  0  0  0
  7  3  2  0  0  0  0
  8 12  1  0  0  0  0
  9 27  1  0  0  0  0
 10 22  1  0  0  0  0
 10 17  2  0  0  0  0
 11 20  1  0  0  0  0
 13 20  1  0  0  0  0
 13  9  1  0  0  0  0
 14  2  1  0  0  0  0
 15 12  1  0  0  0  0
 15  4  1  0  0  0  0
 16  8  1  0  0  0  0
 17 25  1  0  0  0  0
 18  4  1  0  0  0  0
 18  1  1  0  0  0  0
 19  5  1  0  0  0  0
 20 18  1  0  0  0  0
 22 24  1  0  0  0  0
 23 21  1  0  0  0  0
 24 13  1  0  0  0  0
 25  9  1  0  0  0  0
 25 14  1  0  0  0  0
 26 21  1  0  0  0  0
 27  2  1  0  0  0  0
 27  1  1  0  0  0  0
 28 17  1  0  0  0  0
 29 32  1  0  0  0  0
 29 28  1  0  0  0  0
 30 33  1  0  0  0  0
 31 33  1  0  0  0  0
 32 34  1  0  0  0  0
 32 31  1  0  0  0  0
 34 30  1  0  0  0  0
M  END
>  <MODEL>
7

>  <REMARK>
 VINA RESULT:      -7.7      1.906      2.227
  Name = 
  3 active torsions:
  status: ('A' for Active; 'I' for Inactive)
    1  A    between atoms: C_17  and  N_28
    2  A    between atoms: N_28  and  C_29
    3  A    between atoms: C_29  and  C_32
                            x       y       z     vdW  Elec       q    Type
                         _______ _______ _______ _____ _____    ______ ____

>  <TORSDO>
F 3

$$$$
=
 OpenBabel11112418053D

 34 40  0  0  1  0  0  0  0  0999 V2000
  190.3600  173.3280  141.9250 C   0  0  1  0  0  3  0  0  0  0  0  0
  188.0970  174.2670  142.0300 O   0  0  0  0  0  0  0  0  0  0  0  0
  196.3280  172.4090  144.8990 C   0  0  0  0  0  0  0  0  0  0  0  0
  192.7310  172.5240  142.0140 C   0  0  2  0  0  3  0  0  0  0  0  0
  194.1820  173.3960  143.9840 C   0  0  1  0  0  3  0  0  0  0  0  0
  195.6320  174.6640  145.6910 C   0  0  0  0  0  1  0  0  0  0  0  0
  196.4410  172.0640  146.1060 O   0  0  0  0  0  0  0  0  0  0  0  0
  196.5170  171.7610  142.5440 C   0  0  0  0  0  2  0  0  0  0  0  0
  189.8890  175.6370  142.5730 C   0  0  2  0  0  3  0  0  0  0  0  0
  189.4890  177.7220  144.8320 C   0  0  0  0  0  3  0  0  0  0  0  0
  193.3670  174.7150  143.9860 C   0  0  0  0  0  2  0  0  0  0  0  0
  195.0350  171.4930  142.3660 C   0  0  0  0  0  2  0  0  0  0  0  0
  191.1120  175.7440  143.4970 C   0  0  1  0  0  3  0  0  0  0  0  0
  187.5270  175.4700  142.5030 C   0  0  0  0  0  2  0  0  0  0  0  0
  194.1680  172.7460  142.5650 C   0  0  1  0  0  3  0  0  0  0  0  0
  196.8550  171.5840  143.9090 O   0  0  0  0  0  0  0  0  0  0  0  0
  188.5710  176.8720  144.3470 C   0  0  0  0  0  0  0  0  0  0  0  0
  191.6760  173.3740  142.7200 C   0  0  1  0  0  3  0  0  0  0  0  0
  195.6060  173.6760  144.5240 C   0  0  1  0  0  3  0  0  0  0  0  0
  192.2110  174.7900  142.9820 C   0  0  2  0  0  3  0  0  0  0  0  0
  190.9090  170.9640  141.2740 C   0  0  0  0  0  2  0  0  0  0  0  0
  190.6070  178.2480  143.9790 C   0  0  0  0  0  2  0  0  0  0  0  0
  192.2420  171.0690  142.0190 C   0  0  0  0  0  2  0  0  0  0  0  0
  191.6490  177.1820  143.6030 C   0  0  0  0  0  2  0  0  0  0  0  0
  188.6480  176.4360  142.8980 C   0  0  1  0  0  3  0  0  0  0  0  0
  189.8570  171.8840  141.9020 C   0  0  0  0  0  2  0  0  0  0  0  0
  189.3620  174.2370  142.6240 C   0  0  2  0  0  3  0  0  0  0  0  0
  187.5300  176.3730  145.1940 N   0  0  0  0  0  2  0  0  0  0  0  0
  187.6170  176.3490  146.6470 C   0  0  0  0  0  2  0  0  0  0  0  0
  185.3260  178.9140  147.3130 C   0  0  0  0  0  2  0  0  0  0  0  0
  185.2890  176.7890  146.3800 O   0  0  0  0  0  0  0  0  0  0  0  0
  186.3720  176.9740  147.2490 C   0  0  0  0  0  3  0  0  0  0  0  0
  184.4810  177.9000  146.6010 C   0  0  0  0  0  2  0  0  0  0  0  0
  186.5850  178.3420  147.4750 O   0  0  0  0  0  0  0  0  0  0  0  0
  1 26  1  1  0  0  0
  1 27  1  0  0  0  0
  1 18  1  0  0  0  0
  2 14  1  0  0  0  0
  2 27  1  0  0  0  0
  3  7  2  0  0  0  0
  4 23  1  1  0  0  0
  4 15  1  0  0  0  0
  4 18  1  0  0  0  0
  5 11  1  6  0  0  0
  5 19  1  0  0  0  0
  8 16  1  0  0  0  0
  9 27  1  0  0  0  0
  9 25  1  0  0  0  0
  9 13  1  0  0  0  0
 12  8  1  0  0  0  0
 12 15  1  0  0  0  0
 13 24  1  0  0  0  0
 14 25  1  0  0  0  0
 15  5  1  0  0  0  0
 16  3  1  0  0  0  0
 17 10  2  0  0  0  0
 17 28  1  0  0  0  0
 18 20  1  0  0  0  0
 19  3  1  0  0  0  0
 19  6  1  0  0  0  0
 20 13  1  0  0  0  0
 20 11  1  0  0  0  0
 21 26  1  0  0  0  0
 21 23  1  0  0  0  0
 22 10  1  0  0  0  0
 24 22  1  0  0  0  0
 25 17  1  0  0  0  0
 28 29  1  0  0  0  0
 29 32  1  0  0  0  0
 30 34  1  0  0  0  0
 31 33  1  0  0  0  0
 31 32  1  0  0  0  0
 32 34  1  0  0  0  0
 33 30  1  0  0  0  0
M  END
>  <MODEL>
8

>  <REMARK>
 VINA RESULT:      -7.6      2.543      4.288
  Name = 
  3 active torsions:
  status: ('A' for Active; 'I' for Inactive)
    1  A    between atoms: C_17  and  N_28
    2  A    between atoms: N_28  and  C_29
    3  A    between atoms: C_29  and  C_32
                            x       y       z     vdW  Elec       q    Type
                         _______ _______ _______ _____ _____    ______ ____

>  <TORSDO>
F 3

$$$$
=
 OpenBabel11112418053D

 34 40  0  0  1  0  0  0  0  0999 V2000
  193.5530  176.3520  143.3570 C   0  0  1  0  0  3  0  0  0  0  0  0
  191.5920  177.8240  143.3000 O   0  0  0  0  0  0  0  0  0  0  0  0
  196.0840  170.2150  144.4720 C   0  0  0  0  0  0  0  0  0  0  0  0
  195.4130  174.6840  143.5520 C   0  0  2  0  0  3  0  0  0  0  0  0
  194.8220  172.4040  144.6450 C   0  0  1  0  0  3  0  0  0  0  0  0
  194.2400  170.3870  146.1350 C   0  0  0  0  0  1  0  0  0  0  0  0
  195.5390  169.1650  144.0370 O   0  0  0  0  0  0  0  0  0  0  0  0
  197.9380  171.8050  144.2830 C   0  0  0  0  0  2  0  0  0  0  0  0
  191.9310  176.5030  145.1780 C   0  0  2  0  0  3  0  0  0  0  0  0
  189.4350  175.3400  146.6020 C   0  0  0  0  0  3  0  0  0  0  0  0
  193.7560  173.1130  145.5210 C   0  0  0  0  0  2  0  0  0  0  0  0
  197.1510  172.8230  143.4780 C   0  0  0  0  0  2  0  0  0  0  0  0
  192.1370  175.0500  145.6310 C   0  0  1  0  0  3  0  0  0  0  0  0
  190.4430  178.0000  144.1020 C   0  0  0  0  0  2  0  0  0  0  0  0
  195.9540  173.4020  144.2450 C   0  0  1  0  0  3  0  0  0  0  0  0
  197.3800  170.5200  144.0670 O   0  0  0  0  0  0  0  0  0  0  0  0
  189.4490  176.1520  145.5340 C   0  0  0  0  0  0  0  0  0  0  0  0
  193.9280  174.9310  143.8090 C   0  0  1  0  0  3  0  0  0  0  0  0
  195.3380  171.1480  145.3880 C   0  0  1  0  0  3  0  0  0  0  0  0
  193.5740  174.6150  145.2710 C   0  0  2  0  0  3  0  0  0  0  0  0
  195.2520  176.1460  141.5170 C   0  0  0  0  0  2  0  0  0  0  0  0
  190.5200  175.3810  147.6400 C   0  0  0  0  0  2  0  0  0  0  0  0
  195.6460  174.7610  142.0370 C   0  0  0  0  0  2  0  0  0  0  0  0
  191.8740  174.8570  147.1350 C   0  0  0  0  0  2  0  0  0  0  0  0
  190.5780  177.1500  145.3680 C   0  0  1  0  0  3  0  0  0  0  0  0
  193.7910  176.4600  141.8500 C   0  0  0  0  0  2  0  0  0  0  0  0
  192.0880  176.5760  143.6920 C   0  0  2  0  0  3  0  0  0  0  0  0
  188.4100  176.0730  144.5520 N   0  0  0  0  0  2  0  0  0  0  0  0
  187.0760  176.6250  144.7470 C   0  0  0  0  0  2  0  0  0  0  0  0
  184.9680  178.1820  142.4230 C   0  0  0  0  0  2  0  0  0  0  0  0
  187.2120  177.6050  142.5770 O   0  0  0  0  0  0  0  0  0  0  0  0
  186.3980  176.8200  143.4040 C   0  0  0  0  0  3  0  0  0  0  0  0
  186.3130  178.2910  141.7660 C   0  0  0  0  0  2  0  0  0  0  0  0
  185.1500  177.4350  143.5830 O   0  0  0  0  0  0  0  0  0  0  0  0
  1 26  1  6  0  0  0
  1 27  1  0  0  0  0
  1 18  1  0  0  0  0
  2 27  1  0  0  0  0
  2 14  1  0  0  0  0
  3 19  1  0  0  0  0
  4 23  1  6  0  0  0
  4 18  1  0  0  0  0
  4 15  1  0  0  0  0
  5 19  1  0  0  0  0
  5 11  1  1  0  0  0
  7  3  2  0  0  0  0
  9 25  1  0  0  0  0
  9 13  1  0  0  0  0
 10 22  1  0  0  0  0
 12 15  1  0  0  0  0
 12  8  1  0  0  0  0
 13 24  1  0  0  0  0
 14 25  1  0  0  0  0
 15  5  1  0  0  0  0
 16  8  1  0  0  0  0
 16  3  1  0  0  0  0
 17 10  2  0  0  0  0
 18 20  1  0  0  0  0
 19  6  1  0  0  0  0
 20 11  1  0  0  0  0
 20 13  1  0  0  0  0
 21 26  1  0  0  0  0
 21 23  1  0  0  0  0
 24 22  1  0  0  0  0
 25 17  1  0  0  0  0
 27  9  1  0  0  0  0
 28 29  1  0  0  0  0
 28 17  1  0  0  0  0
 30 34  1  0  0  0  0
 31 32  1  0  0  0  0
 32 34  1  0  0  0  0
 32 29  1  0  0  0  0
 33 30  1  0  0  0  0
 33 31  1  0  0  0  0
M  END
>  <MODEL>
9

>  <REMARK>
 VINA RESULT:      -7.3      2.512      4.545
  Name = 
  3 active torsions:
  status: ('A' for Active; 'I' for Inactive)
    1  A    between atoms: C_17  and  N_28
    2  A    between atoms: N_28  and  C_29
    3  A    between atoms: C_29  and  C_32
                            x       y       z     vdW  Elec       q    Type
                         _______ _______ _______ _____ _____    ______ ____

>  <TORSDO>
F 3

$$$$
