=
 OpenBabel11112417343D

 28 32  0  0  1  0  0  0  0  0999 V2000
  186.8380  178.2110  144.3350 C   0  0  0  0  0  0  0  0  0  0  0  0
  189.7310  177.4580  147.3510 O   0  0  0  0  0  0  0  0  0  0  0  0
  187.3940  173.7220  141.6090 O   0  0  0  0  0  0  0  0  0  0  0  0
  185.8140  176.8660  146.5730 C   0  0  0  0  0  3  0  0  0  0  0  0
  189.5230  174.2140  142.4710 N   0  0  0  0  0  0  0  0  0  0  0  0
  187.2910  178.9060  143.0850 C   0  0  0  0  0  2  0  0  0  0  0  0
  190.0790  175.0660  147.8080 O   0  0  0  0  0  0  0  0  0  0  0  0
  190.3570  176.1870  146.8480 S   0  0  0  0  0  0  0  0  0  0  0  0
  192.6670  176.4240  145.4120 C   0  0  0  0  0  0  0  0  0  0  0  0
  189.7180  175.7490  145.2410 C   0  0  2  0  0  3  0  0  0  0  0  0
  185.4410  177.4850  140.1610 N   0  0  0  0  0  1  0  0  0  0  0  0
  189.1660  176.5150  143.0060 C   0  0  1  0  0  3  0  0  0  0  0  0
  192.0660  175.9560  144.3580 N   0  0  0  0  0  0  0  0  0  0  0  0
  192.0560  176.4050  146.6980 N   0  0  0  0  0  2  0  0  0  0  0  0
  186.4550  177.6370  141.1460 C   0  0  0  0  0  0  0  0  0  0  0  0
  187.6150  177.2070  144.9620 C   0  0  0  0  0  0  0  0  0  0  0  0
  188.2030  174.5520  142.1030 C   0  0  0  0  0  0  0  0  0  0  0  0
  194.0060  177.0490  145.2620 C   0  0  0  0  0  1  0  0  0  0  0  0
  187.6430  176.7230  141.0760 C   0  0  0  0  0  2  0  0  0  0  0  0
  187.0770  176.5400  146.0770 C   0  0  0  0  0  3  0  0  0  0  0  0
  185.5750  178.5370  144.8490 C   0  0  0  0  0  3  0  0  0  0  0  0
  185.0660  177.8710  145.9640 C   0  0  0  0  0  3  0  0  0  0  0  0
  186.3570  178.6180  141.9980 N   0  0  0  0  0  0  0  0  0  0  0  0
  190.2280  175.4010  142.9130 C   0  0  1  0  0  3  0  0  0  0  0  0
  187.8730  175.9670  142.3740 C   0  0  2  0  0  3  0  0  0  0  0  0
  190.8010  175.2130  144.3070 C   0  0  2  0  0  3  0  0  0  0  0  0
  190.1760  172.9610  142.1270 C   0  0  0  0  0  1  0  0  0  0  0  0
  189.0310  176.8850  144.4920 C   0  0  1  0  0  3  0  0  0  0  0  0
  1 21  2  0  0  0  0
  1 16  1  0  0  0  0
  3 17  2  0  0  0  0
  5 24  1  0  0  0  0
  6  1  1  0  0  0  0
  8  2  2  0  0  0  0
  8  7  2  0  0  0  0
  9 14  1  0  0  0  0
 10  8  1  1  0  0  0
 11 15  1  0  0  0  0
 12 28  1  0  0  0  0
 13  9  2  0  0  0  0
 14  8  1  0  0  0  0
 15 23  2  0  0  0  0
 16 20  2  0  0  0  0
 17 25  1  0  0  0  0
 17  5  1  0  0  0  0
 18  9  1  0  0  0  0
 19 15  1  0  0  0  0
 19 25  1  0  0  0  0
 20  4  1  0  0  0  0
 21 22  1  0  0  0  0
 22  4  2  0  0  0  0
 23  6  1  0  0  0  0
 24 12  1  0  0  0  0
 24 26  1  0  0  0  0
 25 12  1  0  0  0  0
 26 13  1  0  0  0  0
 26 10  1  0  0  0  0
 27  5  1  0  0  0  0
 28 16  1  0  0  0  0
 28 10  1  0  0  0  0
M  END
>  <MODEL>
1

>  <REMARK>
 VINA RESULT:      -9.0      0.000      0.000
  Name = 
  0 active torsions:
  status: ('A' for Active; 'I' for Inactive)
                            x       y       z     vdW  Elec       q    Type
                         _______ _______ _______ _____ _____    ______ ____

>  <TORSDO>
F 0

$$$$
=
 OpenBabel11112417343D

 28 32  0  0  1  0  0  0  0  0999 V2000
  189.0570  176.6420  145.3660 C   0  0  0  0  0  0  0  0  0  0  0  0
  192.9990  175.4740  146.4300 O   0  0  0  0  0  0  0  0  0  0  0  0
  188.3370  173.3050  141.3360 O   0  0  0  0  0  0  0  0  0  0  0  0
  189.1520  174.5530  147.2350 C   0  0  0  0  0  3  0  0  0  0  0  0
  190.6260  173.8350  141.3250 N   0  0  0  0  0  0  0  0  0  0  0  0
  188.8980  177.7370  144.3530 C   0  0  0  0  0  2  0  0  0  0  0  0
  193.5200  173.1370  145.8700 O   0  0  0  0  0  0  0  0  0  0  0  0
  193.3340  174.5210  145.3180 S   0  0  0  0  0  0  0  0  0  0  0  0
  194.7520  175.5230  143.2100 C   0  0  0  0  0  0  0  0  0  0  0  0
  192.0420  174.4890  144.0880 C   0  0  2  0  0  3  0  0  0  0  0  0
  185.9340  176.9860  142.1990 N   0  0  0  0  0  1  0  0  0  0  0  0
  190.5420  175.7910  142.6950 C   0  0  1  0  0  3  0  0  0  0  0  0
  193.7420  175.3030  142.4200 N   0  0  0  0  0  0  0  0  0  0  0  0
  194.7840  175.0290  144.5450 N   0  0  0  0  0  2  0  0  0  0  0  0
  187.2820  176.9910  142.6500 C   0  0  0  0  0  0  0  0  0  0  0  0
  190.0360  175.6270  145.2300 C   0  0  0  0  0  0  0  0  0  0  0  0
  189.2810  174.0630  141.6870 C   0  0  0  0  0  0  0  0  0  0  0  0
  195.8790  176.3600  142.7250 C   0  0  0  0  0  1  0  0  0  0  0  0
  188.3140  176.3300  141.7840 C   0  0  0  0  0  2  0  0  0  0  0  0
  190.0570  174.5850  146.1740 C   0  0  0  0  0  3  0  0  0  0  0  0
  188.1600  176.6050  146.4420 C   0  0  0  0  0  3  0  0  0  0  0  0
  188.2070  175.5670  147.3740 C   0  0  0  0  0  3  0  0  0  0  0  0
  187.5760  177.6470  143.7360 N   0  0  0  0  0  0  0  0  0  0  0  0
  191.4520  174.9300  141.7950 C   0  0  1  0  0  3  0  0  0  0  0  0
  189.1040  175.2660  142.5270 C   0  0  2  0  0  3  0  0  0  0  0  0
  192.5900  174.4260  142.6640 C   0  0  2  0  0  3  0  0  0  0  0  0
  191.0570  172.8570  140.3410 C   0  0  0  0  0  1  0  0  0  0  0  0
  191.0890  175.6780  144.1270 C   0  0  1  0  0  3  0  0  0  0  0  0
  1 21  1  0  0  0  0
  3 17  2  0  0  0  0
  4 22  1  0  0  0  0
  5 17  1  0  0  0  0
  5 24  1  0  0  0  0
  6  1  1  0  0  0  0
  8  7  2  0  0  0  0
  8  2  2  0  0  0  0
  9 14  1  0  0  0  0
 10 28  1  0  0  0  0
 10  8  1  1  0  0  0
 11 15  1  0  0  0  0
 12 28  1  0  0  0  0
 13 26  1  0  0  0  0
 13  9  2  0  0  0  0
 14  8  1  0  0  0  0
 15 23  2  0  0  0  0
 16  1  2  0  0  0  0
 16 20  1  0  0  0  0
 17 25  1  0  0  0  0
 18  9  1  0  0  0  0
 19 25  1  0  0  0  0
 19 15  1  0  0  0  0
 20  4  2  0  0  0  0
 21 22  2  0  0  0  0
 23  6  1  0  0  0  0
 24 26  1  0  0  0  0
 24 12  1  0  0  0  0
 25 12  1  0  0  0  0
 26 10  1  0  0  0  0
 27  5  1  0  0  0  0
 28 16  1  0  0  0  0
M  END
>  <MODEL>
2

>  <REMARK>
 VINA RESULT:      -7.9      2.199      2.831
  Name = 
  0 active torsions:
  status: ('A' for Active; 'I' for Inactive)
                            x       y       z     vdW  Elec       q    Type
                         _______ _______ _______ _____ _____    ______ ____

>  <TORSDO>
F 0

$$$$
=
 OpenBabel11112417343D

 28 32  0  0  1  0  0  0  0  0999 V2000
  190.1460  177.4020  144.9880 C   0  0  0  0  0  0  0  0  0  0  0  0
  194.3430  177.4930  145.6270 O   0  0  0  0  0  0  0  0  0  0  0  0
  189.7490  172.4300  143.2530 O   0  0  0  0  0  0  0  0  0  0  0  0
  190.9170  176.5720  147.5530 C   0  0  0  0  0  3  0  0  0  0  0  0
  191.8440  173.1970  142.5170 N   0  0  0  0  0  0  0  0  0  0  0  0
  189.6320  177.8050  143.6370 C   0  0  0  0  0  2  0  0  0  0  0  0
  195.3110  175.2900  146.1380 O   0  0  0  0  0  0  0  0  0  0  0  0
  194.7580  176.1680  145.0510 S   0  0  0  0  0  0  0  0  0  0  0  0
  195.6680  176.1620  142.4770 C   0  0  0  0  0  0  0  0  0  0  0  0
  193.3770  175.3420  144.2820 C   0  0  2  0  0  3  0  0  0  0  0  0
  186.6910  175.6660  142.7630 N   0  0  0  0  0  1  0  0  0  0  0  0
  191.4760  175.5420  142.7880 C   0  0  1  0  0  3  0  0  0  0  0  0
  194.6520  175.4360  142.1140 N   0  0  0  0  0  0  0  0  0  0  0  0
  195.9600  176.4160  143.8480 N   0  0  0  0  0  2  0  0  0  0  0  0
  188.0460  176.0860  142.8660 C   0  0  0  0  0  0  0  0  0  0  0  0
  191.3070  176.6040  145.1450 C   0  0  0  0  0  0  0  0  0  0  0  0
  190.5310  173.3850  143.0000 C   0  0  0  0  0  0  0  0  0  0  0  0
  196.5170  176.7910  141.4320 C   0  0  0  0  0  1  0  0  0  0  0  0
  189.0960  175.2310  142.2180 C   0  0  0  0  0  2  0  0  0  0  0  0
  191.6680  176.1930  146.4400 C   0  0  0  0  0  3  0  0  0  0  0  0
  189.4070  177.7850  146.1150 C   0  0  0  0  0  3  0  0  0  0  0  0
  189.7900  177.3750  147.3920 C   0  0  0  0  0  3  0  0  0  0  0  0
  188.3040  177.2330  143.4260 N   0  0  0  0  0  0  0  0  0  0  0  0
  192.4490  174.4830  142.2320 C   0  0  1  0  0  3  0  0  0  0  0  0
  190.1840  174.8080  143.1910 C   0  0  2  0  0  3  0  0  0  0  0  0
  193.7620  174.6490  142.9770 C   0  0  2  0  0  3  0  0  0  0  0  0
  192.3710  171.9280  142.0430 C   0  0  0  0  0  1  0  0  0  0  0  0
  192.1910  176.2420  143.9550 C   0  0  1  0  0  3  0  0  0  0  0  0
  1 16  2  0  0  0  0
  1 21  1  0  0  0  0
  5 17  1  0  0  0  0
  6  1  1  0  0  0  0
  8  2  2  0  0  0  0
  8  7  2  0  0  0  0
  9 14  1  0  0  0  0
 10  8  1  6  0  0  0
 11 15  1  0  0  0  0
 12 25  1  0  0  0  0
 12 28  1  0  0  0  0
 13  9  2  0  0  0  0
 13 26  1  0  0  0  0
 14  8  1  0  0  0  0
 15 23  2  0  0  0  0
 16 20  1  0  0  0  0
 17 25  1  0  0  0  0
 17  3  2  0  0  0  0
 18  9  1  0  0  0  0
 19 15  1  0  0  0  0
 19 25  1  0  0  0  0
 20  4  2  0  0  0  0
 21 22  2  0  0  0  0
 22  4  1  0  0  0  0
 23  6  1  0  0  0  0
 24  5  1  0  0  0  0
 24 12  1  0  0  0  0
 24 26  1  0  0  0  0
 26 10  1  0  0  0  0
 27  5  1  0  0  0  0
 28 10  1  0  0  0  0
 28 16  1  0  0  0  0
M  END
>  <MODEL>
3

>  <REMARK>
 VINA RESULT:      -7.6      2.986      3.745
  Name = 
  0 active torsions:
  status: ('A' for Active; 'I' for Inactive)
                            x       y       z     vdW  Elec       q    Type
                         _______ _______ _______ _____ _____    ______ ____

>  <TORSDO>
F 0

$$$$
=
 OpenBabel11112417343D

 28 32  0  0  1  0  0  0  0  0999 V2000
  188.6240  175.6770  145.5760 C   0  0  0  0  0  0  0  0  0  0  0  0
  187.8790  173.5380  141.9840 O   0  0  0  0  0  0  0  0  0  0  0  0
  193.6650  176.9620  144.6630 O   0  0  0  0  0  0  0  0  0  0  0  0
  187.7080  177.2870  143.4700 C   0  0  0  0  0  3  0  0  0  0  0  0
  193.3430  174.8730  143.6380 N   0  0  0  0  0  0  0  0  0  0  0  0
  189.1410  174.9090  146.7560 C   0  0  0  0  0  2  0  0  0  0  0  0
  189.2710  174.2710  140.0930 O   0  0  0  0  0  0  0  0  0  0  0  0
  189.2530  173.4920  141.3770 S   0  0  0  0  0  0  0  0  0  0  0  0
  190.7270  171.2340  141.8100 C   0  0  0  0  0  0  0  0  0  0  0  0
  190.4690  174.1760  142.4890 C   0  0  2  0  0  3  0  0  0  0  0  0
  191.5780  177.0420  148.6270 N   0  0  0  0  0  1  0  0  0  0  0  0
  191.3300  174.2370  144.7570 C   0  0  1  0  0  3  0  0  0  0  0  0
  191.5950  171.9250  142.4890 N   0  0  0  0  0  0  0  0  0  0  0  0
  189.6880  171.8580  141.0630 N   0  0  0  0  0  2  0  0  0  0  0  0
  191.0870  176.1100  147.6720 C   0  0  0  0  0  0  0  0  0  0  0  0
  189.0880  175.4360  144.2590 C   0  0  0  0  0  0  0  0  0  0  0  0
  192.9960  175.9000  144.5410 C   0  0  0  0  0  0  0  0  0  0  0  0
  190.7870  169.7510  141.8600 C   0  0  0  0  0  1  0  0  0  0  0  0
  192.0830  175.4260  146.7820 C   0  0  0  0  0  2  0  0  0  0  0  0
  188.6220  176.2630  143.2210 C   0  0  0  0  0  3  0  0  0  0  0  0
  187.6980  176.7020  145.8110 C   0  0  0  0  0  3  0  0  0  0  0  0
  187.2390  177.5030  144.7640 C   0  0  0  0  0  3  0  0  0  0  0  0
  189.8170  175.8210  147.6770 N   0  0  0  0  0  0  0  0  0  0  0  0
  192.4410  173.7500  143.8040 C   0  0  1  0  0  3  0  0  0  0  0  0
  191.7670  175.6060  145.3070 C   0  0  2  0  0  3  0  0  0  0  0  0
  191.7730  173.3820  142.4910 C   0  0  2  0  0  3  0  0  0  0  0  0
  194.6040  174.8020  142.9190 C   0  0  0  0  0  1  0  0  0  0  0  0
  190.0250  174.2730  143.9440 C   0  0  1  0  0  3  0  0  0  0  0  0
  1 21  1  0  0  0  0
  1  6  1  0  0  0  0
  4 22  1  0  0  0  0
  5 24  1  0  0  0  0
  5 17  1  0  0  0  0
  6 23  1  0  0  0  0
  7  8  2  0  0  0  0
  8  2  2  0  0  0  0
  9 18  1  0  0  0  0
  9 13  2  0  0  0  0
 10  8  1  6  0  0  0
 10 26  1  0  0  0  0
 10 28  1  0  0  0  0
 12 25  1  0  0  0  0
 13 26  1  0  0  0  0
 14  8  1  0  0  0  0
 14  9  1  0  0  0  0
 15 23  2  0  0  0  0
 15 11  1  0  0  0  0
 16  1  2  0  0  0  0
 17  3  2  0  0  0  0
 17 25  1  0  0  0  0
 19 15  1  0  0  0  0
 20  4  2  0  0  0  0
 20 16  1  0  0  0  0
 22 21  2  0  0  0  0
 24 12  1  0  0  0  0
 25 19  1  0  0  0  0
 26 24  1  0  0  0  0
 27  5  1  0  0  0  0
 28 16  1  0  0  0  0
 28 12  1  0  0  0  0
M  END
>  <MODEL>
4

>  <REMARK>
 VINA RESULT:      -7.6      3.024      5.720
  Name = 
  0 active torsions:
  status: ('A' for Active; 'I' for Inactive)
                            x       y       z     vdW  Elec       q    Type
                         _______ _______ _______ _____ _____    ______ ____

>  <TORSDO>
F 0

$$$$
=
 OpenBabel11112417343D

 28 32  0  0  1  0  0  0  0  0999 V2000
  186.7840  176.8860  143.6590 C   0  0  0  0  0  0  0  0  0  0  0  0
  189.8540  174.8430  141.5530 O   0  0  0  0  0  0  0  0  0  0  0  0
  189.6320  178.4600  147.8180 O   0  0  0  0  0  0  0  0  0  0  0  0
  188.2280  178.5220  141.8990 C   0  0  0  0  0  3  0  0  0  0  0  0
  190.5440  176.3960  147.1650 N   0  0  0  0  0  0  0  0  0  0  0  0
  185.9670  176.1030  144.6450 C   0  0  0  0  0  2  0  0  0  0  0  0
  192.1090  175.7150  142.0070 O   0  0  0  0  0  0  0  0  0  0  0  0
  190.9770  174.8900  142.5510 S   0  0  0  0  0  0  0  0  0  0  0  0
  191.3180  172.6970  144.1420 C   0  0  0  0  0  0  0  0  0  0  0  0
  190.4340  175.5950  144.0960 C   0  0  2  0  0  3  0  0  0  0  0  0
  185.1630  178.2890  147.5710 N   0  0  0  0  0  1  0  0  0  0  0  0
  188.7280  175.6170  145.8220 C   0  0  1  0  0  3  0  0  0  0  0  0
  191.0230  173.4060  145.1910 N   0  0  0  0  0  0  0  0  0  0  0  0
  191.5320  173.2930  142.8660 N   0  0  0  0  0  2  0  0  0  0  0  0
  185.8770  177.3690  146.7560 C   0  0  0  0  0  0  0  0  0  0  0  0
  188.1850  176.7170  143.5400 C   0  0  0  0  0  0  0  0  0  0  0  0
  189.5240  177.3710  147.1930 C   0  0  0  0  0  0  0  0  0  0  0  0
  191.3780  171.2180  144.2630 C   0  0  0  0  0  1  0  0  0  0  0  0
  187.1360  176.7700  147.3120 C   0  0  0  0  0  2  0  0  0  0  0  0
  188.8890  177.5560  142.6570 C   0  0  0  0  0  3  0  0  0  0  0  0
  186.1300  177.8530  142.8830 C   0  0  0  0  0  3  0  0  0  0  0  0
  186.8470  178.6660  142.0050 C   0  0  0  0  0  3  0  0  0  0  0  0
  185.3620  177.0140  145.6140 N   0  0  0  0  0  0  0  0  0  0  0  0
  190.0800  175.2230  146.4500 C   0  0  1  0  0  3  0  0  0  0  0  0
  188.3350  176.9870  146.4050 C   0  0  2  0  0  3  0  0  0  0  0  0
  191.0160  174.8700  145.3080 C   0  0  2  0  0  3  0  0  0  0  0  0
  191.7240  176.4170  148.0130 C   0  0  0  0  0  1  0  0  0  0  0  0
  188.9230  175.6160  144.2970 C   0  0  1  0  0  3  0  0  0  0  0  0
  1  6  1  0  0  0  0
  2  8  2  0  0  0  0
  4 22  2  0  0  0  0
  4 20  1  0  0  0  0
  5 17  1  0  0  0  0
  5 27  1  0  0  0  0
  6 23  1  0  0  0  0
  7  8  2  0  0  0  0
  8 14  1  0  0  0  0
  9 18  1  0  0  0  0
  9 13  2  0  0  0  0
 10  8  1  6  0  0  0
 10 28  1  0  0  0  0
 10 26  1  0  0  0  0
 12 25  1  0  0  0  0
 12 24  1  0  0  0  0
 13 26  1  0  0  0  0
 14  9  1  0  0  0  0
 15 19  1  0  0  0  0
 15 11  1  0  0  0  0
 16  1  1  0  0  0  0
 16 28  1  0  0  0  0
 17  3  2  0  0  0  0
 20 16  2  0  0  0  0
 21  1  2  0  0  0  0
 22 21  1  0  0  0  0
 23 15  2  0  0  0  0
 24  5  1  0  0  0  0
 25 17  1  0  0  0  0
 25 19  1  0  0  0  0
 26 24  1  0  0  0  0
 28 12  1  0  0  0  0
M  END
>  <MODEL>
5

>  <REMARK>
 VINA RESULT:      -7.3      2.491      4.796
  Name = 
  0 active torsions:
  status: ('A' for Active; 'I' for Inactive)
                            x       y       z     vdW  Elec       q    Type
                         _______ _______ _______ _____ _____    ______ ____

>  <TORSDO>
F 0

$$$$
=
 OpenBabel11112417343D

 28 32  0  0  1  0  0  0  0  0999 V2000
  194.8070  175.7420  144.2240 C   0  0  0  0  0  0  0  0  0  0  0  0
  191.5380  178.3870  143.6360 O   0  0  0  0  0  0  0  0  0  0  0  0
  192.2500  171.1870  143.4450 O   0  0  0  0  0  0  0  0  0  0  0  0
  194.4580  176.5320  141.5560 C   0  0  0  0  0  3  0  0  0  0  0  0
  190.6830  172.6400  144.4220 N   0  0  0  0  0  0  0  0  0  0  0  0
  195.0640  175.2400  145.6150 C   0  0  0  0  0  2  0  0  0  0  0  0
  189.8010  177.4920  142.1420 O   0  0  0  0  0  0  0  0  0  0  0  0
  190.3930  177.4200  143.5200 S   0  0  0  0  0  0  0  0  0  0  0  0
  188.9360  176.9440  145.7800 C   0  0  0  0  0  0  0  0  0  0  0  0
  190.9300  175.7490  143.8370 C   0  0  2  0  0  3  0  0  0  0  0  0
  196.2310  171.6920  145.4360 N   0  0  0  0  0  1  0  0  0  0  0  0
  192.2020  174.2710  145.2820 C   0  0  1  0  0  3  0  0  0  0  0  0
  189.3290  175.7040  145.7790 N   0  0  0  0  0  0  0  0  0  0  0  0
  189.1890  177.8150  144.6820 N   0  0  0  0  0  2  0  0  0  0  0  0
  195.3380  172.7950  145.5200 C   0  0  0  0  0  0  0  0  0  0  0  0
  193.4980  175.8580  143.6960 C   0  0  0  0  0  0  0  0  0  0  0  0
  191.9960  172.2320  144.1030 C   0  0  0  0  0  0  0  0  0  0  0  0
  188.2540  177.4830  146.9840 C   0  0  0  0  0  1  0  0  0  0  0  0
  193.8740  172.5010  145.6780 C   0  0  0  0  0  2  0  0  0  0  0  0
  193.3490  176.2470  142.3520 C   0  0  0  0  0  3  0  0  0  0  0  0
  195.9130  176.0420  143.4170 C   0  0  0  0  0  3  0  0  0  0  0  0
  195.7420  176.4380  142.0900 C   0  0  0  0  0  3  0  0  0  0  0  0
  195.8320  173.9990  145.5550 N   0  0  0  0  0  0  0  0  0  0  0  0
  190.7280  173.8190  145.2640 C   0  0  1  0  0  3  0  0  0  0  0  0
  193.0280  173.1630  144.6030 C   0  0  2  0  0  3  0  0  0  0  0  0
  189.9200  174.9550  144.6630 C   0  0  2  0  0  3  0  0  0  0  0  0
  189.5000  171.8150  144.2410 C   0  0  0  0  0  1  0  0  0  0  0  0
  192.2650  175.6300  144.5650 C   0  0  1  0  0  3  0  0  0  0  0  0
  1  6  1  0  0  0  0
  3 17  2  0  0  0  0
  4 22  2  0  0  0  0
  4 20  1  0  0  0  0
  5 24  1  0  0  0  0
  7  8  2  0  0  0  0
  8  2  2  0  0  0  0
  8 14  1  0  0  0  0
  9 18  1  0  0  0  0
 10  8  1  1  0  0  0
 10 28  1  0  0  0  0
 10 26  1  0  0  0  0
 11 15  1  0  0  0  0
 13  9  2  0  0  0  0
 14  9  1  0  0  0  0
 15 23  2  0  0  0  0
 15 19  1  0  0  0  0
 16  1  1  0  0  0  0
 16 28  1  0  0  0  0
 17  5  1  0  0  0  0
 17 25  1  0  0  0  0
 20 16  2  0  0  0  0
 21  1  2  0  0  0  0
 22 21  1  0  0  0  0
 23  6  1  0  0  0  0
 24 12  1  0  0  0  0
 25 12  1  0  0  0  0
 25 19  1  0  0  0  0
 26 24  1  0  0  0  0
 26 13  1  0  0  0  0
 27  5  1  0  0  0  0
 28 12  1  0  0  0  0
M  END
>  <MODEL>
6

>  <REMARK>
 VINA RESULT:      -7.0      3.294      7.035
  Name = 
  0 active torsions:
  status: ('A' for Active; 'I' for Inactive)
                            x       y       z     vdW  Elec       q    Type
                         _______ _______ _______ _____ _____    ______ ____

>  <TORSDO>
F 0

$$$$
=
 OpenBabel11112417343D

 28 32  0  0  1  0  0  0  0  0999 V2000
  189.1900  175.6790  145.3800 C   0  0  0  0  0  0  0  0  0  0  0  0
  189.2340  173.1510  141.9680 O   0  0  0  0  0  0  0  0  0  0  0  0
  194.2450  177.2050  145.2600 O   0  0  0  0  0  0  0  0  0  0  0  0
  188.6080  177.0080  142.9800 C   0  0  0  0  0  3  0  0  0  0  0  0
  194.2220  175.0080  144.4290 N   0  0  0  0  0  0  0  0  0  0  0  0
  189.5140  175.0680  146.7110 C   0  0  0  0  0  2  0  0  0  0  0  0
  190.9190  173.7850  140.2920 O   0  0  0  0  0  0  0  0  0  0  0  0
  190.6990  173.1380  141.6290 S   0  0  0  0  0  0  0  0  0  0  0  0
  192.1720  171.0390  142.5670 C   0  0  0  0  0  0  0  0  0  0  0  0
  191.6500  174.0090  142.8610 C   0  0  2  0  0  3  0  0  0  0  0  0
  191.4520  177.5350  148.7470 N   0  0  0  0  0  1  0  0  0  0  0  0
  192.0670  174.3510  145.2270 C   0  0  1  0  0  3  0  0  0  0  0  0
  192.8630  171.8500  143.3120 N   0  0  0  0  0  0  0  0  0  0  0  0
  191.2620  171.5140  141.5800 N   0  0  0  0  0  2  0  0  0  0  0  0
  191.1930  176.4830  147.8270 C   0  0  0  0  0  0  0  0  0  0  0  0
  189.9040  175.3420  144.2030 C   0  0  0  0  0  0  0  0  0  0  0  0
  193.6630  176.0940  145.1360 C   0  0  0  0  0  0  0  0  0  0  0  0
  192.2930  169.5750  142.7890 C   0  0  0  0  0  1  0  0  0  0  0  0
  192.3700  175.7830  147.2130 C   0  0  0  0  0  2  0  0  0  0  0  0
  189.6000  176.0280  143.0140 C   0  0  0  0  0  3  0  0  0  0  0  0
  188.1880  176.6580  145.3290 C   0  0  0  0  0  3  0  0  0  0  0  0
  187.8950  177.3180  144.1360 C   0  0  0  0  0  3  0  0  0  0  0  0
  189.9600  176.1100  147.6340 N   0  0  0  0  0  0  0  0  0  0  0  0
  193.3590  173.8490  144.5510 C   0  0  1  0  0  3  0  0  0  0  0  0
  192.3280  175.7950  145.6940 C   0  0  2  0  0  3  0  0  0  0  0  0
  192.9680  173.3090  143.1870 C   0  0  2  0  0  3  0  0  0  0  0  0
  195.5970  174.9520  143.9620 C   0  0  0  0  0  1  0  0  0  0  0  0
  190.9380  174.2190  144.1930 C   0  0  1  0  0  3  0  0  0  0  0  0
  1  6  1  0  0  0  0
  4 20  2  0  0  0  0
  4 22  1  0  0  0  0
  5 24  1  0  0  0  0
  5 17  1  0  0  0  0
  6 23  1  0  0  0  0
  7  8  2  0  0  0  0
  8  2  2  0  0  0  0
  9 18  1  0  0  0  0
  9 13  2  0  0  0  0
 10  8  1  6  0  0  0
 10 26  1  0  0  0  0
 10 28  1  0  0  0  0
 12 25  1  0  0  0  0
 14  8  1  0  0  0  0
 14  9  1  0  0  0  0
 15 11  1  0  0  0  0
 16  1  2  0  0  0  0
 17  3  2  0  0  0  0
 17 25  1  0  0  0  0
 19 15  1  0  0  0  0
 20 16  1  0  0  0  0
 21  1  1  0  0  0  0
 22 21  2  0  0  0  0
 23 15  2  0  0  0  0
 24 12  1  0  0  0  0
 25 19  1  0  0  0  0
 26 13  1  0  0  0  0
 26 24  1  0  0  0  0
 27  5  1  0  0  0  0
 28 16  1  0  0  0  0
 28 12  1  0  0  0  0
M  END
>  <MODEL>
7

>  <REMARK>
 VINA RESULT:      -7.0      3.286      5.955
  Name = 
  0 active torsions:
  status: ('A' for Active; 'I' for Inactive)
                            x       y       z     vdW  Elec       q    Type
                         _______ _______ _______ _____ _____    ______ ____

>  <TORSDO>
F 0

$$$$
=
 OpenBabel11112417343D

 28 32  0  0  1  0  0  0  0  0999 V2000
  192.9370  174.5740  143.0860 C   0  0  0  0  0  0  0  0  0  0  0  0
  189.5950  173.9770  140.5350 O   0  0  0  0  0  0  0  0  0  0  0  0
  190.3230  175.1620  147.6370 O   0  0  0  0  0  0  0  0  0  0  0  0
  192.1600  171.8900  142.8490 C   0  0  0  0  0  3  0  0  0  0  0  0
  188.9210  176.0540  145.9760 N   0  0  0  0  0  0  0  0  0  0  0  0
  193.4160  175.9800  143.2990 C   0  0  0  0  0  2  0  0  0  0  0  0
  187.6490  172.9920  141.6720 O   0  0  0  0  0  0  0  0  0  0  0  0
  188.4540  174.2450  141.4760 S   0  0  0  0  0  0  0  0  0  0  0  0
  187.3800  176.7560  141.4430 C   0  0  0  0  0  0  0  0  0  0  0  0
  189.0470  174.8100  143.0600 C   0  0  2  0  0  3  0  0  0  0  0  0
  194.5660  176.3540  146.8380 N   0  0  0  0  0  1  0  0  0  0  0  0
  190.5450  176.3090  144.2430 C   0  0  1  0  0  3  0  0  0  0  0  0
  187.7770  176.9470  142.6660 N   0  0  0  0  0  0  0  0  0  0  0  0
  187.4470  175.4760  140.8210 N   0  0  0  0  0  2  0  0  0  0  0  0
  193.6900  176.3480  145.7190 C   0  0  0  0  0  0  0  0  0  0  0  0
  191.5590  174.2460  143.0480 C   0  0  0  0  0  0  0  0  0  0  0  0
  190.1690  175.6220  146.4740 C   0  0  0  0  0  0  0  0  0  0  0  0
  186.8950  177.9150  140.6510 C   0  0  0  0  0  1  0  0  0  0  0  0
  192.2720  176.7920  145.9370 C   0  0  0  0  0  2  0  0  0  0  0  0
  191.1940  172.8920  142.9370 C   0  0  0  0  0  3  0  0  0  0  0  0
  193.8970  173.5580  142.9850 C   0  0  0  0  0  3  0  0  0  0  0  0
  193.5130  172.2230  142.8650 C   0  0  0  0  0  3  0  0  0  0  0  0
  194.1740  176.0560  144.5460 N   0  0  0  0  0  0  0  0  0  0  0  0
  189.0900  176.6180  144.6510 C   0  0  1  0  0  3  0  0  0  0  0  0
  191.2610  175.7510  145.4870 C   0  0  2  0  0  3  0  0  0  0  0  0
  188.1880  175.9300  143.6420 C   0  0  2  0  0  3  0  0  0  0  0  0
  187.7300  176.2350  146.7900 C   0  0  0  0  0  1  0  0  0  0  0  0
  190.4820  175.3270  143.0620 C   0  0  1  0  0  3  0  0  0  0  0  0
  1  6  1  0  0  0  0
  2  8  2  0  0  0  0
  4 22  2  0  0  0  0
  4 20  1  0  0  0  0
  5 17  1  0  0  0  0
  5 27  1  0  0  0  0
  6 23  1  0  0  0  0
  8  7  2  0  0  0  0
  9 13  2  0  0  0  0
 10  8  1  6  0  0  0
 10 28  1  0  0  0  0
 10 26  1  0  0  0  0
 12 24  1  0  0  0  0
 12 25  1  0  0  0  0
 13 26  1  0  0  0  0
 14  9  1  0  0  0  0
 14  8  1  0  0  0  0
 15 19  1  0  0  0  0
 15 11  1  0  0  0  0
 16 28  1  0  0  0  0
 16  1  1  0  0  0  0
 17  3  2  0  0  0  0
 18  9  1  0  0  0  0
 20 16  2  0  0  0  0
 21  1  2  0  0  0  0
 22 21  1  0  0  0  0
 23 15  2  0  0  0  0
 24  5  1  0  0  0  0
 25 19  1  0  0  0  0
 25 17  1  0  0  0  0
 26 24  1  0  0  0  0
 28 12  1  0  0  0  0
M  END
>  <MODEL>
8

>  <REMARK>
 VINA RESULT:      -6.6      2.220      6.796
  Name = 
  0 active torsions:
  status: ('A' for Active; 'I' for Inactive)
                            x       y       z     vdW  Elec       q    Type
                         _______ _______ _______ _____ _____    ______ ____

>  <TORSDO>
F 0

$$$$
=
 OpenBabel11112417343D

 28 32  0  0  1  0  0  0  0  0999 V2000
  188.1200  176.8240  143.3530 C   0  0  0  0  0  0  0  0  0  0  0  0
  190.3080  177.7100  146.8830 O   0  0  0  0  0  0  0  0  0  0  0  0
  189.3520  171.7040  142.9600 O   0  0  0  0  0  0  0  0  0  0  0  0
  186.6660  176.4160  145.7160 C   0  0  0  0  0  3  0  0  0  0  0  0
  191.2330  172.7420  143.9110 N   0  0  0  0  0  0  0  0  0  0  0  0
  188.8180  176.9870  142.0350 C   0  0  0  0  0  2  0  0  0  0  0  0
  190.6000  175.7750  148.3740 O   0  0  0  0  0  0  0  0  0  0  0  0
  191.0550  176.4240  147.0970 S   0  0  0  0  0  0  0  0  0  0  0  0
  193.6160  176.3050  146.1570 C   0  0  0  0  0  0  0  0  0  0  0  0
  190.7900  175.2940  145.7430 C   0  0  2  0  0  3  0  0  0  0  0  0
  187.6760  174.2910  139.7090 N   0  0  0  0  0  1  0  0  0  0  0  0
  190.7170  175.0030  143.3350 C   0  0  1  0  0  3  0  0  0  0  0  0
  193.2680  175.3800  145.3120 N   0  0  0  0  0  0  0  0  0  0  0  0
  192.7410  176.7490  147.1890 N   0  0  0  0  0  2  0  0  0  0  0  0
  188.4500  174.9480  140.7040 C   0  0  0  0  0  0  0  0  0  0  0  0
  188.7650  176.2620  144.4820 C   0  0  0  0  0  0  0  0  0  0  0  0
  190.0170  172.7480  143.1940 C   0  0  0  0  0  0  0  0  0  0  0  0
  194.9420  176.9580  146.0070 C   0  0  0  0  0  1  0  0  0  0  0  0
  189.6440  174.2250  141.2550 C   0  0  0  0  0  2  0  0  0  0  0  0
  188.0130  176.0580  145.6530 C   0  0  0  0  0  3  0  0  0  0  0  0
  186.7700  177.1900  143.4330 C   0  0  0  0  0  3  0  0  0  0  0  0
  186.0450  176.9900  144.6090 C   0  0  0  0  0  3  0  0  0  0  0  0
  188.1490  176.1740  141.0210 N   0  0  0  0  0  0  0  0  0  0  0  0
  191.7990  174.0760  143.9270 C   0  0  1  0  0  3  0  0  0  0  0  0
  189.6050  174.1020  142.7680 C   0  0  2  0  0  3  0  0  0  0  0  0
  192.0600  174.5450  145.3470 C   0  0  2  0  0  3  0  0  0  0  0  0
  191.9720  171.5410  144.2620 C   0  0  0  0  0  1  0  0  0  0  0  0
  190.2560  175.9350  144.4670 C   0  0  1  0  0  3  0  0  0  0  0  0
  1 21  2  0  0  0  0
  1 16  1  0  0  0  0
  2  8  2  0  0  0  0
  3 17  2  0  0  0  0
  5 24  1  0  0  0  0
  5 27  1  0  0  0  0
  6  1  1  0  0  0  0
  8 14  1  0  0  0  0
  8  7  2  0  0  0  0
  9 14  1  0  0  0  0
 10  8  1  1  0  0  0
 11 15  1  0  0  0  0
 12 24  1  0  0  0  0
 12 28  1  0  0  0  0
 13 26  1  0  0  0  0
 13  9  2  0  0  0  0
 15 23  2  0  0  0  0
 15 19  1  0  0  0  0
 16 20  2  0  0  0  0
 17  5  1  0  0  0  0
 18  9  1  0  0  0  0
 19 25  1  0  0  0  0
 20  4  1  0  0  0  0
 21 22  1  0  0  0  0
 22  4  2  0  0  0  0
 23  6  1  0  0  0  0
 24 26  1  0  0  0  0
 25 17  1  0  0  0  0
 25 12  1  0  0  0  0
 26 10  1  0  0  0  0
 28 16  1  0  0  0  0
 28 10  1  0  0  0  0
M  END
>  <MODEL>
9

>  <REMARK>
 VINA RESULT:      -6.6      1.687      2.237
  Name = 
  0 active torsions:
  status: ('A' for Active; 'I' for Inactive)
                            x       y       z     vdW  Elec       q    Type
                         _______ _______ _______ _____ _____    ______ ____

>  <TORSDO>
F 0

$$$$
