=
 OpenBabel11112417363D

 28 31  0  0  1  0  0  0  0  0999 V2000
  185.7590  178.7320  144.1650 C   0  0  0  0  0  0  0  0  0  0  0  0
  188.4740  177.8070  147.5230 O   0  0  0  0  0  0  0  0  0  0  0  0
  188.5780  173.8330  141.5760 O   0  0  0  0  0  1  0  0  0  0  0  0
  184.8250  177.7570  146.6170 C   0  0  0  0  0  3  0  0  0  0  0  0
  190.1170  175.2690  142.4390 C   0  0  2  0  0  3  0  0  0  0  0  0
  186.1110  179.1520  142.7810 C   0  0  0  0  0  2  0  0  0  0  0  0
  188.2110  175.4470  146.8500 O   0  0  0  0  0  0  0  0  0  0  0  0
  189.0310  176.6950  146.6810 S   0  0  0  0  0  0  0  0  0  0  0  0
  191.7140  176.4450  146.3290 C   0  0  0  0  0  0  0  0  0  0  0  0
  189.0690  177.1880  144.9570 C   0  0  1  0  0  3  0  0  0  0  0  0
  186.1050  177.1830  139.6510 C   0  0  0  0  0  1  0  0  0  0  0  0
  187.4070  175.8380  143.3940 C   0  0  0  0  0  2  0  0  0  0  0  0
  191.5510  176.9030  144.9030 C   0  0  0  0  0  2  0  0  0  0  0  0
  190.6850  176.3620  147.1830 C   0  0  0  0  0  3  0  0  0  0  0  0
  186.6680  177.9900  140.8050 C   0  0  2  0  0  3  0  0  0  0  0  0
  186.4850  177.7220  144.8350 C   0  0  0  0  0  0  0  0  0  0  0  0
  188.9710  175.1300  141.5310 N   0  0  0  0  0  0  0  0  0  0  0  0
  193.0820  176.1200  146.8180 C   0  0  0  0  0  1  0  0  0  0  0  0
  187.9660  177.3670  141.3280 C   0  0  0  0  0  2  0  0  0  0  0  0
  185.9790  177.2200  146.0430 C   0  0  0  0  0  3  0  0  0  0  0  0
  184.5980  179.2600  144.7400 C   0  0  0  0  0  3  0  0  0  0  0  0
  184.1400  178.7850  145.9700 C   0  0  0  0  0  3  0  0  0  0  0  0
  185.6690  178.1180  141.8550 N   0  0  0  0  0  2  0  0  0  0  0  0
  190.2560  176.5800  142.9150 O   0  0  0  0  0  0  0  0  0  0  0  0
  187.8070  175.9490  141.8980 C   0  0  2  0  0  3  0  0  0  0  0  0
  190.2310  176.4310  144.3010 C   0  0  2  0  0  3  0  0  0  0  0  0
  191.3900  174.8580  141.7200 C   0  0  0  0  0  1  0  0  0  0  0  0
  187.7120  177.1030  144.2010 C   0  0  1  0  0  3  0  0  0  0  0  0
  1 21  2  0  0  0  0
  1 16  1  0  0  0  0
  5 27  1  6  0  0  0
  5 24  1  0  0  0  0
  6  1  1  0  0  0  0
  8  7  2  0  0  0  0
  8 14  1  0  0  0  0
  8  2  2  0  0  0  0
  9 18  1  0  0  0  0
  9 14  2  0  0  0  0
 10  8  1  1  0  0  0
 13  9  1  0  0  0  0
 15 11  1  6  0  0  0
 15 19  1  0  0  0  0
 15 23  1  0  0  0  0
 16 20  2  0  0  0  0
 17  3  1  0  0  0  0
 17 25  1  0  0  0  0
 17  5  1  0  0  0  0
 20  4  1  0  0  0  0
 21 22  1  0  0  0  0
 22  4  2  0  0  0  0
 23  6  1  0  0  0  0
 24 26  1  0  0  0  0
 25 19  1  1  0  0  0
 25 12  1  0  0  0  0
 26 13  1  1  0  0  0
 26 10  1  0  0  0  0
 28 12  1  1  0  0  0
 28 16  1  0  0  0  0
 28 10  1  0  0  0  0
M  END
>  <MODEL>
1

>  <REMARK>
 VINA RESULT:      -9.9      0.000      0.000
  Name = 
  0 active torsions:
  status: ('A' for Active; 'I' for Inactive)
                            x       y       z     vdW  Elec       q    Type
                         _______ _______ _______ _____ _____    ______ ____

>  <TORSDO>
F 0

$$$$
=
 OpenBabel11112417363D

 28 31  0  0  1  0  0  0  0  0999 V2000
  187.0950  177.0740  146.0950 C   0  0  0  0  0  0  0  0  0  0  0  0
  185.8420  176.9030  141.8650 O   0  0  0  0  0  0  0  0  0  0  0  0
  192.7780  176.6870  143.6040 O   0  0  0  0  0  1  0  0  0  0  0  0
  185.9330  179.2610  144.7920 C   0  0  0  0  0  3  0  0  0  0  0  0
  191.4120  175.1010  142.7130 C   0  0  2  0  0  3  0  0  0  0  0  0
  187.8160  176.0410  146.8880 C   0  0  0  0  0  2  0  0  0  0  0  0
  187.9260  178.1350  141.3850 O   0  0  0  0  0  0  0  0  0  0  0  0
  187.2960  176.7760  141.5070 S   0  0  0  0  0  0  0  0  0  0  0  0
  188.1380  174.8010  139.8410 C   0  0  0  0  0  0  0  0  0  0  0  0
  188.1520  175.8000  142.7450 C   0  0  1  0  0  3  0  0  0  0  0  0
  191.3710  175.9040  147.8990 C   0  0  0  0  0  1  0  0  0  0  0  0
  189.9240  177.1550  144.1770 C   0  0  0  0  0  2  0  0  0  0  0  0
  188.7800  174.1090  141.0160 C   0  0  0  0  0  2  0  0  0  0  0  0
  187.4410  175.9390  139.9650 C   0  0  0  0  0  3  0  0  0  0  0  0
  190.0910  175.4970  147.1930 C   0  0  2  0  0  3  0  0  0  0  0  0
  187.4550  177.3600  144.7590 C   0  0  0  0  0  0  0  0  0  0  0  0
  191.9600  175.6650  143.9540 N   0  0  0  0  0  0  0  0  0  0  0  0
  188.2420  174.1660  138.4990 C   0  0  0  0  0  1  0  0  0  0  0  0
  190.3700  175.0900  145.7430 C   0  0  0  0  0  2  0  0  0  0  0  0
  186.8890  178.4830  144.1370 C   0  0  0  0  0  3  0  0  0  0  0  0
  186.1430  177.8630  146.7500 C   0  0  0  0  0  3  0  0  0  0  0  0
  185.5520  178.9450  146.0960 C   0  0  0  0  0  3  0  0  0  0  0  0
  189.1160  176.5740  147.2740 N   0  0  0  0  0  2  0  0  0  0  0  0
  190.1820  174.4610  142.9240 O   0  0  0  0  0  0  0  0  0  0  0  0
  190.9470  176.2140  144.8670 C   0  0  2  0  0  3  0  0  0  0  0  0
  189.3210  175.1060  142.0360 C   0  0  2  0  0  3  0  0  0  0  0  0
  192.4010  174.1090  142.1250 C   0  0  0  0  0  1  0  0  0  0  0  0
  188.5220  176.5500  144.0560 C   0  0  1  0  0  3  0  0  0  0  0  0
  1 21  1  0  0  0  0
  1  6  1  0  0  0  0
  3 17  1  0  0  0  0
  4 22  1  0  0  0  0
  5 27  1  1  0  0  0
  5 24  1  0  0  0  0
  5 17  1  0  0  0  0
  6 23  1  0  0  0  0
  7  8  2  0  0  0  0
  8  2  2  0  0  0  0
  9 14  2  0  0  0  0
  9 13  1  0  0  0  0
 10  8  1  6  0  0  0
 10 28  1  0  0  0  0
 14  8  1  0  0  0  0
 15 23  1  0  0  0  0
 15 11  1  6  0  0  0
 16  1  2  0  0  0  0
 17 25  1  0  0  0  0
 18  9  1  0  0  0  0
 19 15  1  0  0  0  0
 20 16  1  0  0  0  0
 20  4  2  0  0  0  0
 22 21  2  0  0  0  0
 25 12  1  6  0  0  0
 25 19  1  0  0  0  0
 26 13  1  6  0  0  0
 26 10  1  0  0  0  0
 26 24  1  0  0  0  0
 28 12  1  6  0  0  0
 28 16  1  0  0  0  0
M  END
>  <MODEL>
2

>  <REMARK>
 VINA RESULT:      -8.9      2.622      5.152
  Name = 
  0 active torsions:
  status: ('A' for Active; 'I' for Inactive)
                            x       y       z     vdW  Elec       q    Type
                         _______ _______ _______ _____ _____    ______ ____

>  <TORSDO>
F 0

$$$$
=
 OpenBabel11112417363D

 28 31  0  0  1  0  0  0  0  0999 V2000
  190.4710  173.4310  143.9490 C   0  0  0  0  0  0  0  0  0  0  0  0
  189.3610  175.9960  147.3670 O   0  0  0  0  0  0  0  0  0  0  0  0
  187.6120  177.8890  140.6940 O   0  0  0  0  0  1  0  0  0  0  0  0
  192.3780  174.8130  145.4610 C   0  0  0  0  0  3  0  0  0  0  0  0
  186.3190  177.2350  142.4470 C   0  0  2  0  0  3  0  0  0  0  0  0
  189.5740  172.7240  142.9940 C   0  0  0  0  0  2  0  0  0  0  0  0
  189.6840  177.8900  145.8190 O   0  0  0  0  0  0  0  0  0  0  0  0
  188.6920  176.9100  146.3800 S   0  0  0  0  0  0  0  0  0  0  0  0
  186.1350  177.7380  146.7810 C   0  0  0  0  0  0  0  0  0  0  0  0
  187.9470  175.9520  145.0600 C   0  0  1  0  0  3  0  0  0  0  0  0
  188.6920  173.5920  139.5090 C   0  0  0  0  0  1  0  0  0  0  0  0
  189.0800  176.2870  142.6870 C   0  0  0  0  0  2  0  0  0  0  0  0
  185.6900  176.8480  145.6490 C   0  0  0  0  0  2  0  0  0  0  0  0
  187.4090  177.8000  147.1930 C   0  0  0  0  0  3  0  0  0  0  0  0
  188.4910  173.3440  140.9930 C   0  0  2  0  0  3  0  0  0  0  0  0
  190.1970  174.7480  144.3790 C   0  0  0  0  0  0  0  0  0  0  0  0
  187.0520  176.7900  141.2550 N   0  0  0  0  0  0  0  0  0  0  0  0
  185.1080  178.5420  147.4990 C   0  0  0  0  0  1  0  0  0  0  0  0
  187.5830  174.4120  141.6090 C   0  0  0  0  0  2  0  0  0  0  0  0
  191.1810  175.4370  145.1020 C   0  0  0  0  0  3  0  0  0  0  0  0
  191.6760  172.8140  144.3030 C   0  0  0  0  0  3  0  0  0  0  0  0
  192.6210  173.4970  145.0690 C   0  0  0  0  0  3  0  0  0  0  0  0
  189.7810  173.2790  141.6640 N   0  0  0  0  0  2  0  0  0  0  0  0
  186.1840  176.2100  143.3950 O   0  0  0  0  0  0  0  0  0  0  0  0
  188.1410  175.8420  141.5340 C   0  0  2  0  0  3  0  0  0  0  0  0
  186.7440  176.7560  144.5500 C   0  0  2  0  0  3  0  0  0  0  0  0
  184.9410  177.7300  142.0430 C   0  0  0  0  0  1  0  0  0  0  0  0
  188.9230  175.4480  143.9590 C   0  0  1  0  0  3  0  0  0  0  0  0
  1 21  2  0  0  0  0
  1 16  1  0  0  0  0
  3 17  1  0  0  0  0
  5 27  1  6  0  0  0
  5 24  1  0  0  0  0
  6  1  1  0  0  0  0
  7  8  2  0  0  0  0
  8 14  1  0  0  0  0
  8  2  2  0  0  0  0
  9 14  2  0  0  0  0
  9 18  1  0  0  0  0
 10  8  1  1  0  0  0
 13  9  1  0  0  0  0
 15 11  1  6  0  0  0
 15 19  1  0  0  0  0
 15 23  1  0  0  0  0
 16 20  2  0  0  0  0
 17 25  1  0  0  0  0
 17  5  1  0  0  0  0
 20  4  1  0  0  0  0
 21 22  1  0  0  0  0
 22  4  2  0  0  0  0
 23  6  1  0  0  0  0
 24 26  1  0  0  0  0
 25 19  1  1  0  0  0
 25 12  1  0  0  0  0
 26 10  1  0  0  0  0
 26 13  1  1  0  0  0
 28 12  1  1  0  0  0
 28 16  1  0  0  0  0
 28 10  1  0  0  0  0
M  END
>  <MODEL>
3

>  <REMARK>
 VINA RESULT:      -8.4      2.160      5.373
  Name = 
  0 active torsions:
  status: ('A' for Active; 'I' for Inactive)
                            x       y       z     vdW  Elec       q    Type
                         _______ _______ _______ _____ _____    ______ ____

>  <TORSDO>
F 0

$$$$
=
 OpenBabel11112417363D

 28 31  0  0  1  0  0  0  0  0999 V2000
  185.9210  177.1440  143.1790 C   0  0  0  0  0  0  0  0  0  0  0  0
  188.8270  174.4250  141.2640 O   0  0  0  0  0  0  0  0  0  0  0  0
  190.5470  177.9350  147.2550 O   0  0  0  0  0  1  0  0  0  0  0  0
  187.0950  177.7150  140.7030 C   0  0  0  0  0  3  0  0  0  0  0  0
  190.2000  175.7200  146.8710 C   0  0  2  0  0  3  0  0  0  0  0  0
  185.2980  177.0300  144.5260 C   0  0  0  0  0  2  0  0  0  0  0  0
  190.5540  175.9870  142.0830 O   0  0  0  0  0  0  0  0  0  0  0  0
  189.7680  174.7440  142.3920 S   0  0  0  0  0  0  0  0  0  0  0  0
  190.9890  172.7470  143.7730 C   0  0  0  0  0  0  0  0  0  0  0  0
  188.8530  174.9480  143.9190 C   0  0  1  0  0  3  0  0  0  0  0  0
  186.0730  178.8680  147.6400 C   0  0  0  0  0  1  0  0  0  0  0  0
  188.8700  177.4150  144.8870 C   0  0  0  0  0  2  0  0  0  0  0  0
  190.1080  173.0520  144.9560 C   0  0  0  0  0  2  0  0  0  0  0  0
  190.8870  173.4010  142.6070 C   0  0  0  0  0  3  0  0  0  0  0  0
  185.9490  177.6870  146.6960 C   0  0  2  0  0  3  0  0  0  0  0  0
  187.2890  176.8550  142.9730 C   0  0  0  0  0  0  0  0  0  0  0  0
  189.5790  176.9870  147.2810 N   0  0  0  0  0  0  0  0  0  0  0  0
  191.9790  171.6410  143.8900 C   0  0  0  0  0  1  0  0  0  0  0  0
  187.1760  176.7750  146.7940 C   0  0  0  0  0  2  0  0  0  0  0  0
  187.8670  177.1840  141.7390 C   0  0  0  0  0  3  0  0  0  0  0  0
  185.1550  177.6850  142.1400 C   0  0  0  0  0  3  0  0  0  0  0  0
  185.7360  177.9570  140.9010 C   0  0  0  0  0  3  0  0  0  0  0  0
  185.7340  178.1590  145.3360 N   0  0  0  0  0  2  0  0  0  0  0  0
  189.2670  174.8300  146.3200 O   0  0  0  0  0  0  0  0  0  0  0  0
  188.5000  177.4450  146.3940 C   0  0  2  0  0  3  0  0  0  0  0  0
  189.7930  174.5410  145.0610 C   0  0  2  0  0  3  0  0  0  0  0  0
  190.8690  175.0700  148.0690 C   0  0  0  0  0  1  0  0  0  0  0  0
  188.1430  176.3200  144.1020 C   0  0  1  0  0  3  0  0  0  0  0  0
  1  6  1  0  0  0  0
  2  8  2  0  0  0  0
  3 17  1  0  0  0  0
  4 22  2  0  0  0  0
  4 20  1  0  0  0  0
  5 17  1  0  0  0  0
  5 27  1  1  0  0  0
  6 23  1  0  0  0  0
  7  8  2  0  0  0  0
  8 14  1  0  0  0  0
  9 18  1  0  0  0  0
  9 13  1  0  0  0  0
 10  8  1  6  0  0  0
 10 28  1  0  0  0  0
 10 26  1  0  0  0  0
 14  9  2  0  0  0  0
 15 19  1  0  0  0  0
 15 11  1  1  0  0  0
 16  1  1  0  0  0  0
 16 28  1  0  0  0  0
 20 16  2  0  0  0  0
 21  1  2  0  0  0  0
 22 21  1  0  0  0  0
 23 15  1  0  0  0  0
 24  5  1  0  0  0  0
 25 12  1  6  0  0  0
 25 19  1  0  0  0  0
 25 17  1  0  0  0  0
 26 13  1  1  0  0  0
 26 24  1  0  0  0  0
 28 12  1  6  0  0  0
M  END
>  <MODEL>
4

>  <REMARK>
 VINA RESULT:      -8.3      2.318      4.886
  Name = 
  0 active torsions:
  status: ('A' for Active; 'I' for Inactive)
                            x       y       z     vdW  Elec       q    Type
                         _______ _______ _______ _____ _____    ______ ____

>  <TORSDO>
F 0

$$$$
=
 OpenBabel11112417363D

 28 31  0  0  1  0  0  0  0  0999 V2000
  188.3280  176.3970  146.2320 C   0  0  0  0  0  0  0  0  0  0  0  0
  186.4060  175.9590  142.2810 O   0  0  0  0  0  0  0  0  0  0  0  0
  193.4930  176.7890  142.7940 O   0  0  0  0  0  1  0  0  0  0  0  0
  186.6510  178.3640  145.1600 C   0  0  0  0  0  3  0  0  0  0  0  0
  192.2430  175.0030  142.1450 C   0  0  2  0  0  3  0  0  0  0  0  0
  189.3180  175.4960  146.8830 C   0  0  0  0  0  2  0  0  0  0  0  0
  188.1740  177.4710  141.4540 O   0  0  0  0  0  0  0  0  0  0  0  0
  187.7800  176.0370  141.6770 S   0  0  0  0  0  0  0  0  0  0  0  0
  188.6040  174.1720  139.8800 C   0  0  0  0  0  0  0  0  0  0  0  0
  188.9690  175.2220  142.7430 C   0  0  1  0  0  3  0  0  0  0  0  0
  192.9750  175.8980  147.2630 C   0  0  0  0  0  1  0  0  0  0  0  0
  190.7420  176.8490  143.8540 C   0  0  0  0  0  2  0  0  0  0  0  0
  189.5320  173.6060  140.9230 C   0  0  0  0  0  2  0  0  0  0  0  0
  187.7790  175.1990  140.1280 C   0  0  0  0  0  3  0  0  0  0  0  0
  191.6670  175.2950  146.7880 C   0  0  2  0  0  3  0  0  0  0  0  0
  188.4070  176.7050  144.8550 C   0  0  0  0  0  0  0  0  0  0  0  0
  192.9060  175.6660  143.2750 N   0  0  0  0  0  0  0  0  0  0  0  0
  188.5680  173.5320  138.5370 C   0  0  0  0  0  1  0  0  0  0  0  0
  191.7490  174.9040  145.3090 C   0  0  0  0  0  2  0  0  0  0  0  0
  187.5850  177.7200  144.3460 C   0  0  0  0  0  3  0  0  0  0  0  0
  187.3970  177.0520  147.0450 C   0  0  0  0  0  3  0  0  0  0  0  0
  186.5500  178.0230  146.5090 C   0  0  0  0  0  3  0  0  0  0  0  0
  190.5720  176.2200  147.0420 N   0  0  0  0  0  2  0  0  0  0  0  0
  191.1740  174.1960  142.5620 O   0  0  0  0  0  0  0  0  0  0  0  0
  191.9950  176.0800  144.3520 C   0  0  2  0  0  3  0  0  0  0  0  0
  190.0890  174.6910  141.8390 C   0  0  2  0  0  3  0  0  0  0  0  0
  193.2500  174.1540  141.3900 C   0  0  0  0  0  1  0  0  0  0  0  0
  189.4450  176.0440  143.9740 C   0  0  1  0  0  3  0  0  0  0  0  0
  1  6  1  0  0  0  0
  1 21  1  0  0  0  0
  3 17  1  0  0  0  0
  4 22  1  0  0  0  0
  5 27  1  1  0  0  0
  5 24  1  0  0  0  0
  5 17  1  0  0  0  0
  6 23  1  0  0  0  0
  7  8  2  0  0  0  0
  8  2  2  0  0  0  0
  9 14  2  0  0  0  0
  9 13  1  0  0  0  0
 10  8  1  6  0  0  0
 10 28  1  0  0  0  0
 14  8  1  0  0  0  0
 15 23  1  0  0  0  0
 15 11  1  6  0  0  0
 16  1  2  0  0  0  0
 17 25  1  0  0  0  0
 18  9  1  0  0  0  0
 19 15  1  0  0  0  0
 20 16  1  0  0  0  0
 20  4  2  0  0  0  0
 22 21  2  0  0  0  0
 25 12  1  6  0  0  0
 25 19  1  0  0  0  0
 26 13  1  1  0  0  0
 26 24  1  0  0  0  0
 26 10  1  0  0  0  0
 28 12  1  6  0  0  0
 28 16  1  0  0  0  0
M  END
>  <MODEL>
5

>  <REMARK>
 VINA RESULT:      -7.8      2.907      5.437
  Name = 
  0 active torsions:
  status: ('A' for Active; 'I' for Inactive)
                            x       y       z     vdW  Elec       q    Type
                         _______ _______ _______ _____ _____    ______ ____

>  <TORSDO>
F 0

$$$$
=
 OpenBabel11112417363D

 28 31  0  0  1  0  0  0  0  0999 V2000
  187.9360  176.9740  145.5010 C   0  0  0  0  0  0  0  0  0  0  0  0
  187.6730  174.1860  142.0860 O   0  0  0  0  0  0  0  0  0  0  0  0
  194.0070  175.7200  145.0350 O   0  0  0  0  0  1  0  0  0  0  0  0
  187.2210  177.8220  142.9310 C   0  0  0  0  0  3  0  0  0  0  0  0
  192.7970  173.7940  145.0170 C   0  0  2  0  0  3  0  0  0  0  0  0
  188.4000  176.6950  146.8870 C   0  0  0  0  0  2  0  0  0  0  0  0
  189.8750  175.0780  141.4200 O   0  0  0  0  0  0  0  0  0  0  0  0
  189.1610  174.0100  142.1990 S   0  0  0  0  0  0  0  0  0  0  0  0
  190.2520  171.5230  142.2910 C   0  0  0  0  0  0  0  0  0  0  0  0
  189.6580  174.0570  143.9210 C   0  0  1  0  0  3  0  0  0  0  0  0
  191.6180  177.5330  148.5060 C   0  0  0  0  0  1  0  0  0  0  0  0
  191.1270  176.1620  144.5820 C   0  0  0  0  0  2  0  0  0  0  0  0
  190.5710  171.7370  143.7480 C   0  0  0  0  0  2  0  0  0  0  0  0
  189.6090  172.4360  141.5510 C   0  0  0  0  0  3  0  0  0  0  0  0
  190.5130  176.6630  147.9360 C   0  0  2  0  0  3  0  0  0  0  0  0
  188.6060  176.4360  144.3790 C   0  0  0  0  0  0  0  0  0  0  0  0
  193.0770  175.0380  145.7460 N   0  0  0  0  0  0  0  0  0  0  0  0
  190.6250  170.2250  141.6660 C   0  0  0  0  0  1  0  0  0  0  0  0
  191.0920  175.4990  147.1270 C   0  0  0  0  0  2  0  0  0  0  0  0
  188.2580  176.9020  143.1020 C   0  0  0  0  0  3  0  0  0  0  0  0
  186.9030  177.9010  145.3240 C   0  0  0  0  0  3  0  0  0  0  0  0
  186.5370  178.3130  144.0420 C   0  0  0  0  0  3  0  0  0  0  0  0
  189.6040  177.4750  147.1400 N   0  0  0  0  0  2  0  0  0  0  0  0
  191.5190  173.2940  145.3020 O   0  0  0  0  0  0  0  0  0  0  0  0
  191.9130  175.9240  145.9000 C   0  0  2  0  0  3  0  0  0  0  0  0
  190.9190  173.1930  144.0460 C   0  0  2  0  0  3  0  0  0  0  0  0
  193.8380  172.7480  145.3750 C   0  0  0  0  0  1  0  0  0  0  0  0
  189.7600  175.4740  144.5560 C   0  0  1  0  0  3  0  0  0  0  0  0
  1  6  1  0  0  0  0
  2  8  2  0  0  0  0
  3 17  1  0  0  0  0
  4 20  2  0  0  0  0
  4 22  1  0  0  0  0
  5 24  1  0  0  0  0
  5 27  1  1  0  0  0
  5 17  1  0  0  0  0
  6 23  1  0  0  0  0
  7  8  2  0  0  0  0
  9 13  1  0  0  0  0
 10  8  1  6  0  0  0
 10 26  1  0  0  0  0
 10 28  1  0  0  0  0
 14  8  1  0  0  0  0
 14  9  2  0  0  0  0
 15 11  1  6  0  0  0
 16 28  1  0  0  0  0
 16  1  2  0  0  0  0
 17 25  1  0  0  0  0
 18  9  1  0  0  0  0
 19 15  1  0  0  0  0
 20 16  1  0  0  0  0
 21  1  1  0  0  0  0
 22 21  2  0  0  0  0
 23 15  1  0  0  0  0
 25 12  1  6  0  0  0
 25 19  1  0  0  0  0
 26 13  1  1  0  0  0
 26 24  1  0  0  0  0
 28 12  1  6  0  0  0
M  END
>  <MODEL>
6

>  <REMARK>
 VINA RESULT:      -7.8      3.011      5.564
  Name = 
  0 active torsions:
  status: ('A' for Active; 'I' for Inactive)
                            x       y       z     vdW  Elec       q    Type
                         _______ _______ _______ _____ _____    ______ ____

>  <TORSDO>
F 0

$$$$
=
 OpenBabel11112417363D

 28 31  0  0  1  0  0  0  0  0999 V2000
  191.9800  175.2040  142.0260 C   0  0  0  0  0  0  0  0  0  0  0  0
  187.8970  175.9770  140.5310 O   0  0  0  0  0  0  0  0  0  0  0  0
  189.0620  174.9010  147.5070 O   0  0  0  0  0  1  0  0  0  0  0  0
  190.6030  173.3680  140.4240 C   0  0  0  0  0  3  0  0  0  0  0  0
  188.4220  176.7650  146.3700 C   0  0  2  0  0  3  0  0  0  0  0  0
  192.7920  176.0270  142.9640 C   0  0  0  0  0  2  0  0  0  0  0  0
  187.1450  174.4760  142.3390 O   0  0  0  0  0  0  0  0  0  0  0  0
  187.4310  175.9010  141.9580 S   0  0  0  0  0  0  0  0  0  0  0  0
  185.8690  177.8630  143.0040 C   0  0  0  0  0  0  0  0  0  0  0  0
  188.6690  176.6030  143.0480 C   0  0  1  0  0  3  0  0  0  0  0  0
  193.5090  175.4890  146.5520 C   0  0  0  0  0  1  0  0  0  0  0  0
  189.8310  174.8490  144.6610 C   0  0  0  0  0  2  0  0  0  0  0  0
  187.0380  178.3260  143.8330 C   0  0  0  0  0  2  0  0  0  0  0  0
  185.9560  176.8460  142.1350 C   0  0  0  0  0  3  0  0  0  0  0  0
  192.9490  176.1630  145.3130 C   0  0  2  0  0  3  0  0  0  0  0  0
  190.5990  174.9920  142.2390 C   0  0  0  0  0  0  0  0  0  0  0  0
  189.5620  176.0040  146.8990 N   0  0  0  0  0  0  0  0  0  0  0  0
  184.5790  178.5970  143.1210 C   0  0  0  0  0  1  0  0  0  0  0  0
  191.5190  176.6550  145.5560 C   0  0  0  0  0  2  0  0  0  0  0  0
  189.9370  174.0400  141.4510 C   0  0  0  0  0  3  0  0  0  0  0  0
  192.6450  174.5210  141.0010 C   0  0  0  0  0  3  0  0  0  0  0  0
  191.9550  173.6170  140.1920 C   0  0  0  0  0  3  0  0  0  0  0  0
  193.0230  175.2560  144.1780 N   0  0  0  0  0  2  0  0  0  0  0  0
  188.7870  177.5720  145.2840 O   0  0  0  0  0  0  0  0  0  0  0  0
  190.5090  175.5420  145.8730 C   0  0  2  0  0  3  0  0  0  0  0  0
  187.9240  177.1630  144.2670 C   0  0  2  0  0  3  0  0  0  0  0  0
  187.8370  177.6350  147.4690 C   0  0  0  0  0  1  0  0  0  0  0  0
  189.8790  175.6810  143.3770 C   0  0  1  0  0  3  0  0  0  0  0  0
  1 16  1  0  0  0  0
  1  6  1  0  0  0  0
  2  8  2  0  0  0  0
  4 20  1  0  0  0  0
  5 17  1  0  0  0  0
  5 27  1  1  0  0  0
  6 23  1  0  0  0  0
  8 14  1  0  0  0  0
  8  7  2  0  0  0  0
  9 18  1  0  0  0  0
  9 13  1  0  0  0  0
 10  8  1  6  0  0  0
 10 28  1  0  0  0  0
 10 26  1  0  0  0  0
 14  9  2  0  0  0  0
 15 19  1  0  0  0  0
 15 11  1  1  0  0  0
 16 28  1  0  0  0  0
 17  3  1  0  0  0  0
 19 25  1  0  0  0  0
 20 16  2  0  0  0  0
 21  1  2  0  0  0  0
 22  4  2  0  0  0  0
 22 21  1  0  0  0  0
 23 15  1  0  0  0  0
 24  5  1  0  0  0  0
 25 12  1  6  0  0  0
 25 17  1  0  0  0  0
 26 13  1  6  0  0  0
 26 24  1  0  0  0  0
 28 12  1  1  0  0  0
M  END
>  <MODEL>
7

>  <REMARK>
 VINA RESULT:      -7.7      2.478      6.757
  Name = 
  0 active torsions:
  status: ('A' for Active; 'I' for Inactive)
                            x       y       z     vdW  Elec       q    Type
                         _______ _______ _______ _____ _____    ______ ____

>  <TORSDO>
F 0

$$$$
=
 OpenBabel11112417363D

 28 31  0  0  1  0  0  0  0  0999 V2000
  188.8960  175.6030  146.0560 C   0  0  0  0  0  0  0  0  0  0  0  0
  187.0000  174.0990  142.3620 O   0  0  0  0  0  0  0  0  0  0  0  0
  193.7230  176.5410  142.2530 O   0  0  0  0  0  1  0  0  0  0  0  0
  186.7810  176.9460  144.8080 C   0  0  0  0  0  3  0  0  0  0  0  0
  192.8930  174.4410  141.9770 C   0  0  2  0  0  3  0  0  0  0  0  0
  190.0850  175.0630  146.7700 C   0  0  0  0  0  2  0  0  0  0  0  0
  188.3490  175.8030  141.1910 O   0  0  0  0  0  0  0  0  0  0  0  0
  188.3000  174.3760  141.6600 S   0  0  0  0  0  0  0  0  0  0  0  0
  189.4700  172.4630  140.1240 C   0  0  0  0  0  0  0  0  0  0  0  0
  189.6760  174.0320  142.7560 C   0  0  1  0  0  3  0  0  0  0  0  0
  193.5640  176.3180  146.8320 C   0  0  0  0  0  1  0  0  0  0  0  0
  191.0660  176.1710  143.4770 C   0  0  0  0  0  2  0  0  0  0  0  0
  190.5360  172.2970  141.1760 C   0  0  0  0  0  2  0  0  0  0  0  0
  188.4420  173.3110  140.2650 C   0  0  0  0  0  3  0  0  0  0  0  0
  192.4130  175.3700  146.5460 C   0  0  2  0  0  3  0  0  0  0  0  0
  188.8590  175.6860  144.6460 C   0  0  0  0  0  0  0  0  0  0  0  0
  193.4240  175.4130  142.9420 N   0  0  0  0  0  0  0  0  0  0  0  0
  189.5390  171.6160  138.9020 C   0  0  0  0  0  1  0  0  0  0  0  0
  192.5360  174.7660  145.1450 C   0  0  0  0  0  2  0  0  0  0  0  0
  187.8110  176.3960  144.0420 C   0  0  0  0  0  3  0  0  0  0  0  0
  187.8650  176.1640  146.8190 C   0  0  0  0  0  3  0  0  0  0  0  0
  186.8030  176.8210  146.1970 C   0  0  0  0  0  3  0  0  0  0  0  0
  191.1450  176.0620  146.7280 N   0  0  0  0  0  2  0  0  0  0  0  0
  192.0510  173.5000  142.5870 O   0  0  0  0  0  0  0  0  0  0  0  0
  192.4770  175.7910  144.0020 C   0  0  2  0  0  3  0  0  0  0  0  0
  190.8590  173.6160  141.8720 C   0  0  2  0  0  3  0  0  0  0  0  0
  194.0440  173.7200  141.2970 C   0  0  0  0  0  1  0  0  0  0  0  0
  189.9920  175.1330  143.8090 C   0  0  1  0  0  3  0  0  0  0  0  0
  1  6  1  0  0  0  0
  1 21  1  0  0  0  0
  3 17  1  0  0  0  0
  4 22  1  0  0  0  0
  5 27  1  1  0  0  0
  5 24  1  0  0  0  0
  5 17  1  0  0  0  0
  7  8  2  0  0  0  0
  8  2  2  0  0  0  0
  9 14  2  0  0  0  0
  9 13  1  0  0  0  0
 10  8  1  6  0  0  0
 10 28  1  0  0  0  0
 14  8  1  0  0  0  0
 15 23  1  0  0  0  0
 15 11  1  6  0  0  0
 16  1  2  0  0  0  0
 17 25  1  0  0  0  0
 18  9  1  0  0  0  0
 19 15  1  0  0  0  0
 20 16  1  0  0  0  0
 20  4  2  0  0  0  0
 22 21  2  0  0  0  0
 23  6  1  0  0  0  0
 25 12  1  6  0  0  0
 25 19  1  0  0  0  0
 26 13  1  1  0  0  0
 26 24  1  0  0  0  0
 26 10  1  0  0  0  0
 28 12  1  6  0  0  0
 28 16  1  0  0  0  0
M  END
>  <MODEL>
8

>  <REMARK>
 VINA RESULT:      -7.6      3.236      5.786
  Name = 
  0 active torsions:
  status: ('A' for Active; 'I' for Inactive)
                            x       y       z     vdW  Elec       q    Type
                         _______ _______ _______ _____ _____    ______ ____

>  <TORSDO>
F 0

$$$$
=
 OpenBabel11112417363D

 28 31  0  0  1  0  0  0  0  0999 V2000
  192.4620  174.3930  144.5920 C   0  0  0  0  0  0  0  0  0  0  0  0
  190.0960  174.1280  140.8730 O   0  0  0  0  0  0  0  0  0  0  0  0
  187.0400  176.2900  146.9690 O   0  0  0  0  0  1  0  0  0  0  0  0
  191.8500  171.9450  143.3810 C   0  0  0  0  0  3  0  0  0  0  0  0
  187.5020  177.4190  145.0480 C   0  0  2  0  0  3  0  0  0  0  0  0
  192.7760  175.6010  145.4030 C   0  0  0  0  0  2  0  0  0  0  0  0
  188.2040  173.5130  142.3330 O   0  0  0  0  0  0  0  0  0  0  0  0
  188.9240  174.6460  141.6590 S   0  0  0  0  0  0  0  0  0  0  0  0
  187.4650  176.7440  140.7350 C   0  0  0  0  0  0  0  0  0  0  0  0
  189.4780  175.8440  142.8720 C   0  0  1  0  0  3  0  0  0  0  0  0
  191.3040  176.7360  148.6000 C   0  0  0  0  0  1  0  0  0  0  0  0
  189.2060  175.0610  145.3900 C   0  0  0  0  0  2  0  0  0  0  0  0
  188.0590  177.6090  141.8160 C   0  0  0  0  0  2  0  0  0  0  0  0
  187.8090  175.4600  140.5660 C   0  0  0  0  0  3  0  0  0  0  0  0
  191.6530  176.7590  147.1240 C   0  0  2  0  0  3  0  0  0  0  0  0
  191.1780  174.1920  144.0370 C   0  0  0  0  0  0  0  0  0  0  0  0
  187.9950  177.0530  146.3830 N   0  0  0  0  0  0  0  0  0  0  0  0
  186.4930  177.3570  139.7880 C   0  0  0  0  0  1  0  0  0  0  0  0
  190.4500  177.1990  146.2830 C   0  0  0  0  0  2  0  0  0  0  0  0
  190.8800  172.9450  143.4690 C   0  0  0  0  0  3  0  0  0  0  0  0
  193.4280  173.3840  144.5090 C   0  0  0  0  0  3  0  0  0  0  0  0
  193.1280  172.1680  143.8920 C   0  0  0  0  0  3  0  0  0  0  0  0
  192.1530  175.4560  146.7120 N   0  0  0  0  0  2  0  0  0  0  0  0
  188.5490  177.6970  144.1580 O   0  0  0  0  0  0  0  0  0  0  0  0
  189.2350  176.2630  146.3720 C   0  0  2  0  0  3  0  0  0  0  0  0
  188.3170  176.8210  143.0970 C   0  0  2  0  0  3  0  0  0  0  0  0
  186.5970  178.6340  145.1550 C   0  0  0  0  0  1  0  0  0  0  0  0
  190.1060  175.2520  144.1660 C   0  0  1  0  0  3  0  0  0  0  0  0
  1  6  1  0  0  0  0
  2  8  2  0  0  0  0
  4 20  2  0  0  0  0
  4 22  1  0  0  0  0
  5 27  1  1  0  0  0
  5 17  1  0  0  0  0
  6 23  1  0  0  0  0
  8  7  2  0  0  0  0
  9 13  1  0  0  0  0
 10  8  1  6  0  0  0
 10 26  1  0  0  0  0
 10 28  1  0  0  0  0
 14  9  2  0  0  0  0
 14  8  1  0  0  0  0
 15 11  1  1  0  0  0
 16 28  1  0  0  0  0
 16  1  2  0  0  0  0
 17  3  1  0  0  0  0
 18  9  1  0  0  0  0
 19 25  1  0  0  0  0
 19 15  1  0  0  0  0
 20 16  1  0  0  0  0
 21  1  1  0  0  0  0
 22 21  2  0  0  0  0
 23 15  1  0  0  0  0
 24  5  1  0  0  0  0
 25 12  1  6  0  0  0
 25 17  1  0  0  0  0
 26 13  1  6  0  0  0
 26 24  1  0  0  0  0
 28 12  1  1  0  0  0
M  END
>  <MODEL>
9

>  <REMARK>
 VINA RESULT:      -7.5      2.583      6.934
  Name = 
  0 active torsions:
  status: ('A' for Active; 'I' for Inactive)
                            x       y       z     vdW  Elec       q    Type
                         _______ _______ _______ _____ _____    ______ ____

>  <TORSDO>
F 0

$$$$
