=
 OpenBabel11112417433D

 28 32  0  0  1  0  0  0  0  0999 V2000
  186.1030  178.3770  144.5690 C   0  0  0  0  0  0  0  0  0  0  0  0
  189.2180  178.1930  145.4220 F   0  0  0  0  0  0  0  0  0  0  0  0
  187.9460  173.4110  141.4320 O   0  0  0  0  0  1  0  0  0  0  0  0
  184.3780  177.6680  146.6700 C   0  0  0  0  0  3  0  0  0  0  0  0
  189.4660  174.5320  142.8060 N   0  0  0  0  0  0  0  0  0  0  0  0
  186.9610  178.8360  143.4270 C   0  0  0  0  0  2  0  0  0  0  0  0
  188.2940  177.8330  147.5640 C   0  0  0  0  0  1  0  0  0  0  0  0
  189.1360  177.2590  146.4420 C   0  0  1  0  0  0  0  0  0  0  0  0
  191.4340  176.4060  145.9410 C   0  0  1  0  0  3  0  0  0  0  0  0
  188.5030  175.9260  145.9410 C   0  0  2  0  0  3  0  0  0  0  0  0
  187.6900  177.6350  140.4650 O   0  0  0  0  0  0  0  0  0  0  0  0
  188.0280  176.1780  143.5920 C   0  0  1  0  0  3  0  0  0  0  0  0
  190.8980  175.0310  145.5820 C   0  0  0  0  0  2  0  0  0  0  0  0
  190.5360  177.0250  147.0000 C   0  0  0  0  0  2  0  0  0  0  0  0
  186.8240  177.4650  141.3630 C   0  0  0  0  0  0  0  0  0  0  0  0
  186.2900  177.1410  145.2560 C   0  0  0  0  0  0  0  0  0  0  0  0
  188.3730  174.6720  141.8480 C   0  0  2  0  0  3  0  0  0  0  0  0
  192.7270  176.2830  146.4430 O   0  0  0  0  0  1  0  0  0  0  0  0
  186.4560  176.1730  141.7460 O   0  0  0  0  0  0  0  0  0  0  0  0
  185.4110  176.8080  146.2960 C   0  0  0  0  0  3  0  0  0  0  0  0
  185.0630  179.2290  144.9610 C   0  0  0  0  0  3  0  0  0  0  0  0
  184.2060  178.8800  146.0040 C   0  0  0  0  0  3  0  0  0  0  0  0
  186.2570  178.6410  142.0870 C   0  0  0  0  0  2  0  0  0  0  0  0
  189.3770  175.6210  143.7040 N   0  0  1  0  0  0  0  0  0  0  0  0
  187.2680  175.3570  142.5920 C   0  0  2  0  0  3  0  0  0  0  0  0
  189.4580  175.1000  145.0700 C   0  0  2  0  0  3  0  0  0  0  0  0
  190.7020  174.7010  142.0600 C   0  0  0  0  0  1  0  0  0  0  0  0
  187.3650  176.1180  144.9470 C   0  0  2  0  0  3  0  0  0  0  0  0
  1 21  2  0  0  0  0
  1 16  1  0  0  0  0
  2  8  1  0  0  0  0
  3 17  1  0  0  0  0
  5 24  1  0  0  0  0
  6  1  1  0  0  0  0
  8 14  1  0  0  0  0
  8  7  1  1  0  0  0
  9 18  1  1  0  0  0
  9 14  1  0  0  0  0
 10  8  1  0  0  0  0
 11 15  2  0  0  0  0
 12 24  1  0  0  0  0
 12 28  1  0  0  0  0
 13  9  1  0  0  0  0
 15 19  1  0  0  0  0
 15 23  1  0  0  0  0
 16 20  2  0  0  0  0
 17 25  1  0  0  0  0
 17  5  1  0  0  0  0
 19 25  1  0  0  0  0
 20  4  1  0  0  0  0
 21 22  1  0  0  0  0
 22  4  2  0  0  0  0
 23  6  1  0  0  0  0
 24 26  1  0  0  0  0
 25 12  1  0  0  0  0
 26 13  1  0  0  0  0
 26 10  1  0  0  0  0
 27  5  1  0  0  0  0
 28 16  1  0  0  0  0
 28 10  1  0  0  0  0
M  END
>  <MODEL>
1

>  <REMARK>
 VINA RESULT:      -9.3      0.000      0.000
  Name = 
  0 active torsions:
  status: ('A' for Active; 'I' for Inactive)
                            x       y       z     vdW  Elec       q    Type
                         _______ _______ _______ _____ _____    ______ ____

>  <TORSDO>
F 0

$$$$
=
 OpenBabel11112417433D

 28 32  0  0  1  0  0  0  0  0999 V2000
  187.4810  177.5570  145.0780 C   0  0  0  0  0  0  0  0  0  0  0  0
  190.7070  177.5490  145.3200 F   0  0  0  0  0  0  0  0  0  0  0  0
  188.9030  172.2210  142.3580 O   0  0  0  0  0  1  0  0  0  0  0  0
  186.2260  177.1310  147.5550 C   0  0  0  0  0  3  0  0  0  0  0  0
  190.6080  173.5530  143.2380 N   0  0  0  0  0  0  0  0  0  0  0  0
  188.0830  177.8610  143.7380 C   0  0  0  0  0  2  0  0  0  0  0  0
  190.2290  177.4870  147.6300 C   0  0  0  0  0  1  0  0  0  0  0  0
  190.8640  176.7690  146.4550 C   0  0  1  0  0  0  0  0  0  0  0  0
  193.0580  175.8900  145.6350 C   0  0  1  0  0  3  0  0  0  0  0  0
  190.2060  175.3690  146.2780 C   0  0  2  0  0  3  0  0  0  0  0  0
  188.2810  176.2570  140.8860 O   0  0  0  0  0  0  0  0  0  0  0  0
  189.2770  175.2710  144.0560 C   0  0  1  0  0  3  0  0  0  0  0  0
  192.5240  174.4700  145.5830 C   0  0  0  0  0  2  0  0  0  0  0  0
  192.3550  176.6410  146.7540 C   0  0  0  0  0  2  0  0  0  0  0  0
  187.6130  176.2040  141.9510 C   0  0  0  0  0  0  0  0  0  0  0  0
  187.8510  176.4370  145.8790 C   0  0  0  0  0  0  0  0  0  0  0  0
  189.3460  173.5350  142.5040 C   0  0  2  0  0  3  0  0  0  0  0  0
  194.4280  175.8620  145.8860 O   0  0  0  0  0  1  0  0  0  0  0  0
  187.3810  174.9760  142.5740 O   0  0  0  0  0  0  0  0  0  0  0  0
  187.2040  176.2430  147.1080 C   0  0  0  0  0  3  0  0  0  0  0  0
  186.5000  178.4410  145.5450 C   0  0  0  0  0  3  0  0  0  0  0  0
  185.8760  178.2320  146.7750 C   0  0  0  0  0  3  0  0  0  0  0  0
  187.1440  177.4630  142.6020 C   0  0  0  0  0  2  0  0  0  0  0  0
  190.6460  174.7580  143.9770 N   0  0  1  0  0  0  0  0  0  0  0  0
  188.3760  174.3030  143.3480 C   0  0  2  0  0  3  0  0  0  0  0  0
  191.0110  174.4410  145.3580 C   0  0  2  0  0  3  0  0  0  0  0  0
  191.6690  173.6320  142.2480 C   0  0  0  0  0  1  0  0  0  0  0  0
  188.8900  175.3970  145.5110 C   0  0  2  0  0  3  0  0  0  0  0  0
  1 21  2  0  0  0  0
  1 16  1  0  0  0  0
  2  8  1  0  0  0  0
  3 17  1  0  0  0  0
  5 24  1  0  0  0  0
  6  1  1  0  0  0  0
  8 14  1  0  0  0  0
  8  7  1  1  0  0  0
  9 18  1  1  0  0  0
  9 14  1  0  0  0  0
 10  8  1  0  0  0  0
 11 15  2  0  0  0  0
 12 28  1  0  0  0  0
 13  9  1  0  0  0  0
 15 19  1  0  0  0  0
 15 23  1  0  0  0  0
 16 20  2  0  0  0  0
 17  5  1  0  0  0  0
 17 25  1  0  0  0  0
 19 25  1  0  0  0  0
 20  4  1  0  0  0  0
 21 22  1  0  0  0  0
 22  4  2  0  0  0  0
 23  6  1  0  0  0  0
 24 12  1  0  0  0  0
 24 26  1  0  0  0  0
 25 12  1  0  0  0  0
 26 13  1  0  0  0  0
 26 10  1  0  0  0  0
 27  5  1  0  0  0  0
 28 16  1  0  0  0  0
 28 10  1  0  0  0  0
M  END
>  <MODEL>
2

>  <REMARK>
 VINA RESULT:      -8.3      1.455      1.740
  Name = 
  0 active torsions:
  status: ('A' for Active; 'I' for Inactive)
                            x       y       z     vdW  Elec       q    Type
                         _______ _______ _______ _____ _____    ______ ____

>  <TORSDO>
F 0

$$$$
=
 OpenBabel11112417433D

 28 32  0  0  1  0  0  0  0  0999 V2000
  190.6440  174.7830  144.6200 C   0  0  0  0  0  0  0  0  0  0  0  0
  188.0770  175.8020  146.3040 F   0  0  0  0  0  0  0  0  0  0  0  0
  187.2960  177.5050  140.2300 O   0  0  0  0  0  1  0  0  0  0  0  0
  192.9570  176.2680  145.2000 C   0  0  0  0  0  3  0  0  0  0  0  0
  186.5180  177.5010  142.4320 N   0  0  0  0  0  0  0  0  0  0  0  0
  189.4670  173.9040  144.3160 C   0  0  0  0  0  2  0  0  0  0  0  0
  189.7000  177.1220  147.3960 C   0  0  0  0  0  1  0  0  0  0  0  0
  188.4470  177.1160  146.5420 C   0  0  1  0  0  0  0  0  0  0  0  0
  186.0610  177.8650  146.5390 C   0  0  1  0  0  3  0  0  0  0  0  0
  188.7170  177.8790  145.2110 C   0  0  2  0  0  3  0  0  0  0  0  0
  187.5670  173.4260  141.6880 O   0  0  0  0  0  0  0  0  0  0  0  0
  188.2950  176.3550  143.3930 C   0  0  1  0  0  3  0  0  0  0  0  0
  186.2900  178.7530  145.3290 C   0  0  0  0  0  2  0  0  0  0  0  0
  187.3440  177.7930  147.3490 C   0  0  0  0  0  2  0  0  0  0  0  0
  188.6860  173.9330  141.9610 C   0  0  0  0  0  0  0  0  0  0  0  0
  190.6130  176.2070  144.5410 C   0  0  0  0  0  0  0  0  0  0  0  0
  187.1780  176.7300  141.3830 C   0  0  2  0  0  3  0  0  0  0  0  0
  185.0460  178.4060  147.3260 O   0  0  0  0  0  1  0  0  0  0  0  0
  189.0480  175.1680  141.4180 O   0  0  0  0  0  0  0  0  0  0  0  0
  191.7840  176.9230  144.8280 C   0  0  0  0  0  3  0  0  0  0  0  0
  191.8310  174.1420  144.9990 C   0  0  0  0  0  3  0  0  0  0  0  0
  192.9800  174.8770  145.2880 C   0  0  0  0  0  3  0  0  0  0  0  0
  189.5930  173.2610  142.9380 C   0  0  0  0  0  2  0  0  0  0  0  0
  187.0400  177.0580  143.6690 N   0  0  1  0  0  0  0  0  0  0  0  0
  188.5400  176.4080  141.9140 C   0  0  2  0  0  3  0  0  0  0  0  0
  187.4300  178.2320  144.4530 C   0  0  2  0  0  3  0  0  0  0  0  0
  185.1130  177.1260  142.4090 C   0  0  0  0  0  1  0  0  0  0  0  0
  189.4100  177.0400  144.1460 C   0  0  2  0  0  3  0  0  0  0  0  0
  1 21  1  0  0  0  0
  2  8  1  0  0  0  0
  3 17  1  0  0  0  0
  4 22  1  0  0  0  0
  5 24  1  0  0  0  0
  6  1  1  0  0  0  0
  8 14  1  0  0  0  0
  8  7  1  1  0  0  0
  9 18  1  1  0  0  0
  9 14  1  0  0  0  0
 10  8  1  0  0  0  0
 11 15  2  0  0  0  0
 12 24  1  0  0  0  0
 12 28  1  0  0  0  0
 13  9  1  0  0  0  0
 15 23  1  0  0  0  0
 16  1  2  0  0  0  0
 16 20  1  0  0  0  0
 17 25  1  0  0  0  0
 17  5  1  0  0  0  0
 19 25  1  0  0  0  0
 19 15  1  0  0  0  0
 20  4  2  0  0  0  0
 21 22  2  0  0  0  0
 23  6  1  0  0  0  0
 24 26  1  0  0  0  0
 25 12  1  0  0  0  0
 26 10  1  0  0  0  0
 26 13  1  0  0  0  0
 27  5  1  0  0  0  0
 28 16  1  0  0  0  0
 28 10  1  0  0  0  0
M  END
>  <MODEL>
3

>  <REMARK>
 VINA RESULT:      -8.2      2.010      5.078
  Name = 
  0 active torsions:
  status: ('A' for Active; 'I' for Inactive)
                            x       y       z     vdW  Elec       q    Type
                         _______ _______ _______ _____ _____    ______ ____

>  <TORSDO>
F 0

$$$$
=
 OpenBabel11112417433D

 28 32  0  0  1  0  0  0  0  0999 V2000
  191.6020  174.3960  145.1350 C   0  0  0  0  0  0  0  0  0  0  0  0
  189.0870  175.5630  146.8020 F   0  0  0  0  0  0  0  0  0  0  0  0
  187.9060  176.3090  140.6010 O   0  0  0  0  0  1  0  0  0  0  0  0
  193.8750  176.0320  145.3510 C   0  0  0  0  0  3  0  0  0  0  0  0
  187.2480  176.6060  142.8220 N   0  0  0  0  0  0  0  0  0  0  0  0
  190.4510  173.4390  145.0360 C   0  0  0  0  0  2  0  0  0  0  0  0
  190.7070  177.0890  147.5880 C   0  0  0  0  0  1  0  0  0  0  0  0
  189.4120  176.9100  146.8210 C   0  0  1  0  0  0  0  0  0  0  0  0
  186.9980  177.5650  146.8510 C   0  0  1  0  0  3  0  0  0  0  0  0
  189.5750  177.4740  145.3780 C   0  0  2  0  0  3  0  0  0  0  0  0
  188.4350  172.5060  142.6250 O   0  0  0  0  0  0  0  0  0  0  0  0
  189.1230  175.6810  143.8330 C   0  0  1  0  0  3  0  0  0  0  0  0
  187.1220  178.2680  145.5110 C   0  0  0  0  0  2  0  0  0  0  0  0
  188.3250  177.6600  147.5840 C   0  0  0  0  0  2  0  0  0  0  0  0
  189.5440  173.0870  142.7530 C   0  0  0  0  0  0  0  0  0  0  0  0
  191.5050  175.7890  144.8500 C   0  0  0  0  0  0  0  0  0  0  0  0
  187.8850  175.7110  141.8600 C   0  0  2  0  0  3  0  0  0  0  0  0
  186.0040  178.1800  147.6080 O   0  0  0  0  0  1  0  0  0  0  0  0
  189.8210  174.2390  142.0130 O   0  0  0  0  0  0  0  0  0  0  0  0
  192.6560  176.5820  144.9580 C   0  0  0  0  0  3  0  0  0  0  0  0
  192.8350  173.8610  145.5330 C   0  0  0  0  0  3  0  0  0  0  0  0
  193.9650  174.6720  145.6410 C   0  0  0  0  0  3  0  0  0  0  0  0
  190.5310  172.6020  143.7620 C   0  0  0  0  0  2  0  0  0  0  0  0
  187.8560  176.3720  144.0780 N   0  0  1  0  0  0  0  0  0  0  0  0
  189.2860  175.5210  142.3500 C   0  0  2  0  0  3  0  0  0  0  0  0
  188.2350  177.6630  144.6550 C   0  0  2  0  0  3  0  0  0  0  0  0
  185.8630  176.1820  142.9390 C   0  0  0  0  0  1  0  0  0  0  0  0
  190.2460  176.5100  144.4090 C   0  0  2  0  0  3  0  0  0  0  0  0
  1 21  1  0  0  0  0
  2  8  1  0  0  0  0
  3 17  1  0  0  0  0
  4 22  1  0  0  0  0
  5 27  1  0  0  0  0
  5 24  1  0  0  0  0
  6  1  1  0  0  0  0
  8 14  1  0  0  0  0
  8  7  1  1  0  0  0
  9 14  1  0  0  0  0
  9 18  1  1  0  0  0
 10  8  1  0  0  0  0
 11 15  2  0  0  0  0
 12 24  1  0  0  0  0
 12 28  1  0  0  0  0
 13  9  1  0  0  0  0
 15 23  1  0  0  0  0
 16 20  1  0  0  0  0
 16  1  2  0  0  0  0
 17 25  1  0  0  0  0
 17  5  1  0  0  0  0
 19 25  1  0  0  0  0
 19 15  1  0  0  0  0
 20  4  2  0  0  0  0
 21 22  2  0  0  0  0
 23  6  1  0  0  0  0
 24 26  1  0  0  0  0
 25 12  1  0  0  0  0
 26 10  1  0  0  0  0
 26 13  1  0  0  0  0
 28 16  1  0  0  0  0
 28 10  1  0  0  0  0
M  END
>  <MODEL>
4

>  <REMARK>
 VINA RESULT:      -7.9      2.124      5.336
  Name = 
  0 active torsions:
  status: ('A' for Active; 'I' for Inactive)
                            x       y       z     vdW  Elec       q    Type
                         _______ _______ _______ _____ _____    ______ ____

>  <TORSDO>
F 0

$$$$
=
 OpenBabel11112417433D

 28 32  0  0  1  0  0  0  0  0999 V2000
  188.4630  176.2650  145.6940 C   0  0  0  0  0  0  0  0  0  0  0  0
  188.9420  173.6990  143.7830 F   0  0  0  0  0  0  0  0  0  0  0  0
  194.4610  176.7910  144.4150 O   0  0  0  0  0  1  0  0  0  0  0  0
  186.9730  178.2780  144.4220 C   0  0  0  0  0  3  0  0  0  0  0  0
  193.2360  175.0330  143.4830 N   0  0  0  0  0  0  0  0  0  0  0  0
  189.1990  175.2040  146.4580 C   0  0  0  0  0  2  0  0  0  0  0  0
  187.4350  174.8490  142.3760 C   0  0  0  0  0  1  0  0  0  0  0  0
  188.8400  174.3000  142.5380 C   0  0  1  0  0  0  0  0  0  0  0  0
  190.4430  172.6630  141.5360 C   0  0  1  0  0  3  0  0  0  0  0  0
  189.8750  175.4540  142.3780 C   0  0  2  0  0  3  0  0  0  0  0  0
  192.2430  174.9090  147.6370 O   0  0  0  0  0  0  0  0  0  0  0  0
  191.1720  175.5620  144.4060 C   0  0  1  0  0  3  0  0  0  0  0  0
  191.4380  173.7630  141.2110 C   0  0  0  0  0  2  0  0  0  0  0  0
  189.0370  173.2330  141.4660 C   0  0  0  0  0  2  0  0  0  0  0  0
  191.4800  175.8180  147.2190 C   0  0  0  0  0  0  0  0  0  0  0  0
  188.8680  176.7490  144.4160 C   0  0  0  0  0  0  0  0  0  0  0  0
  193.4690  175.8460  144.6730 C   0  0  2  0  0  3  0  0  0  0  0  0
  190.5720  171.6320  140.6080 O   0  0  0  0  0  1  0  0  0  0  0  0
  191.9630  176.7910  146.3410 O   0  0  0  0  0  0  0  0  0  0  0  0
  188.1110  177.7590  143.8060 C   0  0  0  0  0  3  0  0  0  0  0  0
  187.3140  176.7950  146.2960 C   0  0  0  0  0  3  0  0  0  0  0  0
  186.5720  177.7940  145.6660 C   0  0  0  0  0  3  0  0  0  0  0  0
  190.0330  175.8060  147.5850 C   0  0  0  0  0  2  0  0  0  0  0  0
  191.8730  174.6590  143.4900 N   0  0  1  0  0  0  0  0  0  0  0  0
  192.1720  176.5400  144.9490 C   0  0  2  0  0  3  0  0  0  0  0  0
  191.3080  174.9460  142.1710 C   0  0  2  0  0  3  0  0  0  0  0  0
  194.0100  173.8130  143.6480 C   0  0  0  0  0  1  0  0  0  0  0  0
  190.0830  176.2770  143.6420 C   0  0  2  0  0  3  0  0  0  0  0  0
  1 21  1  0  0  0  0
  1  6  1  0  0  0  0
  3 17  1  0  0  0  0
  4 22  1  0  0  0  0
  5 24  1  0  0  0  0
  5 27  1  0  0  0  0
  5 17  1  0  0  0  0
  6 23  1  0  0  0  0
  8  7  1  6  0  0  0
  8  2  1  0  0  0  0
  9 18  1  6  0  0  0
 10  8  1  0  0  0  0
 10 28  1  0  0  0  0
 12 25  1  0  0  0  0
 13  9  1  0  0  0  0
 13 26  1  0  0  0  0
 14  9  1  0  0  0  0
 14  8  1  0  0  0  0
 15 23  1  0  0  0  0
 15 11  2  0  0  0  0
 16  1  2  0  0  0  0
 17 25  1  0  0  0  0
 19 15  1  0  0  0  0
 20 16  1  0  0  0  0
 20  4  2  0  0  0  0
 22 21  2  0  0  0  0
 24 12  1  0  0  0  0
 25 19  1  0  0  0  0
 26 10  1  0  0  0  0
 26 24  1  0  0  0  0
 28 12  1  0  0  0  0
 28 16  1  0  0  0  0
M  END
>  <MODEL>
5

>  <REMARK>
 VINA RESULT:      -7.9      2.580      5.324
  Name = 
  0 active torsions:
  status: ('A' for Active; 'I' for Inactive)
                            x       y       z     vdW  Elec       q    Type
                         _______ _______ _______ _____ _____    ______ ____

>  <TORSDO>
F 0

$$$$
=
 OpenBabel11112417433D

 28 32  0  0  1  0  0  0  0  0999 V2000
  190.6410  174.7860  141.8800 C   0  0  0  0  0  0  0  0  0  0  0  0
  188.8570  177.4720  142.1450 F   0  0  0  0  0  0  0  0  0  0  0  0
  188.8100  174.4700  147.7490 O   0  0  0  0  0  1  0  0  0  0  0  0
  189.3830  172.8200  140.3170 C   0  0  0  0  0  3  0  0  0  0  0  0
  188.0990  176.2530  146.4170 N   0  0  0  0  0  0  0  0  0  0  0  0
  191.4020  175.8150  142.6640 C   0  0  0  0  0  2  0  0  0  0  0  0
  187.5200  176.3750  140.5380 C   0  0  0  0  0  1  0  0  0  0  0  0
  187.5920  176.9440  141.9420 C   0  0  1  0  0  0  0  0  0  0  0  0
  186.5550  178.6730  143.4230 C   0  0  1  0  0  3  0  0  0  0  0  0
  187.2700  175.8260  142.9780 C   0  0  2  0  0  3  0  0  0  0  0  0
  192.3250  176.1060  145.7960 O   0  0  0  0  0  0  0  0  0  0  0  0
  189.1660  175.6250  144.4520 C   0  0  1  0  0  3  0  0  0  0  0  0
  186.0770  177.6170  144.4030 C   0  0  0  0  0  2  0  0  0  0  0  0
  186.5750  178.0770  142.0250 C   0  0  0  0  0  2  0  0  0  0  0  0
  191.9190  175.2070  145.0140 C   0  0  0  0  0  0  0  0  0  0  0  0
  189.3050  174.3890  142.1790 C   0  0  0  0  0  0  0  0  0  0  0  0
  189.2120  175.3760  146.7680 C   0  0  2  0  0  3  0  0  0  0  0  0
  185.6850  179.7610  143.4510 O   0  0  0  0  0  1  0  0  0  0  0  0
  190.9440  174.3000  145.4330 O   0  0  0  0  0  0  0  0  0  0  0  0
  188.7030  173.4000  141.3870 C   0  0  0  0  0  3  0  0  0  0  0  0
  191.3080  174.1950  140.7990 C   0  0  0  0  0  3  0  0  0  0  0  0
  190.6850  173.2200  140.0210 C   0  0  0  0  0  3  0  0  0  0  0  0
  192.4120  175.1640  143.6050 C   0  0  0  0  0  2  0  0  0  0  0  0
  188.2500  176.5960  145.0540 N   0  0  1  0  0  0  0  0  0  0  0  0
  189.5580  174.6380  145.5120 C   0  0  2  0  0  3  0  0  0  0  0  0
  186.9700  176.3760  144.3780 C   0  0  2  0  0  3  0  0  0  0  0  0
  188.2710  177.4780  147.1810 C   0  0  0  0  0  1  0  0  0  0  0  0
  188.4580  174.9330  143.3120 C   0  0  2  0  0  3  0  0  0  0  0  0
  1 16  1  0  0  0  0
  1  6  1  0  0  0  0
  4 20  1  0  0  0  0
  5 17  1  0  0  0  0
  5 27  1  0  0  0  0
  6 23  1  0  0  0  0
  8  7  1  6  0  0  0
  8 14  1  0  0  0  0
  8  2  1  0  0  0  0
  8 10  1  0  0  0  0
  9 18  1  6  0  0  0
  9 13  1  0  0  0  0
 10 28  1  0  0  0  0
 10 26  1  0  0  0  0
 12 24  1  0  0  0  0
 12 25  1  0  0  0  0
 14  9  1  0  0  0  0
 15 19  1  0  0  0  0
 15 11  2  0  0  0  0
 16 28  1  0  0  0  0
 17  3  1  0  0  0  0
 19 25  1  0  0  0  0
 20 16  2  0  0  0  0
 21  1  2  0  0  0  0
 22  4  2  0  0  0  0
 22 21  1  0  0  0  0
 23 15  1  0  0  0  0
 24  5  1  0  0  0  0
 25 17  1  0  0  0  0
 26 13  1  0  0  0  0
 26 24  1  0  0  0  0
 28 12  1  0  0  0  0
M  END
>  <MODEL>
6

>  <REMARK>
 VINA RESULT:      -7.8      2.146      6.106
  Name = 
  0 active torsions:
  status: ('A' for Active; 'I' for Inactive)
                            x       y       z     vdW  Elec       q    Type
                         _______ _______ _______ _____ _____    ______ ____

>  <TORSDO>
F 0

$$$$
=
 OpenBabel11112417433D

 28 32  0  0  1  0  0  0  0  0999 V2000
  188.6800  176.0470  145.0240 C   0  0  0  0  0  0  0  0  0  0  0  0
  191.6840  176.8930  144.1720 F   0  0  0  0  0  0  0  0  0  0  0  0
  190.0680  171.6790  140.9150 O   0  0  0  0  0  1  0  0  0  0  0  0
  188.5670  174.9940  147.6260 C   0  0  0  0  0  3  0  0  0  0  0  0
  191.6560  173.3080  141.4400 N   0  0  0  0  0  0  0  0  0  0  0  0
  188.6550  176.6650  143.6570 C   0  0  0  0  0  2  0  0  0  0  0  0
  192.1330  176.4200  146.4400 C   0  0  0  0  0  1  0  0  0  0  0  0
  192.4170  176.0540  144.9960 C   0  0  1  0  0  0  0  0  0  0  0  0
  194.2740  175.9160  143.3270 C   0  0  1  0  0  3  0  0  0  0  0  0
  192.0510  174.5590  144.7540 C   0  0  2  0  0  3  0  0  0  0  0  0
  188.1020  175.5380  140.6290 O   0  0  0  0  0  0  0  0  0  0  0  0
  190.3990  174.4830  143.0000 C   0  0  1  0  0  3  0  0  0  0  0  0
  194.0720  174.4210  143.1530 C   0  0  0  0  0  2  0  0  0  0  0  0
  193.9010  176.3030  144.7480 C   0  0  0  0  0  2  0  0  0  0  0  0
  187.9100  175.1750  141.8190 C   0  0  0  0  0  0  0  0  0  0  0  0
  189.5510  174.9810  145.3980 C   0  0  0  0  0  0  0  0  0  0  0  0
  190.2450  173.0360  141.1820 C   0  0  2  0  0  3  0  0  0  0  0  0
  195.6110  176.2340  143.0950 O   0  0  0  0  0  1  0  0  0  0  0  0
  188.1940  173.8630  142.2060 O   0  0  0  0  0  0  0  0  0  0  0  0
  189.4690  174.4690  146.7010 C   0  0  0  0  0  3  0  0  0  0  0  0
  187.7830  176.5630  145.9680 C   0  0  0  0  0  3  0  0  0  0  0  0
  187.7260  176.0430  147.2600 C   0  0  0  0  0  3  0  0  0  0  0  0
  187.4660  176.1670  142.8410 C   0  0  0  0  0  2  0  0  0  0  0  0
  191.7140  174.3780  142.3630 N   0  0  1  0  0  0  0  0  0  0  0  0
  189.5250  173.3990  142.4430 C   0  0  2  0  0  3  0  0  0  0  0  0
  192.6290  174.0070  143.4440 C   0  0  2  0  0  3  0  0  0  0  0  0
  192.2260  173.7950  140.1940 C   0  0  0  0  0  1  0  0  0  0  0  0
  190.5700  174.3190  144.4920 C   0  0  2  0  0  3  0  0  0  0  0  0
  1 16  2  0  0  0  0
  1 21  1  0  0  0  0
  2  8  1  0  0  0  0
  3 17  1  0  0  0  0
  5 24  1  0  0  0  0
  6  1  1  0  0  0  0
  8  7  1  1  0  0  0
  9 18  1  1  0  0  0
  9 14  1  0  0  0  0
 10  8  1  0  0  0  0
 11 15  2  0  0  0  0
 12 28  1  0  0  0  0
 13  9  1  0  0  0  0
 13 26  1  0  0  0  0
 14  8  1  0  0  0  0
 15 19  1  0  0  0  0
 15 23  1  0  0  0  0
 16 20  1  0  0  0  0
 17  5  1  0  0  0  0
 17 25  1  0  0  0  0
 19 25  1  0  0  0  0
 20  4  2  0  0  0  0
 21 22  2  0  0  0  0
 22  4  1  0  0  0  0
 23  6  1  0  0  0  0
 24 12  1  0  0  0  0
 24 26  1  0  0  0  0
 25 12  1  0  0  0  0
 26 10  1  0  0  0  0
 27  5  1  0  0  0  0
 28 10  1  0  0  0  0
 28 16  1  0  0  0  0
M  END
>  <MODEL>
7

>  <REMARK>
 VINA RESULT:      -7.7      2.345      3.572
  Name = 
  0 active torsions:
  status: ('A' for Active; 'I' for Inactive)
                            x       y       z     vdW  Elec       q    Type
                         _______ _______ _______ _____ _____    ______ ____

>  <TORSDO>
F 0

$$$$
=
 OpenBabel11112417433D

 28 32  0  0  1  0  0  0  0  0999 V2000
  190.6720  175.0530  144.0030 C   0  0  0  0  0  0  0  0  0  0  0  0
  188.9550  177.0130  142.0860 F   0  0  0  0  0  0  0  0  0  0  0  0
  186.0250  176.6420  147.7150 O   0  0  0  0  0  1  0  0  0  0  0  0
  190.4750  172.3610  143.2260 C   0  0  0  0  0  3  0  0  0  0  0  0
  186.0840  177.4650  145.5300 N   0  0  0  0  0  0  0  0  0  0  0  0
  190.8800  176.4770  144.4300 C   0  0  0  0  0  2  0  0  0  0  0  0
  188.6940  175.0400  140.8160 C   0  0  0  0  0  1  0  0  0  0  0  0
  188.0000  176.1230  141.6200 C   0  0  1  0  0  0  0  0  0  0  0  0
  186.2980  177.9440  141.4150 C   0  0  1  0  0  3  0  0  0  0  0  0
  187.2070  175.4760  142.7940 C   0  0  2  0  0  3  0  0  0  0  0  0
  190.0020  178.2480  147.0450 O   0  0  0  0  0  0  0  0  0  0  0  0
  188.0420  176.4170  144.8500 C   0  0  1  0  0  3  0  0  0  0  0  0
  185.3990  177.2870  142.4460 C   0  0  0  0  0  2  0  0  0  0  0  0
  187.0660  176.8650  140.6700 C   0  0  0  0  0  2  0  0  0  0  0  0
  190.0920  177.0370  146.7160 C   0  0  0  0  0  0  0  0  0  0  0  0
  189.3890  174.4590  143.8170 C   0  0  0  0  0  0  0  0  0  0  0  0
  186.8640  177.1480  146.7220 C   0  0  2  0  0  3  0  0  0  0  0  0
  185.5190  178.6660  140.5130 O   0  0  0  0  0  1  0  0  0  0  0  0
  189.0640  176.1460  147.0310 O   0  0  0  0  0  0  0  0  0  0  0  0
  189.3190  173.1120  143.4360 C   0  0  0  0  0  3  0  0  0  0  0  0
  191.8230  174.2850  143.7840 C   0  0  0  0  0  3  0  0  0  0  0  0
  191.7280  172.9480  143.3970 C   0  0  0  0  0  3  0  0  0  0  0  0
  191.2550  176.5670  145.9070 C   0  0  0  0  0  2  0  0  0  0  0  0
  186.9240  177.2560  144.4120 N   0  0  1  0  0  0  0  0  0  0  0  0
  187.8370  176.0920  146.3000 C   0  0  2  0  0  3  0  0  0  0  0  0
  186.1990  176.4390  143.4370 C   0  0  2  0  0  3  0  0  0  0  0  0
  185.7980  178.8900  145.5810 C   0  0  0  0  0  1  0  0  0  0  0  0
  188.0590  175.1580  144.0160 C   0  0  2  0  0  3  0  0  0  0  0  0
  1  6  1  0  0  0  0
  4 22  2  0  0  0  0
  4 20  1  0  0  0  0
  5 27  1  0  0  0  0
  5 17  1  0  0  0  0
  6 23  1  0  0  0  0
  8  7  1  6  0  0  0
  8  2  1  0  0  0  0
  8 10  1  0  0  0  0
  9 18  1  6  0  0  0
  9 13  1  0  0  0  0
 10 26  1  0  0  0  0
 10 28  1  0  0  0  0
 12 25  1  0  0  0  0
 13 26  1  0  0  0  0
 14  9  1  0  0  0  0
 14  8  1  0  0  0  0
 15 19  1  0  0  0  0
 15 11  2  0  0  0  0
 16  1  1  0  0  0  0
 16 28  1  0  0  0  0
 17  3  1  0  0  0  0
 20 16  2  0  0  0  0
 21  1  2  0  0  0  0
 22 21  1  0  0  0  0
 23 15  1  0  0  0  0
 24 12  1  0  0  0  0
 24  5  1  0  0  0  0
 25 17  1  0  0  0  0
 25 19  1  0  0  0  0
 26 24  1  0  0  0  0
 28 12  1  0  0  0  0
M  END
>  <MODEL>
8

>  <REMARK>
 VINA RESULT:      -7.6      2.342      6.204
  Name = 
  0 active torsions:
  status: ('A' for Active; 'I' for Inactive)
                            x       y       z     vdW  Elec       q    Type
                         _______ _______ _______ _____ _____    ______ ____

>  <TORSDO>
F 0

$$$$
=
 OpenBabel11112417433D

 28 32  0  0  1  0  0  0  0  0999 V2000
  188.5040  176.5260  144.6280 C   0  0  0  0  0  0  0  0  0  0  0  0
  188.9410  173.4540  143.7150 F   0  0  0  0  0  0  0  0  0  0  0  0
  194.5810  175.8810  145.3630 O   0  0  0  0  0  1  0  0  0  0  0  0
  187.9170  178.2100  142.4580 C   0  0  0  0  0  3  0  0  0  0  0  0
  193.3240  174.0860  144.5540 N   0  0  0  0  0  0  0  0  0  0  0  0
  188.7400  175.6750  145.8400 C   0  0  0  0  0  2  0  0  0  0  0  0
  188.1890  174.2840  141.6380 C   0  0  0  0  0  1  0  0  0  0  0  0
  189.3330  173.6440  142.3990 C   0  0  1  0  0  0  0  0  0  0  0  0
  190.7610  171.5910  142.4520 C   0  0  1  0  0  3  0  0  0  0  0  0
  190.5960  174.5530  142.3090 C   0  0  2  0  0  3  0  0  0  0  0  0
  191.1780  175.3880  148.0130 O   0  0  0  0  0  0  0  0  0  0  0  0
  191.2480  175.1270  144.5570 C   0  0  1  0  0  3  0  0  0  0  0  0
  192.0220  172.4030  142.2130 C   0  0  0  0  0  2  0  0  0  0  0  0
  189.5930  172.2810  141.7680 C   0  0  0  0  0  2  0  0  0  0  0  0
  190.7840  176.2080  147.1430 C   0  0  0  0  0  0  0  0  0  0  0  0
  189.3540  176.5330  143.4840 C   0  0  0  0  0  0  0  0  0  0  0  0
  193.3760  175.1940  145.5030 C   0  0  2  0  0  3  0  0  0  0  0  0
  190.9230  170.3140  141.9190 O   0  0  0  0  0  1  0  0  0  0  0  0
  191.6980  176.7910  146.2630 O   0  0  0  0  0  0  0  0  0  0  0  0
  189.0430  177.3890  142.4170 C   0  0  0  0  0  3  0  0  0  0  0  0
  187.3750  177.3560  144.6490 C   0  0  0  0  0  3  0  0  0  0  0  0
  187.0800  178.1920  143.5730 C   0  0  0  0  0  3  0  0  0  0  0  0
  189.3260  176.4910  146.9890 C   0  0  0  0  0  2  0  0  0  0  0  0
  191.9680  173.9040  144.1960 N   0  0  1  0  0  0  0  0  0  0  0  0
  192.2380  176.0950  145.1370 C   0  0  2  0  0  3  0  0  0  0  0  0
  191.8820  173.8330  142.7360 C   0  0  2  0  0  3  0  0  0  0  0  0
  193.7320  172.8930  145.2770 C   0  0  0  0  0  1  0  0  0  0  0  0
  190.6070  175.6970  143.3140 C   0  0  2  0  0  3  0  0  0  0  0  0
  1 21  1  0  0  0  0
  1  6  1  0  0  0  0
  3 17  1  0  0  0  0
  4 22  1  0  0  0  0
  5 27  1  0  0  0  0
  5 17  1  0  0  0  0
  6 23  1  0  0  0  0
  8  7  1  6  0  0  0
  8  2  1  0  0  0  0
  9 18  1  6  0  0  0
 10  8  1  0  0  0  0
 10 26  1  0  0  0  0
 10 28  1  0  0  0  0
 12 25  1  0  0  0  0
 13  9  1  0  0  0  0
 13 26  1  0  0  0  0
 14  8  1  0  0  0  0
 14  9  1  0  0  0  0
 15 11  2  0  0  0  0
 16  1  2  0  0  0  0
 19 15  1  0  0  0  0
 20  4  2  0  0  0  0
 20 16  1  0  0  0  0
 22 21  2  0  0  0  0
 23 15  1  0  0  0  0
 24  5  1  0  0  0  0
 24 12  1  0  0  0  0
 25 17  1  0  0  0  0
 25 19  1  0  0  0  0
 26 24  1  0  0  0  0
 28 16  1  0  0  0  0
 28 12  1  0  0  0  0
M  END
>  <MODEL>
9

>  <REMARK>
 VINA RESULT:      -7.5      2.861      5.503
  Name = 
  0 active torsions:
  status: ('A' for Active; 'I' for Inactive)
                            x       y       z     vdW  Elec       q    Type
                         _______ _______ _______ _____ _____    ______ ____

>  <TORSDO>
F 0

$$$$
