=
 OpenBabel11112416363D

 32 37  0  0  1  0  0  0  0  0999 V2000
  187.5890  177.4310  142.9030 C   0  0  1  0  0  3  0  0  0  0  0  0
  186.6010  177.7060  147.6720 C   0  0  0  0  0  3  0  0  0  0  0  0
  185.2670  178.0040  147.3900 C   0  0  0  0  0  3  0  0  0  0  0  0
  185.7040  177.7800  141.2820 C   0  0  0  0  0  0  0  0  0  0  0  0
  184.2810  178.0370  141.0640 C   0  0  0  0  0  0  0  0  0  0  0  0
  188.9260  175.3770  143.2180 N   0  0  0  0  0  0  0  0  0  0  0  0
  189.5200  177.4040  144.5180 C   0  0  0  0  0  2  0  0  0  0  0  0
  182.1290  178.3710  141.6270 C   0  0  0  0  0  0  0  0  0  0  0  0
  187.5470  177.7000  146.6450 C   0  0  0  0  0  3  0  0  0  0  0  0
  188.1630  178.0330  144.1950 C   0  0  2  0  0  3  0  0  0  0  0  0
  187.1610  177.9720  145.3230 C   0  0  0  0  0  0  0  0  0  0  0  0
  185.4360  178.6570  143.6320 C   0  0  2  0  0  3  0  0  0  0  0  0
  182.0830  178.0790  140.3330 C   0  0  0  0  0  3  0  0  0  0  0  0
  189.4610  175.8720  144.5080 C   0  0  2  0  0  3  0  0  0  0  0  0
  183.4780  177.8300  139.8230 C   0  0  0  0  0  3  0  0  0  0  0  0
  184.8770  178.2950  146.0810 C   0  0  0  0  0  3  0  0  0  0  0  0
  185.8160  178.2700  145.0390 C   0  0  0  0  0  0  0  0  0  0  0  0
  183.9920  178.5060  143.4000 N   0  0  0  0  0  2  0  0  0  0  0  0
  187.5770  175.9050  142.9990 C   0  0  0  0  0  2  0  0  0  0  0  0
  186.4410  177.4120  140.3280 O   0  0  0  0  0  0  0  0  0  0  0  0
  180.9430  178.6660  142.4740 C   0  0  0  0  0  1  0  0  0  0  0  0
  186.2300  177.9160  142.6190 N   0  0  0  0  0  0  0  0  0  0  0  0
  183.5040  178.3500  142.0680 C   0  0  1  0  0  3  0  0  0  0  0  0
  191.6520  175.3270  143.6570 O   0  0  0  0  0  1  0  0  0  0  0  0
  190.8740  175.3440  144.8160 C   0  0  1  0  0  3  0  0  0  0  0  0
  191.5760  176.1380  145.9210 C   0  0  2  0  0  3  0  0  0  0  0  0
  192.3200  175.1880  146.8660 C   0  0  0  0  0  2  0  0  0  0  0  0
  191.0270  175.8230  147.3020 C   0  0  1  0  0  0  0  0  0  0  0  0
  191.1670  176.8010  148.2840 O   0  0  0  0  0  1  0  0  0  0  0  0
  189.9220  174.8880  147.4460 N   0  0  0  0  0  1  0  0  0  0  0  0
  188.0510  173.4570  142.1410 O   0  0  0  0  0  1  0  0  0  0  0  0
  188.8120  173.9150  143.2230 C   0  0  0  0  0  2  0  0  0  0  0  0
  1 19  1  1  0  0  0
  1 10  1  0  0  0  0
  3  2  1  0  0  0  0
  4 22  1  0  0  0  0
  5  4  1  0  0  0  0
  6 32  1  0  0  0  0
  6 14  1  0  0  0  0
  8 23  1  0  0  0  0
  8 21  1  0  0  0  0
  9  2  2  0  0  0  0
 10  7  1  1  0  0  0
 10 11  1  0  0  0  0
 11  9  1  0  0  0  0
 12 18  1  6  0  0  0
 12 17  1  0  0  0  0
 13  8  2  0  0  0  0
 14  7  1  0  0  0  0
 14 25  1  6  0  0  0
 15 13  1  0  0  0  0
 15  5  2  0  0  0  0
 16  3  2  0  0  0  0
 17 11  2  0  0  0  0
 17 16  1  0  0  0  0
 19  6  1  0  0  0  0
 20  4  2  0  0  0  0
 22  1  1  0  0  0  0
 22 12  1  0  0  0  0
 23  5  1  1  0  0  0
 23 18  1  0  0  0  0
 25 24  1  6  0  0  0
 26 25  1  6  0  0  0
 26 27  1  0  0  0  0
 26 28  1  0  0  0  0
 27 28  1  0  0  0  0
 28 30  1  1  0  0  0
 28 29  1  0  0  0  0
 31 32  1  0  0  0  0
M  END
>  <MODEL>
1

>  <REMARK>
 VINA RESULT:      -8.9      0.000      0.000
  Name = 
  3 active torsions:
  status: ('A' for Active; 'I' for Inactive)
    1  A    between atoms: N_7  and  C_19
    2  A    between atoms: C_10  and  C_17
    3  A    between atoms: C_10  and  C_20
                            x       y       z     vdW  Elec       q    Type
                         _______ _______ _______ _____ _____    ______ ____

>  <TORSDO>
F 3

$$$$
=
 OpenBabel11112416363D

 32 37  0  0  1  0  0  0  0  0999 V2000
  190.2860  176.9100  142.7630 C   0  0  1  0  0  3  0  0  0  0  0  0
  192.0170  175.8780  147.2050 C   0  0  0  0  0  3  0  0  0  0  0  0
  190.8030  176.2580  147.7790 C   0  0  0  0  0  3  0  0  0  0  0  0
  187.9160  177.7150  142.5740 C   0  0  0  0  0  0  0  0  0  0  0  0
  186.6540  178.0390  143.2390 C   0  0  0  0  0  0  0  0  0  0  0  0
  191.2360  174.8320  141.8230 N   0  0  0  0  0  0  0  0  0  0  0  0
  192.7430  176.4160  142.9930 C   0  0  0  0  0  2  0  0  0  0  0  0
  185.2080  178.2330  144.9520 C   0  0  0  0  0  0  0  0  0  0  0  0
  192.2640  176.1410  145.8560 C   0  0  0  0  0  3  0  0  0  0  0  0
  191.5420  177.1270  143.6200 C   0  0  2  0  0  3  0  0  0  0  0  0
  191.2900  176.7710  145.0660 C   0  0  0  0  0  0  0  0  0  0  0  0
  189.0700  177.9160  144.8080 C   0  0  2  0  0  3  0  0  0  0  0  0
  184.4410  178.3090  143.8710 C   0  0  0  0  0  3  0  0  0  0  0  0
  192.4420  174.9460  142.6760 C   0  0  2  0  0  3  0  0  0  0  0  0
  185.2970  178.1920  142.6370 C   0  0  0  0  0  3  0  0  0  0  0  0
  189.8350  176.9020  147.0050 C   0  0  0  0  0  3  0  0  0  0  0  0
  190.0660  177.1520  145.6440 C   0  0  0  0  0  0  0  0  0  0  0  0
  187.7190  177.8530  145.3820 N   0  0  0  0  0  2  0  0  0  0  0  0
  190.0800  175.4170  142.5070 C   0  0  0  0  0  2  0  0  0  0  0  0
  187.9680  177.6130  141.3190 O   0  0  0  0  0  0  0  0  0  0  0  0
  184.7120  178.3000  146.3520 C   0  0  0  0  0  1  0  0  0  0  0  0
  189.0800  177.4720  143.3910 N   0  0  0  0  0  0  0  0  0  0  0  0
  186.5850  178.0750  144.5450 C   0  0  1  0  0  3  0  0  0  0  0  0
  193.9470  174.9320  140.7900 O   0  0  0  0  0  1  0  0  0  0  0  0
  193.6980  174.3370  142.0280 C   0  0  1  0  0  3  0  0  0  0  0  0
  194.9340  174.4310  142.9270 C   0  0  2  0  0  3  0  0  0  0  0  0
  195.8000  173.1760  142.7730 C   0  0  0  0  0  2  0  0  0  0  0  0
  194.9540  173.3600  144.0040 C   0  0  1  0  0  0  0  0  0  0  0  0
  195.6750  173.6340  145.1640 O   0  0  0  0  0  1  0  0  0  0  0  0
  193.8470  172.4230  144.1130 N   0  0  0  0  0  1  0  0  0  0  0  0
  190.5600  172.7550  142.7440 O   0  0  0  0  0  1  0  0  0  0  0  0
  190.9080  173.4260  141.5640 C   0  0  0  0  0  2  0  0  0  0  0  0
  1 19  1  1  0  0  0
  1 22  1  0  0  0  0
  1 10  1  0  0  0  0
  2  3  1  0  0  0  0
  4  5  1  0  0  0  0
  4 22  1  0  0  0  0
  6 19  1  0  0  0  0
  6 14  1  0  0  0  0
  8 21  1  0  0  0  0
  9  2  2  0  0  0  0
 10  7  1  6  0  0  0
 10 11  1  0  0  0  0
 11 17  2  0  0  0  0
 11  9  1  0  0  0  0
 12 18  1  1  0  0  0
 12 17  1  0  0  0  0
 13  8  2  0  0  0  0
 14 25  1  6  0  0  0
 14  7  1  0  0  0  0
 15  5  2  0  0  0  0
 15 13  1  0  0  0  0
 16  3  2  0  0  0  0
 17 16  1  0  0  0  0
 20  4  2  0  0  0  0
 22 12  1  0  0  0  0
 23  5  1  6  0  0  0
 23  8  1  0  0  0  0
 23 18  1  0  0  0  0
 25 24  1  6  0  0  0
 26 25  1  6  0  0  0
 26 28  1  0  0  0  0
 27 26  1  0  0  0  0
 27 28  1  0  0  0  0
 28 30  1  1  0  0  0
 28 29  1  0  0  0  0
 32  6  1  0  0  0  0
 32 31  1  0  0  0  0
M  END
>  <MODEL>
2

>  <REMARK>
 VINA RESULT:      -8.3      2.726      4.267
  Name = 
  3 active torsions:
  status: ('A' for Active; 'I' for Inactive)
    1  A    between atoms: N_7  and  C_19
    2  A    between atoms: C_10  and  C_17
    3  A    between atoms: C_10  and  C_20
                            x       y       z     vdW  Elec       q    Type
                         _______ _______ _______ _____ _____    ______ ____

>  <TORSDO>
F 3

$$$$
=
 OpenBabel11112416363D

 32 37  0  0  1  0  0  0  0  0999 V2000
  189.4140  175.9470  142.9140 C   0  0  1  0  0  3  0  0  0  0  0  0
  192.1430  175.2700  146.9000 C   0  0  0  0  0  3  0  0  0  0  0  0
  191.2040  175.9540  147.6740 C   0  0  0  0  0  3  0  0  0  0  0  0
  187.2260  177.1510  143.1680 C   0  0  0  0  0  0  0  0  0  0  0  0
  186.2590  177.8030  144.0500 C   0  0  0  0  0  0  0  0  0  0  0  0
  189.7570  173.6100  142.1860 N   0  0  0  0  0  0  0  0  0  0  0  0
  191.7410  175.0340  142.6170 C   0  0  0  0  0  2  0  0  0  0  0  0
  185.3890  178.5190  145.9980 C   0  0  0  0  0  0  0  0  0  0  0  0
  192.0410  175.2800  145.5070 C   0  0  0  0  0  3  0  0  0  0  0  0
  190.8770  176.0440  143.3740 C   0  0  2  0  0  3  0  0  0  0  0  0
  190.9870  175.9600  144.8780 C   0  0  0  0  0  0  0  0  0  0  0  0
  188.9720  177.4550  144.9630 C   0  0  2  0  0  3  0  0  0  0  0  0
  184.3720  178.5790  145.1470 C   0  0  0  0  0  3  0  0  0  0  0  0
  191.1560  173.6180  142.6740 C   0  0  2  0  0  3  0  0  0  0  0  0
  184.8250  178.1210  143.7860 C   0  0  0  0  0  3  0  0  0  0  0  0
  190.1630  176.6500  147.0550 C   0  0  0  0  0  3  0  0  0  0  0  0
  190.0400  176.6480  145.6570 C   0  0  0  0  0  0  0  0  0  0  0  0
  187.8380  177.7350  145.8560 N   0  0  0  0  0  2  0  0  0  0  0  0
  188.9330  174.4990  143.0100 C   0  0  0  0  0  2  0  0  0  0  0  0
  186.9130  176.8570  141.9830 O   0  0  0  0  0  0  0  0  0  0  0  0
  185.3160  178.8840  147.4380 C   0  0  0  0  0  1  0  0  0  0  0  0
  188.5240  176.8140  143.7010 N   0  0  0  0  0  0  0  0  0  0  0  0
  186.5610  178.0430  145.3000 C   0  0  1  0  0  3  0  0  0  0  0  0
  192.1340  173.1000  140.5310 O   0  0  0  0  0  1  0  0  0  0  0  0
  192.0810  172.6920  141.8650 C   0  0  1  0  0  3  0  0  0  0  0  0
  193.4910  172.6010  142.4540 C   0  0  2  0  0  3  0  0  0  0  0  0
  194.0670  171.1970  142.2400 C   0  0  0  0  0  2  0  0  0  0  0  0
  193.5790  171.6100  143.6030 C   0  0  1  0  0  0  0  0  0  0  0  0
  194.5900  171.8080  144.5410 O   0  0  0  0  0  1  0  0  0  0  0  0
  192.3850  170.9100  144.0470 N   0  0  0  0  0  1  0  0  0  0  0  0
  189.0720  171.8580  143.6280 O   0  0  0  0  0  1  0  0  0  0  0  0
  189.1710  172.2710  142.2930 C   0  0  0  0  0  2  0  0  0  0  0  0
  1 19  1  1  0  0  0
  1 10  1  0  0  0  0
  1 22  1  0  0  0  0
  2  3  1  0  0  0  0
  4 22  1  0  0  0  0
  4  5  1  0  0  0  0
  6 32  1  0  0  0  0
  6 14  1  0  0  0  0
  6 19  1  0  0  0  0
  7 14  1  0  0  0  0
  8 21  1  0  0  0  0
  9  2  2  0  0  0  0
 10  7  1  6  0  0  0
 10 11  1  0  0  0  0
 11  9  1  0  0  0  0
 11 17  2  0  0  0  0
 12 17  1  1  0  0  0
 12 18  1  0  0  0  0
 13  8  2  0  0  0  0
 14 25  1  6  0  0  0
 15  5  2  0  0  0  0
 15 13  1  0  0  0  0
 16  3  2  0  0  0  0
 17 16  1  0  0  0  0
 20  4  2  0  0  0  0
 22 12  1  0  0  0  0
 23  5  1  1  0  0  0
 23 18  1  0  0  0  0
 23  8  1  0  0  0  0
 25 24  1  6  0  0  0
 26 25  1  6  0  0  0
 26 28  1  0  0  0  0
 27 26  1  0  0  0  0
 27 28  1  0  0  0  0
 28 30  1  1  0  0  0
 28 29  1  0  0  0  0
 32 31  1  0  0  0  0
M  END
>  <MODEL>
3

>  <REMARK>
 VINA RESULT:      -8.1      2.641      4.563
  Name = 
  3 active torsions:
  status: ('A' for Active; 'I' for Inactive)
    1  A    between atoms: N_7  and  C_19
    2  A    between atoms: C_10  and  C_17
    3  A    between atoms: C_10  and  C_20
                            x       y       z     vdW  Elec       q    Type
                         _______ _______ _______ _____ _____    ______ ____

>  <TORSDO>
F 3

$$$$
=
 OpenBabel11112416363D

 32 37  0  0  1  0  0  0  0  0999 V2000
  190.8520  176.6910  143.9460 C   0  0  1  0  0  3  0  0  0  0  0  0
  188.0050  173.2340  142.0130 C   0  0  0  0  0  3  0  0  0  0  0  0
  189.0200  172.2900  142.1750 C   0  0  0  0  0  3  0  0  0  0  0  0
  193.1440  176.0330  144.7320 C   0  0  0  0  0  0  0  0  0  0  0  0
  194.1380  174.9790  144.9260 C   0  0  0  0  0  0  0  0  0  0  0  0
  188.9940  177.5620  145.3220 N   0  0  0  0  0  0  0  0  0  0  0  0
  188.6910  177.4000  142.8670 C   0  0  0  0  0  2  0  0  0  0  0  0
  194.9680  172.8880  144.9080 C   0  0  0  0  0  0  0  0  0  0  0  0
  188.2740  174.5900  142.2110 C   0  0  0  0  0  3  0  0  0  0  0  0
  189.9020  176.4710  142.7580 C   0  0  2  0  0  3  0  0  0  0  0  0
  189.5570  175.0110  142.5930 C   0  0  0  0  0  0  0  0  0  0  0  0
  191.9760  174.5350  143.0720 C   0  0  2  0  0  3  0  0  0  0  0  0
  195.7970  173.5580  145.6980 C   0  0  0  0  0  3  0  0  0  0  0  0
  188.0160  177.3080  144.2400 C   0  0  2  0  0  3  0  0  0  0  0  0
  195.3510  174.9930  145.7970 C   0  0  0  0  0  2  0  0  0  0  0  0
  190.3050  172.7010  142.5370 C   0  0  0  0  0  3  0  0  0  0  0  0
  190.5790  174.0600  142.7590 C   0  0  0  0  0  0  0  0  0  0  0  0
  192.8010  173.4590  143.6380 N   0  0  0  0  0  2  0  0  0  0  0  0
  190.0780  176.5790  145.2600 C   0  0  0  0  0  2  0  0  0  0  0  0
  193.2960  177.1630  145.2700 O   0  0  0  0  0  0  0  0  0  0  0  0
  195.0850  171.4410  144.5840 C   0  0  0  0  0  1  0  0  0  0  0  0
  191.9690  175.7330  143.9500 N   0  0  0  0  0  0  0  0  0  0  0  0
  193.9440  173.7860  144.4270 C   0  0  0  0  0  0  0  0  0  0  0  0
  186.6920  178.9000  143.0020 O   0  0  0  0  0  1  0  0  0  0  0  0
  186.8350  178.2950  144.2510 C   0  0  1  0  0  3  0  0  0  0  0  0
  185.5200  177.6420  144.6850 C   0  0  2  0  0  3  0  0  0  0  0  0
  184.3610  178.6360  144.5440 C   0  0  0  0  0  2  0  0  0  0  0  0
  184.9120  178.3110  145.9060 C   0  0  1  0  0  0  0  0  0  0  0  0
  184.0660  177.5410  146.7010 O   0  0  0  0  0  1  0  0  0  0  0  0
  185.6080  179.4160  146.5470 N   0  0  0  0  0  1  0  0  0  0  0  0
  187.9170  176.1090  146.8540 O   0  0  0  0  0  1  0  0  0  0  0  0
  188.3680  177.4170  146.6410 C   0  0  0  0  0  2  0  0  0  0  0  0
  1 22  1  0  0  0  0
  1 19  1  1  0  0  0
  2  3  2  0  0  0  0
  2  9  1  0  0  0  0
  3 16  1  0  0  0  0
  4  5  1  0  0  0  0
  4 20  2  0  0  0  0
  5 15  1  0  0  0  0
  6 32  1  0  0  0  0
  7 14  1  0  0  0  0
  8 13  2  0  0  0  0
  9 11  2  0  0  0  0
 10  7  1  1  0  0  0
 10  1  1  0  0  0  0
 11 10  1  0  0  0  0
 11 17  1  0  0  0  0
 12 17  1  1  0  0  0
 12 18  1  0  0  0  0
 12 22  1  0  0  0  0
 13 15  1  0  0  0  0
 14 25  1  6  0  0  0
 14  6  1  0  0  0  0
 16 17  2  0  0  0  0
 18 23  1  0  0  0  0
 19  6  1  0  0  0  0
 21  8  1  0  0  0  0
 22  4  1  0  0  0  0
 23  8  1  0  0  0  0
 23  5  2  0  0  0  0
 25 24  1  6  0  0  0
 26 25  1  6  0  0  0
 26 28  1  0  0  0  0
 27 26  1  0  0  0  0
 27 28  1  0  0  0  0
 28 30  1  1  0  0  0
 28 29  1  0  0  0  0
 32 31  1  0  0  0  0
M  END
>  <MODEL>
4

>  <REMARK>
 VINA RESULT:      -8.0      2.833      8.309
  Name = 
  3 active torsions:
  status: ('A' for Active; 'I' for Inactive)
    1  A    between atoms: N_7  and  C_19
    2  A    between atoms: C_10  and  C_17
    3  A    between atoms: C_10  and  C_20
                            x       y       z     vdW  Elec       q    Type
                         _______ _______ _______ _____ _____    ______ ____

>  <TORSDO>
F 3

$$$$
=
 OpenBabel11112416363D

 32 37  0  0  1  0  0  0  0  0999 V2000
  188.2880  177.3730  142.0290 C   0  0  1  0  0  3  0  0  0  0  0  0
  188.1840  177.4770  146.9040 C   0  0  0  0  0  3  0  0  0  0  0  0
  186.8250  177.7940  146.8800 C   0  0  0  0  0  3  0  0  0  0  0  0
  186.1460  177.7960  140.7900 C   0  0  0  0  0  0  0  0  0  0  0  0
  184.7110  178.0700  140.8430 C   0  0  0  0  0  0  0  0  0  0  0  0
  189.6330  175.3010  142.0230 N   0  0  0  0  0  0  0  0  0  0  0  0
  190.4790  177.2730  143.2640 C   0  0  0  0  0  2  0  0  0  0  0  0
  182.7000  178.3970  141.7990 C   0  0  0  0  0  0  0  0  0  0  0  0
  188.9280  177.5030  145.7230 C   0  0  0  0  0  3  0  0  0  0  0  0
  189.0950  177.9230  143.2160 C   0  0  2  0  0  3  0  0  0  0  0  0
  188.3130  177.8260  144.5040 C   0  0  0  0  0  0  0  0  0  0  0  0
  186.3190  178.5860  143.1790 C   0  0  2  0  0  3  0  0  0  0  0  0
  182.4170  178.1540  140.5250 C   0  0  0  0  0  3  0  0  0  0  0  0
  190.3990  175.7430  143.2110 C   0  0  2  0  0  3  0  0  0  0  0  0
  183.6930  177.9150  139.7610 C   0  0  0  0  0  3  0  0  0  0  0  0
  186.2090  178.1370  145.6750 C   0  0  0  0  0  3  0  0  0  0  0  0
  186.9430  178.1440  144.4790 C   0  0  0  0  0  0  0  0  0  0  0  0
  184.8560  178.4530  143.2080 N   0  0  0  0  0  2  0  0  0  0  0  0
  188.2740  175.8450  142.0710 C   0  0  0  0  0  2  0  0  0  0  0  0
  186.6930  177.4580  139.7050 O   0  0  0  0  0  0  0  0  0  0  0  0
  181.6910  178.6680  142.8580 C   0  0  0  0  0  1  0  0  0  0  0  0
  186.9060  177.8780  142.0130 N   0  0  0  0  0  0  0  0  0  0  0  0
  184.1320  178.3500  141.9820 C   0  0  1  0  0  3  0  0  0  0  0  0
  192.5480  175.6310  142.1180 O   0  0  0  0  0  1  0  0  0  0  0  0
  191.8380  175.1950  143.2380 C   0  0  1  0  0  3  0  0  0  0  0  0
  192.5870  175.5580  144.5220 C   0  0  2  0  0  3  0  0  0  0  0  0
  193.1900  174.3020  145.1600 C   0  0  0  0  0  2  0  0  0  0  0  0
  191.9610  174.9330  145.7580 C   0  0  1  0  0  0  0  0  0  0  0  0
  192.1770  175.5730  146.9760 O   0  0  0  0  0  1  0  0  0  0  0  0
  190.7550  174.1300  145.6310 N   0  0  0  0  0  1  0  0  0  0  0  0
  188.3710  173.4130  142.7030 O   0  0  0  0  0  1  0  0  0  0  0  0
  189.5020  173.8400  141.9960 C   0  0  0  0  0  2  0  0  0  0  0  0
  1 19  1  1  0  0  0
  1 10  1  0  0  0  0
  3  2  1  0  0  0  0
  4  5  1  0  0  0  0
  4 22  1  0  0  0  0
  6 19  1  0  0  0  0
  6 14  1  0  0  0  0
  8 23  1  0  0  0  0
  8 21  1  0  0  0  0
  9  2  2  0  0  0  0
 10  7  1  1  0  0  0
 10 11  1  0  0  0  0
 11  9  1  0  0  0  0
 12 18  1  1  0  0  0
 12 17  1  0  0  0  0
 13  8  2  0  0  0  0
 14 25  1  6  0  0  0
 14  7  1  0  0  0  0
 15 13  1  0  0  0  0
 15  5  2  0  0  0  0
 16  3  2  0  0  0  0
 17 11  2  0  0  0  0
 17 16  1  0  0  0  0
 20  4  2  0  0  0  0
 22  1  1  0  0  0  0
 22 12  1  0  0  0  0
 23  5  1  1  0  0  0
 23 18  1  0  0  0  0
 25 24  1  6  0  0  0
 26 25  1  6  0  0  0
 26 27  1  0  0  0  0
 26 28  1  0  0  0  0
 27 28  1  0  0  0  0
 28 30  1  6  0  0  0
 28 29  1  0  0  0  0
 32  6  1  0  0  0  0
 32 31  1  0  0  0  0
M  END
>  <MODEL>
5

>  <REMARK>
 VINA RESULT:      -7.9      1.227      1.379
  Name = 
  3 active torsions:
  status: ('A' for Active; 'I' for Inactive)
    1  A    between atoms: N_7  and  C_19
    2  A    between atoms: C_10  and  C_17
    3  A    between atoms: C_10  and  C_20
                            x       y       z     vdW  Elec       q    Type
                         _______ _______ _______ _____ _____    ______ ____

>  <TORSDO>
F 3

$$$$
=
 OpenBabel11112416363D

 32 37  0  0  1  0  0  0  0  0999 V2000
  187.7190  177.3140  142.8860 C   0  0  1  0  0  3  0  0  0  0  0  0
  186.7500  177.4450  147.6640 C   0  0  0  0  0  3  0  0  0  0  0  0
  185.4190  177.7720  147.3980 C   0  0  0  0  0  3  0  0  0  0  0  0
  185.8350  177.7460  141.2840 C   0  0  0  0  0  0  0  0  0  0  0  0
  184.4150  178.0310  141.0790 C   0  0  0  0  0  0  0  0  0  0  0  0
  189.0260  175.2310  143.1280 N   0  0  0  0  0  0  0  0  0  0  0  0
  189.6540  177.2040  144.4920 C   0  0  0  0  0  2  0  0  0  0  0  0
  182.2700  178.3790  141.6610 C   0  0  0  0  0  0  0  0  0  0  0  0
  187.6920  177.4580  146.6340 C   0  0  0  0  0  3  0  0  0  0  0  0
  188.3060  177.8640  144.1950 C   0  0  2  0  0  3  0  0  0  0  0  0
  187.3070  177.7800  145.3240 C   0  0  0  0  0  0  0  0  0  0  0  0
  185.5870  178.5480  143.6630 C   0  0  2  0  0  3  0  0  0  0  0  0
  182.2160  178.1310  140.3580 C   0  0  0  0  0  3  0  0  0  0  0  0
  189.5720  175.6740  144.4310 C   0  0  2  0  0  3  0  0  0  0  0  0
  183.6060  177.8780  139.8350 C   0  0  0  0  0  3  0  0  0  0  0  0
  185.0300  178.1120  146.1000 C   0  0  0  0  0  3  0  0  0  0  0  0
  185.9660  178.1080  145.0550 C   0  0  0  0  0  0  0  0  0  0  0  0
  184.1400  178.4260  143.4310 N   0  0  0  0  0  2  0  0  0  0  0  0
  187.6840  175.7870  142.9310 C   0  0  0  0  0  2  0  0  0  0  0  0
  186.5630  177.3990  140.3150 O   0  0  0  0  0  0  0  0  0  0  0  0
  181.0910  178.6630  142.5220 C   0  0  0  0  0  1  0  0  0  0  0  0
  186.3660  177.8290  142.6230 N   0  0  0  0  0  0  0  0  0  0  0  0
  183.6460  178.3220  142.0960 C   0  0  1  0  0  3  0  0  0  0  0  0
  190.8920  173.8750  145.3500 O   0  0  0  0  0  1  0  0  0  0  0  0
  190.9780  175.1160  144.7160 C   0  0  1  0  0  3  0  0  0  0  0  0
  191.8430  175.0150  143.4570 C   0  0  2  0  0  3  0  0  0  0  0  0
  193.2460  174.5130  143.8140 C   0  0  0  0  0  2  0  0  0  0  0  0
  193.0270  175.9650  143.4860 C   0  0  1  0  0  0  0  0  0  0  0  0
  193.5560  176.3650  142.2600 O   0  0  0  0  0  1  0  0  0  0  0  0
  193.2050  176.8650  144.6140 N   0  0  0  0  0  1  0  0  0  0  0  0
  188.1610  173.3580  141.9610 O   0  0  0  0  0  1  0  0  0  0  0  0
  188.8900  173.7720  143.0840 C   0  0  0  0  0  2  0  0  0  0  0  0
  1 19  1  1  0  0  0
  1 10  1  0  0  0  0
  3  2  1  0  0  0  0
  4 22  1  0  0  0  0
  5  4  1  0  0  0  0
  6 14  1  0  0  0  0
  8 23  1  0  0  0  0
  8 21  1  0  0  0  0
  9  2  2  0  0  0  0
 10  7  1  1  0  0  0
 10 11  1  0  0  0  0
 11  9  1  0  0  0  0
 12 18  1  6  0  0  0
 12 17  1  0  0  0  0
 13  8  2  0  0  0  0
 14  7  1  0  0  0  0
 14 25  1  6  0  0  0
 15 13  1  0  0  0  0
 15  5  2  0  0  0  0
 16  3  2  0  0  0  0
 17 11  2  0  0  0  0
 17 16  1  0  0  0  0
 19  6  1  0  0  0  0
 20  4  2  0  0  0  0
 22  1  1  0  0  0  0
 22 12  1  0  0  0  0
 23  5  1  1  0  0  0
 23 18  1  0  0  0  0
 25 24  1  6  0  0  0
 26 28  1  0  0  0  0
 26 27  1  0  0  0  0
 26 25  1  1  0  0  0
 28 29  1  6  0  0  0
 28 27  1  0  0  0  0
 28 30  1  0  0  0  0
 31 32  1  0  0  0  0
 32  6  1  0  0  0  0
M  END
>  <MODEL>
6

>  <REMARK>
 VINA RESULT:      -7.7      1.369      1.839
  Name = 
  3 active torsions:
  status: ('A' for Active; 'I' for Inactive)
    1  A    between atoms: N_7  and  C_19
    2  A    between atoms: C_10  and  C_17
    3  A    between atoms: C_10  and  C_20
                            x       y       z     vdW  Elec       q    Type
                         _______ _______ _______ _____ _____    ______ ____

>  <TORSDO>
F 3

$$$$
=
 OpenBabel11112416363D

 32 37  0  0  1  0  0  0  0  0999 V2000
  191.0500  176.7360  144.9830 C   0  0  1  0  0  3  0  0  0  0  0  0
  188.8250  174.7810  141.1080 C   0  0  0  0  0  3  0  0  0  0  0  0
  189.9480  173.9960  140.8440 C   0  0  0  0  0  3  0  0  0  0  0  0
  193.3590  175.9330  145.5520 C   0  0  0  0  0  0  0  0  0  0  0  0
  194.4760  175.0390  145.2490 C   0  0  0  0  0  0  0  0  0  0  0  0
  189.0120  176.5180  146.3620 N   0  0  0  0  0  0  0  0  0  0  0  0
  188.8800  177.7590  144.2200 C   0  0  0  0  0  2  0  0  0  0  0  0
  195.5840  173.4030  144.1730 C   0  0  0  0  0  0  0  0  0  0  0  0
  188.8920  175.7990  142.0610 C   0  0  0  0  0  3  0  0  0  0  0  0
  190.2120  177.1560  143.7660 C   0  0  2  0  0  3  0  0  0  0  0  0
  190.0800  176.0280  142.7720 C   0  0  0  0  0  0  0  0  0  0  0  0
  192.5090  175.5580  143.2070 C   0  0  2  0  0  3  0  0  0  0  0  0
  196.2660  173.5680  145.3000 C   0  0  0  0  0  3  0  0  0  0  0  0
  188.1430  176.8480  145.2090 C   0  0  2  0  0  3  0  0  0  0  0  0
  195.6210  174.6510  146.1250 C   0  0  0  0  0  2  0  0  0  0  0  0
  191.1410  174.2290  141.5330 C   0  0  0  0  0  3  0  0  0  0  0  0
  191.2120  175.2360  142.5070 C   0  0  0  0  0  0  0  0  0  0  0  0
  193.4400  174.4210  143.1750 N   0  0  0  0  0  2  0  0  0  0  0  0
  190.2220  175.8350  145.9000 C   0  0  0  0  0  2  0  0  0  0  0  0
  193.3230  176.5640  146.6430 O   0  0  0  0  0  0  0  0  0  0  0  0
  195.9180  172.4130  143.1150 C   0  0  0  0  0  1  0  0  0  0  0  0
  192.2860  176.0390  144.5940 N   0  0  0  0  0  0  0  0  0  0  0  0
  194.4780  174.3300  144.1490 C   0  0  0  0  0  0  0  0  0  0  0  0
  186.9640  178.1070  146.8960 O   0  0  0  0  0  1  0  0  0  0  0  0
  186.8400  177.5560  145.6190 C   0  0  1  0  0  3  0  0  0  0  0  0
  186.4030  178.6250  144.6140 C   0  0  2  0  0  3  0  0  0  0  0  0
  184.8750  178.6640  144.5090 C   0  0  0  0  0  2  0  0  0  0  0  0
  185.6880  178.0350  143.4110 C   0  0  1  0  0  0  0  0  0  0  0  0
  185.7210  178.7680  142.2260 O   0  0  0  0  0  1  0  0  0  0  0  0
  185.5280  176.5940  143.2990 N   0  0  0  0  0  1  0  0  0  0  0  0
  189.1150  174.4670  147.5460 O   0  0  0  0  0  1  0  0  0  0  0  0
  188.3340  175.6000  147.2840 C   0  0  0  0  0  2  0  0  0  0  0  0
  1 19  1  1  0  0  0
  2  9  1  0  0  0  0
  3  2  2  0  0  0  0
  3 16  1  0  0  0  0
  4 20  2  0  0  0  0
  5  4  1  0  0  0  0
  5 15  1  0  0  0  0
  6 32  1  0  0  0  0
  7 14  1  0  0  0  0
  8 13  2  0  0  0  0
  9 11  2  0  0  0  0
 10  7  1  1  0  0  0
 10  1  1  0  0  0  0
 11 10  1  0  0  0  0
 12 17  1  1  0  0  0
 12 22  1  0  0  0  0
 13 15  1  0  0  0  0
 14 25  1  1  0  0  0
 14  6  1  0  0  0  0
 16 17  2  0  0  0  0
 17 11  1  0  0  0  0
 18 12  1  0  0  0  0
 18 23  1  0  0  0  0
 19  6  1  0  0  0  0
 21  8  1  0  0  0  0
 22  1  1  0  0  0  0
 22  4  1  0  0  0  0
 23  8  1  0  0  0  0
 23  5  2  0  0  0  0
 25 24  1  1  0  0  0
 26 25  1  1  0  0  0
 27 26  1  0  0  0  0
 28 29  1  6  0  0  0
 28 27  1  0  0  0  0
 28 26  1  0  0  0  0
 30 28  1  0  0  0  0
 32 31  1  0  0  0  0
M  END
>  <MODEL>
7

>  <REMARK>
 VINA RESULT:      -7.7      2.803      8.485
  Name = 
  3 active torsions:
  status: ('A' for Active; 'I' for Inactive)
    1  A    between atoms: N_7  and  C_19
    2  A    between atoms: C_10  and  C_17
    3  A    between atoms: C_10  and  C_20
                            x       y       z     vdW  Elec       q    Type
                         _______ _______ _______ _____ _____    ______ ____

>  <TORSDO>
F 3

$$$$
=
 OpenBabel11112416363D

 32 37  0  0  1  0  0  0  0  0999 V2000
  189.2770  176.0490  142.8070 C   0  0  1  0  0  3  0  0  0  0  0  0
  192.2680  175.2890  146.5840 C   0  0  0  0  0  3  0  0  0  0  0  0
  191.3960  175.9780  147.4290 C   0  0  0  0  0  3  0  0  0  0  0  0
  187.1300  177.2810  143.2270 C   0  0  0  0  0  0  0  0  0  0  0  0
  186.2370  177.9370  144.1810 C   0  0  0  0  0  0  0  0  0  0  0  0
  189.5340  173.7170  142.0330 N   0  0  0  0  0  0  0  0  0  0  0  0
  191.5640  175.1070  142.3380 C   0  0  0  0  0  2  0  0  0  0  0  0
  185.5170  178.6430  146.1920 C   0  0  0  0  0  0  0  0  0  0  0  0
  192.0700  175.3170  145.2020 C   0  0  0  0  0  3  0  0  0  0  0  0
  190.7700  176.1220  143.1640 C   0  0  2  0  0  3  0  0  0  0  0  0
  190.9840  176.0180  144.6550 C   0  0  0  0  0  0  0  0  0  0  0  0
  189.0020  177.5410  144.8980 C   0  0  2  0  0  3  0  0  0  0  0  0
  184.4430  178.7270  145.4160 C   0  0  0  0  0  3  0  0  0  0  0  0
  190.9630  173.7000  142.4220 C   0  0  2  0  0  3  0  0  0  0  0  0
  184.7930  178.2780  144.0210 C   0  0  0  0  0  3  0  0  0  0  0  0
  190.3240  176.6950  146.8920 C   0  0  0  0  0  3  0  0  0  0  0  0
  190.1040  176.7110  145.5060 C   0  0  0  0  0  0  0  0  0  0  0  0
  187.9380  177.8270  145.8710 N   0  0  0  0  0  2  0  0  0  0  0  0
  188.7820  174.6070  142.9220 C   0  0  0  0  0  2  0  0  0  0  0  0
  186.7310  177.0060  142.0630 O   0  0  0  0  0  0  0  0  0  0  0  0
  185.5500  178.9920  147.6380 C   0  0  0  0  0  1  0  0  0  0  0  0
  188.4570  176.9200  143.6640 N   0  0  0  0  0  0  0  0  0  0  0  0
  186.6290  178.1590  145.4100 C   0  0  1  0  0  3  0  0  0  0  0  0
  192.0460  171.5560  142.1890 O   0  0  0  0  0  1  0  0  0  0  0  0
  191.8150  172.7700  141.5400 C   0  0  1  0  0  3  0  0  0  0  0  0
  191.1980  172.5310  140.1590 C   0  0  2  0  0  3  0  0  0  0  0  0
  192.2030  171.8270  139.2410 C   0  0  0  0  0  2  0  0  0  0  0  0
  191.9160  173.2940  139.0600 C   0  0  1  0  0  0  0  0  0  0  0  0
  191.1870  173.6000  137.9130 O   0  0  0  0  0  1  0  0  0  0  0  0
  193.0320  174.1660  139.3930 N   0  0  0  0  0  1  0  0  0  0  0  0
  188.9600  171.9430  143.4960 O   0  0  0  0  0  1  0  0  0  0  0  0
  188.9360  172.3850  142.1670 C   0  0  0  0  0  2  0  0  0  0  0  0
  1 19  1  1  0  0  0
  1 10  1  0  0  0  0
  1 22  1  0  0  0  0
  2  3  1  0  0  0  0
  4 22  1  0  0  0  0
  4  5  1  0  0  0  0
  6 32  1  0  0  0  0
  6 14  1  0  0  0  0
  6 19  1  0  0  0  0
  7 14  1  0  0  0  0
  8 21  1  0  0  0  0
  9  2  2  0  0  0  0
 10  7  1  6  0  0  0
 10 11  1  0  0  0  0
 11  9  1  0  0  0  0
 11 17  2  0  0  0  0
 12 17  1  1  0  0  0
 12 18  1  0  0  0  0
 13  8  2  0  0  0  0
 14 25  1  6  0  0  0
 15  5  2  0  0  0  0
 15 13  1  0  0  0  0
 16  3  2  0  0  0  0
 17 16  1  0  0  0  0
 20  4  2  0  0  0  0
 22 12  1  0  0  0  0
 23  5  1  1  0  0  0
 23 18  1  0  0  0  0
 23  8  1  0  0  0  0
 25 24  1  1  0  0  0
 26 25  1  1  0  0  0
 27 26  1  0  0  0  0
 28 29  1  6  0  0  0
 28 27  1  0  0  0  0
 28 30  1  0  0  0  0
 28 26  1  0  0  0  0
 32 31  1  0  0  0  0
M  END
>  <MODEL>
8

>  <REMARK>
 VINA RESULT:      -7.5      2.696      5.240
  Name = 
  3 active torsions:
  status: ('A' for Active; 'I' for Inactive)
    1  A    between atoms: N_7  and  C_19
    2  A    between atoms: C_10  and  C_17
    3  A    between atoms: C_10  and  C_20
                            x       y       z     vdW  Elec       q    Type
                         _______ _______ _______ _____ _____    ______ ____

>  <TORSDO>
F 3

$$$$
=
 OpenBabel11112416363D

 32 37  0  0  1  0  0  0  0  0999 V2000
  189.6620  175.3030  144.6060 C   0  0  1  0  0  3  0  0  0  0  0  0
  190.1400  173.1720  140.2450 C   0  0  0  0  0  3  0  0  0  0  0  0
  189.0060  173.8400  139.7810 C   0  0  0  0  0  3  0  0  0  0  0  0
  187.7790  176.9310  144.9280 C   0  0  0  0  0  0  0  0  0  0  0  0
  186.6370  177.6420  144.3550 C   0  0  0  0  0  0  0  0  0  0  0  0
  192.0840  175.7780  144.7270 N   0  0  0  0  0  0  0  0  0  0  0  0
  191.3380  173.4390  144.3740 C   0  0  0  0  0  2  0  0  0  0  0  0
  185.1910  178.2890  142.7570 C   0  0  0  0  0  0  0  0  0  0  0  0
  190.4600  173.2000  141.6040 C   0  0  0  0  0  3  0  0  0  0  0  0
  189.9380  173.9220  143.9910 C   0  0  2  0  0  3  0  0  0  0  0  0
  189.6590  173.9160  142.5070 C   0  0  0  0  0  0  0  0  0  0  0  0
  187.6130  175.2730  143.0350 C   0  0  2  0  0  3  0  0  0  0  0  0
  185.0220  179.1800  143.7260 C   0  0  0  0  0  3  0  0  0  0  0  0
  192.4130  174.4900  144.0730 C   0  0  2  0  0  3  0  0  0  0  0  0
  185.9430  178.8580  144.8740 C   0  0  0  0  0  2  0  0  0  0  0  0
  188.1920  174.5390  140.6750 C   0  0  0  0  0  3  0  0  0  0  0  0
  188.5180  174.5920  142.0390 C   0  0  0  0  0  0  0  0  0  0  0  0
  186.7500  176.2720  142.3890 N   0  0  0  0  0  2  0  0  0  0  0  0
  190.7900  176.2690  144.2460 C   0  0  0  0  0  2  0  0  0  0  0  0
  188.2510  177.2750  146.0450 O   0  0  0  0  0  0  0  0  0  0  0  0
  184.4600  178.2920  141.4620 C   0  0  0  0  0  1  0  0  0  0  0  0
  188.3750  175.8620  144.1640 N   0  0  0  0  0  0  0  0  0  0  0  0
  186.1930  177.3320  143.1650 C   0  0  0  0  0  0  0  0  0  0  0  0
  193.6530  173.2920  145.7600 O   0  0  0  0  0  1  0  0  0  0  0  0
  193.7700  173.9180  144.5180 C   0  0  1  0  0  3  0  0  0  0  0  0
  194.3760  172.9590  143.4900 C   0  0  2  0  0  3  0  0  0  0  0  0
  195.8730  172.7690  143.7570 C   0  0  0  0  0  2  0  0  0  0  0  0
  195.4170  173.6300  142.6100 C   0  0  1  0  0  0  0  0  0  0  0  0
  195.6400  173.0780  141.3500 O   0  0  0  0  0  1  0  0  0  0  0  0
  195.7010  175.0460  142.7770 N   0  0  0  0  0  1  0  0  0  0  0  0
  193.8360  177.1660  145.5160 O   0  0  0  0  0  1  0  0  0  0  0  0
  193.0760  176.8050  144.3960 C   0  0  0  0  0  2  0  0  0  0  0  0
  1 19  1  6  0  0  0
  2  9  1  0  0  0  0
  3  2  2  0  0  0  0
  3 16  1  0  0  0  0
  4 20  2  0  0  0  0
  5 15  1  0  0  0  0
  5  4  1  0  0  0  0
  8 23  1  0  0  0  0
  8 13  2  0  0  0  0
  9 11  2  0  0  0  0
 10  7  1  6  0  0  0
 10  1  1  0  0  0  0
 11 10  1  0  0  0  0
 12 17  1  6  0  0  0
 12 22  1  0  0  0  0
 13 15  1  0  0  0  0
 14  7  1  0  0  0  0
 14 25  1  1  0  0  0
 14  6  1  0  0  0  0
 16 17  2  0  0  0  0
 17 11  1  0  0  0  0
 18 12  1  0  0  0  0
 18 23  1  0  0  0  0
 19  6  1  0  0  0  0
 21  8  1  0  0  0  0
 22  1  1  0  0  0  0
 22  4  1  0  0  0  0
 23  5  2  0  0  0  0
 25 24  1  1  0  0  0
 26 27  1  0  0  0  0
 26 25  1  1  0  0  0
 28 29  1  6  0  0  0
 28 30  1  0  0  0  0
 28 26  1  0  0  0  0
 28 27  1  0  0  0  0
 32  6  1  0  0  0  0
 32 31  1  0  0  0  0
M  END
>  <MODEL>
9

>  <REMARK>
 VINA RESULT:      -7.5      2.935      5.526
  Name = 
  3 active torsions:
  status: ('A' for Active; 'I' for Inactive)
    1  A    between atoms: N_7  and  C_19
    2  A    between atoms: C_10  and  C_17
    3  A    between atoms: C_10  and  C_20
                            x       y       z     vdW  Elec       q    Type
                         _______ _______ _______ _____ _____    ______ ____

>  <TORSDO>
F 3

$$$$
