=
 OpenBabel11112417173D

 37 44  0  0  1  0  0  0  0  0999 V2000
  191.7840  174.3300  144.4750 C   0  0  0  0  0  2  0  0  0  0  0  0
  190.4510  171.6860  141.9080 C   0  0  0  0  0  0  0  0  0  0  0  0
  188.1160  175.2080  142.0060 C   0  0  2  0  0  3  0  0  0  0  0  0
  192.6910  173.9300  145.6360 C   0  0  2  0  0  3  0  0  0  0  0  0
  189.6660  177.8170  144.4240 C   0  0  0  0  0  2  0  0  0  0  0  0
  189.1390  173.4680  140.6810 C   0  0  2  0  0  3  0  0  0  0  0  0
  188.6920  175.7310  143.0910 C   0  0  2  0  0  3  0  0  0  0  0  0
  192.6830  176.4470  146.2260 C   0  0  2  0  0  3  0  0  0  0  0  0
  188.3120  173.7440  141.9240 C   0  0  1  0  0  3  0  0  0  0  0  0
  188.8160  177.2580  143.2680 C   0  0  1  0  0  3  0  0  0  0  0  0
  188.3480  173.9120  139.4480 C   0  0  0  0  0  2  0  0  0  0  0  0
  192.7910  175.0020  146.7270 C   0  0  0  0  0  2  0  0  0  0  0  0
  189.1540  173.4830  143.1010 C   0  0  0  0  0  0  0  0  0  0  0  0
  191.8100  172.3410  141.7270 C   0  0  0  0  0  1  0  0  0  0  0  0
  187.2640  177.2960  140.8580 N   0  0  0  0  0  2  0  0  0  0  0  0
  187.8970  175.3590  139.5870 C   0  0  0  0  0  3  0  0  0  0  0  0
  189.8280  172.1490  143.2480 C   0  0  0  0  0  2  0  0  0  0  0  0
  191.2460  176.9810  146.0700 C   0  0  1  0  0  3  0  0  0  0  0  0
  190.7990  176.9640  144.6680 N   0  0  1  0  0  0  0  0  0  0  0  0
  187.7380  175.9520  140.7850 C   0  0  0  0  0  0  0  0  0  0  0  0
  189.3910  174.6000  143.7900 C   0  0  0  0  0  0  0  0  0  0  0  0
  189.5590  171.9980  140.6810 C   0  0  0  0  0  2  0  0  0  0  0  0
  187.4570  177.9910  143.2560 C   0  0  1  0  0  3  0  0  0  0  0  0
  190.6600  170.1890  141.9760 C   0  0  0  0  0  1  0  0  0  0  0  0
  190.2190  176.0130  145.6270 C   0  0  1  0  0  3  0  0  0  0  0  0
  193.4830  176.6950  145.1070 O   0  0  0  0  0  1  0  0  0  0  0  0
  190.3670  174.6560  144.9490 C   0  0  2  0  0  3  0  0  0  0  0  0
  186.5530  177.7770  142.0350 C   0  0  0  0  0  2  0  0  0  0  0  0
  185.9350  176.6330  144.7100 C   0  0  0  0  0  3  0  0  0  0  0  0
  186.6740  177.8060  144.5240 C   0  0  0  0  0  0  0  0  0  0  0  0
  186.6630  178.7970  145.5180 C   0  0  0  0  0  3  0  0  0  0  0  0
  185.9070  179.6200  147.6880 N   0  0  0  0  0  1  0  0  0  0  0  0
  185.1800  177.4390  146.8650 C   0  0  0  0  0  3  0  0  0  0  0  0
  185.9170  178.6130  146.6850 C   0  0  0  0  0  0  0  0  0  0  0  0
  185.1900  176.4490  145.8780 C   0  0  0  0  0  3  0  0  0  0  0  0
  194.3000  172.0880  145.1510 C   0  0  0  0  0  1  0  0  0  0  0  0
  194.0800  173.5890  145.1240 C   0  0  0  0  0  2  0  0  0  0  0  0
  1 27  1  0  0  0  0
  1  4  1  0  0  0  0
  2 24  1  0  0  0  0
  2 17  1  0  0  0  0
  3 20  1  6  0  0  0
  3  7  1  0  0  0  0
  4 37  1  6  0  0  0
  4 12  1  0  0  0  0
  5 19  1  0  0  0  0
  6 11  1  6  0  0  0
  6  9  1  0  0  0  0
  7 10  1  0  0  0  0
  7 21  1  6  0  0  0
  8 26  1  6  0  0  0
  8 12  1  0  0  0  0
  9  3  1  0  0  0  0
  9 13  1  1  0  0  0
 10  5  1  1  0  0  0
 11 16  1  0  0  0  0
 13 17  1  0  0  0  0
 13 21  2  0  0  0  0
 14  2  1  0  0  0  0
 15 28  1  0  0  0  0
 16 20  2  0  0  0  0
 18  8  1  0  0  0  0
 19 25  1  0  0  0  0
 19 18  1  0  0  0  0
 20 15  1  0  0  0  0
 21 27  1  0  0  0  0
 22  6  1  0  0  0  0
 22  2  1  0  0  0  0
 23 10  1  0  0  0  0
 23 30  1  0  0  0  0
 25 18  1  0  0  0  0
 27 25  1  0  0  0  0
 28 23  1  0  0  0  0
 29 35  1  0  0  0  0
 30 29  2  0  0  0  0
 30 31  1  0  0  0  0
 31 34  2  0  0  0  0
 34 33  1  0  0  0  0
 34 32  1  0  0  0  0
 35 33  2  0  0  0  0
 37 36  1  0  0  0  0
M  END
>  <MODEL>
1

>  <REMARK>
 VINA RESULT:      -9.3      0.000      0.000
  Name = 
  2 active torsions:
  status: ('A' for Active; 'I' for Inactive)
    1  A    between atoms: C_4  and  C_37
    2  A    between atoms: C_23  and  C_30
                            x       y       z     vdW  Elec       q    Type
                         _______ _______ _______ _____ _____    ______ ____

>  <TORSDO>
F 2

$$$$
=
 OpenBabel11112417173D

 37 44  0  0  1  0  0  0  0  0999 V2000
  193.3160  174.0800  144.4470 C   0  0  0  0  0  2  0  0  0  0  0  0
  191.9360  170.8540  142.7020 C   0  0  0  0  0  0  0  0  0  0  0  0
  189.2850  174.1340  142.4280 C   0  0  2  0  0  3  0  0  0  0  0  0
  194.4030  174.0080  145.5160 C   0  0  2  0  0  3  0  0  0  0  0  0
  190.8640  177.3110  144.0020 C   0  0  0  0  0  2  0  0  0  0  0  0
  190.2990  172.2270  141.3480 C   0  0  2  0  0  3  0  0  0  0  0  0
  189.9430  174.9210  143.2850 C   0  0  2  0  0  3  0  0  0  0  0  0
  194.2140  176.5850  145.5750 C   0  0  2  0  0  3  0  0  0  0  0  0
  189.6180  172.7050  142.6180 C   0  0  1  0  0  3  0  0  0  0  0  0
  189.9310  176.4540  143.1260 C   0  0  1  0  0  3  0  0  0  0  0  0
  189.3120  172.3360  140.1820 C   0  0  0  0  0  2  0  0  0  0  0  0
  194.5350  175.2950  146.3370 C   0  0  0  0  0  2  0  0  0  0  0  0
  190.6290  172.7670  143.6840 C   0  0  0  0  0  0  0  0  0  0  0  0
  193.1850  171.5500  142.1900 C   0  0  0  0  0  1  0  0  0  0  0  0
  188.0820  175.8580  141.0180 N   0  0  0  0  0  2  0  0  0  0  0  0
  188.7370  173.7420  140.0900 C   0  0  0  0  0  3  0  0  0  0  0  0
  191.4500  171.5490  143.9970 C   0  0  0  0  0  2  0  0  0  0  0  0
  192.7230  176.9670  145.5290 C   0  0  1  0  0  3  0  0  0  0  0  0
  192.1000  176.6140  144.2430 N   0  0  1  0  0  0  0  0  0  0  0  0
  188.6770  174.5670  141.1510 C   0  0  0  0  0  0  0  0  0  0  0  0
  190.8390  174.0210  144.0870 C   0  0  0  0  0  0  0  0  0  0  0  0
  190.8640  170.8270  141.5850 C   0  0  0  0  0  2  0  0  0  0  0  0
  188.5140  177.0670  143.1680 C   0  0  1  0  0  3  0  0  0  0  0  0
  192.3050  169.4260  143.0420 C   0  0  0  0  0  1  0  0  0  0  0  0
  191.7520  175.8540  145.4520 C   0  0  1  0  0  3  0  0  0  0  0  0
  194.8320  176.6420  144.3210 O   0  0  0  0  0  1  0  0  0  0  0  0
  191.9470  174.3970  145.0500 C   0  0  2  0  0  3  0  0  0  0  0  0
  187.4850  176.5290  142.1650 C   0  0  0  0  0  2  0  0  0  0  0  0
  188.2840  176.1180  145.4740 C   0  0  0  0  0  3  0  0  0  0  0  0
  187.9280  177.1050  144.5500 C   0  0  0  0  0  0  0  0  0  0  0  0
  187.0190  178.1080  144.9230 C   0  0  0  0  0  3  0  0  0  0  0  0
  185.5510  179.1340  146.5810 N   0  0  0  0  0  1  0  0  0  0  0  0
  186.8320  177.1280  147.1280 C   0  0  0  0  0  3  0  0  0  0  0  0
  186.4730  178.1180  146.2090 C   0  0  0  0  0  0  0  0  0  0  0  0
  187.7380  176.1290  146.7610 C   0  0  0  0  0  3  0  0  0  0  0  0
  196.8530  173.7600  145.9100 C   0  0  0  0  0  1  0  0  0  0  0  0
  195.7410  173.6650  144.8820 C   0  0  0  0  0  2  0  0  0  0  0  0
  1 27  1  0  0  0  0
  1  4  1  0  0  0  0
  2 24  1  0  0  0  0
  2 17  1  0  0  0  0
  3 20  1  6  0  0  0
  3  9  1  0  0  0  0
  3  7  1  0  0  0  0
  4 37  1  6  0  0  0
  4 12  1  0  0  0  0
  5 19  1  0  0  0  0
  6 11  1  6  0  0  0
  6 22  1  0  0  0  0
  6  9  1  0  0  0  0
  7 21  1  6  0  0  0
  8 26  1  6  0  0  0
  8 12  1  0  0  0  0
  9 13  1  1  0  0  0
 10 23  1  0  0  0  0
 10  7  1  0  0  0  0
 10  5  1  1  0  0  0
 13 17  1  0  0  0  0
 13 21  2  0  0  0  0
 14  2  1  0  0  0  0
 15 20  1  0  0  0  0
 15 28  1  0  0  0  0
 16 11  1  0  0  0  0
 16 20  2  0  0  0  0
 18  8  1  0  0  0  0
 19 25  1  0  0  0  0
 19 18  1  0  0  0  0
 21 27  1  0  0  0  0
 22  2  1  0  0  0  0
 23 30  1  0  0  0  0
 25 18  1  0  0  0  0
 27 25  1  0  0  0  0
 28 23  1  0  0  0  0
 29 35  1  0  0  0  0
 30 31  1  0  0  0  0
 30 29  2  0  0  0  0
 31 34  2  0  0  0  0
 34 32  1  0  0  0  0
 34 33  1  0  0  0  0
 35 33  2  0  0  0  0
 37 36  1  0  0  0  0
M  END
>  <MODEL>
2

>  <REMARK>
 VINA RESULT:      -9.1      1.430      1.761
  Name = 
  2 active torsions:
  status: ('A' for Active; 'I' for Inactive)
    1  A    between atoms: C_4  and  C_37
    2  A    between atoms: C_23  and  C_30
                            x       y       z     vdW  Elec       q    Type
                         _______ _______ _______ _____ _____    ______ ____

>  <TORSDO>
F 2

$$$$
=
 OpenBabel11112417173D

 37 44  0  0  1  0  0  0  0  0999 V2000
  192.3870  173.4340  141.5970 C   0  0  0  0  0  2  0  0  0  0  0  0
  195.3930  175.5770  142.9120 C   0  0  0  0  0  0  0  0  0  0  0  0
  191.7770  176.3960  144.9410 C   0  0  2  0  0  3  0  0  0  0  0  0
  192.4080  172.7920  140.2120 C   0  0  2  0  0  3  0  0  0  0  0  0
  188.9410  174.0600  143.6920 C   0  0  0  0  0  2  0  0  0  0  0  0
  194.1650  176.0650  145.0690 C   0  0  2  0  0  3  0  0  0  0  0  0
  190.9890  175.7050  144.1130 C   0  0  2  0  0  3  0  0  0  0  0  0
  190.0800  171.8630  140.8450 C   0  0  2  0  0  3  0  0  0  0  0  0
  193.0590  176.7700  144.3050 C   0  0  1  0  0  3  0  0  0  0  0  0
  189.7090  175.0160  144.6250 C   0  0  1  0  0  3  0  0  0  0  0  0
  194.1810  176.5800  146.5110 C   0  0  0  0  0  2  0  0  0  0  0  0
  191.0260  172.3320  139.7340 C   0  0  0  0  0  2  0  0  0  0  0  0
  192.9400  176.1350  142.9830 C   0  0  0  0  0  0  0  0  0  0  0  0
  195.3800  174.0650  143.0630 C   0  0  0  0  0  1  0  0  0  0  0  0
  190.4060  176.3440  147.0670 N   0  0  0  0  0  2  0  0  0  0  0  0
  192.8040  176.4510  147.1460 C   0  0  0  0  0  3  0  0  0  0  0  0
  194.1520  176.0260  142.1030 C   0  0  0  0  0  2  0  0  0  0  0  0
  189.2800  172.9810  141.5410 C   0  0  1  0  0  3  0  0  0  0  0  0
  189.8600  173.3480  142.8420 N   0  0  1  0  0  0  0  0  0  0  0  0
  191.6740  176.4160  146.4160 C   0  0  0  0  0  0  0  0  0  0  0  0
  191.7680  175.5170  142.8420 C   0  0  0  0  0  0  0  0  0  0  0  0
  195.4810  176.2360  144.3100 C   0  0  0  0  0  2  0  0  0  0  0  0
  188.6990  175.9910  145.2690 C   0  0  1  0  0  3  0  0  0  0  0  0
  196.6310  175.9570  142.1280 C   0  0  0  0  0  1  0  0  0  0  0  0
  189.9630  174.2820  141.7120 C   0  0  1  0  0  3  0  0  0  0  0  0
  190.6930  170.9870  141.7460 O   0  0  0  0  0  1  0  0  0  0  0  0
  191.4430  174.6370  141.6510 C   0  0  2  0  0  3  0  0  0  0  0  0
  189.2040  176.8620  146.4270 C   0  0  0  0  0  2  0  0  0  0  0  0
  188.6880  177.4930  143.2640 C   0  0  0  0  0  3  0  0  0  0  0  0
  187.9660  176.8320  144.2640 C   0  0  0  0  0  0  0  0  0  0  0  0
  186.5710  176.9740  144.3190 C   0  0  0  0  0  3  0  0  0  0  0  0
  184.4950  177.9160  143.4460 N   0  0  0  0  0  1  0  0  0  0  0  0
  186.6350  178.4320  142.3880 C   0  0  0  0  0  3  0  0  0  0  0  0
  185.9080  177.7730  143.3840 C   0  0  0  0  0  0  0  0  0  0  0  0
  188.0240  178.2910  142.3280 C   0  0  0  0  0  3  0  0  0  0  0  0
  194.7890  172.1050  139.9380 C   0  0  0  0  0  1  0  0  0  0  0  0
  193.3740  171.6190  140.1910 C   0  0  0  0  0  2  0  0  0  0  0  0
  1 27  1  0  0  0  0
  2 14  1  0  0  0  0
  2 22  1  0  0  0  0
  3 20  1  1  0  0  0
  4 37  1  1  0  0  0
  4  1  1  0  0  0  0
  6 22  1  6  0  0  0
  6 11  1  0  0  0  0
  7 21  1  1  0  0  0
  7 10  1  0  0  0  0
  7  3  1  0  0  0  0
  8 18  1  0  0  0  0
  8 26  1  1  0  0  0
  9 13  1  6  0  0  0
  9  3  1  0  0  0  0
  9  6  1  0  0  0  0
 10  5  1  6  0  0  0
 10 23  1  0  0  0  0
 11 16  1  0  0  0  0
 12  4  1  0  0  0  0
 12  8  1  0  0  0  0
 17  2  1  0  0  0  0
 17 13  1  0  0  0  0
 18 25  1  0  0  0  0
 18 19  1  0  0  0  0
 19  5  1  0  0  0  0
 20 15  1  0  0  0  0
 20 16  2  0  0  0  0
 21 13  2  0  0  0  0
 23 28  1  0  0  0  0
 24  2  1  0  0  0  0
 25 19  1  0  0  0  0
 27 25  1  0  0  0  0
 27 21  1  0  0  0  0
 28 15  1  0  0  0  0
 29 30  1  0  0  0  0
 30 31  2  0  0  0  0
 30 23  1  0  0  0  0
 33 34  2  0  0  0  0
 34 32  1  0  0  0  0
 34 31  1  0  0  0  0
 35 33  1  0  0  0  0
 35 29  2  0  0  0  0
 36 37  1  0  0  0  0
M  END
>  <MODEL>
3

>  <REMARK>
 VINA RESULT:      -8.6      2.463      5.591
  Name = 
  2 active torsions:
  status: ('A' for Active; 'I' for Inactive)
    1  A    between atoms: C_4  and  C_37
    2  A    between atoms: C_23  and  C_30
                            x       y       z     vdW  Elec       q    Type
                         _______ _______ _______ _____ _____    ______ ____

>  <TORSDO>
F 2

$$$$
=
 OpenBabel11112417173D

 37 44  0  0  1  0  0  0  0  0999 V2000
  186.6130  177.6640  144.8540 C   0  0  0  0  0  2  0  0  0  0  0  0
  186.8170  177.2370  140.9640 C   0  0  0  0  0  0  0  0  0  0  0  0
  189.6850  174.9160  143.0270 C   0  0  2  0  0  3  0  0  0  0  0  0
  185.9530  178.8840  145.4910 C   0  0  2  0  0  3  0  0  0  0  0  0
  189.2320  175.2670  146.8650 C   0  0  0  0  0  2  0  0  0  0  0  0
  188.0900  175.0650  141.2200 C   0  0  2  0  0  3  0  0  0  0  0  0
  189.4830  175.4720  144.2250 C   0  0  2  0  0  3  0  0  0  0  0  0
  186.5390  177.7570  147.7420 C   0  0  2  0  0  3  0  0  0  0  0  0
  189.2230  175.7890  141.9250 C   0  0  1  0  0  3  0  0  0  0  0  0
  189.6720  174.6580  145.5200 C   0  0  1  0  0  3  0  0  0  0  0  0
  188.6300  173.7700  140.6080 C   0  0  0  0  0  2  0  0  0  0  0  0
  186.3030  179.0620  146.9720 C   0  0  0  0  0  2  0  0  0  0  0  0
  188.6530  176.9290  142.6580 C   0  0  0  0  0  0  0  0  0  0  0  0
  185.5890  176.7910  141.7400 C   0  0  0  0  0  1  0  0  0  0  0  0
  190.5890  172.6490  143.6930 N   0  0  0  0  0  2  0  0  0  0  0  0
  189.3460  172.9340  141.6580 C   0  0  0  0  0  3  0  0  0  0  0  0
  187.8110  177.9340  141.9250 C   0  0  0  0  0  2  0  0  0  0  0  0
  187.9680  177.1890  147.6460 C   0  0  1  0  0  3  0  0  0  0  0  0
  188.0590  176.0810  146.6830 N   0  0  1  0  0  0  0  0  0  0  0  0
  189.8850  173.4740  142.7660 C   0  0  0  0  0  0  0  0  0  0  0  0
  188.7840  176.7780  143.9760 C   0  0  0  0  0  0  0  0  0  0  0  0
  187.4320  176.0230  140.2260 C   0  0  0  0  0  2  0  0  0  0  0  0
  191.0960  174.0820  145.6830 C   0  0  1  0  0  3  0  0  0  0  0  0
  186.3730  178.2470  139.9280 C   0  0  0  0  0  1  0  0  0  0  0  0
  188.6750  177.3750  146.3610 C   0  0  1  0  0  3  0  0  0  0  0  0
  185.5510  176.7980  147.5000 O   0  0  0  0  0  1  0  0  0  0  0  0
  188.1370  177.7150  144.9770 C   0  0  2  0  0  3  0  0  0  0  0  0
  191.6330  173.2010  144.5470 C   0  0  0  0  0  2  0  0  0  0  0  0
  191.9650  175.8130  147.2710 C   0  0  0  0  0  3  0  0  0  0  0  0
  192.1130  175.1190  146.0660 C   0  0  0  0  0  0  0  0  0  0  0  0
  193.2010  175.4090  145.2280 C   0  0  0  0  0  3  0  0  0  0  0  0
  195.2270  176.6800  144.7420 N   0  0  0  0  0  1  0  0  0  0  0  0
  193.9750  177.0790  146.8000 C   0  0  0  0  0  3  0  0  0  0  0  0
  194.1290  176.3880  145.5940 C   0  0  0  0  0  0  0  0  0  0  0  0
  192.8940  176.7910  147.6380 C   0  0  0  0  0  3  0  0  0  0  0  0
  184.0580  179.0410  143.8770 C   0  0  0  0  0  1  0  0  0  0  0  0
  184.4440  178.8110  145.3260 C   0  0  0  0  0  2  0  0  0  0  0  0
  1 27  1  0  0  0  0
  1  4  1  0  0  0  0
  2 14  1  0  0  0  0
  2 17  1  0  0  0  0
  3 20  1  1  0  0  0
  3  7  1  0  0  0  0
  4 37  1  1  0  0  0
  4 12  1  0  0  0  0
  6 22  1  6  0  0  0
  6  9  1  0  0  0  0
  7 21  1  6  0  0  0
  7 10  1  0  0  0  0
  8 26  1  6  0  0  0
  9 13  1  1  0  0  0
  9  3  1  0  0  0  0
 10 23  1  0  0  0  0
 10  5  1  1  0  0  0
 11  6  1  0  0  0  0
 11 16  1  0  0  0  0
 12  8  1  0  0  0  0
 13 21  2  0  0  0  0
 15 28  1  0  0  0  0
 16 20  2  0  0  0  0
 17 13  1  0  0  0  0
 18  8  1  0  0  0  0
 19  5  1  0  0  0  0
 19 18  1  0  0  0  0
 20 15  1  0  0  0  0
 21 27  1  0  0  0  0
 22  2  1  0  0  0  0
 23 30  1  0  0  0  0
 24  2  1  0  0  0  0
 25 19  1  0  0  0  0
 25 18  1  0  0  0  0
 27 25  1  0  0  0  0
 28 23  1  0  0  0  0
 29 35  1  0  0  0  0
 30 29  2  0  0  0  0
 31 34  2  0  0  0  0
 31 30  1  0  0  0  0
 32 34  1  0  0  0  0
 33 35  2  0  0  0  0
 34 33  1  0  0  0  0
 36 37  1  0  0  0  0
M  END
>  <MODEL>
4

>  <REMARK>
 VINA RESULT:      -8.4      2.366      6.402
  Name = 
  2 active torsions:
  status: ('A' for Active; 'I' for Inactive)
    1  A    between atoms: C_4  and  C_37
    2  A    between atoms: C_23  and  C_30
                            x       y       z     vdW  Elec       q    Type
                         _______ _______ _______ _____ _____    ______ ____

>  <TORSDO>
F 2

$$$$
=
 OpenBabel11112417173D

 37 44  0  0  1  0  0  0  0  0999 V2000
  188.3590  175.6390  143.5750 C   0  0  0  0  0  2  0  0  0  0  0  0
  188.8120  173.2160  140.5280 C   0  0  0  0  0  0  0  0  0  0  0  0
  191.9940  172.9860  143.3010 C   0  0  2  0  0  3  0  0  0  0  0  0
  187.4410  176.8560  143.4980 C   0  0  2  0  0  3  0  0  0  0  0  0
  191.3130  175.2700  146.3640 C   0  0  0  0  0  2  0  0  0  0  0  0
  190.4810  171.8220  141.8220 C   0  0  2  0  0  3  0  0  0  0  0  0
  191.6330  174.0520  144.0210 C   0  0  2  0  0  3  0  0  0  0  0  0
  188.1420  177.2690  145.9520 C   0  0  2  0  0  3  0  0  0  0  0  0
  191.4150  173.0130  141.9400 C   0  0  1  0  0  3  0  0  0  0  0  0
  191.9250  174.1260  145.5330 C   0  0  1  0  0  3  0  0  0  0  0  0
  191.2950  170.5340  141.9690 C   0  0  0  0  0  2  0  0  0  0  0  0
  187.6840  177.8720  144.6190 C   0  0  0  0  0  2  0  0  0  0  0  0
  190.5980  174.2350  141.9810 C   0  0  0  0  0  0  0  0  0  0  0  0
  187.6660  173.0380  141.5090 C   0  0  0  0  0  1  0  0  0  0  0  0
  193.3030  171.6660  145.0180 N   0  0  0  0  0  2  0  0  0  0  0  0
  192.1170  170.5570  143.2480 C   0  0  0  0  0  3  0  0  0  0  0  0
  189.6050  174.4980  140.8850 C   0  0  0  0  0  2  0  0  0  0  0  0
  189.6580  177.0250  146.0740 C   0  0  1  0  0  3  0  0  0  0  0  0
  190.0110  175.6130  145.8580 N   0  0  1  0  0  0  0  0  0  0  0  0
  192.4890  171.7030  143.8460 C   0  0  0  0  0  0  0  0  0  0  0  0
  190.6990  174.8520  143.1580 C   0  0  0  0  0  0  0  0  0  0  0  0
  189.6890  171.9400  140.5200 C   0  0  0  0  0  2  0  0  0  0  0  0
  193.4260  174.0150  145.8760 C   0  0  1  0  0  3  0  0  0  0  0  0
  188.2210  173.3960  139.1460 C   0  0  0  0  0  1  0  0  0  0  0  0
  190.3690  176.6140  144.8440 C   0  0  1  0  0  3  0  0  0  0  0  0
  187.3770  176.1640  146.3390 O   0  0  0  0  0  1  0  0  0  0  0  0
  189.8350  176.0380  143.5390 C   0  0  2  0  0  3  0  0  0  0  0  0
  194.1770  172.7800  145.3600 C   0  0  0  0  0  2  0  0  0  0  0  0
  194.1040  176.3630  146.4250 C   0  0  0  0  0  3  0  0  0  0  0  0
  194.1980  175.2650  145.5640 C   0  0  0  0  0  0  0  0  0  0  0  0
  195.0020  175.3510  144.4160 C   0  0  0  0  0  3  0  0  0  0  0  0
  196.5110  176.6110  142.9700 N   0  0  0  0  0  1  0  0  0  0  0  0
  195.6020  177.6220  144.9980 C   0  0  0  0  0  3  0  0  0  0  0  0
  195.7010  176.5280  144.1350 C   0  0  0  0  0  0  0  0  0  0  0  0
  194.8040  177.5390  146.1430 C   0  0  0  0  0  3  0  0  0  0  0  0
  185.0700  177.6280  143.4950 C   0  0  0  0  0  1  0  0  0  0  0  0
  185.9860  176.4190  143.5090 C   0  0  0  0  0  2  0  0  0  0  0  0
  2 17  1  0  0  0  0
  2 14  1  0  0  0  0
  3 20  1  1  0  0  0
  3  7  1  0  0  0  0
  4 37  1  1  0  0  0
  4  1  1  0  0  0  0
  4 12  1  0  0  0  0
  6 22  1  6  0  0  0
  6  9  1  0  0  0  0
  6 11  1  0  0  0  0
  7 21  1  1  0  0  0
  7 10  1  0  0  0  0
  8 18  1  0  0  0  0
  8 26  1  6  0  0  0
  9 13  1  1  0  0  0
  9  3  1  0  0  0  0
 10 23  1  0  0  0  0
 10  5  1  6  0  0  0
 11 16  1  0  0  0  0
 12  8  1  0  0  0  0
 13 21  2  0  0  0  0
 15 28  1  0  0  0  0
 16 20  2  0  0  0  0
 17 13  1  0  0  0  0
 19 18  1  0  0  0  0
 19  5  1  0  0  0  0
 20 15  1  0  0  0  0
 21 27  1  0  0  0  0
 22  2  1  0  0  0  0
 24  2  1  0  0  0  0
 25 19  1  0  0  0  0
 25 18  1  0  0  0  0
 27  1  1  0  0  0  0
 27 25  1  0  0  0  0
 28 23  1  0  0  0  0
 30 23  1  0  0  0  0
 30 29  2  0  0  0  0
 31 30  1  0  0  0  0
 32 34  1  0  0  0  0
 33 35  2  0  0  0  0
 34 31  2  0  0  0  0
 34 33  1  0  0  0  0
 35 29  1  0  0  0  0
 36 37  1  0  0  0  0
M  END
>  <MODEL>
5

>  <REMARK>
 VINA RESULT:      -8.4      2.293      6.484
  Name = 
  2 active torsions:
  status: ('A' for Active; 'I' for Inactive)
    1  A    between atoms: C_4  and  C_37
    2  A    between atoms: C_23  and  C_30
                            x       y       z     vdW  Elec       q    Type
                         _______ _______ _______ _____ _____    ______ ____

>  <TORSDO>
F 2

$$$$
=
 OpenBabel11112417173D

 37 44  0  0  1  0  0  0  0  0999 V2000
  189.8320  174.0690  142.8860 C   0  0  0  0  0  2  0  0  0  0  0  0
  189.5360  176.2080  146.1560 C   0  0  0  0  0  0  0  0  0  0  0  0
  193.2990  174.3240  145.7570 C   0  0  2  0  0  3  0  0  0  0  0  0
  188.5960  173.5690  142.1430 C   0  0  2  0  0  3  0  0  0  0  0  0
  193.5310  172.4220  142.3820 C   0  0  0  0  0  2  0  0  0  0  0  0
  192.0550  176.2960  146.3850 C   0  0  2  0  0  3  0  0  0  0  0  0
  192.9610  173.5470  144.7240 C   0  0  2  0  0  3  0  0  0  0  0  0
  190.2810  172.5420  140.4730 C   0  0  2  0  0  3  0  0  0  0  0  0
  192.1160  174.7850  146.5170 C   0  0  1  0  0  3  0  0  0  0  0  0
  194.0010  173.1400  143.6620 C   0  0  1  0  0  3  0  0  0  0  0  0
  193.3020  176.9030  147.0320 C   0  0  0  0  0  2  0  0  0  0  0  0
  188.9010  172.4550  141.1360 C   0  0  0  0  0  2  0  0  0  0  0  0
  191.0100  174.2110  145.7350 C   0  0  0  0  0  0  0  0  0  0  0  0
  189.4810  176.8590  144.7850 C   0  0  0  0  0  1  0  0  0  0  0  0
  195.8030  174.4940  145.4320 N   0  0  0  0  0  2  0  0  0  0  0  0
  194.5660  176.2780  146.4600 C   0  0  0  0  0  3  0  0  0  0  0  0
  189.6040  174.6690  145.9970 C   0  0  0  0  0  2  0  0  0  0  0  0
  191.4330  171.9030  141.2720 C   0  0  1  0  0  3  0  0  0  0  0  0
  192.2370  172.9090  141.9830 N   0  0  1  0  0  0  0  0  0  0  0  0
  194.5780  175.0510  145.9080 C   0  0  0  0  0  0  0  0  0  0  0  0
  191.4590  173.4990  144.7020 C   0  0  0  0  0  0  0  0  0  0  0  0
  190.7260  176.7900  146.9580 C   0  0  0  0  0  2  0  0  0  0  0  0
  195.2080  172.3720  144.2440 C   0  0  1  0  0  3  0  0  0  0  0  0
  188.2560  176.5510  146.8880 C   0  0  0  0  0  1  0  0  0  0  0  0
  191.3610  172.0090  142.7460 C   0  0  1  0  0  3  0  0  0  0  0  0
  190.5820  173.8270  140.0120 O   0  0  0  0  0  1  0  0  0  0  0  0
  190.5430  172.9390  143.6320 C   0  0  2  0  0  3  0  0  0  0  0  0
  195.9960  173.0510  145.3710 C   0  0  0  0  0  2  0  0  0  0  0  0
  194.5590  170.0380  143.6070 C   0  0  0  0  0  3  0  0  0  0  0  0
  194.8820  170.9540  144.6140 C   0  0  0  0  0  0  0  0  0  0  0  0
  194.8860  170.5370  145.9550 C   0  0  0  0  0  3  0  0  0  0  0  0
  194.5690  168.8000  147.6400 N   0  0  0  0  0  1  0  0  0  0  0  0
  194.2430  168.3060  145.2700 C   0  0  0  0  0  3  0  0  0  0  0  0
  194.5660  169.2160  146.2810 C   0  0  0  0  0  0  0  0  0  0  0  0
  194.2410  168.7170  143.9340 C   0  0  0  0  0  3  0  0  0  0  0  0
  187.0760  175.5250  142.4240 C   0  0  0  0  0  1  0  0  0  0  0  0
  187.9040  174.7230  141.4380 C   0  0  0  0  0  2  0  0  0  0  0  0
  1 27  1  0  0  0  0
  2 24  1  0  0  0  0
  2 22  1  0  0  0  0
  3 20  1  6  0  0  0
  3  9  1  0  0  0  0
  4 37  1  6  0  0  0
  4  1  1  0  0  0  0
  6  9  1  0  0  0  0
  6 22  1  1  0  0  0
  6 11  1  0  0  0  0
  7 21  1  6  0  0  0
  7  3  1  0  0  0  0
  8 26  1  1  0  0  0
  8 12  1  0  0  0  0
  8 18  1  0  0  0  0
  9 13  1  6  0  0  0
 10  5  1  6  0  0  0
 10 23  1  0  0  0  0
 10  7  1  0  0  0  0
 12  4  1  0  0  0  0
 13 17  1  0  0  0  0
 14  2  1  0  0  0  0
 15 20  1  0  0  0  0
 16 11  1  0  0  0  0
 17  2  1  0  0  0  0
 18 19  1  0  0  0  0
 18 25  1  0  0  0  0
 19  5  1  0  0  0  0
 19 25  1  0  0  0  0
 20 16  2  0  0  0  0
 21 13  2  0  0  0  0
 23 30  1  0  0  0  0
 23 28  1  0  0  0  0
 25 27  1  0  0  0  0
 27 21  1  0  0  0  0
 28 15  1  0  0  0  0
 29 35  2  0  0  0  0
 29 30  1  0  0  0  0
 30 31  2  0  0  0  0
 31 34  1  0  0  0  0
 33 34  2  0  0  0  0
 34 32  1  0  0  0  0
 35 33  1  0  0  0  0
 37 36  1  0  0  0  0
M  END
>  <MODEL>
6

>  <REMARK>
 VINA RESULT:      -8.2      3.026      8.240
  Name = 
  2 active torsions:
  status: ('A' for Active; 'I' for Inactive)
    1  A    between atoms: C_4  and  C_37
    2  A    between atoms: C_23  and  C_30
                            x       y       z     vdW  Elec       q    Type
                         _______ _______ _______ _____ _____    ______ ____

>  <TORSDO>
F 2

$$$$
=
 OpenBabel11112417173D

 37 44  0  0  1  0  0  0  0  0999 V2000
  189.6390  175.9850  145.1390 C   0  0  0  0  0  2  0  0  0  0  0  0
  188.0350  175.8240  141.5660 C   0  0  0  0  0  0  0  0  0  0  0  0
  191.5940  173.5650  141.8760 C   0  0  2  0  0  3  0  0  0  0  0  0
  189.3140  177.1160  146.1110 C   0  0  2  0  0  3  0  0  0  0  0  0
  192.9540  173.6350  145.5090 C   0  0  0  0  0  2  0  0  0  0  0  0
  189.3420  173.7270  141.0210 C   0  0  2  0  0  3  0  0  0  0  0  0
  191.9530  174.0270  143.0770 C   0  0  2  0  0  3  0  0  0  0  0  0
  190.9040  175.8850  147.7360 C   0  0  2  0  0  3  0  0  0  0  0  0
  190.6520  174.4750  141.1880 C   0  0  1  0  0  3  0  0  0  0  0  0
  192.7410  173.1440  144.0650 C   0  0  1  0  0  3  0  0  0  0  0  0
  189.5730  172.5120  140.1190 C   0  0  0  0  0  2  0  0  0  0  0  0
  190.3040  177.2180  147.2760 C   0  0  0  0  0  2  0  0  0  0  0  0
  190.4540  175.5260  142.1980 C   0  0  0  0  0  0  0  0  0  0  0  0
  187.3170  175.2510  142.7760 C   0  0  0  0  0  1  0  0  0  0  0  0
  192.7650  171.3210  141.8530 N   0  0  0  0  0  2  0  0  0  0  0  0
  190.7150  171.6570  140.6470 C   0  0  0  0  0  3  0  0  0  0  0  0
  189.3420  176.5200  142.0220 C   0  0  0  0  0  2  0  0  0  0  0  0
  192.1420  175.4170  146.9470 C   0  0  1  0  0  3  0  0  0  0  0  0
  191.8080  174.3820  145.9570 N   0  0  1  0  0  0  0  0  0  0  0  0
  191.6900  172.1580  141.4280 C   0  0  0  0  0  0  0  0  0  0  0  0
  191.1820  175.2990  143.2900 C   0  0  0  0  0  0  0  0  0  0  0  0
  188.2730  174.7030  140.5260 C   0  0  0  0  0  2  0  0  0  0  0  0
  194.0940  172.6520  143.5060 C   0  0  1  0  0  3  0  0  0  0  0  0
  187.1360  176.8700  140.9420 C   0  0  0  0  0  1  0  0  0  0  0  0
  192.1700  175.7310  145.5030 C   0  0  1  0  0  3  0  0  0  0  0  0
  189.9430  174.8820  147.8900 O   0  0  0  0  0  1  0  0  0  0  0  0
  191.0450  176.1250  144.5540 C   0  0  2  0  0  3  0  0  0  0  0  0
  194.0690  171.8830  142.1790 C   0  0  0  0  0  2  0  0  0  0  0  0
  196.1830  173.7000  144.4060 C   0  0  0  0  0  3  0  0  0  0  0  0
  195.1440  173.7240  143.4700 C   0  0  0  0  0  0  0  0  0  0  0  0
  195.0910  174.7570  142.5210 C   0  0  0  0  0  3  0  0  0  0  0  0
  196.0110  176.7990  141.5500 N   0  0  0  0  0  1  0  0  0  0  0  0
  197.1060  175.7250  143.4500 C   0  0  0  0  0  3  0  0  0  0  0  0
  196.0700  175.7540  142.5120 C   0  0  0  0  0  0  0  0  0  0  0  0
  197.1620  174.6970  144.3960 C   0  0  0  0  0  3  0  0  0  0  0  0
  186.8940  177.5200  145.6660 C   0  0  0  0  0  1  0  0  0  0  0  0
  187.9020  176.9560  146.6500 C   0  0  0  0  0  2  0  0  0  0  0  0
  1  4  1  0  0  0  0
  2 17  1  0  0  0  0
  2 14  1  0  0  0  0
  3 20  1  1  0  0  0
  3  7  1  0  0  0  0
  4 37  1  1  0  0  0
  4 12  1  0  0  0  0
  5 19  1  0  0  0  0
  6 11  1  6  0  0  0
  6  9  1  0  0  0  0
  7 21  1  1  0  0  0
  7 10  1  0  0  0  0
  8 26  1  6  0  0  0
  9  3  1  0  0  0  0
  9 13  1  1  0  0  0
 10  5  1  1  0  0  0
 11 16  1  0  0  0  0
 12  8  1  0  0  0  0
 13 21  2  0  0  0  0
 15 28  1  0  0  0  0
 16 20  2  0  0  0  0
 17 13  1  0  0  0  0
 18  8  1  0  0  0  0
 19 18  1  0  0  0  0
 20 15  1  0  0  0  0
 21 27  1  0  0  0  0
 22  6  1  0  0  0  0
 22  2  1  0  0  0  0
 23 10  1  0  0  0  0
 24  2  1  0  0  0  0
 25 19  1  0  0  0  0
 25 18  1  0  0  0  0
 27  1  1  0  0  0  0
 27 25  1  0  0  0  0
 28 23  1  0  0  0  0
 30 23  1  0  0  0  0
 30 29  2  0  0  0  0
 31 30  1  0  0  0  0
 32 34  1  0  0  0  0
 33 35  2  0  0  0  0
 34 31  2  0  0  0  0
 34 33  1  0  0  0  0
 35 29  1  0  0  0  0
 36 37  1  0  0  0  0
M  END
>  <MODEL>
7

>  <REMARK>
 VINA RESULT:      -8.0      2.491      6.668
  Name = 
  2 active torsions:
  status: ('A' for Active; 'I' for Inactive)
    1  A    between atoms: C_4  and  C_37
    2  A    between atoms: C_23  and  C_30
                            x       y       z     vdW  Elec       q    Type
                         _______ _______ _______ _____ _____    ______ ____

>  <TORSDO>
F 2

$$$$
=
 OpenBabel11112417173D

 37 44  0  0  1  0  0  0  0  0999 V2000
  191.6070  174.7020  142.7090 C   0  0  0  0  0  2  0  0  0  0  0  0
  189.8940  172.5380  139.9270 C   0  0  0  0  0  0  0  0  0  0  0  0
  187.6200  175.9350  141.0040 C   0  0  2  0  0  3  0  0  0  0  0  0
  192.6730  174.1190  143.6330 C   0  0  2  0  0  3  0  0  0  0  0  0
  189.5260  178.0970  143.6030 C   0  0  0  0  0  2  0  0  0  0  0  0
  188.4260  174.4840  139.2500 C   0  0  2  0  0  3  0  0  0  0  0  0
  188.3540  176.2650  142.0700 C   0  0  2  0  0  3  0  0  0  0  0  0
  192.7670  176.4870  144.6660 C   0  0  2  0  0  3  0  0  0  0  0  0
  187.7930  174.5140  140.6290 C   0  0  1  0  0  3  0  0  0  0  0  0
  188.5110  177.7370  142.5010 C   0  0  1  0  0  3  0  0  0  0  0  0
  187.4640  175.1270  138.2470 C   0  0  0  0  0  2  0  0  0  0  0  0
  192.9390  174.9780  144.8740 C   0  0  0  0  0  2  0  0  0  0  0  0
  188.7980  174.0630  141.6040 C   0  0  0  0  0  0  0  0  0  0  0  0
  191.2150  173.2430  139.6720 C   0  0  0  0  0  1  0  0  0  0  0  0
  186.6210  178.1780  140.3920 N   0  0  0  0  0  2  0  0  0  0  0  0
  187.0470  176.5150  138.7120 C   0  0  0  0  0  3  0  0  0  0  0  0
  189.4780  172.7390  141.4060 C   0  0  0  0  0  2  0  0  0  0  0  0
  191.3260  177.0100  144.8200 C   0  0  1  0  0  3  0  0  0  0  0  0
  190.6770  177.2370  143.5190 N   0  0  1  0  0  0  0  0  0  0  0  0
  187.0710  176.8790  140.0070 C   0  0  0  0  0  0  0  0  0  0  0  0
  189.1410  175.0410  142.4410 C   0  0  0  0  0  0  0  0  0  0  0  0
  188.8330  173.0470  138.9220 C   0  0  0  0  0  2  0  0  0  0  0  0
  187.1690  178.4320  142.8210 C   0  0  1  0  0  3  0  0  0  0  0  0
  190.1020  171.0580  139.6910 C   0  0  0  0  0  1  0  0  0  0  0  0
  190.2400  176.1160  144.3640 C   0  0  1  0  0  3  0  0  0  0  0  0
  193.3950  176.9500  143.5050 O   0  0  0  0  0  1  0  0  0  0  0  0
  190.2770  174.9080  143.4360 C   0  0  2  0  0  3  0  0  0  0  0  0
  186.0940  178.4230  141.7270 C   0  0  0  0  0  2  0  0  0  0  0  0
  186.1380  176.6880  144.2940 C   0  0  0  0  0  3  0  0  0  0  0  0
  186.5820  178.0050  144.1360 C   0  0  0  0  0  0  0  0  0  0  0  0
  186.4590  178.9100  145.2020 C   0  0  0  0  0  3  0  0  0  0  0  0
  185.7720  179.4180  147.4880 N   0  0  0  0  0  1  0  0  0  0  0  0
  185.4540  177.1800  146.5640 C   0  0  0  0  0  3  0  0  0  0  0  0
  185.8960  178.4970  146.4120 C   0  0  0  0  0  0  0  0  0  0  0  0
  185.5760  176.2760  145.5050 C   0  0  0  0  0  3  0  0  0  0  0  0
  193.8130  172.7780  141.8670 C   0  0  0  0  0  1  0  0  0  0  0  0
  193.9700  173.9040  142.8700 C   0  0  0  0  0  2  0  0  0  0  0  0
  1 27  1  0  0  0  0
  1  4  1  0  0  0  0
  2 17  1  0  0  0  0
  3 20  1  6  0  0  0
  3  7  1  0  0  0  0
  4 37  1  6  0  0  0
  4 12  1  0  0  0  0
  6 11  1  6  0  0  0
  6  9  1  0  0  0  0
  7 21  1  6  0  0  0
  7 10  1  0  0  0  0
  8 26  1  6  0  0  0
  8 18  1  0  0  0  0
  8 12  1  0  0  0  0
  9  3  1  0  0  0  0
  9 13  1  1  0  0  0
 10 23  1  0  0  0  0
 10  5  1  1  0  0  0
 11 16  1  0  0  0  0
 13 21  2  0  0  0  0
 14  2  1  0  0  0  0
 15 28  1  0  0  0  0
 16 20  2  0  0  0  0
 17 13  1  0  0  0  0
 19  5  1  0  0  0  0
 19 25  1  0  0  0  0
 19 18  1  0  0  0  0
 20 15  1  0  0  0  0
 21 27  1  0  0  0  0
 22  6  1  0  0  0  0
 22  2  1  0  0  0  0
 23 30  1  0  0  0  0
 24  2  1  0  0  0  0
 25 18  1  0  0  0  0
 27 25  1  0  0  0  0
 28 23  1  0  0  0  0
 29 35  1  0  0  0  0
 30 29  2  0  0  0  0
 30 31  1  0  0  0  0
 31 34  2  0  0  0  0
 34 33  1  0  0  0  0
 34 32  1  0  0  0  0
 35 33  2  0  0  0  0
 36 37  1  0  0  0  0
M  END
>  <MODEL>
8

>  <REMARK>
 VINA RESULT:      -7.7      1.306      1.584
  Name = 
  2 active torsions:
  status: ('A' for Active; 'I' for Inactive)
    1  A    between atoms: C_4  and  C_37
    2  A    between atoms: C_23  and  C_30
                            x       y       z     vdW  Elec       q    Type
                         _______ _______ _______ _____ _____    ______ ____

>  <TORSDO>
F 2

$$$$
=
 OpenBabel11112417173D

 37 44  0  0  1  0  0  0  0  0999 V2000
  190.7210  173.4330  142.4100 C   0  0  0  0  0  2  0  0  0  0  0  0
  189.8570  175.6110  145.5520 C   0  0  0  0  0  0  0  0  0  0  0  0
  193.7980  174.0840  145.6400 C   0  0  2  0  0  3  0  0  0  0  0  0
  189.6290  172.8000  141.5520 C   0  0  2  0  0  3  0  0  0  0  0  0
  194.5880  172.1330  142.3800 C   0  0  0  0  0  2  0  0  0  0  0  0
  192.3140  175.9420  146.0570 C   0  0  2  0  0  3  0  0  0  0  0  0
  193.6530  173.2540  144.6030 C   0  0  2  0  0  3  0  0  0  0  0  0
  191.5810  171.8980  140.1160 C   0  0  2  0  0  3  0  0  0  0  0  0
  192.4980  174.4480  146.2470 C   0  0  1  0  0  3  0  0  0  0  0  0
  194.8400  172.9230  143.6780 C   0  0  1  0  0  3  0  0  0  0  0  0
  193.4180  176.6810  146.8180 C   0  0  0  0  0  2  0  0  0  0  0  0
  190.1480  171.6970  140.6230 C   0  0  0  0  0  2  0  0  0  0  0  0
  191.5460  173.7530  145.3660 C   0  0  0  0  0  0  0  0  0  0  0  0
  189.9000  176.2200  144.1610 C   0  0  0  0  0  1  0  0  0  0  0  0
  196.2960  174.4830  145.5920 N   0  0  0  0  0  2  0  0  0  0  0  0
  194.7910  176.1660  146.4130 C   0  0  0  0  0  3  0  0  0  0  0  0
  190.0840  174.0820  145.4540 C   0  0  0  0  0  2  0  0  0  0  0  0
  192.6870  171.3910  141.0600 C   0  0  1  0  0  3  0  0  0  0  0  0
  193.3090  172.4860  141.8220 N   0  0  1  0  0  0  0  0  0  0  0  0
  194.9790  174.9320  145.9080 C   0  0  0  0  0  0  0  0  0  0  0  0
  192.1740  173.0630  144.4150 C   0  0  0  0  0  0  0  0  0  0  0  0
  190.8890  176.3220  146.4610 C   0  0  0  0  0  2  0  0  0  0  0  0
  196.0380  172.2870  144.4170 C   0  0  1  0  0  3  0  0  0  0  0  0
  188.4760  175.8480  146.1230 C   0  0  0  0  0  1  0  0  0  0  0  0
  192.4380  171.5240  142.5120 C   0  0  1  0  0  3  0  0  0  0  0  0
  191.8130  173.1950  139.6480 O   0  0  0  0  0  1  0  0  0  0  0  0
  191.4420  172.3930  143.2690 C   0  0  2  0  0  3  0  0  0  0  0  0
  196.6270  173.0650  145.6020 C   0  0  0  0  0  2  0  0  0  0  0  0
  196.0770  169.8430  143.8680 C   0  0  0  0  0  3  0  0  0  0  0  0
  195.8040  170.8530  144.7970 C   0  0  0  0  0  0  0  0  0  0  0  0
  195.3050  170.5130  146.0640 C   0  0  0  0  0  3  0  0  0  0  0  0
  194.5720  168.8340  147.6780 N   0  0  0  0  0  1  0  0  0  0  0  0
  195.3540  168.1690  145.4620 C   0  0  0  0  0  3  0  0  0  0  0  0
  195.0800  169.1740  146.3940 C   0  0  0  0  0  0  0  0  0  0  0  0
  195.8530  168.5040  144.2000 C   0  0  0  0  0  3  0  0  0  0  0  0
  188.2980  173.2540  139.4920 C   0  0  0  0  0  1  0  0  0  0  0  0
  188.9180  173.8660  140.7340 C   0  0  0  0  0  2  0  0  0  0  0  0
  1 27  1  0  0  0  0
  2 24  1  0  0  0  0
  2 22  1  0  0  0  0
  3 20  1  6  0  0  0
  3  9  1  0  0  0  0
  4 37  1  6  0  0  0
  4  1  1  0  0  0  0
  6  9  1  0  0  0  0
  6 22  1  1  0  0  0
  6 11  1  0  0  0  0
  7 21  1  6  0  0  0
  7  3  1  0  0  0  0
  8 26  1  1  0  0  0
  8 12  1  0  0  0  0
  8 18  1  0  0  0  0
  9 13  1  6  0  0  0
 10  5  1  6  0  0  0
 10 23  1  0  0  0  0
 10  7  1  0  0  0  0
 12  4  1  0  0  0  0
 13 17  1  0  0  0  0
 14  2  1  0  0  0  0
 15 28  1  0  0  0  0
 15 20  1  0  0  0  0
 16 11  1  0  0  0  0
 17  2  1  0  0  0  0
 18 19  1  0  0  0  0
 18 25  1  0  0  0  0
 19  5  1  0  0  0  0
 19 25  1  0  0  0  0
 20 16  2  0  0  0  0
 21 13  2  0  0  0  0
 23 30  1  0  0  0  0
 23 28  1  0  0  0  0
 25 27  1  0  0  0  0
 27 21  1  0  0  0  0
 29 35  2  0  0  0  0
 29 30  1  0  0  0  0
 30 31  2  0  0  0  0
 31 34  1  0  0  0  0
 33 34  2  0  0  0  0
 34 32  1  0  0  0  0
 35 33  1  0  0  0  0
 36 37  1  0  0  0  0
M  END
>  <MODEL>
9

>  <REMARK>
 VINA RESULT:      -7.6      3.397      8.531
  Name = 
  2 active torsions:
  status: ('A' for Active; 'I' for Inactive)
    1  A    between atoms: C_4  and  C_37
    2  A    between atoms: C_23  and  C_30
                            x       y       z     vdW  Elec       q    Type
                         _______ _______ _______ _____ _____    ______ ____

>  <TORSDO>
F 2

$$$$
