=
 OpenBabel11112416563D

 31 35  0  0  1  0  0  0  0  0999 V2000
  186.5500  176.9440  141.1000 C   0  0  0  0  0  0  0  0  0  0  0  0
  187.7570  176.1590  144.5830 C   0  0  0  0  0  0  0  0  0  0  0  0
  186.8770  176.8370  145.4900 C   0  0  0  0  0  0  0  0  0  0  0  0
  184.9540  178.2730  145.9610 C   0  0  0  0  0  0  0  0  0  0  0  0
  187.6390  176.2030  143.1590 C   0  0  0  0  0  0  0  0  0  0  0  0
  187.4780  176.2370  140.3380 C   0  0  0  0  0  3  0  0  0  0  0  0
  185.7940  177.6240  145.0550 C   0  0  0  0  0  3  0  0  0  0  0  0
  189.7130  174.7030  144.2950 C   0  0  0  0  0  0  0  0  0  0  0  0
  185.5450  177.6680  140.4740 O   0  0  0  0  0  1  0  0  0  0  0  0
  188.1370  175.9650  147.3900 C   0  0  0  0  0  3  0  0  0  0  0  0
  183.8210  179.0960  145.4640 C   0  0  0  0  0  1  0  0  0  0  0  0
  189.5640  174.7750  142.9490 N   0  0  0  0  0  0  0  0  0  0  0  0
  188.8220  175.3890  145.1360 C   0  0  0  0  0  0  0  0  0  0  0  0
  190.7850  173.9320  144.8510 N   0  0  0  0  0  2  0  0  0  0  0  0
  186.6330  176.9260  142.4930 C   0  0  0  0  0  3  0  0  0  0  0  0
  185.1780  178.1500  147.3310 C   0  0  0  0  0  3  0  0  0  0  0  0
  188.5730  175.4890  142.3660 C   0  0  0  0  0  0  0  0  0  0  0  0
  188.4870  175.5110  140.9710 C   0  0  0  0  0  3  0  0  0  0  0  0
  188.9940  175.3050  146.5220 C   0  0  0  0  0  3  0  0  0  0  0  0
  187.0870  176.7260  146.8910 C   0  0  0  0  0  0  0  0  0  0  0  0
  186.2430  177.3780  147.7950 C   0  0  0  0  0  3  0  0  0  0  0  0
  191.2820  171.7200  143.9350 C   0  0  0  0  0  1  0  0  0  0  0  0
  191.7230  173.1720  144.0340 C   0  0  2  0  0  3  0  0  0  0  0  0
  195.6910  173.4550  145.6690 C   0  0  0  0  0  0  0  0  0  0  0  0
  193.7580  172.1210  145.0880 C   0  0  0  0  0  3  0  0  0  0  0  0
  193.1470  175.6280  144.1980 F   0  0  0  0  0  0  0  0  0  0  0  0
  196.9420  173.5480  146.1830 F   0  0  0  0  0  0  0  0  0  0  0  0
  195.0470  172.2170  145.6180 C   0  0  0  0  0  3  0  0  0  0  0  0
  193.7580  174.5080  144.6580 C   0  0  0  0  0  0  0  0  0  0  0  0
  193.1040  173.2660  144.6050 C   0  0  0  0  0  0  0  0  0  0  0  0
  195.0480  174.5980  145.1890 C   0  0  0  0  0  3  0  0  0  0  0  0
  1 15  1  0  0  0  0
  2 13  2  0  0  0  0
  2  3  1  0  0  0  0
  3 20  1  0  0  0  0
  4 16  2  0  0  0  0
  5  2  1  0  0  0  0
  6 18  1  0  0  0  0
  6  1  2  0  0  0  0
  7  3  2  0  0  0  0
  7  4  1  0  0  0  0
  8 14  1  0  0  0  0
  8 13  1  0  0  0  0
  9  1  1  0  0  0  0
 11  4  1  0  0  0  0
 12  8  2  0  0  0  0
 13 19  1  0  0  0  0
 15  5  2  0  0  0  0
 16 21  1  0  0  0  0
 17 12  1  0  0  0  0
 17  5  1  0  0  0  0
 18 17  2  0  0  0  0
 19 10  2  0  0  0  0
 20 10  1  0  0  0  0
 20 21  2  0  0  0  0
 23 22  1  1  0  0  0
 23 30  1  0  0  0  0
 23 14  1  0  0  0  0
 24 27  1  0  0  0  0
 25 28  2  0  0  0  0
 26 29  1  0  0  0  0
 28 24  1  0  0  0  0
 29 31  1  0  0  0  0
 30 29  2  0  0  0  0
 30 25  1  0  0  0  0
 31 24  2  0  0  0  0
M  END
>  <MODEL>
1

>  <REMARK>
 VINA RESULT:      -8.8      0.000      0.000
  Name = 
  2 active torsions:
  status: ('A' for Active; 'I' for Inactive)
    1  A    between atoms: C_5  and  N_16
    2  A    between atoms: C_5  and  C_30
                            x       y       z     vdW  Elec       q    Type
                         _______ _______ _______ _____ _____    ______ ____

>  <TORSDO>
F 2

$$$$
=
 OpenBabel11112416563D

 31 35  0  0  1  0  0  0  0  0999 V2000
  191.3740  170.9480  142.8320 C   0  0  0  0  0  0  0  0  0  0  0  0
  192.0560  174.2890  144.4390 C   0  0  0  0  0  0  0  0  0  0  0  0
  193.3880  174.2320  144.9660 C   0  0  0  0  0  0  0  0  0  0  0  0
  195.4990  173.0650  145.3720 C   0  0  0  0  0  0  0  0  0  0  0  0
  191.4140  173.2140  143.7490 C   0  0  0  0  0  0  0  0  0  0  0  0
  190.0720  171.1420  142.3740 C   0  0  0  0  0  3  0  0  0  0  0  0
  194.2050  173.0920  144.8500 C   0  0  0  0  0  3  0  0  0  0  0  0
  190.0090  175.6080  144.1190 C   0  0  0  0  0  0  0  0  0  0  0  0
  192.0150  169.7360  142.6150 O   0  0  0  0  0  1  0  0  0  0  0  0
  193.1780  176.5200  145.7890 C   0  0  0  0  0  3  0  0  0  0  0  0
  196.3310  171.8430  145.2300 C   0  0  0  0  0  1  0  0  0  0  0  0
  189.4400  174.5610  143.4720 N   0  0  0  0  0  0  0  0  0  0  0  0
  191.3180  175.4970  144.6150 C   0  0  0  0  0  0  0  0  0  0  0  0
  189.2680  176.8210  144.2990 N   0  0  0  0  0  2  0  0  0  0  0  0
  192.0340  171.9740  143.5110 C   0  0  0  0  0  3  0  0  0  0  0  0
  196.0090  174.1840  146.0270 C   0  0  0  0  0  3  0  0  0  0  0  0
  190.0900  173.3910  143.2740 C   0  0  0  0  0  0  0  0  0  0  0  0
  189.4320  172.3610  142.5950 C   0  0  0  0  0  3  0  0  0  0  0  0
  191.8880  176.5860  145.2840 C   0  0  0  0  0  3  0  0  0  0  0  0
  193.9290  175.3610  145.6380 C   0  0  0  0  0  0  0  0  0  0  0  0
  195.2250  175.3300  146.1600 C   0  0  0  0  0  3  0  0  0  0  0  0
  187.9310  178.0070  142.6310 C   0  0  0  0  0  1  0  0  0  0  0  0
  187.9200  177.0120  143.7800 C   0  0  2  0  0  3  0  0  0  0  0  0
  185.2910  178.3310  146.9190 C   0  0  0  0  0  0  0  0  0  0  0  0
  186.2120  178.6220  144.7000 C   0  0  0  0  0  3  0  0  0  0  0  0
  187.6860  175.6480  146.2660 F   0  0  0  0  0  0  0  0  0  0  0  0
  184.4640  178.7440  147.9100 F   0  0  0  0  0  0  0  0  0  0  0  0
  185.3590  179.0480  145.7220 C   0  0  0  0  0  3  0  0  0  0  0  0
  186.9310  176.7590  146.0770 C   0  0  0  0  0  0  0  0  0  0  0  0
  187.0040  177.4760  144.8710 C   0  0  0  0  0  0  0  0  0  0  0  0
  186.0760  177.1890  147.0960 C   0  0  0  0  0  3  0  0  0  0  0  0
  1 15  1  0  0  0  0
  2 13  2  0  0  0  0
  2  3  1  0  0  0  0
  3 20  1  0  0  0  0
  4 16  2  0  0  0  0
  5  2  1  0  0  0  0
  6 18  1  0  0  0  0
  6  1  2  0  0  0  0
  7  3  2  0  0  0  0
  7  4  1  0  0  0  0
  8 14  1  0  0  0  0
  8 13  1  0  0  0  0
  9  1  1  0  0  0  0
 11  4  1  0  0  0  0
 12  8  2  0  0  0  0
 13 19  1  0  0  0  0
 15  5  2  0  0  0  0
 16 21  1  0  0  0  0
 17 12  1  0  0  0  0
 17  5  1  0  0  0  0
 18 17  2  0  0  0  0
 19 10  2  0  0  0  0
 20 10  1  0  0  0  0
 20 21  2  0  0  0  0
 23 22  1  6  0  0  0
 23 14  1  0  0  0  0
 23 30  1  0  0  0  0
 24 31  1  0  0  0  0
 24 27  1  0  0  0  0
 25 30  2  0  0  0  0
 25 28  1  0  0  0  0
 28 24  2  0  0  0  0
 29 26  1  0  0  0  0
 29 31  2  0  0  0  0
 30 29  1  0  0  0  0
M  END
>  <MODEL>
2

>  <REMARK>
 VINA RESULT:      -8.8      3.109      8.080
  Name = 
  2 active torsions:
  status: ('A' for Active; 'I' for Inactive)
    1  A    between atoms: C_5  and  N_16
    2  A    between atoms: C_5  and  C_30
                            x       y       z     vdW  Elec       q    Type
                         _______ _______ _______ _____ _____    ______ ____

>  <TORSDO>
F 2

$$$$
=
 OpenBabel11112416563D

 31 35  0  0  1  0  0  0  0  0999 V2000
  185.4670  177.8500  140.8550 C   0  0  0  0  0  0  0  0  0  0  0  0
  187.4980  176.4690  143.7140 C   0  0  0  0  0  0  0  0  0  0  0  0
  186.8390  176.8700  144.9220 C   0  0  0  0  0  0  0  0  0  0  0  0
  185.0390  178.0120  146.1210 C   0  0  0  0  0  0  0  0  0  0  0  0
  187.0410  176.7950  142.3990 C   0  0  0  0  0  0  0  0  0  0  0  0
  186.2080  177.3950  139.7660 C   0  0  0  0  0  3  0  0  0  0  0  0
  185.6590  177.6360  144.9290 C   0  0  0  0  0  3  0  0  0  0  0  0
  189.3750  175.2730  142.6760 C   0  0  0  0  0  0  0  0  0  0  0  0
  184.3170  178.6010  140.6480 O   0  0  0  0  0  1  0  0  0  0  0  0
  188.5460  175.7350  146.2480 C   0  0  0  0  0  3  0  0  0  0  0  0
  183.7940  178.8210  146.0880 C   0  0  0  0  0  1  0  0  0  0  0  0
  188.9050  175.6080  141.4490 N   0  0  0  0  0  0  0  0  0  0  0  0
  188.6900  175.6940  143.8270 C   0  0  0  0  0  0  0  0  0  0  0  0
  190.5740  174.4960  142.7910 N   0  0  0  0  0  2  0  0  0  0  0  0
  185.8810  177.5530  142.1540 C   0  0  0  0  0  3  0  0  0  0  0  0
  185.5890  177.6290  147.3440 C   0  0  0  0  0  3  0  0  0  0  0  0
  187.7800  176.3400  141.2780 C   0  0  0  0  0  0  0  0  0  0  0  0
  187.3630  176.6420  139.9780 C   0  0  0  0  0  3  0  0  0  0  0  0
  189.1910  175.3410  145.0850 C   0  0  0  0  0  3  0  0  0  0  0  0
  187.3830  176.4910  146.1800 C   0  0  0  0  0  0  0  0  0  0  0  0
  186.7590  176.8700  147.3720 C   0  0  0  0  0  3  0  0  0  0  0  0
  191.4950  172.4950  141.7310 C   0  0  0  0  0  1  0  0  0  0  0  0
  191.3130  174.0020  141.6370 C   0  0  2  0  0  3  0  0  0  0  0  0
  195.1270  175.9690  141.3360 C   0  0  0  0  0  0  0  0  0  0  0  0
  193.2270  175.2780  142.6670 C   0  0  0  0  0  3  0  0  0  0  0  0
  192.7620  174.1820  139.1960 F   0  0  0  0  0  0  0  0  0  0  0  0
  196.3280  176.5870  141.2380 F   0  0  0  0  0  0  0  0  0  0  0  0
  194.4660  175.9160  142.5660 C   0  0  0  0  0  3  0  0  0  0  0  0
  193.3090  174.7440  140.3030 C   0  0  0  0  0  0  0  0  0  0  0  0
  192.6400  174.6890  141.5360 C   0  0  0  0  0  0  0  0  0  0  0  0
  194.5490  175.3830  140.2070 C   0  0  0  0  0  3  0  0  0  0  0  0
  1 15  1  0  0  0  0
  2 13  2  0  0  0  0
  2  3  1  0  0  0  0
  3  7  2  0  0  0  0
  3 20  1  0  0  0  0
  4 16  2  0  0  0  0
  5  2  1  0  0  0  0
  6 18  1  0  0  0  0
  6  1  2  0  0  0  0
  7  4  1  0  0  0  0
  8 14  1  0  0  0  0
  8 13  1  0  0  0  0
  9  1  1  0  0  0  0
 11  4  1  0  0  0  0
 12  8  2  0  0  0  0
 13 19  1  0  0  0  0
 15  5  2  0  0  0  0
 16 21  1  0  0  0  0
 17 12  1  0  0  0  0
 17  5  1  0  0  0  0
 18 17  2  0  0  0  0
 19 10  2  0  0  0  0
 20 10  1  0  0  0  0
 20 21  2  0  0  0  0
 23 22  1  1  0  0  0
 23 14  1  0  0  0  0
 24 28  1  0  0  0  0
 26 29  1  0  0  0  0
 27 24  1  0  0  0  0
 28 25  2  0  0  0  0
 29 30  2  0  0  0  0
 30 23  1  0  0  0  0
 30 25  1  0  0  0  0
 31 29  1  0  0  0  0
 31 24  2  0  0  0  0
M  END
>  <MODEL>
3

>  <REMARK>
 VINA RESULT:      -8.8      2.281      2.731
  Name = 
  2 active torsions:
  status: ('A' for Active; 'I' for Inactive)
    1  A    between atoms: C_5  and  N_16
    2  A    between atoms: C_5  and  C_30
                            x       y       z     vdW  Elec       q    Type
                         _______ _______ _______ _____ _____    ______ ____

>  <TORSDO>
F 2

$$$$
=
 OpenBabel11112416563D

 31 35  0  0  1  0  0  0  0  0999 V2000
  184.9620  178.0130  146.8480 C   0  0  0  0  0  0  0  0  0  0  0  0
  186.7400  177.6070  143.5500 C   0  0  0  0  0  0  0  0  0  0  0  0
  185.7610  177.8120  142.5230 C   0  0  0  0  0  0  0  0  0  0  0  0
  183.4830  178.3020  141.7810 C   0  0  0  0  0  0  0  0  0  0  0  0
  186.4660  177.6740  144.9510 C   0  0  0  0  0  0  0  0  0  0  0  0
  186.0110  177.7890  147.7370 C   0  0  0  0  0  3  0  0  0  0  0  0
  184.4140  178.1060  142.8020 C   0  0  0  0  0  3  0  0  0  0  0  0
  189.0770  177.1050  144.1140 C   0  0  0  0  0  0  0  0  0  0  0  0
  183.6900  178.2910  147.3290 O   0  0  0  0  0  1  0  0  0  0  0  0
  187.4570  177.4330  140.8080 C   0  0  0  0  0  3  0  0  0  0  0  0
  182.0680  178.6100  142.1160 C   0  0  0  0  0  1  0  0  0  0  0  0
  188.7700  177.1770  145.4330 N   0  0  0  0  0  0  0  0  0  0  0  0
  188.0770  177.3140  143.1500 C   0  0  0  0  0  0  0  0  0  0  0  0
  190.4200  176.8080  143.7110 N   0  0  0  0  0  2  0  0  0  0  0  0
  185.1900  177.9540  145.4720 C   0  0  0  0  0  3  0  0  0  0  0  0
  183.8790  178.2070  140.4480 C   0  0  0  0  0  3  0  0  0  0  0  0
  187.5200  177.4510  145.8730 C   0  0  0  0  0  0  0  0  0  0  0  0
  187.2870  177.5090  147.2500 C   0  0  0  0  0  3  0  0  0  0  0  0
  188.4120  177.2320  141.7940 C   0  0  0  0  0  3  0  0  0  0  0  0
  186.1430  177.7200  141.1570 C   0  0  0  0  0  0  0  0  0  0  0  0
  185.2070  177.9170  140.1370 C   0  0  0  0  0  3  0  0  0  0  0  0
  192.6670  177.5410  144.3350 C   0  0  0  0  0  1  0  0  0  0  0  0
  191.5080  176.6120  144.6600 C   0  0  2  0  0  3  0  0  0  0  0  0
  192.8060  172.5110  144.6370 C   0  0  0  0  0  0  0  0  0  0  0  0
  191.6150  174.3350  143.5840 C   0  0  0  0  0  3  0  0  0  0  0  0
  193.0730  175.4830  146.7490 F   0  0  0  0  0  0  0  0  0  0  0  0
  193.2170  171.2200  144.6330 F   0  0  0  0  0  0  0  0  0  0  0  0
  192.0380  173.0030  143.5790 C   0  0  0  0  0  3  0  0  0  0  0  0
  192.7300  174.6830  145.7090 C   0  0  0  0  0  0  0  0  0  0  0  0
  191.9570  175.1830  144.6490 C   0  0  0  0  0  0  0  0  0  0  0  0
  193.1520  173.3500  145.7000 C   0  0  0  0  0  3  0  0  0  0  0  0
  1  9  1  0  0  0  0
  1  6  1  0  0  0  0
  2  5  1  0  0  0  0
  3  7  1  0  0  0  0
  3  2  2  0  0  0  0
  4 11  1  0  0  0  0
  4  7  2  0  0  0  0
  5 15  1  0  0  0  0
  5 17  2  0  0  0  0
  8 12  2  0  0  0  0
 10 20  2  0  0  0  0
 10 19  1  0  0  0  0
 12 17  1  0  0  0  0
 13  2  1  0  0  0  0
 13  8  1  0  0  0  0
 14  8  1  0  0  0  0
 14 23  1  0  0  0  0
 15  1  2  0  0  0  0
 16  4  1  0  0  0  0
 17 18  1  0  0  0  0
 18  6  2  0  0  0  0
 19 13  2  0  0  0  0
 20  3  1  0  0  0  0
 21 16  2  0  0  0  0
 21 20  1  0  0  0  0
 23 22  1  6  0  0  0
 24 31  1  0  0  0  0
 25 30  2  0  0  0  0
 27 24  1  0  0  0  0
 28 25  1  0  0  0  0
 28 24  2  0  0  0  0
 29 26  1  0  0  0  0
 30 23  1  0  0  0  0
 30 29  1  0  0  0  0
 31 29  2  0  0  0  0
M  END
>  <MODEL>
4

>  <REMARK>
 VINA RESULT:      -8.7      2.433      4.621
  Name = 
  2 active torsions:
  status: ('A' for Active; 'I' for Inactive)
    1  A    between atoms: C_5  and  N_16
    2  A    between atoms: C_5  and  C_30
                            x       y       z     vdW  Elec       q    Type
                         _______ _______ _______ _____ _____    ______ ____

>  <TORSDO>
F 2

$$$$
=
 OpenBabel11112416563D

 31 35  0  0  1  0  0  0  0  0999 V2000
  184.6410  178.1370  146.3120 C   0  0  0  0  0  0  0  0  0  0  0  0
  187.1840  176.9720  143.7850 C   0  0  0  0  0  0  0  0  0  0  0  0
  186.6160  177.2010  142.4890 C   0  0  0  0  0  0  0  0  0  0  0  0
  184.8110  177.9760  141.0310 C   0  0  0  0  0  0  0  0  0  0  0  0
  186.5310  177.2800  145.0190 C   0  0  0  0  0  0  0  0  0  0  0  0
  185.3120  177.8580  147.5020 C   0  0  0  0  0  3  0  0  0  0  0  0
  185.3390  177.7630  142.3060 C   0  0  0  0  0  3  0  0  0  0  0  0
  189.0910  176.1500  145.0950 C   0  0  0  0  0  0  0  0  0  0  0  0
  183.3720  178.6990  146.3440 O   0  0  0  0  0  1  0  0  0  0  0  0
  188.6210  176.2960  141.4320 C   0  0  0  0  0  3  0  0  0  0  0  0
  183.4590  178.5710  140.8780 C   0  0  0  0  0  1  0  0  0  0  0  0
  188.4330  176.4570  146.2400 N   0  0  0  0  0  0  0  0  0  0  0  0
  188.4870  176.3960  143.8520 C   0  0  0  0  0  0  0  0  0  0  0  0
  190.4000  175.5690  145.1610 N   0  0  0  0  0  2  0  0  0  0  0  0
  185.2460  177.8490  145.0870 C   0  0  0  0  0  3  0  0  0  0  0  0
  185.5530  177.6290  139.9030 C   0  0  0  0  0  3  0  0  0  0  0  0
  187.1960  177.0050  146.2410 C   0  0  0  0  0  0  0  0  0  0  0  0
  186.5860  177.2930  147.4660 C   0  0  0  0  0  3  0  0  0  0  0  0
  189.1800  176.0690  142.6810 C   0  0  0  0  0  3  0  0  0  0  0  0
  187.3540  176.8550  141.3250 C   0  0  0  0  0  0  0  0  0  0  0  0
  186.8220  177.0700  140.0510 C   0  0  0  0  0  3  0  0  0  0  0  0
  190.9250  176.5000  147.3600 C   0  0  0  0  0  1  0  0  0  0  0  0
  191.0950  175.3190  146.4170 C   0  0  2  0  0  3  0  0  0  0  0  0
  195.2600  174.5340  145.6870 C   0  0  0  0  0  0  0  0  0  0  0  0
  193.5240  175.9750  146.5610 C   0  0  0  0  0  3  0  0  0  0  0  0
  192.0110  172.9530  145.1330 F   0  0  0  0  0  0  0  0  0  0  0  0
  196.5710  174.2830  145.4560 F   0  0  0  0  0  0  0  0  0  0  0  0
  194.8770  175.7170  146.3230 C   0  0  0  0  0  3  0  0  0  0  0  0
  192.9380  173.8620  145.5260 C   0  0  0  0  0  0  0  0  0  0  0  0
  192.5460  175.0500  146.1640 C   0  0  0  0  0  0  0  0  0  0  0  0
  194.2920  173.6080  145.2900 C   0  0  0  0  0  3  0  0  0  0  0  0
  1  9  1  0  0  0  0
  1  6  1  0  0  0  0
  2 13  1  0  0  0  0
  2  5  1  0  0  0  0
  3  2  2  0  0  0  0
  4  7  2  0  0  0  0
  5 15  1  0  0  0  0
  5 17  2  0  0  0  0
  7  3  1  0  0  0  0
  8 14  1  0  0  0  0
  8 12  2  0  0  0  0
 10 19  1  0  0  0  0
 11  4  1  0  0  0  0
 12 17  1  0  0  0  0
 13  8  1  0  0  0  0
 14 23  1  0  0  0  0
 15  1  2  0  0  0  0
 16 21  2  0  0  0  0
 16  4  1  0  0  0  0
 17 18  1  0  0  0  0
 18  6  2  0  0  0  0
 19 13  2  0  0  0  0
 20 10  2  0  0  0  0
 20  3  1  0  0  0  0
 21 20  1  0  0  0  0
 23 22  1  1  0  0  0
 24 28  1  0  0  0  0
 26 29  1  0  0  0  0
 27 24  1  0  0  0  0
 28 25  2  0  0  0  0
 29 30  2  0  0  0  0
 30 23  1  0  0  0  0
 30 25  1  0  0  0  0
 31 29  1  0  0  0  0
 31 24  2  0  0  0  0
M  END
>  <MODEL>
5

>  <REMARK>
 VINA RESULT:      -8.7      1.996      4.391
  Name = 
  2 active torsions:
  status: ('A' for Active; 'I' for Inactive)
    1  A    between atoms: C_5  and  N_16
    2  A    between atoms: C_5  and  C_30
                            x       y       z     vdW  Elec       q    Type
                         _______ _______ _______ _____ _____    ______ ____

>  <TORSDO>
F 2

$$$$
=
 OpenBabel11112416563D

 31 35  0  0  1  0  0  0  0  0999 V2000
  190.9090  176.7790  147.5390 C   0  0  0  0  0  0  0  0  0  0  0  0
  188.5470  176.2110  144.6580 C   0  0  0  0  0  0  0  0  0  0  0  0
  187.3600  176.9630  144.9400 C   0  0  0  0  0  0  0  0  0  0  0  0
  186.0400  178.4600  146.3530 C   0  0  0  0  0  0  0  0  0  0  0  0
  189.6930  176.1600  145.5120 C   0  0  0  0  0  0  0  0  0  0  0  0
  191.9970  176.0040  147.1400 C   0  0  0  0  0  3  0  0  0  0  0  0
  187.2080  177.7370  146.1050 C   0  0  0  0  0  3  0  0  0  0  0  0
  189.7300  174.7060  143.1180 C   0  0  0  0  0  0  0  0  0  0  0  0
  190.9560  177.4760  148.7390 O   0  0  0  0  0  1  0  0  0  0  0  0
  186.3590  176.1990  142.8490 C   0  0  0  0  0  3  0  0  0  0  0  0
  185.9160  179.2660  147.5950 C   0  0  0  0  0  1  0  0  0  0  0  0
  190.7930  174.6860  143.9600 N   0  0  0  0  0  0  0  0  0  0  0  0
  188.5920  175.4610  143.4450 C   0  0  0  0  0  0  0  0  0  0  0  0
  189.7720  173.9510  141.9010 N   0  0  0  0  0  2  0  0  0  0  0  0
  189.7730  176.8540  146.7330 C   0  0  0  0  0  3  0  0  0  0  0  0
  184.9910  178.4260  145.4370 C   0  0  0  0  0  3  0  0  0  0  0  0
  190.8100  175.3770  145.1230 C   0  0  0  0  0  0  0  0  0  0  0  0
  191.9460  175.3040  145.9350 C   0  0  0  0  0  3  0  0  0  0  0  0
  187.5030  175.4670  142.5660 C   0  0  0  0  0  3  0  0  0  0  0  0
  186.2770  176.9420  144.0190 C   0  0  0  0  0  0  0  0  0  0  0  0
  185.1100  177.6680  144.2720 C   0  0  0  0  0  3  0  0  0  0  0  0
  192.0370  174.0970  140.9920 C   0  0  0  0  0  1  0  0  0  0  0  0
  190.9350  173.1750  141.4890 C   0  0  2  0  0  3  0  0  0  0  0  0
  189.8450  170.3370  138.4460 C   0  0  0  0  0  0  0  0  0  0  0  0
  189.7470  172.5810  139.3460 C   0  0  0  0  0  3  0  0  0  0  0  0
  191.7790  170.4600  141.5450 F   0  0  0  0  0  0  0  0  0  0  0  0
  189.5040  169.4400  137.4890 F   0  0  0  0  0  0  0  0  0  0  0  0
  189.3960  171.6560  138.3580 C   0  0  0  0  0  3  0  0  0  0  0  0
  191.0010  170.8620  140.5090 C   0  0  0  0  0  0  0  0  0  0  0  0
  190.5520  172.1890  140.4270 C   0  0  0  0  0  0  0  0  0  0  0  0
  190.6470  169.9400  139.5190 C   0  0  0  0  0  3  0  0  0  0  0  0
  1  9  1  0  0  0  0
  2  3  1  0  0  0  0
  2  5  1  0  0  0  0
  3  7  1  0  0  0  0
  4 11  1  0  0  0  0
  5 15  1  0  0  0  0
  6  1  1  0  0  0  0
  7  4  2  0  0  0  0
  8 13  1  0  0  0  0
  8 12  2  0  0  0  0
 10 20  1  0  0  0  0
 12 17  1  0  0  0  0
 13  2  2  0  0  0  0
 14  8  1  0  0  0  0
 15  1  2  0  0  0  0
 16  4  1  0  0  0  0
 17  5  2  0  0  0  0
 17 18  1  0  0  0  0
 18  6  2  0  0  0  0
 19 10  2  0  0  0  0
 19 13  1  0  0  0  0
 20 21  1  0  0  0  0
 20  3  2  0  0  0  0
 21 16  2  0  0  0  0
 23 22  1  6  0  0  0
 23 14  1  0  0  0  0
 24 31  1  0  0  0  0
 25 30  2  0  0  0  0
 27 24  1  0  0  0  0
 28 24  2  0  0  0  0
 28 25  1  0  0  0  0
 29 26  1  0  0  0  0
 30 29  1  0  0  0  0
 30 23  1  0  0  0  0
 31 29  2  0  0  0  0
M  END
>  <MODEL>
6

>  <REMARK>
 VINA RESULT:      -8.5      3.640      5.632
  Name = 
  2 active torsions:
  status: ('A' for Active; 'I' for Inactive)
    1  A    between atoms: C_5  and  N_16
    2  A    between atoms: C_5  and  C_30
                            x       y       z     vdW  Elec       q    Type
                         _______ _______ _______ _____ _____    ______ ____

>  <TORSDO>
F 2

$$$$
=
 OpenBabel11112416563D

 31 35  0  0  1  0  0  0  0  0999 V2000
  188.5070  174.4550  139.8250 C   0  0  0  0  0  0  0  0  0  0  0  0
  188.1170  176.3740  143.0460 C   0  0  0  0  0  0  0  0  0  0  0  0
  186.9600  177.2070  142.8940 C   0  0  0  0  0  0  0  0  0  0  0  0
  185.0620  178.0490  141.6020 C   0  0  0  0  0  0  0  0  0  0  0  0
  188.6080  175.4850  142.0390 C   0  0  0  0  0  0  0  0  0  0  0  0
  189.6470  173.7040  140.1070 C   0  0  0  0  0  3  0  0  0  0  0  0
  186.1840  177.2280  141.7200 C   0  0  0  0  0  3  0  0  0  0  0  0
  189.9670  175.6400  144.4830 C   0  0  0  0  0  0  0  0  0  0  0  0
  187.8800  174.3310  138.5930 O   0  0  0  0  0  1  0  0  0  0  0  0
  187.2790  178.0860  145.1490 C   0  0  0  0  0  3  0  0  0  0  0  0
  184.2680  178.0450  140.3460 C   0  0  0  0  0  1  0  0  0  0  0  0
  190.3990  174.8120  143.4990 N   0  0  0  0  0  0  0  0  0  0  0  0
  188.8280  176.4340  144.2800 C   0  0  0  0  0  0  0  0  0  0  0  0
  190.6830  175.7030  145.7230 N   0  0  0  0  0  2  0  0  0  0  0  0
  187.9970  175.3350  140.7820 C   0  0  0  0  0  3  0  0  0  0  0  0
  184.6870  178.8740  142.6610 C   0  0  0  0  0  3  0  0  0  0  0  0
  189.7660  174.7110  142.3070 C   0  0  0  0  0  0  0  0  0  0  0  0
  190.2740  173.8320  141.3460 C   0  0  0  0  0  3  0  0  0  0  0  0
  188.4000  177.2850  145.3060 C   0  0  0  0  0  3  0  0  0  0  0  0
  186.5590  178.0560  143.9610 C   0  0  0  0  0  0  0  0  0  0  0  0
  185.4350  178.8780  143.8380 C   0  0  0  0  0  3  0  0  0  0  0  0
  192.0030  174.6770  147.5060 C   0  0  0  0  0  1  0  0  0  0  0  0
  191.8520  174.8820  146.0070 C   0  0  2  0  0  3  0  0  0  0  0  0
  195.3910  176.6870  144.3570 C   0  0  0  0  0  0  0  0  0  0  0  0
  193.5580  176.7360  145.9360 C   0  0  0  0  0  3  0  0  0  0  0  0
  193.3350  173.7010  143.8870 F   0  0  0  0  0  0  0  0  0  0  0  0
  196.5060  177.2520  143.8350 F   0  0  0  0  0  0  0  0  0  0  0  0
  194.7090  177.3200  145.3980 C   0  0  0  0  0  3  0  0  0  0  0  0
  193.7750  174.8820  144.3890 C   0  0  0  0  0  0  0  0  0  0  0  0
  193.0840  175.5140  145.4350 C   0  0  0  0  0  0  0  0  0  0  0  0
  194.9250  175.4690  143.8540 C   0  0  0  0  0  3  0  0  0  0  0  0
  1  6  2  0  0  0  0
  1 15  1  0  0  0  0
  2 13  1  0  0  0  0
  3  2  2  0  0  0  0
  3 20  1  0  0  0  0
  4  7  2  0  0  0  0
  4 16  1  0  0  0  0
  5 17  1  0  0  0  0
  5  2  1  0  0  0  0
  6 18  1  0  0  0  0
  7  3  1  0  0  0  0
  8 14  1  0  0  0  0
  9  1  1  0  0  0  0
 10 19  1  0  0  0  0
 11  4  1  0  0  0  0
 12  8  2  0  0  0  0
 13  8  1  0  0  0  0
 13 19  2  0  0  0  0
 14 23  1  0  0  0  0
 15  5  2  0  0  0  0
 16 21  2  0  0  0  0
 17 12  1  0  0  0  0
 18 17  2  0  0  0  0
 20 10  2  0  0  0  0
 21 20  1  0  0  0  0
 23 22  1  1  0  0  0
 24 28  1  0  0  0  0
 26 29  1  0  0  0  0
 27 24  1  0  0  0  0
 28 25  2  0  0  0  0
 29 30  2  0  0  0  0
 30 25  1  0  0  0  0
 30 23  1  0  0  0  0
 31 24  2  0  0  0  0
 31 29  1  0  0  0  0
M  END
>  <MODEL>
7

>  <REMARK>
 VINA RESULT:      -8.4      2.209      3.239
  Name = 
  2 active torsions:
  status: ('A' for Active; 'I' for Inactive)
    1  A    between atoms: C_5  and  N_16
    2  A    between atoms: C_5  and  C_30
                            x       y       z     vdW  Elec       q    Type
                         _______ _______ _______ _____ _____    ______ ____

>  <TORSDO>
F 2

$$$$
=
 OpenBabel11112416563D

 31 35  0  0  1  0  0  0  0  0999 V2000
  195.2860  176.1940  143.9090 C   0  0  0  0  0  0  0  0  0  0  0  0
  191.9280  175.0000  142.6830 C   0  0  0  0  0  0  0  0  0  0  0  0
  192.1530  174.3500  141.4250 C   0  0  0  0  0  0  0  0  0  0  0  0
  193.6190  173.5940  139.6200 C   0  0  0  0  0  0  0  0  0  0  0  0
  192.9550  175.5960  143.4790 C   0  0  0  0  0  0  0  0  0  0  0  0
  194.9230  176.7960  145.1130 C   0  0  0  0  0  3  0  0  0  0  0  0
  193.4300  174.2330  140.8450 C   0  0  0  0  0  3  0  0  0  0  0  0
  190.3130  175.6850  144.4010 C   0  0  0  0  0  0  0  0  0  0  0  0
  196.6150  176.1840  143.5100 O   0  0  0  0  0  1  0  0  0  0  0  0
  189.7670  173.8710  141.2280 C   0  0  0  0  0  3  0  0  0  0  0  0
  194.9830  173.4910  139.0390 C   0  0  0  0  0  1  0  0  0  0  0  0
  191.3190  176.2380  145.1220 N   0  0  0  0  0  0  0  0  0  0  0  0
  190.5910  175.0600  143.1750 C   0  0  0  0  0  0  0  0  0  0  0  0
  188.9680  175.7470  144.8940 N   0  0  0  0  0  2  0  0  0  0  0  0
  194.3110  175.6030  143.1040 C   0  0  0  0  0  3  0  0  0  0  0  0
  192.5290  173.0530  138.9390 C   0  0  0  0  0  3  0  0  0  0  0  0
  192.6070  176.2120  144.7080 C   0  0  0  0  0  0  0  0  0  0  0  0
  193.5870  176.8050  145.5110 C   0  0  0  0  0  3  0  0  0  0  0  0
  189.5380  174.4980  142.4430 C   0  0  0  0  0  3  0  0  0  0  0  0
  191.0560  173.7920  140.7140 C   0  0  0  0  0  0  0  0  0  0  0  0
  191.2500  173.1530  139.4860 C   0  0  0  0  0  3  0  0  0  0  0  0
  188.5710  175.2920  147.2620 C   0  0  0  0  0  1  0  0  0  0  0  0
  188.6190  176.3510  146.1730 C   0  0  2  0  0  3  0  0  0  0  0  0
  184.8490  178.4020  145.8680 C   0  0  0  0  0  0  0  0  0  0  0  0
  186.2720  176.7910  146.9810 C   0  0  0  0  0  3  0  0  0  0  0  0
  188.0810  178.2910  144.1630 F   0  0  0  0  0  0  0  0  0  0  0  0
  183.6640  179.0500  145.7690 F   0  0  0  0  0  0  0  0  0  0  0  0
  185.0480  177.4590  146.8790 C   0  0  0  0  0  3  0  0  0  0  0  0
  187.0990  178.0120  145.0550 C   0  0  0  0  0  0  0  0  0  0  0  0
  187.3040  177.0620  146.0690 C   0  0  0  0  0  0  0  0  0  0  0  0
  185.8730  178.6780  144.9580 C   0  0  0  0  0  3  0  0  0  0  0  0
  1  6  1  0  0  0  0
  2 13  1  0  0  0  0
  2  5  1  0  0  0  0
  3  2  2  0  0  0  0
  4  7  2  0  0  0  0
  5 17  2  0  0  0  0
  6 18  2  0  0  0  0
  7  3  1  0  0  0  0
  8 14  1  0  0  0  0
  8 12  2  0  0  0  0
  9  1  1  0  0  0  0
 10 19  1  0  0  0  0
 11  4  1  0  0  0  0
 13  8  1  0  0  0  0
 14 23  1  0  0  0  0
 15  5  1  0  0  0  0
 15  1  2  0  0  0  0
 16 21  2  0  0  0  0
 16  4  1  0  0  0  0
 17 12  1  0  0  0  0
 17 18  1  0  0  0  0
 19 13  2  0  0  0  0
 20 10  2  0  0  0  0
 20  3  1  0  0  0  0
 21 20  1  0  0  0  0
 23 22  1  1  0  0  0
 24 28  1  0  0  0  0
 26 29  1  0  0  0  0
 27 24  1  0  0  0  0
 28 25  2  0  0  0  0
 29 30  2  0  0  0  0
 30 23  1  0  0  0  0
 30 25  1  0  0  0  0
 31 29  1  0  0  0  0
 31 24  2  0  0  0  0
M  END
>  <MODEL>
8

>  <REMARK>
 VINA RESULT:      -8.3      3.858      8.463
  Name = 
  2 active torsions:
  status: ('A' for Active; 'I' for Inactive)
    1  A    between atoms: C_5  and  N_16
    2  A    between atoms: C_5  and  C_30
                            x       y       z     vdW  Elec       q    Type
                         _______ _______ _______ _____ _____    ______ ____

>  <TORSDO>
F 2

$$$$
=
 OpenBabel11112416563D

 31 35  0  0  1  0  0  0  0  0999 V2000
  191.4280  176.7680  147.4790 C   0  0  0  0  0  0  0  0  0  0  0  0
  188.9750  176.1790  144.6790 C   0  0  0  0  0  0  0  0  0  0  0  0
  187.7310  176.7620  145.0880 C   0  0  0  0  0  0  0  0  0  0  0  0
  186.3400  177.9690  146.6970 C   0  0  0  0  0  0  0  0  0  0  0  0
  190.1680  176.1880  145.4660 C   0  0  0  0  0  0  0  0  0  0  0  0
  192.5690  176.1600  146.9560 C   0  0  0  0  0  3  0  0  0  0  0  0
  187.5640  177.4100  146.3260 C   0  0  0  0  0  3  0  0  0  0  0  0
  190.2220  174.9590  142.9500 C   0  0  0  0  0  0  0  0  0  0  0  0
  191.4690  177.3600  148.7330 O   0  0  0  0  0  1  0  0  0  0  0  0
  186.6970  176.0680  142.9880 C   0  0  0  0  0  3  0  0  0  0  0  0
  186.2030  178.6460  148.0130 C   0  0  0  0  0  1  0  0  0  0  0  0
  191.3300  174.9900  143.7330 N   0  0  0  0  0  0  0  0  0  0  0  0
  189.0290  175.5460  143.4020 C   0  0  0  0  0  0  0  0  0  0  0  0
  190.2750  174.3210  141.6680 N   0  0  0  0  0  2  0  0  0  0  0  0
  190.2440  176.7790  146.7400 C   0  0  0  0  0  3  0  0  0  0  0  0
  185.2480  177.8920  145.8350 C   0  0  0  0  0  3  0  0  0  0  0  0
  191.3400  175.5760  144.9520 C   0  0  0  0  0  0  0  0  0  0  0  0
  192.5240  175.5650  145.6960 C   0  0  0  0  0  3  0  0  0  0  0  0
  187.8960  175.5010  142.5820 C   0  0  0  0  0  3  0  0  0  0  0  0
  186.6040  176.6940  144.2250 C   0  0  0  0  0  0  0  0  0  0  0  0
  185.3800  177.2550  144.6010 C   0  0  0  0  0  3  0  0  0  0  0  0
  191.4820  173.7900  139.6100 C   0  0  0  0  0  1  0  0  0  0  0  0
  191.4890  173.7230  141.1290 C   0  0  2  0  0  3  0  0  0  0  0  0
  191.8800  169.6530  142.4680 C   0  0  0  0  0  0  0  0  0  0  0  0
  190.6860  171.3340  141.2010 C   0  0  0  0  0  3  0  0  0  0  0  0
  193.6050  172.8570  142.8200 F   0  0  0  0  0  0  0  0  0  0  0  0
  192.0070  168.3730  142.8910 F   0  0  0  0  0  0  0  0  0  0  0  0
  190.8160  170.0130  141.6380 C   0  0  0  0  0  3  0  0  0  0  0  0
  192.6890  171.9370  142.4270 C   0  0  0  0  0  0  0  0  0  0  0  0
  191.6210  172.3050  141.5940 C   0  0  0  0  0  0  0  0  0  0  0  0
  192.8150  170.6140  142.8610 C   0  0  0  0  0  3  0  0  0  0  0  0
  1  9  1  0  0  0  0
  2  3  1  0  0  0  0
  2  5  1  0  0  0  0
  3  7  1  0  0  0  0
  4 11  1  0  0  0  0
  5 15  1  0  0  0  0
  6  1  1  0  0  0  0
  7  4  2  0  0  0  0
  8 13  1  0  0  0  0
  8 12  2  0  0  0  0
 10 20  1  0  0  0  0
 12 17  1  0  0  0  0
 13  2  2  0  0  0  0
 14  8  1  0  0  0  0
 15  1  2  0  0  0  0
 16  4  1  0  0  0  0
 17  5  2  0  0  0  0
 17 18  1  0  0  0  0
 18  6  2  0  0  0  0
 19 10  2  0  0  0  0
 19 13  1  0  0  0  0
 20 21  1  0  0  0  0
 20  3  2  0  0  0  0
 21 16  2  0  0  0  0
 23 22  1  6  0  0  0
 23 30  1  0  0  0  0
 23 14  1  0  0  0  0
 24 31  1  0  0  0  0
 24 27  1  0  0  0  0
 25 30  2  0  0  0  0
 25 28  1  0  0  0  0
 28 24  2  0  0  0  0
 29 26  1  0  0  0  0
 29 31  2  0  0  0  0
 30 29  1  0  0  0  0
M  END
>  <MODEL>
9

>  <REMARK>
 VINA RESULT:      -8.2      3.005      4.724
  Name = 
  2 active torsions:
  status: ('A' for Active; 'I' for Inactive)
    1  A    between atoms: C_5  and  N_16
    2  A    between atoms: C_5  and  C_30
                            x       y       z     vdW  Elec       q    Type
                         _______ _______ _______ _____ _____    ______ ____

>  <TORSDO>
F 2

$$$$
