=
 OpenBabel11112417403D

 28 32  0  0  1  0  0  0  0  0999 V2000
  191.7050  174.1300  143.1320 C   0  0  0  0  0  0  0  0  0  0  0  0
  188.8350  178.2050  141.9590 C   0  0  0  0  0  1  0  0  0  0  0  0
  192.0100  176.2290  147.4810 O   0  0  0  0  0  0  0  0  0  0  0  0
  190.1120  172.3290  144.5690 C   0  0  0  0  0  3  0  0  0  0  0  0
  189.7590  176.7430  146.7770 C   0  0  1  0  0  3  0  0  0  0  0  0
  192.6030  175.0970  142.4210 C   0  0  0  0  0  2  0  0  0  0  0  0
  187.6790  176.2560  141.0320 C   0  0  0  0  0  1  0  0  0  0  0  0
  187.8860  177.0520  142.3050 C   0  0  0  0  0  0  0  0  0  0  0  0
  186.7730  178.1600  143.9650 C   0  0  1  0  0  3  0  0  0  0  0  0
  188.4450  176.0700  143.3730 C   0  0  2  0  0  3  0  0  0  0  0  0
  193.5480  174.7010  145.4490 O   0  0  0  0  0  1  0  0  0  0  0  0
  190.4430  177.0130  144.4100 C   0  0  1  0  0  3  0  0  0  0  0  0
  186.8580  177.1640  144.9510 O   0  0  0  0  0  0  0  0  0  0  0  0
  186.6290  177.5660  142.6970 O   0  0  0  0  0  0  0  0  0  0  0  0
  193.8550  175.7600  144.5910 C   0  0  2  0  0  3  0  0  0  0  0  0
  190.4560  174.5510  143.6320 C   0  0  0  0  0  0  0  0  0  0  0  0
  191.1960  176.4770  146.5510 C   0  0  0  0  0  0  0  0  0  0  0  0
  185.5760  179.0450  144.2450 C   0  0  0  0  0  1  0  0  0  0  0  0
  192.9490  176.9750  144.8140 C   0  0  0  0  0  2  0  0  0  0  0  0
  189.6770  173.6410  144.3680 C   0  0  0  0  0  3  0  0  0  0  0  0
  192.1270  172.8070  143.3220 C   0  0  0  0  0  3  0  0  0  0  0  0
  191.3320  171.9100  144.0380 C   0  0  0  0  0  3  0  0  0  0  0  0
  193.9440  175.2940  143.1340 C   0  0  0  0  0  2  0  0  0  0  0  0
  189.2820  177.2360  145.3900 C   0  0  1  0  0  3  0  0  0  0  0  0
  191.5930  176.5950  145.1950 N   0  0  0  0  0  0  0  0  0  0  0  0
  188.0860  176.4820  144.8060 C   0  0  2  0  0  3  0  0  0  0  0  0
  189.0760  175.4730  147.2710 C   0  0  0  0  0  1  0  0  0  0  0  0
  189.9720  175.9670  143.3790 C   0  0  1  0  0  3  0  0  0  0  0  0
  1 21  2  0  0  0  0
  1 16  1  0  0  0  0
  2  8  1  0  0  0  0
  5 27  1  6  0  0  0
  6  1  1  0  0  0  0
  6 23  1  0  0  0  0
  7  8  1  0  0  0  0
  8 14  1  0  0  0  0
  9 18  1  1  0  0  0
  9 13  1  0  0  0  0
 10  8  1  6  0  0  0
 10 28  1  0  0  0  0
 10 26  1  0  0  0  0
 12 25  1  1  0  0  0
 12 24  1  0  0  0  0
 14  9  1  0  0  0  0
 15 19  1  0  0  0  0
 15 11  1  1  0  0  0
 16 20  2  0  0  0  0
 17  5  1  0  0  0  0
 17  3  2  0  0  0  0
 19 25  1  0  0  0  0
 20  4  1  0  0  0  0
 21 22  1  0  0  0  0
 22  4  2  0  0  0  0
 23 15  1  0  0  0  0
 24  5  1  0  0  0  0
 25 17  1  0  0  0  0
 26 13  1  0  0  0  0
 26 24  1  0  0  0  0
 28 16  1  0  0  0  0
 28 12  1  0  0  0  0
M  END
>  <MODEL>
1

>  <REMARK>
 VINA RESULT:      -8.5      0.000      0.000
  Name = 
  0 active torsions:
  status: ('A' for Active; 'I' for Inactive)
                            x       y       z     vdW  Elec       q    Type
                         _______ _______ _______ _____ _____    ______ ____

>  <TORSDO>
F 0

$$$$
=
 OpenBabel11112417403D

 28 32  0  0  1  0  0  0  0  0999 V2000
  190.3770  175.7660  144.9790 C   0  0  0  0  0  0  0  0  0  0  0  0
  185.4720  176.5010  146.2470 C   0  0  0  0  0  1  0  0  0  0  0  0
  188.6040  175.1170  140.5240 O   0  0  0  0  0  0  0  0  0  0  0  0
  191.3360  178.1240  143.8090 C   0  0  0  0  0  3  0  0  0  0  0  0
  187.1860  176.8440  141.4360 C   0  0  1  0  0  3  0  0  0  0  0  0
  189.8810  174.4690  145.5430 C   0  0  0  0  0  2  0  0  0  0  0  0
  186.7490  178.2510  147.3860 C   0  0  0  0  0  1  0  0  0  0  0  0
  186.1150  177.8800  146.0610 C   0  0  0  0  0  0  0  0  0  0  0  0
  184.6390  178.6100  144.4750 C   0  0  1  0  0  3  0  0  0  0  0  0
  187.2410  177.9140  144.9890 C   0  0  2  0  0  3  0  0  0  0  0  0
  190.6390  174.1370  142.4550 O   0  0  0  0  0  1  0  0  0  0  0  0
  187.2310  175.8390  143.7020 C   0  0  1  0  0  3  0  0  0  0  0  0
  185.5780  179.0660  143.5350 O   0  0  0  0  0  0  0  0  0  0  0  0
  185.1170  178.8410  145.7790 O   0  0  0  0  0  0  0  0  0  0  0  0
  189.8090  173.3160  143.2230 C   0  0  2  0  0  3  0  0  0  0  0  0
  189.4680  176.7710  144.5940 C   0  0  0  0  0  0  0  0  0  0  0  0
  188.0350  175.6360  141.5220 C   0  0  0  0  0  0  0  0  0  0  0  0
  183.3310  179.3470  144.2790 C   0  0  0  0  0  1  0  0  0  0  0  0
  188.3260  173.6470  143.0370 C   0  0  0  0  0  2  0  0  0  0  0  0
  189.9630  177.9400  143.9890 C   0  0  0  0  0  3  0  0  0  0  0  0
  191.7550  175.9640  144.8110 C   0  0  0  0  0  3  0  0  0  0  0  0
  192.2310  177.1390  144.2280 C   0  0  0  0  0  3  0  0  0  0  0  0
  190.2700  173.2620  144.6840 C   0  0  0  0  0  2  0  0  0  0  0  0
  186.5380  176.9050  142.8400 C   0  0  1  0  0  3  0  0  0  0  0  0
  188.0960  175.0720  142.8210 N   0  0  0  0  0  0  0  0  0  0  0  0
  186.7150  178.2300  143.5840 C   0  0  2  0  0  3  0  0  0  0  0  0
  188.0480  178.0500  141.0800 C   0  0  0  0  0  1  0  0  0  0  0  0
  187.9800  176.5830  144.8260 C   0  0  1  0  0  3  0  0  0  0  0  0
  1  6  1  0  0  0  0
  3 17  2  0  0  0  0
  4 20  2  0  0  0  0
  4 22  1  0  0  0  0
  5 27  1  1  0  0  0
  5 17  1  0  0  0  0
  5 24  1  0  0  0  0
  8  2  1  0  0  0  0
  8  7  1  0  0  0  0
  9 18  1  1  0  0  0
  9 14  1  0  0  0  0
 10  8  1  1  0  0  0
 12 25  1  6  0  0  0
 12 28  1  0  0  0  0
 13 26  1  0  0  0  0
 13  9  1  0  0  0  0
 14  8  1  0  0  0  0
 15 11  1  6  0  0  0
 15 23  1  0  0  0  0
 16 28  1  0  0  0  0
 16  1  2  0  0  0  0
 17 25  1  0  0  0  0
 19 15  1  0  0  0  0
 20 16  1  0  0  0  0
 21  1  1  0  0  0  0
 22 21  2  0  0  0  0
 23  6  1  0  0  0  0
 24 26  1  0  0  0  0
 24 12  1  0  0  0  0
 25 19  1  0  0  0  0
 26 10  1  0  0  0  0
 28 10  1  0  0  0  0
M  END
>  <MODEL>
2

>  <REMARK>
 VINA RESULT:      -8.4      2.239      4.616
  Name = 
  0 active torsions:
  status: ('A' for Active; 'I' for Inactive)
                            x       y       z     vdW  Elec       q    Type
                         _______ _______ _______ _____ _____    ______ ____

>  <TORSDO>
F 0

$$$$
=
 OpenBabel11112417403D

 28 32  0  0  1  0  0  0  0  0999 V2000
  189.0930  177.1450  144.6370 C   0  0  0  0  0  0  0  0  0  0  0  0
  193.9850  176.0410  143.6050 C   0  0  0  0  0  1  0  0  0  0  0  0
  188.2030  172.9270  142.4410 O   0  0  0  0  0  0  0  0  0  0  0  0
  188.3230  175.6660  146.8880 C   0  0  0  0  0  3  0  0  0  0  0  0
  190.2740  172.5140  143.6100 C   0  0  1  0  0  3  0  0  0  0  0  0
  189.4510  177.9030  143.3950 C   0  0  0  0  0  2  0  0  0  0  0  0
  193.9340  176.8600  145.9110 C   0  0  0  0  0  1  0  0  0  0  0  0
  193.7120  175.6280  145.0560 C   0  0  0  0  0  0  0  0  0  0  0  0
  194.3430  173.4470  144.7990 C   0  0  1  0  0  3  0  0  0  0  0  0
  192.2550  175.1480  145.3150 C   0  0  2  0  0  3  0  0  0  0  0  0
  187.2130  175.7080  142.7680 O   0  0  0  0  0  1  0  0  0  0  0  0
  191.0970  174.8150  143.1920 C   0  0  1  0  0  3  0  0  0  0  0  0
  193.2160  172.8500  145.3880 O   0  0  0  0  0  0  0  0  0  0  0  0
  194.6480  174.6500  145.4620 O   0  0  0  0  0  0  0  0  0  0  0  0
  188.0710  176.3360  141.8610 C   0  0  2  0  0  3  0  0  0  0  0  0
  189.9160  176.0980  145.0970 C   0  0  0  0  0  0  0  0  0  0  0  0
  189.3010  173.3590  142.8840 C   0  0  0  0  0  0  0  0  0  0  0  0
  195.5230  172.5030  144.8990 C   0  0  0  0  0  1  0  0  0  0  0  0
  189.2980  175.4810  141.5290 C   0  0  0  0  0  2  0  0  0  0  0  0
  189.5070  175.3520  146.2150 C   0  0  0  0  0  3  0  0  0  0  0  0
  187.9160  177.4660  145.3270 C   0  0  0  0  0  3  0  0  0  0  0  0
  187.5340  176.7290  146.4490 C   0  0  0  0  0  3  0  0  0  0  0  0
  188.3950  177.7700  142.2940 C   0  0  0  0  0  2  0  0  0  0  0  0
  191.5220  173.4260  143.6940 C   0  0  1  0  0  3  0  0  0  0  0  0
  189.7470  174.6870  142.6690 N   0  0  0  0  0  0  0  0  0  0  0  0
  192.0800  173.6400  145.1010 C   0  0  2  0  0  3  0  0  0  0  0  0
  189.6910  172.1070  144.9590 C   0  0  0  0  0  1  0  0  0  0  0  0
  191.2200  175.7840  144.3840 C   0  0  1  0  0  3  0  0  0  0  0  0
  1 16  2  0  0  0  0
  1 21  1  0  0  0  0
  2  8  1  0  0  0  0
  3 17  2  0  0  0  0
  5 24  1  0  0  0  0
  5 27  1  1  0  0  0
  6  1  1  0  0  0  0
  8 14  1  0  0  0  0
  8  7  1  0  0  0  0
  9 18  1  1  0  0  0
  9 13  1  0  0  0  0
  9 14  1  0  0  0  0
 10  8  1  6  0  0  0
 12 25  1  1  0  0  0
 12 24  1  0  0  0  0
 12 28  1  0  0  0  0
 15 23  1  0  0  0  0
 15 11  1  1  0  0  0
 16 20  1  0  0  0  0
 17  5  1  0  0  0  0
 19 15  1  0  0  0  0
 19 25  1  0  0  0  0
 20  4  2  0  0  0  0
 21 22  2  0  0  0  0
 22  4  1  0  0  0  0
 23  6  1  0  0  0  0
 24 26  1  0  0  0  0
 25 17  1  0  0  0  0
 26 10  1  0  0  0  0
 26 13  1  0  0  0  0
 28 16  1  0  0  0  0
 28 10  1  0  0  0  0
M  END
>  <MODEL>
3

>  <REMARK>
 VINA RESULT:      -8.2      1.879      6.043
  Name = 
  0 active torsions:
  status: ('A' for Active; 'I' for Inactive)
                            x       y       z     vdW  Elec       q    Type
                         _______ _______ _______ _____ _____    ______ ____

>  <TORSDO>
F 0

$$$$
=
 OpenBabel11112417403D

 28 32  0  0  1  0  0  0  0  0999 V2000
  192.2140  173.7520  143.3930 C   0  0  0  0  0  0  0  0  0  0  0  0
  188.9550  174.5400  147.2620 C   0  0  0  0  0  1  0  0  0  0  0  0
  188.3800  174.7650  140.6210 O   0  0  0  0  0  0  0  0  0  0  0  0
  193.0490  176.2490  142.4370 C   0  0  0  0  0  3  0  0  0  0  0  0
  188.1010  176.2420  142.5100 C   0  0  1  0  0  3  0  0  0  0  0  0
  191.7420  172.4020  143.8380 C   0  0  0  0  0  2  0  0  0  0  0  0
  191.0320  175.6870  147.8650 C   0  0  0  0  0  1  0  0  0  0  0  0
  189.7560  175.8310  147.0590 C   0  0  0  0  0  0  0  0  0  0  0  0
  187.9400  177.1830  146.7440 C   0  0  1  0  0  3  0  0  0  0  0  0
  190.1730  176.0930  145.5840 C   0  0  2  0  0  3  0  0  0  0  0  0
  190.7660  173.0100  140.8550 O   0  0  0  0  0  1  0  0  0  0  0  0
  188.9920  174.5590  144.0980 C   0  0  1  0  0  3  0  0  0  0  0  0
  188.3760  177.8190  145.5700 O   0  0  0  0  0  0  0  0  0  0  0  0
  189.0390  176.9290  147.5860 O   0  0  0  0  0  0  0  0  0  0  0  0
  190.2410  172.0750  141.7510 C   0  0  2  0  0  3  0  0  0  0  0  0
  191.5310  174.9170  143.7980 C   0  0  0  0  0  0  0  0  0  0  0  0
  188.5340  174.9900  141.8520 C   0  0  0  0  0  0  0  0  0  0  0  0
  186.9490  178.0750  147.4620 C   0  0  0  0  0  1  0  0  0  0  0  0
  189.0030  172.5990  142.4850 C   0  0  0  0  0  2  0  0  0  0  0  0
  191.9490  176.1600  143.2940 C   0  0  0  0  0  3  0  0  0  0  0  0
  193.3280  173.8510  142.5470 C   0  0  0  0  0  3  0  0  0  0  0  0
  193.7430  175.0960  142.0710 C   0  0  0  0  0  3  0  0  0  0  0  0
  191.3280  171.5040  142.6680 C   0  0  0  0  0  2  0  0  0  0  0  0
  188.2690  175.9120  144.0130 C   0  0  1  0  0  3  0  0  0  0  0  0
  189.0770  174.0330  142.7460 N   0  0  0  0  0  0  0  0  0  0  0  0
  189.1270  176.8990  144.8050 C   0  0  2  0  0  3  0  0  0  0  0  0
  188.9560  177.4020  142.0130 C   0  0  0  0  0  1  0  0  0  0  0  0
  190.3600  174.8180  144.7590 C   0  0  1  0  0  3  0  0  0  0  0  0
  1 16  1  0  0  0  0
  1  6  1  0  0  0  0
  3 17  2  0  0  0  0
  4 20  1  0  0  0  0
  5 27  1  6  0  0  0
  5 24  1  0  0  0  0
  8  2  1  0  0  0  0
  8 14  1  0  0  0  0
  8  7  1  0  0  0  0
  9 18  1  1  0  0  0
  9 14  1  0  0  0  0
 10  8  1  1  0  0  0
 12 25  1  6  0  0  0
 12 28  1  0  0  0  0
 13  9  1  0  0  0  0
 15 11  1  1  0  0  0
 15 19  1  0  0  0  0
 15 23  1  0  0  0  0
 16 28  1  0  0  0  0
 17  5  1  0  0  0  0
 17 25  1  0  0  0  0
 19 25  1  0  0  0  0
 20 16  2  0  0  0  0
 21  1  2  0  0  0  0
 22  4  2  0  0  0  0
 22 21  1  0  0  0  0
 23  6  1  0  0  0  0
 24 12  1  0  0  0  0
 24 26  1  0  0  0  0
 26 13  1  0  0  0  0
 26 10  1  0  0  0  0
 28 10  1  0  0  0  0
M  END
>  <MODEL>
4

>  <REMARK>
 VINA RESULT:      -7.2      2.143      4.545
  Name = 
  0 active torsions:
  status: ('A' for Active; 'I' for Inactive)
                            x       y       z     vdW  Elec       q    Type
                         _______ _______ _______ _____ _____    ______ ____

>  <TORSDO>
F 0

$$$$
=
 OpenBabel11112417403D

 28 32  0  0  1  0  0  0  0  0999 V2000
  192.0060  173.7840  142.6020 C   0  0  0  0  0  0  0  0  0  0  0  0
  188.7530  177.7360  142.6970 C   0  0  0  0  0  1  0  0  0  0  0  0
  193.8660  175.8700  146.5510 O   0  0  0  0  0  0  0  0  0  0  0  0
  191.1510  171.9070  144.4980 C   0  0  0  0  0  3  0  0  0  0  0  0
  191.4990  176.2900  146.7690 C   0  0  1  0  0  3  0  0  0  0  0  0
  192.5280  174.7920  141.6240 C   0  0  0  0  0  2  0  0  0  0  0  0
  187.4060  175.7440  142.2380 C   0  0  0  0  0  1  0  0  0  0  0  0
  188.0520  176.5410  143.3540 C   0  0  0  0  0  0  0  0  0  0  0  0
  187.6140  177.5920  145.3360 C   0  0  1  0  0  3  0  0  0  0  0  0
  189.0130  175.5790  144.1080 C   0  0  2  0  0  3  0  0  0  0  0  0
  194.5700  174.4220  144.0550 O   0  0  0  0  0  1  0  0  0  0  0  0
  191.2180  176.6020  144.3250 C   0  0  1  0  0  3  0  0  0  0  0  0
  188.1070  176.5950  146.1940 O   0  0  0  0  0  0  0  0  0  0  0  0
  187.0210  176.9980  144.2060 O   0  0  0  0  0  0  0  0  0  0  0  0
  194.4860  175.4970  143.1670 C   0  0  2  0  0  3  0  0  0  0  0  0
  191.0270  174.1470  143.5490 C   0  0  0  0  0  0  0  0  0  0  0  0
  192.7510  176.0880  146.0070 C   0  0  0  0  0  0  0  0  0  0  0  0
  186.5820  178.4220  146.0700 C   0  0  0  0  0  1  0  0  0  0  0  0
  193.6890  176.6710  143.7440 C   0  0  0  0  0  2  0  0  0  0  0  0
  190.6230  173.2000  144.5060 C   0  0  0  0  0  3  0  0  0  0  0  0
  192.5180  172.4790  142.5890 C   0  0  0  0  0  3  0  0  0  0  0  0
  192.0920  171.5450  143.5340 C   0  0  0  0  0  3  0  0  0  0  0  0
  194.0310  175.0430  141.7760 C   0  0  0  0  0  2  0  0  0  0  0  0
  190.5100  176.7690  145.6780 C   0  0  1  0  0  3  0  0  0  0  0  0
  192.5950  176.2300  144.6050 N   0  0  0  0  0  0  0  0  0  0  0  0
  189.2120  175.9680  145.5770 C   0  0  2  0  0  3  0  0  0  0  0  0
  191.1050  174.9890  147.4580 C   0  0  0  0  0  1  0  0  0  0  0  0
  190.4300  175.5430  143.5300 C   0  0  1  0  0  3  0  0  0  0  0  0
  1 16  1  0  0  0  0
  2  8  1  0  0  0  0
  4 20  1  0  0  0  0
  5 27  1  6  0  0  0
  6 23  1  0  0  0  0
  6  1  1  0  0  0  0
  7  8  1  0  0  0  0
  8 14  1  0  0  0  0
  9 18  1  1  0  0  0
  9 13  1  0  0  0  0
 10  8  1  6  0  0  0
 10 26  1  0  0  0  0
 12 25  1  1  0  0  0
 12 24  1  0  0  0  0
 14  9  1  0  0  0  0
 15 19  1  0  0  0  0
 15 11  1  1  0  0  0
 16 20  2  0  0  0  0
 17  3  2  0  0  0  0
 17  5  1  0  0  0  0
 19 25  1  0  0  0  0
 21  1  2  0  0  0  0
 21 22  1  0  0  0  0
 22  4  2  0  0  0  0
 23 15  1  0  0  0  0
 24  5  1  0  0  0  0
 25 17  1  0  0  0  0
 26 24  1  0  0  0  0
 26 13  1  0  0  0  0
 28 16  1  0  0  0  0
 28 10  1  0  0  0  0
 28 12  1  0  0  0  0
M  END
>  <MODEL>
5

>  <REMARK>
 VINA RESULT:      -7.0      1.227      1.408
  Name = 
  0 active torsions:
  status: ('A' for Active; 'I' for Inactive)
                            x       y       z     vdW  Elec       q    Type
                         _______ _______ _______ _____ _____    ______ ____

>  <TORSDO>
F 0

$$$$
=
 OpenBabel11112417403D

 28 32  0  0  1  0  0  0  0  0999 V2000
  190.0460  175.8140  144.2460 C   0  0  0  0  0  0  0  0  0  0  0  0
  193.2400  171.8320  144.6380 C   0  0  0  0  0  1  0  0  0  0  0  0
  192.5400  177.5410  148.0140 O   0  0  0  0  0  0  0  0  0  0  0  0
  191.3960  177.8860  142.9290 C   0  0  0  0  0  3  0  0  0  0  0  0
  194.2260  176.4090  146.7100 C   0  0  1  0  0  3  0  0  0  0  0  0
  189.3140  174.7510  145.0070 C   0  0  0  0  0  2  0  0  0  0  0  0
  193.0830  172.3590  142.2530 C   0  0  0  0  0  1  0  0  0  0  0  0
  193.7800  172.7540  143.5390 C   0  0  0  0  0  0  0  0  0  0  0  0
  195.8410  173.0540  144.4810 C   0  0  1  0  0  3  0  0  0  0  0  0
  193.4840  174.2630  143.7750 C   0  0  2  0  0  3  0  0  0  0  0  0
  189.8160  177.3140  146.8510 O   0  0  0  0  0  1  0  0  0  0  0  0
  192.6590  174.6060  146.0470 C   0  0  1  0  0  3  0  0  0  0  0  0
  195.8880  174.4540  144.3980 O   0  0  0  0  0  0  0  0  0  0  0  0
  195.1650  172.5310  143.3620 O   0  0  0  0  0  0  0  0  0  0  0  0
  189.5300  176.0090  147.2620 C   0  0  2  0  0  3  0  0  0  0  0  0
  191.4420  175.7340  144.0690 C   0  0  0  0  0  0  0  0  0  0  0  0
  192.8570  176.6040  147.2340 C   0  0  0  0  0  0  0  0  0  0  0  0
  197.2520  172.5030  144.5190 C   0  0  0  0  0  1  0  0  0  0  0  0
  190.7890  175.2280  147.6470 C   0  0  0  0  0  2  0  0  0  0  0  0
  192.1070  176.7910  143.4240 C   0  0  0  0  0  3  0  0  0  0  0  0
  189.3360  176.9070  143.7310 C   0  0  0  0  0  3  0  0  0  0  0  0
  190.0090  177.9390  143.0750 C   0  0  0  0  0  3  0  0  0  0  0  0
  188.6190  175.2920  146.2600 C   0  0  0  0  0  2  0  0  0  0  0  0
  194.1390  175.0160  146.0400 C   0  0  1  0  0  3  0  0  0  0  0  0
  191.9430  175.5970  146.8330 N   0  0  0  0  0  0  0  0  0  0  0  0
  194.5840  174.9660  144.5780 C   0  0  2  0  0  3  0  0  0  0  0  0
  194.5770  177.5500  145.7620 C   0  0  0  0  0  1  0  0  0  0  0  0
  192.2050  174.5230  144.5760 C   0  0  1  0  0  3  0  0  0  0  0  0
  1  6  1  0  0  0  0
  4 22  2  0  0  0  0
  4 20  1  0  0  0  0
  5 27  1  6  0  0  0
  5 17  1  0  0  0  0
  6 23  1  0  0  0  0
  7  8  1  0  0  0  0
  8  2  1  0  0  0  0
  9 18  1  6  0  0  0
 10  8  1  1  0  0  0
 10 28  1  0  0  0  0
 10 26  1  0  0  0  0
 12 25  1  1  0  0  0
 13  9  1  0  0  0  0
 13 26  1  0  0  0  0
 14  8  1  0  0  0  0
 14  9  1  0  0  0  0
 15 11  1  6  0  0  0
 15 19  1  0  0  0  0
 16  1  1  0  0  0  0
 16 28  1  0  0  0  0
 17  3  2  0  0  0  0
 20 16  2  0  0  0  0
 21  1  2  0  0  0  0
 22 21  1  0  0  0  0
 23 15  1  0  0  0  0
 24 12  1  0  0  0  0
 24  5  1  0  0  0  0
 25 17  1  0  0  0  0
 25 19  1  0  0  0  0
 26 24  1  0  0  0  0
 28 12  1  0  0  0  0
M  END
>  <MODEL>
6

>  <REMARK>
 VINA RESULT:      -7.0      2.230      6.208
  Name = 
  0 active torsions:
  status: ('A' for Active; 'I' for Inactive)
                            x       y       z     vdW  Elec       q    Type
                         _______ _______ _______ _____ _____    ______ ____

>  <TORSDO>
F 0

$$$$
=
 OpenBabel11112417403D

 28 32  0  0  1  0  0  0  0  0999 V2000
  187.3620  176.5820  143.4050 C   0  0  0  0  0  0  0  0  0  0  0  0
  189.3160  171.9380  144.3140 C   0  0  0  0  0  1  0  0  0  0  0  0
  189.9600  177.8790  147.2750 O   0  0  0  0  0  0  0  0  0  0  0  0
  189.3140  178.1070  142.0960 C   0  0  0  0  0  3  0  0  0  0  0  0
  191.3610  176.2370  146.1950 C   0  0  1  0  0  3  0  0  0  0  0  0
  186.3170  175.8170  144.1590 C   0  0  0  0  0  2  0  0  0  0  0  0
  189.4770  172.2940  141.8970 C   0  0  0  0  0  1  0  0  0  0  0  0
  190.1630  172.5920  143.2150 C   0  0  0  0  0  0  0  0  0  0  0  0
  192.1560  172.4060  144.3190 C   0  0  1  0  0  3  0  0  0  0  0  0
  190.2720  174.1380  143.3360 C   0  0  2  0  0  3  0  0  0  0  0  0
  187.3650  178.2930  145.8880 O   0  0  0  0  0  1  0  0  0  0  0  0
  189.4140  174.8700  145.5010 C   0  0  1  0  0  3  0  0  0  0  0  0
  192.5880  173.7320  144.1590 O   0  0  0  0  0  0  0  0  0  0  0  0
  191.4430  171.9940  143.1770 O   0  0  0  0  0  0  0  0  0  0  0  0
  186.7070  177.1490  146.3470 C   0  0  2  0  0  3  0  0  0  0  0  0
  188.6920  176.1190  143.3590 C   0  0  0  0  0  0  0  0  0  0  0  0
  190.0630  176.8320  146.5820 C   0  0  0  0  0  0  0  0  0  0  0  0
  193.3570  171.5040  144.5150 C   0  0  0  0  0  1  0  0  0  0  0  0
  187.6760  176.0940  146.8880 C   0  0  0  0  0  2  0  0  0  0  0  0
  189.6640  176.9050  142.7160 C   0  0  0  0  0  3  0  0  0  0  0  0
  187.0140  177.7800  142.7660 C   0  0  0  0  0  3  0  0  0  0  0  0
  187.9870  178.5390  142.1140 C   0  0  0  0  0  3  0  0  0  0  0  0
  185.7080  176.6220  145.3110 C   0  0  0  0  0  2  0  0  0  0  0  0
  190.9460  174.8690  145.6030 C   0  0  1  0  0  3  0  0  0  0  0  0
  188.9410  176.0760  146.1600 N   0  0  0  0  0  0  0  0  0  0  0  0
  191.4630  174.5850  144.1920 C   0  0  2  0  0  3  0  0  0  0  0  0
  192.0760  177.1640  145.2170 C   0  0  0  0  0  1  0  0  0  0  0  0
  189.0600  174.7940  144.0020 C   0  0  1  0  0  3  0  0  0  0  0  0
  1  6  1  0  0  0  0
  4 22  2  0  0  0  0
  4 20  1  0  0  0  0
  5 27  1  6  0  0  0
  5 17  1  0  0  0  0
  6 23  1  0  0  0  0
  7  8  1  0  0  0  0
  8  2  1  0  0  0  0
  9 18  1  6  0  0  0
 10  8  1  1  0  0  0
 10 28  1  0  0  0  0
 10 26  1  0  0  0  0
 12 24  1  0  0  0  0
 12 25  1  6  0  0  0
 13 26  1  0  0  0  0
 13  9  1  0  0  0  0
 14  8  1  0  0  0  0
 14  9  1  0  0  0  0
 15 11  1  6  0  0  0
 15 19  1  0  0  0  0
 16  1  1  0  0  0  0
 16 28  1  0  0  0  0
 17  3  2  0  0  0  0
 20 16  2  0  0  0  0
 21  1  2  0  0  0  0
 22 21  1  0  0  0  0
 23 15  1  0  0  0  0
 24  5  1  0  0  0  0
 25 17  1  0  0  0  0
 25 19  1  0  0  0  0
 26 24  1  0  0  0  0
 28 12  1  0  0  0  0
M  END
>  <MODEL>
7

>  <REMARK>
 VINA RESULT:      -6.9      1.764      5.663
  Name = 
  0 active torsions:
  status: ('A' for Active; 'I' for Inactive)
                            x       y       z     vdW  Elec       q    Type
                         _______ _______ _______ _____ _____    ______ ____

>  <TORSDO>
F 0

$$$$
=
 OpenBabel11112417403D

 28 32  0  0  1  0  0  0  0  0999 V2000
  194.9830  176.0300  144.1410 C   0  0  0  0  0  0  0  0  0  0  0  0
  189.9950  176.0680  145.2960 C   0  0  0  0  0  1  0  0  0  0  0  0
  194.0980  171.4990  142.6940 O   0  0  0  0  0  0  0  0  0  0  0  0
  195.2390  176.4250  141.3800 C   0  0  0  0  0  3  0  0  0  0  0  0
  192.0830  172.6780  142.0780 C   0  0  1  0  0  3  0  0  0  0  0  0
  194.8810  175.7550  145.6110 C   0  0  0  0  0  2  0  0  0  0  0  0
  190.4630  178.2000  144.1890 C   0  0  0  0  0  1  0  0  0  0  0  0
  190.1600  176.7380  143.9280 C   0  0  0  0  0  0  0  0  0  0  0  0
  188.7360  175.3410  142.8120 C   0  0  1  0  0  3  0  0  0  0  0  0
  191.3350  176.1710  143.0810 C   0  0  2  0  0  3  0  0  0  0  0  0
  196.0850  173.2250  144.0720 O   0  0  0  0  0  1  0  0  0  0  0  0
  192.1770  174.1160  144.0950 C   0  0  1  0  0  3  0  0  0  0  0  0
  189.5780  175.0310  141.7330 O   0  0  0  0  0  0  0  0  0  0  0  0
  188.9430  176.6750  143.2120 O   0  0  0  0  0  0  0  0  0  0  0  0
  195.4870  173.2510  145.3350 C   0  0  2  0  0  3  0  0  0  0  0  0
  193.8460  175.9260  143.3140 C   0  0  0  0  0  0  0  0  0  0  0  0
  193.2690  172.4200  142.9250 C   0  0  0  0  0  0  0  0  0  0  0  0
  187.2920  175.1580  142.3940 C   0  0  0  0  0  1  0  0  0  0  0  0
  194.0130  172.8360  145.2930 C   0  0  0  0  0  2  0  0  0  0  0  0
  193.9950  176.1070  141.9280 C   0  0  0  0  0  3  0  0  0  0  0  0
  196.2250  176.3670  143.5860 C   0  0  0  0  0  3  0  0  0  0  0  0
  196.3520  176.5640  142.2100 C   0  0  0  0  0  3  0  0  0  0  0  0
  195.7530  174.5770  146.0550 C   0  0  0  0  0  2  0  0  0  0  0  0
  191.2820  173.7020  142.9180 C   0  0  1  0  0  3  0  0  0  0  0  0
  193.3510  173.2600  144.0630 N   0  0  0  0  0  0  0  0  0  0  0  0
  190.9140  174.9960  142.1920 C   0  0  2  0  0  3  0  0  0  0  0  0
  192.5320  173.1870  140.7130 C   0  0  0  0  0  1  0  0  0  0  0  0
  192.4890  175.6160  143.9200 C   0  0  1  0  0  3  0  0  0  0  0  0
  1  6  1  0  0  0  0
  3 17  2  0  0  0  0
  4 20  2  0  0  0  0
  4 22  1  0  0  0  0
  5 27  1  6  0  0  0
  5 24  1  0  0  0  0
  5 17  1  0  0  0  0
  6 23  1  0  0  0  0
  8  7  1  0  0  0  0
  8  2  1  0  0  0  0
  9 18  1  6  0  0  0
  9 14  1  0  0  0  0
 10 28  1  0  0  0  0
 10  8  1  1  0  0  0
 12 25  1  6  0  0  0
 13 26  1  0  0  0  0
 13  9  1  0  0  0  0
 14  8  1  0  0  0  0
 15 11  1  6  0  0  0
 15 23  1  0  0  0  0
 16 28  1  0  0  0  0
 16  1  2  0  0  0  0
 17 25  1  0  0  0  0
 19 15  1  0  0  0  0
 20 16  1  0  0  0  0
 21  1  1  0  0  0  0
 22 21  2  0  0  0  0
 24 12  1  0  0  0  0
 25 19  1  0  0  0  0
 26 24  1  0  0  0  0
 26 10  1  0  0  0  0
 28 12  1  0  0  0  0
M  END
>  <MODEL>
8

>  <REMARK>
 VINA RESULT:      -6.9      2.401      4.775
  Name = 
  0 active torsions:
  status: ('A' for Active; 'I' for Inactive)
                            x       y       z     vdW  Elec       q    Type
                         _______ _______ _______ _____ _____    ______ ____

>  <TORSDO>
F 0

$$$$
=
 OpenBabel11112417403D

 28 32  0  0  1  0  0  0  0  0999 V2000
  191.9550  174.8470  146.0410 C   0  0  0  0  0  0  0  0  0  0  0  0
  193.5670  171.6500  142.3810 C   0  0  0  0  0  1  0  0  0  0  0  0
  189.7230  177.1000  142.3880 O   0  0  0  0  0  0  0  0  0  0  0  0
  189.3160  174.1660  146.6910 C   0  0  0  0  0  3  0  0  0  0  0  0
  189.5520  174.7690  141.7850 C   0  0  1  0  0  3  0  0  0  0  0  0
  193.3430  175.2780  145.6760 C   0  0  0  0  0  2  0  0  0  0  0  0
  192.8690  170.2490  144.2630 C   0  0  0  0  0  1  0  0  0  0  0  0
  192.3510  171.0070  143.0570 C   0  0  0  0  0  0  0  0  0  0  0  0
  191.1210  170.7740  141.1440 C   0  0  1  0  0  3  0  0  0  0  0  0
  191.3000  172.0290  143.5750 C   0  0  2  0  0  3  0  0  0  0  0  0
  191.2220  177.5450  144.9140 O   0  0  0  0  0  1  0  0  0  0  0  0
  191.7970  174.2540  142.7010 C   0  0  1  0  0  3  0  0  0  0  0  0
  189.9250  171.3400  141.6150 O   0  0  0  0  0  0  0  0  0  0  0  0
  191.7570  170.0680  142.1830 O   0  0  0  0  0  0  0  0  0  0  0  0
  192.5150  177.3840  144.4120 C   0  0  2  0  0  3  0  0  0  0  0  0
  191.2370  173.9680  145.2060 C   0  0  0  0  0  0  0  0  0  0  0  0
  190.2120  175.9390  142.4050 C   0  0  0  0  0  0  0  0  0  0  0  0
  190.8150  169.8250  140.0050 C   0  0  0  0  0  1  0  0  0  0  0  0
  192.5330  176.6560  143.0650 C   0  0  0  0  0  2  0  0  0  0  0  0
  189.9070  173.6520  145.5340 C   0  0  0  0  0  3  0  0  0  0  0  0
  191.3620  175.3450  147.2100 C   0  0  0  0  0  3  0  0  0  0  0  0
  190.0470  175.0040  147.5330 C   0  0  0  0  0  3  0  0  0  0  0  0
  193.4570  176.7910  145.4660 C   0  0  0  0  0  2  0  0  0  0  0  0
  190.6520  173.6830  141.8510 C   0  0  1  0  0  3  0  0  0  0  0  0
  191.4820  175.6480  142.9630 N   0  0  0  0  0  0  0  0  0  0  0  0
  190.2380  172.3740  142.5250 C   0  0  2  0  0  3  0  0  0  0  0  0
  188.2790  174.4330  142.5540 C   0  0  0  0  0  1  0  0  0  0  0  0
  191.8960  173.3830  143.9700 C   0  0  1  0  0  3  0  0  0  0  0  0
  1 21  1  0  0  0  0
  2  8  1  0  0  0  0
  3 17  2  0  0  0  0
  4 22  1  0  0  0  0
  5 24  1  0  0  0  0
  5 17  1  0  0  0  0
  5 27  1  1  0  0  0
  6  1  1  0  0  0  0
  8  7  1  0  0  0  0
  9 18  1  6  0  0  0
  9 13  1  0  0  0  0
  9 14  1  0  0  0  0
 10  8  1  6  0  0  0
 10 28  1  0  0  0  0
 12 25  1  1  0  0  0
 12 28  1  0  0  0  0
 13 26  1  0  0  0  0
 14  8  1  0  0  0  0
 15 11  1  1  0  0  0
 15 23  1  0  0  0  0
 16 20  1  0  0  0  0
 16  1  2  0  0  0  0
 17 25  1  0  0  0  0
 19 15  1  0  0  0  0
 20  4  2  0  0  0  0
 21 22  2  0  0  0  0
 23  6  1  0  0  0  0
 24 26  1  0  0  0  0
 24 12  1  0  0  0  0
 25 19  1  0  0  0  0
 26 10  1  0  0  0  0
 28 16  1  0  0  0  0
M  END
>  <MODEL>
9

>  <REMARK>
 VINA RESULT:      -6.8      2.518      5.556
  Name = 
  0 active torsions:
  status: ('A' for Active; 'I' for Inactive)
                            x       y       z     vdW  Elec       q    Type
                         _______ _______ _______ _____ _____    ______ ____

>  <TORSDO>
F 0

$$$$
