=
 OpenBabel11112417113D

 37 43  0  0  1  0  0  0  0  0999 V2000
  194.5970  175.1440  143.8140 C   0  0  0  0  0  2  0  0  0  0  0  0
  189.5090  177.6580  143.9950 C   0  0  0  0  0  0  0  0  0  0  0  0
  191.5250  174.2250  144.2130 C   0  0  1  0  0  3  0  0  0  0  0  0
  196.0010  175.6240  144.2020 C   0  0  2  0  0  3  0  0  0  0  0  0
  193.6230  173.4710  141.0170 C   0  0  0  0  0  2  0  0  0  0  0  0
  190.3520  176.0130  145.7010 C   0  0  2  0  0  3  0  0  0  0  0  0
  191.9490  174.3870  142.7600 C   0  0  2  0  0  3  0  0  0  0  0  0
  196.9290  175.1130  141.8200 C   0  0  2  0  0  3  0  0  0  0  0  0
  191.5240  175.6430  144.7650 C   0  0  2  0  0  3  0  0  0  0  0  0
  192.8210  173.2050  142.2860 C   0  0  1  0  0  3  0  0  0  0  0  0
  189.9720  174.8170  146.5780 C   0  0  0  0  0  2  0  0  0  0  0  0
  196.8940  176.0610  143.0310 C   0  0  0  0  0  2  0  0  0  0  0  0
  191.7660  176.5710  143.5720 C   0  0  2  0  0  3  0  0  0  0  0  0
  190.0910  178.7110  144.6810 F   0  0  0  0  0  0  0  0  0  0  0  0
  190.0160  172.1740  143.7050 C   0  0  0  0  0  2  0  0  0  0  0  0
  189.6600  173.5360  145.7830 C   0  0  0  0  0  2  0  0  0  0  0  0
  190.4710  177.1100  142.9500 C   0  0  0  0  0  2  0  0  0  0  0  0
  195.5780  174.8980  141.0990 C   0  0  1  0  0  3  0  0  0  0  0  0
  195.0290  173.5650  141.3840 N   0  0  0  0  0  2  0  0  0  0  0  0
  190.1430  173.5680  144.3300 C   0  0  1  0  0  3  0  0  0  0  0  0
  192.4590  175.7670  142.5690 N   0  0  1  0  0  0  0  0  0  0  0  0
  189.1260  176.5440  144.9560 C   0  0  0  0  0  2  0  0  0  0  0  0
  192.0330  171.8880  142.1630 C   0  0  1  0  0  3  0  0  0  0  0  0
  188.3690  178.1130  143.3600 F   0  0  0  0  0  0  0  0  0  0  0  0
  194.5950  176.0590  141.3670 C   0  0  0  0  0  2  0  0  0  0  0  0
  197.5600  173.9090  142.1400 O   0  0  0  0  0  1  0  0  0  0  0  0
  193.9060  176.0100  142.7400 C   0  0  2  0  0  3  0  0  0  0  0  0
  191.3400  171.4440  143.4600 C   0  0  0  0  0  2  0  0  0  0  0  0
  191.2170  170.5910  140.1820 C   0  0  0  0  0  3  0  0  0  0  0  0
  191.1620  171.7650  140.9400 C   0  0  0  0  0  0  0  0  0  0  0  0
  190.2850  172.7930  140.5600 C   0  0  0  0  0  3  0  0  0  0  0  0
  188.5550  173.7420  139.0290 C   0  0  0  0  0  1  0  0  0  0  0  0
  189.5420  171.4750  138.6710 C   0  0  0  0  0  3  0  0  0  0  0  0
  189.4800  172.6480  139.4270 C   0  0  0  0  0  0  0  0  0  0  0  0
  190.4120  170.4460  139.0490 C   0  0  0  0  0  3  0  0  0  0  0  0
  195.7200  173.5220  145.1880 C   0  0  0  0  0  1  0  0  0  0  0  0
  196.6720  174.6010  144.9860 N   0  0  0  0  0  2  0  0  0  0  0  0
  1  4  1  0  0  0  0
  2 14  1  0  0  0  0
  2 22  1  0  0  0  0
  3 20  1  0  0  0  0
  3  9  1  0  0  0  0
  4 37  1  0  0  0  0
  5 19  1  0  0  0  0
  5 10  1  0  0  0  0
  6 11  1  0  0  0  0
  7  3  1  0  0  0  0
  8 26  1  0  0  0  0
  8 12  1  0  0  0  0
  9  6  1  0  0  0  0
 10  7  1  0  0  0  0
 12  4  1  0  0  0  0
 13  9  1  0  0  0  0
 15 20  1  0  0  0  0
 16 11  1  0  0  0  0
 17 13  1  0  0  0  0
 17  2  1  0  0  0  0
 18 25  1  0  0  0  0
 18 19  1  0  0  0  0
 18  8  1  0  0  0  0
 20 16  1  0  0  0  0
 21 27  1  0  0  0  0
 21  7  1  0  0  0  0
 21 13  1  0  0  0  0
 22  6  1  0  0  0  0
 23 10  1  0  0  0  0
 23 28  1  0  0  0  0
 24  2  1  0  0  0  0
 25 27  1  0  0  0  0
 27  1  1  0  0  0  0
 28 15  1  0  0  0  0
 29 30  1  0  0  0  0
 30 23  1  0  0  0  0
 31 30  2  0  0  0  0
 32 34  1  0  0  0  0
 33 35  1  0  0  0  0
 33 34  2  0  0  0  0
 34 31  1  0  0  0  0
 35 29  2  0  0  0  0
 37 36  1  0  0  0  0
M  END
>  <MODEL>
1

>  <REMARK>
 VINA RESULT:      -7.7      0.000      0.000
  Name = 
  2 active torsions:
  status: ('A' for Active; 'I' for Inactive)
    1  A    between atoms: C_4  and  N_37
    2  A    between atoms: C_23  and  C_30
                            x       y       z     vdW  Elec       q    Type
                         _______ _______ _______ _____ _____    ______ ____

>  <TORSDO>
F 2

$$$$
=
 OpenBabel11112417113D

 37 43  0  0  1  0  0  0  0  0999 V2000
  194.6320  174.6210  141.9630 C   0  0  0  0  0  2  0  0  0  0  0  0
  191.2460  170.0810  141.5510 C   0  0  0  0  0  0  0  0  0  0  0  0
  191.4790  174.0620  141.5300 C   0  0  1  0  0  3  0  0  0  0  0  0
  196.1010  174.8510  141.5900 C   0  0  2  0  0  3  0  0  0  0  0  0
  192.9960  175.5280  144.8040 C   0  0  0  0  0  2  0  0  0  0  0  0
  191.2510  172.0120  139.9380 C   0  0  2  0  0  3  0  0  0  0  0  0
  191.9270  174.0390  142.9830 C   0  0  2  0  0  3  0  0  0  0  0  0
  196.6890  175.6100  144.0140 C   0  0  2  0  0  3  0  0  0  0  0  0
  192.1250  172.8270  140.9170 C   0  0  2  0  0  3  0  0  0  0  0  0
  192.1650  175.4630  143.5290 C   0  0  1  0  0  3  0  0  0  0  0  0
  190.3710  172.9450  139.1040 C   0  0  0  0  0  2  0  0  0  0  0  0
  197.0920  174.8100  142.7630 C   0  0  0  0  0  2  0  0  0  0  0  0
  192.7590  172.0530  142.0760 C   0  0  2  0  0  3  0  0  0  0  0  0
  192.2450  169.4430  140.8360 F   0  0  0  0  0  0  0  0  0  0  0  0
  189.2010  175.1760  142.0870 C   0  0  0  0  0  2  0  0  0  0  0  0
  189.5080  173.9040  139.9440 C   0  0  0  0  0  2  0  0  0  0  0  0
  191.8500  170.9540  142.6410 C   0  0  0  0  0  2  0  0  0  0  0  0
  195.3870  175.1520  144.7100 C   0  0  1  0  0  3  0  0  0  0  0  0
  194.2920  176.1020  144.4690 N   0  0  0  0  0  2  0  0  0  0  0  0
  189.9490  174.0230  141.4060 C   0  0  1  0  0  3  0  0  0  0  0  0
  193.0090  173.0340  143.1280 N   0  0  1  0  0  0  0  0  0  0  0  0
  190.4000  170.9460  140.6290 C   0  0  0  0  0  2  0  0  0  0  0  0
  190.8620  176.2700  143.6880 C   0  0  1  0  0  3  0  0  0  0  0  0
  190.4360  169.1280  142.1380 F   0  0  0  0  0  0  0  0  0  0  0  0
  195.0400  173.6860  144.3680 C   0  0  0  0  0  2  0  0  0  0  0  0
  196.7040  176.9840  143.7610 O   0  0  0  0  0  1  0  0  0  0  0  0
  194.4080  173.4840  142.9830 C   0  0  2  0  0  3  0  0  0  0  0  0
  190.0460  176.4140  142.3960 C   0  0  0  0  0  2  0  0  0  0  0  0
  190.2190  174.6880  145.5210 C   0  0  0  0  0  3  0  0  0  0  0  0
  190.0280  175.9240  144.8940 C   0  0  0  0  0  0  0  0  0  0  0  0
  189.0800  176.8210  145.4100 C   0  0  0  0  0  3  0  0  0  0  0  0
  187.3240  177.4330  147.0770 C   0  0  0  0  0  1  0  0  0  0  0  0
  188.5210  175.2410  147.1560 C   0  0  0  0  0  3  0  0  0  0  0  0
  188.3270  176.4780  146.5370 C   0  0  0  0  0  0  0  0  0  0  0  0
  189.4670  174.3450  146.6470 C   0  0  0  0  0  3  0  0  0  0  0  0
  194.9380  176.7580  140.8980 C   0  0  0  0  0  1  0  0  0  0  0  0
  196.2350  176.1040  140.8660 N   0  0  0  0  0  2  0  0  0  0  0  0
  1 27  1  0  0  0  0
  2 24  1  0  0  0  0
  2 17  1  0  0  0  0
  3  7  1  0  0  0  0
  4  1  1  0  0  0  0
  4 12  1  0  0  0  0
  6 22  1  0  0  0  0
  6  9  1  0  0  0  0
  7 21  1  0  0  0  0
  7 10  1  0  0  0  0
  8 18  1  0  0  0  0
  9  3  1  0  0  0  0
  9 13  1  0  0  0  0
 10 23  1  0  0  0  0
 10  5  1  0  0  0  0
 11  6  1  0  0  0  0
 11 16  1  0  0  0  0
 12  8  1  0  0  0  0
 13 17  1  0  0  0  0
 13 21  1  0  0  0  0
 14  2  1  0  0  0  0
 15 28  1  0  0  0  0
 16 20  1  0  0  0  0
 19 18  1  0  0  0  0
 19  5  1  0  0  0  0
 20  3  1  0  0  0  0
 20 15  1  0  0  0  0
 22  2  1  0  0  0  0
 23 30  1  0  0  0  0
 25 18  1  0  0  0  0
 26  8  1  0  0  0  0
 27 21  1  0  0  0  0
 27 25  1  0  0  0  0
 28 23  1  0  0  0  0
 29 35  1  0  0  0  0
 30 31  1  0  0  0  0
 30 29  2  0  0  0  0
 31 34  2  0  0  0  0
 34 32  1  0  0  0  0
 34 33  1  0  0  0  0
 35 33  2  0  0  0  0
 37 36  1  0  0  0  0
 37  4  1  0  0  0  0
M  END
>  <MODEL>
2

>  <REMARK>
 VINA RESULT:      -7.4      2.711      5.727
  Name = 
  2 active torsions:
  status: ('A' for Active; 'I' for Inactive)
    1  A    between atoms: C_4  and  N_37
    2  A    between atoms: C_23  and  C_30
                            x       y       z     vdW  Elec       q    Type
                         _______ _______ _______ _____ _____    ______ ____

>  <TORSDO>
F 2

$$$$
=
 OpenBabel11112417113D

 37 43  0  0  1  0  0  0  0  0999 V2000
  193.1830  171.4440  142.4480 C   0  0  0  0  0  2  0  0  0  0  0  0
  196.1320  176.2430  141.7300 C   0  0  0  0  0  0  0  0  0  0  0  0
  193.6640  174.1850  144.0900 C   0  0  1  0  0  3  0  0  0  0  0  0
  193.4250  170.0040  141.9810 C   0  0  2  0  0  3  0  0  0  0  0  0
  190.3030  173.2520  142.3540 C   0  0  0  0  0  2  0  0  0  0  0  0
  196.1710  174.8400  143.8180 C   0  0  2  0  0  3  0  0  0  0  0  0
  192.5810  174.2720  143.0250 C   0  0  2  0  0  3  0  0  0  0  0  0
  191.1070  169.9090  140.7900 C   0  0  2  0  0  3  0  0  0  0  0  0
  194.9570  174.0370  143.3000 C   0  0  2  0  0  3  0  0  0  0  0  0
  191.2780  173.5780  143.4780 C   0  0  1  0  0  3  0  0  0  0  0  0
  196.1730  174.8770  145.3480 C   0  0  0  0  0  2  0  0  0  0  0  0
  192.6060  169.5620  140.7570 C   0  0  0  0  0  2  0  0  0  0  0  0
  194.5860  174.2300  141.8280 C   0  0  2  0  0  3  0  0  0  0  0  0
  197.1540  175.4930  141.1720 F   0  0  0  0  0  0  0  0  0  0  0  0
  192.3820  175.7250  145.7410 C   0  0  0  0  0  2  0  0  0  0  0  0
  194.8620  175.4030  145.9610 C   0  0  0  0  0  2  0  0  0  0  0  0
  194.7780  175.6710  141.3370 C   0  0  0  0  0  2  0  0  0  0  0  0
  190.7700  171.4160  140.8440 C   0  0  1  0  0  3  0  0  0  0  0  0
  190.2880  171.8060  142.1770 N   0  0  0  0  0  2  0  0  0  0  0  0
  193.6830  175.4330  144.9840 C   0  0  1  0  0  3  0  0  0  0  0  0
  193.1700  173.8890  141.7190 N   0  0  1  0  0  0  0  0  0  0  0  0
  196.2480  176.2570  143.2470 C   0  0  0  0  0  2  0  0  0  0  0  0
  190.5620  174.3300  144.6170 C   0  0  1  0  0  3  0  0  0  0  0  0
  196.2230  177.5410  141.2630 F   0  0  0  0  0  0  0  0  0  0  0  0
  191.9330  172.2830  140.3130 C   0  0  0  0  0  2  0  0  0  0  0  0
  190.4410  169.1770  141.7760 O   0  0  0  0  0  1  0  0  0  0  0  0
  193.0920  172.4750  141.3020 C   0  0  2  0  0  3  0  0  0  0  0  0
  191.4210  174.5410  145.8720 C   0  0  0  0  0  2  0  0  0  0  0  0
  190.2980  176.3630  143.1770 C   0  0  0  0  0  3  0  0  0  0  0  0
  189.7910  175.5550  144.2000 C   0  0  0  0  0  0  0  0  0  0  0  0
  188.5680  175.8890  144.8020 C   0  0  0  0  0  3  0  0  0  0  0  0
  186.5730  177.3740  145.0310 C   0  0  0  0  0  1  0  0  0  0  0  0
  188.3810  177.8300  143.3680 C   0  0  0  0  0  3  0  0  0  0  0  0
  187.8670  177.0250  144.3880 C   0  0  0  0  0  0  0  0  0  0  0  0
  189.5970  177.4980  142.7630 C   0  0  0  0  0  3  0  0  0  0  0  0
  192.9300  169.8880  144.2630 C   0  0  0  0  0  1  0  0  0  0  0  0
  193.2070  169.0850  143.0850 N   0  0  0  0  0  2  0  0  0  0  0  0
  2 22  1  0  0  0  0
  3 20  1  0  0  0  0
  4  1  1  0  0  0  0
  4 37  1  0  0  0  0
  5 10  1  0  0  0  0
  6 11  1  0  0  0  0
  7 10  1  0  0  0  0
  7  3  1  0  0  0  0
  8 18  1  0  0  0  0
  8 26  1  0  0  0  0
  9  6  1  0  0  0  0
  9  3  1  0  0  0  0
 10 23  1  0  0  0  0
 11 16  1  0  0  0  0
 12  8  1  0  0  0  0
 12  4  1  0  0  0  0
 13  9  1  0  0  0  0
 14  2  1  0  0  0  0
 15 28  1  0  0  0  0
 17  2  1  0  0  0  0
 17 13  1  0  0  0  0
 18 19  1  0  0  0  0
 19  5  1  0  0  0  0
 20 15  1  0  0  0  0
 20 16  1  0  0  0  0
 21 13  1  0  0  0  0
 21  7  1  0  0  0  0
 22  6  1  0  0  0  0
 23 28  1  0  0  0  0
 24  2  1  0  0  0  0
 25 18  1  0  0  0  0
 25 27  1  0  0  0  0
 27 21  1  0  0  0  0
 27  1  1  0  0  0  0
 29 30  1  0  0  0  0
 30 23  1  0  0  0  0
 30 31  2  0  0  0  0
 33 34  2  0  0  0  0
 34 31  1  0  0  0  0
 34 32  1  0  0  0  0
 35 29  2  0  0  0  0
 35 33  1  0  0  0  0
 37 36  1  0  0  0  0
M  END
>  <MODEL>
3

>  <REMARK>
 VINA RESULT:      -7.4      2.890      5.838
  Name = 
  2 active torsions:
  status: ('A' for Active; 'I' for Inactive)
    1  A    between atoms: C_4  and  N_37
    2  A    between atoms: C_23  and  C_30
                            x       y       z     vdW  Elec       q    Type
                         _______ _______ _______ _____ _____    ______ ____

>  <TORSDO>
F 2

$$$$
=
 OpenBabel11112417113D

 37 43  0  0  1  0  0  0  0  0999 V2000
  189.9720  173.7930  140.9540 C   0  0  0  0  0  2  0  0  0  0  0  0
  189.1740  175.2210  146.3920 C   0  0  0  0  0  0  0  0  0  0  0  0
  191.4860  175.5970  143.1650 C   0  0  1  0  0  3  0  0  0  0  0  0
  188.9960  173.4510  139.8220 C   0  0  2  0  0  3  0  0  0  0  0  0
  192.8390  172.1930  141.8410 C   0  0  0  0  0  2  0  0  0  0  0  0
  189.6660  176.8540  144.5420 C   0  0  2  0  0  3  0  0  0  0  0  0
  191.8150  174.1140  143.2340 C   0  0  2  0  0  3  0  0  0  0  0  0
  190.1420  171.1450  139.4130 C   0  0  2  0  0  3  0  0  0  0  0  0
  190.0320  175.6820  143.6050 C   0  0  2  0  0  3  0  0  0  0  0  0
  192.7840  173.6910  142.1080 C   0  0  1  0  0  3  0  0  0  0  0  0
  190.4550  178.1080  144.1600 C   0  0  0  0  0  2  0  0  0  0  0  0
  188.8370  171.9520  139.5200 C   0  0  0  0  0  2  0  0  0  0  0  0
  189.6430  174.2790  144.0800 C   0  0  2  0  0  3  0  0  0  0  0  0
  187.8150  175.2990  146.1370 F   0  0  0  0  0  0  0  0  0  0  0  0
  193.9050  176.3190  143.7770 C   0  0  0  0  0  2  0  0  0  0  0  0
  191.9800  177.8950  144.1120 C   0  0  0  0  0  2  0  0  0  0  0  0
  189.7990  174.0860  145.5940 C   0  0  0  0  0  2  0  0  0  0  0  0
  191.0080  171.1000  140.6920 C   0  0  1  0  0  3  0  0  0  0  0  0
  192.2070  171.9400  140.5540 N   0  0  0  0  0  2  0  0  0  0  0  0
  192.4040  176.4240  144.0770 C   0  0  1  0  0  3  0  0  0  0  0  0
  190.5500  173.3570  143.4010 N   0  0  1  0  0  0  0  0  0  0  0  0
  189.8600  176.5280  146.0240 C   0  0  0  0  0  2  0  0  0  0  0  0
  194.2020  174.2640  142.2910 C   0  0  1  0  0  3  0  0  0  0  0  0
  189.3640  174.9800  147.7390 F   0  0  0  0  0  0  0  0  0  0  0  0
  190.1740  171.3900  141.9590 C   0  0  0  0  0  2  0  0  0  0  0  0
  190.8760  171.5200  138.2850 O   0  0  0  0  0  1  0  0  0  0  0  0
  189.8560  172.8750  142.1900 C   0  0  2  0  0  3  0  0  0  0  0  0
  194.2590  175.7950  142.3820 C   0  0  0  0  0  2  0  0  0  0  0  0
  196.4150  173.8860  143.4030 C   0  0  0  0  0  3  0  0  0  0  0  0
  195.0550  173.5650  143.3170 C   0  0  0  0  0  0  0  0  0  0  0  0
  194.5120  172.6180  144.1980 C   0  0  0  0  0  3  0  0  0  0  0  0
  194.7420  170.9890  146.0770 C   0  0  0  0  0  1  0  0  0  0  0  0
  196.6820  172.3150  145.2270 C   0  0  0  0  0  3  0  0  0  0  0  0
  195.3240  171.9930  145.1490 C   0  0  0  0  0  0  0  0  0  0  0  0
  197.2270  173.2610  144.3530 C   0  0  0  0  0  3  0  0  0  0  0  0
  188.2020  174.1960  137.7530 C   0  0  0  0  0  1  0  0  0  0  0  0
  189.3720  174.1660  138.6140 N   0  0  0  0  0  2  0  0  0  0  0  0
  1 27  1  0  0  0  0
  2 24  1  0  0  0  0
  3  7  1  0  0  0  0
  3  9  1  0  0  0  0
  3 20  1  0  0  0  0
  4  1  1  0  0  0  0
  5 10  1  0  0  0  0
  6 22  1  0  0  0  0
  7 21  1  0  0  0  0
  8 12  1  0  0  0  0
  8 18  1  0  0  0  0
  9 13  1  0  0  0  0
  9  6  1  0  0  0  0
 10 23  1  0  0  0  0
 10  7  1  0  0  0  0
 11  6  1  0  0  0  0
 12  4  1  0  0  0  0
 13 17  1  0  0  0  0
 14  2  1  0  0  0  0
 15 20  1  0  0  0  0
 16 11  1  0  0  0  0
 17  2  1  0  0  0  0
 18 25  1  0  0  0  0
 19 18  1  0  0  0  0
 19  5  1  0  0  0  0
 20 16  1  0  0  0  0
 21 13  1  0  0  0  0
 22  2  1  0  0  0  0
 23 28  1  0  0  0  0
 23 30  1  0  0  0  0
 25 27  1  0  0  0  0
 26  8  1  0  0  0  0
 27 21  1  0  0  0  0
 28 15  1  0  0  0  0
 29 35  1  0  0  0  0
 30 29  2  0  0  0  0
 30 31  1  0  0  0  0
 31 34  2  0  0  0  0
 34 33  1  0  0  0  0
 34 32  1  0  0  0  0
 35 33  2  0  0  0  0
 36 37  1  0  0  0  0
 37  4  1  0  0  0  0
M  END
>  <MODEL>
4

>  <REMARK>
 VINA RESULT:      -7.1      2.392      6.010
  Name = 
  2 active torsions:
  status: ('A' for Active; 'I' for Inactive)
    1  A    between atoms: C_4  and  N_37
    2  A    between atoms: C_23  and  C_30
                            x       y       z     vdW  Elec       q    Type
                         _______ _______ _______ _____ _____    ______ ____

>  <TORSDO>
F 2

$$$$
=
 OpenBabel11112417113D

 37 43  0  0  1  0  0  0  0  0999 V2000
  192.2300  171.6040  140.7630 C   0  0  0  0  0  2  0  0  0  0  0  0
  195.5850  175.7940  142.6180 C   0  0  0  0  0  0  0  0  0  0  0  0
  192.3470  173.5760  143.3200 C   0  0  1  0  0  3  0  0  0  0  0  0
  192.5080  170.3590  139.9130 C   0  0  2  0  0  3  0  0  0  0  0  0
  189.6710  173.8300  140.5000 C   0  0  0  0  0  2  0  0  0  0  0  0
  194.8460  173.8330  144.0090 C   0  0  2  0  0  3  0  0  0  0  0  0
  191.6750  174.1770  142.0940 C   0  0  2  0  0  3  0  0  0  0  0  0
  190.7000  171.0450  138.1640 C   0  0  2  0  0  3  0  0  0  0  0  0
  193.8110  173.4540  142.9260 C   0  0  2  0  0  3  0  0  0  0  0  0
  190.2510  173.6180  141.8930 C   0  0  1  0  0  3  0  0  0  0  0  0
  194.3560  173.3950  145.3910 C   0  0  0  0  0  2  0  0  0  0  0  0
  192.1000  170.4680  138.4350 C   0  0  0  0  0  2  0  0  0  0  0  0
  193.9520  174.1530  141.5710 C   0  0  2  0  0  3  0  0  0  0  0  0
  196.6760  175.0850  142.1450 F   0  0  0  0  0  0  0  0  0  0  0  0
  190.7120  174.7330  144.9730 C   0  0  0  0  0  2  0  0  0  0  0  0
  192.9580  173.9290  145.7540 C   0  0  0  0  0  2  0  0  0  0  0  0
  194.3940  175.6180  141.6870 C   0  0  0  0  0  2  0  0  0  0  0  0
  190.4710  172.4970  138.6420 C   0  0  1  0  0  3  0  0  0  0  0  0
  189.6120  172.5360  139.8340 N   0  0  0  0  0  2  0  0  0  0  0  0
  192.1640  174.4640  144.5590 C   0  0  1  0  0  3  0  0  0  0  0  0
  192.6280  174.1180  140.9580 N   0  0  1  0  0  0  0  0  0  0  0  0
  195.2050  175.3190  144.0120 C   0  0  0  0  0  2  0  0  0  0  0  0
  189.2600  174.0960  142.9710 C   0  0  1  0  0  3  0  0  0  0  0  0
  195.9140  177.1350  142.6770 F   0  0  0  0  0  0  0  0  0  0  0  0
  191.8010  173.2670  138.7940 C   0  0  0  0  0  2  0  0  0  0  0  0
  189.7000  170.1740  138.6050 O   0  0  0  0  0  1  0  0  0  0  0  0
  192.5890  172.9370  140.0710 C   0  0  2  0  0  3  0  0  0  0  0  0
  189.6780  173.7550  144.4090 C   0  0  0  0  0  2  0  0  0  0  0  0
  189.6760  176.5450  142.6490 C   0  0  0  0  0  3  0  0  0  0  0  0
  188.7540  175.5050  142.8080 C   0  0  0  0  0  0  0  0  0  0  0  0
  187.3800  175.7920  142.7910 C   0  0  0  0  0  3  0  0  0  0  0  0
  185.4810  177.4030  142.6120 C   0  0  0  0  0  1  0  0  0  0  0  0
  187.8630  178.1410  142.4720 C   0  0  0  0  0  3  0  0  0  0  0  0
  186.9370  177.1070  142.6260 C   0  0  0  0  0  0  0  0  0  0  0  0
  189.2330  177.8600  142.4840 C   0  0  0  0  0  3  0  0  0  0  0  0
  191.1800  169.6610  141.7060 C   0  0  0  0  0  1  0  0  0  0  0  0
  191.8800  169.1980  140.5200 N   0  0  0  0  0  2  0  0  0  0  0  0
  2 24  1  0  0  0  0
  2 22  1  0  0  0  0
  3 20  1  0  0  0  0
  4 37  1  0  0  0  0
  4  1  1  0  0  0  0
  5 10  1  0  0  0  0
  6 22  1  0  0  0  0
  6 11  1  0  0  0  0
  7  3  1  0  0  0  0
  8 12  1  0  0  0  0
  8 26  1  0  0  0  0
  8 18  1  0  0  0  0
  9  3  1  0  0  0  0
  9  6  1  0  0  0  0
 10  7  1  0  0  0  0
 10 23  1  0  0  0  0
 11 16  1  0  0  0  0
 12  4  1  0  0  0  0
 13 17  1  0  0  0  0
 13  9  1  0  0  0  0
 14  2  1  0  0  0  0
 17  2  1  0  0  0  0
 18 25  1  0  0  0  0
 18 19  1  0  0  0  0
 19  5  1  0  0  0  0
 20 15  1  0  0  0  0
 20 16  1  0  0  0  0
 21 13  1  0  0  0  0
 21  7  1  0  0  0  0
 23 28  1  0  0  0  0
 25 27  1  0  0  0  0
 27  1  1  0  0  0  0
 27 21  1  0  0  0  0
 28 15  1  0  0  0  0
 29 30  1  0  0  0  0
 30 23  1  0  0  0  0
 31 30  2  0  0  0  0
 32 34  1  0  0  0  0
 33 35  1  0  0  0  0
 33 34  2  0  0  0  0
 34 31  1  0  0  0  0
 35 29  2  0  0  0  0
 37 36  1  0  0  0  0
M  END
>  <MODEL>
5

>  <REMARK>
 VINA RESULT:      -7.1      3.060      5.740
  Name = 
  2 active torsions:
  status: ('A' for Active; 'I' for Inactive)
    1  A    between atoms: C_4  and  N_37
    2  A    between atoms: C_23  and  C_30
                            x       y       z     vdW  Elec       q    Type
                         _______ _______ _______ _____ _____    ______ ____

>  <TORSDO>
F 2

$$$$
=
 OpenBabel11112417113D

 37 43  0  0  1  0  0  0  0  0999 V2000
  189.8850  175.0670  144.2370 C   0  0  0  0  0  2  0  0  0  0  0  0
  191.3150  172.5950  139.3280 C   0  0  0  0  0  0  0  0  0  0  0  0
  191.8030  172.6470  143.2860 C   0  0  1  0  0  3  0  0  0  0  0  0
  188.6040  175.7670  144.7050 C   0  0  2  0  0  3  0  0  0  0  0  0
  193.1140  176.0610  144.6260 C   0  0  0  0  0  2  0  0  0  0  0  0
  190.5680  171.3580  141.3880 C   0  0  2  0  0  3  0  0  0  0  0  0
  192.4360  174.0260  143.1850 C   0  0  2  0  0  3  0  0  0  0  0  0
  189.9100  177.9440  145.3010 C   0  0  2  0  0  3  0  0  0  0  0  0
  190.7170  172.6510  142.2190 C   0  0  2  0  0  3  0  0  0  0  0  0
  192.8650  174.5590  144.5680 C   0  0  1  0  0  3  0  0  0  0  0  0
  190.8150  170.1290  142.2650 C   0  0  0  0  0  2  0  0  0  0  0  0
  188.6510  177.3030  144.6900 C   0  0  0  0  0  2  0  0  0  0  0  0
  190.8910  173.9530  141.4330 C   0  0  2  0  0  3  0  0  0  0  0  0
  190.0040  172.7460  138.9090 F   0  0  0  0  0  0  0  0  0  0  0  0
  194.0230  171.5110  144.0100 C   0  0  0  0  0  2  0  0  0  0  0  0
  192.1640  170.1540  143.0080 C   0  0  0  0  0  2  0  0  0  0  0  0
  191.7440  173.7890  140.1680 C   0  0  0  0  0  2  0  0  0  0  0  0
  191.2440  177.6000  144.5990 C   0  0  1  0  0  3  0  0  0  0  0  0
  192.0430  176.6670  145.4050 N   0  0  0  0  0  2  0  0  0  0  0  0
  192.8310  171.5320  143.0450 C   0  0  1  0  0  3  0  0  0  0  0  0
  191.5730  174.8810  142.3320 N   0  0  1  0  0  0  0  0  0  0  0  0
  191.4670  171.3240  140.1510 C   0  0  0  0  0  2  0  0  0  0  0  0
  194.0570  173.7880  145.1660 C   0  0  1  0  0  3  0  0  0  0  0  0
  192.1340  172.5090  138.2180 F   0  0  0  0  0  0  0  0  0  0  0  0
  191.0220  177.1470  143.1390 C   0  0  0  0  0  2  0  0  0  0  0  0
  189.9640  177.7360  146.6810 O   0  0  0  0  0  1  0  0  0  0  0  0
  190.5320  175.6990  142.9860 C   0  0  2  0  0  3  0  0  0  0  0  0
  193.8200  172.2790  145.3190 C   0  0  0  0  0  2  0  0  0  0  0  0
  196.5540  173.8720  145.3460 C   0  0  0  0  0  3  0  0  0  0  0  0
  195.4060  174.1320  144.5910 C   0  0  0  0  0  0  0  0  0  0  0  0
  195.5340  174.6890  143.3080 C   0  0  0  0  0  3  0  0  0  0  0  0
  196.9270  175.5790  141.4370 C   0  0  0  0  0  1  0  0  0  0  0  0
  197.9410  174.7290  143.5560 C   0  0  0  0  0  3  0  0  0  0  0  0
  196.7990  174.9880  142.7940 C   0  0  0  0  0  0  0  0  0  0  0  0
  197.8190  174.1710  144.8320 C   0  0  0  0  0  3  0  0  0  0  0  0
  189.3160  174.4320  146.4880 C   0  0  0  0  0  1  0  0  0  0  0  0
  188.2390  175.2920  146.0290 N   0  0  0  0  0  2  0  0  0  0  0  0
  1  4  1  0  0  0  0
  2 22  1  0  0  0  0
  2 17  1  0  0  0  0
  4 37  1  0  0  0  0
  5 19  1  0  0  0  0
  6  9  1  0  0  0  0
  6 11  1  0  0  0  0
  7  3  1  0  0  0  0
  7 10  1  0  0  0  0
  8 26  1  0  0  0  0
  9  3  1  0  0  0  0
 10  5  1  0  0  0  0
 10 23  1  0  0  0  0
 11 16  1  0  0  0  0
 12  4  1  0  0  0  0
 12  8  1  0  0  0  0
 13  9  1  0  0  0  0
 13 21  1  0  0  0  0
 14  2  1  0  0  0  0
 15 28  1  0  0  0  0
 16 20  1  0  0  0  0
 17 13  1  0  0  0  0
 18  8  1  0  0  0  0
 18 19  1  0  0  0  0
 20  3  1  0  0  0  0
 20 15  1  0  0  0  0
 21 27  1  0  0  0  0
 21  7  1  0  0  0  0
 22  6  1  0  0  0  0
 23 28  1  0  0  0  0
 24  2  1  0  0  0  0
 25 18  1  0  0  0  0
 27 25  1  0  0  0  0
 27  1  1  0  0  0  0
 30 23  1  0  0  0  0
 30 29  2  0  0  0  0
 31 30  1  0  0  0  0
 32 34  1  0  0  0  0
 33 35  2  0  0  0  0
 34 31  2  0  0  0  0
 34 33  1  0  0  0  0
 35 29  1  0  0  0  0
 37 36  1  0  0  0  0
M  END
>  <MODEL>
6

>  <REMARK>
 VINA RESULT:      -7.0      2.967      6.411
  Name = 
  2 active torsions:
  status: ('A' for Active; 'I' for Inactive)
    1  A    between atoms: C_4  and  N_37
    2  A    between atoms: C_23  and  C_30
                            x       y       z     vdW  Elec       q    Type
                         _______ _______ _______ _____ _____    ______ ____

>  <TORSDO>
F 2

$$$$
=
 OpenBabel11112417113D

 37 43  0  0  1  0  0  0  0  0999 V2000
  191.7040  176.1580  144.4660 C   0  0  0  0  0  2  0  0  0  0  0  0
  196.4980  173.3940  145.7410 C   0  0  0  0  0  0  0  0  0  0  0  0
  194.2550  174.9940  142.8590 C   0  0  1  0  0  3  0  0  0  0  0  0
  190.8540  177.1660  145.2480 C   0  0  2  0  0  3  0  0  0  0  0  0
  190.6800  173.4590  142.6660 C   0  0  0  0  0  2  0  0  0  0  0  0
  196.3750  175.4540  144.3020 C   0  0  2  0  0  3  0  0  0  0  0  0
  193.1690  173.9670  143.1410 C   0  0  2  0  0  3  0  0  0  0  0  0
  188.7220  175.6840  145.0080 C   0  0  2  0  0  3  0  0  0  0  0  0
  194.8390  175.3110  144.2290 C   0  0  2  0  0  3  0  0  0  0  0  0
  191.9580  174.1450  142.2000 C   0  0  1  0  0  3  0  0  0  0  0  0
  196.9090  176.1260  143.0350 C   0  0  0  0  0  2  0  0  0  0  0  0
  189.5870  176.5910  145.9010 C   0  0  0  0  0  2  0  0  0  0  0  0
  194.1960  174.3260  145.2090 C   0  0  2  0  0  3  0  0  0  0  0  0
  196.5990  174.1660  146.8870 F   0  0  0  0  0  0  0  0  0  0  0  0
  194.8070  173.9970  140.5260 C   0  0  0  0  0  2  0  0  0  0  0  0
  196.4820  175.4280  141.7310 C   0  0  0  0  0  2  0  0  0  0  0  0
  195.0410  173.0680  145.4480 C   0  0  0  0  0  2  0  0  0  0  0  0
  189.4060  174.3940  144.5020 C   0  0  1  0  0  3  0  0  0  0  0  0
  189.7360  174.4920  143.0740 N   0  0  0  0  0  2  0  0  0  0  0  0
  195.3200  174.4440  141.9010 C   0  0  1  0  0  3  0  0  0  0  0  0
  192.9290  173.9230  144.6050 N   0  0  1  0  0  0  0  0  0  0  0  0
  197.0960  174.1280  144.5510 C   0  0  0  0  0  2  0  0  0  0  0  0
  192.2730  173.7710  140.7390 C   0  0  1  0  0  3  0  0  0  0  0  0
  197.1920  172.2140  145.9330 F   0  0  0  0  0  0  0  0  0  0  0  0
  190.5940  173.9860  145.4010 C   0  0  0  0  0  2  0  0  0  0  0  0
  188.1260  176.4130  143.9750 O   0  0  0  0  0  1  0  0  0  0  0  0
  191.8790  174.7950  145.1700 C   0  0  2  0  0  3  0  0  0  0  0  0
  193.4400  174.5560  140.1240 C   0  0  0  0  0  2  0  0  0  0  0  0
  191.5800  171.7980  139.3600 C   0  0  0  0  0  3  0  0  0  0  0  0
  192.3140  172.2950  140.4430 C   0  0  0  0  0  0  0  0  0  0  0  0
  193.0880  171.4150  141.2140 C   0  0  0  0  0  3  0  0  0  0  0  0
  193.9390  169.1250  141.7340 C   0  0  0  0  0  1  0  0  0  0  0  0
  192.3790  169.5610  139.8310 C   0  0  0  0  0  3  0  0  0  0  0  0
  193.1180  170.0510  140.9100 C   0  0  0  0  0  0  0  0  0  0  0  0
  191.6100  170.4350  139.0560 C   0  0  0  0  0  3  0  0  0  0  0  0
  191.1220  178.0440  143.0980 C   0  0  0  0  0  1  0  0  0  0  0  0
  190.5090  178.2880  144.3920 N   0  0  0  0  0  2  0  0  0  0  0  0
  1 27  1  0  0  0  0
  1  4  1  0  0  0  0
  2 24  1  0  0  0  0
  2 14  1  0  0  0  0
  3  7  1  0  0  0  0
  3  9  1  0  0  0  0
  4 12  1  0  0  0  0
  5 19  1  0  0  0  0
  6 22  1  0  0  0  0
  7 21  1  0  0  0  0
  8 12  1  0  0  0  0
  9  6  1  0  0  0  0
  9 13  1  0  0  0  0
 10  5  1  0  0  0  0
 10  7  1  0  0  0  0
 11  6  1  0  0  0  0
 13 17  1  0  0  0  0
 15 20  1  0  0  0  0
 16 20  1  0  0  0  0
 16 11  1  0  0  0  0
 17  2  1  0  0  0  0
 18  8  1  0  0  0  0
 18 25  1  0  0  0  0
 19 18  1  0  0  0  0
 20  3  1  0  0  0  0
 21 27  1  0  0  0  0
 21 13  1  0  0  0  0
 22  2  1  0  0  0  0
 23 10  1  0  0  0  0
 26  8  1  0  0  0  0
 27 25  1  0  0  0  0
 28 15  1  0  0  0  0
 28 23  1  0  0  0  0
 29 30  1  0  0  0  0
 30 23  1  0  0  0  0
 30 31  2  0  0  0  0
 33 34  2  0  0  0  0
 34 31  1  0  0  0  0
 34 32  1  0  0  0  0
 35 29  2  0  0  0  0
 35 33  1  0  0  0  0
 36 37  1  0  0  0  0
 37  4  1  0  0  0  0
M  END
>  <MODEL>
7

>  <REMARK>
 VINA RESULT:      -7.0      3.149      5.951
  Name = 
  2 active torsions:
  status: ('A' for Active; 'I' for Inactive)
    1  A    between atoms: C_4  and  N_37
    2  A    between atoms: C_23  and  C_30
                            x       y       z     vdW  Elec       q    Type
                         _______ _______ _______ _____ _____    ______ ____

>  <TORSDO>
F 2

$$$$
=
 OpenBabel11112417113D

 37 43  0  0  1  0  0  0  0  0999 V2000
  191.5340  173.1830  141.2310 C   0  0  0  0  0  2  0  0  0  0  0  0
  189.6860  174.6900  146.3850 C   0  0  0  0  0  0  0  0  0  0  0  0
  192.8450  174.2170  143.9980 C   0  0  1  0  0  3  0  0  0  0  0  0
  190.8960  173.2690  139.8400 C   0  0  2  0  0  3  0  0  0  0  0  0
  193.2130  170.5830  142.6420 C   0  0  0  0  0  2  0  0  0  0  0  0
  191.2740  176.0470  144.9830 C   0  0  2  0  0  3  0  0  0  0  0  0
  192.5780  172.7200  143.9500 C   0  0  2  0  0  3  0  0  0  0  0  0
  191.2000  170.7090  139.4480 C   0  0  2  0  0  3  0  0  0  0  0  0
  191.4590  174.8450  144.0300 C   0  0  2  0  0  3  0  0  0  0  0  0
  193.6230  171.9820  143.0860 C   0  0  1  0  0  3  0  0  0  0  0  0
  192.5380  176.9090  145.0070 C   0  0  0  0  0  2  0  0  0  0  0  0
  190.3080  171.9540  139.3040 C   0  0  0  0  0  2  0  0  0  0  0  0
  190.4660  173.6910  144.1840 C   0  0  2  0  0  3  0  0  0  0  0  0
  188.5940  175.2910  145.7810 F   0  0  0  0  0  0  0  0  0  0  0  0
  195.0490  173.9370  145.3420 C   0  0  0  0  0  2  0  0  0  0  0  0
  193.8190  176.1260  145.3500 C   0  0  0  0  0  2  0  0  0  0  0  0
  190.0710  173.4200  145.6410 C   0  0  0  0  0  2  0  0  0  0  0  0
  191.5560  170.3050  140.8970 C   0  0  1  0  0  3  0  0  0  0  0  0
  192.9570  170.6220  141.2090 N   0  0  0  0  0  2  0  0  0  0  0  0
  193.6730  174.6060  145.2300 C   0  0  1  0  0  3  0  0  0  0  0  0
  191.1390  172.5050  143.6590 N   0  0  1  0  0  0  0  0  0  0  0  0
  190.8740  175.6400  146.4010 C   0  0  0  0  0  2  0  0  0  0  0  0
  195.0240  171.9590  143.7270 C   0  0  1  0  0  3  0  0  0  0  0  0
  189.3550  174.3650  147.6870 F   0  0  0  0  0  0  0  0  0  0  0  0
  190.5380  170.8670  141.9150 C   0  0  0  0  0  2  0  0  0  0  0  0
  192.3260  170.7970  138.6270 O   0  0  0  0  0  1  0  0  0  0  0  0
  190.7230  172.3540  142.2500 C   0  0  2  0  0  3  0  0  0  0  0  0
  195.5980  173.3480  144.0390 C   0  0  0  0  0  2  0  0  0  0  0  0
  194.1010  170.5810  145.6050 C   0  0  0  0  0  3  0  0  0  0  0  0
  195.2100  170.9640  144.8420 C   0  0  0  0  0  0  0  0  0  0  0  0
  196.4650  170.3990  145.1170 C   0  0  0  0  0  3  0  0  0  0  0  0
  197.9410  168.8780  146.4370 C   0  0  0  0  0  1  0  0  0  0  0  0
  195.4980  169.0940  146.9110 C   0  0  0  0  0  3  0  0  0  0  0  0
  196.6080  169.4690  146.1500 C   0  0  0  0  0  0  0  0  0  0  0  0
  194.2440  169.6510  146.6380 C   0  0  0  0  0  3  0  0  0  0  0  0
  193.0700  174.1040  139.6300 C   0  0  0  0  0  1  0  0  0  0  0  0
  191.8540  173.8100  138.8910 N   0  0  0  0  0  2  0  0  0  0  0  0
  1 27  1  0  0  0  0
  2 22  1  0  0  0  0
  2 24  1  0  0  0  0
  3  9  1  0  0  0  0
  3 20  1  0  0  0  0
  4  1  1  0  0  0  0
  5 10  1  0  0  0  0
  6 11  1  0  0  0  0
  6 22  1  0  0  0  0
  7  3  1  0  0  0  0
  8 18  1  0  0  0  0
  9 13  1  0  0  0  0
  9  6  1  0  0  0  0
 10 23  1  0  0  0  0
 10  7  1  0  0  0  0
 11 16  1  0  0  0  0
 12  8  1  0  0  0  0
 12  4  1  0  0  0  0
 13 17  1  0  0  0  0
 14  2  1  0  0  0  0
 17  2  1  0  0  0  0
 18 19  1  0  0  0  0
 18 25  1  0  0  0  0
 19  5  1  0  0  0  0
 20 15  1  0  0  0  0
 20 16  1  0  0  0  0
 21  7  1  0  0  0  0
 21 13  1  0  0  0  0
 23 28  1  0  0  0  0
 23 30  1  0  0  0  0
 25 27  1  0  0  0  0
 26  8  1  0  0  0  0
 27 21  1  0  0  0  0
 28 15  1  0  0  0  0
 29 35  1  0  0  0  0
 30 31  1  0  0  0  0
 30 29  2  0  0  0  0
 31 34  2  0  0  0  0
 34 32  1  0  0  0  0
 34 33  1  0  0  0  0
 35 33  2  0  0  0  0
 37 36  1  0  0  0  0
 37  4  1  0  0  0  0
M  END
>  <MODEL>
8

>  <REMARK>
 VINA RESULT:      -6.8      2.818      5.955
  Name = 
  2 active torsions:
  status: ('A' for Active; 'I' for Inactive)
    1  A    between atoms: C_4  and  N_37
    2  A    between atoms: C_23  and  C_30
                            x       y       z     vdW  Elec       q    Type
                         _______ _______ _______ _____ _____    ______ ____

>  <TORSDO>
F 2

$$$$
=
 OpenBabel11112417113D

 37 43  0  0  1  0  0  0  0  0999 V2000
  195.8150  171.0240  143.4620 C   0  0  0  0  0  2  0  0  0  0  0  0
  195.0930  174.8030  139.2860 C   0  0  0  0  0  0  0  0  0  0  0  0
  195.8660  174.2400  143.1570 C   0  0  1  0  0  3  0  0  0  0  0  0
  196.3490  169.5870  143.4740 C   0  0  2  0  0  3  0  0  0  0  0  0
  193.0590  172.2780  145.0130 C   0  0  0  0  0  2  0  0  0  0  0  0
  197.0280  174.8010  140.8930 C   0  0  2  0  0  3  0  0  0  0  0  0
  194.4770  173.6500  143.3430 C   0  0  2  0  0  3  0  0  0  0  0  0
  194.1650  168.6920  144.5820 C   0  0  2  0  0  3  0  0  0  0  0  0
  196.2940  173.7670  141.7750 C   0  0  2  0  0  3  0  0  0  0  0  0
  194.2240  173.2380  144.8100 C   0  0  1  0  0  3  0  0  0  0  0  0
  197.9410  175.6810  141.7510 C   0  0  0  0  0  2  0  0  0  0  0  0
  195.2770  168.4870  143.5380 C   0  0  0  0  0  2  0  0  0  0  0  0
  195.0720  173.0840  141.1560 C   0  0  2  0  0  3  0  0  0  0  0  0
  195.7620  173.9400  138.4340 F   0  0  0  0  0  0  0  0  0  0  0  0
  195.3290  176.3480  144.5750 C   0  0  0  0  0  2  0  0  0  0  0  0
  197.2200  176.3690  142.9240 C   0  0  0  0  0  2  0  0  0  0  0  0
  194.2380  174.0190  140.2710 C   0  0  0  0  0  2  0  0  0  0  0  0
  193.2870  169.9490  144.3860 C   0  0  1  0  0  3  0  0  0  0  0  0
  193.6040  170.9800  145.3850 N   0  0  0  0  0  2  0  0  0  0  0  0
  195.8490  175.7720  143.2520 C   0  0  1  0  0  3  0  0  0  0  0  0
  194.2430  172.6460  142.2750 N   0  0  1  0  0  0  0  0  0  0  0  0
  196.0830  175.6640  140.0570 C   0  0  0  0  0  2  0  0  0  0  0  0
  194.1050  174.4450  145.7600 C   0  0  1  0  0  3  0  0  0  0  0  0
  194.2740  175.6260  138.5360 F   0  0  0  0  0  0  0  0  0  0  0  0
  193.3230  170.4510  142.9260 C   0  0  0  0  0  2  0  0  0  0  0  0
  194.6660  168.5880  145.8810 O   0  0  0  0  0  1  0  0  0  0  0  0
  194.5880  171.2370  142.5490 C   0  0  2  0  0  3  0  0  0  0  0  0
  195.3270  175.3740  145.7570 C   0  0  0  0  0  2  0  0  0  0  0  0
  192.0460  175.3110  146.8930 C   0  0  0  0  0  3  0  0  0  0  0  0
  192.7900  175.1770  145.7160 C   0  0  0  0  0  0  0  0  0  0  0  0
  192.3070  175.7440  144.5260 C   0  0  0  0  0  3  0  0  0  0  0  0
  190.5820  177.0230  143.2510 C   0  0  0  0  0  1  0  0  0  0  0  0
  190.3480  176.5540  145.6930 C   0  0  0  0  0  3  0  0  0  0  0  0
  191.0880  176.4280  144.5150 C   0  0  0  0  0  0  0  0  0  0  0  0
  190.8270  175.9950  146.8830 C   0  0  0  0  0  3  0  0  0  0  0  0
  197.4420  170.7180  145.2030 C   0  0  0  0  0  1  0  0  0  0  0  0
  197.2980  169.4230  144.5610 N   0  0  0  0  0  2  0  0  0  0  0  0
  1  4  1  0  0  0  0
  2 22  1  0  0  0  0
  2 17  1  0  0  0  0
  3 20  1  0  0  0  0
  3  7  1  0  0  0  0
  4 12  1  0  0  0  0
  4 37  1  0  0  0  0
  5 19  1  0  0  0  0
  6 11  1  0  0  0  0
  6  9  1  0  0  0  0
  7 10  1  0  0  0  0
  8 26  1  0  0  0  0
  9  3  1  0  0  0  0
 10  5  1  0  0  0  0
 10 23  1  0  0  0  0
 11 16  1  0  0  0  0
 12  8  1  0  0  0  0
 13  9  1  0  0  0  0
 13 21  1  0  0  0  0
 14  2  1  0  0  0  0
 15 28  1  0  0  0  0
 16 20  1  0  0  0  0
 17 13  1  0  0  0  0
 18  8  1  0  0  0  0
 18 19  1  0  0  0  0
 20 15  1  0  0  0  0
 21 27  1  0  0  0  0
 21  7  1  0  0  0  0
 22  6  1  0  0  0  0
 24  2  1  0  0  0  0
 25 18  1  0  0  0  0
 27 25  1  0  0  0  0
 27  1  1  0  0  0  0
 28 23  1  0  0  0  0
 30 23  1  0  0  0  0
 30 29  2  0  0  0  0
 31 30  1  0  0  0  0
 32 34  1  0  0  0  0
 33 35  2  0  0  0  0
 34 31  2  0  0  0  0
 34 33  1  0  0  0  0
 35 29  1  0  0  0  0
 37 36  1  0  0  0  0
M  END
>  <MODEL>
9

>  <REMARK>
 VINA RESULT:      -6.7      3.455      6.560
  Name = 
  2 active torsions:
  status: ('A' for Active; 'I' for Inactive)
    1  A    between atoms: C_4  and  N_37
    2  A    between atoms: C_23  and  C_30
                            x       y       z     vdW  Elec       q    Type
                         _______ _______ _______ _____ _____    ______ ____

>  <TORSDO>
F 2

$$$$
