=
 OpenBabel11112416513D

 31 35  0  0  1  0  0  0  0  0999 V2000
  195.1300  175.7900  144.3510 C   0  0  0  0  0  0  0  0  0  0  0  0
  191.4770  176.7770  143.7990 C   0  0  2  0  0  3  0  0  0  0  0  0
  190.7660  175.5910  143.1570 C   0  0  0  0  0  0  0  0  0  0  0  0
  190.7990  173.3470  141.9990 C   0  0  0  0  0  0  0  0  0  0  0  0
  192.7710  176.3790  144.4590 C   0  0  0  0  0  0  0  0  0  0  0  0
  195.1220  175.2580  145.7560 C   0  0  0  0  0  2  0  0  0  0  0  0
  191.5910  174.5430  142.4370 C   0  0  0  0  0  2  0  0  0  0  0  0
  190.4100  176.6990  146.0300 N   0  0  0  0  0  0  0  0  0  0  0  0
  196.1980  175.7880  143.6870 O   0  0  0  0  0  0  0  0  0  0  0  0
  188.6560  176.6050  143.6530 O   0  0  0  0  0  0  0  0  0  0  0  0
  191.3970  172.3150  141.5980 O   0  0  0  0  0  0  0  0  0  0  0  0
  191.6800  176.6830  146.7630 C   0  0  0  0  0  2  0  0  0  0  0  0
  190.5780  177.5180  144.8130 C   0  0  2  0  0  3  0  0  0  0  0  0
  193.8780  176.2360  143.7250 C   0  0  0  0  0  3  0  0  0  0  0  0
  189.3340  173.3890  141.9810 C   0  0  0  0  0  3  0  0  0  0  0  0
  192.8070  176.1640  145.9240 C   0  0  0  0  0  0  0  0  0  0  0  0
  193.9130  175.7140  146.5270 C   0  0  0  0  0  3  0  0  0  0  0  0
  189.2460  177.8140  144.1190 C   0  0  0  0  0  2  0  0  0  0  0  0
  189.4140  175.5690  143.0980 C   0  0  0  0  0  0  0  0  0  0  0  0
  188.6910  174.4380  142.4880 C   0  0  0  0  0  3  0  0  0  0  0  0
  189.4500  177.3350  146.9280 C   0  0  0  0  0  2  0  0  0  0  0  0
  188.3570  175.2260  146.9430 O   0  0  0  0  0  0  0  0  0  0  0  0
  188.2330  176.4730  147.0610 C   0  0  0  0  0  0  0  0  0  0  0  0
  184.5680  178.2500  146.3730 C   0  0  1  0  0  3  0  0  0  0  0  0
  185.8290  176.3010  146.9210 O   0  0  0  0  0  0  0  0  0  0  0  0
  187.5100  178.9600  148.4650 O   0  0  0  0  0  0  0  0  0  0  0  0
  183.8810  178.9840  145.2410 C   0  0  0  0  0  1  0  0  0  0  0  0
  185.2150  176.9650  145.8460 C   0  0  0  0  0  2  0  0  0  0  0  0
  186.7240  178.4020  147.6530 C   0  0  0  0  0  0  0  0  0  0  0  0
  186.9270  177.0430  147.2350 N   0  0  0  0  0  0  0  0  0  0  0  0
  185.5970  179.1770  147.0390 C   0  0  0  0  0  2  0  0  0  0  0  0
  1  6  1  0  0  0  0
  2  3  1  1  0  0  0
  2  5  1  0  0  0  0
  2 13  1  0  0  0  0
  4  7  1  0  0  0  0
  5 16  1  0  0  0  0
  6 17  1  0  0  0  0
  7  3  1  0  0  0  0
  8 12  1  0  0  0  0
  8 21  1  0  0  0  0
  9  1  2  0  0  0  0
 10 18  1  0  0  0  0
 11  4  2  0  0  0  0
 13 18  1  6  0  0  0
 13  8  1  0  0  0  0
 14  1  1  0  0  0  0
 14  5  2  0  0  0  0
 15  4  1  0  0  0  0
 15 20  2  0  0  0  0
 16 17  2  0  0  0  0
 16 12  1  0  0  0  0
 19  3  2  0  0  0  0
 19 10  1  0  0  0  0
 20 19  1  0  0  0  0
 21 23  1  0  0  0  0
 22 23  2  0  0  0  0
 23 30  1  0  0  0  0
 24 27  1  6  0  0  0
 24 31  1  0  0  0  0
 25 30  1  0  0  0  0
 28 24  1  0  0  0  0
 28 25  1  0  0  0  0
 29 26  2  0  0  0  0
 30 29  1  0  0  0  0
 31 29  1  0  0  0  0
M  END
>  <MODEL>
1

>  <REMARK>
 VINA RESULT:      -8.8      0.000      0.000
  Name = 
  2 active torsions:
  status: ('A' for Active; 'I' for Inactive)
    1  A    between atoms: C_5  and  C_16
    2  A    between atoms: N_10  and  C_16
                            x       y       z     vdW  Elec       q    Type
                         _______ _______ _______ _____ _____    ______ ____

>  <TORSDO>
F 2

$$$$
=
 OpenBabel11112416513D

 31 35  0  0  1  0  0  0  0  0999 V2000
  185.2100  178.2140  147.2660 C   0  0  0  0  0  0  0  0  0  0  0  0
  187.5030  175.9030  145.2600 C   0  0  2  0  0  3  0  0  0  0  0  0
  187.4190  176.3200  143.7960 C   0  0  0  0  0  0  0  0  0  0  0  0
  186.3320  177.6070  141.9150 C   0  0  0  0  0  0  0  0  0  0  0  0
  187.0110  176.9790  146.1900 C   0  0  0  0  0  0  0  0  0  0  0  0
  186.1420  179.3060  147.7060 C   0  0  0  0  0  2  0  0  0  0  0  0
  186.2170  177.1140  143.3260 C   0  0  0  0  0  2  0  0  0  0  0  0
  189.8110  176.6550  145.7400 N   0  0  0  0  0  0  0  0  0  0  0  0
  183.9930  178.2670  147.5760 O   0  0  0  0  0  0  0  0  0  0  0  0
  189.3660  175.0090  143.3250 O   0  0  0  0  0  0  0  0  0  0  0  0
  185.5140  178.4610  141.4840 O   0  0  0  0  0  0  0  0  0  0  0  0
  189.4300  177.4480  146.9130 C   0  0  0  0  0  2  0  0  0  0  0  0
  188.9300  175.4720  145.6640 C   0  0  2  0  0  3  0  0  0  0  0  0
  185.7010  177.1270  146.4070 C   0  0  0  0  0  3  0  0  0  0  0  0
  187.3550  177.0640  141.0170 C   0  0  0  0  0  3  0  0  0  0  0  0
  187.9910  177.8580  146.8710 C   0  0  0  0  0  0  0  0  0  0  0  0
  187.5850  178.8870  147.6240 C   0  0  0  0  0  3  0  0  0  0  0  0
  189.4130  174.4480  144.6330 C   0  0  0  0  0  2  0  0  0  0  0  0
  188.3270  175.8480  142.9090 C   0  0  0  0  0  0  0  0  0  0  0  0
  188.2800  176.2320  141.4860 C   0  0  0  0  0  3  0  0  0  0  0  0
  191.1870  176.2330  145.9840 C   0  0  0  0  0  2  0  0  0  0  0  0
  191.5410  177.2690  143.8760 O   0  0  0  0  0  0  0  0  0  0  0  0
  192.0700  176.7220  144.8780 C   0  0  0  0  0  0  0  0  0  0  0  0
  195.8150  175.0090  144.5480 C   0  0  1  0  0  3  0  0  0  0  0  0
  194.1890  176.5530  143.7340 O   0  0  0  0  0  0  0  0  0  0  0  0
  193.8520  176.6020  147.2210 O   0  0  0  0  0  0  0  0  0  0  0  0
  196.3930  173.6240  144.3500 C   0  0  0  0  0  1  0  0  0  0  0  0
  194.6930  175.2560  143.5340 C   0  0  0  0  0  2  0  0  0  0  0  0
  194.2000  176.1500  146.0980 C   0  0  0  0  0  0  0  0  0  0  0  0
  193.4890  176.5030  144.9010 N   0  0  0  0  0  0  0  0  0  0  0  0
  195.3230  175.1610  145.9960 C   0  0  0  0  0  2  0  0  0  0  0  0
  1  9  2  0  0  0  0
  1  6  1  0  0  0  0
  2  3  1  6  0  0  0
  2 13  1  0  0  0  0
  2  5  1  0  0  0  0
  4  7  1  0  0  0  0
  5 14  2  0  0  0  0
  5 16  1  0  0  0  0
  7  3  1  0  0  0  0
  8 21  1  0  0  0  0
  8 12  1  0  0  0  0
 10 18  1  0  0  0  0
 11  4  2  0  0  0  0
 13 18  1  6  0  0  0
 13  8  1  0  0  0  0
 14  1  1  0  0  0  0
 15 20  2  0  0  0  0
 15  4  1  0  0  0  0
 16 12  1  0  0  0  0
 16 17  2  0  0  0  0
 17  6  1  0  0  0  0
 19 10  1  0  0  0  0
 19  3  2  0  0  0  0
 20 19  1  0  0  0  0
 22 23  2  0  0  0  0
 23 30  1  0  0  0  0
 23 21  1  0  0  0  0
 24 27  1  1  0  0  0
 24 31  1  0  0  0  0
 25 30  1  0  0  0  0
 28 25  1  0  0  0  0
 28 24  1  0  0  0  0
 29 26  2  0  0  0  0
 30 29  1  0  0  0  0
 31 29  1  0  0  0  0
M  END
>  <MODEL>
2

>  <REMARK>
 VINA RESULT:      -8.0      2.159      7.247
  Name = 
  2 active torsions:
  status: ('A' for Active; 'I' for Inactive)
    1  A    between atoms: C_5  and  C_16
    2  A    between atoms: N_10  and  C_16
                            x       y       z     vdW  Elec       q    Type
                         _______ _______ _______ _____ _____    ______ ____

>  <TORSDO>
F 2

$$$$
=
 OpenBabel11112416513D

 31 35  0  0  1  0  0  0  0  0999 V2000
  194.1590  170.4940  144.9730 C   0  0  0  0  0  0  0  0  0  0  0  0
  194.5120  174.2190  145.7620 C   0  0  2  0  0  3  0  0  0  0  0  0
  195.4080  174.8380  144.6960 C   0  0  0  0  0  0  0  0  0  0  0  0
  197.0370  174.6350  142.7770 C   0  0  0  0  0  0  0  0  0  0  0  0
  193.9450  172.8920  145.3330 C   0  0  0  0  0  0  0  0  0  0  0  0
  192.9080  170.4470  144.1430 C   0  0  0  0  0  2  0  0  0  0  0  0
  196.3360  173.9380  143.9040 C   0  0  0  0  0  2  0  0  0  0  0  0
  192.3650  175.2570  145.1040 N   0  0  0  0  0  0  0  0  0  0  0  0
  194.7970  169.4350  145.2040 O   0  0  0  0  0  0  0  0  0  0  0  0
  194.7190  177.0190  145.4020 O   0  0  0  0  0  0  0  0  0  0  0  0
  197.6520  173.9600  141.9110 O   0  0  0  0  0  0  0  0  0  0  0  0
  191.6410  173.9840  145.0270 C   0  0  0  0  0  2  0  0  0  0  0  0
  193.3670  175.1660  146.1840 C   0  0  2  0  0  3  0  0  0  0  0  0
  194.6820  171.7830  145.4460 C   0  0  0  0  0  3  0  0  0  0  0  0
  197.0590  176.0990  142.7040 C   0  0  0  0  0  3  0  0  0  0  0  0
  192.5640  172.8260  144.8000 C   0  0  0  0  0  0  0  0  0  0  0  0
  192.0660  171.6830  144.3170 C   0  0  0  0  0  3  0  0  0  0  0  0
  193.9900  176.5240  146.5200 C   0  0  0  0  0  2  0  0  0  0  0  0
  195.4840  176.1840  144.5790 C   0  0  0  0  0  0  0  0  0  0  0  0
  196.3370  176.8200  143.5590 C   0  0  0  0  0  3  0  0  0  0  0  0
  191.3570  176.2580  145.4460 C   0  0  0  0  0  2  0  0  0  0  0  0
  190.5810  176.3100  143.2010 O   0  0  0  0  0  0  0  0  0  0  0  0
  190.2680  176.2510  144.4190 C   0  0  0  0  0  0  0  0  0  0  0  0
  186.5100  177.4590  145.6370 C   0  0  1  0  0  3  0  0  0  0  0  0
  187.9520  176.6900  143.8990 O   0  0  0  0  0  0  0  0  0  0  0  0
  189.0230  175.0340  146.7950 O   0  0  0  0  0  0  0  0  0  0  0  0
  185.8790  178.6930  146.2460 C   0  0  0  0  0  1  0  0  0  0  0  0
  187.3950  177.8560  144.4510 C   0  0  0  0  0  2  0  0  0  0  0  0
  188.4360  175.9200  146.1180 C   0  0  0  0  0  0  0  0  0  0  0  0
  188.8820  176.2630  144.7970 N   0  0  0  0  0  0  0  0  0  0  0  0
  187.3010  176.6990  146.7120 C   0  0  0  0  0  2  0  0  0  0  0  0
  1  9  2  0  0  0  0
  1 14  1  0  0  0  0
  2  3  1  6  0  0  0
  2 13  1  0  0  0  0
  4  7  1  0  0  0  0
  5 14  2  0  0  0  0
  5  2  1  0  0  0  0
  6 17  1  0  0  0  0
  6  1  1  0  0  0  0
  7  3  1  0  0  0  0
  8 21  1  0  0  0  0
  8 13  1  0  0  0  0
 10 18  1  0  0  0  0
 11  4  2  0  0  0  0
 12  8  1  0  0  0  0
 13 18  1  6  0  0  0
 15  4  1  0  0  0  0
 15 20  2  0  0  0  0
 16 12  1  0  0  0  0
 16  5  1  0  0  0  0
 17 16  2  0  0  0  0
 19  3  2  0  0  0  0
 19 10  1  0  0  0  0
 20 19  1  0  0  0  0
 22 23  2  0  0  0  0
 23 30  1  0  0  0  0
 23 21  1  0  0  0  0
 24 27  1  1  0  0  0
 24 31  1  0  0  0  0
 25 28  1  0  0  0  0
 25 30  1  0  0  0  0
 28 24  1  0  0  0  0
 29 31  1  0  0  0  0
 29 26  2  0  0  0  0
 30 29  1  0  0  0  0
M  END
>  <MODEL>
3

>  <REMARK>
 VINA RESULT:      -7.9      2.478      4.843
  Name = 
  2 active torsions:
  status: ('A' for Active; 'I' for Inactive)
    1  A    between atoms: C_5  and  C_16
    2  A    between atoms: N_10  and  C_16
                            x       y       z     vdW  Elec       q    Type
                         _______ _______ _______ _____ _____    ______ ____

>  <TORSDO>
F 2

$$$$
=
 OpenBabel11112416513D

 31 35  0  0  1  0  0  0  0  0999 V2000
  185.3070  179.4160  143.7690 C   0  0  0  0  0  0  0  0  0  0  0  0
  188.5890  177.4550  143.6770 C   0  0  2  0  0  3  0  0  0  0  0  0
  188.6540  176.5980  144.9350 C   0  0  0  0  0  0  0  0  0  0  0  0
  187.8290  175.9720  147.2390 C   0  0  0  0  0  0  0  0  0  0  0  0
  187.1900  177.9240  143.3770 C   0  0  0  0  0  0  0  0  0  0  0  0
  184.3680  178.5290  143.0030 C   0  0  0  0  0  2  0  0  0  0  0  0
  187.8060  176.9820  146.1310 C   0  0  0  0  0  2  0  0  0  0  0  0
  188.2570  175.6580  142.0080 N   0  0  0  0  0  0  0  0  0  0  0  0
  184.8870  180.4930  144.2630 O   0  0  0  0  0  0  0  0  0  0  0  0
  190.4470  175.3400  143.9680 O   0  0  0  0  0  0  0  0  0  0  0  0
  186.9980  176.0590  148.1800 O   0  0  0  0  0  0  0  0  0  0  0  0
  187.0660  176.2730  141.4140 C   0  0  0  0  0  2  0  0  0  0  0  0
  189.1740  176.7300  142.4450 C   0  0  2  0  0  3  0  0  0  0  0  0
  186.6910  178.9890  144.0110 C   0  0  0  0  0  3  0  0  0  0  0  0
  188.8440  174.9160  147.2630 C   0  0  0  0  0  3  0  0  0  0  0  0
  186.3810  177.2050  142.3640 C   0  0  0  0  0  0  0  0  0  0  0  0
  185.1030  177.5330  142.1460 C   0  0  0  0  0  3  0  0  0  0  0  0
  190.5550  176.1960  142.8360 C   0  0  0  0  0  2  0  0  0  0  0  0
  189.5750  175.6100  145.0290 C   0  0  0  0  0  0  0  0  0  0  0  0
  189.6670  174.7580  146.2290 C   0  0  0  0  0  3  0  0  0  0  0  0
  188.8750  174.8850  140.9340 C   0  0  0  0  0  2  0  0  0  0  0  0
  187.7220  172.8480  141.3400 O   0  0  0  0  0  0  0  0  0  0  0  0
  188.8370  173.4280  141.2740 C   0  0  0  0  0  0  0  0  0  0  0  0
  192.0870  171.8700  143.2930 C   0  0  1  0  0  3  0  0  0  0  0  0
  189.9360  171.5470  142.3150 O   0  0  0  0  0  0  0  0  0  0  0  0
  191.5620  173.8550  140.2400 O   0  0  0  0  0  0  0  0  0  0  0  0
  192.8120  172.1200  144.5990 C   0  0  0  0  0  1  0  0  0  0  0  0
  190.5770  171.7940  143.5400 C   0  0  0  0  0  2  0  0  0  0  0  0
  191.3460  173.1940  141.2910 C   0  0  0  0  0  0  0  0  0  0  0  0
  190.0330  172.7050  141.6060 N   0  0  0  0  0  0  0  0  0  0  0  0
  192.4470  172.9710  142.2840 C   0  0  0  0  0  2  0  0  0  0  0  0
  1 14  1  0  0  0  0
  1  9  2  0  0  0  0
  2  5  1  6  0  0  0
  2  3  1  0  0  0  0
  3 19  2  0  0  0  0
  3  7  1  0  0  0  0
  4 15  1  0  0  0  0
  4 11  2  0  0  0  0
  5 14  2  0  0  0  0
  6  1  1  0  0  0  0
  7  4  1  0  0  0  0
  8 13  1  0  0  0  0
 10 19  1  0  0  0  0
 12  8  1  0  0  0  0
 12 16  1  0  0  0  0
 13 18  1  1  0  0  0
 13  2  1  0  0  0  0
 16  5  1  0  0  0  0
 17 16  2  0  0  0  0
 17  6  1  0  0  0  0
 18 10  1  0  0  0  0
 19 20  1  0  0  0  0
 20 15  2  0  0  0  0
 21 23  1  0  0  0  0
 21  8  1  0  0  0  0
 23 22  2  0  0  0  0
 23 30  1  0  0  0  0
 24 28  1  0  0  0  0
 24 27  1  1  0  0  0
 25 28  1  0  0  0  0
 26 29  2  0  0  0  0
 29 30  1  0  0  0  0
 29 31  1  0  0  0  0
 30 25  1  0  0  0  0
 31 24  1  0  0  0  0
M  END
>  <MODEL>
4

>  <REMARK>
 VINA RESULT:      -7.8      2.892      7.622
  Name = 
  2 active torsions:
  status: ('A' for Active; 'I' for Inactive)
    1  A    between atoms: C_5  and  C_16
    2  A    between atoms: N_10  and  C_16
                            x       y       z     vdW  Elec       q    Type
                         _______ _______ _______ _____ _____    ______ ____

>  <TORSDO>
F 2

$$$$
=
 OpenBabel11112416513D

 31 35  0  0  1  0  0  0  0  0999 V2000
  186.3760  177.1710  142.3920 C   0  0  0  0  0  0  0  0  0  0  0  0
  189.1680  174.8960  143.6790 C   0  0  2  0  0  3  0  0  0  0  0  0
  189.4590  173.8600  142.6000 C   0  0  0  0  0  0  0  0  0  0  0  0
  188.8690  172.6660  140.4540 C   0  0  0  0  0  0  0  0  0  0  0  0
  188.4250  176.0890  143.1400 C   0  0  0  0  0  0  0  0  0  0  0  0
  187.1350  178.3010  141.7570 C   0  0  0  0  0  2  0  0  0  0  0  0
  188.4010  173.5730  141.5530 C   0  0  0  0  0  2  0  0  0  0  0  0
  191.2520  176.2190  143.5090 N   0  0  0  0  0  0  0  0  0  0  0  0
  185.1190  177.1660  142.3630 O   0  0  0  0  0  0  0  0  0  0  0  0
  191.4920  173.2810  143.7240 O   0  0  0  0  0  0  0  0  0  0  0  0
  188.1710  172.5340  139.4150 O   0  0  0  0  0  0  0  0  0  0  0  0
  190.5600  177.5010  143.3460 C   0  0  0  0  0  2  0  0  0  0  0  0
  190.4500  175.3600  144.4040 C   0  0  2  0  0  3  0  0  0  0  0  0
  187.1000  176.0320  142.9740 C   0  0  0  0  0  3  0  0  0  0  0  0
  190.1030  171.8900  140.6030 C   0  0  0  0  0  3  0  0  0  0  0  0
  189.1710  177.3270  142.8130 C   0  0  0  0  0  0  0  0  0  0  0  0
  188.5590  178.3680  142.2400 C   0  0  0  0  0  3  0  0  0  0  0  0
  191.2100  174.1080  144.8480 C   0  0  0  0  0  2  0  0  0  0  0  0
  190.5770  173.1010  142.6800 C   0  0  0  0  0  0  0  0  0  0  0  0
  190.8940  172.0910  141.6540 C   0  0  0  0  0  3  0  0  0  0  0  0
  192.5270  176.5420  144.1440 C   0  0  0  0  0  2  0  0  0  0  0  0
  193.5240  176.0450  142.0450 O   0  0  0  0  0  0  0  0  0  0  0  0
  193.6550  176.0400  143.2980 C   0  0  0  0  0  0  0  0  0  0  0  0
  196.3500  173.4610  145.0730 C   0  0  1  0  0  3  0  0  0  0  0  0
  195.6260  174.6550  143.1380 O   0  0  0  0  0  0  0  0  0  0  0  0
  194.9380  176.7690  145.8470 O   0  0  0  0  0  0  0  0  0  0  0  0
  196.3140  172.1140  145.7620 C   0  0  0  0  0  1  0  0  0  0  0  0
  195.5600  173.3970  143.7610 C   0  0  0  0  0  2  0  0  0  0  0  0
  195.1930  175.6820  145.2610 C   0  0  0  0  0  0  0  0  0  0  0  0
  194.8390  175.4780  143.8850 N   0  0  0  0  0  0  0  0  0  0  0  0
  195.8020  174.5410  146.0180 C   0  0  0  0  0  2  0  0  0  0  0  0
  1 14  1  0  0  0  0
  2  3  1  6  0  0  0
  2 13  1  0  0  0  0
  3 19  2  0  0  0  0
  4 15  1  0  0  0  0
  4  7  1  0  0  0  0
  5  2  1  0  0  0  0
  6 17  1  0  0  0  0
  6  1  1  0  0  0  0
  7  3  1  0  0  0  0
  8 21  1  0  0  0  0
  8 13  1  0  0  0  0
  9  1  2  0  0  0  0
 10 18  1  0  0  0  0
 11  4  2  0  0  0  0
 12  8  1  0  0  0  0
 13 18  1  6  0  0  0
 14  5  2  0  0  0  0
 15 20  2  0  0  0  0
 16  5  1  0  0  0  0
 16 12  1  0  0  0  0
 17 16  2  0  0  0  0
 19 10  1  0  0  0  0
 20 19  1  0  0  0  0
 22 23  2  0  0  0  0
 23 30  1  0  0  0  0
 23 21  1  0  0  0  0
 24 27  1  1  0  0  0
 24 31  1  0  0  0  0
 25 28  1  0  0  0  0
 25 30  1  0  0  0  0
 28 24  1  0  0  0  0
 29 26  2  0  0  0  0
 29 31  1  0  0  0  0
 30 29  1  0  0  0  0
M  END
>  <MODEL>
5

>  <REMARK>
 VINA RESULT:      -7.7      3.176      7.290
  Name = 
  2 active torsions:
  status: ('A' for Active; 'I' for Inactive)
    1  A    between atoms: C_5  and  C_16
    2  A    between atoms: N_10  and  C_16
                            x       y       z     vdW  Elec       q    Type
                         _______ _______ _______ _____ _____    ______ ____

>  <TORSDO>
F 2

$$$$
=
 OpenBabel11112416513D

 31 35  0  0  1  0  0  0  0  0999 V2000
  187.4040  177.7430  142.2420 C   0  0  0  0  0  0  0  0  0  0  0  0
  190.9930  176.7350  143.0950 C   0  0  2  0  0  3  0  0  0  0  0  0
  191.1180  176.6980  144.6130 C   0  0  0  0  0  0  0  0  0  0  0  0
  190.2440  177.2200  146.9250 C   0  0  0  0  0  0  0  0  0  0  0  0
  189.5600  176.6830  142.6380 C   0  0  0  0  0  0  0  0  0  0  0  0
  186.7140  176.4180  142.0920 C   0  0  0  0  0  2  0  0  0  0  0  0
  190.1200  177.4710  145.4520 C   0  0  0  0  0  2  0  0  0  0  0  0
  191.1410  174.3070  142.6410 N   0  0  0  0  0  0  0  0  0  0  0  0
  186.7510  178.8090  142.1050 O   0  0  0  0  0  0  0  0  0  0  0  0
  193.1870  175.5130  144.4000 O   0  0  0  0  0  0  0  0  0  0  0  0
  189.3390  177.6170  147.7040 O   0  0  0  0  0  0  0  0  0  0  0  0
  189.9070  174.2640  141.8500 C   0  0  0  0  0  2  0  0  0  0  0  0
  191.8010  175.6080  142.4150 C   0  0  2  0  0  3  0  0  0  0  0  0
  188.8210  177.7970  142.6290 C   0  0  0  0  0  3  0  0  0  0  0  0
  191.4350  176.5640  147.4710 C   0  0  0  0  0  3  0  0  0  0  0  0
  188.9840  175.3950  142.1860 C   0  0  0  0  0  0  0  0  0  0  0  0
  187.6890  175.2930  141.8690 C   0  0  0  0  0  3  0  0  0  0  0  0
  193.2220  175.6500  142.9840 C   0  0  0  0  0  2  0  0  0  0  0  0
  192.1980  176.1160  145.1850 C   0  0  0  0  0  0  0  0  0  0  0  0
  192.3530  176.0580  146.6510 C   0  0  0  0  0  3  0  0  0  0  0  0
  191.9760  173.2290  142.1190 C   0  0  0  0  0  2  0  0  0  0  0  0
  191.2800  171.6500  143.7510 O   0  0  0  0  0  0  0  0  0  0  0  0
  192.2510  172.2320  143.2010 C   0  0  0  0  0  0  0  0  0  0  0  0
  195.8570  172.5450  145.1930 C   0  0  1  0  0  3  0  0  0  0  0  0
  193.7610  171.4400  144.9100 O   0  0  0  0  0  0  0  0  0  0  0  0
  194.7720  172.3570  141.6820 O   0  0  0  0  0  0  0  0  0  0  0  0
  196.5890  173.5840  146.0130 C   0  0  0  0  0  1  0  0  0  0  0  0
  194.4090  172.4220  145.6790 C   0  0  0  0  0  2  0  0  0  0  0  0
  194.7530  172.3870  142.9420 C   0  0  0  0  0  0  0  0  0  0  0  0
  193.5840  171.9920  143.6780 N   0  0  0  0  0  0  0  0  0  0  0  0
  195.9310  172.9150  143.7040 C   0  0  0  0  0  2  0  0  0  0  0  0
  1 14  1  0  0  0  0
  2  5  1  1  0  0  0
  2  3  1  0  0  0  0
  3 19  2  0  0  0  0
  3  7  1  0  0  0  0
  4 15  1  0  0  0  0
  4 11  2  0  0  0  0
  6  1  1  0  0  0  0
  7  4  1  0  0  0  0
  9  1  2  0  0  0  0
 10 19  1  0  0  0  0
 12 16  1  0  0  0  0
 12  8  1  0  0  0  0
 13  8  1  0  0  0  0
 13 18  1  1  0  0  0
 13  2  1  0  0  0  0
 14  5  2  0  0  0  0
 16  5  1  0  0  0  0
 17  6  1  0  0  0  0
 17 16  2  0  0  0  0
 18 10  1  0  0  0  0
 19 20  1  0  0  0  0
 20 15  2  0  0  0  0
 21  8  1  0  0  0  0
 21 23  1  0  0  0  0
 23 30  1  0  0  0  0
 23 22  2  0  0  0  0
 24 28  1  0  0  0  0
 24 27  1  1  0  0  0
 25 28  1  0  0  0  0
 26 29  2  0  0  0  0
 29 30  1  0  0  0  0
 29 31  1  0  0  0  0
 30 25  1  0  0  0  0
 31 24  1  0  0  0  0
M  END
>  <MODEL>
6

>  <REMARK>
 VINA RESULT:      -7.5      2.868      7.822
  Name = 
  2 active torsions:
  status: ('A' for Active; 'I' for Inactive)
    1  A    between atoms: C_5  and  C_16
    2  A    between atoms: N_10  and  C_16
                            x       y       z     vdW  Elec       q    Type
                         _______ _______ _______ _____ _____    ______ ____

>  <TORSDO>
F 2

$$$$
=
 OpenBabel11112416513D

 31 35  0  0  1  0  0  0  0  0999 V2000
  185.1530  179.1920  143.8860 C   0  0  0  0  0  0  0  0  0  0  0  0
  188.6040  177.5450  143.8310 C   0  0  2  0  0  3  0  0  0  0  0  0
  188.6950  176.6150  145.0360 C   0  0  0  0  0  0  0  0  0  0  0  0
  187.8340  175.7660  147.2530 C   0  0  0  0  0  0  0  0  0  0  0  0
  187.1820  177.9050  143.4940 C   0  0  0  0  0  0  0  0  0  0  0  0
  184.3350  178.2780  143.0210 C   0  0  0  0  0  2  0  0  0  0  0  0
  187.7650  176.8420  146.2100 C   0  0  0  0  0  2  0  0  0  0  0  0
  188.5120  175.8410  142.0400 N   0  0  0  0  0  0  0  0  0  0  0  0
  184.6150  180.1930  144.4250 O   0  0  0  0  0  0  0  0  0  0  0  0
  190.6360  175.5910  144.0800 O   0  0  0  0  0  0  0  0  0  0  0  0
  186.9590  175.7150  148.1560 O   0  0  0  0  0  0  0  0  0  0  0  0
  187.2960  176.3850  141.4270 C   0  0  0  0  0  2  0  0  0  0  0  0
  189.3060  176.9600  142.5870 C   0  0  2  0  0  3  0  0  0  0  0  0
  186.5600  178.8770  144.1690 C   0  0  0  0  0  3  0  0  0  0  0  0
  188.9410  174.8060  147.2600 C   0  0  0  0  0  3  0  0  0  0  0  0
  186.4870  177.1860  142.4000 C   0  0  0  0  0  0  0  0  0  0  0  0
  185.1950  177.4110  142.1410 C   0  0  0  0  0  3  0  0  0  0  0  0
  190.7130  176.5270  143.0100 C   0  0  0  0  0  2  0  0  0  0  0  0
  189.6990  175.7100  145.1120 C   0  0  0  0  0  0  0  0  0  0  0  0
  189.8180  174.7920  146.2600 C   0  0  0  0  0  3  0  0  0  0  0  0
  189.2440  175.2000  140.9510 C   0  0  0  0  0  2  0  0  0  0  0  0
  188.8970  173.1080  142.0220 O   0  0  0  0  0  0  0  0  0  0  0  0
  188.9400  173.7340  140.9300 C   0  0  0  0  0  0  0  0  0  0  0  0
  189.6850  171.6940  137.4170 C   0  0  1  0  0  3  0  0  0  0  0  0
  188.9430  171.6670  139.6840 O   0  0  0  0  0  0  0  0  0  0  0  0
  187.8460  174.7300  138.3840 O   0  0  0  0  0  0  0  0  0  0  0  0
  190.8700  171.4240  136.5150 C   0  0  0  0  0  1  0  0  0  0  0  0
  190.0660  171.4230  138.8760 C   0  0  0  0  0  2  0  0  0  0  0  0
  188.5390  173.6790  138.4430 C   0  0  0  0  0  0  0  0  0  0  0  0
  188.7820  173.0190  139.6950 N   0  0  0  0  0  0  0  0  0  0  0  0
  189.1960  173.1360  137.2110 C   0  0  0  0  0  2  0  0  0  0  0  0
  1 14  1  0  0  0  0
  1  9  2  0  0  0  0
  2  5  1  6  0  0  0
  2  3  1  0  0  0  0
  3 19  2  0  0  0  0
  3  7  1  0  0  0  0
  4 15  1  0  0  0  0
  4 11  2  0  0  0  0
  5 14  2  0  0  0  0
  6  1  1  0  0  0  0
  7  4  1  0  0  0  0
  8 13  1  0  0  0  0
 10 19  1  0  0  0  0
 12  8  1  0  0  0  0
 12 16  1  0  0  0  0
 13 18  1  1  0  0  0
 13  2  1  0  0  0  0
 16  5  1  0  0  0  0
 17 16  2  0  0  0  0
 17  6  1  0  0  0  0
 18 10  1  0  0  0  0
 19 20  1  0  0  0  0
 20 15  2  0  0  0  0
 21  8  1  0  0  0  0
 23 21  1  0  0  0  0
 23 22  2  0  0  0  0
 24 27  1  6  0  0  0
 24 28  1  0  0  0  0
 25 30  1  0  0  0  0
 26 29  2  0  0  0  0
 28 25  1  0  0  0  0
 29 30  1  0  0  0  0
 30 23  1  0  0  0  0
 31 24  1  0  0  0  0
 31 29  1  0  0  0  0
M  END
>  <MODEL>
7

>  <REMARK>
 VINA RESULT:      -7.4      3.317      8.100
  Name = 
  2 active torsions:
  status: ('A' for Active; 'I' for Inactive)
    1  A    between atoms: C_5  and  C_16
    2  A    between atoms: N_10  and  C_16
                            x       y       z     vdW  Elec       q    Type
                         _______ _______ _______ _____ _____    ______ ____

>  <TORSDO>
F 2

$$$$
=
 OpenBabel11112416513D

 31 35  0  0  1  0  0  0  0  0999 V2000
  188.1000  176.2070  146.8450 C   0  0  0  0  0  0  0  0  0  0  0  0
  191.0800  174.1750  145.5740 C   0  0  2  0  0  3  0  0  0  0  0  0
  191.0160  174.1580  144.0510 C   0  0  0  0  0  0  0  0  0  0  0  0
  189.7940  174.5610  141.8770 C   0  0  0  0  0  0  0  0  0  0  0  0
  190.2460  175.2790  146.1680 C   0  0  0  0  0  0  0  0  0  0  0  0
  188.6730  177.5890  146.9800 C   0  0  0  0  0  2  0  0  0  0  0  0
  189.6920  174.4400  143.3690 C   0  0  0  0  0  2  0  0  0  0  0  0
  193.0610  175.6300  145.8550 N   0  0  0  0  0  0  0  0  0  0  0  0
  186.8890  176.0030  147.1160 O   0  0  0  0  0  0  0  0  0  0  0  0
  193.2700  173.3560  143.9790 O   0  0  0  0  0  0  0  0  0  0  0  0
  188.8220  175.0150  141.2200 O   0  0  0  0  0  0  0  0  0  0  0  0
  192.3880  176.5660  146.7620 C   0  0  0  0  0  2  0  0  0  0  0  0
  192.5300  174.2740  146.0960 C   0  0  2  0  0  3  0  0  0  0  0  0
  188.9290  175.1130  146.3230 C   0  0  0  0  0  3  0  0  0  0  0  0
  190.9960  174.1050  141.1740 C   0  0  0  0  0  3  0  0  0  0  0  0
  190.9000  176.5390  146.5930 C   0  0  0  0  0  0  0  0  0  0  0  0
  190.1780  177.5750  147.0320 C   0  0  0  0  0  3  0  0  0  0  0  0
  193.3500  173.1910  145.3910 C   0  0  0  0  0  2  0  0  0  0  0  0
  192.0870  173.7390  143.3370 C   0  0  0  0  0  0  0  0  0  0  0  0
  192.0630  173.7110  141.8630 C   0  0  0  0  0  3  0  0  0  0  0  0
  194.4740  175.6820  146.2210 C   0  0  0  0  0  2  0  0  0  0  0  0
  195.0450  177.8340  145.3930 O   0  0  0  0  0  0  0  0  0  0  0  0
  195.2070  176.5900  145.2830 C   0  0  0  0  0  0  0  0  0  0  0  0
  196.4640  174.9880  141.6890 C   0  0  1  0  0  3  0  0  0  0  0  0
  196.3030  176.8670  143.1500 O   0  0  0  0  0  0  0  0  0  0  0  0
  196.7790  174.0990  145.2460 O   0  0  0  0  0  0  0  0  0  0  0  0
  195.8340  174.3150  140.4880 C   0  0  0  0  0  1  0  0  0  0  0  0
  195.6850  176.2590  142.0440 C   0  0  0  0  0  2  0  0  0  0  0  0
  196.4780  174.7110  144.1860 C   0  0  0  0  0  0  0  0  0  0  0  0
  196.0170  176.0710  144.2170 N   0  0  0  0  0  0  0  0  0  0  0  0
  196.5170  174.0020  142.8660 C   0  0  0  0  0  2  0  0  0  0  0  0
  1  6  1  0  0  0  0
  1  9  2  0  0  0  0
  2  3  1  6  0  0  0
  2 13  1  0  0  0  0
  2  5  1  0  0  0  0
  4  7  1  0  0  0  0
  5 14  2  0  0  0  0
  5 16  1  0  0  0  0
  6 17  1  0  0  0  0
  7  3  1  0  0  0  0
  8 13  1  0  0  0  0
  8 21  1  0  0  0  0
  8 12  1  0  0  0  0
 10 18  1  0  0  0  0
 11  4  2  0  0  0  0
 13 18  1  6  0  0  0
 14  1  1  0  0  0  0
 15 20  2  0  0  0  0
 15  4  1  0  0  0  0
 16 12  1  0  0  0  0
 16 17  2  0  0  0  0
 19 10  1  0  0  0  0
 19  3  2  0  0  0  0
 20 19  1  0  0  0  0
 23 22  2  0  0  0  0
 23 21  1  0  0  0  0
 24 27  1  6  0  0  0
 24 28  1  0  0  0  0
 24 31  1  0  0  0  0
 25 30  1  0  0  0  0
 28 25  1  0  0  0  0
 29 30  1  0  0  0  0
 29 26  2  0  0  0  0
 30 23  1  0  0  0  0
 31 29  1  0  0  0  0
M  END
>  <MODEL>
8

>  <REMARK>
 VINA RESULT:      -7.3      2.546      7.331
  Name = 
  2 active torsions:
  status: ('A' for Active; 'I' for Inactive)
    1  A    between atoms: C_5  and  C_16
    2  A    between atoms: N_10  and  C_16
                            x       y       z     vdW  Elec       q    Type
                         _______ _______ _______ _____ _____    ______ ____

>  <TORSDO>
F 2

$$$$
=
 OpenBabel11112416513D

 31 35  0  0  1  0  0  0  0  0999 V2000
  186.2480  178.2500  147.6910 C   0  0  0  0  0  0  0  0  0  0  0  0
  188.1940  175.6660  145.6530 C   0  0  2  0  0  3  0  0  0  0  0  0
  188.1430  176.0920  144.1900 C   0  0  0  0  0  0  0  0  0  0  0  0
  187.2020  177.5100  142.3240 C   0  0  0  0  0  0  0  0  0  0  0  0
  187.8580  176.7960  146.5890 C   0  0  0  0  0  0  0  0  0  0  0  0
  187.3180  179.2130  148.1160 C   0  0  0  0  0  2  0  0  0  0  0  0
  187.0450  177.0340  143.7370 C   0  0  0  0  0  2  0  0  0  0  0  0
  190.5860  176.1140  146.0970 N   0  0  0  0  0  0  0  0  0  0  0  0
  185.0510  178.4590  148.0190 O   0  0  0  0  0  0  0  0  0  0  0  0
  189.8980  174.5420  143.6920 O   0  0  0  0  0  0  0  0  0  0  0  0
  186.4950  178.4630  141.9040 O   0  0  0  0  0  0  0  0  0  0  0  0
  190.3280  176.9490  147.2750 C   0  0  0  0  0  2  0  0  0  0  0  0
  189.5600  175.0550  146.0360 C   0  0  2  0  0  3  0  0  0  0  0  0
  186.5820  177.1100  146.8260 C   0  0  0  0  0  3  0  0  0  0  0  0
  188.1330  176.8410  141.4110 C   0  0  0  0  0  3  0  0  0  0  0  0
  188.9530  177.5410  147.2550 C   0  0  0  0  0  0  0  0  0  0  0  0
  188.6940  178.6110  148.0130 C   0  0  0  0  0  3  0  0  0  0  0  0
  189.8920  173.9780  144.9990 C   0  0  0  0  0  2  0  0  0  0  0  0
  188.9690  175.5080  143.2900 C   0  0  0  0  0  0  0  0  0  0  0  0
  188.9510  175.8960  141.8680 C   0  0  0  0  0  3  0  0  0  0  0  0
  191.9010  175.5190  146.3220 C   0  0  0  0  0  2  0  0  0  0  0  0
  193.2070  177.2890  145.4250 O   0  0  0  0  0  0  0  0  0  0  0  0
  192.8830  176.0750  145.3380 C   0  0  0  0  0  0  0  0  0  0  0  0
  193.2910  174.0900  141.7390 C   0  0  1  0  0  3  0  0  0  0  0  0
  193.9120  175.9010  143.1620 O   0  0  0  0  0  0  0  0  0  0  0  0
  193.3940  173.1750  145.3010 O   0  0  0  0  0  0  0  0  0  0  0  0
  192.4050  173.6960  140.5770 C   0  0  0  0  0  1  0  0  0  0  0  0
  193.0650  175.5630  142.0920 C   0  0  0  0  0  2  0  0  0  0  0  0
  193.3030  173.8470  144.2390 C   0  0  0  0  0  0  0  0  0  0  0  0
  193.3920  175.2800  144.2560 N   0  0  0  0  0  0  0  0  0  0  0  0
  193.0160  173.1660  142.9350 C   0  0  0  0  0  2  0  0  0  0  0  0
  1  9  2  0  0  0  0
  1  6  1  0  0  0  0
  2  3  1  6  0  0  0
  2 13  1  0  0  0  0
  2  5  1  0  0  0  0
  4  7  1  0  0  0  0
  5 14  2  0  0  0  0
  5 16  1  0  0  0  0
  7  3  1  0  0  0  0
  8 21  1  0  0  0  0
  8 12  1  0  0  0  0
 10 18  1  0  0  0  0
 11  4  2  0  0  0  0
 13 18  1  6  0  0  0
 13  8  1  0  0  0  0
 14  1  1  0  0  0  0
 15 20  2  0  0  0  0
 15  4  1  0  0  0  0
 16 12  1  0  0  0  0
 16 17  2  0  0  0  0
 17  6  1  0  0  0  0
 19 10  1  0  0  0  0
 19  3  2  0  0  0  0
 20 19  1  0  0  0  0
 23 22  2  0  0  0  0
 23 21  1  0  0  0  0
 24 27  1  6  0  0  0
 24 28  1  0  0  0  0
 24 31  1  0  0  0  0
 25 30  1  0  0  0  0
 28 25  1  0  0  0  0
 29 30  1  0  0  0  0
 29 26  2  0  0  0  0
 30 23  1  0  0  0  0
 31 29  1  0  0  0  0
M  END
>  <MODEL>
9

>  <REMARK>
 VINA RESULT:      -7.2      2.171      6.829
  Name = 
  2 active torsions:
  status: ('A' for Active; 'I' for Inactive)
    1  A    between atoms: C_5  and  C_16
    2  A    between atoms: N_10  and  C_16
                            x       y       z     vdW  Elec       q    Type
                         _______ _______ _______ _____ _____    ______ ____

>  <TORSDO>
F 2

$$$$
