=
 OpenBabel11112418063D

 34 41  0  0  1  0  0  0  0  0999 V2000
  189.0940  175.4980  142.8820 C   0  0  0  0  0  0  0  0  0  0  0  0
  191.5140  175.1540  142.4130 C   0  0  0  0  0  2  0  0  0  0  0  0
  184.6340  178.5710  146.4820 C   0  0  2  0  0  3  0  0  0  0  0  0
  187.1930  176.8860  143.3840 C   0  0  0  0  0  0  0  0  0  0  0  0
  186.7670  177.4460  145.8390 C   0  0  2  0  0  3  0  0  0  0  0  0
  186.2980  178.0220  148.1120 O   0  0  0  0  0  1  0  0  0  0  0  0
  183.9930  177.3320  146.5770 O   0  0  0  0  0  1  0  0  0  0  0  0
  185.2460  178.5310  143.9590 C   0  0  1  0  0  3  0  0  0  0  0  0
  190.8120  174.8820  144.7290 C   0  0  2  0  0  3  0  0  0  0  0  0
  193.0000  175.8030  146.8730 C   0  0  0  0  0  2  0  0  0  0  0  0
  188.2190  177.4110  145.9890 N   0  0  0  0  0  2  0  0  0  0  0  0
  186.5510  179.0710  144.0260 O   0  0  0  0  0  0  0  0  0  0  0  0
  190.2420  176.1040  145.4840 C   0  0  1  0  0  3  0  0  0  0  0  0
  192.7230  174.6900  143.1860 C   0  0  0  0  0  2  0  0  0  0  0  0
  186.4280  177.7120  144.3680 C   0  0  2  0  0  0  0  0  0  0  0  0
  184.4210  179.1700  145.0910 C   0  0  0  0  0  2  0  0  0  0  0  0
  193.1430  175.9230  145.3620 C   0  0  2  0  0  3  0  0  0  0  0  0
  188.3640  176.2400  143.8170 C   0  0  0  0  0  0  0  0  0  0  0  0
  186.1240  178.4450  146.7940 C   0  0  2  0  0  3  0  0  0  0  0  0
  188.7300  176.2220  145.2870 C   0  0  2  0  0  3  0  0  0  0  0  0
  187.5290  176.0730  141.1940 C   0  0  0  0  0  3  0  0  0  0  0  0
  191.8150  176.6090  147.3670 C   0  0  0  0  0  2  0  0  0  0  0  0
  186.8070  176.7990  142.0850 N   0  0  0  0  0  0  0  0  0  0  0  0
  190.5100  175.9430  146.9760 C   0  0  0  0  0  2  0  0  0  0  0  0
  192.3590  174.7910  144.6660 C   0  0  1  0  0  3  0  0  0  0  0  0
  188.6560  175.4300  141.5950 N   0  0  0  0  0  0  0  0  0  0  0  0
  190.3400  174.7500  143.2710 C   0  0  1  0  0  3  0  0  0  0  0  0
  194.6270  175.8540  145.0240 C   0  0  0  0  0  2  0  0  0  0  0  0
  195.3610  174.9920  146.0360 C   0  0  0  0  0  2  0  0  0  0  0  0
  197.9000  173.5210  143.7440 N   0  0  0  0  0  0  0  0  0  0  0  0
  196.7880  172.5810  145.7710 S   0  0  0  0  0  0  0  0  0  0  0  0
  196.3710  174.1480  145.3450 C   0  0  0  0  0  0  0  0  0  0  0  0
  197.8690  172.3940  144.4930 C   0  0  0  0  0  3  0  0  0  0  0  0
  197.0710  174.4970  144.2020 C   0  0  0  0  0  3  0  0  0  0  0  0
  1 27  1  0  0  0  0
  1 18  1  0  0  0  0
  2 14  1  0  0  0  0
  2 27  1  0  0  0  0
  3  7  1  6  0  0  0
  3 19  1  0  0  0  0
  4 18  2  0  0  0  0
  4 15  1  0  0  0  0
  5 11  1  6  0  0  0
  5 19  1  0  0  0  0
  8 12  1  0  0  0  0
  8 15  1  0  0  0  0
  8 16  1  1  0  0  0
  9 13  1  0  0  0  0
 10 22  1  0  0  0  0
 12 15  1  0  0  0  0
 13 24  1  0  0  0  0
 14 25  1  0  0  0  0
 15  5  1  0  0  0  0
 16  3  1  0  0  0  0
 17 10  1  0  0  0  0
 18 20  1  0  0  0  0
 19  6  1  0  0  0  0
 20 13  1  0  0  0  0
 20 11  1  0  0  0  0
 21 26  1  0  0  0  0
 21 23  2  0  0  0  0
 23  4  1  0  0  0  0
 24 22  1  0  0  0  0
 25  9  1  0  0  0  0
 25 17  1  0  0  0  0
 26  1  2  0  0  0  0
 27  9  1  0  0  0  0
 28 17  1  0  0  0  0
 28 29  1  0  0  0  0
 30 34  1  0  0  0  0
 30 33  2  0  0  0  0
 32 31  1  0  0  0  0
 32 29  1  0  0  0  0
 33 31  1  0  0  0  0
 34 32  2  0  0  0  0
M  END
>  <MODEL>
1

>  <REMARK>
 VINA RESULT:      -8.9      0.000      0.000
  Name = 
  3 active torsions:
  status: ('A' for Active; 'I' for Inactive)
    1  A    between atoms: C_17  and  C_28
    2  A    between atoms: C_28  and  C_29
    3  A    between atoms: C_29  and  C_32
                            x       y       z     vdW  Elec       q    Type
                         _______ _______ _______ _____ _____    ______ ____

>  <TORSDO>
F 3

$$$$
=
 OpenBabel11112418063D

 34 41  0  0  1  0  0  0  0  0999 V2000
  189.3410  174.3280  142.6830 C   0  0  0  0  0  0  0  0  0  0  0  0
  191.5580  173.8370  143.7030 C   0  0  0  0  0  2  0  0  0  0  0  0
  184.5790  178.6790  141.8520 C   0  0  2  0  0  3  0  0  0  0  0  0
  187.7970  175.7610  141.5180 C   0  0  0  0  0  0  0  0  0  0  0  0
  186.4470  177.4140  142.9190 C   0  0  2  0  0  3  0  0  0  0  0  0
  185.1470  178.9960  144.1560 O   0  0  0  0  0  1  0  0  0  0  0  0
  183.6980  177.6250  142.1140 O   0  0  0  0  0  1  0  0  0  0  0  0
  186.2400  177.4530  140.2770 C   0  0  1  0  0  3  0  0  0  0  0  0
  189.8420  174.6890  145.2050 C   0  0  2  0  0  3  0  0  0  0  0  0
  190.9680  176.5510  147.5500 C   0  0  0  0  0  2  0  0  0  0  0  0
  187.6220  177.4750  143.7860 N   0  0  0  0  0  2  0  0  0  0  0  0
  187.4570  177.9780  140.7670 O   0  0  0  0  0  0  0  0  0  0  0  0
  189.2910  176.1150  144.9770 C   0  0  1  0  0  3  0  0  0  0  0  0
  192.1420  173.8140  145.0920 C   0  0  0  0  0  2  0  0  0  0  0  0
  186.8830  176.9440  141.5270 C   0  0  2  0  0  0  0  0  0  0  0  0
  185.1640  178.5410  140.4470 C   0  0  0  0  0  2  0  0  0  0  0  0
  191.8030  175.9390  146.4340 C   0  0  2  0  0  3  0  0  0  0  0  0
  188.4600  175.4150  142.7090 C   0  0  0  0  0  0  0  0  0  0  0  0
  185.6920  178.7370  142.8970 C   0  0  2  0  0  3  0  0  0  0  0  0
  188.1060  176.1040  144.0110 C   0  0  2  0  0  3  0  0  0  0  0  0
  188.8910  174.0080  140.3760 C   0  0  0  0  0  3  0  0  0  0  0  0
  189.9100  177.4780  146.9860 C   0  0  0  0  0  2  0  0  0  0  0  0
  188.0320  175.0600  140.3790 N   0  0  0  0  0  0  0  0  0  0  0  0
  188.8090  176.6870  146.3050 C   0  0  0  0  0  2  0  0  0  0  0  0
  191.1810  174.6020  145.9810 C   0  0  1  0  0  3  0  0  0  0  0  0
  189.5310  173.6490  141.5190 N   0  0  0  0  0  0  0  0  0  0  0  0
  190.0650  173.8730  143.9210 C   0  0  1  0  0  3  0  0  0  0  0  0
  193.2180  175.7400  146.9620 C   0  0  0  0  0  2  0  0  0  0  0  0
  194.1810  176.6850  146.2650 C   0  0  0  0  0  2  0  0  0  0  0  0
  196.6310  174.2350  144.9000 N   0  0  0  0  0  0  0  0  0  0  0  0
  195.7680  176.3800  143.9610 S   0  0  0  0  0  0  0  0  0  0  0  0
  195.1490  175.9090  145.4450 C   0  0  0  0  0  0  0  0  0  0  0  0
  196.7670  175.0320  143.8140 C   0  0  0  0  0  3  0  0  0  0  0  0
  195.7420  174.7120  145.8130 C   0  0  0  0  0  3  0  0  0  0  0  0
  1 18  1  0  0  0  0
  1 27  1  0  0  0  0
  2 27  1  0  0  0  0
  2 14  1  0  0  0  0
  3  7  1  1  0  0  0
  3 19  1  0  0  0  0
  4 15  1  0  0  0  0
  4 18  2  0  0  0  0
  5 11  1  1  0  0  0
  8 16  1  1  0  0  0
  8 12  1  0  0  0  0
  8 15  1  0  0  0  0
  9 25  1  0  0  0  0
 11 20  1  0  0  0  0
 12 15  1  0  0  0  0
 13  9  1  0  0  0  0
 13 24  1  0  0  0  0
 14 25  1  0  0  0  0
 15  5  1  0  0  0  0
 16  3  1  0  0  0  0
 17 28  1  0  0  0  0
 17 10  1  0  0  0  0
 18 20  1  0  0  0  0
 19  5  1  0  0  0  0
 19  6  1  0  0  0  0
 20 13  1  0  0  0  0
 21 23  2  0  0  0  0
 21 26  1  0  0  0  0
 22 10  1  0  0  0  0
 23  4  1  0  0  0  0
 24 22  1  0  0  0  0
 25 17  1  0  0  0  0
 26  1  2  0  0  0  0
 27  9  1  0  0  0  0
 29 28  1  0  0  0  0
 30 34  1  0  0  0  0
 31 32  1  0  0  0  0
 32 34  2  0  0  0  0
 32 29  1  0  0  0  0
 33 31  1  0  0  0  0
 33 30  2  0  0  0  0
M  END
>  <MODEL>
2

>  <REMARK>
 VINA RESULT:      -8.9      1.962      2.758
  Name = 
  3 active torsions:
  status: ('A' for Active; 'I' for Inactive)
    1  A    between atoms: C_17  and  C_28
    2  A    between atoms: C_28  and  C_29
    3  A    between atoms: C_29  and  C_32
                            x       y       z     vdW  Elec       q    Type
                         _______ _______ _______ _____ _____    ______ ____

>  <TORSDO>
F 3

$$$$
=
 OpenBabel11112418063D

 34 41  0  0  1  0  0  0  0  0999 V2000
  188.9340  175.2940  142.8590 C   0  0  0  0  0  0  0  0  0  0  0  0
  191.3210  174.7480  142.4120 C   0  0  0  0  0  2  0  0  0  0  0  0
  184.7150  178.7220  146.4290 C   0  0  2  0  0  3  0  0  0  0  0  0
  187.1530  176.8370  143.3490 C   0  0  0  0  0  0  0  0  0  0  0  0
  186.7510  177.4220  145.8020 C   0  0  2  0  0  3  0  0  0  0  0  0
  186.3100  178.0280  148.0730 O   0  0  0  0  0  1  0  0  0  0  0  0
  183.9700  177.5410  146.5130 O   0  0  0  0  0  1  0  0  0  0  0  0
  185.3460  178.6390  143.9120 C   0  0  1  0  0  3  0  0  0  0  0  0
  190.5760  174.5280  144.7190 C   0  0  2  0  0  3  0  0  0  0  0  0
  192.8120  175.2540  146.8880 C   0  0  0  0  0  2  0  0  0  0  0  0
  188.1940  177.2630  145.9660 N   0  0  0  0  0  2  0  0  0  0  0  0
  186.6910  179.0660  143.9950 O   0  0  0  0  0  0  0  0  0  0  0  0
  190.1040  175.7920  145.4750 C   0  0  1  0  0  3  0  0  0  0  0  0
  192.4790  174.1810  143.1940 C   0  0  0  0  0  2  0  0  0  0  0  0
  186.4500  177.7220  144.3290 C   0  0  2  0  0  0  0  0  0  0  0  0
  184.5680  179.3410  145.0390 C   0  0  0  0  0  2  0  0  0  0  0  0
  192.9800  175.3660  145.3790 C   0  0  2  0  0  3  0  0  0  0  0  0
  188.2600  176.0930  143.7900 C   0  0  0  0  0  0  0  0  0  0  0  0
  186.1850  178.4680  146.7550 C   0  0  2  0  0  3  0  0  0  0  0  0
  188.6090  176.0390  145.2640 C   0  0  2  0  0  3  0  0  0  0  0  0
  187.4410  176.0060  141.1590 C   0  0  0  0  0  3  0  0  0  0  0  0
  191.6950  176.1550  147.3750 C   0  0  0  0  0  2  0  0  0  0  0  0
  186.7730  176.7870  142.0460 N   0  0  0  0  0  0  0  0  0  0  0  0
  190.3420  175.6030  146.9680 C   0  0  0  0  0  2  0  0  0  0  0  0
  192.1090  174.3070  144.6710 C   0  0  1  0  0  3  0  0  0  0  0  0
  188.5050  175.2680  141.5680 N   0  0  0  0  0  0  0  0  0  0  0  0
  190.1080  174.4430  143.2570 C   0  0  1  0  0  3  0  0  0  0  0  0
  194.4560  175.1730  145.0560 C   0  0  0  0  0  2  0  0  0  0  0  0
  195.0630  176.4740  144.5590 C   0  0  0  0  0  2  0  0  0  0  0  0
  197.7120  175.7390  142.0460 N   0  0  0  0  0  0  0  0  0  0  0  0
  195.3270  176.4170  141.7580 S   0  0  0  0  0  0  0  0  0  0  0  0
  195.8660  176.2220  143.3330 C   0  0  0  0  0  0  0  0  0  0  0  0
  196.8110  176.0120  141.0720 C   0  0  0  0  0  3  0  0  0  0  0  0
  197.2020  175.8580  143.3020 C   0  0  0  0  0  3  0  0  0  0  0  0
  1 27  1  0  0  0  0
  1 18  1  0  0  0  0
  2 14  1  0  0  0  0
  2 27  1  0  0  0  0
  3  7  1  6  0  0  0
  3 19  1  0  0  0  0
  4 18  2  0  0  0  0
  4 15  1  0  0  0  0
  5 11  1  6  0  0  0
  5 19  1  0  0  0  0
  8 12  1  0  0  0  0
  8 15  1  0  0  0  0
  8 16  1  1  0  0  0
  9 13  1  0  0  0  0
 10 22  1  0  0  0  0
 12 15  1  0  0  0  0
 13 24  1  0  0  0  0
 14 25  1  0  0  0  0
 15  5  1  0  0  0  0
 16  3  1  0  0  0  0
 17 10  1  0  0  0  0
 18 20  1  0  0  0  0
 19  6  1  0  0  0  0
 20 13  1  0  0  0  0
 20 11  1  0  0  0  0
 21 26  1  0  0  0  0
 21 23  2  0  0  0  0
 23  4  1  0  0  0  0
 24 22  1  0  0  0  0
 25  9  1  0  0  0  0
 25 17  1  0  0  0  0
 26  1  2  0  0  0  0
 27  9  1  0  0  0  0
 28 17  1  0  0  0  0
 29 28  1  0  0  0  0
 30 34  1  0  0  0  0
 31 32  1  0  0  0  0
 32 29  1  0  0  0  0
 33 31  1  0  0  0  0
 33 30  2  0  0  0  0
 34 32  2  0  0  0  0
M  END
>  <MODEL>
3

>  <REMARK>
 VINA RESULT:      -8.9      1.406      1.588
  Name = 
  3 active torsions:
  status: ('A' for Active; 'I' for Inactive)
    1  A    between atoms: C_17  and  C_28
    2  A    between atoms: C_28  and  C_29
    3  A    between atoms: C_29  and  C_32
                            x       y       z     vdW  Elec       q    Type
                         _______ _______ _______ _____ _____    ______ ____

>  <TORSDO>
F 3

$$$$
=
 OpenBabel11112418063D

 34 41  0  0  1  0  0  0  0  0999 V2000
  189.6150  174.0400  142.3700 C   0  0  0  0  0  0  0  0  0  0  0  0
  191.9080  173.3640  143.0610 C   0  0  0  0  0  2  0  0  0  0  0  0
  185.0420  178.6630  142.4780 C   0  0  2  0  0  3  0  0  0  0  0  0
  188.0240  175.6340  141.5200 C   0  0  0  0  0  0  0  0  0  0  0  0
  186.9510  177.2290  143.2020 C   0  0  2  0  0  3  0  0  0  0  0  0
  185.9040  178.7620  144.7090 O   0  0  0  0  0  1  0  0  0  0  0  0
  184.1400  177.6330  142.7680 O   0  0  0  0  0  1  0  0  0  0  0  0
  186.4250  177.4930  140.6180 C   0  0  1  0  0  3  0  0  0  0  0  0
  190.4400  174.1690  144.8280 C   0  0  2  0  0  3  0  0  0  0  0  0
  191.9470  175.7780  147.1460 C   0  0  0  0  0  2  0  0  0  0  0  0
  188.2250  177.1630  143.9150 N   0  0  0  0  0  2  0  0  0  0  0  0
  187.7210  177.9190  140.9880 O   0  0  0  0  0  0  0  0  0  0  0  0
  189.9470  175.6330  144.7790 C   0  0  1  0  0  3  0  0  0  0  0  0
  192.6560  173.1990  144.3600 C   0  0  0  0  0  2  0  0  0  0  0  0
  187.1860  176.8540  141.7340 C   0  0  2  0  0  0  0  0  0  0  0  0
  185.4420  178.6130  141.0030 C   0  0  0  0  0  2  0  0  0  0  0  0
  192.6040  175.2210  145.8900 C   0  0  2  0  0  3  0  0  0  0  0  0
  188.8060  175.1610  142.5880 C   0  0  0  0  0  0  0  0  0  0  0  0
  186.2750  178.5830  143.3750 C   0  0  2  0  0  3  0  0  0  0  0  0
  188.6530  175.7570  143.9730 C   0  0  2  0  0  3  0  0  0  0  0  0
  188.8680  173.9320  140.1200 C   0  0  0  0  0  3  0  0  0  0  0  0
  190.8820  176.7960  146.7910 C   0  0  0  0  0  2  0  0  0  0  0  0
  188.0780  175.0190  140.3110 N   0  0  0  0  0  0  0  0  0  0  0  0
  189.6640  176.1160  146.1970 C   0  0  0  0  0  2  0  0  0  0  0  0
  191.8570  173.9560  145.4200 C   0  0  1  0  0  3  0  0  0  0  0  0
  189.6230  173.4510  141.1430 N   0  0  0  0  0  0  0  0  0  0  0  0
  190.4580  173.4520  143.4680 C   0  0  1  0  0  3  0  0  0  0  0  0
  194.0600  174.9130  146.2190 C   0  0  0  0  0  2  0  0  0  0  0  0
  194.9470  176.0860  145.8390 C   0  0  0  0  0  2  0  0  0  0  0  0
  196.8120  175.7720  142.6310 N   0  0  0  0  0  0  0  0  0  0  0  0
  196.8250  174.3420  144.6760 S   0  0  0  0  0  0  0  0  0  0  0  0
  195.8440  175.7000  144.7180 C   0  0  0  0  0  0  0  0  0  0  0  0
  197.3820  174.6440  143.1160 C   0  0  0  0  0  3  0  0  0  0  0  0
  195.9540  176.3630  143.5060 C   0  0  0  0  0  3  0  0  0  0  0  0
  1 18  1  0  0  0  0
  1 27  1  0  0  0  0
  2 27  1  0  0  0  0
  2 14  1  0  0  0  0
  3  7  1  1  0  0  0
  3 19  1  0  0  0  0
  4 15  1  0  0  0  0
  4 18  2  0  0  0  0
  5 19  1  0  0  0  0
  5 11  1  1  0  0  0
  8 12  1  0  0  0  0
  8 16  1  1  0  0  0
  8 15  1  0  0  0  0
  9 25  1  0  0  0  0
 11 20  1  0  0  0  0
 12 15  1  0  0  0  0
 13  9  1  0  0  0  0
 13 24  1  0  0  0  0
 14 25  1  0  0  0  0
 15  5  1  0  0  0  0
 16  3  1  0  0  0  0
 17 28  1  0  0  0  0
 17 10  1  0  0  0  0
 18 20  1  0  0  0  0
 19  6  1  0  0  0  0
 20 13  1  0  0  0  0
 21 23  2  0  0  0  0
 21 26  1  0  0  0  0
 22 10  1  0  0  0  0
 23  4  1  0  0  0  0
 24 22  1  0  0  0  0
 25 17  1  0  0  0  0
 26  1  2  0  0  0  0
 27  9  1  0  0  0  0
 29 28  1  0  0  0  0
 30 33  2  0  0  0  0
 30 34  1  0  0  0  0
 31 32  1  0  0  0  0
 32 29  1  0  0  0  0
 33 31  1  0  0  0  0
 34 32  2  0  0  0  0
M  END
>  <MODEL>
4

>  <REMARK>
 VINA RESULT:      -8.5      1.871      2.426
  Name = 
  3 active torsions:
  status: ('A' for Active; 'I' for Inactive)
    1  A    between atoms: C_17  and  C_28
    2  A    between atoms: C_28  and  C_29
    3  A    between atoms: C_29  and  C_32
                            x       y       z     vdW  Elec       q    Type
                         _______ _______ _______ _____ _____    ______ ____

>  <TORSDO>
F 3

$$$$
=
 OpenBabel11112418063D

 34 41  0  0  1  0  0  0  0  0999 V2000
  190.1790  173.9710  143.0180 C   0  0  0  0  0  0  0  0  0  0  0  0
  192.5980  173.5990  142.5680 C   0  0  0  0  0  2  0  0  0  0  0  0
  185.6710  177.8410  145.6630 C   0  0  2  0  0  3  0  0  0  0  0  0
  188.2200  175.3650  143.1430 C   0  0  0  0  0  0  0  0  0  0  0  0
  187.8410  176.6620  145.3100 C   0  0  2  0  0  3  0  0  0  0  0  0
  187.4140  177.9150  147.3020 O   0  0  0  0  0  1  0  0  0  0  0  0
  185.1030  176.6720  146.1780 O   0  0  0  0  0  1  0  0  0  0  0  0
  186.2040  177.0230  143.2570 C   0  0  1  0  0  3  0  0  0  0  0  0
  191.9860  174.0520  144.8800 C   0  0  2  0  0  3  0  0  0  0  0  0
  194.1860  175.7040  146.5130 C   0  0  0  0  0  2  0  0  0  0  0  0
  189.2980  176.7380  145.3940 N   0  0  0  0  0  2  0  0  0  0  0  0
  187.4780  177.6110  143.0880 O   0  0  0  0  0  0  0  0  0  0  0  0
  191.3740  175.4270  145.2340 C   0  0  1  0  0  3  0  0  0  0  0  0
  193.8550  173.4590  143.3890 C   0  0  0  0  0  2  0  0  0  0  0  0
  187.4420  176.4290  143.8490 C   0  0  2  0  0  0  0  0  0  0  0  0
  185.3810  177.9540  144.1660 C   0  0  0  0  0  2  0  0  0  0  0  0
  194.2740  175.3400  145.0370 C   0  0  2  0  0  3  0  0  0  0  0  0
  189.4380  174.9420  143.7030 C   0  0  0  0  0  0  0  0  0  0  0  0
  187.1740  177.8850  145.9280 C   0  0  2  0  0  3  0  0  0  0  0  0
  189.8520  175.4110  145.0830 C   0  0  2  0  0  3  0  0  0  0  0  0
  188.5320  173.9080  141.3120 C   0  0  0  0  0  3  0  0  0  0  0  0
  192.9750  176.5750  146.7820 C   0  0  0  0  0  2  0  0  0  0  0  0
  187.7980  174.8500  141.9590 N   0  0  0  0  0  0  0  0  0  0  0  0
  191.6970  175.7630  146.6860 C   0  0  0  0  0  2  0  0  0  0  0  0
  193.5330  174.0120  144.7750 C   0  0  1  0  0  3  0  0  0  0  0  0
  189.7050  173.4760  141.8420 N   0  0  0  0  0  0  0  0  0  0  0  0
  191.4760  173.4420  143.5650 C   0  0  1  0  0  3  0  0  0  0  0  0
  195.7490  175.2310  144.6680 C   0  0  0  0  0  2  0  0  0  0  0  0
  196.1920  176.4570  143.8900 C   0  0  0  0  0  2  0  0  0  0  0  0
  197.7810  175.4130  140.6880 N   0  0  0  0  0  0  0  0  0  0  0  0
  195.4620  176.1910  141.1850 S   0  0  0  0  0  0  0  0  0  0  0  0
  196.5110  176.0800  142.4880 C   0  0  0  0  0  0  0  0  0  0  0  0
  196.6050  175.6630  140.0660 C   0  0  0  0  0  3  0  0  0  0  0  0
  197.7440  175.6460  142.0280 C   0  0  0  0  0  3  0  0  0  0  0  0
  1 27  1  0  0  0  0
  1 18  1  0  0  0  0
  2 14  1  0  0  0  0
  2 27  1  0  0  0  0
  3 19  1  0  0  0  0
  3  7  1  6  0  0  0
  4 18  2  0  0  0  0
  4 15  1  0  0  0  0
  5 11  1  6  0  0  0
  5 19  1  0  0  0  0
  8 15  1  0  0  0  0
  8 16  1  1  0  0  0
  9 13  1  0  0  0  0
 10 22  1  0  0  0  0
 12  8  1  0  0  0  0
 12 15  1  0  0  0  0
 13 24  1  0  0  0  0
 14 25  1  0  0  0  0
 15  5  1  0  0  0  0
 16  3  1  0  0  0  0
 17 10  1  0  0  0  0
 18 20  1  0  0  0  0
 19  6  1  0  0  0  0
 20 13  1  0  0  0  0
 20 11  1  0  0  0  0
 21 26  1  0  0  0  0
 21 23  2  0  0  0  0
 23  4  1  0  0  0  0
 24 22  1  0  0  0  0
 25  9  1  0  0  0  0
 25 17  1  0  0  0  0
 26  1  2  0  0  0  0
 27  9  1  0  0  0  0
 28 17  1  0  0  0  0
 29 28  1  0  0  0  0
 30 34  1  0  0  0  0
 31 32  1  0  0  0  0
 32 29  1  0  0  0  0
 33 30  2  0  0  0  0
 33 31  1  0  0  0  0
 34 32  2  0  0  0  0
M  END
>  <MODEL>
5

>  <REMARK>
 VINA RESULT:      -8.4      1.951      2.322
  Name = 
  3 active torsions:
  status: ('A' for Active; 'I' for Inactive)
    1  A    between atoms: C_17  and  C_28
    2  A    between atoms: C_28  and  C_29
    3  A    between atoms: C_29  and  C_32
                            x       y       z     vdW  Elec       q    Type
                         _______ _______ _______ _____ _____    ______ ____

>  <TORSDO>
F 3

$$$$
=
 OpenBabel11112418063D

 34 41  0  0  1  0  0  0  0  0999 V2000
  192.2950  175.8940  145.7920 C   0  0  0  0  0  0  0  0  0  0  0  0
  190.7170  177.5390  144.7930 C   0  0  0  0  0  2  0  0  0  0  0  0
  195.2830  170.1520  145.1660 C   0  0  2  0  0  3  0  0  0  0  0  0
  194.1110  174.3200  145.6490 C   0  0  0  0  0  0  0  0  0  0  0  0
  193.5330  171.9220  144.9910 C   0  0  2  0  0  3  0  0  0  0  0  0
  193.0790  169.6550  144.3760 O   0  0  0  0  0  1  0  0  0  0  0  0
  194.9550  169.9400  146.5090 O   0  0  0  0  0  1  0  0  0  0  0  0
  196.0690  172.6220  145.3130 C   0  0  1  0  0  3  0  0  0  0  0  0
  189.9130  175.2490  144.9860 C   0  0  2  0  0  3  0  0  0  0  0  0
  187.9550  174.3500  142.6220 C   0  0  0  0  0  2  0  0  0  0  0  0
  192.4750  172.5140  144.1750 N   0  0  0  0  0  2  0  0  0  0  0  0
  195.4780  173.1260  144.1320 O   0  0  0  0  0  0  0  0  0  0  0  0
  190.6270  174.1380  144.1830 C   0  0  1  0  0  3  0  0  0  0  0  0
  189.2770  177.5420  144.3470 C   0  0  0  0  0  2  0  0  0  0  0  0
  194.6180  172.9760  145.2350 C   0  0  2  0  0  0  0  0  0  0  0  0
  196.4360  171.1500  145.0560 C   0  0  0  0  0  2  0  0  0  0  0  0
  188.6550  175.6980  142.7200 C   0  0  2  0  0  3  0  0  0  0  0  0
  192.7550  174.6220  145.4330 C   0  0  0  0  0  0  0  0  0  0  0  0
  194.0710  170.6370  144.3740 C   0  0  2  0  0  3  0  0  0  0  0  0
  191.7940  173.5440  144.9740 C   0  0  2  0  0  3  0  0  0  0  0  0
  194.4760  176.4850  146.5150 C   0  0  0  0  0  3  0  0  0  0  0  0
  188.9640  173.2220  142.5490 C   0  0  0  0  0  2  0  0  0  0  0  0
  194.9430  175.2570  146.1740 N   0  0  0  0  0  0  0  0  0  0  0  0
  189.6390  173.0140  143.8910 C   0  0  0  0  0  2  0  0  0  0  0  0
  188.8640  176.0780  144.2010 C   0  0  1  0  0  3  0  0  0  0  0  0
  193.1670  176.7930  146.3270 N   0  0  0  0  0  0  0  0  0  0  0  0
  190.8530  176.2860  145.6230 C   0  0  1  0  0  3  0  0  0  0  0  0
  187.7920  176.7280  142.0020 C   0  0  0  0  0  2  0  0  0  0  0  0
  186.3330  176.5550  142.3840 C   0  0  0  0  0  2  0  0  0  0  0  0
  185.5300  179.8640  143.8920 N   0  0  0  0  0  0  0  0  0  0  0  0
  185.3500  177.5570  144.8240 S   0  0  0  0  0  0  0  0  0  0  0  0
  185.8970  177.6870  143.2450 C   0  0  0  0  0  0  0  0  0  0  0  0
  185.1660  179.2180  145.0240 C   0  0  0  0  0  3  0  0  0  0  0  0
  185.9420  179.0280  142.9010 C   0  0  0  0  0  3  0  0  0  0  0  0
  1 26  1  0  0  0  0
  2 27  1  0  0  0  0
  3  7  1  1  0  0  0
  4 23  2  0  0  0  0
  5 11  1  6  0  0  0
  5 15  1  0  0  0  0
  8 16  1  6  0  0  0
  9 27  1  0  0  0  0
 10 17  1  0  0  0  0
 11 20  1  0  0  0  0
 12 15  1  0  0  0  0
 12  8  1  0  0  0  0
 13 20  1  0  0  0  0
 13  9  1  0  0  0  0
 14  2  1  0  0  0  0
 15  8  1  0  0  0  0
 15  4  1  0  0  0  0
 16  3  1  0  0  0  0
 17 25  1  0  0  0  0
 18  4  1  0  0  0  0
 18  1  2  0  0  0  0
 19  6  1  0  0  0  0
 19  5  1  0  0  0  0
 19  3  1  0  0  0  0
 20 18  1  0  0  0  0
 22 10  1  0  0  0  0
 22 24  1  0  0  0  0
 23 21  1  0  0  0  0
 24 13  1  0  0  0  0
 25 14  1  0  0  0  0
 25  9  1  0  0  0  0
 26 21  2  0  0  0  0
 27  1  1  0  0  0  0
 28 29  1  0  0  0  0
 28 17  1  0  0  0  0
 29 32  1  0  0  0  0
 30 33  2  0  0  0  0
 31 33  1  0  0  0  0
 32 31  1  0  0  0  0
 34 32  2  0  0  0  0
 34 30  1  0  0  0  0
M  END
>  <MODEL>
6

>  <REMARK>
 VINA RESULT:      -8.3      4.591      9.105
  Name = 
  3 active torsions:
  status: ('A' for Active; 'I' for Inactive)
    1  A    between atoms: C_17  and  C_28
    2  A    between atoms: C_28  and  C_29
    3  A    between atoms: C_29  and  C_32
                            x       y       z     vdW  Elec       q    Type
                         _______ _______ _______ _____ _____    ______ ____

>  <TORSDO>
F 3

$$$$
=
 OpenBabel11112418063D

 34 41  0  0  1  0  0  0  0  0999 V2000
  190.8460  173.1220  142.3700 C   0  0  0  0  0  0  0  0  0  0  0  0
  188.3870  173.4990  142.2820 C   0  0  0  0  0  2  0  0  0  0  0  0
  196.3980  174.1700  145.5900 C   0  0  2  0  0  3  0  0  0  0  0  0
  192.8870  172.6080  143.5380 C   0  0  0  0  0  0  0  0  0  0  0  0
  194.1090  174.5430  144.6690 C   0  0  2  0  0  3  0  0  0  0  0  0
  195.3150  176.2970  145.7610 O   0  0  0  0  0  1  0  0  0  0  0  0
  196.9620  174.4480  144.3410 O   0  0  0  0  0  1  0  0  0  0  0  0
  195.0100  172.0680  144.9630 C   0  0  1  0  0  3  0  0  0  0  0  0
  189.7760  175.4820  142.5430 C   0  0  2  0  0  3  0  0  0  0  0  0
  188.4490  177.7790  144.3310 C   0  0  0  0  0  2  0  0  0  0  0  0
  192.7820  175.1090  144.8960 N   0  0  0  0  0  2  0  0  0  0  0  0
  193.8300  172.3410  145.6920 O   0  0  0  0  0  0  0  0  0  0  0  0
  190.6300  175.6320  143.8240 C   0  0  1  0  0  3  0  0  0  0  0  0
  187.4640  174.6900  142.2330 C   0  0  0  0  0  2  0  0  0  0  0  0
  193.9750  173.0290  144.4730 C   0  0  2  0  0  0  0  0  0  0  0  0
  196.1900  172.6640  145.7510 C   0  0  0  0  0  2  0  0  0  0  0  0
  187.8370  176.4120  144.0570 C   0  0  2  0  0  3  0  0  0  0  0  0
  191.8800  173.5350  143.2180 C   0  0  0  0  0  0  0  0  0  0  0  0
  195.0830  174.9210  145.7800 C   0  0  2  0  0  3  0  0  0  0  0  0
  192.0040  174.9810  143.6540 C   0  0  2  0  0  3  0  0  0  0  0  0
  191.8200  170.9640  142.2230 C   0  0  0  0  0  3  0  0  0  0  0  0
  189.7760  177.6410  145.0510 C   0  0  0  0  0  2  0  0  0  0  0  0
  192.8310  171.3440  143.0450 N   0  0  0  0  0  0  0  0  0  0  0  0
  190.8450  177.1120  144.1140 C   0  0  0  0  0  2  0  0  0  0  0  0
  188.2890  175.8980  142.6740 C   0  0  1  0  0  3  0  0  0  0  0  0
  190.8440  171.8480  141.8910 N   0  0  0  0  0  0  0  0  0  0  0  0
  189.7490  174.0620  141.9530 C   0  0  1  0  0  3  0  0  0  0  0  0
  186.3220  176.5540  144.1260 C   0  0  0  0  0  2  0  0  0  0  0  0
  185.9190  178.0090  143.9600 C   0  0  0  0  0  2  0  0  0  0  0  0
  183.1430  178.3730  141.5040 N   0  0  0  0  0  0  0  0  0  0  0  0
  185.6030  178.1170  141.1660 S   0  0  0  0  0  0  0  0  0  0  0  0
  185.0650  178.1640  142.7530 C   0  0  0  0  0  0  0  0  0  0  0  0
  184.0610  178.2900  140.5120 C   0  0  0  0  0  3  0  0  0  0  0  0
  183.6860  178.2990  142.7490 C   0  0  0  0  0  3  0  0  0  0  0  0
  1 18  1  0  0  0  0
  3  7  1  6  0  0  0
  3 16  1  0  0  0  0
  3 19  1  0  0  0  0
  4 15  1  0  0  0  0
  5 11  1  1  0  0  0
  5 19  1  0  0  0  0
  6 19  1  0  0  0  0
  8 12  1  0  0  0  0
  8 16  1  1  0  0  0
  9 25  1  0  0  0  0
  9 13  1  0  0  0  0
 10 22  1  0  0  0  0
 13 24  1  0  0  0  0
 14  2  1  0  0  0  0
 14 25  1  0  0  0  0
 15  5  1  0  0  0  0
 15  8  1  0  0  0  0
 15 12  1  0  0  0  0
 17 28  1  0  0  0  0
 17 10  1  0  0  0  0
 18  4  2  0  0  0  0
 18 20  1  0  0  0  0
 20 13  1  0  0  0  0
 20 11  1  0  0  0  0
 21 23  2  0  0  0  0
 23  4  1  0  0  0  0
 24 22  1  0  0  0  0
 25 17  1  0  0  0  0
 26 21  1  0  0  0  0
 26  1  2  0  0  0  0
 27  2  1  0  0  0  0
 27  1  1  0  0  0  0
 27  9  1  0  0  0  0
 29 28  1  0  0  0  0
 30 34  1  0  0  0  0
 31 32  1  0  0  0  0
 32 29  1  0  0  0  0
 33 31  1  0  0  0  0
 33 30  2  0  0  0  0
 34 32  2  0  0  0  0
M  END
>  <MODEL>
7

>  <REMARK>
 VINA RESULT:      -8.3      4.432      8.876
  Name = 
  3 active torsions:
  status: ('A' for Active; 'I' for Inactive)
    1  A    between atoms: C_17  and  C_28
    2  A    between atoms: C_28  and  C_29
    3  A    between atoms: C_29  and  C_32
                            x       y       z     vdW  Elec       q    Type
                         _______ _______ _______ _____ _____    ______ ____

>  <TORSDO>
F 3

$$$$
=
 OpenBabel11112418063D

 34 41  0  0  1  0  0  0  0  0999 V2000
  191.7650  176.0480  146.0020 C   0  0  0  0  0  0  0  0  0  0  0  0
  189.6680  177.2660  146.5650 C   0  0  0  0  0  2  0  0  0  0  0  0
  195.5920  173.6940  141.3010 C   0  0  2  0  0  3  0  0  0  0  0  0
  193.7580  175.7220  144.6930 C   0  0  0  0  0  0  0  0  0  0  0  0
  193.5330  174.3840  142.5290 C   0  0  2  0  0  3  0  0  0  0  0  0
  193.4090  173.1460  140.4870 O   0  0  0  0  0  1  0  0  0  0  0  0
  195.6930  172.5430  142.0880 O   0  0  0  0  0  1  0  0  0  0  0  0
  195.8580  175.4930  143.1540 C   0  0  1  0  0  3  0  0  0  0  0  0
  189.4400  175.3520  145.0770 C   0  0  2  0  0  3  0  0  0  0  0  0
  187.1430  175.6770  142.8760 C   0  0  0  0  0  2  0  0  0  0  0  0
  192.1940  174.9620  142.4370 N   0  0  0  0  0  2  0  0  0  0  0  0
  194.8760  176.4160  142.7260 O   0  0  0  0  0  0  0  0  0  0  0  0
  190.1230  175.4000  143.6910 C   0  0  1  0  0  3  0  0  0  0  0  0
  188.1930  177.0770  146.3180 C   0  0  0  0  0  2  0  0  0  0  0  0
  194.4000  175.2860  143.4150 C   0  0  2  0  0  0  0  0  0  0  0  0
  196.4380  174.8190  141.8980 C   0  0  0  0  0  2  0  0  0  0  0  0
  187.5480  176.7390  143.8880 C   0  0  2  0  0  3  0  0  0  0  0  0
  192.3630  175.6050  144.8170 C   0  0  0  0  0  0  0  0  0  0  0  0
  194.1370  174.1330  141.1530 C   0  0  2  0  0  3  0  0  0  0  0  0
  191.5580  174.8750  143.7610 C   0  0  2  0  0  3  0  0  0  0  0  0
  193.8880  176.6950  146.8390 C   0  0  0  0  0  3  0  0  0  0  0  0
  188.3050  175.3250  141.9690 C   0  0  0  0  0  2  0  0  0  0  0  0
  194.4880  176.2720  145.6970 N   0  0  0  0  0  0  0  0  0  0  0  0
  189.3480  174.5180  142.7190 C   0  0  0  0  0  2  0  0  0  0  0  0
  188.0690  176.0690  145.1770 C   0  0  1  0  0  3  0  0  0  0  0  0
  192.5430  176.5790  146.9850 N   0  0  0  0  0  0  0  0  0  0  0  0
  190.2820  175.9300  146.2270 C   0  0  1  0  0  3  0  0  0  0  0  0
  186.3280  177.6070  144.1720 C   0  0  0  0  0  2  0  0  0  0  0  0
  186.2430  178.7440  143.1690 C   0  0  0  0  0  2  0  0  0  0  0  0
  182.8380  178.2910  141.7290 N   0  0  0  0  0  0  0  0  0  0  0  0
  185.0850  178.2910  140.6440 S   0  0  0  0  0  0  0  0  0  0  0  0
  185.0520  178.5620  142.2980 C   0  0  0  0  0  0  0  0  0  0  0  0
  183.4130  178.1420  140.5130 C   0  0  0  0  0  3  0  0  0  0  0  0
  183.7350  178.5180  142.7270 C   0  0  0  0  0  3  0  0  0  0  0  0
  1 27  1  0  0  0  0
  1 26  1  0  0  0  0
  3 16  1  0  0  0  0
  3  7  1  1  0  0  0
  4 18  1  0  0  0  0
  4 23  2  0  0  0  0
  5 11  1  6  0  0  0
  5 15  1  0  0  0  0
  6 19  1  0  0  0  0
  8 16  1  6  0  0  0
  8 15  1  0  0  0  0
  9 25  1  0  0  0  0
  9 27  1  0  0  0  0
 10 17  1  0  0  0  0
 11 20  1  0  0  0  0
 12  8  1  0  0  0  0
 12 15  1  0  0  0  0
 13 20  1  0  0  0  0
 13  9  1  0  0  0  0
 14  2  1  0  0  0  0
 15  4  1  0  0  0  0
 17 28  1  0  0  0  0
 17 25  1  0  0  0  0
 18  1  2  0  0  0  0
 19  3  1  0  0  0  0
 19  5  1  0  0  0  0
 20 18  1  0  0  0  0
 21 26  2  0  0  0  0
 22 24  1  0  0  0  0
 22 10  1  0  0  0  0
 23 21  1  0  0  0  0
 24 13  1  0  0  0  0
 25 14  1  0  0  0  0
 27  2  1  0  0  0  0
 29 28  1  0  0  0  0
 30 34  1  0  0  0  0
 31 32  1  0  0  0  0
 32 34  2  0  0  0  0
 32 29  1  0  0  0  0
 33 31  1  0  0  0  0
 33 30  2  0  0  0  0
M  END
>  <MODEL>
8

>  <REMARK>
 VINA RESULT:      -8.2      4.411      9.253
  Name = 
  3 active torsions:
  status: ('A' for Active; 'I' for Inactive)
    1  A    between atoms: C_17  and  C_28
    2  A    between atoms: C_28  and  C_29
    3  A    between atoms: C_29  and  C_32
                            x       y       z     vdW  Elec       q    Type
                         _______ _______ _______ _____ _____    ______ ____

>  <TORSDO>
F 3

$$$$
=
 OpenBabel11112418063D

 34 41  0  0  1  0  0  0  0  0999 V2000
  192.3260  175.9180  145.6590 C   0  0  0  0  0  0  0  0  0  0  0  0
  190.3790  177.4660  145.7360 C   0  0  0  0  0  2  0  0  0  0  0  0
  196.0210  172.0030  142.0100 C   0  0  2  0  0  3  0  0  0  0  0  0
  194.3160  175.0410  144.6270 C   0  0  0  0  0  0  0  0  0  0  0  0
  194.0150  173.2150  142.8670 C   0  0  2  0  0  3  0  0  0  0  0  0
  193.8230  171.5060  141.2050 O   0  0  0  0  0  1  0  0  0  0  0  0
  195.9430  171.0950  143.0710 O   0  0  0  0  0  1  0  0  0  0  0  0
  196.4330  174.1840  143.3580 C   0  0  1  0  0  3  0  0  0  0  0  0
  189.9740  175.2660  144.7740 C   0  0  2  0  0  3  0  0  0  0  0  0
  187.8310  175.2550  142.3990 C   0  0  0  0  0  2  0  0  0  0  0  0
  192.7650  173.8930  142.5320 N   0  0  0  0  0  2  0  0  0  0  0  0
  195.5950  175.0650  142.6370 O   0  0  0  0  0  0  0  0  0  0  0  0
  190.7150  174.8720  143.4760 C   0  0  1  0  0  3  0  0  0  0  0  0
  188.9030  177.3840  145.4370 C   0  0  0  0  0  2  0  0  0  0  0  0
  194.9520  174.2150  143.5540 C   0  0  2  0  0  0  0  0  0  0  0  0
  196.9770  173.1430  142.3620 C   0  0  0  0  0  2  0  0  0  0  0  0
  188.3240  176.4940  143.1340 C   0  0  2  0  0  3  0  0  0  0  0  0
  192.9130  175.1160  144.6740 C   0  0  0  0  0  0  0  0  0  0  0  0
  194.6410  172.5460  141.6490 C   0  0  2  0  0  3  0  0  0  0  0  0
  192.0680  174.2280  143.7830 C   0  0  2  0  0  3  0  0  0  0  0  0
  194.4770  176.5220  146.4580 C   0  0  0  0  0  3  0  0  0  0  0  0
  188.9770  174.5510  141.7000 C   0  0  0  0  0  2  0  0  0  0  0  0
  195.0670  175.7500  145.5090 N   0  0  0  0  0  0  0  0  0  0  0  0
  189.8770  173.8580  142.7070 C   0  0  0  0  0  2  0  0  0  0  0  0
  188.7020  176.1310  144.5860 C   0  0  1  0  0  3  0  0  0  0  0  0
  193.1230  176.5980  146.5280 N   0  0  0  0  0  0  0  0  0  0  0  0
  190.8330  176.0280  145.7970 C   0  0  1  0  0  3  0  0  0  0  0  0
  187.2130  177.5350  143.0960 C   0  0  0  0  0  2  0  0  0  0  0  0
  185.8660  176.8810  143.3480 C   0  0  0  0  0  2  0  0  0  0  0  0
  184.0330  179.0410  145.7660 N   0  0  0  0  0  0  0  0  0  0  0  0
  185.3400  176.9430  146.1120 S   0  0  0  0  0  0  0  0  0  0  0  0
  185.2180  177.4990  144.5360 C   0  0  0  0  0  0  0  0  0  0  0  0
  184.4210  178.2000  146.7540 C   0  0  0  0  0  3  0  0  0  0  0  0
  184.4720  178.6670  144.5340 C   0  0  0  0  0  3  0  0  0  0  0  0
  1 27  1  0  0  0  0
  1 26  1  0  0  0  0
  2 27  1  0  0  0  0
  3 16  1  0  0  0  0
  3  7  1  1  0  0  0
  4 18  1  0  0  0  0
  4 23  2  0  0  0  0
  5 11  1  6  0  0  0
  5 15  1  0  0  0  0
  6 19  1  0  0  0  0
  8 16  1  6  0  0  0
  8 15  1  0  0  0  0
  9 27  1  0  0  0  0
 10 17  1  0  0  0  0
 11 20  1  0  0  0  0
 12  8  1  0  0  0  0
 12 15  1  0  0  0  0
 13 20  1  0  0  0  0
 13  9  1  0  0  0  0
 14  2  1  0  0  0  0
 15  4  1  0  0  0  0
 17 25  1  0  0  0  0
 18  1  2  0  0  0  0
 19  3  1  0  0  0  0
 19  5  1  0  0  0  0
 20 18  1  0  0  0  0
 21 26  2  0  0  0  0
 22 10  1  0  0  0  0
 22 24  1  0  0  0  0
 23 21  1  0  0  0  0
 24 13  1  0  0  0  0
 25  9  1  0  0  0  0
 25 14  1  0  0  0  0
 28 17  1  0  0  0  0
 28 29  1  0  0  0  0
 29 32  1  0  0  0  0
 30 33  2  0  0  0  0
 31 33  1  0  0  0  0
 32 31  1  0  0  0  0
 34 32  2  0  0  0  0
 34 30  1  0  0  0  0
M  END
>  <MODEL>
9

>  <REMARK>
 VINA RESULT:      -8.0      4.404      9.282
  Name = 
  3 active torsions:
  status: ('A' for Active; 'I' for Inactive)
    1  A    between atoms: C_17  and  C_28
    2  A    between atoms: C_28  and  C_29
    3  A    between atoms: C_29  and  C_32
                            x       y       z     vdW  Elec       q    Type
                         _______ _______ _______ _____ _____    ______ ____

>  <TORSDO>
F 3

$$$$
