=
 OpenBabel11112417453D

 34 41  0  0  1  0  0  0  0  0999 V2000
  189.4420  174.7080  142.8690 C   0  0  0  0  0  0  0  0  0  0  0  0
  191.5890  173.3600  142.9110 C   0  0  0  0  0  2  0  0  0  0  0  0
  185.2130  179.0620  145.7760 C   0  0  2  0  0  3  0  0  0  0  0  0
  187.6250  176.2860  142.8320 C   0  0  0  0  0  0  0  0  0  0  0  0
  187.3400  178.0040  144.7200 C   0  0  1  0  0  3  0  0  0  0  0  0
  185.6160  177.0160  146.1450 O   0  0  0  0  0  0  0  0  0  0  0  0
  184.4430  177.7880  146.0250 C   0  0  0  0  0  2  0  0  0  0  0  0
  184.6860  178.6830  143.2530 C   0  0  0  0  0  2  0  0  0  0  0  0
  190.6720  174.1710  145.0050 C   0  0  2  0  0  3  0  0  0  0  0  0
  192.9250  175.5830  146.9100 C   0  0  0  0  0  2  0  0  0  0  0  0
  188.7270  177.5130  145.1590 C   0  0  0  0  0  2  0  0  0  0  0  0
  185.9750  178.1790  142.6230 C   0  0  0  0  0  2  0  0  0  0  0  0
  190.3000  175.5920  145.4790 C   0  0  1  0  0  3  0  0  0  0  0  0
  192.5620  172.9790  144.0150 C   0  0  0  0  0  2  0  0  0  0  0  0
  186.6850  177.2170  143.5610 C   0  0  1  0  0  3  0  0  0  0  0  0
  184.9650  179.6770  144.3810 C   0  0  0  0  0  2  0  0  0  0  0  0
  193.1080  174.9180  145.5340 C   0  0  1  0  0  3  0  0  0  0  0  0
  188.6650  175.6620  143.5350 C   0  0  0  0  0  0  0  0  0  0  0  0
  186.4170  178.1540  145.9410 C   0  0  2  0  0  3  0  0  0  0  0  0
  188.9020  176.0050  144.9870 C   0  0  2  0  0  3  0  0  0  0  0  0
  188.1890  175.0470  140.8930 C   0  0  0  0  0  3  0  0  0  0  0  0
  191.6460  175.1770  147.6450 C   0  0  0  0  0  2  0  0  0  0  0  0
  187.4030  175.9520  141.5310 N   0  0  0  0  0  0  0  0  0  0  0  0
  190.3760  175.7430  147.0050 C   0  0  0  0  0  2  0  0  0  0  0  0
  192.1320  173.7510  145.2590 C   0  0  1  0  0  3  0  0  0  0  0  0
  189.2010  174.4320  141.5590 N   0  0  0  0  0  0  0  0  0  0  0  0
  190.4950  174.0430  143.5700 N   0  0  0  0  0  0  0  0  0  0  0  0
  193.0480  175.8870  144.5260 O   0  0  0  0  0  0  0  0  0  0  0  0
  194.3060  176.4920  144.5240 C   0  0  0  0  0  2  0  0  0  0  0  0
  195.3080  176.5540  141.1960 C   0  0  0  0  0  2  0  0  0  0  0  0
  196.4200  176.6790  143.2190 C   0  0  0  0  0  2  0  0  0  0  0  0
  195.1950  175.8300  143.4860 C   0  0  2  0  0  3  0  0  0  0  0  0
  196.6300  176.7140  141.7820 N   0  0  0  0  0  2  0  0  0  0  0  0
  194.4690  175.7510  142.1660 C   0  0  0  0  0  2  0  0  0  0  0  0
  1 18  1  0  0  0  0
  1 27  1  0  0  0  0
  2 27  1  0  0  0  0
  2 14  1  0  0  0  0
  3 16  1  6  0  0  0
  3 19  1  0  0  0  0
  3  7  1  0  0  0  0
  4 18  2  0  0  0  0
  4 15  1  0  0  0  0
  5 11  1  1  0  0  0
  5 19  1  0  0  0  0
  7  6  1  0  0  0  0
  8 16  1  0  0  0  0
  9 27  1  6  0  0  0
  9 25  1  0  0  0  0
  9 13  1  0  0  0  0
 10 22  1  0  0  0  0
 12  8  1  0  0  0  0
 13 24  1  1  0  0  0
 15 12  1  6  0  0  0
 15  5  1  0  0  0  0
 17 28  1  6  0  0  0
 17 10  1  0  0  0  0
 18 20  1  0  0  0  0
 19  6  1  6  0  0  0
 20 11  1  6  0  0  0
 20 13  1  0  0  0  0
 21 23  2  0  0  0  0
 21 26  1  0  0  0  0
 23  4  1  0  0  0  0
 24 22  1  0  0  0  0
 25 14  1  6  0  0  0
 25 17  1  0  0  0  0
 26  1  2  0  0  0  0
 29 28  1  0  0  0  0
 30 33  1  0  0  0  0
 30 34  1  0  0  0  0
 31 32  1  0  0  0  0
 32 29  1  1  0  0  0
 33 31  1  0  0  0  0
 34 32  1  0  0  0  0
M  END
>  <MODEL>
1

>  <REMARK>
 VINA RESULT:      -9.5      0.000      0.000
  Name = 
  3 active torsions:
  status: ('A' for Active; 'I' for Inactive)
    1  A    between atoms: C_17  and  O_28
    2  A    between atoms: O_28  and  C_29
    3  A    between atoms: C_29  and  C_32
                            x       y       z     vdW  Elec       q    Type
                         _______ _______ _______ _____ _____    ______ ____

>  <TORSDO>
F 3

$$$$
=
 OpenBabel11112417453D

 34 41  0  0  1  0  0  0  0  0999 V2000
  187.9160  175.4900  140.9100 C   0  0  0  0  0  0  0  0  0  0  0  0
  189.4410  173.8780  139.6830 C   0  0  0  0  0  2  0  0  0  0  0  0
  185.8480  178.3800  146.6250 C   0  0  2  0  0  3  0  0  0  0  0  0
  186.7810  177.2050  142.1590 C   0  0  0  0  0  0  0  0  0  0  0  0
  187.3330  177.6090  144.6350 C   0  0  1  0  0  3  0  0  0  0  0  0
  185.5420  176.4440  145.8240 O   0  0  0  0  0  0  0  0  0  0  0  0
  184.7110  177.4060  146.4310 C   0  0  0  0  0  2  0  0  0  0  0  0
  184.9420  179.5910  144.5020 C   0  0  0  0  0  2  0  0  0  0  0  0
  189.1100  173.5930  142.0680 C   0  0  2  0  0  3  0  0  0  0  0  0
  191.9140  173.1400  143.6910 C   0  0  0  0  0  2  0  0  0  0  0  0
  188.4970  176.6460  144.3670 C   0  0  0  0  0  2  0  0  0  0  0  0
  185.8910  179.2270  143.3710 C   0  0  0  0  0  2  0  0  0  0  0  0
  189.3180  174.5580  143.2550 C   0  0  1  0  0  3  0  0  0  0  0  0
  190.3350  172.7350  140.1360 C   0  0  0  0  0  2  0  0  0  0  0  0
  186.3170  177.7720  143.4800 C   0  0  1  0  0  3  0  0  0  0  0  0
  185.6780  179.6990  145.8380 C   0  0  0  0  0  2  0  0  0  0  0  0
  191.6960  173.3220  142.1780 C   0  0  1  0  0  3  0  0  0  0  0  0
  187.6050  176.0720  142.1440 C   0  0  0  0  0  0  0  0  0  0  0  0
  186.6640  177.2770  145.9790 C   0  0  2  0  0  3  0  0  0  0  0  0
  188.1100  175.4910  143.4450 C   0  0  2  0  0  3  0  0  0  0  0  0
  186.6510  177.1450  139.7940 C   0  0  0  0  0  3  0  0  0  0  0  0
  190.6650  172.7150  144.4650 C   0  0  0  0  0  2  0  0  0  0  0  0
  186.3110  177.7060  140.9840 N   0  0  0  0  0  0  0  0  0  0  0  0
  189.6120  173.8220  144.5700 C   0  0  0  0  0  2  0  0  0  0  0  0
  190.3470  172.7710  141.6620 C   0  0  1  0  0  3  0  0  0  0  0  0
  187.4490  176.0470  139.7610 N   0  0  0  0  0  0  0  0  0  0  0  0
  188.7400  174.3220  140.8700 N   0  0  0  0  0  0  0  0  0  0  0  0
  191.8680  174.6670  141.8300 O   0  0  0  0  0  0  0  0  0  0  0  0
  193.2380  174.9050  141.9580 C   0  0  0  0  0  2  0  0  0  0  0  0
  192.2060  176.9910  144.5390 C   0  0  0  0  0  2  0  0  0  0  0  0
  194.2320  176.0600  143.9290 C   0  0  0  0  0  2  0  0  0  0  0  0
  193.4670  176.2450  142.6350 C   0  0  2  0  0  3  0  0  0  0  0  0
  193.6010  176.8950  144.9370 N   0  0  0  0  0  2  0  0  0  0  0  0
  192.1450  176.8500  143.0340 C   0  0  0  0  0  2  0  0  0  0  0  0
  1 18  1  0  0  0  0
  2 14  1  0  0  0  0
  2 27  1  0  0  0  0
  3 16  1  6  0  0  0
  4 15  1  0  0  0  0
  5 11  1  6  0  0  0
  5 19  1  0  0  0  0
  6  7  1  0  0  0  0
  7  3  1  0  0  0  0
  8 16  1  0  0  0  0
  9 27  1  6  0  0  0
  9 13  1  0  0  0  0
 10 22  1  0  0  0  0
 12  8  1  0  0  0  0
 13 20  1  0  0  0  0
 13 24  1  1  0  0  0
 15 12  1  6  0  0  0
 15  5  1  0  0  0  0
 17 28  1  1  0  0  0
 17 10  1  0  0  0  0
 18  4  2  0  0  0  0
 18 20  1  0  0  0  0
 19  6  1  6  0  0  0
 19  3  1  0  0  0  0
 20 11  1  1  0  0  0
 21 23  2  0  0  0  0
 22 24  1  0  0  0  0
 23  4  1  0  0  0  0
 25 14  1  6  0  0  0
 25  9  1  0  0  0  0
 25 17  1  0  0  0  0
 26 21  1  0  0  0  0
 26  1  2  0  0  0  0
 27  1  1  0  0  0  0
 28 29  1  0  0  0  0
 30 33  1  0  0  0  0
 31 33  1  0  0  0  0
 32 29  1  1  0  0  0
 32 34  1  0  0  0  0
 32 31  1  0  0  0  0
 34 30  1  0  0  0  0
M  END
>  <MODEL>
2

>  <REMARK>
 VINA RESULT:      -9.1      1.831      2.808
  Name = 
  3 active torsions:
  status: ('A' for Active; 'I' for Inactive)
    1  A    between atoms: C_17  and  O_28
    2  A    between atoms: O_28  and  C_29
    3  A    between atoms: C_29  and  C_32
                            x       y       z     vdW  Elec       q    Type
                         _______ _______ _______ _____ _____    ______ ____

>  <TORSDO>
F 3

$$$$
=
 OpenBabel11112417453D

 34 41  0  0  1  0  0  0  0  0999 V2000
  189.7510  174.2670  143.5450 C   0  0  0  0  0  0  0  0  0  0  0  0
  191.9840  173.1150  143.8750 C   0  0  0  0  0  2  0  0  0  0  0  0
  185.4110  179.1670  145.1120 C   0  0  2  0  0  3  0  0  0  0  0  0
  187.8310  175.6540  143.1150 C   0  0  0  0  0  0  0  0  0  0  0  0
  187.5400  177.9040  144.3170 C   0  0  1  0  0  3  0  0  0  0  0  0
  185.9750  177.3960  146.1260 O   0  0  0  0  0  0  0  0  0  0  0  0
  184.7470  178.0260  145.8420 C   0  0  0  0  0  2  0  0  0  0  0  0
  184.7630  177.9150  142.9210 C   0  0  0  0  0  2  0  0  0  0  0  0
  191.1400  174.5590  145.6310 C   0  0  2  0  0  3  0  0  0  0  0  0
  193.3990  176.6420  146.7530 C   0  0  0  0  0  2  0  0  0  0  0  0
  188.9810  177.6580  144.7850 C   0  0  0  0  0  2  0  0  0  0  0  0
  186.0440  177.2810  142.4020 C   0  0  0  0  0  2  0  0  0  0  0  0
  190.6990  176.0380  145.6180 C   0  0  1  0  0  3  0  0  0  0  0  0
  193.0460  173.1830  144.9620 C   0  0  0  0  0  2  0  0  0  0  0  0
  186.8740  176.7360  143.5530 C   0  0  1  0  0  3  0  0  0  0  0  0
  185.0390  179.2490  143.6150 C   0  0  0  0  0  2  0  0  0  0  0  0
  193.5450  175.5510  145.6770 C   0  0  1  0  0  3  0  0  0  0  0  0
  188.9500  175.3580  143.9040 C   0  0  0  0  0  0  0  0  0  0  0  0
  186.6820  178.4260  145.4810 C   0  0  2  0  0  3  0  0  0  0  0  0
  189.2500  176.1940  145.1270 C   0  0  2  0  0  3  0  0  0  0  0  0
  188.3630  173.8450  141.6790 C   0  0  0  0  0  3  0  0  0  0  0  0
  192.1960  176.4590  147.6810 C   0  0  0  0  0  2  0  0  0  0  0  0
  187.5550  174.8800  142.0280 N   0  0  0  0  0  0  0  0  0  0  0  0
  190.8540  176.7130  146.9890 C   0  0  0  0  0  2  0  0  0  0  0  0
  192.6370  174.3190  145.8970 C   0  0  1  0  0  3  0  0  0  0  0  0
  189.4520  173.5450  142.4330 N   0  0  0  0  0  0  0  0  0  0  0  0
  190.8870  173.9350  144.3460 N   0  0  0  0  0  0  0  0  0  0  0  0
  193.3580  176.1070  144.4060 O   0  0  0  0  0  0  0  0  0  0  0  0
  194.6230  176.1000  143.8150 C   0  0  0  0  0  2  0  0  0  0  0  0
  194.4980  174.0300  141.0260 C   0  0  0  0  0  2  0  0  0  0  0  0
  193.0890  175.6360  141.9080 C   0  0  0  0  0  2  0  0  0  0  0  0
  194.4860  176.0660  142.3040 C   0  0  2  0  0  3  0  0  0  0  0  0
  193.2120  174.6770  140.8230 N   0  0  0  0  0  2  0  0  0  0  0  0
  195.4040  175.0170  141.7300 C   0  0  0  0  0  2  0  0  0  0  0  0
  1 18  1  0  0  0  0
  1 27  1  0  0  0  0
  2 27  1  0  0  0  0
  2 14  1  0  0  0  0
  3 16  1  6  0  0  0
  3 19  1  0  0  0  0
  3  7  1  0  0  0  0
  4 15  1  0  0  0  0
  4 18  2  0  0  0  0
  5 11  1  1  0  0  0
  5 19  1  0  0  0  0
  7  6  1  0  0  0  0
  8 16  1  0  0  0  0
  9 27  1  6  0  0  0
  9 25  1  0  0  0  0
 10 22  1  0  0  0  0
 12  8  1  0  0  0  0
 13  9  1  0  0  0  0
 13 24  1  1  0  0  0
 15 12  1  6  0  0  0
 15  5  1  0  0  0  0
 17 28  1  6  0  0  0
 17 25  1  0  0  0  0
 17 10  1  0  0  0  0
 18 20  1  0  0  0  0
 19  6  1  1  0  0  0
 20 11  1  6  0  0  0
 20 13  1  0  0  0  0
 21 23  2  0  0  0  0
 21 26  1  0  0  0  0
 23  4  1  0  0  0  0
 24 22  1  0  0  0  0
 25 14  1  6  0  0  0
 26  1  2  0  0  0  0
 29 28  1  0  0  0  0
 30 34  1  0  0  0  0
 31 32  1  0  0  0  0
 32 29  1  1  0  0  0
 33 30  1  0  0  0  0
 33 31  1  0  0  0  0
 34 32  1  0  0  0  0
M  END
>  <MODEL>
3

>  <REMARK>
 VINA RESULT:      -8.8      1.150      1.369
  Name = 
  3 active torsions:
  status: ('A' for Active; 'I' for Inactive)
    1  A    between atoms: C_17  and  O_28
    2  A    between atoms: O_28  and  C_29
    3  A    between atoms: C_29  and  C_32
                            x       y       z     vdW  Elec       q    Type
                         _______ _______ _______ _____ _____    ______ ____

>  <TORSDO>
F 3

$$$$
=
 OpenBabel11112417453D

 34 41  0  0  1  0  0  0  0  0999 V2000
  190.5720  176.2130  144.8380 C   0  0  0  0  0  0  0  0  0  0  0  0
  192.3780  174.8170  143.7340 C   0  0  0  0  0  2  0  0  0  0  0  0
  184.2790  178.5950  144.9620 C   0  0  2  0  0  3  0  0  0  0  0  0
  188.6770  177.2150  145.9320 C   0  0  0  0  0  0  0  0  0  0  0  0
  186.3170  176.9810  144.9480 C   0  0  1  0  0  3  0  0  0  0  0  0
  185.9630  179.1010  143.7830 O   0  0  0  0  0  0  0  0  0  0  0  0
  184.9890  179.8380  144.4850 C   0  0  0  0  0  2  0  0  0  0  0  0
  185.5330  178.9530  147.2180 C   0  0  0  0  0  2  0  0  0  0  0  0
  190.4830  175.5470  142.4060 C   0  0  2  0  0  3  0  0  0  0  0  0
  189.1920  173.1350  140.6120 C   0  0  0  0  0  2  0  0  0  0  0  0
  186.9840  175.9700  144.0050 C   0  0  0  0  0  2  0  0  0  0  0  0
  186.6480  177.9210  147.2500 C   0  0  0  0  0  2  0  0  0  0  0  0
  188.9640  175.3580  142.5990 C   0  0  1  0  0  3  0  0  0  0  0  0
  192.5280  174.2080  142.3480 C   0  0  0  0  0  2  0  0  0  0  0  0
  187.2740  177.7690  145.8730 C   0  0  1  0  0  3  0  0  0  0  0  0
  184.2950  178.4190  146.4970 C   0  0  0  0  0  2  0  0  0  0  0  0
  190.4120  173.0900  141.5490 C   0  0  1  0  0  3  0  0  0  0  0  0
  189.2280  176.6020  144.7990 C   0  0  0  0  0  0  0  0  0  0  0  0
  185.3580  177.8900  144.1620 C   0  0  2  0  0  3  0  0  0  0  0  0
  188.3810  176.4050  143.5640 C   0  0  2  0  0  3  0  0  0  0  0  0
  190.7490  176.9970  147.0610 C   0  0  0  0  0  3  0  0  0  0  0  0
  188.7970  174.5410  140.1530 C   0  0  0  0  0  2  0  0  0  0  0  0
  189.4560  177.4110  147.0320 N   0  0  0  0  0  0  0  0  0  0  0  0
  188.1910  175.3940  141.2720 C   0  0  0  0  0  2  0  0  0  0  0  0
  191.1950  174.4200  141.6340 C   0  0  1  0  0  3  0  0  0  0  0  0
  191.2990  176.4010  145.9710 N   0  0  0  0  0  0  0  0  0  0  0  0
  191.1620  175.6030  143.6870 N   0  0  0  0  0  0  0  0  0  0  0  0
  190.0220  172.6420  142.8170 O   0  0  0  0  0  0  0  0  0  0  0  0
  190.0560  171.2480  142.7380 C   0  0  0  0  0  2  0  0  0  0  0  0
  192.6920  169.3560  143.9830 C   0  0  0  0  0  2  0  0  0  0  0  0
  191.4820  169.3390  142.0130 C   0  0  0  0  0  2  0  0  0  0  0  0
  191.4760  170.7810  142.4760 C   0  0  2  0  0  3  0  0  0  0  0  0
  192.5520  168.6530  142.7170 N   0  0  0  0  0  2  0  0  0  0  0  0
  192.2630  170.7900  143.7630 C   0  0  0  0  0  2  0  0  0  0  0  0
  1 26  1  0  0  0  0
  3  7  1  1  0  0  0
  3 16  1  0  0  0  0
  4 23  2  0  0  0  0
  5 11  1  6  0  0  0
  5 15  1  0  0  0  0
  6  7  1  0  0  0  0
  8 12  1  0  0  0  0
  9 13  1  0  0  0  0
  9 27  1  1  0  0  0
 10 17  1  0  0  0  0
 13 24  1  6  0  0  0
 13 20  1  0  0  0  0
 14  2  1  0  0  0  0
 15  4  1  0  0  0  0
 15 12  1  1  0  0  0
 16  8  1  0  0  0  0
 17 25  1  0  0  0  0
 17 28  1  1  0  0  0
 18  1  2  0  0  0  0
 18  4  1  0  0  0  0
 19  6  1  1  0  0  0
 19  5  1  0  0  0  0
 19  3  1  0  0  0  0
 20 11  1  1  0  0  0
 20 18  1  0  0  0  0
 22 10  1  0  0  0  0
 22 24  1  0  0  0  0
 23 21  1  0  0  0  0
 25 14  1  1  0  0  0
 25  9  1  0  0  0  0
 26 21  2  0  0  0  0
 27  2  1  0  0  0  0
 27  1  1  0  0  0  0
 29 28  1  0  0  0  0
 31 32  1  0  0  0  0
 31 33  1  0  0  0  0
 32 29  1  1  0  0  0
 32 34  1  0  0  0  0
 33 30  1  0  0  0  0
 34 30  1  0  0  0  0
M  END
>  <MODEL>
4

>  <REMARK>
 VINA RESULT:      -8.3      2.437      4.925
  Name = 
  3 active torsions:
  status: ('A' for Active; 'I' for Inactive)
    1  A    between atoms: C_17  and  O_28
    2  A    between atoms: O_28  and  C_29
    3  A    between atoms: C_29  and  C_32
                            x       y       z     vdW  Elec       q    Type
                         _______ _______ _______ _____ _____    ______ ____

>  <TORSDO>
F 3

$$$$
=
 OpenBabel11112417453D

 34 41  0  0  1  0  0  0  0  0999 V2000
  192.1490  176.2870  145.9860 C   0  0  0  0  0  0  0  0  0  0  0  0
  194.5380  175.5010  146.3050 C   0  0  0  0  0  2  0  0  0  0  0  0
  186.6570  176.8950  142.1440 C   0  0  2  0  0  3  0  0  0  0  0  0
  189.7970  176.6710  145.6480 C   0  0  0  0  0  0  0  0  0  0  0  0
  188.6340  175.8860  143.4970 C   0  0  1  0  0  3  0  0  0  0  0  0
  188.5140  177.9110  142.1320 O   0  0  0  0  0  0  0  0  0  0  0  0
  187.1670  178.3120  142.0480 C   0  0  0  0  0  2  0  0  0  0  0  0
  186.1890  177.4170  144.6530 C   0  0  0  0  0  2  0  0  0  0  0  0
  193.6900  175.7910  144.0510 C   0  0  2  0  0  3  0  0  0  0  0  0
  194.3770  173.2530  142.1050 C   0  0  0  0  0  2  0  0  0  0  0  0
  189.9600  175.1570  143.2370 C   0  0  0  0  0  2  0  0  0  0  0  0
  187.2860  176.7190  145.4420 C   0  0  0  0  0  2  0  0  0  0  0  0
  192.4620  175.1920  143.3340 C   0  0  1  0  0  3  0  0  0  0  0  0
  195.6280  175.0520  145.3440 C   0  0  0  0  0  2  0  0  0  0  0  0
  188.6180  176.8340  144.7190 C   0  0  1  0  0  3  0  0  0  0  0  0
  185.8060  176.6240  143.4040 C   0  0  0  0  0  2  0  0  0  0  0  0
  194.7660  173.4690  143.5780 C   0  0  1  0  0  3  0  0  0  0  0  0
  191.0460  176.3070  145.1250 C   0  0  0  0  0  0  0  0  0  0  0  0
  188.1350  176.5600  142.2080 C   0  0  2  0  0  3  0  0  0  0  0  0
  191.1780  175.9760  143.6570 C   0  0  2  0  0  3  0  0  0  0  0  0
  190.7690  176.9350  147.7930 C   0  0  0  0  0  3  0  0  0  0  0  0
  193.9890  174.5310  141.3580 C   0  0  0  0  0  2  0  0  0  0  0  0
  189.6920  176.9910  146.9670 N   0  0  0  0  0  0  0  0  0  0  0  0
  192.6470  175.1120  141.8110 C   0  0  0  0  0  2  0  0  0  0  0  0
  194.9780  174.9500  143.9670 C   0  0  1  0  0  3  0  0  0  0  0  0
  191.9860  176.5830  147.3030 N   0  0  0  0  0  0  0  0  0  0  0  0
  193.4360  175.9370  145.4720 N   0  0  0  0  0  0  0  0  0  0  0  0
  193.8320  172.8470  144.4140 O   0  0  0  0  0  0  0  0  0  0  0  0
  194.0370  171.4770  144.2360 C   0  0  0  0  0  2  0  0  0  0  0  0
  190.8510  171.5880  142.8510 C   0  0  0  0  0  2  0  0  0  0  0  0
  192.5710  170.0440  142.8200 C   0  0  0  0  0  2  0  0  0  0  0  0
  192.7000  170.7630  144.1460 C   0  0  2  0  0  3  0  0  0  0  0  0
  191.2340  170.2930  142.3100 N   0  0  0  0  0  2  0  0  0  0  0  0
  191.5790  171.7710  144.1650 C   0  0  0  0  0  2  0  0  0  0  0  0
  1 26  1  0  0  0  0
  3  7  1  1  0  0  0
  3 19  1  0  0  0  0
  3 16  1  0  0  0  0
  4 23  2  0  0  0  0
  5 11  1  6  0  0  0
  5 15  1  0  0  0  0
  7  6  1  0  0  0  0
  8 12  1  0  0  0  0
  9 27  1  1  0  0  0
 10 17  1  0  0  0  0
 13 24  1  6  0  0  0
 13 20  1  0  0  0  0
 13  9  1  0  0  0  0
 14  2  1  0  0  0  0
 15 12  1  1  0  0  0
 15  4  1  0  0  0  0
 16  8  1  0  0  0  0
 17 25  1  0  0  0  0
 17 28  1  1  0  0  0
 18  4  1  0  0  0  0
 18  1  2  0  0  0  0
 19  6  1  1  0  0  0
 19  5  1  0  0  0  0
 20 11  1  1  0  0  0
 20 18  1  0  0  0  0
 22 24  1  0  0  0  0
 22 10  1  0  0  0  0
 23 21  1  0  0  0  0
 25  9  1  0  0  0  0
 25 14  1  1  0  0  0
 26 21  2  0  0  0  0
 27  1  1  0  0  0  0
 27  2  1  0  0  0  0
 29 28  1  0  0  0  0
 30 34  1  0  0  0  0
 31 32  1  0  0  0  0
 32 34  1  0  0  0  0
 32 29  1  6  0  0  0
 33 31  1  0  0  0  0
 33 30  1  0  0  0  0
M  END
>  <MODEL>
5

>  <REMARK>
 VINA RESULT:      -8.1      2.506      4.871
  Name = 
  3 active torsions:
  status: ('A' for Active; 'I' for Inactive)
    1  A    between atoms: C_17  and  O_28
    2  A    between atoms: O_28  and  C_29
    3  A    between atoms: C_29  and  C_32
                            x       y       z     vdW  Elec       q    Type
                         _______ _______ _______ _____ _____    ______ ____

>  <TORSDO>
F 3

$$$$
=
 OpenBabel11112417453D

 34 41  0  0  1  0  0  0  0  0999 V2000
  187.9670  175.5820  141.1170 C   0  0  0  0  0  0  0  0  0  0  0  0
  189.5500  174.0010  139.9240 C   0  0  0  0  0  2  0  0  0  0  0  0
  185.7760  178.4950  146.7750 C   0  0  2  0  0  3  0  0  0  0  0  0
  186.7700  177.2790  142.3340 C   0  0  0  0  0  0  0  0  0  0  0  0
  187.2950  177.7410  144.8050 C   0  0  1  0  0  3  0  0  0  0  0  0
  185.5370  176.5370  146.0040 O   0  0  0  0  0  0  0  0  0  0  0  0
  184.6720  177.4820  146.5910 C   0  0  0  0  0  2  0  0  0  0  0  0
  184.8420  179.6410  144.6280 C   0  0  0  0  0  2  0  0  0  0  0  0
  189.2160  173.7440  142.3120 C   0  0  2  0  0  3  0  0  0  0  0  0
  192.0250  173.4090  143.9550 C   0  0  0  0  0  2  0  0  0  0  0  0
  188.4920  176.8120  144.5580 C   0  0  0  0  0  2  0  0  0  0  0  0
  185.8090  179.2910  143.5080 C   0  0  0  0  0  2  0  0  0  0  0  0
  189.3860  174.7340  143.4840 C   0  0  1  0  0  3  0  0  0  0  0  0
  190.4790  172.8950  140.4000 C   0  0  0  0  0  2  0  0  0  0  0  0
  186.2810  177.8520  143.6420 C   0  0  1  0  0  3  0  0  0  0  0  0
  185.5670  179.7950  145.9660 C   0  0  0  0  0  2  0  0  0  0  0  0
  191.8090  173.5590  142.4390 C   0  0  1  0  0  3  0  0  0  0  0  0
  187.6310  176.1730  142.3410 C   0  0  0  0  0  0  0  0  0  0  0  0
  186.6310  177.4090  146.1510 C   0  0  2  0  0  3  0  0  0  0  0  0
  188.1470  175.6310  143.6530 C   0  0  2  0  0  3  0  0  0  0  0  0
  186.6550  177.1770  139.9690 C   0  0  0  0  0  3  0  0  0  0  0  0
  190.7860  172.9550  144.7300 C   0  0  0  0  0  2  0  0  0  0  0  0
  186.2910  177.7460  141.1480 N   0  0  0  0  0  0  0  0  0  0  0  0
  189.6970  174.0290  144.8130 C   0  0  0  0  0  2  0  0  0  0  0  0
  190.4810  172.9560  141.9250 C   0  0  1  0  0  3  0  0  0  0  0  0
  187.4880  176.1050  139.9580 N   0  0  0  0  0  0  0  0  0  0  0  0
  188.8290  174.4410  141.1000 N   0  0  0  0  0  0  0  0  0  0  0  0
  191.9390  174.9030  142.0700 O   0  0  0  0  0  0  0  0  0  0  0  0
  192.8590  175.4420  142.9710 C   0  0  0  0  0  2  0  0  0  0  0  0
  195.8930  174.2910  141.7250 C   0  0  0  0  0  2  0  0  0  0  0  0
  194.0740  175.3740  140.7970 C   0  0  0  0  0  2  0  0  0  0  0  0
  194.1270  175.8400  142.2370 C   0  0  2  0  0  3  0  0  0  0  0  0
  195.3690  174.8030  140.4690 N   0  0  0  0  0  2  0  0  0  0  0  0
  195.3130  175.1310  142.8420 C   0  0  0  0  0  2  0  0  0  0  0  0
  1 18  1  0  0  0  0
  2 14  1  0  0  0  0
  2 27  1  0  0  0  0
  3 16  1  6  0  0  0
  4 18  2  0  0  0  0
  4 15  1  0  0  0  0
  5 11  1  6  0  0  0
  5 19  1  0  0  0  0
  6  7  1  0  0  0  0
  7  3  1  0  0  0  0
  8 16  1  0  0  0  0
  9 27  1  6  0  0  0
  9 13  1  0  0  0  0
 10 22  1  0  0  0  0
 12  8  1  0  0  0  0
 13 20  1  0  0  0  0
 13 24  1  1  0  0  0
 15 12  1  6  0  0  0
 15  5  1  0  0  0  0
 17 28  1  1  0  0  0
 17 10  1  0  0  0  0
 18 20  1  0  0  0  0
 19  6  1  6  0  0  0
 19  3  1  0  0  0  0
 20 11  1  1  0  0  0
 21 23  2  0  0  0  0
 22 24  1  0  0  0  0
 23  4  1  0  0  0  0
 25 14  1  6  0  0  0
 25  9  1  0  0  0  0
 25 17  1  0  0  0  0
 26 21  1  0  0  0  0
 26  1  2  0  0  0  0
 27  1  1  0  0  0  0
 28 29  1  0  0  0  0
 30 34  1  0  0  0  0
 31 32  1  0  0  0  0
 32 34  1  0  0  0  0
 32 29  1  1  0  0  0
 33 31  1  0  0  0  0
 33 30  1  0  0  0  0
M  END
>  <MODEL>
6

>  <REMARK>
 VINA RESULT:      -8.0      1.697      2.481
  Name = 
  3 active torsions:
  status: ('A' for Active; 'I' for Inactive)
    1  A    between atoms: C_17  and  O_28
    2  A    between atoms: O_28  and  C_29
    3  A    between atoms: C_29  and  C_32
                            x       y       z     vdW  Elec       q    Type
                         _______ _______ _______ _____ _____    ______ ____

>  <TORSDO>
F 3

$$$$
=
 OpenBabel11112417453D

 34 41  0  0  1  0  0  0  0  0999 V2000
  192.4420  176.1690  145.8680 C   0  0  0  0  0  0  0  0  0  0  0  0
  194.8520  175.4220  146.1170 C   0  0  0  0  0  2  0  0  0  0  0  0
  186.8750  176.8090  142.1410 C   0  0  2  0  0  3  0  0  0  0  0  0
  190.0780  176.5160  145.5830 C   0  0  0  0  0  0  0  0  0  0  0  0
  188.8950  175.7910  143.4220 C   0  0  1  0  0  3  0  0  0  0  0  0
  188.7100  177.8640  142.1390 O   0  0  0  0  0  0  0  0  0  0  0  0
  187.3540  178.2400  142.0930 C   0  0  0  0  0  2  0  0  0  0  0  0
  186.4390  177.2240  144.6770 C   0  0  0  0  0  2  0  0  0  0  0  0
  193.9600  175.7800  143.8900 C   0  0  2  0  0  3  0  0  0  0  0  0
  194.6660  173.3350  141.8350 C   0  0  0  0  0  2  0  0  0  0  0  0
  190.2300  175.1000  143.1130 C   0  0  0  0  0  2  0  0  0  0  0  0
  187.5630  176.5190  145.4190 C   0  0  0  0  0  2  0  0  0  0  0  0
  192.7320  175.1840  143.1700 C   0  0  1  0  0  3  0  0  0  0  0  0
  195.9340  175.0330  145.1220 C   0  0  0  0  0  2  0  0  0  0  0  0
  188.8800  176.6900  144.6800 C   0  0  1  0  0  3  0  0  0  0  0  0
  186.0500  176.4710  143.4040 C   0  0  0  0  0  2  0  0  0  0  0  0
  195.0760  173.5020  143.3090 C   0  0  1  0  0  3  0  0  0  0  0  0
  191.3240  176.1990  145.0260 C   0  0  0  0  0  0  0  0  0  0  0  0
  188.3600  176.5030  142.1690 C   0  0  2  0  0  3  0  0  0  0  0  0
  191.4390  175.9280  143.5440 C   0  0  2  0  0  3  0  0  0  0  0  0
  191.0810  176.7170  147.7210 C   0  0  0  0  0  3  0  0  0  0  0  0
  194.2390  174.6320  141.1450 C   0  0  0  0  0  2  0  0  0  0  0  0
  189.9890  176.7820  146.9150 N   0  0  0  0  0  0  0  0  0  0  0  0
  192.8940  175.1680  141.6430 C   0  0  0  0  0  2  0  0  0  0  0  0
  195.2630  174.9710  143.7520 C   0  0  1  0  0  3  0  0  0  0  0  0
  192.2960  176.4100  147.1970 N   0  0  0  0  0  0  0  0  0  0  0  0
  193.7280  175.8660  145.3200 N   0  0  0  0  0  0  0  0  0  0  0  0
  194.1680  172.8280  144.1350 O   0  0  0  0  0  0  0  0  0  0  0  0
  194.6510  171.5210  144.2180 C   0  0  0  0  0  2  0  0  0  0  0  0
  195.8670  169.0640  146.3540 C   0  0  0  0  0  2  0  0  0  0  0  0
  196.6230  171.1460  145.6930 C   0  0  0  0  0  2  0  0  0  0  0  0
  195.1120  171.2300  145.6350 C   0  0  2  0  0  3  0  0  0  0  0  0
  196.9710  169.9970  146.5120 N   0  0  0  0  0  2  0  0  0  0  0  0
  194.6200  169.8700  146.0640 C   0  0  0  0  0  2  0  0  0  0  0  0
  1 26  1  0  0  0  0
  3  7  1  1  0  0  0
  3 19  1  0  0  0  0
  3 16  1  0  0  0  0
  4 23  2  0  0  0  0
  5 11  1  6  0  0  0
  5 15  1  0  0  0  0
  7  6  1  0  0  0  0
  8 12  1  0  0  0  0
  9 27  1  1  0  0  0
 10 17  1  0  0  0  0
 13 24  1  6  0  0  0
 13 20  1  0  0  0  0
 13  9  1  0  0  0  0
 14  2  1  0  0  0  0
 15 12  1  1  0  0  0
 15  4  1  0  0  0  0
 16  8  1  0  0  0  0
 17 25  1  0  0  0  0
 17 28  1  1  0  0  0
 18  4  1  0  0  0  0
 18  1  2  0  0  0  0
 19  6  1  1  0  0  0
 19  5  1  0  0  0  0
 20 11  1  1  0  0  0
 20 18  1  0  0  0  0
 22 24  1  0  0  0  0
 22 10  1  0  0  0  0
 23 21  1  0  0  0  0
 25  9  1  0  0  0  0
 25 14  1  1  0  0  0
 26 21  2  0  0  0  0
 27  1  1  0  0  0  0
 27  2  1  0  0  0  0
 28 29  1  0  0  0  0
 30 33  1  0  0  0  0
 31 33  1  0  0  0  0
 32 29  1  6  0  0  0
 32 31  1  0  0  0  0
 32 34  1  0  0  0  0
 34 30  1  0  0  0  0
M  END
>  <MODEL>
7

>  <REMARK>
 VINA RESULT:      -7.8      2.997      5.060
  Name = 
  3 active torsions:
  status: ('A' for Active; 'I' for Inactive)
    1  A    between atoms: C_17  and  O_28
    2  A    between atoms: O_28  and  C_29
    3  A    between atoms: C_29  and  C_32
                            x       y       z     vdW  Elec       q    Type
                         _______ _______ _______ _____ _____    ______ ____

>  <TORSDO>
F 3

$$$$
=
 OpenBabel11112417453D

 34 41  0  0  1  0  0  0  0  0999 V2000
  192.0720  176.2140  146.0550 C   0  0  0  0  0  0  0  0  0  0  0  0
  194.3520  175.1680  145.6860 C   0  0  0  0  0  2  0  0  0  0  0  0
  185.7420  177.3000  144.0420 C   0  0  2  0  0  3  0  0  0  0  0  0
  189.7810  176.8550  146.4250 C   0  0  0  0  0  0  0  0  0  0  0  0
  187.9340  176.1240  144.7980 C   0  0  1  0  0  3  0  0  0  0  0  0
  187.5930  178.0920  143.3870 O   0  0  0  0  0  0  0  0  0  0  0  0
  186.3330  178.6430  143.6890 C   0  0  0  0  0  2  0  0  0  0  0  0
  186.1350  177.9750  146.5280 C   0  0  0  0  0  2  0  0  0  0  0  0
  192.8750  175.4620  143.7850 C   0  0  2  0  0  3  0  0  0  0  0  0
  192.6670  172.7840  141.9180 C   0  0  0  0  0  2  0  0  0  0  0  0
  189.0340  175.2350  144.2010 C   0  0  0  0  0  2  0  0  0  0  0  0
  187.3490  177.1860  146.9930 C   0  0  0  0  0  2  0  0  0  0  0  0
  191.4320  174.9820  143.5250 C   0  0  1  0  0  3  0  0  0  0  0  0
  195.0370  174.5560  144.4750 C   0  0  0  0  0  2  0  0  0  0  0  0
  188.3930  177.1160  145.8910 C   0  0  1  0  0  3  0  0  0  0  0  0
  185.3040  177.1810  145.5190 C   0  0  0  0  0  2  0  0  0  0  0  0
  193.5170  173.0130  143.1810 C   0  0  1  0  0  3  0  0  0  0  0  0
  190.7620  176.3260  145.5740 C   0  0  0  0  0  0  0  0  0  0  0  0
  187.1260  176.7980  143.6770 C   0  0  2  0  0  3  0  0  0  0  0  0
  190.3970  175.9230  144.1650 C   0  0  2  0  0  3  0  0  0  0  0  0
  191.3960  177.0910  148.1440 C   0  0  0  0  0  3  0  0  0  0  0  0
  192.1930  174.0670  141.2320 C   0  0  0  0  0  2  0  0  0  0  0  0
  190.1260  177.2380  147.6850 N   0  0  0  0  0  0  0  0  0  0  0  0
  191.1240  174.8190  142.0290 C   0  0  0  0  0  2  0  0  0  0  0  0
  193.9830  174.4750  143.3740 C   0  0  1  0  0  3  0  0  0  0  0  0
  192.3580  176.5800  147.3330 N   0  0  0  0  0  0  0  0  0  0  0  0
  193.0930  175.6950  145.2000 N   0  0  0  0  0  0  0  0  0  0  0  0
  192.8340  172.5390  144.3070 O   0  0  0  0  0  0  0  0  0  0  0  0
  192.8240  171.1500  144.1690 C   0  0  0  0  0  2  0  0  0  0  0  0
  194.8650  169.5030  146.4490 C   0  0  0  0  0  2  0  0  0  0  0  0
  194.2210  169.0900  144.2680 C   0  0  0  0  0  2  0  0  0  0  0  0
  194.2170  170.5970  144.4100 C   0  0  2  0  0  3  0  0  0  0  0  0
  195.0040  168.5450  145.3640 N   0  0  0  0  0  2  0  0  0  0  0  0
  194.6350  170.8660  145.8340 C   0  0  0  0  0  2  0  0  0  0  0  0
  1 26  1  0  0  0  0
  3  7  1  1  0  0  0
  3 16  1  0  0  0  0
  4 23  2  0  0  0  0
  5 11  1  6  0  0  0
  5 15  1  0  0  0  0
  6  7  1  0  0  0  0
  8 12  1  0  0  0  0
  9 27  1  1  0  0  0
 10 17  1  0  0  0  0
 13 24  1  6  0  0  0
 13  9  1  0  0  0  0
 13 20  1  0  0  0  0
 14  2  1  0  0  0  0
 15  4  1  0  0  0  0
 15 12  1  1  0  0  0
 16  8  1  0  0  0  0
 17 25  1  0  0  0  0
 17 28  1  1  0  0  0
 18  1  2  0  0  0  0
 18  4  1  0  0  0  0
 19  6  1  1  0  0  0
 19  3  1  0  0  0  0
 19  5  1  0  0  0  0
 20 11  1  1  0  0  0
 20 18  1  0  0  0  0
 22 10  1  0  0  0  0
 22 24  1  0  0  0  0
 23 21  1  0  0  0  0
 25  9  1  0  0  0  0
 25 14  1  1  0  0  0
 26 21  2  0  0  0  0
 27  2  1  0  0  0  0
 27  1  1  0  0  0  0
 29 28  1  0  0  0  0
 31 32  1  0  0  0  0
 31 33  1  0  0  0  0
 32 29  1  1  0  0  0
 32 34  1  0  0  0  0
 33 30  1  0  0  0  0
 34 30  1  0  0  0  0
M  END
>  <MODEL>
8

>  <REMARK>
 VINA RESULT:      -7.7      2.723      4.888
  Name = 
  3 active torsions:
  status: ('A' for Active; 'I' for Inactive)
    1  A    between atoms: C_17  and  O_28
    2  A    between atoms: O_28  and  C_29
    3  A    between atoms: C_29  and  C_32
                            x       y       z     vdW  Elec       q    Type
                         _______ _______ _______ _____ _____    ______ ____

>  <TORSDO>
F 3

$$$$
=
 OpenBabel11112417453D

 34 41  0  0  1  0  0  0  0  0999 V2000
  189.8450  174.6470  142.1910 C   0  0  0  0  0  0  0  0  0  0  0  0
  188.9460  176.9390  142.7980 C   0  0  0  0  0  2  0  0  0  0  0  0
  193.4670  169.1890  143.7360 C   0  0  2  0  0  3  0  0  0  0  0  0
  190.4920  172.3470  141.9010 C   0  0  0  0  0  0  0  0  0  0  0  0
  191.6680  171.0650  143.7910 C   0  0  1  0  0  3  0  0  0  0  0  0
  194.0300  171.1480  143.1630 O   0  0  0  0  0  0  0  0  0  0  0  0
  194.4370  169.8520  142.7890 C   0  0  0  0  0  2  0  0  0  0  0  0
  191.9460  168.8280  141.6520 C   0  0  0  0  0  2  0  0  0  0  0  0
  190.8840  176.0880  143.9820 C   0  0  2  0  0  3  0  0  0  0  0  0
  190.6480  176.4520  147.2250 C   0  0  0  0  0  2  0  0  0  0  0  0
  191.3060  172.2960  144.6340 C   0  0  0  0  0  2  0  0  0  0  0  0
  190.8300  169.8540  141.7610 C   0  0  0  0  0  2  0  0  0  0  0  0
  191.1060  174.7870  144.7840 C   0  0  1  0  0  3  0  0  0  0  0  0
  189.3100  177.9530  143.8700 C   0  0  0  0  0  2  0  0  0  0  0  0
  191.3700  171.1770  142.2770 C   0  0  1  0  0  3  0  0  0  0  0  0
  192.3910  168.3350  143.0290 C   0  0  0  0  0  2  0  0  0  0  0  0
  189.6560  176.8890  146.1320 C   0  0  1  0  0  3  0  0  0  0  0  0
  190.5720  173.5370  142.6370 C   0  0  0  0  0  0  0  0  0  0  0  0
  193.1100  170.6210  144.0870 C   0  0  2  0  0  3  0  0  0  0  0  0
  191.4540  173.6060  143.8620 C   0  0  2  0  0  3  0  0  0  0  0  0
  188.9900  173.3810  140.3870 C   0  0  0  0  0  3  0  0  0  0  0  0
  192.0700  176.1960  146.7230 C   0  0  0  0  0  2  0  0  0  0  0  0
  189.7140  172.3020  140.7850 N   0  0  0  0  0  0  0  0  0  0  0  0
  192.1900  174.9360  145.8620 C   0  0  0  0  0  2  0  0  0  0  0  0
  190.3210  177.2720  144.7890 C   0  0  1  0  0  3  0  0  0  0  0  0
  189.0560  174.5420  141.0890 N   0  0  0  0  0  0  0  0  0  0  0  0
  189.9250  175.8770  142.9140 N   0  0  0  0  0  0  0  0  0  0  0  0
  188.6750  175.9060  145.9580 O   0  0  0  0  0  0  0  0  0  0  0  0
  187.6810  176.2130  146.8890 C   0  0  0  0  0  2  0  0  0  0  0  0
  184.5100  177.5860  146.5130 C   0  0  0  0  0  2  0  0  0  0  0  0
  186.4280  178.2350  147.6300 C   0  0  0  0  0  2  0  0  0  0  0  0
  186.9080  177.4380  146.4350 C   0  0  2  0  0  3  0  0  0  0  0  0
  185.0510  178.6240  147.3770 N   0  0  0  0  0  2  0  0  0  0  0  0
  185.6570  177.0140  145.7080 C   0  0  0  0  0  2  0  0  0  0  0  0
  1 18  1  0  0  0  0
  1 27  1  0  0  0  0
  2 27  1  0  0  0  0
  2 14  1  0  0  0  0
  3  7  1  6  0  0  0
  3 19  1  0  0  0  0
  4 15  1  0  0  0  0
  4 18  2  0  0  0  0
  5 19  1  0  0  0  0
  5 11  1  1  0  0  0
  7  6  1  0  0  0  0
  8 12  1  0  0  0  0
  8 16  1  0  0  0  0
  9 27  1  6  0  0  0
  9 13  1  0  0  0  0
  9 25  1  0  0  0  0
 13 24  1  1  0  0  0
 15 12  1  1  0  0  0
 15  5  1  0  0  0  0
 16  3  1  0  0  0  0
 17 28  1  6  0  0  0
 17 10  1  0  0  0  0
 18 20  1  0  0  0  0
 19  6  1  6  0  0  0
 20 11  1  1  0  0  0
 20 13  1  0  0  0  0
 21 23  2  0  0  0  0
 21 26  1  0  0  0  0
 22 10  1  0  0  0  0
 23  4  1  0  0  0  0
 24 22  1  0  0  0  0
 25 14  1  6  0  0  0
 25 17  1  0  0  0  0
 26  1  2  0  0  0  0
 28 29  1  0  0  0  0
 30 33  1  0  0  0  0
 32 29  1  1  0  0  0
 32 31  1  0  0  0  0
 33 31  1  0  0  0  0
 34 32  1  0  0  0  0
 34 30  1  0  0  0  0
M  END
>  <MODEL>
9

>  <REMARK>
 VINA RESULT:      -7.7      2.722      7.702
  Name = 
  3 active torsions:
  status: ('A' for Active; 'I' for Inactive)
    1  A    between atoms: C_17  and  O_28
    2  A    between atoms: O_28  and  C_29
    3  A    between atoms: C_29  and  C_32
                            x       y       z     vdW  Elec       q    Type
                         _______ _______ _______ _____ _____    ______ ____

>  <TORSDO>
F 3

$$$$
