=
 OpenBabel11112416383D

 32 37  0  0  1  0  0  0  0  0999 V2000
  194.9360  175.6200  146.3640 C   0  0  0  0  0  2  0  0  0  0  0  0
  189.4760  175.3740  144.5990 C   0  0  1  0  0  3  0  0  0  0  0  0
  189.6290  173.6970  139.9340 C   0  0  0  0  0  2  0  0  0  0  0  0
  188.1910  173.8760  140.1370 N   0  0  0  0  0  2  0  0  0  0  0  0
  187.5600  177.0310  145.2620 C   0  0  2  0  0  3  0  0  0  0  0  0
  186.7720  178.2360  144.7360 C   0  0  2  0  0  3  0  0  0  0  0  0
  191.7710  175.6610  145.5480 N   0  0  2  0  0  0  0  0  0  0  0  0
  191.3080  173.8360  143.9030 C   0  0  0  0  0  2  0  0  0  0  0  0
  184.9380  178.2920  143.3290 C   0  0  0  0  0  0  0  0  0  0  0  0
  193.6350  174.3390  144.5990 C   0  0  0  0  0  2  0  0  0  0  0  0
  190.4290  174.1120  141.1780 C   0  0  0  0  0  2  0  0  0  0  0  0
  190.3610  174.9370  143.4140 C   0  0  1  0  0  3  0  0  0  0  0  0
  189.5390  174.4950  142.2800 N   0  0  1  0  0  0  0  0  0  0  0  0
  187.7880  176.1110  142.9200 C   0  0  2  0  0  3  0  0  0  0  0  0
  184.4530  178.7370  144.5840 N   0  0  0  0  0  2  0  0  0  0  0  0
  193.7800  176.6120  146.5350 C   0  0  0  0  0  2  0  0  0  0  0  0
  192.1830  174.3260  145.0670 C   0  0  1  0  0  3  0  0  0  0  0  0
  185.5260  178.5820  145.5600 C   0  0  0  0  0  2  0  0  0  0  0  0
  192.4410  175.9420  146.8120 C   0  0  0  0  0  2  0  0  0  0  0  0
  194.5620  174.2430  145.8000 C   0  0  1  0  0  3  0  0  0  0  0  0
  187.9310  175.2570  140.5450 C   0  0  0  0  0  2  0  0  0  0  0  0
  188.7290  175.6340  141.8110 C   0  0  2  0  0  3  0  0  0  0  0  0
  186.8910  177.1600  142.4380 N   0  0  0  0  0  2  0  0  0  0  0  0
  190.3390  175.6470  145.8470 C   0  0  0  0  0  2  0  0  0  0  0  0
  188.2380  177.4700  146.5500 C   0  0  0  0  0  1  0  0  0  0  0  0
  184.0520  178.0450  142.1580 C   0  0  0  0  0  1  0  0  0  0  0  0
  188.5740  176.5550  144.1780 C   0  0  2  0  0  3  0  0  0  0  0  0
  186.2070  177.9580  143.3970 C   0  0  0  0  0  0  0  0  0  0  0  0
  195.7690  173.5230  145.4210 N   0  0  0  0  0  2  0  0  0  0  0  0
  195.8810  172.1020  145.5200 C   0  0  0  0  0  0  0  0  0  0  0  0
  194.9120  171.4060  145.9240 O   0  0  0  0  0  0  0  0  0  0  0  0
  197.1550  171.4380  145.1380 C   0  0  0  0  0  1  0  0  0  0  0  0
  1 16  1  0  0  0  0
  2 24  1  1  0  0  0
  3  4  1  0  0  0  0
  3 11  1  0  0  0  0
  4 21  1  0  0  0  0
  5 25  1  1  0  0  0
  6  5  1  0  0  0  0
  6 18  1  1  0  0  0
  7 24  1  1  0  0  0
  7 19  1  0  0  0  0
  9 28  2  0  0  0  0
  9 15  1  0  0  0  0
 10 17  1  0  0  0  0
 10 20  1  0  0  0  0
 12  8  1  1  0  0  0
 12  2  1  0  0  0  0
 13 11  1  6  0  0  0
 13 12  1  0  0  0  0
 14 23  1  6  0  0  0
 14 27  1  0  0  0  0
 15 18  1  0  0  0  0
 16 19  1  0  0  0  0
 17  8  1  6  0  0  0
 17  7  1  0  0  0  0
 20 29  1  6  0  0  0
 20  1  1  0  0  0  0
 22 21  1  6  0  0  0
 22 13  1  0  0  0  0
 22 14  1  0  0  0  0
 23 28  1  0  0  0  0
 26  9  1  0  0  0  0
 27  2  1  0  0  0  0
 27  5  1  0  0  0  0
 28  6  1  0  0  0  0
 29 30  1  0  0  0  0
 30 31  2  0  0  0  0
 32 30  1  0  0  0  0
M  END
>  <MODEL>
1

>  <REMARK>
 VINA RESULT:      -9.0      0.000      0.000
  Name = 
  1 active torsions:
  status: ('A' for Active; 'I' for Inactive)
    1  A    between atoms: C_20  and  N_29
                            x       y       z     vdW  Elec       q    Type
                         _______ _______ _______ _____ _____    ______ ____

>  <TORSDO>
F 1

$$$$
=
 OpenBabel11112416383D

 32 37  0  0  1  0  0  0  0  0999 V2000
  185.0560  177.8480  144.7340 C   0  0  0  0  0  2  0  0  0  0  0  0
  190.2420  175.9050  143.2140 C   0  0  1  0  0  3  0  0  0  0  0  0
  189.4300  172.3240  139.8810 C   0  0  0  0  0  2  0  0  0  0  0  0
  190.8910  172.3260  139.9630 N   0  0  0  0  0  2  0  0  0  0  0  0
  192.3360  175.7010  144.7740 C   0  0  2  0  0  3  0  0  0  0  0  0
  193.1410  174.6770  145.5830 C   0  0  2  0  0  3  0  0  0  0  0  0
  188.0990  176.8370  144.1020 N   0  0  2  0  0  0  0  0  0  0  0  0
  188.2370  176.0260  141.7400 C   0  0  0  0  0  2  0  0  0  0  0  0
  194.7990  173.2260  144.8820 C   0  0  0  0  0  0  0  0  0  0  0  0
  186.0480  176.6440  142.7300 C   0  0  0  0  0  2  0  0  0  0  0  0
  188.8120  173.3570  140.8340 C   0  0  0  0  0  2  0  0  0  0  0  0
  189.1970  175.0660  142.4510 C   0  0  1  0  0  3  0  0  0  0  0  0
  189.8490  174.1430  141.5140 N   0  0  1  0  0  0  0  0  0  0  0  0
  191.7730  173.9450  143.0460 C   0  0  2  0  0  3  0  0  0  0  0  0
  195.4560  174.1570  145.7230 N   0  0  0  0  0  2  0  0  0  0  0  0
  186.2910  177.5170  145.5790 C   0  0  0  0  0  2  0  0  0  0  0  0
  187.5400  176.9630  142.7400 C   0  0  1  0  0  3  0  0  0  0  0  0
  194.4960  175.1950  146.0820 C   0  0  0  0  0  2  0  0  0  0  0  0
  187.6020  177.9330  144.9260 C   0  0  0  0  0  2  0  0  0  0  0  0
  185.2620  177.8520  143.2150 C   0  0  1  0  0  3  0  0  0  0  0  0
  191.2940  172.1280  141.3560 C   0  0  0  0  0  2  0  0  0  0  0  0
  190.6780  173.1960  142.2820 C   0  0  2  0  0  3  0  0  0  0  0  0
  192.6790  173.0160  143.7170 N   0  0  0  0  0  2  0  0  0  0  0  0
  189.5520  177.0040  144.0460 C   0  0  0  0  0  2  0  0  0  0  0  0
  191.8440  176.7550  145.7530 C   0  0  0  0  0  1  0  0  0  0  0  0
  195.5230  172.1850  144.1010 C   0  0  0  0  0  1  0  0  0  0  0  0
  191.1710  174.9790  144.0290 C   0  0  2  0  0  3  0  0  0  0  0  0
  193.5250  173.5210  144.7440 C   0  0  0  0  0  0  0  0  0  0  0  0
  183.9710  177.8880  142.5430 N   0  0  0  0  0  2  0  0  0  0  0  0
  183.8310  178.2220  141.1610 C   0  0  0  0  0  0  0  0  0  0  0  0
  184.8420  178.4790  140.4550 O   0  0  0  0  0  0  0  0  0  0  0  0
  182.4770  178.2620  140.5490 C   0  0  0  0  0  1  0  0  0  0  0  0
  1 16  1  0  0  0  0
  2 27  1  0  0  0  0
  2 24  1  1  0  0  0
  3  4  1  0  0  0  0
  3 11  1  0  0  0  0
  4 21  1  0  0  0  0
  5  6  1  0  0  0  0
  5 25  1  1  0  0  0
  6 18  1  6  0  0  0
  7 24  1  6  0  0  0
  7 19  1  0  0  0  0
  9 15  1  0  0  0  0
 10 17  1  0  0  0  0
 10 20  1  0  0  0  0
 12  8  1  6  0  0  0
 12  2  1  0  0  0  0
 13 11  1  1  0  0  0
 13 22  1  0  0  0  0
 13 12  1  0  0  0  0
 14 23  1  1  0  0  0
 14 27  1  0  0  0  0
 15 18  1  0  0  0  0
 17  8  1  6  0  0  0
 17  7  1  0  0  0  0
 19 16  1  0  0  0  0
 20 29  1  6  0  0  0
 20  1  1  0  0  0  0
 22 21  1  6  0  0  0
 22 14  1  0  0  0  0
 23 28  1  0  0  0  0
 26  9  1  0  0  0  0
 27  5  1  0  0  0  0
 28  9  2  0  0  0  0
 28  6  1  0  0  0  0
 30 29  1  0  0  0  0
 31 30  2  0  0  0  0
 32 30  1  0  0  0  0
M  END
>  <MODEL>
2

>  <REMARK>
 VINA RESULT:      -8.3      2.811      8.116
  Name = 
  1 active torsions:
  status: ('A' for Active; 'I' for Inactive)
    1  A    between atoms: C_20  and  N_29
                            x       y       z     vdW  Elec       q    Type
                         _______ _______ _______ _____ _____    ______ ____

>  <TORSDO>
F 1

$$$$
=
 OpenBabel11112416383D

 32 37  0  0  1  0  0  0  0  0999 V2000
  189.4550  171.9260  138.9030 C   0  0  0  0  0  2  0  0  0  0  0  0
  188.7650  176.1240  142.7610 C   0  0  1  0  0  3  0  0  0  0  0  0
  191.6410  174.9160  146.6160 C   0  0  0  0  0  2  0  0  0  0  0  0
  191.0500  176.1740  147.0710 N   0  0  0  0  0  2  0  0  0  0  0  0
  186.5550  177.4500  143.2260 C   0  0  2  0  0  3  0  0  0  0  0  0
  185.3800  177.5290  144.2080 C   0  0  2  0  0  3  0  0  0  0  0  0
  188.8280  174.3690  140.9820 N   0  0  2  0  0  0  0  0  0  0  0  0
  190.8520  174.8200  142.3790 C   0  0  0  0  0  2  0  0  0  0  0  0
  185.2440  178.6020  146.2520 C   0  0  0  0  0  0  0  0  0  0  0  0
  190.7930  172.8720  140.8430 C   0  0  0  0  0  2  0  0  0  0  0  0
  191.1200  174.5190  145.2270 C   0  0  0  0  0  2  0  0  0  0  0  0
  189.7230  175.0870  143.3800 C   0  0  1  0  0  3  0  0  0  0  0  0
  190.2330  175.5510  144.6760 N   0  0  1  0  0  0  0  0  0  0  0  0
  188.1100  176.7380  145.0860 C   0  0  2  0  0  3  0  0  0  0  0  0
  184.3620  179.3150  145.4030 N   0  0  0  0  0  2  0  0  0  0  0  0
  188.1910  172.6460  139.3880 C   0  0  0  0  0  2  0  0  0  0  0  0
  190.3020  174.3040  141.0390 C   0  0  1  0  0  3  0  0  0  0  0  0
  184.5120  178.7840  144.0520 C   0  0  0  0  0  2  0  0  0  0  0  0
  188.3910  174.1390  139.6100 C   0  0  0  0  0  2  0  0  0  0  0  0
  190.7890  172.5270  139.3630 C   0  0  1  0  0  3  0  0  0  0  0  0
  189.5920  176.0660  147.0210 C   0  0  0  0  0  2  0  0  0  0  0  0
  189.0990  175.6930  145.6070 C   0  0  2  0  0  3  0  0  0  0  0  0
  187.0400  176.9820  146.0520 N   0  0  0  0  0  2  0  0  0  0  0  0
  188.3900  175.7240  141.3200 C   0  0  0  0  0  2  0  0  0  0  0  0
  185.9680  177.1660  141.8530 C   0  0  0  0  0  1  0  0  0  0  0  0
  185.5670  179.0410  147.6380 C   0  0  0  0  0  1  0  0  0  0  0  0
  187.5550  176.3490  143.6940 C   0  0  2  0  0  3  0  0  0  0  0  0
  185.8620  177.6400  145.6030 C   0  0  0  0  0  0  0  0  0  0  0  0
  191.8710  171.5940  139.0830 N   0  0  0  0  0  2  0  0  0  0  0  0
  192.6070  171.6130  137.8590 C   0  0  0  0  0  0  0  0  0  0  0  0
  192.3580  172.4710  136.9700 O   0  0  0  0  0  0  0  0  0  0  0  0
  193.6830  170.6120  137.6330 C   0  0  0  0  0  1  0  0  0  0  0  0
  1 20  1  0  0  0  0
  1 16  1  0  0  0  0
  2 24  1  6  0  0  0
  2 12  1  0  0  0  0
  2 27  1  0  0  0  0
  3  4  1  0  0  0  0
  5 25  1  6  0  0  0
  5 27  1  0  0  0  0
  5  6  1  0  0  0  0
  6 18  1  6  0  0  0
  6 28  1  0  0  0  0
  7 19  1  6  0  0  0
  7 17  1  0  0  0  0
  7 24  1  0  0  0  0
  9 26  1  0  0  0  0
 11  3  1  0  0  0  0
 12  8  1  6  0  0  0
 12 13  1  0  0  0  0
 13 11  1  1  0  0  0
 13 22  1  0  0  0  0
 14 22  1  0  0  0  0
 14 23  1  1  0  0  0
 15  9  1  0  0  0  0
 16 19  1  0  0  0  0
 17 10  1  1  0  0  0
 17  8  1  0  0  0  0
 18 15  1  0  0  0  0
 20 29  1  1  0  0  0
 20 10  1  0  0  0  0
 21  4  1  0  0  0  0
 22 21  1  1  0  0  0
 27 14  1  0  0  0  0
 28 23  1  0  0  0  0
 28  9  2  0  0  0  0
 30 29  1  0  0  0  0
 31 30  2  0  0  0  0
 32 30  1  0  0  0  0
M  END
>  <MODEL>
3

>  <REMARK>
 VINA RESULT:      -8.1      2.919      5.656
  Name = 
  1 active torsions:
  status: ('A' for Active; 'I' for Inactive)
    1  A    between atoms: C_20  and  N_29
                            x       y       z     vdW  Elec       q    Type
                         _______ _______ _______ _____ _____    ______ ____

>  <TORSDO>
F 1

$$$$
=
 OpenBabel11112416383D

 32 37  0  0  1  0  0  0  0  0999 V2000
  195.0230  173.8670  145.7590 C   0  0  0  0  0  2  0  0  0  0  0  0
  189.6830  174.5490  143.7560 C   0  0  1  0  0  3  0  0  0  0  0  0
  189.5500  172.1810  139.4010 C   0  0  0  0  0  2  0  0  0  0  0  0
  188.1850  172.6980  139.4980 N   0  0  0  0  0  2  0  0  0  0  0  0
  188.1730  176.6670  144.0660 C   0  0  2  0  0  3  0  0  0  0  0  0
  187.6870  177.9190  143.3280 C   0  0  2  0  0  3  0  0  0  0  0  0
  191.9650  174.4720  144.7750 N   0  0  2  0  0  0  0  0  0  0  0  0
  191.1380  172.5600  143.3920 C   0  0  0  0  0  2  0  0  0  0  0  0
  185.9400  178.1560  141.8320 C   0  0  0  0  0  0  0  0  0  0  0  0
  193.5040  172.6440  144.1310 C   0  0  0  0  0  2  0  0  0  0  0  0
  190.3980  172.5980  140.6120 C   0  0  0  0  0  2  0  0  0  0  0  0
  190.4710  173.7530  142.6970 C   0  0  1  0  0  3  0  0  0  0  0  0
  189.5940  173.3310  141.5980 N   0  0  1  0  0  0  0  0  0  0  0  0
  188.2370  175.3690  141.8990 C   0  0  2  0  0  3  0  0  0  0  0  0
  185.5420  178.8840  142.9800 N   0  0  0  0  0  2  0  0  0  0  0  0
  194.1150  175.1020  145.7200 C   0  0  0  0  0  2  0  0  0  0  0  0
  192.0770  173.0220  144.5170 C   0  0  1  0  0  3  0  0  0  0  0  0
  186.5330  178.6520  144.0250 C   0  0  0  0  0  2  0  0  0  0  0  0
  192.6550  174.7920  146.0190 C   0  0  0  0  0  2  0  0  0  0  0  0
  194.3620  172.5350  145.3820 C   0  0  1  0  0  3  0  0  0  0  0  0
  188.2330  174.1480  139.6860 C   0  0  0  0  0  2  0  0  0  0  0  0
  189.0690  174.5330  140.9240 C   0  0  2  0  0  3  0  0  0  0  0  0
  187.6080  176.5010  141.2210 N   0  0  0  0  0  2  0  0  0  0  0  0
  190.5600  174.8170  144.9960 C   0  0  0  0  0  2  0  0  0  0  0  0
  188.9070  177.1410  145.3110 C   0  0  0  0  0  1  0  0  0  0  0  0
  185.0450  177.9310  140.6630 C   0  0  0  0  0  1  0  0  0  0  0  0
  189.0770  175.8190  143.1200 C   0  0  2  0  0  3  0  0  0  0  0  0
  187.1010  177.5670  142.0160 C   0  0  0  0  0  0  0  0  0  0  0  0
  195.3840  171.5200  145.1780 N   0  0  0  0  0  2  0  0  0  0  0  0
  195.0810  170.1260  145.1020 C   0  0  0  0  0  0  0  0  0  0  0  0
  193.8910  169.7200  145.1850 O   0  0  0  0  0  0  0  0  0  0  0  0
  196.1810  169.1430  144.9170 C   0  0  0  0  0  1  0  0  0  0  0  0
  2 24  1  1  0  0  0
  3  4  1  0  0  0  0
  3 11  1  0  0  0  0
  4 21  1  0  0  0  0
  5 25  1  1  0  0  0
  6 18  1  1  0  0  0
  6  5  1  0  0  0  0
  7 24  1  1  0  0  0
  7 19  1  0  0  0  0
  9 28  2  0  0  0  0
  9 15  1  0  0  0  0
 10 17  1  0  0  0  0
 10 20  1  0  0  0  0
 12  8  1  1  0  0  0
 12  2  1  0  0  0  0
 13 11  1  6  0  0  0
 13 12  1  0  0  0  0
 14 23  1  6  0  0  0
 14 27  1  0  0  0  0
 15 18  1  0  0  0  0
 16  1  1  0  0  0  0
 16 19  1  0  0  0  0
 17  8  1  6  0  0  0
 17  7  1  0  0  0  0
 20 29  1  6  0  0  0
 20  1  1  0  0  0  0
 22 21  1  6  0  0  0
 22 13  1  0  0  0  0
 22 14  1  0  0  0  0
 23 28  1  0  0  0  0
 26  9  1  0  0  0  0
 27  2  1  0  0  0  0
 27  5  1  0  0  0  0
 28  6  1  0  0  0  0
 30 29  1  0  0  0  0
 30 31  2  0  0  0  0
 32 30  1  0  0  0  0
M  END
>  <MODEL>
4

>  <REMARK>
 VINA RESULT:      -7.9      1.499      1.656
  Name = 
  1 active torsions:
  status: ('A' for Active; 'I' for Inactive)
    1  A    between atoms: C_20  and  N_29
                            x       y       z     vdW  Elec       q    Type
                         _______ _______ _______ _____ _____    ______ ____

>  <TORSDO>
F 1

$$$$
=
 OpenBabel11112416383D

 32 37  0  0  1  0  0  0  0  0999 V2000
  186.6970  178.1350  142.4980 C   0  0  0  0  0  2  0  0  0  0  0  0
  191.3980  174.8460  142.7750 C   0  0  1  0  0  3  0  0  0  0  0  0
  194.1070  176.6570  146.5130 C   0  0  0  0  0  2  0  0  0  0  0  0
  194.9440  175.5490  146.0510 N   0  0  0  0  0  2  0  0  0  0  0  0
  192.6470  173.7600  140.7460 C   0  0  2  0  0  3  0  0  0  0  0  0
  193.8770  173.9430  139.8490 C   0  0  2  0  0  3  0  0  0  0  0  0
  189.3290  176.1990  142.3990 N   0  0  2  0  0  0  0  0  0  0  0  0
  190.2600  175.9350  144.7050 C   0  0  0  0  0  2  0  0  0  0  0  0
  196.0710  173.3140  140.2190 C   0  0  0  0  0  0  0  0  0  0  0  0
  188.4120  177.5320  144.2720 C   0  0  0  0  0  2  0  0  0  0  0  0
  192.8330  176.7910  145.6660 C   0  0  0  0  0  2  0  0  0  0  0  0
  191.5370  175.9360  143.8570 C   0  0  1  0  0  3  0  0  0  0  0  0
  192.7390  175.7170  144.6700 N   0  0  1  0  0  0  0  0  0  0  0  0
  193.8870  174.7500  142.7110 C   0  0  2  0  0  3  0  0  0  0  0  0
  195.6270  172.4910  139.1540 N   0  0  0  0  0  2  0  0  0  0  0  0
  187.6110  177.5950  141.3920 C   0  0  0  0  0  2  0  0  0  0  0  0
  189.0150  176.1980  143.8430 C   0  0  1  0  0  3  0  0  0  0  0  0
  194.2000  172.7290  138.9680 C   0  0  0  0  0  2  0  0  0  0  0  0
  188.0850  176.1690  141.6390 C   0  0  0  0  0  2  0  0  0  0  0  0
  186.9370  177.5700  143.9040 C   0  0  1  0  0  3  0  0  0  0  0  0
  195.2240  175.7210  144.6250 C   0  0  0  0  0  2  0  0  0  0  0  0
  193.9240  175.8260  143.8000 C   0  0  2  0  0  3  0  0  0  0  0  0
  195.1110  174.7640  141.9130 N   0  0  0  0  0  2  0  0  0  0  0  0
  190.0380  174.9660  142.0570 C   0  0  0  0  0  2  0  0  0  0  0  0
  191.4270  173.7910  139.8390 C   0  0  0  0  0  1  0  0  0  0  0  0
  197.3980  173.1480  140.8730 C   0  0  0  0  0  1  0  0  0  0  0  0
  192.6200  174.8780  141.8310 C   0  0  2  0  0  3  0  0  0  0  0  0
  195.1070  174.0910  140.6590 C   0  0  0  0  0  0  0  0  0  0  0  0
  186.2170  178.3690  144.8840 N   0  0  0  0  0  2  0  0  0  0  0  0
  185.4760  177.7870  145.9580 C   0  0  0  0  0  0  0  0  0  0  0  0
  185.4400  176.5370  146.1120 O   0  0  0  0  0  0  0  0  0  0  0  0
  184.7440  178.6660  146.9070 C   0  0  0  0  0  1  0  0  0  0  0  0
  1 20  1  0  0  0  0
  2 24  1  6  0  0  0
  2 12  1  0  0  0  0
  4  3  1  0  0  0  0
  5 25  1  6  0  0  0
  5 27  1  0  0  0  0
  6 18  1  6  0  0  0
  6 28  1  0  0  0  0
  6  5  1  0  0  0  0
  7 19  1  6  0  0  0
  7 17  1  0  0  0  0
  9 28  2  0  0  0  0
  9 26  1  0  0  0  0
 11  3  1  0  0  0  0
 12 13  1  0  0  0  0
 12  8  1  1  0  0  0
 13 11  1  1  0  0  0
 14 23  1  6  0  0  0
 14 22  1  0  0  0  0
 15  9  1  0  0  0  0
 16 19  1  0  0  0  0
 16  1  1  0  0  0  0
 17 10  1  1  0  0  0
 17  8  1  0  0  0  0
 18 15  1  0  0  0  0
 20 10  1  0  0  0  0
 20 29  1  1  0  0  0
 21  4  1  0  0  0  0
 22 21  1  1  0  0  0
 22 13  1  0  0  0  0
 24  7  1  0  0  0  0
 27 14  1  0  0  0  0
 27  2  1  0  0  0  0
 28 23  1  0  0  0  0
 29 30  1  0  0  0  0
 30 31  2  0  0  0  0
 30 32  1  0  0  0  0
M  END
>  <MODEL>
5

>  <REMARK>
 VINA RESULT:      -7.7      3.201      8.709
  Name = 
  1 active torsions:
  status: ('A' for Active; 'I' for Inactive)
    1  A    between atoms: C_20  and  N_29
                            x       y       z     vdW  Elec       q    Type
                         _______ _______ _______ _____ _____    ______ ____

>  <TORSDO>
F 1

$$$$
=
 OpenBabel11112416383D

 32 37  0  0  1  0  0  0  0  0999 V2000
  192.0750  169.8360  142.4130 C   0  0  0  0  0  2  0  0  0  0  0  0
  190.1510  175.1930  143.1820 C   0  0  1  0  0  3  0  0  0  0  0  0
  190.9830  176.2660  147.9510 C   0  0  0  0  0  2  0  0  0  0  0  0
  190.3620  177.5010  147.4740 N   0  0  0  0  0  2  0  0  0  0  0  0
  188.0740  176.2740  142.0080 C   0  0  2  0  0  3  0  0  0  0  0  0
  186.6040  176.6310  142.2500 C   0  0  2  0  0  3  0  0  0  0  0  0
  190.8240  172.8470  142.6370 N   0  0  2  0  0  0  0  0  0  0  0  0
  192.0840  174.1510  144.3590 C   0  0  0  0  0  2  0  0  0  0  0  0
  185.6940  178.4860  143.2890 C   0  0  0  0  0  0  0  0  0  0  0  0
  192.5260  171.7300  144.0430 C   0  0  0  0  0  2  0  0  0  0  0  0
  191.0770  175.2160  146.8350 C   0  0  0  0  0  2  0  0  0  0  0  0
  190.6610  174.6890  144.5470 C   0  0  1  0  0  3  0  0  0  0  0  0
  190.6030  175.7550  145.5550 N   0  0  1  0  0  0  0  0  0  0  0  0
  188.6160  176.7010  144.4390 C   0  0  2  0  0  3  0  0  0  0  0  0
  185.3250  178.6100  141.9270 N   0  0  0  0  0  2  0  0  0  0  0  0
  190.7910  170.5210  141.9300 C   0  0  0  0  0  2  0  0  0  0  0  0
  192.1200  173.0140  143.3250 C   0  0  1  0  0  3  0  0  0  0  0  0
  185.9950  177.5490  141.1820 C   0  0  0  0  0  2  0  0  0  0  0  0
  191.0010  171.9630  141.4910 C   0  0  0  0  0  2  0  0  0  0  0  0
  193.1280  170.7540  143.0460 C   0  0  1  0  0  3  0  0  0  0  0  0
  189.0630  177.1870  146.8790 C   0  0  0  0  0  2  0  0  0  0  0  0
  189.1950  176.1500  145.7440 C   0  0  2  0  0  3  0  0  0  0  0  0
  187.2600  177.2100  144.6350 N   0  0  0  0  0  2  0  0  0  0  0  0
  190.3980  174.1350  142.0870 C   0  0  0  0  0  2  0  0  0  0  0  0
  188.1120  175.3210  140.8240 C   0  0  0  0  0  1  0  0  0  0  0  0
  185.4270  179.5450  144.3010 C   0  0  0  0  0  1  0  0  0  0  0  0
  188.6810  175.6510  143.3020 C   0  0  2  0  0  3  0  0  0  0  0  0
  186.4470  177.4280  143.4880 C   0  0  0  0  0  0  0  0  0  0  0  0
  194.1430  169.9500  143.7120 N   0  0  0  0  0  2  0  0  0  0  0  0
  195.5430  170.1880  143.5510 C   0  0  0  0  0  0  0  0  0  0  0  0
  195.9560  171.1370  142.8310 O   0  0  0  0  0  0  0  0  0  0  0  0
  196.5220  169.3110  144.2430 C   0  0  0  0  0  1  0  0  0  0  0  0
  1 20  1  0  0  0  0
  2 24  1  6  0  0  0
  2 27  1  0  0  0  0
  2 12  1  0  0  0  0
  4  3  1  0  0  0  0
  5 25  1  6  0  0  0
  5  6  1  0  0  0  0
  5 27  1  0  0  0  0
  6 18  1  6  0  0  0
  6 28  1  0  0  0  0
  7 19  1  6  0  0  0
  7 17  1  0  0  0  0
  9 28  2  0  0  0  0
  9 26  1  0  0  0  0
 11  3  1  0  0  0  0
 12  8  1  6  0  0  0
 12 13  1  0  0  0  0
 13 22  1  0  0  0  0
 13 11  1  1  0  0  0
 14 23  1  1  0  0  0
 14 22  1  0  0  0  0
 15  9  1  0  0  0  0
 16  1  1  0  0  0  0
 17 10  1  1  0  0  0
 17  8  1  0  0  0  0
 18 15  1  0  0  0  0
 19 16  1  0  0  0  0
 20 29  1  1  0  0  0
 20 10  1  0  0  0  0
 21  4  1  0  0  0  0
 22 21  1  1  0  0  0
 24  7  1  0  0  0  0
 27 14  1  0  0  0  0
 28 23  1  0  0  0  0
 30 29  1  0  0  0  0
 30 32  1  0  0  0  0
 31 30  2  0  0  0  0
M  END
>  <MODEL>
6

>  <REMARK>
 VINA RESULT:      -7.5      2.152      4.489
  Name = 
  1 active torsions:
  status: ('A' for Active; 'I' for Inactive)
    1  A    between atoms: C_20  and  N_29
                            x       y       z     vdW  Elec       q    Type
                         _______ _______ _______ _____ _____    ______ ____

>  <TORSDO>
F 1

$$$$
=
 OpenBabel11112416383D

 32 37  0  0  1  0  0  0  0  0999 V2000
  191.5890  171.6680  139.6580 C   0  0  0  0  0  2  0  0  0  0  0  0
  189.6120  175.8160  143.1040 C   0  0  1  0  0  3  0  0  0  0  0  0
  191.9660  175.2290  147.4290 C   0  0  0  0  0  2  0  0  0  0  0  0
  191.1150  176.3850  147.7100 N   0  0  0  0  0  2  0  0  0  0  0  0
  187.1740  176.7700  143.1340 C   0  0  2  0  0  3  0  0  0  0  0  0
  185.8560  176.6850  143.9120 C   0  0  2  0  0  3  0  0  0  0  0  0
  190.2470  174.0400  141.4630 N   0  0  2  0  0  0  0  0  0  0  0  0
  191.9150  174.8650  143.1330 C   0  0  0  0  0  2  0  0  0  0  0  0
  185.2140  177.7860  145.8410 C   0  0  0  0  0  0  0  0  0  0  0  0
  192.4200  172.8860  141.7250 C   0  0  0  0  0  2  0  0  0  0  0  0
  191.7510  174.7060  146.0010 C   0  0  0  0  0  2  0  0  0  0  0  0
  190.6070  174.9730  143.9260 C   0  0  1  0  0  3  0  0  0  0  0  0
  190.8160  175.5580  145.2570 N   0  0  1  0  0  0  0  0  0  0  0  0
  188.4920  176.3880  145.2550 C   0  0  2  0  0  3  0  0  0  0  0  0
  184.3830  178.3150  144.8230 N   0  0  0  0  0  2  0  0  0  0  0  0
  190.1650  172.1840  139.8930 C   0  0  0  0  0  2  0  0  0  0  0  0
  191.6830  174.2220  141.7570 C   0  0  1  0  0  3  0  0  0  0  0  0
  184.8370  177.7720  143.5470 C   0  0  0  0  0  2  0  0  0  0  0  0
  190.0860  173.6960  140.0550 C   0  0  0  0  0  2  0  0  0  0  0  0
  192.7160  172.4970  140.2860 C   0  0  1  0  0  3  0  0  0  0  0  0
  189.7210  176.0350  147.4360 C   0  0  0  0  0  2  0  0  0  0  0  0
  189.5350  175.5390  145.9870 C   0  0  2  0  0  3  0  0  0  0  0  0
  187.2530  176.4820  146.0240 N   0  0  0  0  0  2  0  0  0  0  0  0
  189.5490  175.3130  141.6470 C   0  0  0  0  0  2  0  0  0  0  0  0
  186.8750  176.3480  141.7050 C   0  0  0  0  0  1  0  0  0  0  0  0
  185.2300  178.3170  147.2330 C   0  0  0  0  0  1  0  0  0  0  0  0
  188.2440  175.8670  143.8190 C   0  0  2  0  0  3  0  0  0  0  0  0
  186.0750  176.9200  145.3570 C   0  0  0  0  0  0  0  0  0  0  0  0
  193.9640  171.7490  140.2360 N   0  0  0  0  0  2  0  0  0  0  0  0
  195.0100  172.0560  139.3130 C   0  0  0  0  0  0  0  0  0  0  0  0
  194.8980  173.0200  138.5100 O   0  0  0  0  0  0  0  0  0  0  0  0
  196.2470  171.2310  139.3030 C   0  0  0  0  0  1  0  0  0  0  0  0
  1 16  1  0  0  0  0
  1 20  1  0  0  0  0
  2 24  1  6  0  0  0
  2 27  1  0  0  0  0
  2 12  1  0  0  0  0
  3  4  1  0  0  0  0
  5 25  1  6  0  0  0
  5 27  1  0  0  0  0
  5  6  1  0  0  0  0
  6 18  1  6  0  0  0
  6 28  1  0  0  0  0
  7 19  1  6  0  0  0
  7 24  1  0  0  0  0
  7 17  1  0  0  0  0
  9 26  1  0  0  0  0
 11  3  1  0  0  0  0
 12  8  1  6  0  0  0
 12 13  1  0  0  0  0
 13 22  1  0  0  0  0
 13 11  1  1  0  0  0
 14 22  1  0  0  0  0
 14 23  1  1  0  0  0
 15  9  1  0  0  0  0
 16 19  1  0  0  0  0
 17 10  1  1  0  0  0
 17  8  1  0  0  0  0
 18 15  1  0  0  0  0
 20 29  1  1  0  0  0
 20 10  1  0  0  0  0
 21  4  1  0  0  0  0
 22 21  1  1  0  0  0
 27 14  1  0  0  0  0
 28  9  2  0  0  0  0
 28 23  1  0  0  0  0
 30 29  1  0  0  0  0
 31 30  2  0  0  0  0
 32 30  1  0  0  0  0
M  END
>  <MODEL>
7

>  <REMARK>
 VINA RESULT:      -7.3      2.654      5.052
  Name = 
  1 active torsions:
  status: ('A' for Active; 'I' for Inactive)
    1  A    between atoms: C_20  and  N_29
                            x       y       z     vdW  Elec       q    Type
                         _______ _______ _______ _____ _____    ______ ____

>  <TORSDO>
F 1

$$$$
=
 OpenBabel11112416383D

 32 37  0  0  1  0  0  0  0  0999 V2000
  186.3240  178.9600  142.8720 C   0  0  0  0  0  2  0  0  0  0  0  0
  189.3050  174.1250  142.0220 C   0  0  1  0  0  3  0  0  0  0  0  0
  192.9420  174.1590  145.3920 C   0  0  0  0  0  2  0  0  0  0  0  0
  193.2010  172.9020  144.6900 N   0  0  0  0  0  2  0  0  0  0  0  0
  189.7580  172.9730  139.7140 C   0  0  2  0  0  3  0  0  0  0  0  0
  190.8400  172.8090  138.6410 C   0  0  2  0  0  3  0  0  0  0  0  0
  187.9240  176.2060  142.1380 N   0  0  2  0  0  0  0  0  0  0  0  0
  188.9420  175.2520  144.2140 C   0  0  0  0  0  2  0  0  0  0  0  0
  192.6240  171.3400  138.5660 C   0  0  0  0  0  0  0  0  0  0  0  0
  187.8530  177.4800  144.2580 C   0  0  0  0  0  2  0  0  0  0  0  0
  191.7370  174.8990  144.7940 C   0  0  0  0  0  2  0  0  0  0  0  0
  189.9990  174.8960  143.1620 C   0  0  1  0  0  3  0  0  0  0  0  0
  191.1010  174.1110  143.7310 N   0  0  1  0  0  0  0  0  0  0  0  0
  191.5190  173.0960  141.5220 C   0  0  2  0  0  3  0  0  0  0  0  0
  191.7630  170.9250  137.5200 N   0  0  0  0  0  2  0  0  0  0  0  0
  186.8040  178.2910  141.5790 C   0  0  0  0  0  2  0  0  0  0  0  0
  187.8130  176.1010  143.6070 C   0  0  1  0  0  3  0  0  0  0  0  0
  190.5400  171.7170  137.6060 C   0  0  0  0  0  2  0  0  0  0  0  0
  186.6910  176.7730  141.6040 C   0  0  0  0  0  2  0  0  0  0  0  0
  186.4850  178.1360  144.1550 C   0  0  1  0  0  3  0  0  0  0  0  0
  193.3530  173.1720  143.2600 C   0  0  0  0  0  2  0  0  0  0  0  0
  192.1160  173.8930  142.6840 C   0  0  2  0  0  3  0  0  0  0  0  0
  192.5390  172.7640  140.5290 N   0  0  0  0  0  2  0  0  0  0  0  0
  188.0320  174.8650  141.5630 C   0  0  0  0  0  2  0  0  0  0  0  0
  188.5530  173.6080  139.0380 C   0  0  0  0  0  1  0  0  0  0  0  0
  193.8420  170.5800  138.9630 C   0  0  0  0  0  1  0  0  0  0  0  0
  190.3130  173.8340  140.8890 C   0  0  2  0  0  3  0  0  0  0  0  0
  192.1140  172.3480  139.2370 C   0  0  0  0  0  0  0  0  0  0  0  0
  186.2700  178.9870  145.3160 N   0  0  0  0  0  2  0  0  0  0  0  0
  185.7860  178.4820  146.5620 C   0  0  0  0  0  0  0  0  0  0  0  0
  185.5470  177.2540  146.7100 O   0  0  0  0  0  0  0  0  0  0  0  0
  185.5670  179.4160  147.6980 C   0  0  0  0  0  1  0  0  0  0  0  0
  1 20  1  0  0  0  0
  2 24  1  6  0  0  0
  2 12  1  0  0  0  0
  4  3  1  0  0  0  0
  5 25  1  6  0  0  0
  5 27  1  0  0  0  0
  6 18  1  6  0  0  0
  6 28  1  0  0  0  0
  6  5  1  0  0  0  0
  7 24  1  6  0  0  0
  7 17  1  0  0  0  0
  9 26  1  0  0  0  0
  9 28  2  0  0  0  0
 11  3  1  0  0  0  0
 12 13  1  0  0  0  0
 12  8  1  1  0  0  0
 13 11  1  1  0  0  0
 14 23  1  6  0  0  0
 14 22  1  0  0  0  0
 15 18  1  0  0  0  0
 15  9  1  0  0  0  0
 16 19  1  0  0  0  0
 16  1  1  0  0  0  0
 17  8  1  1  0  0  0
 17 10  1  0  0  0  0
 19  7  1  0  0  0  0
 20 10  1  0  0  0  0
 20 29  1  1  0  0  0
 21  4  1  0  0  0  0
 22 21  1  1  0  0  0
 22 13  1  0  0  0  0
 27 14  1  0  0  0  0
 27  2  1  0  0  0  0
 28 23  1  0  0  0  0
 29 30  1  0  0  0  0
 30 31  2  0  0  0  0
 30 32  1  0  0  0  0
M  END
>  <MODEL>
8

>  <REMARK>
 VINA RESULT:      -7.3      2.979      8.274
  Name = 
  1 active torsions:
  status: ('A' for Active; 'I' for Inactive)
    1  A    between atoms: C_20  and  N_29
                            x       y       z     vdW  Elec       q    Type
                         _______ _______ _______ _____ _____    ______ ____

>  <TORSDO>
F 1

$$$$
=
 OpenBabel11112416383D

 32 37  0  0  1  0  0  0  0  0999 V2000
  188.4140  177.1780  147.0340 C   0  0  0  0  0  2  0  0  0  0  0  0
  191.3970  175.5980  142.3880 C   0  0  1  0  0  3  0  0  0  0  0  0
  188.3780  172.6670  139.7640 C   0  0  0  0  0  2  0  0  0  0  0  0
  189.5820  172.6690  138.9330 N   0  0  0  0  0  2  0  0  0  0  0  0
  193.9740  175.1390  142.2860 C   0  0  2  0  0  3  0  0  0  0  0  0
  194.9950  173.9950  142.2690 C   0  0  2  0  0  3  0  0  0  0  0  0
  190.3350  176.3310  144.5280 N   0  0  2  0  0  0  0  0  0  0  0  0
  188.9350  175.9600  142.4900 C   0  0  0  0  0  2  0  0  0  0  0  0
  195.7340  172.7130  140.4930 C   0  0  0  0  0  0  0  0  0  0  0  0
  187.8660  176.3650  144.6910 C   0  0  0  0  0  2  0  0  0  0  0  0
  188.5700  173.5050  141.0370 C   0  0  0  0  0  2  0  0  0  0  0  0
  190.0260  174.8980  142.3110 C   0  0  1  0  0  3  0  0  0  0  0  0
  189.8800  174.1660  141.0460 N   0  0  1  0  0  0  0  0  0  0  0  0
  192.3060  173.7170  141.0280 C   0  0  2  0  0  3  0  0  0  0  0  0
  196.8570  173.4840  140.8810 N   0  0  0  0  0  2  0  0  0  0  0  0
  189.8680  176.7140  146.8840 C   0  0  0  0  0  2  0  0  0  0  0  0
  189.0830  176.6940  143.8320 C   0  0  1  0  0  3  0  0  0  0  0  0
  196.4200  174.4300  141.9030 C   0  0  0  0  0  2  0  0  0  0  0  0
  190.5510  177.2550  145.6360 C   0  0  0  0  0  2  0  0  0  0  0  0
  187.6600  177.4580  145.7290 C   0  0  1  0  0  3  0  0  0  0  0  0
  190.7220  172.2280  139.7380 C   0  0  0  0  0  2  0  0  0  0  0  0
  190.9040  173.1060  140.9940 C   0  0  2  0  0  3  0  0  0  0  0  0
  193.3340  172.6920  140.8550 N   0  0  0  0  0  2  0  0  0  0  0  0
  191.4670  176.5220  143.6200 C   0  0  0  0  0  2  0  0  0  0  0  0
  194.2840  175.9940  143.5040 C   0  0  0  0  0  1  0  0  0  0  0  0
  195.7290  171.8370  139.2880 C   0  0  0  0  0  1  0  0  0  0  0  0
  192.5300  174.5510  142.3130 C   0  0  2  0  0  3  0  0  0  0  0  0
  194.6740  173.0130  141.2090 C   0  0  0  0  0  0  0  0  0  0  0  0
  186.2380  177.5990  146.0030 N   0  0  0  0  0  2  0  0  0  0  0  0
  185.4380  178.6280  145.4160 C   0  0  0  0  0  0  0  0  0  0  0  0
  185.9410  179.4500  144.6050 O   0  0  0  0  0  0  0  0  0  0  0  0
  183.9960  178.7260  145.7630 C   0  0  0  0  0  1  0  0  0  0  0  0
  2 24  1  1  0  0  0
  3 11  1  0  0  0  0
  4 21  1  0  0  0  0
  4  3  1  0  0  0  0
  5 27  1  0  0  0  0
  5 25  1  1  0  0  0
  6 18  1  6  0  0  0
  6  5  1  0  0  0  0
  7 24  1  6  0  0  0
  7 19  1  0  0  0  0
  9 15  1  0  0  0  0
  9 28  2  0  0  0  0
 10 20  1  0  0  0  0
 12  2  1  0  0  0  0
 12  8  1  6  0  0  0
 13 11  1  1  0  0  0
 13 12  1  0  0  0  0
 14 23  1  1  0  0  0
 14 27  1  0  0  0  0
 15 18  1  0  0  0  0
 16  1  1  0  0  0  0
 17  8  1  6  0  0  0
 17  7  1  0  0  0  0
 17 10  1  0  0  0  0
 19 16  1  0  0  0  0
 20 29  1  1  0  0  0
 20  1  1  0  0  0  0
 22 21  1  6  0  0  0
 22 14  1  0  0  0  0
 22 13  1  0  0  0  0
 23 28  1  0  0  0  0
 26  9  1  0  0  0  0
 27  2  1  0  0  0  0
 28  6  1  0  0  0  0
 30 32  1  0  0  0  0
 30 29  1  0  0  0  0
 31 30  2  0  0  0  0
M  END
>  <MODEL>
9

>  <REMARK>
 VINA RESULT:      -7.2      3.299      7.870
  Name = 
  1 active torsions:
  status: ('A' for Active; 'I' for Inactive)
    1  A    between atoms: C_20  and  N_29
                            x       y       z     vdW  Elec       q    Type
                         _______ _______ _______ _____ _____    ______ ____

>  <TORSDO>
F 1

$$$$
