=
 OpenBabel11112416303D

 32 37  0  0  1  0  0  0  0  0999 V2000
  194.8640  175.6680  145.5000 C   0  0  0  0  0  2  0  0  0  0  0  0
  189.2460  175.7630  145.5950 C   0  0  1  0  0  3  0  0  0  0  0  0
  190.1570  174.0570  141.0090 C   0  0  0  0  0  2  0  0  0  0  0  0
  188.7880  174.5430  140.5130 C   0  0  0  0  0  2  0  0  0  0  0  0
  187.3780  177.4750  145.8480 C   0  0  0  0  0  0  0  0  0  0  0  0
  186.0690  178.0870  145.4230 C   0  0  1  0  0  3  0  0  0  0  0  0
  191.6600  175.7300  146.3240 C   0  0  1  0  0  3  0  0  0  0  0  0
  190.8060  173.7550  145.3490 C   0  0  0  0  0  2  0  0  0  0  0  0
  184.4190  178.4200  143.8370 C   0  0  1  0  0  3  0  0  0  0  0  0
  193.0980  173.8910  145.7630 C   0  0  0  0  0  2  0  0  0  0  0  0
  190.0820  173.5810  142.4620 C   0  0  0  0  0  2  0  0  0  0  0  0
  189.5390  174.4480  144.8280 C   0  0  2  0  0  3  0  0  0  0  0  0
  189.5520  174.7230  143.3240 C   0  0  2  0  0  3  0  0  0  0  0  0
  187.3280  175.9000  143.8810 C   0  0  2  0  0  3  0  0  0  0  0  0
  185.2200  179.6840  144.0700 C   0  0  0  0  0  2  0  0  0  0  0  0
  193.8290  176.7860  145.4570 C   0  0  0  0  0  2  0  0  0  0  0  0
  191.9420  174.6700  145.3430 N   0  0  2  0  0  0  0  0  0  0  0  0
  186.2410  179.4200  145.0080 O   0  0  0  0  0  0  0  0  0  0  0  0
  192.8650  176.6350  146.6270 C   0  0  0  0  0  2  0  0  0  0  0  0
  194.3170  174.3420  144.9710 C   0  0  2  0  0  3  0  0  0  0  0  0
  188.2140  175.6220  141.4350 C   0  0  0  0  0  2  0  0  0  0  0  0
  188.1350  175.0660  142.8560 C   0  0  1  0  0  3  0  0  0  0  0  0
  186.2840  176.8130  143.2540 C   0  0  0  0  0  2  0  0  0  0  0  0
  190.5150  176.5940  145.8090 C   0  0  0  0  0  2  0  0  0  0  0  0
  187.8020  177.7240  146.9660 O   0  0  0  0  0  0  0  0  0  0  0  0
  183.9760  178.2890  142.3870 C   0  0  0  0  0  1  0  0  0  0  0  0
  188.2120  176.6660  144.8780 C   0  0  2  0  0  3  0  0  0  0  0  0
  185.3230  177.3230  144.3380 C   0  0  1  0  0  3  0  0  0  0  0  0
  195.3490  173.3180  145.0570 N   0  0  0  0  0  2  0  0  0  0  0  0
  196.1800  172.9500  143.9540 C   0  0  0  0  0  0  0  0  0  0  0  0
  195.9870  173.5550  142.6040 C   0  0  0  0  0  1  0  0  0  0  0  0
  197.0910  172.0510  144.1170 N   0  0  0  0  0  2  0  0  0  0  0  0
  2 24  1  6  0  0  0
  3 11  1  0  0  0  0
  4  3  1  0  0  0  0
  4 21  1  0  0  0  0
  5 25  2  0  0  0  0
  6 18  1  6  0  0  0
  6  5  1  0  0  0  0
  7 24  1  6  0  0  0
  7 19  1  0  0  0  0
  9 26  1  6  0  0  0
  9 15  1  0  0  0  0
  9 28  1  0  0  0  0
 12  8  1  1  0  0  0
 12  2  1  0  0  0  0
 13 11  1  6  0  0  0
 13 12  1  0  0  0  0
 14 23  1  6  0  0  0
 14 27  1  0  0  0  0
 15 18  1  0  0  0  0
 16  1  1  0  0  0  0
 16 19  1  0  0  0  0
 17  8  1  1  0  0  0
 17 10  1  0  0  0  0
 17  7  1  0  0  0  0
 20 29  1  1  0  0  0
 20  1  1  0  0  0  0
 20 10  1  0  0  0  0
 22 21  1  6  0  0  0
 22 13  1  0  0  0  0
 22 14  1  0  0  0  0
 27  2  1  0  0  0  0
 27  5  1  1  0  0  0
 28 23  1  6  0  0  0
 28  6  1  0  0  0  0
 30 32  2  0  0  0  0
 30 29  1  0  0  0  0
 31 30  1  0  0  0  0
M  END
>  <MODEL>
1

>  <REMARK>
 VINA RESULT:      -9.0      0.000      0.000
  Name = 
  1 active torsions:
  status: ('A' for Active; 'I' for Inactive)
    1  A    between atoms: C_20  and  N_29
                            x       y       z     vdW  Elec       q    Type
                         _______ _______ _______ _____ _____    ______ ____

>  <TORSDO>
F 1

$$$$
=
 OpenBabel11112416303D

 32 37  0  0  1  0  0  0  0  0999 V2000
  193.0980  170.8830  143.3440 C   0  0  0  0  0  2  0  0  0  0  0  0
  190.3980  175.7600  142.6330 C   0  0  1  0  0  3  0  0  0  0  0  0
  191.8070  176.0620  147.3980 C   0  0  0  0  0  2  0  0  0  0  0  0
  190.6860  177.0620  147.7080 C   0  0  0  0  0  2  0  0  0  0  0  0
  188.0520  176.5680  142.0630 C   0  0  0  0  0  0  0  0  0  0  0  0
  186.8550  177.4520  142.3010 C   0  0  1  0  0  3  0  0  0  0  0  0
  191.6370  173.6120  142.1750 C   0  0  1  0  0  3  0  0  0  0  0  0
  192.8600  175.3630  143.1850 C   0  0  0  0  0  2  0  0  0  0  0  0
  185.6150  178.8410  143.6710 C   0  0  1  0  0  3  0  0  0  0  0  0
  193.8600  173.2620  143.0130 C   0  0  0  0  0  2  0  0  0  0  0  0
  192.3520  176.2620  145.9810 C   0  0  0  0  0  2  0  0  0  0  0  0
  191.6020  176.1780  143.5160 C   0  0  2  0  0  3  0  0  0  0  0  0
  191.1990  176.1290  144.9900 C   0  0  2  0  0  3  0  0  0  0  0  0
  189.1900  177.4850  144.1170 C   0  0  2  0  0  3  0  0  0  0  0  0
  184.9070  177.5220  143.4400 C   0  0  0  0  0  2  0  0  0  0  0  0
  191.6290  171.2610  143.1970 C   0  0  0  0  0  2  0  0  0  0  0  0
  192.5890  173.9310  143.2510 N   0  0  2  0  0  0  0  0  0  0  0  0
  185.7200  176.6920  142.6400 O   0  0  0  0  0  0  0  0  0  0  0  0
  191.4420  172.1050  141.9430 C   0  0  0  0  0  2  0  0  0  0  0  0
  193.9460  172.0280  143.8990 C   0  0  2  0  0  3  0  0  0  0  0  0
  189.5740  176.9950  146.6570 C   0  0  0  0  0  2  0  0  0  0  0  0
  190.1840  177.2390  145.2780 C   0  0  1  0  0  3  0  0  0  0  0  0
  187.8300  178.0060  144.5620 C   0  0  0  0  0  2  0  0  0  0  0  0
  190.2870  174.2380  142.5020 C   0  0  0  0  0  2  0  0  0  0  0  0
  188.1560  176.0070  140.9830 O   0  0  0  0  0  0  0  0  0  0  0  0
  185.3600  179.3820  145.0710 C   0  0  0  0  0  1  0  0  0  0  0  0
  189.0420  176.2830  143.1710 C   0  0  2  0  0  3  0  0  0  0  0  0
  187.0550  178.5380  143.3480 C   0  0  1  0  0  3  0  0  0  0  0  0
  195.3360  171.6040  143.9960 N   0  0  0  0  0  2  0  0  0  0  0  0
  196.2700  172.1870  144.9090 C   0  0  0  0  0  0  0  0  0  0  0  0
  195.8850  173.3330  145.7830 C   0  0  0  0  0  1  0  0  0  0  0  0
  197.4790  171.7380  144.9540 N   0  0  0  0  0  2  0  0  0  0  0  0
  1 20  1  0  0  0  0
  2 24  1  1  0  0  0
  2 27  1  0  0  0  0
  2 12  1  0  0  0  0
  3  4  1  0  0  0  0
  6  5  1  1  0  0  0
  6 18  1  0  0  0  0
  6 28  1  0  0  0  0
  7 19  1  1  0  0  0
  7 24  1  0  0  0  0
  7 17  1  0  0  0  0
  8 17  1  0  0  0  0
  9 26  1  1  0  0  0
 10 20  1  0  0  0  0
 11  3  1  0  0  0  0
 12  8  1  1  0  0  0
 12 13  1  0  0  0  0
 13 22  1  0  0  0  0
 13 11  1  1  0  0  0
 14 23  1  1  0  0  0
 14 22  1  0  0  0  0
 15  9  1  0  0  0  0
 16  1  1  0  0  0  0
 17 10  1  6  0  0  0
 18 15  1  0  0  0  0
 19 16  1  0  0  0  0
 20 29  1  6  0  0  0
 21  4  1  0  0  0  0
 22 21  1  1  0  0  0
 25  5  2  0  0  0  0
 27  5  1  6  0  0  0
 27 14  1  0  0  0  0
 28  9  1  0  0  0  0
 28 23  1  1  0  0  0
 29 30  1  0  0  0  0
 30 32  2  0  0  0  0
 30 31  1  0  0  0  0
M  END
>  <MODEL>
2

>  <REMARK>
 VINA RESULT:      -8.5      2.100      4.052
  Name = 
  1 active torsions:
  status: ('A' for Active; 'I' for Inactive)
    1  A    between atoms: C_20  and  N_29
                            x       y       z     vdW  Elec       q    Type
                         _______ _______ _______ _____ _____    ______ ____

>  <TORSDO>
F 1

$$$$
=
 OpenBabel11112416303D

 32 37  0  0  1  0  0  0  0  0999 V2000
  191.4780  170.7840  141.8910 C   0  0  0  0  0  2  0  0  0  0  0  0
  189.1380  175.7750  142.9880 C   0  0  1  0  0  3  0  0  0  0  0  0
  192.4560  175.3730  146.6770 C   0  0  0  0  0  2  0  0  0  0  0  0
  191.6580  176.3470  147.5540 C   0  0  0  0  0  2  0  0  0  0  0  0
  186.8470  176.7090  143.5850 C   0  0  0  0  0  0  0  0  0  0  0  0
  185.9400  177.5790  144.4160 C   0  0  1  0  0  3  0  0  0  0  0  0
  189.8860  173.6830  141.7930 C   0  0  1  0  0  3  0  0  0  0  0  0
  191.5610  175.2460  142.3720 C   0  0  0  0  0  2  0  0  0  0  0  0
  185.5160  178.7910  146.3390 C   0  0  1  0  0  3  0  0  0  0  0  0
  192.2180  173.1670  141.5430 C   0  0  0  0  0  2  0  0  0  0  0  0
  192.3630  175.7580  145.1980 C   0  0  0  0  0  2  0  0  0  0  0  0
  190.6330  176.0360  143.3060 C   0  0  2  0  0  3  0  0  0  0  0  0
  190.8910  175.7920  144.7940 C   0  0  2  0  0  3  0  0  0  0  0  0
  188.8190  177.3030  145.0370 C   0  0  2  0  0  3  0  0  0  0  0  0
  184.6730  177.5350  146.2850 C   0  0  0  0  0  2  0  0  0  0  0  0
  190.1210  171.2130  142.4380 C   0  0  0  0  0  2  0  0  0  0  0  0
  191.2270  173.8260  142.3820 N   0  0  2  0  0  0  0  0  0  0  0  0
  184.9990  176.8060  145.1210 O   0  0  0  0  0  0  0  0  0  0  0  0
  189.4890  172.2290  141.4950 C   0  0  0  0  0  2  0  0  0  0  0  0
  192.5720  171.8190  142.1550 C   0  0  2  0  0  3  0  0  0  0  0  0
  190.2040  176.4530  147.0870 C   0  0  0  0  0  2  0  0  0  0  0  0
  190.1880  176.8740  145.6180 C   0  0  1  0  0  3  0  0  0  0  0  0
  187.8240  177.7880  146.0820 C   0  0  0  0  0  2  0  0  0  0  0  0
  188.8580  174.2890  142.7420 C   0  0  0  0  0  2  0  0  0  0  0  0
  186.4360  176.3020  142.5070 O   0  0  0  0  0  0  0  0  0  0  0  0
  185.9250  179.1370  147.7630 C   0  0  0  0  0  1  0  0  0  0  0  0
  188.1870  176.2490  144.1140 C   0  0  2  0  0  3  0  0  0  0  0  0
  186.6530  178.5020  145.3930 C   0  0  1  0  0  3  0  0  0  0  0  0
  193.8310  171.3540  141.5930 N   0  0  0  0  0  2  0  0  0  0  0  0
  195.0820  171.4640  142.2770 C   0  0  0  0  0  0  0  0  0  0  0  0
  195.1810  172.1390  143.6040 C   0  0  0  0  0  1  0  0  0  0  0  0
  196.1520  171.0030  141.7230 N   0  0  0  0  0  2  0  0  0  0  0  0
  1 20  1  0  0  0  0
  1 16  1  0  0  0  0
  2 24  1  1  0  0  0
  2 12  1  0  0  0  0
  2 27  1  0  0  0  0
  3  4  1  0  0  0  0
  6  5  1  1  0  0  0
  6 18  1  0  0  0  0
  6 28  1  0  0  0  0
  7 19  1  1  0  0  0
  7 17  1  0  0  0  0
  7 24  1  0  0  0  0
  8 17  1  0  0  0  0
  9 26  1  1  0  0  0
 10 20  1  0  0  0  0
 11  3  1  0  0  0  0
 12  8  1  6  0  0  0
 12 13  1  0  0  0  0
 13 11  1  6  0  0  0
 13 22  1  0  0  0  0
 14 22  1  0  0  0  0
 14 23  1  1  0  0  0
 15  9  1  0  0  0  0
 17 10  1  6  0  0  0
 18 15  1  0  0  0  0
 19 16  1  0  0  0  0
 20 29  1  6  0  0  0
 21  4  1  0  0  0  0
 22 21  1  1  0  0  0
 25  5  2  0  0  0  0
 27  5  1  6  0  0  0
 27 14  1  0  0  0  0
 28 23  1  1  0  0  0
 28  9  1  0  0  0  0
 29 30  1  0  0  0  0
 30 31  1  0  0  0  0
 32 30  2  0  0  0  0
M  END
>  <MODEL>
3

>  <REMARK>
 VINA RESULT:      -8.5      2.045      4.323
  Name = 
  1 active torsions:
  status: ('A' for Active; 'I' for Inactive)
    1  A    between atoms: C_20  and  N_29
                            x       y       z     vdW  Elec       q    Type
                         _______ _______ _______ _____ _____    ______ ____

>  <TORSDO>
F 1

$$$$
=
 OpenBabel11112416303D

 32 37  0  0  1  0  0  0  0  0999 V2000
  186.7100  176.9310  146.3480 C   0  0  0  0  0  2  0  0  0  0  0  0
  191.9860  176.8020  144.4160 C   0  0  1  0  0  3  0  0  0  0  0  0
  189.7330  173.5030  141.4450 C   0  0  0  0  0  2  0  0  0  0  0  0
  191.0650  172.8000  141.1500 C   0  0  0  0  0  2  0  0  0  0  0  0
  194.3080  176.2000  145.2690 C   0  0  0  0  0  0  0  0  0  0  0  0
  195.6370  175.5060  145.1290 C   0  0  1  0  0  3  0  0  0  0  0  0
  189.8670  177.5410  145.5670 C   0  0  1  0  0  3  0  0  0  0  0  0
  189.8580  177.5330  143.2050 C   0  0  0  0  0  2  0  0  0  0  0  0
  196.9760  173.8910  144.1570 C   0  0  1  0  0  3  0  0  0  0  0  0
  187.8460  177.9120  144.3240 C   0  0  0  0  0  2  0  0  0  0  0  0
  189.9290  175.0120  141.6140 C   0  0  0  0  0  2  0  0  0  0  0  0
  191.1550  176.7180  143.1090 C   0  0  2  0  0  3  0  0  0  0  0  0
  190.9440  175.2520  142.7290 C   0  0  2  0  0  3  0  0  0  0  0  0
  193.4870  175.1520  143.1290 C   0  0  2  0  0  3  0  0  0  0  0  0
  196.6710  173.5540  145.6020 C   0  0  0  0  0  2  0  0  0  0  0  0
  188.0150  176.3590  146.8880 C   0  0  0  0  0  2  0  0  0  0  0  0
  189.0870  177.1510  144.3820 N   0  0  2  0  0  0  0  0  0  0  0  0
  195.8150  174.5410  146.1380 O   0  0  0  0  0  0  0  0  0  0  0  0
  189.0860  177.4420  146.8880 C   0  0  0  0  0  2  0  0  0  0  0  0
  186.7030  177.0390  144.8220 C   0  0  2  0  0  3  0  0  0  0  0  0
  192.1120  173.1200  142.2190 C   0  0  0  0  0  2  0  0  0  0  0  0
  192.2810  174.6360  142.3060 C   0  0  1  0  0  3  0  0  0  0  0  0
  194.6270  174.1500  143.2560 C   0  0  0  0  0  2  0  0  0  0  0  0
  191.1060  176.6580  145.6610 C   0  0  0  0  0  2  0  0  0  0  0  0
  194.2030  177.1000  146.0900 O   0  0  0  0  0  0  0  0  0  0  0  0
  197.0710  172.6410  143.2930 C   0  0  0  0  0  1  0  0  0  0  0  0
  193.0950  175.7240  144.5000 C   0  0  2  0  0  3  0  0  0  0  0  0
  195.8860  174.8580  143.7750 C   0  0  1  0  0  3  0  0  0  0  0  0
  185.4390  177.6080  144.3780 N   0  0  0  0  0  2  0  0  0  0  0  0
  185.0380  177.6490  143.0060 C   0  0  0  0  0  0  0  0  0  0  0  0
  185.9410  177.1660  141.9220 C   0  0  0  0  0  1  0  0  0  0  0  0
  183.8890  178.1460  142.6940 N   0  0  0  0  0  2  0  0  0  0  0  0
  1 16  1  0  0  0  0
  2 27  1  0  0  0  0
  2 24  1  1  0  0  0
  3 11  1  0  0  0  0
  4  3  1  0  0  0  0
  4 21  1  0  0  0  0
  5 25  2  0  0  0  0
  6  5  1  6  0  0  0
  6 18  1  0  0  0  0
  7 24  1  1  0  0  0
  7 19  1  0  0  0  0
  9 26  1  6  0  0  0
  9 15  1  0  0  0  0
 10 17  1  0  0  0  0
 10 20  1  0  0  0  0
 12  8  1  1  0  0  0
 12  2  1  0  0  0  0
 13 11  1  6  0  0  0
 13 12  1  0  0  0  0
 14 23  1  1  0  0  0
 14 27  1  0  0  0  0
 15 18  1  0  0  0  0
 17  8  1  6  0  0  0
 17  7  1  0  0  0  0
 19 16  1  0  0  0  0
 20 29  1  1  0  0  0
 20  1  1  0  0  0  0
 22 21  1  1  0  0  0
 22 13  1  0  0  0  0
 22 14  1  0  0  0  0
 27  5  1  6  0  0  0
 28 23  1  1  0  0  0
 28  9  1  0  0  0  0
 28  6  1  0  0  0  0
 30 29  1  0  0  0  0
 31 30  1  0  0  0  0
 32 30  2  0  0  0  0
M  END
>  <MODEL>
4

>  <REMARK>
 VINA RESULT:      -8.4      3.287      8.023
  Name = 
  1 active torsions:
  status: ('A' for Active; 'I' for Inactive)
    1  A    between atoms: C_20  and  N_29
                            x       y       z     vdW  Elec       q    Type
                         _______ _______ _______ _____ _____    ______ ____

>  <TORSDO>
F 1

$$$$
=
 OpenBabel11112416303D

 32 37  0  0  1  0  0  0  0  0999 V2000
  195.0470  174.1730  144.7040 C   0  0  0  0  0  2  0  0  0  0  0  0
  189.4640  174.7810  144.9190 C   0  0  1  0  0  3  0  0  0  0  0  0
  190.1600  173.4470  140.1740 C   0  0  0  0  0  2  0  0  0  0  0  0
  188.8390  174.1030  139.7540 C   0  0  0  0  0  2  0  0  0  0  0  0
  187.7700  176.6270  145.3690 C   0  0  0  0  0  0  0  0  0  0  0  0
  186.5200  177.3970  145.0300 C   0  0  1  0  0  3  0  0  0  0  0  0
  191.8730  174.4540  145.5930 C   0  0  1  0  0  3  0  0  0  0  0  0
  190.8250  172.6700  144.4520 C   0  0  0  0  0  2  0  0  0  0  0  0
  184.8920  178.0330  143.5160 C   0  0  1  0  0  3  0  0  0  0  0  0
  193.1230  172.5500  144.8320 C   0  0  0  0  0  2  0  0  0  0  0  0
  190.0560  172.8420  141.5770 C   0  0  0  0  0  2  0  0  0  0  0  0
  189.6230  173.5240  144.0250 C   0  0  2  0  0  3  0  0  0  0  0  0
  189.6460  173.9410  142.5540 C   0  0  2  0  0  3  0  0  0  0  0  0
  187.5500  175.2600  143.2630 C   0  0  2  0  0  3  0  0  0  0  0  0
  185.8110  179.1880  143.8520 C   0  0  0  0  0  2  0  0  0  0  0  0
  194.1230  175.3810  144.7880 C   0  0  0  0  0  2  0  0  0  0  0  0
  192.0420  173.4720  144.5110 N   0  0  2  0  0  0  0  0  0  0  0  0
  186.8140  178.7420  144.7400 O   0  0  0  0  0  0  0  0  0  0  0  0
  193.1610  175.2090  145.9570 C   0  0  0  0  0  2  0  0  0  0  0  0
  194.3710  172.9600  144.0630 C   0  0  2  0  0  3  0  0  0  0  0  0
  188.3790  175.1380  140.7850 C   0  0  0  0  0  2  0  0  0  0  0  0
  188.2630  174.4570  142.1480 C   0  0  1  0  0  3  0  0  0  0  0  0
  186.5900  176.3230  142.7470 C   0  0  0  0  0  2  0  0  0  0  0  0
  190.8090  175.4660  145.1850 C   0  0  0  0  0  2  0  0  0  0  0  0
  188.2280  176.7280  146.4980 O   0  0  0  0  0  0  0  0  0  0  0  0
  184.4240  178.0840  142.0690 C   0  0  0  0  0  1  0  0  0  0  0  0
  188.5130  175.8410  144.3110 C   0  0  2  0  0  3  0  0  0  0  0  0
  185.6940  176.8140  143.8920 C   0  0  1  0  0  3  0  0  0  0  0  0
  195.3020  171.8410  144.0310 N   0  0  0  0  0  2  0  0  0  0  0  0
  195.9650  171.4090  142.8410 C   0  0  0  0  0  0  0  0  0  0  0  0
  195.6830  172.0460  141.5220 C   0  0  0  0  0  1  0  0  0  0  0  0
  196.7990  170.4250  142.9000 N   0  0  0  0  0  2  0  0  0  0  0  0
  1 16  1  0  0  0  0
  2 24  1  6  0  0  0
  3 11  1  0  0  0  0
  4  3  1  0  0  0  0
  4 21  1  0  0  0  0
  5 25  2  0  0  0  0
  6 18  1  6  0  0  0
  6  5  1  0  0  0  0
  7 24  1  6  0  0  0
  7 19  1  0  0  0  0
  9 26  1  6  0  0  0
  9 15  1  0  0  0  0
  9 28  1  0  0  0  0
 12  8  1  1  0  0  0
 12  2  1  0  0  0  0
 13 11  1  6  0  0  0
 13 12  1  0  0  0  0
 14 23  1  6  0  0  0
 14 27  1  0  0  0  0
 15 18  1  0  0  0  0
 16 19  1  0  0  0  0
 17  8  1  1  0  0  0
 17 10  1  0  0  0  0
 17  7  1  0  0  0  0
 20 29  1  1  0  0  0
 20  1  1  0  0  0  0
 20 10  1  0  0  0  0
 22 21  1  6  0  0  0
 22 13  1  0  0  0  0
 22 14  1  0  0  0  0
 27  2  1  0  0  0  0
 27  5  1  1  0  0  0
 28 23  1  6  0  0  0
 28  6  1  0  0  0  0
 30 32  2  0  0  0  0
 30 29  1  0  0  0  0
 31 30  1  0  0  0  0
M  END
>  <MODEL>
5

>  <REMARK>
 VINA RESULT:      -8.0      1.194      1.297
  Name = 
  1 active torsions:
  status: ('A' for Active; 'I' for Inactive)
    1  A    between atoms: C_20  and  N_29
                            x       y       z     vdW  Elec       q    Type
                         _______ _______ _______ _____ _____    ______ ____

>  <TORSDO>
F 1

$$$$
=
 OpenBabel11112416303D

 32 37  0  0  1  0  0  0  0  0999 V2000
  186.9800  178.6100  142.4100 C   0  0  0  0  0  2  0  0  0  0  0  0
  190.6380  174.6300  143.9480 C   0  0  1  0  0  3  0  0  0  0  0  0
  190.5520  177.5460  147.9810 C   0  0  0  0  0  2  0  0  0  0  0  0
  191.9410  177.0580  148.4120 C   0  0  0  0  0  2  0  0  0  0  0  0
  192.9050  173.7440  143.2040 C   0  0  0  0  0  0  0  0  0  0  0  0
  194.3160  173.2970  143.4860 C   0  0  1  0  0  3  0  0  0  0  0  0
  188.7940  175.8640  142.7470 C   0  0  1  0  0  3  0  0  0  0  0  0
  188.3670  175.1950  144.9730 C   0  0  0  0  0  2  0  0  0  0  0  0
  196.1760  173.2370  144.8580 C   0  0  1  0  0  3  0  0  0  0  0  0
  186.8290  176.5960  143.9170 C   0  0  0  0  0  2  0  0  0  0  0  0
  189.7560  176.4250  147.3060 C   0  0  0  0  0  2  0  0  0  0  0  0
  189.8390  174.8650  145.2560 C   0  0  2  0  0  3  0  0  0  0  0  0
  190.5580  175.9050  146.1160 C   0  0  2  0  0  3  0  0  0  0  0  0
  192.5850  174.3960  145.6170 C   0  0  2  0  0  3  0  0  0  0  0  0
  196.4270  174.0870  143.6300 C   0  0  0  0  0  2  0  0  0  0  0  0
  188.4160  178.2910  142.0130 C   0  0  0  0  0  2  0  0  0  0  0  0
  188.2520  176.3110  144.0400 N   0  0  2  0  0  0  0  0  0  0  0  0
  195.2520  174.1320  142.8480 O   0  0  0  0  0  0  0  0  0  0  0  0
  188.5160  176.8320  141.5860 C   0  0  0  0  0  2  0  0  0  0  0  0
  186.6300  178.1010  143.8090 C   0  0  2  0  0  3  0  0  0  0  0  0
  192.7070  176.4480  147.2350 C   0  0  0  0  0  2  0  0  0  0  0  0
  191.8720  175.3170  146.6370 C   0  0  1  0  0  3  0  0  0  0  0  0
  194.1000  174.3640  145.7630 C   0  0  0  0  0  2  0  0  0  0  0  0
  190.3010  175.6740  142.8780 C   0  0  0  0  0  2  0  0  0  0  0  0
  192.3970  173.4300  142.1380 O   0  0  0  0  0  0  0  0  0  0  0  0
  196.8960  173.7850  146.0820 C   0  0  0  0  0  1  0  0  0  0  0  0
  192.1720  174.6580  144.1600 C   0  0  2  0  0  3  0  0  0  0  0  0
  194.6740  173.1870  144.9610 C   0  0  1  0  0  3  0  0  0  0  0  0
  185.2440  178.4240  144.1150 N   0  0  0  0  0  2  0  0  0  0  0  0
  184.7860  178.7390  145.4320 C   0  0  0  0  0  0  0  0  0  0  0  0
  185.7060  178.6850  146.6050 C   0  0  0  0  0  1  0  0  0  0  0  0
  183.5450  179.0410  145.6180 N   0  0  0  0  0  2  0  0  0  0  0  0
  1 20  1  0  0  0  0
  2 24  1  6  0  0  0
  2 27  1  0  0  0  0
  2 12  1  0  0  0  0
  3  4  1  0  0  0  0
  5  6  1  0  0  0  0
  6 18  1  6  0  0  0
  6 28  1  0  0  0  0
  7 19  1  6  0  0  0
  7 24  1  0  0  0  0
  7 17  1  0  0  0  0
  9 28  1  0  0  0  0
  9 26  1  1  0  0  0
 11  3  1  0  0  0  0
 12  8  1  6  0  0  0
 12 13  1  0  0  0  0
 13 22  1  0  0  0  0
 13 11  1  1  0  0  0
 14 23  1  6  0  0  0
 14 22  1  0  0  0  0
 15  9  1  0  0  0  0
 16  1  1  0  0  0  0
 17 10  1  6  0  0  0
 17  8  1  0  0  0  0
 18 15  1  0  0  0  0
 19 16  1  0  0  0  0
 20 10  1  0  0  0  0
 20 29  1  6  0  0  0
 21  4  1  0  0  0  0
 22 21  1  6  0  0  0
 25  5  2  0  0  0  0
 27  5  1  6  0  0  0
 27 14  1  0  0  0  0
 28 23  1  1  0  0  0
 29 30  1  0  0  0  0
 30 32  2  0  0  0  0
 30 31  1  0  0  0  0
M  END
>  <MODEL>
6

>  <REMARK>
 VINA RESULT:      -8.0      3.462      8.616
  Name = 
  1 active torsions:
  status: ('A' for Active; 'I' for Inactive)
    1  A    between atoms: C_20  and  N_29
                            x       y       z     vdW  Elec       q    Type
                         _______ _______ _______ _____ _____    ______ ____

>  <TORSDO>
F 1

$$$$
=
 OpenBabel11112416303D

 32 37  0  0  1  0  0  0  0  0999 V2000
  187.8620  176.0490  146.8470 C   0  0  0  0  0  2  0  0  0  0  0  0
  193.0920  175.5740  144.8450 C   0  0  1  0  0  3  0  0  0  0  0  0
  190.4530  173.1560  141.3850 C   0  0  0  0  0  2  0  0  0  0  0  0
  191.6850  172.3480  140.9530 C   0  0  0  0  0  2  0  0  0  0  0  0
  195.3090  174.5400  145.5480 C   0  0  0  0  0  0  0  0  0  0  0  0
  196.5380  173.7140  145.2710 C   0  0  1  0  0  3  0  0  0  0  0  0
  191.0770  176.3710  146.1370 C   0  0  1  0  0  3  0  0  0  0  0  0
  191.0860  176.7720  143.8090 C   0  0  0  0  0  2  0  0  0  0  0  0
  197.6630  172.1310  144.0170 C   0  0  1  0  0  3  0  0  0  0  0  0
  189.1320  177.2090  145.0060 C   0  0  0  0  0  2  0  0  0  0  0  0
  190.8420  174.5750  141.8080 C   0  0  0  0  0  2  0  0  0  0  0  0
  192.2680  175.8250  143.5550 C   0  0  2  0  0  3  0  0  0  0  0  0
  191.8710  174.4860  142.9320 C   0  0  2  0  0  3  0  0  0  0  0  0
  194.3760  173.9900  143.2720 C   0  0  2  0  0  3  0  0  0  0  0  0
  197.3060  171.5930  145.3860 C   0  0  0  0  0  2  0  0  0  0  0  0
  189.0770  175.2290  147.2620 C   0  0  0  0  0  2  0  0  0  0  0  0
  190.2630  176.2950  144.9140 N   0  0  2  0  0  0  0  0  0  0  0  0
  196.5810  172.5740  146.0960 O   0  0  0  0  0  0  0  0  0  0  0  0
  190.2800  176.1470  147.4320 C   0  0  0  0  0  2  0  0  0  0  0  0
  187.8810  176.4190  145.3630 C   0  0  2  0  0  3  0  0  0  0  0  0
  192.7570  172.3410  142.0470 C   0  0  0  0  0  2  0  0  0  0  0  0
  193.1200  173.7850  142.3910 C   0  0  1  0  0  3  0  0  0  0  0  0
  195.3750  172.8430  143.2070 C   0  0  0  0  0  2  0  0  0  0  0  0
  192.1900  175.3320  146.0600 C   0  0  0  0  0  2  0  0  0  0  0  0
  195.3160  175.2900  146.5130 O   0  0  0  0  0  0  0  0  0  0  0  0
  197.6030  171.0480  142.9490 C   0  0  0  0  0  1  0  0  0  0  0  0
  194.0500  174.3640  144.7260 C   0  0  2  0  0  3  0  0  0  0  0  0
  196.7110  173.2820  143.8220 C   0  0  1  0  0  3  0  0  0  0  0  0
  186.7050  177.2140  145.0420 N   0  0  0  0  0  2  0  0  0  0  0  0
  185.9670  177.0640  143.8270 C   0  0  0  0  0  0  0  0  0  0  0  0
  186.4090  176.1140  142.7650 C   0  0  0  0  0  1  0  0  0  0  0  0
  184.9180  177.7890  143.6270 N   0  0  0  0  0  2  0  0  0  0  0  0
  1 16  1  0  0  0  0
  2 24  1  1  0  0  0
  3 11  1  0  0  0  0
  4  3  1  0  0  0  0
  4 21  1  0  0  0  0
  5 25  2  0  0  0  0
  6  5  1  6  0  0  0
  6 18  1  0  0  0  0
  7 24  1  6  0  0  0
  7 19  1  0  0  0  0
  9 26  1  6  0  0  0
  9 15  1  0  0  0  0
 10 20  1  0  0  0  0
 12  8  1  1  0  0  0
 12  2  1  0  0  0  0
 13 11  1  6  0  0  0
 13 12  1  0  0  0  0
 14 23  1  1  0  0  0
 14 27  1  0  0  0  0
 15 18  1  0  0  0  0
 16 19  1  0  0  0  0
 17  8  1  6  0  0  0
 17 10  1  0  0  0  0
 17  7  1  0  0  0  0
 20 29  1  1  0  0  0
 20  1  1  0  0  0  0
 22 21  1  1  0  0  0
 22 13  1  0  0  0  0
 22 14  1  0  0  0  0
 27  2  1  0  0  0  0
 27  5  1  1  0  0  0
 28 23  1  1  0  0  0
 28  9  1  0  0  0  0
 28  6  1  0  0  0  0
 30 29  1  0  0  0  0
 31 30  1  0  0  0  0
 32 30  2  0  0  0  0
M  END
>  <MODEL>
7

>  <REMARK>
 VINA RESULT:      -7.9      3.296      8.296
  Name = 
  1 active torsions:
  status: ('A' for Active; 'I' for Inactive)
    1  A    between atoms: C_20  and  N_29
                            x       y       z     vdW  Elec       q    Type
                         _______ _______ _______ _____ _____    ______ ____

>  <TORSDO>
F 1

$$$$
=
 OpenBabel11112416303D

 32 37  0  0  1  0  0  0  0  0999 V2000
  193.8580  175.5470  141.7580 C   0  0  0  0  0  2  0  0  0  0  0  0
  188.9400  175.2350  144.4620 C   0  0  1  0  0  3  0  0  0  0  0  0
  187.5200  176.7510  139.9380 C   0  0  0  0  0  2  0  0  0  0  0  0
  186.2290  177.3580  140.5030 C   0  0  0  0  0  2  0  0  0  0  0  0
  187.7990  176.3210  146.4610 C   0  0  0  0  0  0  0  0  0  0  0  0
  186.6190  176.9880  147.1190 C   0  0  1  0  0  3  0  0  0  0  0  0
  191.3600  174.9040  143.8310 C   0  0  1  0  0  3  0  0  0  0  0  0
  189.7400  173.8940  142.4400 C   0  0  0  0  0  2  0  0  0  0  0  0
  184.6100  178.1240  146.9810 C   0  0  1  0  0  3  0  0  0  0  0  0
  191.9670  173.8810  141.7450 C   0  0  0  0  0  2  0  0  0  0  0  0
  187.9140  175.4820  140.6980 C   0  0  0  0  0  2  0  0  0  0  0  0
  188.5780  174.6850  143.0580 C   0  0  2  0  0  3  0  0  0  0  0  0
  188.0620  175.8240  142.1780 C   0  0  2  0  0  3  0  0  0  0  0  0
  186.5960  176.2800  144.2470 C   0  0  2  0  0  3  0  0  0  0  0  0
  185.7170  179.0250  147.4870 C   0  0  0  0  0  2  0  0  0  0  0  0
  193.1940  176.3940  142.8370 C   0  0  0  0  0  2  0  0  0  0  0  0
  190.9650  174.6850  142.4310 N   0  0  2  0  0  0  0  0  0  0  0  0
  186.9300  178.3030  147.5100 O   0  0  0  0  0  0  0  0  0  0  0  0
  192.7660  175.5020  143.9960 C   0  0  0  0  0  2  0  0  0  0  0  0
  192.8430  174.7930  140.8980 C   0  0  2  0  0  3  0  0  0  0  0  0
  186.3460  177.6110  142.0090 C   0  0  0  0  0  2  0  0  0  0  0  0
  186.7040  176.2980  142.7030 C   0  0  1  0  0  3  0  0  0  0  0  0
  185.6440  177.3230  144.8160 C   0  0  0  0  0  2  0  0  0  0  0  0
  190.3500  175.8340  144.4940 C   0  0  0  0  0  2  0  0  0  0  0  0
  188.6780  175.8580  147.1730 O   0  0  0  0  0  0  0  0  0  0  0  0
  183.6130  178.8830  146.1180 C   0  0  0  0  0  1  0  0  0  0  0  0
  187.9590  176.3260  144.9570 C   0  0  2  0  0  3  0  0  0  0  0  0
  185.3450  177.0060  146.2880 C   0  0  1  0  0  3  0  0  0  0  0  0
  193.5440  173.9930  139.9030 N   0  0  0  0  0  2  0  0  0  0  0  0
  194.5110  172.9960  140.2410 C   0  0  0  0  0  0  0  0  0  0  0  0
  194.9190  172.7620  141.6570 C   0  0  0  0  0  1  0  0  0  0  0  0
  195.0700  172.3090  139.3020 N   0  0  0  0  0  2  0  0  0  0  0  0
  1 16  1  0  0  0  0
  2 24  1  6  0  0  0
  2 27  1  0  0  0  0
  3  4  1  0  0  0  0
  3 11  1  0  0  0  0
  4 21  1  0  0  0  0
  5 25  2  0  0  0  0
  6  5  1  6  0  0  0
  6 18  1  0  0  0  0
  7 19  1  6  0  0  0
  7 24  1  0  0  0  0
  9 26  1  6  0  0  0
  9 15  1  0  0  0  0
 12  8  1  6  0  0  0
 12  2  1  0  0  0  0
 13 11  1  6  0  0  0
 13 22  1  0  0  0  0
 13 12  1  0  0  0  0
 14 23  1  1  0  0  0
 14 27  1  0  0  0  0
 15 18  1  0  0  0  0
 16 19  1  0  0  0  0
 17 10  1  6  0  0  0
 17  8  1  0  0  0  0
 17  7  1  0  0  0  0
 20 29  1  6  0  0  0
 20 10  1  0  0  0  0
 20  1  1  0  0  0  0
 22 21  1  1  0  0  0
 22 14  1  0  0  0  0
 27  5  1  1  0  0  0
 28 23  1  6  0  0  0
 28  9  1  0  0  0  0
 28  6  1  0  0  0  0
 29 30  1  0  0  0  0
 30 31  1  0  0  0  0
 32 30  2  0  0  0  0
M  END
>  <MODEL>
8

>  <REMARK>
 VINA RESULT:      -7.4      2.264      3.055
  Name = 
  1 active torsions:
  status: ('A' for Active; 'I' for Inactive)
    1  A    between atoms: C_20  and  N_29
                            x       y       z     vdW  Elec       q    Type
                         _______ _______ _______ _____ _____    ______ ____

>  <TORSDO>
F 1

$$$$
=
 OpenBabel11112416303D

 32 37  0  0  1  0  0  0  0  0999 V2000
  187.4200  176.9420  146.5750 C   0  0  0  0  0  2  0  0  0  0  0  0
  191.8720  174.4250  144.2430 C   0  0  1  0  0  3  0  0  0  0  0  0
  188.3180  173.5320  140.8740 C   0  0  0  0  0  2  0  0  0  0  0  0
  189.0740  172.3080  140.3430 C   0  0  0  0  0  2  0  0  0  0  0  0
  193.4720  172.5180  144.7760 C   0  0  0  0  0  0  0  0  0  0  0  0
  194.2240  171.2690  144.3990 C   0  0  1  0  0  3  0  0  0  0  0  0
  190.4380  175.9220  145.6810 C   0  0  1  0  0  3  0  0  0  0  0  0
  190.5190  176.4090  143.3710 C   0  0  0  0  0  2  0  0  0  0  0  0
  194.5230  169.4320  143.0280 C   0  0  1  0  0  3  0  0  0  0  0  0
  188.9830  177.5600  144.6970 C   0  0  0  0  0  2  0  0  0  0  0  0
  189.2870  174.6320  141.3180 C   0  0  0  0  0  2  0  0  0  0  0  0
  191.1780  175.0690  143.0150 C   0  0  2  0  0  3  0  0  0  0  0  0
  190.2270  174.0570  142.3750 C   0  0  2  0  0  3  0  0  0  0  0  0
  192.3010  172.5370  142.5450 C   0  0  2  0  0  3  0  0  0  0  0  0
  194.0290  169.0190  144.3990 C   0  0  0  0  0  2  0  0  0  0  0  0
  188.1910  175.6660  146.8880 C   0  0  0  0  0  2  0  0  0  0  0  0
  189.6180  176.2630  144.5080 N   0  0  2  0  0  0  0  0  0  0  0  0
  193.8170  170.1740  145.1830 O   0  0  0  0  0  0  0  0  0  0  0  0
  189.6760  175.9830  147.0140 C   0  0  0  0  0  2  0  0  0  0  0  0
  187.5320  177.3500  145.1050 C   0  0  2  0  0  3  0  0  0  0  0  0
  190.0870  171.7910  141.3680 C   0  0  0  0  0  2  0  0  0  0  0  0
  191.0390  172.9270  141.7360 C   0  0  1  0  0  3  0  0  0  0  0  0
  192.7180  171.0820  142.3830 C   0  0  0  0  0  2  0  0  0  0  0  0
  191.0040  174.5180  145.5030 C   0  0  0  0  0  2  0  0  0  0  0  0
  193.8350  173.1420  145.7630 O   0  0  0  0  0  0  0  0  0  0  0  0
  193.9660  168.5340  141.9320 C   0  0  0  0  0  1  0  0  0  0  0  0
  192.2240  172.9330  144.0280 C   0  0  2  0  0  3  0  0  0  0  0  0
  194.1390  170.8850  142.9290 C   0  0  1  0  0  3  0  0  0  0  0  0
  186.7900  178.5820  144.8820 N   0  0  0  0  0  2  0  0  0  0  0  0
  185.6580  178.6670  144.0120 C   0  0  0  0  0  0  0  0  0  0  0  0
  185.2060  177.4910  143.2130 C   0  0  0  0  0  1  0  0  0  0  0  0
  185.0350  179.7910  143.8880 N   0  0  0  0  0  2  0  0  0  0  0  0
  1 16  1  0  0  0  0
  2 24  1  1  0  0  0
  3 11  1  0  0  0  0
  4  3  1  0  0  0  0
  4 21  1  0  0  0  0
  5 25  2  0  0  0  0
  6  5  1  6  0  0  0
  6 18  1  0  0  0  0
  7 24  1  6  0  0  0
  7 19  1  0  0  0  0
  9 26  1  6  0  0  0
  9 15  1  0  0  0  0
 10 20  1  0  0  0  0
 12  8  1  1  0  0  0
 12  2  1  0  0  0  0
 13 11  1  6  0  0  0
 13 12  1  0  0  0  0
 14 23  1  1  0  0  0
 14 27  1  0  0  0  0
 15 18  1  0  0  0  0
 16 19  1  0  0  0  0
 17  8  1  6  0  0  0
 17 10  1  0  0  0  0
 17  7  1  0  0  0  0
 20 29  1  1  0  0  0
 20  1  1  0  0  0  0
 22 21  1  1  0  0  0
 22 13  1  0  0  0  0
 22 14  1  0  0  0  0
 27  2  1  0  0  0  0
 27  5  1  6  0  0  0
 28 23  1  1  0  0  0
 28  9  1  0  0  0  0
 28  6  1  0  0  0  0
 30 29  1  0  0  0  0
 31 30  1  0  0  0  0
 32 30  2  0  0  0  0
M  END
>  <MODEL>
9

>  <REMARK>
 VINA RESULT:      -7.4      3.640      8.053
  Name = 
  1 active torsions:
  status: ('A' for Active; 'I' for Inactive)
    1  A    between atoms: C_20  and  N_29
                            x       y       z     vdW  Elec       q    Type
                         _______ _______ _______ _____ _____    ______ ____

>  <TORSDO>
F 1

$$$$
