=
 OpenBabel11112416193D

 30 35  0  0  1  0  0  0  0  0999 V2000
  186.4440  177.2220  143.7030 C   0  0  0  0  0  0  0  0  0  0  0  0
  184.7500  178.3260  145.1750 C   0  0  0  0  0  0  0  0  0  0  0  0
  188.6080  175.9580  146.9670 N   0  0  0  0  0  2  0  0  0  0  0  0
  187.6250  176.4300  143.5630 C   0  0  0  0  0  0  0  0  0  0  0  0
  185.8000  177.6320  142.5810 N   0  0  0  0  0  0  0  0  0  0  0  0
  187.6800  176.0820  140.0410 O   0  0  0  0  0  0  0  0  0  0  0  0
  190.3880  175.4660  142.5400 C   0  0  1  0  0  3  0  0  0  0  0  0
  187.3180  176.4410  141.1980 C   0  0  0  0  0  0  0  0  0  0  0  0
  190.6660  175.3130  144.0240 C   0  0  2  0  0  3  0  0  0  0  0  0
  189.6470  175.4310  146.2870 C   0  0  0  0  0  0  0  0  0  0  0  0
  186.2130  177.2840  141.3420 C   0  0  0  0  0  0  0  0  0  0  0  0
  187.9900  175.9970  142.3070 N   0  0  0  0  0  0  0  0  0  0  0  0
  184.2870  178.6100  146.4640 C   0  0  0  0  0  3  0  0  0  0  0  0
  191.3390  173.9650  144.1770 C   0  0  0  0  0  2  0  0  0  0  0  0
  191.4640  174.6490  141.8420 C   0  0  0  0  0  2  0  0  0  0  0  0
  184.0190  178.8160  144.0990 O   0  0  0  0  0  1  0  0  0  0  0  0
  187.7920  176.3740  145.9850 C   0  0  0  0  0  0  0  0  0  0  0  0
  184.9750  178.1510  147.5850 C   0  0  0  0  0  3  0  0  0  0  0  0
  185.9320  177.5590  144.9920 C   0  0  0  0  0  0  0  0  0  0  0  0
  188.3160  176.0800  144.7500 C   0  0  0  0  0  0  0  0  0  0  0  0
  190.6710  174.9820  146.8700 O   0  0  0  0  0  0  0  0  0  0  0  0
  189.5210  175.4790  144.9350 N   0  0  0  0  0  0  0  0  0  0  0  0
  192.1270  173.7770  142.8980 C   0  0  0  0  0  2  0  0  0  0  0  0
  188.5850  173.6100  142.6190 C   0  0  0  0  0  1  0  0  0  0  0  0
  186.1370  177.3990  147.4290 C   0  0  0  0  0  3  0  0  0  0  0  0
  186.6160  177.0990  146.1490 C   0  0  0  0  0  0  0  0  0  0  0  0
  189.0160  174.9790  142.0960 C   0  0  2  0  0  3  0  0  0  0  0  0
  185.4720  177.8030  140.1540 C   0  0  0  0  0  2  0  0  0  0  0  0
  183.1500  177.9240  140.2750 C   0  0  0  0  0  1  0  0  0  0  0  0
  184.3700  178.6410  140.5920 N   0  0  0  0  0  2  0  0  0  0  0  0
  1 19  1  0  0  0  0
  2 13  1  0  0  0  0
  4  1  2  0  0  0  0
  4 20  1  0  0  0  0
  5  1  1  0  0  0  0
  6  8  2  0  0  0  0
  7 15  1  6  0  0  0
  7  9  1  0  0  0  0
  8 11  1  0  0  0  0
  8 12  1  0  0  0  0
  9 14  1  6  0  0  0
  9 22  1  0  0  0  0
 10 21  2  0  0  0  0
 10  3  1  0  0  0  0
 11  5  2  0  0  0  0
 12  4  1  0  0  0  0
 13 18  2  0  0  0  0
 15 23  1  0  0  0  0
 16  2  1  0  0  0  0
 17 26  1  0  0  0  0
 17  3  1  0  0  0  0
 19  2  2  0  0  0  0
 19 26  1  0  0  0  0
 20 22  1  0  0  0  0
 20 17  2  0  0  0  0
 22 10  1  0  0  0  0
 23 14  1  0  0  0  0
 25 18  1  0  0  0  0
 26 25  2  0  0  0  0
 27 12  1  0  0  0  0
 27  7  1  0  0  0  0
 27 24  1  1  0  0  0
 28 30  1  0  0  0  0
 28 11  1  0  0  0  0
 29 30  1  0  0  0  0
M  END
>  <MODEL>
1

>  <REMARK>
 VINA RESULT:      -8.8      0.000      0.000
  Name = 
  2 active torsions:
  status: ('A' for Active; 'I' for Inactive)
    1  A    between atoms: C_11  and  C_28
    2  A    between atoms: C_28  and  N_30
                            x       y       z     vdW  Elec       q    Type
                         _______ _______ _______ _____ _____    ______ ____

>  <TORSDO>
F 2

$$$$
=
 OpenBabel11112416193D

 30 35  0  0  1  0  0  0  0  0999 V2000
  189.4060  175.5490  143.9820 C   0  0  0  0  0  0  0  0  0  0  0  0
  191.3430  174.7310  145.3350 C   0  0  0  0  0  0  0  0  0  0  0  0
  187.9160  177.6480  147.1940 N   0  0  0  0  0  2  0  0  0  0  0  0
  188.2240  176.3470  143.8780 C   0  0  0  0  0  0  0  0  0  0  0  0
  189.8200  174.8570  142.8910 N   0  0  0  0  0  0  0  0  0  0  0  0
  187.4970  175.8690  140.4480 O   0  0  0  0  0  0  0  0  0  0  0  0
  185.3230  177.1880  143.1840 C   0  0  1  0  0  3  0  0  0  0  0  0
  188.0720  175.7710  141.5690 C   0  0  0  0  0  0  0  0  0  0  0  0
  185.3360  177.6960  144.6140 C   0  0  2  0  0  3  0  0  0  0  0  0
  186.7700  178.0550  146.6120 C   0  0  0  0  0  0  0  0  0  0  0  0
  189.1790  174.9280  141.7030 C   0  0  0  0  0  0  0  0  0  0  0  0
  187.6280  176.4940  142.6450 N   0  0  0  0  0  0  0  0  0  0  0  0
  192.0430  174.7300  146.5460 C   0  0  0  0  0  3  0  0  0  0  0  0
  184.7140  179.0760  144.5640 C   0  0  0  0  0  2  0  0  0  0  0  0
  184.1380  177.8750  142.5230 C   0  0  0  0  0  2  0  0  0  0  0  0
  191.8510  173.9670  144.2910 O   0  0  0  0  0  1  0  0  0  0  0  0
  188.5270  176.9730  146.2050 C   0  0  0  0  0  0  0  0  0  0  0  0
  191.5870  175.4730  147.6330 C   0  0  0  0  0  3  0  0  0  0  0  0
  190.1540  175.4940  145.1970 C   0  0  0  0  0  0  0  0  0  0  0  0
  187.7770  176.9990  145.0540 C   0  0  0  0  0  0  0  0  0  0  0  0
  185.8800  178.6800  147.2500 O   0  0  0  0  0  0  0  0  0  0  0  0
  186.6330  177.6880  145.3100 N   0  0  0  0  0  0  0  0  0  0  0  0
  183.6960  179.0030  143.4450 C   0  0  0  0  0  2  0  0  0  0  0  0
  187.1200  178.9150  142.4840 C   0  0  0  0  0  1  0  0  0  0  0  0
  190.4210  176.2270  147.5200 C   0  0  0  0  0  3  0  0  0  0  0  0
  189.7070  176.2460  146.3160 C   0  0  0  0  0  0  0  0  0  0  0  0
  186.5870  177.4870  142.3920 C   0  0  2  0  0  3  0  0  0  0  0  0
  189.6740  174.1090  140.5570 C   0  0  0  0  0  2  0  0  0  0  0  0
  188.3330  172.6450  139.3400 C   0  0  0  0  0  1  0  0  0  0  0  0
  189.0550  172.7960  140.5890 N   0  0  0  0  0  2  0  0  0  0  0  0
  1 19  1  0  0  0  0
  2 13  1  0  0  0  0
  4  1  2  0  0  0  0
  4 20  1  0  0  0  0
  5  1  1  0  0  0  0
  6  8  2  0  0  0  0
  7 15  1  6  0  0  0
  7  9  1  0  0  0  0
  8 11  1  0  0  0  0
  8 12  1  0  0  0  0
  9 14  1  6  0  0  0
  9 22  1  0  0  0  0
 10  3  1  0  0  0  0
 10 21  2  0  0  0  0
 11  5  2  0  0  0  0
 12  4  1  0  0  0  0
 13 18  2  0  0  0  0
 15 23  1  0  0  0  0
 16  2  1  0  0  0  0
 17 26  1  0  0  0  0
 17  3  1  0  0  0  0
 19  2  2  0  0  0  0
 19 26  1  0  0  0  0
 20 22  1  0  0  0  0
 20 17  2  0  0  0  0
 22 10  1  0  0  0  0
 23 14  1  0  0  0  0
 25 18  1  0  0  0  0
 26 25  2  0  0  0  0
 27 24  1  1  0  0  0
 27 12  1  0  0  0  0
 27  7  1  0  0  0  0
 28 30  1  0  0  0  0
 28 11  1  0  0  0  0
 29 30  1  0  0  0  0
M  END
>  <MODEL>
2

>  <REMARK>
 VINA RESULT:      -8.3      1.951      5.555
  Name = 
  2 active torsions:
  status: ('A' for Active; 'I' for Inactive)
    1  A    between atoms: C_11  and  C_28
    2  A    between atoms: C_28  and  N_30
                            x       y       z     vdW  Elec       q    Type
                         _______ _______ _______ _____ _____    ______ ____

>  <TORSDO>
F 2

$$$$
=
 OpenBabel11112416193D

 30 35  0  0  1  0  0  0  0  0999 V2000
  187.4230  176.7020  143.2660 C   0  0  0  0  0  0  0  0  0  0  0  0
  185.2450  177.9060  143.5140 C   0  0  0  0  0  0  0  0  0  0  0  0
  188.4990  177.6390  147.1260 N   0  0  0  0  0  2  0  0  0  0  0  0
  188.6520  176.2490  143.8360 C   0  0  0  0  0  0  0  0  0  0  0  0
  187.1490  176.3840  141.9760 N   0  0  0  0  0  0  0  0  0  0  0  0
  189.8950  174.3560  141.1160 O   0  0  0  0  0  0  0  0  0  0  0  0
  191.6740  175.6300  144.1430 C   0  0  1  0  0  3  0  0  0  0  0  0
  189.1400  175.1030  141.8020 C   0  0  0  0  0  0  0  0  0  0  0  0
  191.4610  176.2450  145.5140 C   0  0  2  0  0  3  0  0  0  0  0  0
  189.7480  177.1310  147.0810 C   0  0  0  0  0  0  0  0  0  0  0  0
  187.9770  175.6210  141.2270 C   0  0  0  0  0  0  0  0  0  0  0  0
  189.4480  175.3940  143.1060 N   0  0  0  0  0  0  0  0  0  0  0  0
  184.3600  178.6250  144.3240 C   0  0  0  0  0  3  0  0  0  0  0  0
  192.1670  175.3250  146.4890 C   0  0  0  0  0  2  0  0  0  0  0  0
  192.9900  174.8750  144.2410 C   0  0  0  0  0  2  0  0  0  0  0  0
  184.8670  177.6560  142.2000 O   0  0  0  0  0  1  0  0  0  0  0  0
  188.0160  177.3470  145.9070 C   0  0  0  0  0  0  0  0  0  0  0  0
  184.6790  178.9110  145.6500 C   0  0  0  0  0  3  0  0  0  0  0  0
  186.4860  177.4550  144.0370 C   0  0  0  0  0  0  0  0  0  0  0  0
  188.9430  176.6590  145.1610 C   0  0  0  0  0  0  0  0  0  0  0  0
  190.5590  177.2620  148.0370 O   0  0  0  0  0  0  0  0  0  0  0  0
  190.0700  176.5230  145.9090 N   0  0  0  0  0  0  0  0  0  0  0  0
  193.3460  174.7720  145.7170 C   0  0  0  0  0  2  0  0  0  0  0  0
  190.1240  173.6390  144.7220 C   0  0  0  0  0  1  0  0  0  0  0  0
  185.8920  178.4800  146.1820 C   0  0  0  0  0  3  0  0  0  0  0  0
  186.7910  177.7550  145.3910 C   0  0  0  0  0  0  0  0  0  0  0  0
  190.5760  174.6760  143.6960 C   0  0  2  0  0  3  0  0  0  0  0  0
  187.6240  175.3420  139.8040 C   0  0  0  0  0  2  0  0  0  0  0  0
  186.6690  176.1680  137.8470 C   0  0  0  0  0  1  0  0  0  0  0  0
  186.9300  176.4850  139.2380 N   0  0  0  0  0  2  0  0  0  0  0  0
  1  4  2  0  0  0  0
  1 19  1  0  0  0  0
  2 19  2  0  0  0  0
  2 13  1  0  0  0  0
  4 20  1  0  0  0  0
  5  1  1  0  0  0  0
  6  8  2  0  0  0  0
  7 15  1  1  0  0  0
  7  9  1  0  0  0  0
  8 12  1  0  0  0  0
  9 22  1  0  0  0  0
  9 14  1  1  0  0  0
 10  3  1  0  0  0  0
 10 21  2  0  0  0  0
 11  8  1  0  0  0  0
 11  5  2  0  0  0  0
 12 27  1  0  0  0  0
 12  4  1  0  0  0  0
 13 18  2  0  0  0  0
 15 23  1  0  0  0  0
 16  2  1  0  0  0  0
 17  3  1  0  0  0  0
 18 25  1  0  0  0  0
 19 26  1  0  0  0  0
 20 17  2  0  0  0  0
 20 22  1  0  0  0  0
 22 10  1  0  0  0  0
 23 14  1  0  0  0  0
 26 17  1  0  0  0  0
 26 25  2  0  0  0  0
 27  7  1  0  0  0  0
 27 24  1  1  0  0  0
 28 11  1  0  0  0  0
 29 30  1  0  0  0  0
 30 28  1  0  0  0  0
M  END
>  <MODEL>
3

>  <REMARK>
 VINA RESULT:      -8.2      1.871      2.320
  Name = 
  2 active torsions:
  status: ('A' for Active; 'I' for Inactive)
    1  A    between atoms: C_11  and  C_28
    2  A    between atoms: C_28  and  N_30
                            x       y       z     vdW  Elec       q    Type
                         _______ _______ _______ _____ _____    ______ ____

>  <TORSDO>
F 2

$$$$
=
 OpenBabel11112416193D

 30 35  0  0  1  0  0  0  0  0999 V2000
  188.4980  176.0100  143.8880 C   0  0  0  0  0  0  0  0  0  0  0  0
  186.1710  176.7750  144.3960 C   0  0  0  0  0  0  0  0  0  0  0  0
  189.8200  177.2380  147.5870 N   0  0  0  0  0  2  0  0  0  0  0  0
  189.8510  175.8200  144.3060 C   0  0  0  0  0  0  0  0  0  0  0  0
  188.1410  175.6110  142.6410 N   0  0  0  0  0  0  0  0  0  0  0  0
  191.1100  174.1350  141.4600 O   0  0  0  0  0  0  0  0  0  0  0  0
  192.9510  175.8080  144.2460 C   0  0  1  0  0  3  0  0  0  0  0  0
  190.3100  174.7380  142.2310 C   0  0  0  0  0  0  0  0  0  0  0  0
  192.7850  176.4050  145.6310 C   0  0  2  0  0  3  0  0  0  0  0  0
  191.1290  176.9810  147.3920 C   0  0  0  0  0  0  0  0  0  0  0  0
  189.0080  175.0050  141.8000 C   0  0  0  0  0  0  0  0  0  0  0  0
  190.7070  175.1170  143.4870 N   0  0  0  0  0  0  0  0  0  0  0  0
  185.2650  177.3290  145.3050 C   0  0  0  0  0  3  0  0  0  0  0  0
  193.7680  175.6660  146.5150 C   0  0  0  0  0  2  0  0  0  0  0  0
  194.3910  175.3260  144.1850 C   0  0  0  0  0  2  0  0  0  0  0  0
  185.6970  176.4220  143.1380 O   0  0  0  0  0  1  0  0  0  0  0  0
  189.2630  176.8270  146.4360 C   0  0  0  0  0  0  0  0  0  0  0  0
  185.6770  177.7050  146.5820 C   0  0  0  0  0  3  0  0  0  0  0  0
  187.5300  176.5860  144.7650 C   0  0  0  0  0  0  0  0  0  0  0  0
  190.2110  176.3130  145.5850 C   0  0  0  0  0  0  0  0  0  0  0  0
  192.0070  177.2930  148.2430 O   0  0  0  0  0  0  0  0  0  0  0  0
  191.4230  176.4180  146.1910 N   0  0  0  0  0  0  0  0  0  0  0  0
  194.9330  175.3320  145.6070 C   0  0  0  0  0  2  0  0  0  0  0  0
  191.9010  173.5690  145.0130 C   0  0  0  0  0  1  0  0  0  0  0  0
  187.0050  177.5320  146.9640 C   0  0  0  0  0  3  0  0  0  0  0  0
  187.9290  176.9760  146.0720 C   0  0  0  0  0  0  0  0  0  0  0  0
  192.0150  174.6480  143.9370 C   0  0  2  0  0  3  0  0  0  0  0  0
  188.5500  174.6260  140.4300 C   0  0  0  0  0  2  0  0  0  0  0  0
  188.2040  172.8110  139.0130 C   0  0  0  0  0  1  0  0  0  0  0  0
  188.1910  173.2200  140.4050 N   0  0  0  0  0  2  0  0  0  0  0  0
  1  4  2  0  0  0  0
  1 19  1  0  0  0  0
  2 19  2  0  0  0  0
  2 13  1  0  0  0  0
  4 20  1  0  0  0  0
  5  1  1  0  0  0  0
  6  8  2  0  0  0  0
  7 15  1  1  0  0  0
  7  9  1  0  0  0  0
  8 12  1  0  0  0  0
  9 22  1  0  0  0  0
  9 14  1  1  0  0  0
 10  3  1  0  0  0  0
 10 21  2  0  0  0  0
 11  8  1  0  0  0  0
 11  5  2  0  0  0  0
 12 27  1  0  0  0  0
 12  4  1  0  0  0  0
 13 18  2  0  0  0  0
 15 23  1  0  0  0  0
 16  2  1  0  0  0  0
 17  3  1  0  0  0  0
 18 25  1  0  0  0  0
 19 26  1  0  0  0  0
 20 22  1  0  0  0  0
 20 17  2  0  0  0  0
 22 10  1  0  0  0  0
 23 14  1  0  0  0  0
 26 17  1  0  0  0  0
 26 25  2  0  0  0  0
 27  7  1  0  0  0  0
 27 24  1  1  0  0  0
 28 11  1  0  0  0  0
 29 30  1  0  0  0  0
 30 28  1  0  0  0  0
M  END
>  <MODEL>
4

>  <REMARK>
 VINA RESULT:      -8.1      2.311      3.379
  Name = 
  2 active torsions:
  status: ('A' for Active; 'I' for Inactive)
    1  A    between atoms: C_11  and  C_28
    2  A    between atoms: C_28  and  N_30
                            x       y       z     vdW  Elec       q    Type
                         _______ _______ _______ _____ _____    ______ ____

>  <TORSDO>
F 2

$$$$
=
 OpenBabel11112416193D

 30 35  0  0  1  0  0  0  0  0999 V2000
  187.8430  176.4190  143.4350 C   0  0  0  0  0  0  0  0  0  0  0  0
  185.5920  177.4990  143.5900 C   0  0  0  0  0  0  0  0  0  0  0  0
  188.7870  177.5980  147.2630 N   0  0  0  0  0  2  0  0  0  0  0  0
  189.0860  176.0690  144.0460 C   0  0  0  0  0  0  0  0  0  0  0  0
  187.6130  176.0250  142.1560 N   0  0  0  0  0  0  0  0  0  0  0  0
  190.4920  174.1310  141.4390 O   0  0  0  0  0  0  0  0  0  0  0  0
  192.1330  175.6500  144.4310 C   0  0  1  0  0  3  0  0  0  0  0  0
  189.6810  174.8620  142.0760 C   0  0  0  0  0  0  0  0  0  0  0  0
  191.8570  176.3130  145.7670 C   0  0  2  0  0  3  0  0  0  0  0  0
  190.0650  177.1650  147.2620 C   0  0  0  0  0  0  0  0  0  0  0  0
  188.5000  175.2810  141.4590 C   0  0  0  0  0  0  0  0  0  0  0  0
  189.9460  175.2310  143.3700 N   0  0  0  0  0  0  0  0  0  0  0  0
  184.6500  178.2000  144.3500 C   0  0  0  0  0  3  0  0  0  0  0  0
  192.5990  175.4850  146.7960 C   0  0  0  0  0  2  0  0  0  0  0  0
  193.4900  174.9820  144.5850 C   0  0  0  0  0  2  0  0  0  0  0  0
  185.2550  177.1660  142.2830 O   0  0  0  0  0  1  0  0  0  0  0  0
  188.3460  177.2210  146.0510 C   0  0  0  0  0  0  0  0  0  0  0  0
  184.9270  178.5660  145.6660 C   0  0  0  0  0  3  0  0  0  0  0  0
  186.8480  177.1490  144.1540 C   0  0  0  0  0  0  0  0  0  0  0  0
  189.3260  176.5570  145.3540 C   0  0  0  0  0  0  0  0  0  0  0  0
  190.8480  177.3900  148.2240 O   0  0  0  0  0  0  0  0  0  0  0  0
  190.4460  176.5250  146.1250 N   0  0  0  0  0  0  0  0  0  0  0  0
  193.8240  174.9700  146.0700 C   0  0  0  0  0  2  0  0  0  0  0  0
  190.6950  173.5970  145.0780 C   0  0  0  0  0  1  0  0  0  0  0  0
  186.1530  178.2340  146.2380 C   0  0  0  0  0  3  0  0  0  0  0  0
  187.1090  177.5300  145.4970 C   0  0  0  0  0  0  0  0  0  0  0  0
  191.1030  174.6120  144.0120 C   0  0  2  0  0  3  0  0  0  0  0  0
  188.1910  174.9150  140.0440 C   0  0  0  0  0  2  0  0  0  0  0  0
  188.5010  173.1310  138.5810 C   0  0  0  0  0  1  0  0  0  0  0  0
  188.0760  173.4740  139.9250 N   0  0  0  0  0  2  0  0  0  0  0  0
  1  4  2  0  0  0  0
  1 19  1  0  0  0  0
  2 19  2  0  0  0  0
  2 13  1  0  0  0  0
  4 20  1  0  0  0  0
  5  1  1  0  0  0  0
  6  8  2  0  0  0  0
  7 15  1  1  0  0  0
  7  9  1  0  0  0  0
  8 12  1  0  0  0  0
  9 22  1  0  0  0  0
  9 14  1  1  0  0  0
 10  3  1  0  0  0  0
 10 21  2  0  0  0  0
 11  8  1  0  0  0  0
 11  5  2  0  0  0  0
 12 27  1  0  0  0  0
 12  4  1  0  0  0  0
 13 18  2  0  0  0  0
 15 23  1  0  0  0  0
 16  2  1  0  0  0  0
 17  3  1  0  0  0  0
 18 25  1  0  0  0  0
 19 26  1  0  0  0  0
 20 17  2  0  0  0  0
 20 22  1  0  0  0  0
 22 10  1  0  0  0  0
 23 14  1  0  0  0  0
 26 17  1  0  0  0  0
 26 25  2  0  0  0  0
 27  7  1  0  0  0  0
 27 24  1  1  0  0  0
 28 11  1  0  0  0  0
 29 30  1  0  0  0  0
 30 28  1  0  0  0  0
M  END
>  <MODEL>
5

>  <REMARK>
 VINA RESULT:      -8.0      2.018      3.015
  Name = 
  2 active torsions:
  status: ('A' for Active; 'I' for Inactive)
    1  A    between atoms: C_11  and  C_28
    2  A    between atoms: C_28  and  N_30
                            x       y       z     vdW  Elec       q    Type
                         _______ _______ _______ _____ _____    ______ ____

>  <TORSDO>
F 2

$$$$
=
 OpenBabel11112416193D

 30 35  0  0  1  0  0  0  0  0999 V2000
  187.9910  176.4000  144.5770 C   0  0  0  0  0  0  0  0  0  0  0  0
  186.6110  178.3170  145.3990 C   0  0  0  0  0  0  0  0  0  0  0  0
  186.8260  177.0910  140.6920 N   0  0  0  0  0  2  0  0  0  0  0  0
  188.4870  175.6150  143.4910 C   0  0  0  0  0  0  0  0  0  0  0  0
  188.3920  176.0930  145.8370 N   0  0  0  0  0  0  0  0  0  0  0  0
  190.6820  173.4820  145.2680 O   0  0  0  0  0  0  0  0  0  0  0  0
  189.3030  173.1390  141.8140 C   0  0  1  0  0  3  0  0  0  0  0  0
  189.8280  174.3830  145.0320 C   0  0  0  0  0  0  0  0  0  0  0  0
  188.5640  173.8830  140.7170 C   0  0  2  0  0  3  0  0  0  0  0  0
  187.4280  176.0170  140.1410 C   0  0  0  0  0  0  0  0  0  0  0  0
  189.2730  175.1000  146.0940 C   0  0  0  0  0  0  0  0  0  0  0  0
  189.4550  174.6680  143.7440 N   0  0  0  0  0  0  0  0  0  0  0  0
  185.7640  179.3930  145.1110 C   0  0  0  0  0  3  0  0  0  0  0  0
  189.4510  173.7920  139.4930 C   0  0  0  0  0  2  0  0  0  0  0  0
  190.1440  172.0950  141.0970 C   0  0  0  0  0  2  0  0  0  0  0  0
  186.9380  178.0850  146.7290 O   0  0  0  0  0  1  0  0  0  0  0  0
  187.1790  176.9990  141.9850 C   0  0  0  0  0  0  0  0  0  0  0  0
  185.3960  179.6780  143.7990 C   0  0  0  0  0  3  0  0  0  0  0  0
  187.1100  177.5000  144.3500 C   0  0  0  0  0  0  0  0  0  0  0  0
  187.9920  175.9120  142.1970 C   0  0  0  0  0  0  0  0  0  0  0  0
  187.2800  175.7160  138.9260 O   0  0  0  0  0  0  0  0  0  0  0  0
  188.1510  175.2650  141.0120 N   0  0  0  0  0  0  0  0  0  0  0  0
  190.1520  172.4560  139.6180 C   0  0  0  0  0  2  0  0  0  0  0  0
  191.1180  174.9800  141.9310 C   0  0  0  0  0  1  0  0  0  0  0  0
  185.8720  178.8880  142.7540 C   0  0  0  0  0  3  0  0  0  0  0  0
  186.7240  177.8100  143.0180 C   0  0  0  0  0  0  0  0  0  0  0  0
  190.2050  174.0090  142.6760 C   0  0  2  0  0  3  0  0  0  0  0  0
  189.6390  174.8000  147.5100 C   0  0  0  0  0  2  0  0  0  0  0  0
  191.0140  176.6260  147.9510 C   0  0  0  0  0  1  0  0  0  0  0  0
  191.0160  175.1900  147.7530 N   0  0  0  0  0  2  0  0  0  0  0  0
  1  5  1  0  0  0  0
  2 16  1  0  0  0  0
  3 17  1  0  0  0  0
  4 12  1  0  0  0  0
  4  1  2  0  0  0  0
  5 11  2  0  0  0  0
  7 15  1  6  0  0  0
  7 27  1  0  0  0  0
  8  6  2  0  0  0  0
  8 11  1  0  0  0  0
  9 14  1  6  0  0  0
  9 22  1  0  0  0  0
  9  7  1  0  0  0  0
 10  3  1  0  0  0  0
 10 22  1  0  0  0  0
 11 28  1  0  0  0  0
 12  8  1  0  0  0  0
 13  2  1  0  0  0  0
 14 23  1  0  0  0  0
 17 20  2  0  0  0  0
 17 26  1  0  0  0  0
 18 13  2  0  0  0  0
 19  1  1  0  0  0  0
 19  2  2  0  0  0  0
 20  4  1  0  0  0  0
 21 10  2  0  0  0  0
 22 20  1  0  0  0  0
 23 15  1  0  0  0  0
 25 26  2  0  0  0  0
 25 18  1  0  0  0  0
 26 19  1  0  0  0  0
 27 24  1  6  0  0  0
 27 12  1  0  0  0  0
 28 30  1  0  0  0  0
 30 29  1  0  0  0  0
M  END
>  <MODEL>
6

>  <REMARK>
 VINA RESULT:      -7.8      1.882      5.206
  Name = 
  2 active torsions:
  status: ('A' for Active; 'I' for Inactive)
    1  A    between atoms: C_11  and  C_28
    2  A    between atoms: C_28  and  N_30
                            x       y       z     vdW  Elec       q    Type
                         _______ _______ _______ _____ _____    ______ ____

>  <TORSDO>
F 2

$$$$
=
 OpenBabel11112416193D

 30 35  0  0  1  0  0  0  0  0999 V2000
  190.2880  174.7940  143.3420 C   0  0  0  0  0  0  0  0  0  0  0  0
  192.3860  173.8510  144.3250 C   0  0  0  0  0  0  0  0  0  0  0  0
  189.5000  176.9060  146.7850 N   0  0  0  0  0  2  0  0  0  0  0  0
  189.1510  175.6530  143.4560 C   0  0  0  0  0  0  0  0  0  0  0  0
  190.4660  174.1010  142.1890 N   0  0  0  0  0  0  0  0  0  0  0  0
  187.8090  175.2770  140.2030 O   0  0  0  0  0  0  0  0  0  0  0  0
  186.2230  176.6560  143.2910 C   0  0  1  0  0  3  0  0  0  0  0  0
  188.5660  175.1280  141.2040 C   0  0  0  0  0  0  0  0  0  0  0  0
  186.5150  177.1360  144.7010 C   0  0  2  0  0  3  0  0  0  0  0  0
  188.2930  177.3830  146.4180 C   0  0  0  0  0  0  0  0  0  0  0  0
  189.6310  174.2270  141.1330 C   0  0  0  0  0  0  0  0  0  0  0  0
  188.3570  175.8540  142.3480 N   0  0  0  0  0  0  0  0  0  0  0  0
  193.2860  173.7920  145.3940 C   0  0  0  0  0  3  0  0  0  0  0  0
  185.9680  178.5460  144.7740 C   0  0  0  0  0  2  0  0  0  0  0  0
  184.9800  177.4150  142.8560 C   0  0  0  0  0  2  0  0  0  0  0  0
  192.6600  173.0820  143.2010 O   0  0  0  0  0  1  0  0  0  0  0  0
  189.8900  176.2190  145.6980 C   0  0  0  0  0  0  0  0  0  0  0  0
  193.0680  174.5370  146.5510 C   0  0  0  0  0  3  0  0  0  0  0  0
  191.2330  174.6780  144.4060 C   0  0  0  0  0  0  0  0  0  0  0  0
  188.9530  176.3050  144.6980 C   0  0  0  0  0  0  0  0  0  0  0  0
  187.5640  178.0410  147.2090 O   0  0  0  0  0  0  0  0  0  0  0  0
  187.9110  177.0470  145.1580 N   0  0  0  0  0  0  0  0  0  0  0  0
  184.7670  178.5470  143.8520 C   0  0  0  0  0  2  0  0  0  0  0  0
  187.9600  178.3010  142.3020 C   0  0  0  0  0  1  0  0  0  0  0  0
  191.9430  175.3530  146.6520 C   0  0  0  0  0  3  0  0  0  0  0  0
  191.0310  175.4310  145.5930 C   0  0  0  0  0  0  0  0  0  0  0  0
  187.3430  176.9040  142.2910 C   0  0  2  0  0  3  0  0  0  0  0  0
  189.8730  173.4050  139.9100 C   0  0  0  0  0  2  0  0  0  0  0  0
  190.5700  171.1850  139.9660 C   0  0  0  0  0  1  0  0  0  0  0  0
  191.0290  172.5520  140.1140 N   0  0  0  0  0  2  0  0  0  0  0  0
  1  4  2  0  0  0  0
  1 19  1  0  0  0  0
  2 19  2  0  0  0  0
  2 13  1  0  0  0  0
  4 20  1  0  0  0  0
  5  1  1  0  0  0  0
  6  8  2  0  0  0  0
  7 15  1  6  0  0  0
  7  9  1  0  0  0  0
  8 12  1  0  0  0  0
  9 14  1  6  0  0  0
  9 22  1  0  0  0  0
 10  3  1  0  0  0  0
 10 21  2  0  0  0  0
 11  8  1  0  0  0  0
 11  5  2  0  0  0  0
 12  4  1  0  0  0  0
 13 18  2  0  0  0  0
 15 23  1  0  0  0  0
 16  2  1  0  0  0  0
 17  3  1  0  0  0  0
 18 25  1  0  0  0  0
 19 26  1  0  0  0  0
 20 22  1  0  0  0  0
 20 17  2  0  0  0  0
 22 10  1  0  0  0  0
 23 14  1  0  0  0  0
 26 17  1  0  0  0  0
 26 25  2  0  0  0  0
 27 24  1  1  0  0  0
 27 12  1  0  0  0  0
 27  7  1  0  0  0  0
 28 30  1  0  0  0  0
 28 11  1  0  0  0  0
 29 30  1  0  0  0  0
M  END
>  <MODEL>
7

>  <REMARK>
 VINA RESULT:      -7.8      2.262      5.942
  Name = 
  2 active torsions:
  status: ('A' for Active; 'I' for Inactive)
    1  A    between atoms: C_11  and  C_28
    2  A    between atoms: C_28  and  N_30
                            x       y       z     vdW  Elec       q    Type
                         _______ _______ _______ _____ _____    ______ ____

>  <TORSDO>
F 2

$$$$
=
 OpenBabel11112416193D

 30 35  0  0  1  0  0  0  0  0999 V2000
  189.4180  175.0300  143.9510 C   0  0  0  0  0  0  0  0  0  0  0  0
  190.8760  173.3800  142.7630 C   0  0  0  0  0  0  0  0  0  0  0  0
  187.5380  176.0560  140.4370 N   0  0  0  0  0  2  0  0  0  0  0  0
  188.3540  175.9830  143.9160 C   0  0  0  0  0  0  0  0  0  0  0  0
  190.0160  174.7650  145.1400 N   0  0  0  0  0  0  0  0  0  0  0  0
  188.1140  176.7140  147.3710 O   0  0  0  0  0  0  0  0  0  0  0  0
  186.7430  178.5790  144.4390 C   0  0  1  0  0  3  0  0  0  0  0  0
  188.5180  176.2080  146.2850 C   0  0  0  0  0  0  0  0  0  0  0  0
  186.4770  178.4810  142.9480 C   0  0  2  0  0  3  0  0  0  0  0  0
  186.7830  177.0560  140.9350 C   0  0  0  0  0  0  0  0  0  0  0  0
  189.6120  175.3400  146.2950 C   0  0  0  0  0  0  0  0  0  0  0  0
  187.8810  176.4940  145.1050 N   0  0  0  0  0  0  0  0  0  0  0  0
  191.2290  172.7330  141.5750 C   0  0  0  0  0  3  0  0  0  0  0  0
  184.9970  178.7540  142.7780 C   0  0  0  0  0  2  0  0  0  0  0  0
  185.6990  179.5470  144.9720 C   0  0  0  0  0  2  0  0  0  0  0  0
  191.5710  173.0440  143.9180 O   0  0  0  0  0  1  0  0  0  0  0  0
  188.1810  175.5990  141.5250 C   0  0  0  0  0  0  0  0  0  0  0  0
  190.5730  173.0260  140.3810 C   0  0  0  0  0  3  0  0  0  0  0  0
  189.8360  174.3480  142.7680 C   0  0  0  0  0  0  0  0  0  0  0  0
  187.8010  176.2910  142.6490 C   0  0  0  0  0  0  0  0  0  0  0  0
  186.0670  177.7860  140.1980 O   0  0  0  0  0  0  0  0  0  0  0  0
  186.9040  177.2430  142.2760 N   0  0  0  0  0  0  0  0  0  0  0  0
  184.6520  179.7300  143.8820 C   0  0  0  0  0  2  0  0  0  0  0  0
  185.4130  176.4030  144.8850 C   0  0  0  0  0  1  0  0  0  0  0  0
  189.5520  173.9740  140.3620 C   0  0  0  0  0  3  0  0  0  0  0  0
  189.1790  174.6310  141.5410 C   0  0  0  0  0  0  0  0  0  0  0  0
  186.6400  177.2600  145.1900 C   0  0  2  0  0  3  0  0  0  0  0  0
  190.3420  175.0250  147.5600 C   0  0  0  0  0  2  0  0  0  0  0  0
  191.5160  176.9050  148.2720 C   0  0  0  0  0  1  0  0  0  0  0  0
  191.6480  175.6590  147.5420 N   0  0  0  0  0  2  0  0  0  0  0  0
  1  5  1  0  0  0  0
  2 19  1  0  0  0  0
  2 16  1  0  0  0  0
  3 10  1  0  0  0  0
  3 17  1  0  0  0  0
  4  1  1  0  0  0  0
  4 12  1  0  0  0  0
  5 11  2  0  0  0  0
  7 15  1  1  0  0  0
  7 27  1  0  0  0  0
  8 11  1  0  0  0  0
  8  6  2  0  0  0  0
  9 14  1  1  0  0  0
  9  7  1  0  0  0  0
 10 22  1  0  0  0  0
 11 28  1  0  0  0  0
 12 27  1  0  0  0  0
 12  8  1  0  0  0  0
 13  2  2  0  0  0  0
 14 23  1  0  0  0  0
 17 26  2  0  0  0  0
 17 20  1  0  0  0  0
 18 13  1  0  0  0  0
 19  1  2  0  0  0  0
 20  4  2  0  0  0  0
 21 10  2  0  0  0  0
 22 20  1  0  0  0  0
 22  9  1  0  0  0  0
 23 15  1  0  0  0  0
 25 18  2  0  0  0  0
 25 26  1  0  0  0  0
 26 19  1  0  0  0  0
 27 24  1  6  0  0  0
 30 28  1  0  0  0  0
 30 29  1  0  0  0  0
M  END
>  <MODEL>
8

>  <REMARK>
 VINA RESULT:      -7.7      1.931      7.171
  Name = 
  2 active torsions:
  status: ('A' for Active; 'I' for Inactive)
    1  A    between atoms: C_11  and  C_28
    2  A    between atoms: C_28  and  N_30
                            x       y       z     vdW  Elec       q    Type
                         _______ _______ _______ _____ _____    ______ ____

>  <TORSDO>
F 2

$$$$
=
 OpenBabel11112416193D

 30 35  0  0  1  0  0  0  0  0999 V2000
  190.2350  175.7950  144.2640 C   0  0  0  0  0  0  0  0  0  0  0  0
  191.2740  174.5410  142.3660 C   0  0  0  0  0  0  0  0  0  0  0  0
  186.6170  175.9590  142.3110 N   0  0  0  0  0  2  0  0  0  0  0  0
  189.0840  176.3980  144.8590 C   0  0  0  0  0  0  0  0  0  0  0  0
  191.4040  175.8070  144.9530 N   0  0  0  0  0  0  0  0  0  0  0  0
  190.4540  177.3020  147.9950 O   0  0  0  0  0  0  0  0  0  0  0  0
  187.3090  178.4590  146.3460 C   0  0  1  0  0  3  0  0  0  0  0  0
  190.3680  176.8480  146.8180 C   0  0  0  0  0  0  0  0  0  0  0  0
  186.3560  178.1720  145.2000 C   0  0  2  0  0  3  0  0  0  0  0  0
  185.9760  176.7380  143.2060 C   0  0  0  0  0  0  0  0  0  0  0  0
  191.5070  176.3320  146.1940 C   0  0  0  0  0  0  0  0  0  0  0  0
  189.1660  176.8460  146.1600 N   0  0  0  0  0  0  0  0  0  0  0  0
  191.1350  173.9300  141.1160 C   0  0  0  0  0  3  0  0  0  0  0  0
  184.9930  177.9960  145.8360 C   0  0  0  0  0  2  0  0  0  0  0  0
  186.4610  179.1280  147.4170 C   0  0  0  0  0  2  0  0  0  0  0  0
  192.5260  174.5100  142.9690 O   0  0  0  0  0  1  0  0  0  0  0  0
  187.8250  175.7930  142.8730 C   0  0  0  0  0  0  0  0  0  0  0  0
  189.9070  173.9270  140.4570 C   0  0  0  0  0  3  0  0  0  0  0  0
  190.1600  175.1700  142.9830 C   0  0  0  0  0  0  0  0  0  0  0  0
  187.8970  176.4350  144.0860 C   0  0  0  0  0  0  0  0  0  0  0  0
  184.8100  177.1730  143.0030 O   0  0  0  0  0  0  0  0  0  0  0  0
  186.7090  177.0580  144.3060 N   0  0  0  0  0  0  0  0  0  0  0  0
  185.0020  178.9180  147.0370 C   0  0  0  0  0  2  0  0  0  0  0  0
  187.0810  176.0370  147.2300 C   0  0  0  0  0  1  0  0  0  0  0  0
  188.8010  174.5400  141.0430 C   0  0  0  0  0  3  0  0  0  0  0  0
  188.9170  175.1540  142.2950 C   0  0  0  0  0  0  0  0  0  0  0  0
  187.9870  177.2300  146.9320 C   0  0  2  0  0  3  0  0  0  0  0  0
  192.8360  176.3400  146.8750 C   0  0  0  0  0  2  0  0  0  0  0  0
  194.6010  177.3530  145.7430 C   0  0  0  0  0  1  0  0  0  0  0  0
  193.8860  176.1010  145.9010 N   0  0  0  0  0  2  0  0  0  0  0  0
  1  4  1  0  0  0  0
  1  5  1  0  0  0  0
  2 16  1  0  0  0  0
  2 19  1  0  0  0  0
  3 17  1  0  0  0  0
  3 10  1  0  0  0  0
  4 12  1  0  0  0  0
  5 11  2  0  0  0  0
  7 27  1  0  0  0  0
  7 15  1  1  0  0  0
  8  6  2  0  0  0  0
  9 14  1  1  0  0  0
  9  7  1  0  0  0  0
 10 22  1  0  0  0  0
 11  8  1  0  0  0  0
 11 28  1  0  0  0  0
 12  8  1  0  0  0  0
 12 27  1  0  0  0  0
 13  2  2  0  0  0  0
 14 23  1  0  0  0  0
 17 20  1  0  0  0  0
 18 25  2  0  0  0  0
 18 13  1  0  0  0  0
 19  1  2  0  0  0  0
 20 22  1  0  0  0  0
 20  4  2  0  0  0  0
 21 10  2  0  0  0  0
 22  9  1  0  0  0  0
 23 15  1  0  0  0  0
 25 26  1  0  0  0  0
 26 17  2  0  0  0  0
 26 19  1  0  0  0  0
 27 24  1  6  0  0  0
 29 30  1  0  0  0  0
 30 28  1  0  0  0  0
M  END
>  <MODEL>
9

>  <REMARK>
 VINA RESULT:      -7.6      2.044      7.217
  Name = 
  2 active torsions:
  status: ('A' for Active; 'I' for Inactive)
    1  A    between atoms: C_11  and  C_28
    2  A    between atoms: C_28  and  N_30
                            x       y       z     vdW  Elec       q    Type
                         _______ _______ _______ _____ _____    ______ ____

>  <TORSDO>
F 2

$$$$
