=
 OpenBabel11112417423D

 28 32  0  0  1  0  0  0  0  0999 V2000
  190.1190  175.7010  143.2380 C   0  0  0  0  0  0  0  0  0  0  0  0
  187.9670  177.9500  141.8770 O   0  0  0  0  0  1  0  0  0  0  0  0
  186.1250  176.6270  147.8790 O   0  0  0  0  0  0  0  0  0  0  0  0
  189.7950  173.0800  142.2840 C   0  0  0  0  0  3  0  0  0  0  0  0
  185.5430  177.5160  145.7740 N   0  0  0  0  0  0  0  0  0  0  0  0
  190.4730  177.3480  143.8670 S   0  0  0  0  0  0  0  0  0  0  0  0
  187.8510  176.0500  140.4650 C   0  0  0  0  0  1  0  0  0  0  0  0
  187.0970  176.9570  141.4190 C   0  0  1  0  0  0  0  0  0  0  0  0
  184.9400  178.0380  141.2430 C   0  0  0  0  0  0  0  0  0  0  0  0
  186.5290  176.1290  142.6030 C   0  0  2  0  0  3  0  0  0  0  0  0
  189.7680  177.9970  147.2550 O   0  0  0  0  0  0  0  0  0  0  0  0
  187.5840  176.9100  144.6780 C   0  0  1  0  0  3  0  0  0  0  0  0
  184.7140  177.8280  142.6060 O   0  0  0  0  0  0  0  0  0  0  0  0
  186.0160  177.5930  140.6740 N   0  0  0  0  0  0  0  0  0  0  0  0
  189.8670  176.9370  146.6600 C   0  0  0  0  0  0  0  0  0  0  0  0
  188.8310  175.0940  143.2590 C   0  0  0  0  0  0  0  0  0  0  0  0
  186.3910  176.8220  146.6620 C   0  0  0  0  0  0  0  0  0  0  0  0
  183.9680  178.7280  140.4690 N   0  0  0  0  0  1  0  0  0  0  0  0
  188.7720  175.9230  146.7430 C   0  0  0  0  0  2  0  0  0  0  0  0
  188.6990  173.7800  142.7860 C   0  0  0  0  0  3  0  0  0  0  0  0
  191.2050  174.9890  142.7120 C   0  0  0  0  0  3  0  0  0  0  0  0
  191.0470  173.6870  142.2400 C   0  0  0  0  0  3  0  0  0  0  0  0
  191.3270  176.5980  145.6780 S   0  0  0  0  0  0  0  0  0  0  0  0
  186.2410  177.6610  144.5020 C   0  0  1  0  0  3  0  0  0  0  0  0
  187.5880  176.4040  146.0450 N   0  0  0  0  0  0  0  0  0  0  0  0
  185.4910  176.9270  143.3970 C   0  0  2  0  0  3  0  0  0  0  0  0
  184.3850  178.3000  146.1690 C   0  0  0  0  0  1  0  0  0  0  0  0
  187.5450  175.7630  143.6870 C   0  0  2  0  0  3  0  0  0  0  0  0
  1 16  1  0  0  0  0
  1  6  1  0  0  0  0
  4 20  1  0  0  0  0
  5 27  1  0  0  0  0
  5 17  1  0  0  0  0
  6 23  1  0  0  0  0
  8  7  1  6  0  0  0
  8  2  1  0  0  0  0
  8 10  1  0  0  0  0
  9 13  1  0  0  0  0
 10 26  1  0  0  0  0
 10 28  1  0  0  0  0
 12 25  1  0  0  0  0
 13 26  1  0  0  0  0
 14  9  2  0  0  0  0
 14  8  1  0  0  0  0
 15 19  1  0  0  0  0
 15 11  2  0  0  0  0
 16 28  1  0  0  0  0
 17  3  2  0  0  0  0
 18  9  1  0  0  0  0
 20 16  2  0  0  0  0
 21  1  2  0  0  0  0
 22  4  2  0  0  0  0
 22 21  1  0  0  0  0
 23 15  1  0  0  0  0
 24 12  1  0  0  0  0
 24  5  1  0  0  0  0
 25 17  1  0  0  0  0
 25 19  1  0  0  0  0
 26 24  1  0  0  0  0
 28 12  1  0  0  0  0
M  END
>  <MODEL>
1

>  <REMARK>
 VINA RESULT:      -8.7      0.000      0.000
  Name = 
  0 active torsions:
  status: ('A' for Active; 'I' for Inactive)
                            x       y       z     vdW  Elec       q    Type
                         _______ _______ _______ _____ _____    ______ ____

>  <TORSDO>
F 0

$$$$
=
 OpenBabel11112417423D

 28 32  0  0  1  0  0  0  0  0999 V2000
  191.2030  174.6220  145.0810 C   0  0  0  0  0  0  0  0  0  0  0  0
  188.3630  175.6710  146.6240 O   0  0  0  0  0  1  0  0  0  0  0  0
  187.6080  176.1230  140.2680 O   0  0  0  0  0  0  0  0  0  0  0  0
  193.3280  176.4520  145.2200 C   0  0  0  0  0  3  0  0  0  0  0  0
  186.8530  176.7650  142.4070 N   0  0  0  0  0  0  0  0  0  0  0  0
  189.9450  173.3400  144.9910 S   0  0  0  0  0  0  0  0  0  0  0  0
  190.0700  177.1070  147.4270 C   0  0  0  0  0  1  0  0  0  0  0  0
  188.7750  177.0060  146.6430 C   0  0  1  0  0  0  0  0  0  0  0  0
  186.7310  178.2970  146.7440 C   0  0  0  0  0  0  0  0  0  0  0  0
  188.9830  177.5430  145.2010 C   0  0  2  0  0  3  0  0  0  0  0  0
  188.5480  172.6310  141.8380 O   0  0  0  0  0  0  0  0  0  0  0  0
  188.6190  175.6980  143.6220 C   0  0  1  0  0  3  0  0  0  0  0  0
  186.5900  178.1960  145.3570 O   0  0  0  0  0  0  0  0  0  0  0  0
  187.7660  177.7950  147.3410 N   0  0  0  0  0  0  0  0  0  0  0  0
  189.5620  173.2420  142.1320 C   0  0  0  0  0  0  0  0  0  0  0  0
  191.0000  175.9730  144.6830 C   0  0  0  0  0  0  0  0  0  0  0  0
  187.7630  176.1550  141.5180 C   0  0  0  0  0  0  0  0  0  0  0  0
  185.7400  178.9770  147.5020 N   0  0  0  0  0  1  0  0  0  0  0  0
  189.7920  174.6180  141.5950 C   0  0  0  0  0  2  0  0  0  0  0  0
  192.0810  176.8650  144.7520 C   0  0  0  0  0  3  0  0  0  0  0  0
  192.4570  174.2300  145.5680 C   0  0  0  0  0  3  0  0  0  0  0  0
  193.5140  175.1360  145.6360 C   0  0  0  0  0  3  0  0  0  0  0  0
  190.7750  172.4890  143.2140 S   0  0  0  0  0  0  0  0  0  0  0  0
  187.2920  176.4820  143.7690 C   0  0  1  0  0  3  0  0  0  0  0  0
  188.8470  175.5540  142.1900 N   0  0  0  0  0  0  0  0  0  0  0  0
  187.6460  177.7760  144.4920 C   0  0  2  0  0  3  0  0  0  0  0  0
  185.5180  177.2170  142.0520 C   0  0  0  0  0  1  0  0  0  0  0  0
  189.6860  176.5780  144.2430 C   0  0  2  0  0  3  0  0  0  0  0  0
  1 21  1  0  0  0  0
  2  8  1  0  0  0  0
  3 17  2  0  0  0  0
  4 22  1  0  0  0  0
  5 24  1  0  0  0  0
  6  1  1  0  0  0  0
  8 14  1  0  0  0  0
  8  7  1  1  0  0  0
  9 14  2  0  0  0  0
  9 18  1  0  0  0  0
 10  8  1  0  0  0  0
 11 15  2  0  0  0  0
 12 24  1  0  0  0  0
 12 28  1  0  0  0  0
 13  9  1  0  0  0  0
 15 23  1  0  0  0  0
 16 20  1  0  0  0  0
 16  1  2  0  0  0  0
 17 25  1  0  0  0  0
 17  5  1  0  0  0  0
 19 15  1  0  0  0  0
 19 25  1  0  0  0  0
 20  4  2  0  0  0  0
 21 22  2  0  0  0  0
 23  6  1  0  0  0  0
 24 26  1  0  0  0  0
 25 12  1  0  0  0  0
 26 10  1  0  0  0  0
 26 13  1  0  0  0  0
 27  5  1  0  0  0  0
 28 16  1  0  0  0  0
 28 10  1  0  0  0  0
M  END
>  <MODEL>
2

>  <REMARK>
 VINA RESULT:      -8.4      2.569      4.982
  Name = 
  0 active torsions:
  status: ('A' for Active; 'I' for Inactive)
                            x       y       z     vdW  Elec       q    Type
                         _______ _______ _______ _____ _____    ______ ____

>  <TORSDO>
F 0

$$$$
=
 OpenBabel11112417423D

 28 32  0  0  1  0  0  0  0  0999 V2000
  188.9600  176.2220  145.0530 C   0  0  0  0  0  0  0  0  0  0  0  0
  192.0270  177.3420  144.1130 O   0  0  0  0  0  1  0  0  0  0  0  0
  190.1070  172.7690  140.0430 O   0  0  0  0  0  0  0  0  0  0  0  0
  188.9890  174.5590  147.3160 C   0  0  0  0  0  3  0  0  0  0  0  0
  191.8990  174.0420  140.8970 N   0  0  0  0  0  0  0  0  0  0  0  0
  188.8050  177.3320  143.6480 S   0  0  0  0  0  0  0  0  0  0  0  0
  192.3180  176.5150  146.3160 C   0  0  0  0  0  1  0  0  0  0  0  0
  192.6960  176.3640  144.8540 C   0  0  1  0  0  0  0  0  0  0  0  0
  194.8430  176.1060  143.7670 C   0  0  0  0  0  0  0  0  0  0  0  0
  192.3290  174.9410  144.3550 C   0  0  2  0  0  3  0  0  0  0  0  0
  187.8310  175.9450  140.5610 O   0  0  0  0  0  0  0  0  0  0  0  0
  190.6260  175.1480  142.5970 C   0  0  1  0  0  3  0  0  0  0  0  0
  194.2740  175.2340  142.8350 O   0  0  0  0  0  0  0  0  0  0  0  0
  194.1320  176.5920  144.7370 N   0  0  0  0  0  0  0  0  0  0  0  0
  187.7620  175.4850  141.6890 C   0  0  0  0  0  0  0  0  0  0  0  0
  189.8330  175.0980  145.0950 C   0  0  0  0  0  0  0  0  0  0  0  0
  190.5640  173.5860  140.8870 C   0  0  0  0  0  0  0  0  0  0  0  0
  196.2190  176.4430  143.6640 N   0  0  0  0  0  1  0  0  0  0  0  0
  188.3340  174.1360  141.9870 C   0  0  0  0  0  2  0  0  0  0  0  0
  189.8200  174.2770  146.2320 C   0  0  0  0  0  3  0  0  0  0  0  0
  188.1470  176.5000  146.1590 C   0  0  0  0  0  3  0  0  0  0  0  0
  188.1580  175.6760  147.2830 C   0  0  0  0  0  3  0  0  0  0  0  0
  186.9790  176.4320  142.9920 S   0  0  0  0  0  0  0  0  0  0  0  0
  192.0170  175.0730  141.9210 C   0  0  1  0  0  3  0  0  0  0  0  0
  189.7880  174.1780  141.9040 N   0  0  0  0  0  0  0  0  0  0  0  0
  192.9900  174.6320  143.0080 C   0  0  2  0  0  3  0  0  0  0  0  0
  192.8570  173.8360  139.8240 C   0  0  0  0  0  1  0  0  0  0  0  0
  190.8470  174.7260  144.0370 C   0  0  2  0  0  3  0  0  0  0  0  0
  1 16  2  0  0  0  0
  1 21  1  0  0  0  0
  2  8  1  0  0  0  0
  3 17  2  0  0  0  0
  5 24  1  0  0  0  0
  6  1  1  0  0  0  0
  8  7  1  1  0  0  0
  9 14  2  0  0  0  0
 10  8  1  0  0  0  0
 11 15  2  0  0  0  0
 12 28  1  0  0  0  0
 13 26  1  0  0  0  0
 13  9  1  0  0  0  0
 14  8  1  0  0  0  0
 15 19  1  0  0  0  0
 15 23  1  0  0  0  0
 16 20  1  0  0  0  0
 17  5  1  0  0  0  0
 17 25  1  0  0  0  0
 18  9  1  0  0  0  0
 20  4  2  0  0  0  0
 21 22  2  0  0  0  0
 22  4  1  0  0  0  0
 23  6  1  0  0  0  0
 24 12  1  0  0  0  0
 24 26  1  0  0  0  0
 25 19  1  0  0  0  0
 25 12  1  0  0  0  0
 26 10  1  0  0  0  0
 27  5  1  0  0  0  0
 28 10  1  0  0  0  0
 28 16  1  0  0  0  0
M  END
>  <MODEL>
3

>  <REMARK>
 VINA RESULT:      -8.0      3.728      7.046
  Name = 
  0 active torsions:
  status: ('A' for Active; 'I' for Inactive)
                            x       y       z     vdW  Elec       q    Type
                         _______ _______ _______ _____ _____    ______ ____

>  <TORSDO>
F 0

$$$$
=
 OpenBabel11112417423D

 28 32  0  0  1  0  0  0  0  0999 V2000
  187.6840  177.6000  144.7660 C   0  0  0  0  0  0  0  0  0  0  0  0
  191.0770  177.4760  144.9010 O   0  0  0  0  0  1  0  0  0  0  0  0
  188.8950  172.3100  141.7840 O   0  0  0  0  0  0  0  0  0  0  0  0
  186.4150  176.9910  147.1960 C   0  0  0  0  0  3  0  0  0  0  0  0
  190.6900  173.3300  142.9220 N   0  0  0  0  0  0  0  0  0  0  0  0
  188.3800  178.0800  143.1790 S   0  0  0  0  0  0  0  0  0  0  0  0
  190.3680  177.5220  147.1630 C   0  0  0  0  0  1  0  0  0  0  0  0
  191.0790  176.7290  146.0820 C   0  0  1  0  0  0  0  0  0  0  0  0
  193.1920  175.5500  146.0800 C   0  0  0  0  0  0  0  0  0  0  0  0
  190.3740  175.3620  145.8750 C   0  0  2  0  0  3  0  0  0  0  0  0
  187.9260  175.8930  140.4580 O   0  0  0  0  0  0  0  0  0  0  0  0
  189.4780  175.2850  143.5900 C   0  0  1  0  0  3  0  0  0  0  0  0
  192.6450  174.5550  145.2670 O   0  0  0  0  0  0  0  0  0  0  0  0
  192.4610  176.5330  146.5060 N   0  0  0  0  0  0  0  0  0  0  0  0
  187.3580  175.9380  141.5360 C   0  0  0  0  0  0  0  0  0  0  0  0
  188.0180  176.4020  145.4580 C   0  0  0  0  0  0  0  0  0  0  0  0
  189.3490  173.2500  142.4890 C   0  0  0  0  0  0  0  0  0  0  0  0
  194.5580  175.4720  146.4630 N   0  0  0  0  0  1  0  0  0  0  0  0
  187.2680  174.7140  142.3900 C   0  0  0  0  0  2  0  0  0  0  0  0
  187.3630  176.1160  146.6650 C   0  0  0  0  0  3  0  0  0  0  0  0
  186.7440  178.4760  145.3240 C   0  0  0  0  0  3  0  0  0  0  0  0
  186.1110  178.1750  146.5290 C   0  0  0  0  0  3  0  0  0  0  0  0
  186.6350  177.4770  142.1000 S   0  0  0  0  0  0  0  0  0  0  0  0
  190.8740  174.6140  143.5890 C   0  0  1  0  0  3  0  0  0  0  0  0
  188.5860  174.3610  142.9010 N   0  0  0  0  0  0  0  0  0  0  0  0
  191.2400  174.4040  145.0530 C   0  0  2  0  0  3  0  0  0  0  0  0
  191.7740  172.4960  142.4320 C   0  0  0  0  0  1  0  0  0  0  0  0
  189.0860  175.4130  145.0490 C   0  0  2  0  0  3  0  0  0  0  0  0
  1 21  2  0  0  0  0
  1 16  1  0  0  0  0
  2  8  1  0  0  0  0
  3 17  2  0  0  0  0
  5 24  1  0  0  0  0
  6  1  1  0  0  0  0
  8 14  1  0  0  0  0
  8  7  1  1  0  0  0
  9 18  1  0  0  0  0
  9 14  2  0  0  0  0
 10  8  1  0  0  0  0
 11 15  2  0  0  0  0
 12 28  1  0  0  0  0
 13  9  1  0  0  0  0
 15 23  1  0  0  0  0
 15 19  1  0  0  0  0
 16 20  2  0  0  0  0
 17 25  1  0  0  0  0
 17  5  1  0  0  0  0
 19 25  1  0  0  0  0
 20  4  1  0  0  0  0
 21 22  1  0  0  0  0
 22  4  2  0  0  0  0
 23  6  1  0  0  0  0
 24 12  1  0  0  0  0
 24 26  1  0  0  0  0
 25 12  1  0  0  0  0
 26 13  1  0  0  0  0
 26 10  1  0  0  0  0
 27  5  1  0  0  0  0
 28 16  1  0  0  0  0
 28 10  1  0  0  0  0
M  END
>  <MODEL>
4

>  <REMARK>
 VINA RESULT:      -7.8      3.012      6.688
  Name = 
  0 active torsions:
  status: ('A' for Active; 'I' for Inactive)
                            x       y       z     vdW  Elec       q    Type
                         _______ _______ _______ _____ _____    ______ ____

>  <TORSDO>
F 0

$$$$
=
 OpenBabel11112417423D

 28 32  0  0  1  0  0  0  0  0999 V2000
  189.1270  176.0770  144.6330 C   0  0  0  0  0  0  0  0  0  0  0  0
  192.4180  176.5270  143.9170 O   0  0  0  0  0  1  0  0  0  0  0  0
  190.3290  171.2030  141.0070 O   0  0  0  0  0  0  0  0  0  0  0  0
  188.6340  175.1570  147.2400 C   0  0  0  0  0  3  0  0  0  0  0  0
  192.1780  172.4640  141.7500 N   0  0  0  0  0  0  0  0  0  0  0  0
  189.3090  176.7370  142.9700 S   0  0  0  0  0  0  0  0  0  0  0  0
  192.3160  176.3540  146.2790 C   0  0  0  0  0  1  0  0  0  0  0  0
  192.8380  175.7410  144.9940 C   0  0  1  0  0  0  0  0  0  0  0  0
  195.0350  174.9400  144.3710 C   0  0  0  0  0  0  0  0  0  0  0  0
  192.3220  174.2840  144.8520 C   0  0  2  0  0  3  0  0  0  0  0  0
  188.5130  174.6240  140.2690 O   0  0  0  0  0  0  0  0  0  0  0  0
  190.8920  174.1540  142.8590 C   0  0  1  0  0  3  0  0  0  0  0  0
  194.4570  173.9020  143.6360 O   0  0  0  0  0  0  0  0  0  0  0  0
  194.2960  175.7650  145.0460 N   0  0  0  0  0  0  0  0  0  0  0  0
  188.2410  174.5250  141.4540 C   0  0  0  0  0  0  0  0  0  0  0  0
  189.8080  174.9250  145.1170 C   0  0  0  0  0  0  0  0  0  0  0  0
  190.8000  172.1760  141.6550 C   0  0  0  0  0  0  0  0  0  0  0  0
  196.4490  175.0790  144.3980 N   0  0  0  0  0  1  0  0  0  0  0  0
  188.5640  173.2680  142.1960 C   0  0  0  0  0  2  0  0  0  0  0  0
  189.5360  174.4800  146.4190 C   0  0  0  0  0  3  0  0  0  0  0  0
  188.2390  176.7550  145.4770 C   0  0  0  0  0  3  0  0  0  0  0  0
  187.9910  176.3000  146.7710 C   0  0  0  0  0  3  0  0  0  0  0  0
  187.4600  175.8930  142.3070 S   0  0  0  0  0  0  0  0  0  0  0  0
  192.3270  173.7310  142.4580 C   0  0  1  0  0  3  0  0  0  0  0  0
  190.0060  173.1220  142.3360 N   0  0  0  0  0  0  0  0  0  0  0  0
  193.0860  173.5230  143.7630 C   0  0  2  0  0  3  0  0  0  0  0  0
  193.2140  171.8490  140.9400 C   0  0  0  0  0  1  0  0  0  0  0  0
  190.8740  174.1500  144.3760 C   0  0  2  0  0  3  0  0  0  0  0  0
  1 16  2  0  0  0  0
  1 21  1  0  0  0  0
  2  8  1  0  0  0  0
  3 17  2  0  0  0  0
  5 24  1  0  0  0  0
  6  1  1  0  0  0  0
  8 14  1  0  0  0  0
  8  7  1  1  0  0  0
  9 18  1  0  0  0  0
  9 14  2  0  0  0  0
 10  8  1  0  0  0  0
 11 15  2  0  0  0  0
 12 28  1  0  0  0  0
 13 26  1  0  0  0  0
 13  9  1  0  0  0  0
 15 19  1  0  0  0  0
 15 23  1  0  0  0  0
 16 20  1  0  0  0  0
 17  5  1  0  0  0  0
 17 25  1  0  0  0  0
 19 25  1  0  0  0  0
 20  4  2  0  0  0  0
 21 22  2  0  0  0  0
 22  4  1  0  0  0  0
 23  6  1  0  0  0  0
 24 12  1  0  0  0  0
 24 26  1  0  0  0  0
 25 12  1  0  0  0  0
 26 10  1  0  0  0  0
 27  5  1  0  0  0  0
 28 10  1  0  0  0  0
 28 16  1  0  0  0  0
M  END
>  <MODEL>
5

>  <REMARK>
 VINA RESULT:      -7.5      3.999      7.381
  Name = 
  0 active torsions:
  status: ('A' for Active; 'I' for Inactive)
                            x       y       z     vdW  Elec       q    Type
                         _______ _______ _______ _____ _____    ______ ____

>  <TORSDO>
F 0

$$$$
=
 OpenBabel11112417423D

 28 32  0  0  1  0  0  0  0  0999 V2000
  191.1650  174.6130  142.3850 C   0  0  0  0  0  0  0  0  0  0  0  0
  189.3290  177.4720  142.3950 O   0  0  0  0  0  1  0  0  0  0  0  0
  191.1920  176.1340  148.3880 O   0  0  0  0  0  0  0  0  0  0  0  0
  189.6460  172.2730  142.0580 C   0  0  0  0  0  3  0  0  0  0  0  0
  189.7270  177.3380  146.9870 N   0  0  0  0  0  0  0  0  0  0  0  0
  192.2500  176.0390  142.5240 S   0  0  0  0  0  0  0  0  0  0  0  0
  187.8840  175.8110  141.5150 C   0  0  0  0  0  1  0  0  0  0  0  0
  188.1330  176.7930  142.6440 C   0  0  1  0  0  0  0  0  0  0  0  0
  186.6910  178.4230  143.7040 C   0  0  0  0  0  0  0  0  0  0  0  0
  188.1940  176.0400  144.0010 C   0  0  2  0  0  3  0  0  0  0  0  0
  193.9290  176.5340  145.5790 O   0  0  0  0  0  0  0  0  0  0  0  0
  190.4450  176.3150  144.9440 C   0  0  1  0  0  3  0  0  0  0  0  0
  187.2840  178.1540  144.9410 O   0  0  0  0  0  0  0  0  0  0  0  0
  187.0410  177.7610  142.6450 N   0  0  0  0  0  0  0  0  0  0  0  0
  193.3620  175.5460  145.1420 C   0  0  0  0  0  0  0  0  0  0  0  0
  190.0450  174.3720  143.2300 C   0  0  0  0  0  0  0  0  0  0  0  0
  190.7140  176.3630  147.2440 C   0  0  0  0  0  0  0  0  0  0  0  0
  185.6790  179.4160  143.6120 N   0  0  0  0  0  1  0  0  0  0  0  0
  192.3150  174.8580  145.9580 C   0  0  0  0  0  2  0  0  0  0  0  0
  189.3090  173.1920  143.0530 C   0  0  0  0  0  3  0  0  0  0  0  0
  191.4760  173.6890  141.3790 C   0  0  0  0  0  3  0  0  0  0  0  0
  190.7250  172.5270  141.2160 C   0  0  0  0  0  3  0  0  0  0  0  0
  193.7810  174.9240  143.5160 S   0  0  0  0  0  0  0  0  0  0  0  0
  189.5290  177.4100  145.5430 C   0  0  1  0  0  3  0  0  0  0  0  0
  191.1320  175.7010  146.0720 N   0  0  0  0  0  0  0  0  0  0  0  0
  188.1030  177.0090  145.1830 C   0  0  2  0  0  3  0  0  0  0  0  0
  189.3030  178.3620  147.9260 C   0  0  0  0  0  1  0  0  0  0  0  0
  189.5130  175.3170  144.2840 C   0  0  2  0  0  3  0  0  0  0  0  0
  1  6  1  0  0  0  0
  1 16  1  0  0  0  0
  2  8  1  0  0  0  0
  4 20  1  0  0  0  0
  5 17  1  0  0  0  0
  5 27  1  0  0  0  0
  6 23  1  0  0  0  0
  8  7  1  6  0  0  0
  8 14  1  0  0  0  0
  8 10  1  0  0  0  0
  9 13  1  0  0  0  0
 10 28  1  0  0  0  0
 10 26  1  0  0  0  0
 12 24  1  0  0  0  0
 12 25  1  0  0  0  0
 13 26  1  0  0  0  0
 14  9  2  0  0  0  0
 15 11  2  0  0  0  0
 15 19  1  0  0  0  0
 16 28  1  0  0  0  0
 17  3  2  0  0  0  0
 18  9  1  0  0  0  0
 19 25  1  0  0  0  0
 20 16  2  0  0  0  0
 21  1  2  0  0  0  0
 22 21  1  0  0  0  0
 22  4  2  0  0  0  0
 23 15  1  0  0  0  0
 24  5  1  0  0  0  0
 25 17  1  0  0  0  0
 26 24  1  0  0  0  0
 28 12  1  0  0  0  0
M  END
>  <MODEL>
6

>  <REMARK>
 VINA RESULT:      -7.4      2.241      3.140
  Name = 
  0 active torsions:
  status: ('A' for Active; 'I' for Inactive)
                            x       y       z     vdW  Elec       q    Type
                         _______ _______ _______ _____ _____    ______ ____

>  <TORSDO>
F 0

$$$$
=
 OpenBabel11112417423D

 28 32  0  0  1  0  0  0  0  0999 V2000
  188.9070  175.8530  145.3400 C   0  0  0  0  0  0  0  0  0  0  0  0
  189.2500  173.0960  143.3840 O   0  0  0  0  0  1  0  0  0  0  0  0
  194.7940  176.3250  143.4770 O   0  0  0  0  0  0  0  0  0  0  0  0
  187.4220  177.9230  144.1590 C   0  0  0  0  0  3  0  0  0  0  0  0
  193.4630  174.6970  142.4110 N   0  0  0  0  0  0  0  0  0  0  0  0
  189.8060  174.5760  146.2310 S   0  0  0  0  0  0  0  0  0  0  0  0
  187.5010  174.3490  142.3880 C   0  0  0  0  0  1  0  0  0  0  0  0
  188.8990  173.7850  142.2190 C   0  0  1  0  0  0  0  0  0  0  0  0
  189.9230  172.5390  140.4160 C   0  0  0  0  0  0  0  0  0  0  0  0
  189.9040  174.9330  141.9300 C   0  0  2  0  0  3  0  0  0  0  0  0
  193.2210  175.1270  146.8880 O   0  0  0  0  0  0  0  0  0  0  0  0
  191.5220  175.0350  143.7740 C   0  0  1  0  0  3  0  0  0  0  0  0
  191.1330  173.2040  140.6330 O   0  0  0  0  0  0  0  0  0  0  0  0
  188.8700  172.8380  141.1100 N   0  0  0  0  0  0  0  0  0  0  0  0
  192.3480  175.9080  146.5480 C   0  0  0  0  0  0  0  0  0  0  0  0
  189.2530  176.3190  144.0410 C   0  0  0  0  0  0  0  0  0  0  0  0
  193.6900  175.7300  143.3450 C   0  0  0  0  0  0  0  0  0  0  0  0
  189.8420  171.5410  139.4080 N   0  0  0  0  0  1  0  0  0  0  0  0
  192.5490  176.7910  145.3590 C   0  0  0  0  0  2  0  0  0  0  0  0
  188.5020  177.3610  143.4770 C   0  0  0  0  0  3  0  0  0  0  0  0
  187.8080  176.4160  146.0020 C   0  0  0  0  0  3  0  0  0  0  0  0
  187.0700  177.4440  145.4180 C   0  0  0  0  0  3  0  0  0  0  0  0
  190.8160  175.9910  147.4750 S   0  0  0  0  0  0  0  0  0  0  0  0
  192.1250  174.1640  142.6450 C   0  0  1  0  0  3  0  0  0  0  0  0
  192.5560  175.9960  144.1380 N   0  0  0  0  0  0  0  0  0  0  0  0
  191.2430  174.3890  141.4230 C   0  0  2  0  0  3  0  0  0  0  0  0
  194.4980  174.0150  141.6550 C   0  0  0  0  0  1  0  0  0  0  0  0
  190.3340  175.7450  143.1540 C   0  0  2  0  0  3  0  0  0  0  0  0
  1 21  1  0  0  0  0
  1  6  1  0  0  0  0
  4 22  1  0  0  0  0
  5 24  1  0  0  0  0
  5 17  1  0  0  0  0
  6 23  1  0  0  0  0
  8  7  1  1  0  0  0
  8  2  1  0  0  0  0
  9 13  1  0  0  0  0
  9 14  2  0  0  0  0
 10  8  1  0  0  0  0
 10 28  1  0  0  0  0
 12 25  1  0  0  0  0
 13 26  1  0  0  0  0
 14  8  1  0  0  0  0
 15 11  2  0  0  0  0
 15 23  1  0  0  0  0
 16  1  2  0  0  0  0
 17  3  2  0  0  0  0
 17 25  1  0  0  0  0
 18  9  1  0  0  0  0
 19 15  1  0  0  0  0
 20 16  1  0  0  0  0
 20  4  2  0  0  0  0
 22 21  2  0  0  0  0
 24 12  1  0  0  0  0
 25 19  1  0  0  0  0
 26 10  1  0  0  0  0
 26 24  1  0  0  0  0
 27  5  1  0  0  0  0
 28 12  1  0  0  0  0
 28 16  1  0  0  0  0
M  END
>  <MODEL>
7

>  <REMARK>
 VINA RESULT:      -7.1      3.733      6.023
  Name = 
  0 active torsions:
  status: ('A' for Active; 'I' for Inactive)
                            x       y       z     vdW  Elec       q    Type
                         _______ _______ _______ _____ _____    ______ ____

>  <TORSDO>
F 0

$$$$
=
 OpenBabel11112417423D

 28 32  0  0  1  0  0  0  0  0999 V2000
  191.3760  174.6740  144.9710 C   0  0  0  0  0  0  0  0  0  0  0  0
  188.1670  175.6760  144.4820 O   0  0  0  0  0  1  0  0  0  0  0  0
  190.4720  173.2190  139.0210 O   0  0  0  0  0  0  0  0  0  0  0  0
  193.2280  176.7810  145.1090 C   0  0  0  0  0  3  0  0  0  0  0  0
  188.8190  174.5400  140.0610 N   0  0  0  0  0  0  0  0  0  0  0  0
  190.2810  173.2490  144.9770 S   0  0  0  0  0  0  0  0  0  0  0  0
  189.3310  177.6310  145.1450 C   0  0  0  0  0  1  0  0  0  0  0  0
  188.5490  176.9450  144.0410 C   0  0  1  0  0  0  0  0  0  0  0  0
  186.7200  177.7090  142.6530 C   0  0  0  0  0  0  0  0  0  0  0  0
  189.4160  176.8490  142.7560 C   0  0  2  0  0  3  0  0  0  0  0  0
  190.5010  170.9990  142.2780 O   0  0  0  0  0  0  0  0  0  0  0  0
  189.7940  174.4760  142.2480 C   0  0  1  0  0  3  0  0  0  0  0  0
  187.2400  177.0030  141.5650 O   0  0  0  0  0  0  0  0  0  0  0  0
  187.3460  177.7320  143.7870 N   0  0  0  0  0  0  0  0  0  0  0  0
  191.2730  171.8690  142.6440 C   0  0  0  0  0  0  0  0  0  0  0  0
  191.4100  175.6550  143.9410 C   0  0  0  0  0  0  0  0  0  0  0  0
  190.0270  173.8110  140.0410 C   0  0  0  0  0  0  0  0  0  0  0  0
  185.5040  178.4290  142.5050 N   0  0  0  0  0  1  0  0  0  0  0  0
  191.7540  172.9020  141.6760 C   0  0  0  0  0  2  0  0  0  0  0  0
  192.3520  176.6910  144.0280 C   0  0  0  0  0  3  0  0  0  0  0  0
  192.2510  174.7920  146.0600 C   0  0  0  0  0  3  0  0  0  0  0  0
  193.1720  175.8350  146.1300 C   0  0  0  0  0  3  0  0  0  0  0  0
  191.8260  171.9130  144.3470 S   0  0  0  0  0  0  0  0  0  0  0  0
  188.5670  174.9590  141.4350 C   0  0  1  0  0  3  0  0  0  0  0  0
  190.6600  173.7870  141.3000 N   0  0  0  0  0  0  0  0  0  0  0  0
  188.5690  176.4800  141.5350 C   0  0  2  0  0  3  0  0  0  0  0  0
  187.8140  174.5150  139.0130 C   0  0  0  0  0  1  0  0  0  0  0  0
  190.4660  175.7340  142.7630 C   0  0  2  0  0  3  0  0  0  0  0  0
  1  6  1  0  0  0  0
  1 21  1  0  0  0  0
  3 17  2  0  0  0  0
  4 22  1  0  0  0  0
  5 24  1  0  0  0  0
  8  2  1  0  0  0  0
  8  7  1  1  0  0  0
  9 14  2  0  0  0  0
 10 28  1  0  0  0  0
 10  8  1  0  0  0  0
 11 15  2  0  0  0  0
 12 28  1  0  0  0  0
 13  9  1  0  0  0  0
 14  8  1  0  0  0  0
 15 23  1  0  0  0  0
 16 20  1  0  0  0  0
 16  1  2  0  0  0  0
 17  5  1  0  0  0  0
 17 25  1  0  0  0  0
 18  9  1  0  0  0  0
 19 15  1  0  0  0  0
 20  4  2  0  0  0  0
 21 22  2  0  0  0  0
 23  6  1  0  0  0  0
 24 26  1  0  0  0  0
 24 12  1  0  0  0  0
 25 19  1  0  0  0  0
 25 12  1  0  0  0  0
 26 13  1  0  0  0  0
 26 10  1  0  0  0  0
 27  5  1  0  0  0  0
 28 16  1  0  0  0  0
M  END
>  <MODEL>
8

>  <REMARK>
 VINA RESULT:      -6.9      3.202      5.355
  Name = 
  0 active torsions:
  status: ('A' for Active; 'I' for Inactive)
                            x       y       z     vdW  Elec       q    Type
                         _______ _______ _______ _____ _____    ______ ____

>  <TORSDO>
F 0

$$$$
=
 OpenBabel11112417423D

 28 32  0  0  1  0  0  0  0  0999 V2000
  192.5320  173.8870  142.8720 C   0  0  0  0  0  0  0  0  0  0  0  0
  191.9760  174.5660  146.1540 O   0  0  0  0  0  1  0  0  0  0  0  0
  186.7700  176.1530  142.7550 O   0  0  0  0  0  0  0  0  0  0  0  0
  194.2410  175.7140  141.5950 C   0  0  0  0  0  3  0  0  0  0  0  0
  187.9650  176.3740  144.7760 N   0  0  0  0  0  0  0  0  0  0  0  0
  191.4900  172.6130  143.5940 S   0  0  0  0  0  0  0  0  0  0  0  0
  193.8630  175.8720  145.5630 C   0  0  0  0  0  1  0  0  0  0  0  0
  192.4220  175.8850  146.0360 C   0  0  1  0  0  0  0  0  0  0  0  0
  191.3300  177.0840  147.8320 C   0  0  0  0  0  0  0  0  0  0  0  0
  191.5410  176.6810  145.0360 C   0  0  2  0  0  3  0  0  0  0  0  0
  188.1290  172.4580  142.5580 O   0  0  0  0  0  0  0  0  0  0  0  0
  189.8920  175.1470  144.0570 C   0  0  1  0  0  3  0  0  0  0  0  0
  190.1850  177.2350  147.0450 O   0  0  0  0  0  0  0  0  0  0  0  0
  192.3880  176.5070  147.3560 N   0  0  0  0  0  0  0  0  0  0  0  0
  189.0830  173.0300  142.0570 C   0  0  0  0  0  0  0  0  0  0  0  0
  192.2680  175.2830  142.9580 C   0  0  0  0  0  0  0  0  0  0  0  0
  187.8140  175.9600  143.4350 C   0  0  0  0  0  0  0  0  0  0  0  0
  191.3400  177.5890  149.1600 N   0  0  0  0  0  1  0  0  0  0  0  0
  188.9990  174.4860  141.7300 C   0  0  0  0  0  2  0  0  0  0  0  0
  193.1310  176.1740  142.3030 C   0  0  0  0  0  3  0  0  0  0  0  0
  193.6630  173.4450  142.1730 C   0  0  0  0  0  3  0  0  0  0  0  0
  194.5120  174.3490  141.5370 C   0  0  0  0  0  3  0  0  0  0  0  0
  190.5900  172.1220  141.7180 S   0  0  0  0  0  0  0  0  0  0  0  0
  189.2380  175.8580  145.2670 C   0  0  1  0  0  3  0  0  0  0  0  0
  188.9470  175.2730  142.9550 N   0  0  0  0  0  0  0  0  0  0  0  0
  190.1690  177.0070  145.6350 C   0  0  2  0  0  3  0  0  0  0  0  0
  186.8880  176.8500  145.6270 C   0  0  0  0  0  1  0  0  0  0  0  0
  191.1600  175.9260  143.7610 C   0  0  2  0  0  3  0  0  0  0  0  0
  1 16  1  0  0  0  0
  1  6  1  0  0  0  0
  3 17  2  0  0  0  0
  4 20  1  0  0  0  0
  5 24  1  0  0  0  0
  5 27  1  0  0  0  0
  8  7  1  6  0  0  0
  8  2  1  0  0  0  0
  8 14  1  0  0  0  0
  9 18  1  0  0  0  0
 10 26  1  0  0  0  0
 10  8  1  0  0  0  0
 12 24  1  0  0  0  0
 13  9  1  0  0  0  0
 14  9  2  0  0  0  0
 15 11  2  0  0  0  0
 16 28  1  0  0  0  0
 17  5  1  0  0  0  0
 19 15  1  0  0  0  0
 19 25  1  0  0  0  0
 20 16  2  0  0  0  0
 21  1  2  0  0  0  0
 22  4  2  0  0  0  0
 22 21  1  0  0  0  0
 23 15  1  0  0  0  0
 23  6  1  0  0  0  0
 24 26  1  0  0  0  0
 25 17  1  0  0  0  0
 25 12  1  0  0  0  0
 26 13  1  0  0  0  0
 28 12  1  0  0  0  0
 28 10  1  0  0  0  0
M  END
>  <MODEL>
9

>  <REMARK>
 VINA RESULT:      -6.9      3.011      5.823
  Name = 
  0 active torsions:
  status: ('A' for Active; 'I' for Inactive)
                            x       y       z     vdW  Elec       q    Type
                         _______ _______ _______ _____ _____    ______ ____

>  <TORSDO>
F 0

$$$$
