=
 OpenBabel11112416533D

 31 35  0  0  1  0  0  0  0  0999 V2000
  185.5400  177.8570  147.1230 C   0  0  0  0  0  0  0  0  0  0  0  0
  187.8500  175.6170  145.1210 C   0  0  2  0  0  3  0  0  0  0  0  0
  187.6400  176.2180  143.7350 C   0  0  0  0  0  0  0  0  0  0  0  0
  186.3310  177.5230  142.1540 C   0  0  0  0  0  0  0  0  0  0  0  0
  187.4110  176.5030  146.2940 C   0  0  2  0  0  3  0  0  0  0  0  0
  186.5290  178.6950  147.8370 C   0  0  0  0  0  3  0  0  0  0  0  0
  186.5230  177.0140  143.4410 C   0  0  0  0  0  3  0  0  0  0  0  0
  190.1710  176.4710  145.4650 N   0  0  0  0  0  0  0  0  0  0  0  0
  184.0890  178.1540  147.2490 C   0  0  0  0  0  1  0  0  0  0  0  0
  189.6440  175.0750  142.9470 O   0  0  0  0  0  0  0  0  0  0  0  0
  185.1520  178.3780  141.8620 C   0  0  0  0  0  1  0  0  0  0  0  0
  189.7290  177.2810  146.6070 C   0  0  0  0  0  2  0  0  0  0  0  0
  189.3380  175.2540  145.3510 C   0  0  2  0  0  3  0  0  0  0  0  0
  185.9450  176.8370  146.3580 C   0  0  0  0  0  3  0  0  0  0  0  0
  187.2460  177.2270  141.1420 C   0  0  0  0  0  3  0  0  0  0  0  0
  188.2950  177.7450  146.4040 C   0  0  2  0  0  3  0  0  0  0  0  0
  187.8320  178.6180  147.5370 C   0  0  0  0  0  3  0  0  0  0  0  0
  189.7950  174.3750  144.1800 C   0  0  0  0  0  2  0  0  0  0  0  0
  188.5410  175.8960  142.6970 C   0  0  0  0  0  0  0  0  0  0  0  0
  188.3490  176.4140  141.4130 C   0  0  0  0  0  3  0  0  0  0  0  0
  191.5430  176.0800  145.7660 C   0  0  0  0  0  2  0  0  0  0  0  0
  191.9800  177.3020  143.7800 O   0  0  0  0  0  0  0  0  0  0  0  0
  192.4480  176.5430  144.6700 C   0  0  0  0  0  0  0  0  0  0  0  0
  196.4830  175.2080  144.3000 N   0  0  0  0  0  0  0  0  0  0  0  0
  194.4610  176.0940  143.2600 C   0  0  0  0  0  2  0  0  0  0  0  0
  194.1960  175.9690  146.8850 O   0  0  0  0  0  0  0  0  0  0  0  0
  197.5540  174.2480  144.1090 C   0  0  0  0  0  1  0  0  0  0  0  0
  195.5600  175.0360  143.1810 C   0  0  0  0  0  2  0  0  0  0  0  0
  194.5630  175.6590  145.7210 C   0  0  0  0  0  0  0  0  0  0  0  0
  193.7990  176.0600  144.5660 N   0  0  0  0  0  0  0  0  0  0  0  0
  195.7960  174.8300  145.5320 C   0  0  0  0  0  2  0  0  0  0  0  0
  1  9  1  0  0  0  0
  1  6  1  0  0  0  0
  2  3  1  6  0  0  0
  2 13  1  0  0  0  0
  2  5  1  0  0  0  0
  4  7  2  0  0  0  0
  5 14  1  6  0  0  0
  5 16  1  0  0  0  0
  7  3  1  0  0  0  0
  8 21  1  0  0  0  0
  8 12  1  0  0  0  0
 10 18  1  0  0  0  0
 11  4  1  0  0  0  0
 13 18  1  6  0  0  0
 13  8  1  0  0  0  0
 14  1  2  0  0  0  0
 15 20  2  0  0  0  0
 15  4  1  0  0  0  0
 16 12  1  1  0  0  0
 16 17  1  0  0  0  0
 17  6  2  0  0  0  0
 19 10  1  0  0  0  0
 19  3  2  0  0  0  0
 20 19  1  0  0  0  0
 22 23  2  0  0  0  0
 23 21  1  0  0  0  0
 24 31  1  0  0  0  0
 25 30  1  0  0  0  0
 27 24  1  0  0  0  0
 28 25  1  0  0  0  0
 28 24  1  0  0  0  0
 29 26  2  0  0  0  0
 30 23  1  0  0  0  0
 30 29  1  0  0  0  0
 31 29  1  0  0  0  0
M  END
>  <MODEL>
1

>  <REMARK>
 VINA RESULT:      -8.1      0.000      0.000
  Name = 
  2 active torsions:
  status: ('A' for Active; 'I' for Inactive)
    1  A    between atoms: C_5  and  C_16
    2  A    between atoms: N_10  and  C_16
                            x       y       z     vdW  Elec       q    Type
                         _______ _______ _______ _____ _____    ______ ____

>  <TORSDO>
F 2

$$$$
=
 OpenBabel11112416533D

 31 35  0  0  1  0  0  0  0  0999 V2000
  185.9490  178.8750  143.2950 C   0  0  0  0  0  0  0  0  0  0  0  0
  189.2990  177.1480  143.6880 C   0  0  2  0  0  3  0  0  0  0  0  0
  189.0370  176.3890  144.9850 C   0  0  0  0  0  0  0  0  0  0  0  0
  187.7980  176.0680  147.0540 C   0  0  0  0  0  0  0  0  0  0  0  0
  188.0470  177.6490  142.9560 C   0  0  2  0  0  3  0  0  0  0  0  0
  185.3680  178.0890  142.1830 C   0  0  0  0  0  3  0  0  0  0  0  0
  187.9970  176.7530  145.8530 C   0  0  0  0  0  3  0  0  0  0  0  0
  189.2760  175.1620  142.1740 N   0  0  0  0  0  0  0  0  0  0  0  0
  185.1290  179.9130  143.9740 C   0  0  0  0  0  1  0  0  0  0  0  0
  190.9820  174.9870  144.5460 O   0  0  0  0  0  0  0  0  0  0  0  0
  186.6820  176.4560  147.9540 C   0  0  0  0  0  1  0  0  0  0  0  0
  188.0990  175.6840  141.4690 C   0  0  0  0  0  2  0  0  0  0  0  0
  190.1000  176.2790  142.6860 C   0  0  2  0  0  3  0  0  0  0  0  0
  187.2050  178.6520  143.6970 C   0  0  0  0  0  3  0  0  0  0  0  0
  188.6500  175.0210  147.4090 C   0  0  0  0  0  3  0  0  0  0  0  0
  187.2200  176.4800  142.4210 C   0  0  2  0  0  3  0  0  0  0  0  0
  185.9810  176.9860  141.7350 C   0  0  0  0  0  3  0  0  0  0  0  0
  191.3510  175.7630  143.4070 C   0  0  0  0  0  2  0  0  0  0  0  0
  189.9130  175.3510  145.3690 C   0  0  0  0  0  0  0  0  0  0  0  0
  189.7060  174.6640  146.5680 C   0  0  0  0  0  3  0  0  0  0  0  0
  190.0420  174.4280  141.1740 C   0  0  0  0  0  2  0  0  0  0  0  0
  190.0640  172.6040  142.6910 O   0  0  0  0  0  0  0  0  0  0  0  0
  190.0020  172.9660  141.4860 C   0  0  0  0  0  0  0  0  0  0  0  0
  189.9300  169.9670  138.4530 N   0  0  0  0  0  0  0  0  0  0  0  0
  190.4790  170.6320  140.7350 C   0  0  0  0  0  2  0  0  0  0  0  0
  188.6510  173.2240  138.9560 O   0  0  0  0  0  0  0  0  0  0  0  0
  190.4270  169.2100  137.3200 C   0  0  0  0  0  1  0  0  0  0  0  0
  190.9800  169.9430  139.4680 C   0  0  0  0  0  2  0  0  0  0  0  0
  189.4160  172.2410  139.1440 C   0  0  0  0  0  0  0  0  0  0  0  0
  189.9950  171.9810  140.4380 N   0  0  0  0  0  0  0  0  0  0  0  0
  189.7600  171.3440  137.9940 C   0  0  0  0  0  2  0  0  0  0  0  0
  1 14  2  0  0  0  0
  1  9  1  0  0  0  0
  2  3  1  1  0  0  0
  3 19  2  0  0  0  0
  3  7  1  0  0  0  0
  4 15  1  0  0  0  0
  4 11  1  0  0  0  0
  5  2  1  0  0  0  0
  5 14  1  1  0  0  0
  6  1  1  0  0  0  0
  7  4  2  0  0  0  0
  8 13  1  0  0  0  0
 10 19  1  0  0  0  0
 12  8  1  0  0  0  0
 13 18  1  1  0  0  0
 13  2  1  0  0  0  0
 16 12  1  6  0  0  0
 16  5  1  0  0  0  0
 17  6  2  0  0  0  0
 17 16  1  0  0  0  0
 18 10  1  0  0  0  0
 19 20  1  0  0  0  0
 20 15  2  0  0  0  0
 21 23  1  0  0  0  0
 21  8  1  0  0  0  0
 23 22  2  0  0  0  0
 24 28  1  0  0  0  0
 26 29  2  0  0  0  0
 27 24  1  0  0  0  0
 28 25  1  0  0  0  0
 29 30  1  0  0  0  0
 30 25  1  0  0  0  0
 30 23  1  0  0  0  0
 31 24  1  0  0  0  0
 31 29  1  0  0  0  0
M  END
>  <MODEL>
2

>  <REMARK>
 VINA RESULT:      -7.9      3.778      6.077
  Name = 
  2 active torsions:
  status: ('A' for Active; 'I' for Inactive)
    1  A    between atoms: C_5  and  C_16
    2  A    between atoms: N_10  and  C_16
                            x       y       z     vdW  Elec       q    Type
                         _______ _______ _______ _____ _____    ______ ____

>  <TORSDO>
F 2

$$$$
=
 OpenBabel11112416533D

 31 35  0  0  1  0  0  0  0  0999 V2000
  194.0960  170.7870  144.7110 C   0  0  0  0  0  0  0  0  0  0  0  0
  194.5020  174.3810  145.8450 C   0  0  2  0  0  3  0  0  0  0  0  0
  195.3350  174.9150  144.6840 C   0  0  0  0  0  0  0  0  0  0  0  0
  196.8250  174.5690  142.7930 C   0  0  0  0  0  0  0  0  0  0  0  0
  193.7680  173.0610  145.5730 C   0  0  2  0  0  3  0  0  0  0  0  0
  192.6760  170.7950  144.2930 C   0  0  0  0  0  3  0  0  0  0  0  0
  196.0380  174.0560  143.8270 C   0  0  0  0  0  3  0  0  0  0  0  0
  192.3850  175.5710  145.2630 N   0  0  0  0  0  0  0  0  0  0  0  0
  194.9280  169.5760  144.4850 C   0  0  0  0  0  1  0  0  0  0  0  0
  194.8180  177.1950  145.3770 O   0  0  0  0  0  0  0  0  0  0  0  0
  197.5510  173.6450  141.8840 C   0  0  0  0  0  1  0  0  0  0  0  0
  191.6980  174.2920  145.0460 C   0  0  0  0  0  2  0  0  0  0  0  0
  193.4380  175.4150  146.2910 C   0  0  2  0  0  3  0  0  0  0  0  0
  194.6370  171.8670  145.2860 C   0  0  0  0  0  3  0  0  0  0  0  0
  196.9310  175.9500  142.6160 C   0  0  0  0  0  3  0  0  0  0  0  0
  192.6740  173.2490  144.5230 C   0  0  2  0  0  3  0  0  0  0  0  0
  191.9860  171.9410  144.2440 C   0  0  0  0  0  3  0  0  0  0  0  0
  194.1570  176.7430  146.5570 C   0  0  0  0  0  2  0  0  0  0  0  0
  195.4750  176.3100  144.5180 C   0  0  0  0  0  0  0  0  0  0  0  0
  196.2580  176.8180  143.4780 C   0  0  0  0  0  3  0  0  0  0  0  0
  191.3660  176.4860  145.7650 C   0  0  0  0  0  2  0  0  0  0  0  0
  190.7670  176.9710  143.5210 O   0  0  0  0  0  0  0  0  0  0  0  0
  190.3580  176.7500  144.6930 C   0  0  0  0  0  0  0  0  0  0  0  0
  186.1750  177.0170  145.4810 N   0  0  0  0  0  0  0  0  0  0  0  0
  188.0900  177.6030  144.0880 C   0  0  0  0  0  2  0  0  0  0  0  0
  188.9580  175.1840  146.6610 O   0  0  0  0  0  0  0  0  0  0  0  0
  184.9640  177.5600  146.0680 C   0  0  0  0  0  1  0  0  0  0  0  0
  186.8580  178.1270  144.8220 C   0  0  0  0  0  2  0  0  0  0  0  0
  188.3560  176.1340  146.0940 C   0  0  0  0  0  0  0  0  0  0  0  0
  188.9560  176.8490  144.9960 N   0  0  0  0  0  0  0  0  0  0  0  0
  187.0060  176.5520  146.5900 C   0  0  0  0  0  2  0  0  0  0  0  0
  1 14  2  0  0  0  0
  2  3  1  6  0  0  0
  2 13  1  0  0  0  0
  4  7  1  0  0  0  0
  5 14  1  6  0  0  0
  5  2  1  0  0  0  0
  6  1  1  0  0  0  0
  7  3  2  0  0  0  0
  8 21  1  0  0  0  0
  8 13  1  0  0  0  0
  9  1  1  0  0  0  0
 10 18  1  0  0  0  0
 11  4  1  0  0  0  0
 12  8  1  0  0  0  0
 13 18  1  6  0  0  0
 15  4  2  0  0  0  0
 15 20  1  0  0  0  0
 16 17  1  1  0  0  0
 16 12  1  0  0  0  0
 16  5  1  0  0  0  0
 17  6  2  0  0  0  0
 19  3  1  0  0  0  0
 19 10  1  0  0  0  0
 20 19  2  0  0  0  0
 22 23  2  0  0  0  0
 23 30  1  0  0  0  0
 23 21  1  0  0  0  0
 24 27  1  0  0  0  0
 24 31  1  0  0  0  0
 25 28  1  0  0  0  0
 25 30  1  0  0  0  0
 28 24  1  0  0  0  0
 29 31  1  0  0  0  0
 29 26  2  0  0  0  0
 30 29  1  0  0  0  0
M  END
>  <MODEL>
3

>  <REMARK>
 VINA RESULT:      -7.8      2.466      8.289
  Name = 
  2 active torsions:
  status: ('A' for Active; 'I' for Inactive)
    1  A    between atoms: C_5  and  C_16
    2  A    between atoms: N_10  and  C_16
                            x       y       z     vdW  Elec       q    Type
                         _______ _______ _______ _____ _____    ______ ____

>  <TORSDO>
F 2

$$$$
=
 OpenBabel11112416533D

 31 35  0  0  1  0  0  0  0  0999 V2000
  186.7290  177.5780  141.1070 C   0  0  0  0  0  0  0  0  0  0  0  0
  189.5810  177.5800  143.6020 C   0  0  2  0  0  3  0  0  0  0  0  0
  188.8220  177.1350  144.8480 C   0  0  0  0  0  0  0  0  0  0  0  0
  186.7540  176.8540  146.0970 C   0  0  0  0  0  0  0  0  0  0  0  0
  188.8730  177.3070  142.2690 C   0  0  2  0  0  3  0  0  0  0  0  0
  187.0600  176.3700  140.3190 C   0  0  0  0  0  3  0  0  0  0  0  0
  187.4250  177.2320  144.9320 C   0  0  0  0  0  3  0  0  0  0  0  0
  190.8530  175.4590  143.2560 N   0  0  0  0  0  0  0  0  0  0  0  0
  185.4610  178.3090  140.8440 C   0  0  0  0  0  1  0  0  0  0  0  0
  190.9390  176.6200  145.9420 O   0  0  0  0  0  0  0  0  0  0  0  0
  185.2730  176.9480  146.1640 C   0  0  0  0  0  1  0  0  0  0  0  0
  190.1850  175.2420  141.9670 C   0  0  0  0  0  2  0  0  0  0  0  0
  190.9750  176.9090  143.5290 C   0  0  2  0  0  3  0  0  0  0  0  0
  187.5610  178.0130  142.0600 C   0  0  0  0  0  3  0  0  0  0  0  0
  187.4740  176.3880  147.1980 C   0  0  0  0  0  3  0  0  0  0  0  0
  188.7730  175.8060  141.9990 C   0  0  2  0  0  3  0  0  0  0  0  0
  188.0480  175.5530  140.7060 C   0  0  0  0  0  3  0  0  0  0  0  0
  191.6920  177.1660  144.8590 C   0  0  0  0  0  2  0  0  0  0  0  0
  189.5440  176.6950  145.9780 C   0  0  0  0  0  0  0  0  0  0  0  0
  188.8670  176.3100  147.1390 C   0  0  0  0  0  3  0  0  0  0  0  0
  192.1880  174.8900  143.1100 C   0  0  0  0  0  2  0  0  0  0  0  0
  191.3850  173.4410  144.8080 O   0  0  0  0  0  0  0  0  0  0  0  0
  192.3460  173.7380  144.0480 C   0  0  0  0  0  0  0  0  0  0  0  0
  195.9960  171.5630  144.4270 N   0  0  0  0  0  0  0  0  0  0  0  0
  193.8870  172.3080  145.3990 C   0  0  0  0  0  2  0  0  0  0  0  0
  194.1590  173.1870  141.8800 O   0  0  0  0  0  0  0  0  0  0  0  0
  197.4020  171.3660  144.7290 C   0  0  0  0  0  1  0  0  0  0  0  0
  195.3930  172.1720  145.6090 C   0  0  0  0  0  2  0  0  0  0  0  0
  194.5180  172.9250  143.0590 C   0  0  0  0  0  0  0  0  0  0  0  0
  193.5960  173.0360  144.1620 N   0  0  0  0  0  0  0  0  0  0  0  0
  195.9360  172.5230  143.3270 C   0  0  0  0  0  2  0  0  0  0  0  0
  1 14  2  0  0  0  0
  2  3  1  1  0  0  0
  3  7  2  0  0  0  0
  3 19  1  0  0  0  0
  4 11  1  0  0  0  0
  4 15  2  0  0  0  0
  5 14  1  1  0  0  0
  5  2  1  0  0  0  0
  6 17  2  0  0  0  0
  6  1  1  0  0  0  0
  7  4  1  0  0  0  0
  8 13  1  0  0  0  0
  9  1  1  0  0  0  0
 10 19  1  0  0  0  0
 12 16  1  0  0  0  0
 12  8  1  0  0  0  0
 13  2  1  0  0  0  0
 13 18  1  1  0  0  0
 16 17  1  6  0  0  0
 16  5  1  0  0  0  0
 18 10  1  0  0  0  0
 19 20  2  0  0  0  0
 20 15  1  0  0  0  0
 21  8  1  0  0  0  0
 21 23  1  0  0  0  0
 23 30  1  0  0  0  0
 23 22  2  0  0  0  0
 24 27  1  0  0  0  0
 24 28  1  0  0  0  0
 25 28  1  0  0  0  0
 26 29  2  0  0  0  0
 29 31  1  0  0  0  0
 29 30  1  0  0  0  0
 30 25  1  0  0  0  0
 31 24  1  0  0  0  0
M  END
>  <MODEL>
4

>  <REMARK>
 VINA RESULT:      -7.7      2.207      4.476
  Name = 
  2 active torsions:
  status: ('A' for Active; 'I' for Inactive)
    1  A    between atoms: C_5  and  C_16
    2  A    between atoms: N_10  and  C_16
                            x       y       z     vdW  Elec       q    Type
                         _______ _______ _______ _____ _____    ______ ____

>  <TORSDO>
F 2

$$$$
=
 OpenBabel11112416533D

 31 35  0  0  1  0  0  0  0  0999 V2000
  185.7910  179.0210  143.4800 C   0  0  0  0  0  0  0  0  0  0  0  0
  189.0770  177.1350  143.5470 C   0  0  2  0  0  3  0  0  0  0  0  0
  188.8910  176.3570  144.8450 C   0  0  0  0  0  0  0  0  0  0  0  0
  187.8200  176.0400  147.0060 C   0  0  0  0  0  0  0  0  0  0  0  0
  187.7930  177.7100  142.9360 C   0  0  2  0  0  3  0  0  0  0  0  0
  185.0820  178.2910  142.4060 C   0  0  0  0  0  3  0  0  0  0  0  0
  187.9470  176.7460  145.8060 C   0  0  0  0  0  3  0  0  0  0  0  0
  188.8320  175.1900  141.9990 N   0  0  0  0  0  0  0  0  0  0  0  0
  185.0830  180.0780  144.2490 C   0  0  0  0  0  1  0  0  0  0  0  0
  190.7240  174.8790  144.2100 O   0  0  0  0  0  0  0  0  0  0  0  0
  186.8040  176.4560  148.0070 C   0  0  0  0  0  1  0  0  0  0  0  0
  187.6250  175.7830  141.4090 C   0  0  0  0  0  2  0  0  0  0  0  0
  189.7480  176.2560  142.4610 C   0  0  2  0  0  3  0  0  0  0  0  0
  187.0650  178.7320  143.7670 C   0  0  0  0  0  3  0  0  0  0  0  0
  188.6480  174.9470  147.2640 C   0  0  0  0  0  3  0  0  0  0  0  0
  186.8690  176.5940  142.4500 C   0  0  2  0  0  3  0  0  0  0  0  0
  185.6020  177.1720  141.8840 C   0  0  0  0  0  3  0  0  0  0  0  0
  191.0300  175.6660  143.0610 C   0  0  0  0  0  2  0  0  0  0  0  0
  189.7470  175.2710  145.1300 C   0  0  0  0  0  0  0  0  0  0  0  0
  189.6110  174.5640  146.3280 C   0  0  0  0  0  3  0  0  0  0  0  0
  189.4750  174.4480  140.9210 C   0  0  0  0  0  2  0  0  0  0  0  0
  188.3600  172.3880  141.3010 O   0  0  0  0  0  0  0  0  0  0  0  0
  189.4670  172.9880  141.2440 C   0  0  0  0  0  0  0  0  0  0  0  0
  193.0140  170.8260  142.2140 N   0  0  0  0  0  0  0  0  0  0  0  0
  190.5920  171.0690  142.3800 C   0  0  0  0  0  2  0  0  0  0  0  0
  192.0550  173.4790  140.0830 O   0  0  0  0  0  0  0  0  0  0  0  0
  194.1960  170.4870  142.9840 C   0  0  0  0  0  1  0  0  0  0  0  0
  191.8900  170.8260  143.1470 C   0  0  0  0  0  2  0  0  0  0  0  0
  191.9640  172.6930  141.0630 C   0  0  0  0  0  0  0  0  0  0  0  0
  190.6800  172.2940  141.5820 N   0  0  0  0  0  0  0  0  0  0  0  0
  193.2100  172.1890  141.7240 C   0  0  0  0  0  2  0  0  0  0  0  0
  1 14  2  0  0  0  0
  1  9  1  0  0  0  0
  2  3  1  1  0  0  0
  3 19  2  0  0  0  0
  3  7  1  0  0  0  0
  4 15  1  0  0  0  0
  4 11  1  0  0  0  0
  5  2  1  0  0  0  0
  5 14  1  1  0  0  0
  6  1  1  0  0  0  0
  7  4  2  0  0  0  0
  8 13  1  0  0  0  0
 10 19  1  0  0  0  0
 12  8  1  0  0  0  0
 13 18  1  1  0  0  0
 13  2  1  0  0  0  0
 16 12  1  6  0  0  0
 16  5  1  0  0  0  0
 17  6  2  0  0  0  0
 17 16  1  0  0  0  0
 18 10  1  0  0  0  0
 19 20  1  0  0  0  0
 20 15  2  0  0  0  0
 21 23  1  0  0  0  0
 21  8  1  0  0  0  0
 23 22  2  0  0  0  0
 23 30  1  0  0  0  0
 24 27  1  0  0  0  0
 24 28  1  0  0  0  0
 25 28  1  0  0  0  0
 26 29  2  0  0  0  0
 29 30  1  0  0  0  0
 29 31  1  0  0  0  0
 30 25  1  0  0  0  0
 31 24  1  0  0  0  0
M  END
>  <MODEL>
5

>  <REMARK>
 VINA RESULT:      -7.5      2.976      5.003
  Name = 
  2 active torsions:
  status: ('A' for Active; 'I' for Inactive)
    1  A    between atoms: C_5  and  C_16
    2  A    between atoms: N_10  and  C_16
                            x       y       z     vdW  Elec       q    Type
                         _______ _______ _______ _____ _____    ______ ____

>  <TORSDO>
F 2

$$$$
=
 OpenBabel11112416533D

 31 35  0  0  1  0  0  0  0  0999 V2000
  187.6440  176.6180  146.6610 C   0  0  0  0  0  0  0  0  0  0  0  0
  190.5750  174.4170  145.6990 C   0  0  2  0  0  3  0  0  0  0  0  0
  190.4820  174.5280  144.1800 C   0  0  0  0  0  0  0  0  0  0  0  0
  189.2320  175.0140  142.1510 C   0  0  0  0  0  0  0  0  0  0  0  0
  189.8200  175.4970  146.4840 C   0  0  2  0  0  3  0  0  0  0  0  0
  188.3580  177.8140  147.1620 C   0  0  0  0  0  3  0  0  0  0  0  0
  189.3070  174.9550  143.5450 C   0  0  0  0  0  3  0  0  0  0  0  0
  192.6400  175.7940  145.9710 N   0  0  0  0  0  0  0  0  0  0  0  0
  186.1620  176.6330  146.5490 C   0  0  0  0  0  1  0  0  0  0  0  0
  192.7470  173.6440  143.9870 O   0  0  0  0  0  0  0  0  0  0  0  0
  187.9850  175.4830  141.4940 C   0  0  0  0  0  1  0  0  0  0  0  0
  191.8990  176.7930  146.7500 C   0  0  0  0  0  2  0  0  0  0  0  0
  192.0500  174.4520  146.1710 C   0  0  2  0  0  3  0  0  0  0  0  0
  188.3270  175.5250  146.3010 C   0  0  0  0  0  3  0  0  0  0  0  0
  190.3280  174.6300  141.3760 C   0  0  0  0  0  3  0  0  0  0  0  0
  190.4560  176.8710  146.2770 C   0  0  2  0  0  3  0  0  0  0  0  0
  189.6850  177.9230  147.0260 C   0  0  0  0  0  3  0  0  0  0  0  0
  192.8210  173.3830  145.3880 C   0  0  0  0  0  2  0  0  0  0  0  0
  191.5730  174.1100  143.3880 C   0  0  0  0  0  0  0  0  0  0  0  0
  191.4960  174.1780  141.9940 C   0  0  0  0  0  3  0  0  0  0  0  0
  193.9960  175.8000  146.5090 C   0  0  0  0  0  2  0  0  0  0  0  0
  194.8270  177.8030  145.5450 O   0  0  0  0  0  0  0  0  0  0  0  0
  194.9000  176.5450  145.5790 C   0  0  0  0  0  0  0  0  0  0  0  0
  197.5450  174.5770  142.8720 N   0  0  0  0  0  0  0  0  0  0  0  0
  196.2190  176.5390  143.4580 C   0  0  0  0  0  2  0  0  0  0  0  0
  196.2720  174.0750  146.1320 O   0  0  0  0  0  0  0  0  0  0  0  0
  197.9150  173.7230  141.7590 C   0  0  0  0  0  1  0  0  0  0  0  0
  196.5710  175.5380  142.3610 C   0  0  0  0  0  2  0  0  0  0  0  0
  196.3050  174.5440  144.9640 C   0  0  0  0  0  0  0  0  0  0  0  0
  195.7680  175.8490  144.6680 N   0  0  0  0  0  0  0  0  0  0  0  0
  196.8810  173.7210  143.8540 C   0  0  0  0  0  2  0  0  0  0  0  0
  1  6  1  0  0  0  0
  2  3  1  6  0  0  0
  2 13  1  0  0  0  0
  2  5  1  0  0  0  0
  4  7  2  0  0  0  0
  5 14  1  6  0  0  0
  7  3  1  0  0  0  0
  8 13  1  0  0  0  0
  8 21  1  0  0  0  0
  8 12  1  0  0  0  0
  9  1  1  0  0  0  0
 10 18  1  0  0  0  0
 11  4  1  0  0  0  0
 13 18  1  6  0  0  0
 14  1  2  0  0  0  0
 15 20  2  0  0  0  0
 15  4  1  0  0  0  0
 16  5  1  0  0  0  0
 16 12  1  1  0  0  0
 16 17  1  0  0  0  0
 17  6  2  0  0  0  0
 19 10  1  0  0  0  0
 19  3  2  0  0  0  0
 20 19  1  0  0  0  0
 22 23  2  0  0  0  0
 23 21  1  0  0  0  0
 24 31  1  0  0  0  0
 25 30  1  0  0  0  0
 27 24  1  0  0  0  0
 28 24  1  0  0  0  0
 28 25  1  0  0  0  0
 29 26  2  0  0  0  0
 30 29  1  0  0  0  0
 30 23  1  0  0  0  0
 31 29  1  0  0  0  0
M  END
>  <MODEL>
6

>  <REMARK>
 VINA RESULT:      -7.5      1.951      2.878
  Name = 
  2 active torsions:
  status: ('A' for Active; 'I' for Inactive)
    1  A    between atoms: C_5  and  C_16
    2  A    between atoms: N_10  and  C_16
                            x       y       z     vdW  Elec       q    Type
                         _______ _______ _______ _____ _____    ______ ____

>  <TORSDO>
F 2

$$$$
=
 OpenBabel11112416533D

 31 35  0  0  1  0  0  0  0  0999 V2000
  186.9670  177.8350  142.0170 C   0  0  0  0  0  0  0  0  0  0  0  0
  190.2700  176.9860  143.6700 C   0  0  2  0  0  3  0  0  0  0  0  0
  189.7500  176.4050  144.9800 C   0  0  0  0  0  0  0  0  0  0  0  0
  188.0040  176.1490  146.6550 C   0  0  0  0  0  0  0  0  0  0  0  0
  189.2400  177.0710  142.5350 C   0  0  2  0  0  3  0  0  0  0  0  0
  186.8970  176.7720  140.9890 C   0  0  0  0  0  3  0  0  0  0  0  0
  188.4470  176.6610  145.4330 C   0  0  0  0  0  3  0  0  0  0  0  0
  191.0470  174.8300  142.6780 N   0  0  0  0  0  0  0  0  0  0  0  0
  185.8170  178.7580  142.2050 C   0  0  0  0  0  1  0  0  0  0  0  0
  191.9410  175.4220  145.4020 O   0  0  0  0  0  0  0  0  0  0  0  0
  186.6160  176.4160  147.1120 C   0  0  0  0  0  1  0  0  0  0  0  0
  190.0760  174.9560  141.5840 C   0  0  0  0  0  2  0  0  0  0  0  0
  191.4740  176.1700  143.1370 C   0  0  2  0  0  3  0  0  0  0  0  0
  188.0560  177.9650  142.7820 C   0  0  0  0  0  3  0  0  0  0  0  0
  188.8660  175.3890  147.4470 C   0  0  0  0  0  3  0  0  0  0  0  0
  188.8260  175.6770  142.0650 C   0  0  2  0  0  3  0  0  0  0  0  0
  187.7940  175.7770  140.9760 C   0  0  0  0  0  3  0  0  0  0  0  0
  192.5080  176.0680  144.2640 C   0  0  0  0  0  2  0  0  0  0  0  0
  190.6250  175.6640  145.8040 C   0  0  0  0  0  0  0  0  0  0  0  0
  190.1750  175.1480  147.0230 C   0  0  0  0  0  3  0  0  0  0  0  0
  192.1960  174.1360  142.1080 C   0  0  0  0  0  2  0  0  0  0  0  0
  191.4260  171.9850  142.7480 O   0  0  0  0  0  0  0  0  0  0  0  0
  192.3730  172.8170  142.7880 C   0  0  0  0  0  0  0  0  0  0  0  0
  195.8500  171.8460  145.0600 N   0  0  0  0  0  0  0  0  0  0  0  0
  193.4770  171.5080  144.6070 C   0  0  0  0  0  2  0  0  0  0  0  0
  195.0420  173.6900  142.1540 O   0  0  0  0  0  0  0  0  0  0  0  0
  196.8140  171.9740  146.1370 C   0  0  0  0  0  1  0  0  0  0  0  0
  194.5320  171.7550  145.6820 C   0  0  0  0  0  2  0  0  0  0  0  0
  194.8310  173.1200  143.2570 C   0  0  0  0  0  0  0  0  0  0  0  0
  193.5510  172.5280  143.5590 N   0  0  0  0  0  0  0  0  0  0  0  0
  195.9160  173.0860  144.2900 C   0  0  0  0  0  2  0  0  0  0  0  0
  1  9  1  0  0  0  0
  1 14  2  0  0  0  0
  2  3  1  1  0  0  0
  3  7  2  0  0  0  0
  3 19  1  0  0  0  0
  4 11  1  0  0  0  0
  4 15  2  0  0  0  0
  5 14  1  1  0  0  0
  5  2  1  0  0  0  0
  6  1  1  0  0  0  0
  7  4  1  0  0  0  0
  8 13  1  0  0  0  0
 10 19  1  0  0  0  0
 12 16  1  0  0  0  0
 12  8  1  0  0  0  0
 13  2  1  0  0  0  0
 13 18  1  1  0  0  0
 16 17  1  6  0  0  0
 16  5  1  0  0  0  0
 17  6  2  0  0  0  0
 18 10  1  0  0  0  0
 19 20  2  0  0  0  0
 20 15  1  0  0  0  0
 21  8  1  0  0  0  0
 21 23  1  0  0  0  0
 22 23  2  0  0  0  0
 23 30  1  0  0  0  0
 24 28  1  0  0  0  0
 24 27  1  0  0  0  0
 25 28  1  0  0  0  0
 26 29  2  0  0  0  0
 29 30  1  0  0  0  0
 29 31  1  0  0  0  0
 30 25  1  0  0  0  0
 31 24  1  0  0  0  0
M  END
>  <MODEL>
7

>  <REMARK>
 VINA RESULT:      -7.4      2.439      4.609
  Name = 
  2 active torsions:
  status: ('A' for Active; 'I' for Inactive)
    1  A    between atoms: C_5  and  C_16
    2  A    between atoms: N_10  and  C_16
                            x       y       z     vdW  Elec       q    Type
                         _______ _______ _______ _____ _____    ______ ____

>  <TORSDO>
F 2

$$$$
=
 OpenBabel11112416533D

 31 35  0  0  1  0  0  0  0  0999 V2000
  187.0820  177.4030  141.1350 C   0  0  0  0  0  0  0  0  0  0  0  0
  188.7450  177.7870  144.5190 C   0  0  2  0  0  3  0  0  0  0  0  0
  187.5020  177.8860  145.3970 C   0  0  0  0  0  0  0  0  0  0  0  0
  185.1300  178.3350  145.6900 C   0  0  0  0  0  0  0  0  0  0  0  0
  188.5150  177.2060  143.1180 C   0  0  2  0  0  3  0  0  0  0  0  0
  187.3380  175.9700  140.8690 C   0  0  0  0  0  3  0  0  0  0  0  0
  186.2480  178.2130  144.8620 C   0  0  0  0  0  3  0  0  0  0  0  0
  189.4430  175.5040  145.2510 N   0  0  0  0  0  0  0  0  0  0  0  0
  186.2360  178.1890  140.2000 C   0  0  0  0  0  1  0  0  0  0  0  0
  188.8710  177.4440  147.3660 O   0  0  0  0  0  0  0  0  0  0  0  0
  183.8050  178.6660  145.1050 C   0  0  0  0  0  1  0  0  0  0  0  0
  189.2490  174.9840  143.8920 C   0  0  0  0  0  2  0  0  0  0  0  0
  189.8410  176.9280  145.1980 C   0  0  2  0  0  3  0  0  0  0  0  0
  187.6030  177.9940  142.2170 C   0  0  0  0  0  3  0  0  0  0  0  0
  185.2570  178.1480  147.0680 C   0  0  0  0  0  3  0  0  0  0  0  0
  188.1220  175.7310  143.1940 C   0  0  2  0  0  3  0  0  0  0  0  0
  187.8680  175.1850  141.8160 C   0  0  0  0  0  3  0  0  0  0  0  0
  190.0760  177.4920  146.6040 C   0  0  0  0  0  2  0  0  0  0  0  0
  187.6280  177.7330  146.7950 C   0  0  0  0  0  0  0  0  0  0  0  0
  186.5050  177.8490  147.6190 C   0  0  0  0  0  3  0  0  0  0  0  0
  190.5390  174.7270  145.8170 C   0  0  0  0  0  2  0  0  0  0  0  0
  189.6910  172.6630  145.0110 O   0  0  0  0  0  0  0  0  0  0  0  0
  190.6810  173.4410  145.0680 C   0  0  0  0  0  0  0  0  0  0  0  0
  194.3660  172.1900  143.3210 N   0  0  0  0  0  0  0  0  0  0  0  0
  192.1890  171.6190  144.2630 C   0  0  0  0  0  2  0  0  0  0  0  0
  192.6170  175.2110  143.8810 O   0  0  0  0  0  0  0  0  0  0  0  0
  195.7590  171.7840  143.3020 C   0  0  0  0  0  1  0  0  0  0  0  0
  193.6860  171.3180  144.2750 C   0  0  0  0  0  2  0  0  0  0  0  0
  192.9220  174.0020  144.0590 C   0  0  0  0  0  0  0  0  0  0  0  0
  191.9430  173.0430  144.5050 N   0  0  0  0  0  0  0  0  0  0  0  0
  194.3350  173.5570  143.8370 C   0  0  0  0  0  2  0  0  0  0  0  0
  1 14  2  0  0  0  0
  2 13  1  0  0  0  0
  2  3  1  1  0  0  0
  3 19  1  0  0  0  0
  4 15  2  0  0  0  0
  5 14  1  1  0  0  0
  5 16  1  0  0  0  0
  5  2  1  0  0  0  0
  6  1  1  0  0  0  0
  6 17  2  0  0  0  0
  7  3  2  0  0  0  0
  7  4  1  0  0  0  0
  8 21  1  0  0  0  0
  9  1  1  0  0  0  0
 11  4  1  0  0  0  0
 12  8  1  0  0  0  0
 13  8  1  0  0  0  0
 13 18  1  1  0  0  0
 15 20  1  0  0  0  0
 16 17  1  6  0  0  0
 16 12  1  0  0  0  0
 18 10  1  0  0  0  0
 19 10  1  0  0  0  0
 19 20  2  0  0  0  0
 22 23  2  0  0  0  0
 23 21  1  0  0  0  0
 24 31  1  0  0  0  0
 24 28  1  0  0  0  0
 25 28  1  0  0  0  0
 25 30  1  0  0  0  0
 26 29  2  0  0  0  0
 27 24  1  0  0  0  0
 29 30  1  0  0  0  0
 30 23  1  0  0  0  0
 31 29  1  0  0  0  0
M  END
>  <MODEL>
8

>  <REMARK>
 VINA RESULT:      -7.3      2.232      4.399
  Name = 
  2 active torsions:
  status: ('A' for Active; 'I' for Inactive)
    1  A    between atoms: C_5  and  C_16
    2  A    between atoms: N_10  and  C_16
                            x       y       z     vdW  Elec       q    Type
                         _______ _______ _______ _____ _____    ______ ____

>  <TORSDO>
F 2

$$$$
=
 OpenBabel11112416533D

 31 35  0  0  1  0  0  0  0  0999 V2000
  187.6170  177.1880  141.3240 C   0  0  0  0  0  0  0  0  0  0  0  0
  188.9410  174.1130  143.1010 C   0  0  2  0  0  3  0  0  0  0  0  0
  189.7470  173.4960  141.9620 C   0  0  0  0  0  0  0  0  0  0  0  0
  190.2470  173.2480  139.5950 C   0  0  0  0  0  0  0  0  0  0  0  0
  188.5800  175.5930  142.9220 C   0  0  2  0  0  3  0  0  0  0  0  0
  188.4480  178.2400  141.9500 C   0  0  0  0  0  3  0  0  0  0  0  0
  189.5230  173.8540  140.6250 C   0  0  0  0  0  3  0  0  0  0  0  0
  190.8910  174.8500  144.4770 N   0  0  0  0  0  0  0  0  0  0  0  0
  186.6950  177.5370  140.2110 C   0  0  0  0  0  1  0  0  0  0  0  0
  190.9010  172.0680  143.5670 O   0  0  0  0  0  0  0  0  0  0  0  0
  190.0090  173.6500  138.1850 C   0  0  0  0  0  1  0  0  0  0  0  0
  190.5000  176.2570  144.3190 C   0  0  0  0  0  2  0  0  0  0  0  0
  189.6920  173.9830  144.4500 C   0  0  2  0  0  3  0  0  0  0  0  0
  187.6960  175.9220  141.7490 C   0  0  0  0  0  3  0  0  0  0  0  0
  191.1920  172.2640  139.8910 C   0  0  0  0  0  3  0  0  0  0  0  0
  189.8300  176.4720  142.9710 C   0  0  2  0  0  3  0  0  0  0  0  0
  189.4630  177.9160  142.7610 C   0  0  0  0  0  3  0  0  0  0  0  0
  190.0680  172.5090  144.6380 C   0  0  0  0  0  2  0  0  0  0  0  0
  190.6800  172.4760  142.2490 C   0  0  0  0  0  0  0  0  0  0  0  0
  191.4070  171.8780  141.2150 C   0  0  0  0  0  3  0  0  0  0  0  0
  191.5120  174.7590  145.7930 C   0  0  0  0  0  2  0  0  0  0  0  0
  192.7580  176.6390  146.5290 O   0  0  0  0  0  0  0  0  0  0  0  0
  192.7500  175.5960  145.8220 C   0  0  0  0  0  0  0  0  0  0  0  0
  196.1700  174.7280  143.4250 N   0  0  0  0  0  0  0  0  0  0  0  0
  194.8170  176.3530  144.6400 C   0  0  0  0  0  2  0  0  0  0  0  0
  193.6580  172.9450  145.1600 O   0  0  0  0  0  0  0  0  0  0  0  0
  196.9200  174.5370  142.1980 C   0  0  0  0  0  1  0  0  0  0  0  0
  195.5360  176.0400  143.3310 C   0  0  0  0  0  2  0  0  0  0  0  0
  194.1860  173.9340  144.5850 C   0  0  0  0  0  0  0  0  0  0  0  0
  193.8790  175.2830  144.9890 N   0  0  0  0  0  0  0  0  0  0  0  0
  195.1250  173.7070  143.4400 C   0  0  0  0  0  2  0  0  0  0  0  0
  1 14  2  0  0  0  0
  1  6  1  0  0  0  0
  2  3  1  6  0  0  0
  2 13  1  0  0  0  0
  3 19  1  0  0  0  0
  4 15  2  0  0  0  0
  4  7  1  0  0  0  0
  5 14  1  6  0  0  0
  5 16  1  0  0  0  0
  5  2  1  0  0  0  0
  6 17  2  0  0  0  0
  7  3  2  0  0  0  0
  8 21  1  0  0  0  0
  9  1  1  0  0  0  0
 10 18  1  0  0  0  0
 11  4  1  0  0  0  0
 12  8  1  0  0  0  0
 13  8  1  0  0  0  0
 13 18  1  6  0  0  0
 15 20  1  0  0  0  0
 16 17  1  1  0  0  0
 16 12  1  0  0  0  0
 19 10  1  0  0  0  0
 20 19  2  0  0  0  0
 21 23  1  0  0  0  0
 23 22  2  0  0  0  0
 24 31  1  0  0  0  0
 25 30  1  0  0  0  0
 27 24  1  0  0  0  0
 28 24  1  0  0  0  0
 28 25  1  0  0  0  0
 29 30  1  0  0  0  0
 29 26  2  0  0  0  0
 30 23  1  0  0  0  0
 31 29  1  0  0  0  0
M  END
>  <MODEL>
9

>  <REMARK>
 VINA RESULT:      -7.2      2.874      4.113
  Name = 
  2 active torsions:
  status: ('A' for Active; 'I' for Inactive)
    1  A    between atoms: C_5  and  C_16
    2  A    between atoms: N_10  and  C_16
                            x       y       z     vdW  Elec       q    Type
                         _______ _______ _______ _____ _____    ______ ____

>  <TORSDO>
F 2

$$$$
