=
 OpenBabel11112416223D

 30 35  0  0  1  0  0  0  0  0999 V2000
  187.6170  176.7370  145.1940 C   0  0  0  0  0  0  0  0  0  0  0  0
  185.7910  177.8060  146.5210 C   0  0  0  0  0  0  0  0  0  0  0  0
  185.6890  177.7040  141.5830 N   0  0  0  0  0  2  0  0  0  0  0  0
  188.1480  176.3750  143.9320 C   0  0  0  0  0  0  0  0  0  0  0  0
  188.3290  176.3530  146.3780 N   0  0  0  0  0  2  0  0  0  0  0  0
  191.1580  174.4340  145.0490 O   0  0  0  0  0  1  0  0  0  0  0  0
  188.5030  174.1450  141.9910 C   0  0  1  0  0  3  0  0  0  0  0  0
  189.8400  174.8950  145.1120 C   0  0  1  0  0  3  0  0  0  0  0  0
  187.7230  174.9910  141.0680 N   0  0  2  0  0  0  0  0  0  0  0  0
  186.6310  177.1350  140.6780 C   0  0  0  0  0  0  0  0  0  0  0  0
  189.6740  175.7870  146.3410 C   0  0  2  0  0  3  0  0  0  0  0  0
  189.5080  175.6970  143.8470 C   0  0  1  0  0  3  0  0  0  0  0  0
  184.5730  178.4920  146.5480 C   0  0  0  0  0  3  0  0  0  0  0  0
  188.3020  174.7340  139.7540 C   0  0  0  0  0  2  0  0  0  0  0  0
  188.9400  172.9210  141.2070 C   0  0  0  0  0  2  0  0  0  0  0  0
  186.4000  177.5110  147.7360 O   0  0  0  0  0  1  0  0  0  0  0  0
  186.2420  177.4170  142.8580 C   0  0  0  0  0  0  0  0  0  0  0  0
  183.9160  178.8210  145.3640 C   0  0  0  0  0  3  0  0  0  0  0  0
  186.3730  177.4320  145.2840 C   0  0  0  0  0  0  0  0  0  0  0  0
  187.4310  176.7300  142.7800 C   0  0  0  0  0  0  0  0  0  0  0  0
  186.5020  177.2290  139.4300 O   0  0  0  0  0  0  0  0  0  0  0  0
  187.7810  176.4380  141.3480 C   0  0  1  0  0  3  0  0  0  0  0  0
  188.7970  173.3050  139.7500 C   0  0  0  0  0  2  0  0  0  0  0  0
  190.7880  174.8140  142.0760 O   0  0  0  0  0  0  0  0  0  0  0  0
  184.4700  178.4670  144.1360 C   0  0  0  0  0  3  0  0  0  0  0  0
  185.6870  177.7780  144.0850 C   0  0  0  0  0  0  0  0  0  0  0  0
  189.6900  174.8580  142.6090 C   0  0  0  0  0  0  0  0  0  0  0  0
  189.9260  174.9960  147.6140 C   0  0  0  0  0  2  0  0  0  0  0  0
  191.3140  176.6590  148.0160 C   0  0  0  0  0  1  0  0  0  0  0  0
  191.2040  175.2730  148.1030 O   0  0  0  0  0  0  0  0  0  0  0  0
  1 19  1  0  0  0  0
  1  5  1  0  0  0  0
  2 13  1  0  0  0  0
  2 16  1  0  0  0  0
  3 17  1  0  0  0  0
  4  1  2  0  0  0  0
  7 15  1  6  0  0  0
  7 27  1  0  0  0  0
  8  6  1  6  0  0  0
  8 11  1  0  0  0  0
  9 14  1  6  0  0  0
  9 22  1  0  0  0  0
  9  7  1  0  0  0  0
 10  3  1  0  0  0  0
 11  5  1  0  0  0  0
 11 28  1  1  0  0  0
 12 27  1  6  0  0  0
 12  4  1  0  0  0  0
 12  8  1  0  0  0  0
 17 26  1  0  0  0  0
 18 13  2  0  0  0  0
 19  2  2  0  0  0  0
 20 17  2  0  0  0  0
 20  4  1  0  0  0  0
 21 10  2  0  0  0  0
 22 10  1  6  0  0  0
 22 20  1  0  0  0  0
 23 14  1  0  0  0  0
 23 15  1  0  0  0  0
 24 27  2  0  0  0  0
 25 18  1  0  0  0  0
 26 25  2  0  0  0  0
 26 19  1  0  0  0  0
 28 30  1  0  0  0  0
 29 30  1  0  0  0  0
M  END
>  <MODEL>
1

>  <REMARK>
 VINA RESULT:      -8.9      0.000      0.000
  Name = 
  2 active torsions:
  status: ('A' for Active; 'I' for Inactive)
    1  A    between atoms: C_11  and  C_28
    2  A    between atoms: C_28  and  O_30
                            x       y       z     vdW  Elec       q    Type
                         _______ _______ _______ _____ _____    ______ ____

>  <TORSDO>
F 2

$$$$
=
 OpenBabel11112416223D

 30 35  0  0  1  0  0  0  0  0999 V2000
  186.2830  177.1610  143.8620 C   0  0  0  0  0  0  0  0  0  0  0  0
  184.6180  178.4480  145.2040 C   0  0  0  0  0  0  0  0  0  0  0  0
  188.3790  176.0600  147.3380 N   0  0  0  0  0  2  0  0  0  0  0  0
  187.4560  176.3680  143.8190 C   0  0  0  0  0  0  0  0  0  0  0  0
  185.6390  177.5050  142.6280 N   0  0  0  0  0  2  0  0  0  0  0  0
  187.8500  176.0240  140.1040 O   0  0  0  0  0  1  0  0  0  0  0  0
  190.3810  176.3800  143.2580 C   0  0  1  0  0  3  0  0  0  0  0  0
  187.5220  176.6710  141.2990 C   0  0  1  0  0  3  0  0  0  0  0  0
  190.5250  175.9570  144.6640 N   0  0  2  0  0  0  0  0  0  0  0  0
  189.4160  175.2940  146.7300 C   0  0  0  0  0  0  0  0  0  0  0  0
  186.0150  176.9120  141.3490 C   0  0  2  0  0  3  0  0  0  0  0  0
  187.9430  175.8030  142.4920 C   0  0  1  0  0  3  0  0  0  0  0  0
  184.1670  178.8860  146.4530 C   0  0  0  0  0  3  0  0  0  0  0  0
  191.6660  175.0490  144.6610 C   0  0  0  0  0  2  0  0  0  0  0  0
  191.7700  176.3700  142.6480 C   0  0  0  0  0  2  0  0  0  0  0  0
  183.8920  178.8280  144.0810 O   0  0  0  0  0  1  0  0  0  0  0  0
  187.6060  176.5030  146.2340 C   0  0  0  0  0  0  0  0  0  0  0  0
  184.8460  178.5350  147.6190 C   0  0  0  0  0  3  0  0  0  0  0  0
  185.7800  177.6420  145.1070 C   0  0  0  0  0  0  0  0  0  0  0  0
  188.0960  176.0590  145.0280 C   0  0  0  0  0  0  0  0  0  0  0  0
  190.2890  174.6920  147.4070 O   0  0  0  0  0  0  0  0  0  0  0  0
  189.3540  175.2610  145.2290 C   0  0  1  0  0  3  0  0  0  0  0  0
  192.6080  175.5120  143.5710 C   0  0  0  0  0  2  0  0  0  0  0  0
  189.8270  174.5460  141.8420 O   0  0  0  0  0  0  0  0  0  0  0  0
  185.9880  177.7410  147.5480 C   0  0  0  0  0  3  0  0  0  0  0  0
  186.4600  177.2930  146.3090 C   0  0  0  0  0  0  0  0  0  0  0  0
  189.4220  175.5170  142.4610 C   0  0  0  0  0  0  0  0  0  0  0  0
  185.5830  177.8310  140.2170 C   0  0  0  0  0  2  0  0  0  0  0  0
  183.3890  178.0330  140.2580 C   0  0  0  0  0  1  0  0  0  0  0  0
  184.5620  178.6770  140.6520 O   0  0  0  0  0  0  0  0  0  0  0  0
  1 19  1  0  0  0  0
  2 13  1  0  0  0  0
  4  1  2  0  0  0  0
  4 20  1  0  0  0  0
  5  1  1  0  0  0  0
  7 15  1  6  0  0  0
  7  9  1  0  0  0  0
  8  6  1  6  0  0  0
  8 11  1  0  0  0  0
  8 12  1  0  0  0  0
  9 14  1  6  0  0  0
  9 22  1  0  0  0  0
 10  3  1  0  0  0  0
 10 21  2  0  0  0  0
 11 28  1  6  0  0  0
 11  5  1  0  0  0  0
 12 27  1  1  0  0  0
 12  4  1  0  0  0  0
 13 18  2  0  0  0  0
 15 23  1  0  0  0  0
 16  2  1  0  0  0  0
 17 26  1  0  0  0  0
 17  3  1  0  0  0  0
 19  2  2  0  0  0  0
 19 26  1  0  0  0  0
 20 17  2  0  0  0  0
 22 20  1  1  0  0  0
 22 10  1  0  0  0  0
 23 14  1  0  0  0  0
 24 27  2  0  0  0  0
 25 18  1  0  0  0  0
 26 25  2  0  0  0  0
 27  7  1  0  0  0  0
 28 30  1  0  0  0  0
 29 30  1  0  0  0  0
M  END
>  <MODEL>
2

>  <REMARK>
 VINA RESULT:      -8.5      1.827      5.293
  Name = 
  2 active torsions:
  status: ('A' for Active; 'I' for Inactive)
    1  A    between atoms: C_11  and  C_28
    2  A    between atoms: C_28  and  O_30
                            x       y       z     vdW  Elec       q    Type
                         _______ _______ _______ _____ _____    ______ ____

>  <TORSDO>
F 2

$$$$
=
 OpenBabel11112416223D

 30 35  0  0  1  0  0  0  0  0999 V2000
  188.1460  176.0170  143.5460 C   0  0  0  0  0  0  0  0  0  0  0  0
  186.0110  177.3090  143.6230 C   0  0  0  0  0  0  0  0  0  0  0  0
  189.3110  177.5360  147.2920 N   0  0  0  0  0  2  0  0  0  0  0  0
  189.3800  175.6760  144.1510 C   0  0  0  0  0  0  0  0  0  0  0  0
  187.8340  175.4690  142.2590 N   0  0  0  0  0  2  0  0  0  0  0  0
  190.8460  173.5460  141.4320 O   0  0  0  0  0  1  0  0  0  0  0  0
  192.3150  176.1860  144.1450 C   0  0  1  0  0  3  0  0  0  0  0  0
  190.1100  174.6090  141.9660 C   0  0  1  0  0  3  0  0  0  0  0  0
  192.1150  176.6260  145.5380 N   0  0  2  0  0  0  0  0  0  0  0  0
  190.5710  176.8800  147.4070 C   0  0  0  0  0  0  0  0  0  0  0  0
  188.6320  174.4190  141.6340 C   0  0  2  0  0  3  0  0  0  0  0  0
  190.2930  174.6540  143.4890 C   0  0  1  0  0  3  0  0  0  0  0  0
  185.1710  178.1980  144.3020 C   0  0  0  0  0  3  0  0  0  0  0  0
  193.3230  176.2040  146.2360 C   0  0  0  0  0  2  0  0  0  0  0  0
  193.8070  176.2340  143.8760 C   0  0  0  0  0  2  0  0  0  0  0  0
  185.5850  176.8250  142.3910 O   0  0  0  0  0  1  0  0  0  0  0  0
  188.8260  177.1000  146.0320 C   0  0  0  0  0  0  0  0  0  0  0  0
  185.5370  178.7150  145.5430 C   0  0  0  0  0  3  0  0  0  0  0  0
  187.2520  176.9250  144.1900 C   0  0  0  0  0  0  0  0  0  0  0  0
  189.6910  176.2400  145.3970 C   0  0  0  0  0  0  0  0  0  0  0  0
  191.2920  176.9900  148.4320 O   0  0  0  0  0  0  0  0  0  0  0  0
  190.9390  176.0450  146.2130 C   0  0  1  0  0  3  0  0  0  0  0  0
  194.4620  176.2570  145.2400 C   0  0  0  0  0  2  0  0  0  0  0  0
  192.4380  173.8120  143.9830 O   0  0  0  0  0  0  0  0  0  0  0  0
  186.7510  178.3490  146.1210 C   0  0  0  0  0  3  0  0  0  0  0  0
  187.6080  177.4630  145.4590 C   0  0  0  0  0  0  0  0  0  0  0  0
  191.7460  174.8100  143.8570 C   0  0  0  0  0  0  0  0  0  0  0  0
  188.4140  174.4440  140.1300 C   0  0  0  0  0  2  0  0  0  0  0  0
  188.4470  173.1850  138.3220 C   0  0  0  0  0  1  0  0  0  0  0  0
  188.0980  173.1640  139.6720 O   0  0  0  0  0  0  0  0  0  0  0  0
  1  4  2  0  0  0  0
  1 19  1  0  0  0  0
  2 19  2  0  0  0  0
  2 13  1  0  0  0  0
  3 10  1  0  0  0  0
  4 20  1  0  0  0  0
  5  1  1  0  0  0  0
  7 15  1  1  0  0  0
  7  9  1  0  0  0  0
  8  6  1  1  0  0  0
  8 12  1  0  0  0  0
  9 22  1  0  0  0  0
  9 14  1  1  0  0  0
 10 21  2  0  0  0  0
 11 28  1  6  0  0  0
 11  8  1  0  0  0  0
 11  5  1  0  0  0  0
 12 27  1  6  0  0  0
 12  4  1  0  0  0  0
 13 18  2  0  0  0  0
 15 23  1  0  0  0  0
 16  2  1  0  0  0  0
 17  3  1  0  0  0  0
 18 25  1  0  0  0  0
 19 26  1  0  0  0  0
 20 17  2  0  0  0  0
 22 20  1  6  0  0  0
 22 10  1  0  0  0  0
 23 14  1  0  0  0  0
 26 17  1  0  0  0  0
 26 25  2  0  0  0  0
 27 24  2  0  0  0  0
 27  7  1  0  0  0  0
 29 30  1  0  0  0  0
 30 28  1  0  0  0  0
M  END
>  <MODEL>
3

>  <REMARK>
 VINA RESULT:      -8.3      2.066      5.568
  Name = 
  2 active torsions:
  status: ('A' for Active; 'I' for Inactive)
    1  A    between atoms: C_11  and  C_28
    2  A    between atoms: C_28  and  O_30
                            x       y       z     vdW  Elec       q    Type
                         _______ _______ _______ _____ _____    ______ ____

>  <TORSDO>
F 2

$$$$
=
 OpenBabel11112416223D

 30 35  0  0  1  0  0  0  0  0999 V2000
  188.1940  176.0510  141.7210 C   0  0  0  0  0  0  0  0  0  0  0  0
  189.6040  174.0830  141.1110 C   0  0  0  0  0  0  0  0  0  0  0  0
  189.6470  175.9930  145.6670 N   0  0  0  0  0  2  0  0  0  0  0  0
  187.7550  176.9730  142.7020 C   0  0  0  0  0  0  0  0  0  0  0  0
  187.6340  176.1290  140.4030 N   0  0  0  0  0  2  0  0  0  0  0  0
  185.1740  178.8320  140.7130 O   0  0  0  0  0  1  0  0  0  0  0  0
  185.5480  177.6590  144.5820 C   0  0  1  0  0  3  0  0  0  0  0  0
  185.9120  177.7170  141.1240 C   0  0  1  0  0  3  0  0  0  0  0  0
  186.5670  177.5020  145.6370 N   0  0  2  0  0  0  0  0  0  0  0  0
  188.9070  177.0950  146.1850 C   0  0  0  0  0  0  0  0  0  0  0  0
  186.7880  177.2370  139.9690 C   0  0  2  0  0  3  0  0  0  0  0  0
  186.7970  178.0920  142.3190 C   0  0  1  0  0  3  0  0  0  0  0  0
  190.5400  173.1160  141.4910 C   0  0  0  0  0  3  0  0  0  0  0  0
  186.2220  178.5060  146.6360 C   0  0  0  0  0  2  0  0  0  0  0  0
  184.2780  178.1360  145.2610 C   0  0  0  0  0  2  0  0  0  0  0  0
  189.1550  174.0730  139.7950 O   0  0  0  0  0  1  0  0  0  0  0  0
  189.2150  175.9100  144.3180 C   0  0  0  0  0  0  0  0  0  0  0  0
  191.0340  173.0770  142.7930 C   0  0  0  0  0  3  0  0  0  0  0  0
  189.1420  175.0380  142.0520 C   0  0  0  0  0  0  0  0  0  0  0  0
  188.2860  176.8720  143.9970 C   0  0  0  0  0  0  0  0  0  0  0  0
  189.0570  177.5090  147.3630 O   0  0  0  0  0  0  0  0  0  0  0  0
  187.9590  177.7150  145.1970 C   0  0  1  0  0  3  0  0  0  0  0  0
  184.7190  178.6770  146.6030 C   0  0  0  0  0  2  0  0  0  0  0  0
  185.6970  179.7900  143.5280 O   0  0  0  0  0  0  0  0  0  0  0  0
  190.5970  174.0060  143.7340 C   0  0  0  0  0  3  0  0  0  0  0  0
  189.6590  174.9820  143.3780 C   0  0  0  0  0  0  0  0  0  0  0  0
  185.9680  178.6010  143.4700 C   0  0  0  0  0  0  0  0  0  0  0  0
  185.9300  176.7900  138.7960 C   0  0  0  0  0  2  0  0  0  0  0  0
  185.9590  176.0410  136.7250 C   0  0  0  0  0  1  0  0  0  0  0  0
  186.6920  176.0270  137.9100 O   0  0  0  0  0  0  0  0  0  0  0  0
  1 19  2  0  0  0  0
  1  4  1  0  0  0  0
  2 13  2  0  0  0  0
  2 19  1  0  0  0  0
  3 10  1  0  0  0  0
  4 20  2  0  0  0  0
  5  1  1  0  0  0  0
  7 15  1  1  0  0  0
  7  9  1  0  0  0  0
  8  6  1  6  0  0  0
  8 12  1  0  0  0  0
  9 14  1  1  0  0  0
 10 21  2  0  0  0  0
 11 28  1  6  0  0  0
 11  5  1  0  0  0  0
 11  8  1  0  0  0  0
 12  4  1  1  0  0  0
 12 27  1  0  0  0  0
 13 18  1  0  0  0  0
 15 23  1  0  0  0  0
 16  2  1  0  0  0  0
 17  3  1  0  0  0  0
 18 25  2  0  0  0  0
 19 26  1  0  0  0  0
 20 17  1  0  0  0  0
 22 20  1  6  0  0  0
 22  9  1  0  0  0  0
 22 10  1  0  0  0  0
 23 14  1  0  0  0  0
 26 25  1  0  0  0  0
 26 17  2  0  0  0  0
 27 24  2  0  0  0  0
 27  7  1  0  0  0  0
 29 30  1  0  0  0  0
 30 28  1  0  0  0  0
M  END
>  <MODEL>
4

>  <REMARK>
 VINA RESULT:      -8.0      1.844      7.232
  Name = 
  2 active torsions:
  status: ('A' for Active; 'I' for Inactive)
    1  A    between atoms: C_11  and  C_28
    2  A    between atoms: C_28  and  O_30
                            x       y       z     vdW  Elec       q    Type
                         _______ _______ _______ _____ _____    ______ ____

>  <TORSDO>
F 2

$$$$
=
 OpenBabel11112416223D

 30 35  0  0  1  0  0  0  0  0999 V2000
  190.2020  175.1860  143.7080 C   0  0  0  0  0  0  0  0  0  0  0  0
  192.1760  173.6610  143.8110 C   0  0  0  0  0  0  0  0  0  0  0  0
  191.1230  176.7890  147.4860 N   0  0  0  0  0  2  0  0  0  0  0  0
  189.4040  176.1820  144.3230 C   0  0  0  0  0  0  0  0  0  0  0  0
  189.8070  174.6800  142.4260 N   0  0  0  0  0  2  0  0  0  0  0  0
  186.6620  176.4530  141.7760 O   0  0  0  0  0  1  0  0  0  0  0  0
  186.8830  176.6960  145.8230 C   0  0  1  0  0  3  0  0  0  0  0  0
  187.6300  175.8020  142.5470 C   0  0  1  0  0  3  0  0  0  0  0  0
  187.7680  177.1910  146.8940 N   0  0  2  0  0  0  0  0  0  0  0  0
  190.0430  177.7130  147.5970 C   0  0  0  0  0  0  0  0  0  0  0  0
  188.7400  175.2850  141.6340 C   0  0  2  0  0  3  0  0  0  0  0  0
  188.2210  176.7780  143.5720 C   0  0  1  0  0  3  0  0  0  0  0  0
  193.2940  173.1940  144.5080 C   0  0  0  0  0  3  0  0  0  0  0  0
  187.0340  178.2960  147.4990 C   0  0  0  0  0  2  0  0  0  0  0  0
  185.4570  176.9420  146.2790 C   0  0  0  0  0  2  0  0  0  0  0  0
  191.9100  173.1100  142.5620 O   0  0  0  0  0  1  0  0  0  0  0  0
  190.8990  176.1680  146.2300 C   0  0  0  0  0  0  0  0  0  0  0  0
  193.6180  173.7090  145.7610 C   0  0  0  0  0  3  0  0  0  0  0  0
  191.3510  174.6660  144.3750 C   0  0  0  0  0  0  0  0  0  0  0  0
  189.7810  176.6500  145.5900 C   0  0  0  0  0  0  0  0  0  0  0  0
  189.9260  178.4930  148.5770 O   0  0  0  0  0  0  0  0  0  0  0  0
  189.0850  177.6760  146.4400 C   0  0  1  0  0  3  0  0  0  0  0  0
  185.5590  177.9770  147.3790 C   0  0  0  0  0  2  0  0  0  0  0  0
  186.5470  178.3390  144.1310 O   0  0  0  0  0  0  0  0  0  0  0  0
  192.8250  174.7000  146.3350 C   0  0  0  0  0  3  0  0  0  0  0  0
  191.6990  175.1810  145.6570 C   0  0  0  0  0  0  0  0  0  0  0  0
  187.1490  177.3330  144.4730 C   0  0  0  0  0  0  0  0  0  0  0  0
  188.1930  174.2600  140.6540 C   0  0  0  0  0  2  0  0  0  0  0  0
  188.1970  174.1520  138.4530 C   0  0  0  0  0  1  0  0  0  0  0  0
  189.0480  174.1430  139.5570 O   0  0  0  0  0  0  0  0  0  0  0  0
  1  4  2  0  0  0  0
  1 19  1  0  0  0  0
  2 19  2  0  0  0  0
  2 13  1  0  0  0  0
  3 10  1  0  0  0  0
  4 20  1  0  0  0  0
  5  1  1  0  0  0  0
  7 15  1  1  0  0  0
  7  9  1  0  0  0  0
  8  6  1  6  0  0  0
  8 12  1  0  0  0  0
  9 14  1  6  0  0  0
 10 21  2  0  0  0  0
 11 28  1  6  0  0  0
 11  5  1  0  0  0  0
 11  8  1  0  0  0  0
 12  4  1  1  0  0  0
 12 27  1  0  0  0  0
 13 18  2  0  0  0  0
 15 23  1  0  0  0  0
 16  2  1  0  0  0  0
 17  3  1  0  0  0  0
 18 25  1  0  0  0  0
 19 26  1  0  0  0  0
 20 17  2  0  0  0  0
 22 20  1  6  0  0  0
 22  9  1  0  0  0  0
 22 10  1  0  0  0  0
 23 14  1  0  0  0  0
 24 27  2  0  0  0  0
 26 17  1  0  0  0  0
 26 25  2  0  0  0  0
 27  7  1  0  0  0  0
 29 30  1  0  0  0  0
 30 28  1  0  0  0  0
M  END
>  <MODEL>
5

>  <REMARK>
 VINA RESULT:      -7.8      2.176      7.106
  Name = 
  2 active torsions:
  status: ('A' for Active; 'I' for Inactive)
    1  A    between atoms: C_11  and  C_28
    2  A    between atoms: C_28  and  O_30
                            x       y       z     vdW  Elec       q    Type
                         _______ _______ _______ _____ _____    ______ ____

>  <TORSDO>
F 2

$$$$
=
 OpenBabel11112416223D

 30 35  0  0  1  0  0  0  0  0999 V2000
  188.1610  175.6860  141.8990 C   0  0  0  0  0  0  0  0  0  0  0  0
  186.6480  176.9140  140.3380 C   0  0  0  0  0  0  0  0  0  0  0  0
  186.7940  177.9570  145.1650 N   0  0  0  0  0  2  0  0  0  0  0  0
  188.6640  175.5040  143.2110 C   0  0  0  0  0  0  0  0  0  0  0  0
  188.6950  174.8820  140.8390 N   0  0  0  0  0  2  0  0  0  0  0  0
  191.2830  172.9060  142.5280 O   0  0  0  0  0  1  0  0  0  0  0  0
  190.9400  176.0740  145.0450 C   0  0  1  0  0  3  0  0  0  0  0  0
  190.5040  174.0360  142.2600 C   0  0  1  0  0  3  0  0  0  0  0  0
  189.9390  176.7810  145.8650 N   0  0  2  0  0  0  0  0  0  0  0  0
  187.5950  177.3690  146.1860 C   0  0  0  0  0  0  0  0  0  0  0  0
  189.5810  173.7470  141.0780 C   0  0  2  0  0  3  0  0  0  0  0  0
  189.6640  174.3920  143.4940 C   0  0  1  0  0  3  0  0  0  0  0  0
  185.6770  177.9000  140.1390 C   0  0  0  0  0  3  0  0  0  0  0  0
  190.3520  176.5380  147.2420 C   0  0  0  0  0  2  0  0  0  0  0  0
  192.2460  176.1040  145.8170 C   0  0  0  0  0  2  0  0  0  0  0  0
  187.0670  176.1810  139.2340 O   0  0  0  0  0  1  0  0  0  0  0  0
  187.1920  177.2640  143.9920 C   0  0  0  0  0  0  0  0  0  0  0  0
  185.2100  178.6660  141.2060 C   0  0  0  0  0  3  0  0  0  0  0  0
  187.1740  176.6820  141.6340 C   0  0  0  0  0  0  0  0  0  0  0  0
  188.1570  176.3150  144.2380 C   0  0  0  0  0  0  0  0  0  0  0  0
  187.4900  177.7000  147.3950 O   0  0  0  0  0  0  0  0  0  0  0  0
  188.5490  176.3200  145.6880 C   0  0  1  0  0  3  0  0  0  0  0  0
  191.8610  176.4170  147.2460 C   0  0  0  0  0  2  0  0  0  0  0  0
  190.8670  173.7200  145.4050 O   0  0  0  0  0  0  0  0  0  0  0  0
  185.7100  178.4540  142.4880 C   0  0  0  0  0  3  0  0  0  0  0  0
  186.6840  177.4740  142.7120 C   0  0  0  0  0  0  0  0  0  0  0  0
  190.5400  174.6550  144.6900 C   0  0  0  0  0  0  0  0  0  0  0  0
  190.3910  173.4630  139.8240 C   0  0  0  0  0  2  0  0  0  0  0  0
  190.5760  173.7780  137.6510 C   0  0  0  0  0  1  0  0  0  0  0  0
  189.6460  173.7890  138.6900 O   0  0  0  0  0  0  0  0  0  0  0  0
  1  4  1  0  0  0  0
  2 19  1  0  0  0  0
  3 10  1  0  0  0  0
  4 20  2  0  0  0  0
  5 11  1  0  0  0  0
  5  1  1  0  0  0  0
  7 15  1  1  0  0  0
  7  9  1  0  0  0  0
  8  6  1  1  0  0  0
  8 12  1  0  0  0  0
  9 14  1  1  0  0  0
 10 21  2  0  0  0  0
 11 28  1  6  0  0  0
 11  8  1  0  0  0  0
 12  4  1  6  0  0  0
 12 27  1  0  0  0  0
 13  2  2  0  0  0  0
 13 18  1  0  0  0  0
 14 23  1  0  0  0  0
 15 23  1  0  0  0  0
 16  2  1  0  0  0  0
 17 20  1  0  0  0  0
 17  3  1  0  0  0  0
 18 25  2  0  0  0  0
 19  1  2  0  0  0  0
 19 26  1  0  0  0  0
 22 20  1  6  0  0  0
 22  9  1  0  0  0  0
 22 10  1  0  0  0  0
 25 26  1  0  0  0  0
 26 17  2  0  0  0  0
 27  7  1  0  0  0  0
 27 24  2  0  0  0  0
 29 30  1  0  0  0  0
 30 28  1  0  0  0  0
M  END
>  <MODEL>
6

>  <REMARK>
 VINA RESULT:      -7.6      1.754      5.634
  Name = 
  2 active torsions:
  status: ('A' for Active; 'I' for Inactive)
    1  A    between atoms: C_11  and  C_28
    2  A    between atoms: C_28  and  O_30
                            x       y       z     vdW  Elec       q    Type
                         _______ _______ _______ _____ _____    ______ ____

>  <TORSDO>
F 2

$$$$
=
 OpenBabel11112416223D

 30 35  0  0  1  0  0  0  0  0999 V2000
  188.8050  175.4030  143.3940 C   0  0  0  0  0  0  0  0  0  0  0  0
  186.6360  176.5260  143.9150 C   0  0  0  0  0  0  0  0  0  0  0  0
  190.5340  176.8910  146.9280 N   0  0  0  0  0  2  0  0  0  0  0  0
  190.1500  175.1380  143.7480 C   0  0  0  0  0  0  0  0  0  0  0  0
  188.2990  174.8720  142.1620 N   0  0  0  0  0  2  0  0  0  0  0  0
  191.2320  173.2110  140.7160 O   0  0  0  0  0  1  0  0  0  0  0  0
  192.9910  175.8700  143.2300 C   0  0  1  0  0  3  0  0  0  0  0  0
  190.5350  174.1970  141.4220 C   0  0  1  0  0  3  0  0  0  0  0  0
  193.0220  176.2510  144.6540 N   0  0  2  0  0  0  0  0  0  0  0  0
  191.8360  176.3300  146.7830 C   0  0  0  0  0  0  0  0  0  0  0  0
  189.0380  173.9060  141.3570 C   0  0  2  0  0  3  0  0  0  0  0  0
  190.9940  174.2090  142.8860 C   0  0  1  0  0  3  0  0  0  0  0  0
  185.8770  177.3260  144.7740 C   0  0  0  0  0  3  0  0  0  0  0  0
  194.3650  175.9020  145.1010 C   0  0  0  0  0  2  0  0  0  0  0  0
  194.4010  176.0400  142.6960 C   0  0  0  0  0  2  0  0  0  0  0  0
  186.0250  176.0480  142.7610 O   0  0  0  0  0  1  0  0  0  0  0  0
  189.8560  176.4580  145.7590 C   0  0  0  0  0  0  0  0  0  0  0  0
  186.4300  177.8320  145.9500 C   0  0  0  0  0  3  0  0  0  0  0  0
  187.9850  176.2200  144.2290 C   0  0  0  0  0  0  0  0  0  0  0  0
  190.6470  175.6860  144.9410 C   0  0  0  0  0  0  0  0  0  0  0  0
  192.7250  176.4630  147.6620 O   0  0  0  0  0  0  0  0  0  0  0  0
  192.0340  175.5620  145.5060 C   0  0  1  0  0  3  0  0  0  0  0  0
  195.2930  176.0720  143.9180 C   0  0  0  0  0  2  0  0  0  0  0  0
  193.2460  173.5190  142.9440 O   0  0  0  0  0  0  0  0  0  0  0  0
  187.7520  177.5420  146.2810 C   0  0  0  0  0  3  0  0  0  0  0  0
  188.5310  176.7450  145.4350 C   0  0  0  0  0  0  0  0  0  0  0  0
  192.4750  174.4640  142.9900 C   0  0  0  0  0  0  0  0  0  0  0  0
  188.5440  173.9600  139.9200 C   0  0  0  0  0  2  0  0  0  0  0  0
  188.7910  172.5580  138.2380 C   0  0  0  0  0  1  0  0  0  0  0  0
  188.1880  172.6810  139.4890 O   0  0  0  0  0  0  0  0  0  0  0  0
  1  4  2  0  0  0  0
  1 19  1  0  0  0  0
  2 19  2  0  0  0  0
  2 13  1  0  0  0  0
  4 20  1  0  0  0  0
  5  1  1  0  0  0  0
  7 15  1  1  0  0  0
  7  9  1  0  0  0  0
  8  6  1  6  0  0  0
  8 12  1  0  0  0  0
  9 14  1  1  0  0  0
  9 22  1  0  0  0  0
 10  3  1  0  0  0  0
 10 21  2  0  0  0  0
 11 28  1  6  0  0  0
 11  8  1  0  0  0  0
 11  5  1  0  0  0  0
 12 27  1  6  0  0  0
 12  4  1  0  0  0  0
 13 18  2  0  0  0  0
 15 23  1  0  0  0  0
 16  2  1  0  0  0  0
 17  3  1  0  0  0  0
 18 25  1  0  0  0  0
 19 26  1  0  0  0  0
 20 17  2  0  0  0  0
 22 20  1  6  0  0  0
 22 10  1  0  0  0  0
 23 14  1  0  0  0  0
 24 27  2  0  0  0  0
 26 17  1  0  0  0  0
 26 25  2  0  0  0  0
 27  7  1  0  0  0  0
 29 30  1  0  0  0  0
 30 28  1  0  0  0  0
M  END
>  <MODEL>
7

>  <REMARK>
 VINA RESULT:      -7.3      2.585      5.811
  Name = 
  2 active torsions:
  status: ('A' for Active; 'I' for Inactive)
    1  A    between atoms: C_11  and  C_28
    2  A    between atoms: C_28  and  O_30
                            x       y       z     vdW  Elec       q    Type
                         _______ _______ _______ _____ _____    ______ ____

>  <TORSDO>
F 2

$$$$
=
 OpenBabel11112416223D

 30 35  0  0  1  0  0  0  0  0999 V2000
  189.4280  175.1080  142.1810 C   0  0  0  0  0  0  0  0  0  0  0  0
  187.6290  176.3200  140.9450 C   0  0  0  0  0  0  0  0  0  0  0  0
  188.9610  177.6220  145.5200 N   0  0  0  0  0  2  0  0  0  0  0  0
  190.2230  174.9740  143.3460 C   0  0  0  0  0  0  0  0  0  0  0  0
  189.6640  174.2200  141.0800 N   0  0  0  0  0  2  0  0  0  0  0  0
  192.5110  172.2160  142.2350 O   0  0  0  0  0  1  0  0  0  0  0  0
  192.8910  175.5320  144.5470 C   0  0  1  0  0  3  0  0  0  0  0  0
  191.7300  173.3670  142.0860 C   0  0  1  0  0  3  0  0  0  0  0  0
  192.1400  176.3330  145.5330 N   0  0  2  0  0  0  0  0  0  0  0  0
  189.9630  177.0530  146.3600 C   0  0  0  0  0  0  0  0  0  0  0  0
  190.5420  173.0580  141.1780 C   0  0  2  0  0  3  0  0  0  0  0  0
  191.2220  173.8320  143.4570 C   0  0  1  0  0  3  0  0  0  0  0  0
  186.6730  177.3400  140.9160 C   0  0  0  0  0  3  0  0  0  0  0  0
  192.8620  176.1470  146.7860 C   0  0  0  0  0  2  0  0  0  0  0  0
  194.3430  175.5410  144.9850 C   0  0  0  0  0  2  0  0  0  0  0  0
  187.7460  175.5060  139.8240 O   0  0  0  0  0  1  0  0  0  0  0  0
  189.0430  176.8460  144.3360 C   0  0  0  0  0  0  0  0  0  0  0  0
  186.5020  178.1860  142.0110 C   0  0  0  0  0  3  0  0  0  0  0  0
  188.4420  176.1350  142.0920 C   0  0  0  0  0  0  0  0  0  0  0  0
  190.0050  175.8650  144.4070 C   0  0  0  0  0  0  0  0  0  0  0  0
  190.1620  177.4560  147.5340 O   0  0  0  0  0  0  0  0  0  0  0  0
  190.7330  175.9320  145.7210 C   0  0  1  0  0  3  0  0  0  0  0  0
  194.3230  175.9520  146.4410 C   0  0  0  0  0  2  0  0  0  0  0  0
  192.8240  173.2090  145.0690 O   0  0  0  0  0  0  0  0  0  0  0  0
  187.2870  178.0220  143.1490 C   0  0  0  0  0  3  0  0  0  0  0  0
  188.2520  177.0090  143.2000 C   0  0  0  0  0  0  0  0  0  0  0  0
  192.3680  174.1170  144.3920 C   0  0  0  0  0  0  0  0  0  0  0  0
  191.0180  172.6640  139.7890 C   0  0  0  0  0  2  0  0  0  0  0  0
  191.1170  173.1580  137.6440 C   0  0  0  0  0  1  0  0  0  0  0  0
  190.5560  173.5840  138.8470 O   0  0  0  0  0  0  0  0  0  0  0  0
  1  4  1  0  0  0  0
  2 19  1  0  0  0  0
  3 10  1  0  0  0  0
  4 20  2  0  0  0  0
  5 11  1  0  0  0  0
  5  1  1  0  0  0  0
  7 15  1  1  0  0  0
  7  9  1  0  0  0  0
  8  6  1  1  0  0  0
  8 12  1  0  0  0  0
  9 22  1  0  0  0  0
  9 14  1  1  0  0  0
 10 21  2  0  0  0  0
 11 28  1  6  0  0  0
 11  8  1  0  0  0  0
 12  4  1  6  0  0  0
 12 27  1  0  0  0  0
 13  2  2  0  0  0  0
 13 18  1  0  0  0  0
 15 23  1  0  0  0  0
 16  2  1  0  0  0  0
 17 20  1  0  0  0  0
 17  3  1  0  0  0  0
 18 25  2  0  0  0  0
 19  1  2  0  0  0  0
 19 26  1  0  0  0  0
 22 20  1  6  0  0  0
 22 10  1  0  0  0  0
 23 14  1  0  0  0  0
 25 26  1  0  0  0  0
 26 17  2  0  0  0  0
 27  7  1  0  0  0  0
 27 24  2  0  0  0  0
 29 30  1  0  0  0  0
 30 28  1  0  0  0  0
M  END
>  <MODEL>
8

>  <REMARK>
 VINA RESULT:      -7.3      2.405      6.043
  Name = 
  2 active torsions:
  status: ('A' for Active; 'I' for Inactive)
    1  A    between atoms: C_11  and  C_28
    2  A    between atoms: C_28  and  O_30
                            x       y       z     vdW  Elec       q    Type
                         _______ _______ _______ _____ _____    ______ ____

>  <TORSDO>
F 2

$$$$
=
 OpenBabel11112416223D

 30 35  0  0  1  0  0  0  0  0999 V2000
  189.6010  176.5000  144.9310 C   0  0  0  0  0  0  0  0  0  0  0  0
  188.2570  177.5810  146.7360 C   0  0  0  0  0  0  0  0  0  0  0  0
  186.5420  177.1660  142.1230 N   0  0  0  0  0  2  0  0  0  0  0  0
  189.7070  176.0800  143.5830 C   0  0  0  0  0  0  0  0  0  0  0  0
  190.6840  176.2180  145.8280 N   0  0  0  0  0  2  0  0  0  0  0  0
  193.0210  174.3270  143.7270 O   0  0  0  0  0  1  0  0  0  0  0  0
  189.5280  173.7470  141.7400 C   0  0  1  0  0  3  0  0  0  0  0  0
  191.7730  174.7420  144.2030 C   0  0  1  0  0  3  0  0  0  0  0  0
  188.4420  174.5030  141.0890 N   0  0  2  0  0  0  0  0  0  0  0  0
  187.1630  176.5760  140.9840 C   0  0  0  0  0  0  0  0  0  0  0  0
  191.9710  175.7020  145.3740 C   0  0  2  0  0  3  0  0  0  0  0  0
  190.9990  175.4490  143.0830 C   0  0  1  0  0  3  0  0  0  0  0  0
  187.0800  178.2220  147.1330 C   0  0  0  0  0  3  0  0  0  0  0  0
  188.5690  174.1860  139.6720 C   0  0  0  0  0  2  0  0  0  0  0  0
  189.7510  172.4930  140.9150 C   0  0  0  0  0  2  0  0  0  0  0  0
  189.2470  177.3870  147.6930 O   0  0  0  0  0  1  0  0  0  0  0  0
  187.4980  176.9800  143.1540 C   0  0  0  0  0  0  0  0  0  0  0  0
  186.0520  178.4510  146.2200 C   0  0  0  0  0  3  0  0  0  0  0  0
  188.4200  177.1530  145.3950 C   0  0  0  0  0  0  0  0  0  0  0  0
  188.6320  176.3350  142.7180 C   0  0  0  0  0  0  0  0  0  0  0  0
  186.6260  176.5860  139.8460 O   0  0  0  0  0  0  0  0  0  0  0  0
  188.5080  175.9660  141.2660 C   0  0  1  0  0  3  0  0  0  0  0  0
  189.1150  172.7780  139.5710 C   0  0  0  0  0  2  0  0  0  0  0  0
  191.6730  174.5050  141.0310 O   0  0  0  0  0  0  0  0  0  0  0  0
  186.1900  178.0420  144.8960 C   0  0  0  0  0  3  0  0  0  0  0  0
  187.3590  177.3970  144.4760 C   0  0  0  0  0  0  0  0  0  0  0  0
  190.8110  174.5410  141.8960 C   0  0  0  0  0  0  0  0  0  0  0  0
  192.6720  175.0030  146.5270 C   0  0  0  0  0  2  0  0  0  0  0  0
  194.0840  176.6940  146.5130 C   0  0  0  0  0  1  0  0  0  0  0  0
  194.0350  175.3010  146.5080 O   0  0  0  0  0  0  0  0  0  0  0  0
  1 19  1  0  0  0  0
  1  5  1  0  0  0  0
  2 13  1  0  0  0  0
  2 16  1  0  0  0  0
  3 17  1  0  0  0  0
  4  1  2  0  0  0  0
  7 15  1  6  0  0  0
  7 27  1  0  0  0  0
  8  6  1  6  0  0  0
  8 11  1  0  0  0  0
  9 14  1  6  0  0  0
  9 22  1  0  0  0  0
  9  7  1  0  0  0  0
 10  3  1  0  0  0  0
 11  5  1  0  0  0  0
 11 28  1  1  0  0  0
 12 27  1  6  0  0  0
 12  4  1  0  0  0  0
 12  8  1  0  0  0  0
 17 26  1  0  0  0  0
 18 13  2  0  0  0  0
 19  2  2  0  0  0  0
 20 17  2  0  0  0  0
 20  4  1  0  0  0  0
 21 10  2  0  0  0  0
 22 10  1  1  0  0  0
 22 20  1  0  0  0  0
 23 14  1  0  0  0  0
 23 15  1  0  0  0  0
 24 27  2  0  0  0  0
 25 18  1  0  0  0  0
 26 25  2  0  0  0  0
 26 19  1  0  0  0  0
 30 29  1  0  0  0  0
 30 28  1  0  0  0  0
M  END
>  <MODEL>
9

>  <REMARK>
 VINA RESULT:      -7.1      1.654      1.937
  Name = 
  2 active torsions:
  status: ('A' for Active; 'I' for Inactive)
    1  A    between atoms: C_11  and  C_28
    2  A    between atoms: C_28  and  O_30
                            x       y       z     vdW  Elec       q    Type
                         _______ _______ _______ _____ _____    ______ ____

>  <TORSDO>
F 2

$$$$
