=
 OpenBabel11112416273D

 32 37  0  0  1  0  0  0  0  0999 V2000
  192.5190  174.4030  143.6810 C   0  0  0  0  0  2  0  0  0  0  0  0
  187.9020  177.5170  143.2390 C   0  0  1  0  0  3  0  0  0  0  0  0
  186.8350  178.3210  148.0350 C   0  0  0  0  0  3  0  0  0  0  0  0
  185.5270  178.6440  147.6780 C   0  0  0  0  0  3  0  0  0  0  0  0
  185.9400  177.4490  141.6140 C   0  0  0  0  0  0  0  0  0  0  0  0
  184.5720  177.8860  141.3390 C   0  0  0  0  0  0  0  0  0  0  0  0
  190.1190  176.3930  142.8430 C   0  0  1  0  0  3  0  0  0  0  0  0
  189.7380  177.7760  144.9230 C   0  0  0  0  0  2  0  0  0  0  0  0
  182.5470  178.6100  141.7610 N   0  0  0  0  0  0  0  0  0  0  0  0
  191.9700  176.7280  144.6390 C   0  0  0  0  0  2  0  0  0  0  0  0
  187.7540  178.0060  147.0340 C   0  0  0  0  0  3  0  0  0  0  0  0
  188.3060  177.6900  144.6450 N   0  0  0  0  0  0  0  0  0  0  0  0
  187.3630  178.0090  145.6870 C   0  0  0  0  0  0  0  0  0  0  0  0
  185.6110  178.4010  143.9340 C   0  0  2  0  0  3  0  0  0  0  0  0
  182.6240  178.4220  140.4500 N   0  0  0  0  0  0  0  0  0  0  0  0
  191.1410  174.1710  143.2270 N   0  0  0  0  0  2  0  0  0  0  0  0
  190.4710  176.5740  144.3400 C   0  0  2  0  0  3  0  0  0  0  0  0
  183.8690  177.9740  140.1500 C   0  0  0  0  0  3  0  0  0  0  0  0
  190.7590  175.1490  142.2080 C   0  0  0  0  0  2  0  0  0  0  0  0
  192.9080  175.8900  143.7680 C   0  0  1  0  0  3  0  0  0  0  0  0
  185.1580  178.6440  146.3700 N   0  0  0  0  0  0  0  0  0  0  0  0
  186.0300  178.3170  145.3730 C   0  0  0  0  0  0  0  0  0  0  0  0
  184.0780  178.2910  143.7730 C   0  0  0  0  0  2  0  0  0  0  0  0
  188.6080  176.2830  142.6750 C   0  0  0  0  0  2  0  0  0  0  0  0
  186.6920  177.0870  140.6700 O   0  0  0  0  0  0  0  0  0  0  0  0
  181.3540  179.0700  142.4480 C   0  0  0  0  0  1  0  0  0  0  0  0
  186.3770  177.3640  143.0700 C   0  0  2  0  0  3  0  0  0  0  0  0
  183.7250  178.3020  142.3200 C   0  0  0  0  0  0  0  0  0  0  0  0
  194.2710  176.0240  144.2590 N   0  0  0  0  0  2  0  0  0  0  0  0
  195.3830  176.2030  143.3810 C   0  0  0  0  0  0  0  0  0  0  0  0
  195.1950  176.2800  142.0070 O   0  0  0  0  0  0  0  0  0  0  0  0
  196.5440  176.2950  143.8570 O   0  0  0  0  0  1  0  0  0  0  0  0
  1 20  1  0  0  0  0
  2 24  1  1  0  0  0
  2 12  1  0  0  0  0
  4  3  1  0  0  0  0
  6  5  1  0  0  0  0
  6 28  2  0  0  0  0
  7 19  1  1  0  0  0
  7 17  1  0  0  0  0
  9 28  1  0  0  0  0
  9 26  1  0  0  0  0
 11  3  2  0  0  0  0
 12  8  1  0  0  0  0
 12 13  1  0  0  0  0
 13 11  1  0  0  0  0
 14 23  1  1  0  0  0
 14 22  1  0  0  0  0
 15  9  1  0  0  0  0
 16  1  1  0  0  0  0
 17 10  1  6  0  0  0
 17  8  1  0  0  0  0
 18 15  2  0  0  0  0
 18  6  1  0  0  0  0
 19 16  1  0  0  0  0
 20 29  1  1  0  0  0
 20 10  1  0  0  0  0
 21  4  2  0  0  0  0
 22 13  2  0  0  0  0
 22 21  1  0  0  0  0
 24  7  1  0  0  0  0
 25  5  2  0  0  0  0
 27  5  1  6  0  0  0
 27  2  1  0  0  0  0
 27 14  1  0  0  0  0
 28 23  1  0  0  0  0
 30 32  1  0  0  0  0
 30 29  1  0  0  0  0
 31 30  2  0  0  0  0
M  END
>  <MODEL>
1

>  <REMARK>
 VINA RESULT:      -9.0      0.000      0.000
  Name = 
  1 active torsions:
  status: ('A' for Active; 'I' for Inactive)
    1  A    between atoms: C_20  and  N_29
                            x       y       z     vdW  Elec       q    Type
                         _______ _______ _______ _____ _____    ______ ____

>  <TORSDO>
F 1

$$$$
=
 OpenBabel11112416273D

 32 37  0  0  1  0  0  0  0  0999 V2000
  195.6810  175.4620  144.5040 C   0  0  0  0  0  2  0  0  0  0  0  0
  190.1500  175.8740  145.1750 C   0  0  1  0  0  3  0  0  0  0  0  0
  188.5570  174.9010  140.5600 C   0  0  0  0  0  3  0  0  0  0  0  0
  187.3380  175.5000  140.8670 C   0  0  0  0  0  3  0  0  0  0  0  0
  188.7080  177.4250  146.5920 C   0  0  0  0  0  0  0  0  0  0  0  0
  187.3670  177.9540  146.8370 C   0  0  0  0  0  0  0  0  0  0  0  0
  192.6170  175.5120  145.5200 C   0  0  1  0  0  3  0  0  0  0  0  0
  191.3750  174.2360  143.7280 C   0  0  0  0  0  2  0  0  0  0  0  0
  185.2920  178.5080  146.4040 N   0  0  0  0  0  0  0  0  0  0  0  0
  193.8020  173.7840  143.9790 C   0  0  0  0  0  2  0  0  0  0  0  0
  189.5350  174.8050  141.5500 C   0  0  0  0  0  3  0  0  0  0  0  0
  190.2940  175.2120  143.8680 N   0  0  0  0  0  0  0  0  0  0  0  0
  189.2930  175.3110  142.8350 C   0  0  0  0  0  0  0  0  0  0  0  0
  187.7510  176.4050  144.4850 C   0  0  2  0  0  3  0  0  0  0  0  0
  185.5360  178.8770  147.6550 N   0  0  0  0  0  0  0  0  0  0  0  0
  194.7410  176.5540  144.7920 N   0  0  0  0  0  2  0  0  0  0  0  0
  192.7110  174.8550  144.1210 C   0  0  2  0  0  3  0  0  0  0  0  0
  186.8160  178.5470  147.9590 C   0  0  0  0  0  3  0  0  0  0  0  0
  193.9060  176.2290  145.9480 C   0  0  0  0  0  2  0  0  0  0  0  0
  195.0990  174.0560  144.7420 C   0  0  1  0  0  3  0  0  0  0  0  0
  187.1120  175.9870  142.1160 N   0  0  0  0  0  0  0  0  0  0  0  0
  188.0590  175.9270  143.0960 C   0  0  0  0  0  0  0  0  0  0  0  0
  186.5990  177.4350  144.4970 C   0  0  0  0  0  2  0  0  0  0  0  0
  191.4820  176.5290  145.5410 C   0  0  0  0  0  2  0  0  0  0  0  0
  189.5770  177.4530  147.5050 O   0  0  0  0  0  0  0  0  0  0  0  0
  184.0250  178.7180  145.7270 C   0  0  0  0  0  1  0  0  0  0  0  0
  189.0300  176.9340  145.1880 C   0  0  2  0  0  3  0  0  0  0  0  0
  186.3880  177.9330  145.8910 C   0  0  0  0  0  0  0  0  0  0  0  0
  196.0840  173.0420  144.3980 N   0  0  0  0  0  2  0  0  0  0  0  0
  197.0770  172.5990  145.3230 C   0  0  0  0  0  0  0  0  0  0  0  0
  197.1220  173.1130  146.6130 O   0  0  0  0  0  1  0  0  0  0  0  0
  197.9170  171.7310  144.9690 O   0  0  0  0  0  0  0  0  0  0  0  0
  1 20  1  0  0  0  0
  1 16  1  0  0  0  0
  2 27  1  0  0  0  0
  2 24  1  6  0  0  0
  3  4  2  0  0  0  0
  3 11  1  0  0  0  0
  4 21  1  0  0  0  0
  5  6  1  0  0  0  0
  5 25  2  0  0  0  0
  6 18  1  0  0  0  0
  7 24  1  6  0  0  0
  7 19  1  0  0  0  0
  8 12  1  0  0  0  0
  9 15  1  0  0  0  0
 10 17  1  0  0  0  0
 10 20  1  0  0  0  0
 11 13  2  0  0  0  0
 12  2  1  0  0  0  0
 13 22  1  0  0  0  0
 13 12  1  0  0  0  0
 14 23  1  6  0  0  0
 14 27  1  0  0  0  0
 15 18  2  0  0  0  0
 16 19  1  0  0  0  0
 17  8  1  1  0  0  0
 17  7  1  0  0  0  0
 20 29  1  6  0  0  0
 21 22  2  0  0  0  0
 22 14  1  0  0  0  0
 23 28  1  0  0  0  0
 26  9  1  0  0  0  0
 27  5  1  1  0  0  0
 28  9  1  0  0  0  0
 28  6  2  0  0  0  0
 29 30  1  0  0  0  0
 30 31  1  0  0  0  0
 32 30  2  0  0  0  0
M  END
>  <MODEL>
2

>  <REMARK>
 VINA RESULT:      -8.4      2.922      5.112
  Name = 
  1 active torsions:
  status: ('A' for Active; 'I' for Inactive)
    1  A    between atoms: C_20  and  N_29
                            x       y       z     vdW  Elec       q    Type
                         _______ _______ _______ _____ _____    ______ ____

>  <TORSDO>
F 1

$$$$
=
 OpenBabel11112416273D

 32 37  0  0  1  0  0  0  0  0999 V2000
  196.1270  174.9150  145.1680 C   0  0  0  0  0  2  0  0  0  0  0  0
  190.5620  175.3910  145.2540 C   0  0  1  0  0  3  0  0  0  0  0  0
  189.4300  174.1660  140.5630 C   0  0  0  0  0  3  0  0  0  0  0  0
  188.1910  174.7870  140.7120 C   0  0  0  0  0  3  0  0  0  0  0  0
  189.0010  177.0270  146.4300 C   0  0  0  0  0  0  0  0  0  0  0  0
  187.6470  177.5750  146.5090 C   0  0  0  0  0  0  0  0  0  0  0  0
  192.9780  175.0370  145.8660 C   0  0  1  0  0  3  0  0  0  0  0  0
  191.9080  173.6680  144.0310 C   0  0  0  0  0  2  0  0  0  0  0  0
  185.6320  178.1130  145.8380 N   0  0  0  0  0  0  0  0  0  0  0  0
  194.2920  173.2190  144.5500 C   0  0  0  0  0  2  0  0  0  0  0  0
  190.3020  174.1210  141.6510 C   0  0  0  0  0  3  0  0  0  0  0  0
  190.8290  174.6550  144.0070 N   0  0  0  0  0  0  0  0  0  0  0  0
  189.9370  174.7000  142.8750 C   0  0  0  0  0  0  0  0  0  0  0  0
  188.2490  175.8930  144.2980 C   0  0  2  0  0  3  0  0  0  0  0  0
  185.7540  178.5510  147.0850 N   0  0  0  0  0  0  0  0  0  0  0  0
  195.1750  176.0260  145.2980 N   0  0  0  0  0  2  0  0  0  0  0  0
  193.2040  174.3020  144.5220 C   0  0  2  0  0  3  0  0  0  0  0  0
  186.9930  178.2330  147.5350 C   0  0  0  0  0  3  0  0  0  0  0  0
  194.2240  175.7710  146.3810 C   0  0  0  0  0  2  0  0  0  0  0  0
  195.5100  173.5270  145.4240 C   0  0  1  0  0  3  0  0  0  0  0  0
  187.8470  175.3450  141.9030 N   0  0  0  0  0  0  0  0  0  0  0  0
  188.6900  175.3360  142.9750 C   0  0  0  0  0  0  0  0  0  0  0  0
  187.1130  176.9280  144.1360 C   0  0  0  0  0  2  0  0  0  0  0  0
  191.8570  176.0590  145.7160 C   0  0  0  0  0  2  0  0  0  0  0  0
  189.7740  177.1010  147.4230 O   0  0  0  0  0  0  0  0  0  0  0  0
  184.4420  178.2910  145.0260 C   0  0  0  0  0  1  0  0  0  0  0  0
  189.4570  176.4550  145.0950 C   0  0  2  0  0  3  0  0  0  0  0  0
  186.7680  177.5040  145.4720 C   0  0  0  0  0  0  0  0  0  0  0  0
  196.5140  172.4900  145.2380 N   0  0  0  0  0  2  0  0  0  0  0  0
  196.2930  171.1360  145.6320 C   0  0  0  0  0  0  0  0  0  0  0  0
  195.0820  170.7520  146.1950 O   0  0  0  0  0  1  0  0  0  0  0  0
  197.2010  170.2820  145.4640 O   0  0  0  0  0  0  0  0  0  0  0  0
  1 16  1  0  0  0  0
  1 20  1  0  0  0  0
  2 24  1  6  0  0  0
  3  4  2  0  0  0  0
  3 11  1  0  0  0  0
  4 21  1  0  0  0  0
  5  6  1  0  0  0  0
  5 25  2  0  0  0  0
  6 18  1  0  0  0  0
  7 24  1  6  0  0  0
  7 19  1  0  0  0  0
  9 15  1  0  0  0  0
 10 20  1  0  0  0  0
 11 13  2  0  0  0  0
 12  8  1  0  0  0  0
 12  2  1  0  0  0  0
 13 22  1  0  0  0  0
 13 12  1  0  0  0  0
 14 23  1  6  0  0  0
 14 27  1  0  0  0  0
 15 18  2  0  0  0  0
 16 19  1  0  0  0  0
 17  8  1  1  0  0  0
 17 10  1  0  0  0  0
 17  7  1  0  0  0  0
 20 29  1  6  0  0  0
 21 22  2  0  0  0  0
 22 14  1  0  0  0  0
 23 28  1  0  0  0  0
 26  9  1  0  0  0  0
 27  2  1  0  0  0  0
 27  5  1  1  0  0  0
 28  9  1  0  0  0  0
 28  6  2  0  0  0  0
 29 30  1  0  0  0  0
 30 31  1  0  0  0  0
 32 30  2  0  0  0  0
M  END
>  <MODEL>
3

>  <REMARK>
 VINA RESULT:      -8.2      3.172      5.522
  Name = 
  1 active torsions:
  status: ('A' for Active; 'I' for Inactive)
    1  A    between atoms: C_20  and  N_29
                            x       y       z     vdW  Elec       q    Type
                         _______ _______ _______ _____ _____    ______ ____

>  <TORSDO>
F 1

$$$$
=
 OpenBabel11112416273D

 32 37  0  0  1  0  0  0  0  0999 V2000
  186.5240  176.6980  146.6690 C   0  0  0  0  0  2  0  0  0  0  0  0
  191.0620  176.1230  143.4640 C   0  0  1  0  0  3  0  0  0  0  0  0
  189.6290  172.4390  140.4380 C   0  0  0  0  0  3  0  0  0  0  0  0
  190.9640  172.1900  140.1270 C   0  0  0  0  0  3  0  0  0  0  0  0
  193.5530  176.2960  143.9750 C   0  0  0  0  0  0  0  0  0  0  0  0
  194.9120  176.0090  143.5170 C   0  0  0  0  0  0  0  0  0  0  0  0
  189.2380  177.0150  144.9510 C   0  0  1  0  0  3  0  0  0  0  0  0
  188.6720  175.9320  142.7390 C   0  0  0  0  0  2  0  0  0  0  0  0
  196.5110  175.0120  142.3990 N   0  0  0  0  0  0  0  0  0  0  0  0
  186.7870  176.7830  144.1110 C   0  0  0  0  0  2  0  0  0  0  0  0
  189.3170  173.4900  141.2990 C   0  0  0  0  0  3  0  0  0  0  0  0
  190.0240  175.3750  142.7350 N   0  0  0  0  0  0  0  0  0  0  0  0
  190.3360  174.2820  141.8480 C   0  0  0  0  0  0  0  0  0  0  0  0
  192.7690  174.8660  142.0420 C   0  0  2  0  0  3  0  0  0  0  0  0
  197.0900  175.9260  143.1670 N   0  0  0  0  0  0  0  0  0  0  0  0
  187.9000  176.2310  146.8810 N   0  0  0  0  0  2  0  0  0  0  0  0
  188.1980  176.1780  144.1660 C   0  0  2  0  0  3  0  0  0  0  0  0
  196.1270  176.5670  143.8760 C   0  0  0  0  0  3  0  0  0  0  0  0
  188.8640  177.2330  146.4240 C   0  0  0  0  0  2  0  0  0  0  0  0
  186.3290  177.5110  145.3760 C   0  0  1  0  0  3  0  0  0  0  0  0
  191.9450  172.9630  140.6640 N   0  0  0  0  0  0  0  0  0  0  0  0
  191.6690  173.9830  141.5270 C   0  0  0  0  0  0  0  0  0  0  0  0
  194.1430  174.1610  141.9920 C   0  0  0  0  0  2  0  0  0  0  0  0
  190.5980  176.3270  144.9060 C   0  0  0  0  0  2  0  0  0  0  0  0
  193.3490  177.2010  144.8270 O   0  0  0  0  0  0  0  0  0  0  0  0
  197.2340  174.1190  141.5120 C   0  0  0  0  0  1  0  0  0  0  0  0
  192.4290  175.4100  143.4560 C   0  0  2  0  0  3  0  0  0  0  0  0
  195.1840  175.0540  142.5860 C   0  0  0  0  0  0  0  0  0  0  0  0
  184.9340  177.8980  145.2330 N   0  0  0  0  0  2  0  0  0  0  0  0
  184.5390  179.0850  144.5450 C   0  0  0  0  0  0  0  0  0  0  0  0
  185.4890  179.9120  143.9590 O   0  0  0  0  0  0  0  0  0  0  0  0
  183.3190  179.3820  144.4650 O   0  0  0  0  0  1  0  0  0  0  0  0
  1 16  1  0  0  0  0
  2 24  1  1  0  0  0
  3 11  1  0  0  0  0
  4  3  2  0  0  0  0
  4 21  1  0  0  0  0
  5 25  2  0  0  0  0
  6 18  1  0  0  0  0
  6  5  1  0  0  0  0
  7 24  1  1  0  0  0
  7 19  1  0  0  0  0
  9 28  1  0  0  0  0
  9 15  1  0  0  0  0
 10 17  1  0  0  0  0
 10 20  1  0  0  0  0
 11 13  2  0  0  0  0
 12  8  1  0  0  0  0
 12  2  1  0  0  0  0
 13 12  1  0  0  0  0
 14 23  1  1  0  0  0
 14 27  1  0  0  0  0
 15 18  2  0  0  0  0
 17  8  1  6  0  0  0
 17  7  1  0  0  0  0
 19 16  1  0  0  0  0
 20 29  1  6  0  0  0
 20  1  1  0  0  0  0
 21 22  2  0  0  0  0
 22 13  1  0  0  0  0
 22 14  1  0  0  0  0
 23 28  1  0  0  0  0
 26  9  1  0  0  0  0
 27  2  1  0  0  0  0
 27  5  1  6  0  0  0
 28  6  2  0  0  0  0
 30 29  1  0  0  0  0
 31 30  2  0  0  0  0
 32 30  1  0  0  0  0
M  END
>  <MODEL>
4

>  <REMARK>
 VINA RESULT:      -8.2      2.521      9.242
  Name = 
  1 active torsions:
  status: ('A' for Active; 'I' for Inactive)
    1  A    between atoms: C_20  and  N_29
                            x       y       z     vdW  Elec       q    Type
                         _______ _______ _______ _____ _____    ______ ____

>  <TORSDO>
F 1

$$$$
=
 OpenBabel11112416273D

 32 37  0  0  1  0  0  0  0  0999 V2000
  190.3770  171.7710  139.6940 C   0  0  0  0  0  2  0  0  0  0  0  0
  188.8880  175.9600  143.0760 C   0  0  1  0  0  3  0  0  0  0  0  0
  192.3830  175.6220  146.6050 C   0  0  0  0  0  3  0  0  0  0  0  0
  191.5700  176.3570  147.4650 C   0  0  0  0  0  3  0  0  0  0  0  0
  186.6120  176.8610  143.7860 C   0  0  0  0  0  0  0  0  0  0  0  0
  185.8750  177.6950  144.7350 C   0  0  0  0  0  0  0  0  0  0  0  0
  189.2700  174.4630  141.0880 C   0  0  1  0  0  3  0  0  0  0  0  0
  191.2180  175.2510  142.4910 C   0  0  0  0  0  2  0  0  0  0  0  0
  185.4580  178.7640  146.6010 N   0  0  0  0  0  0  0  0  0  0  0  0
  191.7240  173.7890  140.5510 C   0  0  0  0  0  2  0  0  0  0  0  0
  191.9480  175.3770  145.3020 C   0  0  0  0  0  3  0  0  0  0  0  0
  190.2490  175.6190  143.5220 N   0  0  0  0  0  0  0  0  0  0  0  0
  190.7060  175.8610  144.8680 C   0  0  0  0  0  0  0  0  0  0  0  0
  188.6100  177.1700  145.3060 C   0  0  2  0  0  3  0  0  0  0  0  0
  184.4070  178.9420  145.8120 N   0  0  0  0  0  0  0  0  0  0  0  0
  189.2430  172.0390  140.5890 N   0  0  0  0  0  2  0  0  0  0  0  0
  190.6790  174.1170  141.6280 C   0  0  2  0  0  3  0  0  0  0  0  0
  184.6310  178.2920  144.6430 C   0  0  0  0  0  3  0  0  0  0  0  0
  188.6290  173.3290  140.2760 C   0  0  0  0  0  2  0  0  0  0  0  0
  191.2020  173.0210  139.3350 C   0  0  1  0  0  3  0  0  0  0  0  0
  190.3670  176.8220  147.0350 N   0  0  0  0  0  0  0  0  0  0  0  0
  189.9080  176.5780  145.7740 C   0  0  0  0  0  0  0  0  0  0  0  0
  187.6720  177.5070  146.4870 C   0  0  0  0  0  2  0  0  0  0  0  0
  188.3380  174.7980  142.2480 C   0  0  0  0  0  2  0  0  0  0  0  0
  186.1200  176.6010  142.6560 O   0  0  0  0  0  0  0  0  0  0  0  0
  185.5660  179.3030  147.9460 C   0  0  0  0  0  1  0  0  0  0  0  0
  187.9310  176.2590  144.2480 C   0  0  2  0  0  3  0  0  0  0  0  0
  186.3700  178.0190  145.9610 C   0  0  0  0  0  0  0  0  0  0  0  0
  192.3200  172.6550  138.4790 N   0  0  0  0  0  2  0  0  0  0  0  0
  192.2210  172.6600  137.0540 C   0  0  0  0  0  0  0  0  0  0  0  0
  191.0420  173.0440  136.4270 O   0  0  0  0  0  1  0  0  0  0  0  0
  193.2130  172.3180  136.3600 O   0  0  0  0  0  0  0  0  0  0  0  0
  1 16  1  0  0  0  0
  2 24  1  1  0  0  0
  2 12  1  0  0  0  0
  2 27  1  0  0  0  0
  3  4  1  0  0  0  0
  5  6  1  0  0  0  0
  6 28  2  0  0  0  0
  7 19  1  1  0  0  0
  7 17  1  0  0  0  0
  7 24  1  0  0  0  0
  8 12  1  0  0  0  0
  9 26  1  0  0  0  0
 11  3  2  0  0  0  0
 12 13  1  0  0  0  0
 13 11  1  0  0  0  0
 13 22  2  0  0  0  0
 14 22  1  0  0  0  0
 14 23  1  1  0  0  0
 15  9  1  0  0  0  0
 17 10  1  6  0  0  0
 17  8  1  0  0  0  0
 18  6  1  0  0  0  0
 18 15  2  0  0  0  0
 19 16  1  0  0  0  0
 20 29  1  6  0  0  0
 20  1  1  0  0  0  0
 20 10  1  0  0  0  0
 21  4  2  0  0  0  0
 22 21  1  0  0  0  0
 25  5  2  0  0  0  0
 27  5  1  6  0  0  0
 27 14  1  0  0  0  0
 28 23  1  0  0  0  0
 28  9  1  0  0  0  0
 30 29  1  0  0  0  0
 31 30  1  0  0  0  0
 32 30  2  0  0  0  0
M  END
>  <MODEL>
5

>  <REMARK>
 VINA RESULT:      -8.2      3.172      5.013
  Name = 
  1 active torsions:
  status: ('A' for Active; 'I' for Inactive)
    1  A    between atoms: C_20  and  N_29
                            x       y       z     vdW  Elec       q    Type
                         _______ _______ _______ _____ _____    ______ ____

>  <TORSDO>
F 1

$$$$
=
 OpenBabel11112416273D

 32 37  0  0  1  0  0  0  0  0999 V2000
  185.7800  178.4560  141.2970 C   0  0  0  0  0  2  0  0  0  0  0  0
  189.2330  174.9150  143.8950 C   0  0  1  0  0  3  0  0  0  0  0  0
  190.4450  177.5600  147.9350 C   0  0  0  0  0  3  0  0  0  0  0  0
  191.5650  176.7510  148.1150 C   0  0  0  0  0  3  0  0  0  0  0  0
  190.9760  173.2740  143.0220 C   0  0  0  0  0  0  0  0  0  0  0  0
  192.1270  172.4330  143.3490 C   0  0  0  0  0  0  0  0  0  0  0  0
  187.4120  175.9390  142.4900 C   0  0  1  0  0  3  0  0  0  0  0  0
  187.5590  176.4420  144.9620 C   0  0  0  0  0  2  0  0  0  0  0  0
  193.8830  171.7350  144.4580 N   0  0  0  0  0  0  0  0  0  0  0  0
  185.7130  177.5030  143.6870 C   0  0  0  0  0  2  0  0  0  0  0  0
  189.5720  177.2870  146.8820 C   0  0  0  0  0  3  0  0  0  0  0  0
  188.9240  175.9200  144.9260 N   0  0  0  0  0  0  0  0  0  0  0  0
  189.8230  176.2140  146.0140 C   0  0  0  0  0  0  0  0  0  0  0  0
  191.2200  174.2400  145.3470 C   0  0  2  0  0  3  0  0  0  0  0  0
  193.7470  170.9350  143.4100 N   0  0  0  0  0  0  0  0  0  0  0  0
  187.1200  177.9160  141.0280 N   0  0  0  0  0  2  0  0  0  0  0  0
  187.1580  176.9910  143.5980 C   0  0  2  0  0  3  0  0  0  0  0  0
  192.6650  171.3370  142.6970 C   0  0  0  0  0  3  0  0  0  0  0  0
  187.1080  176.4530  141.0760 C   0  0  0  0  0  2  0  0  0  0  0  0
  184.9850  177.6640  142.3510 C   0  0  1  0  0  3  0  0  0  0  0  0
  191.7990  175.7130  147.2680 N   0  0  0  0  0  0  0  0  0  0  0  0
  190.9740  175.4380  146.2170 C   0  0  0  0  0  0  0  0  0  0  0  0
  192.6980  173.7910  145.3900 C   0  0  0  0  0  2  0  0  0  0  0  0
  188.8690  175.4900  142.5260 C   0  0  0  0  0  2  0  0  0  0  0  0
  190.2800  173.0260  142.0010 O   0  0  0  0  0  0  0  0  0  0  0  0
  194.9480  171.6170  145.4390 C   0  0  0  0  0  1  0  0  0  0  0  0
  190.7150  174.4890  143.9010 C   0  0  2  0  0  3  0  0  0  0  0  0
  192.9000  172.6460  144.4490 C   0  0  0  0  0  0  0  0  0  0  0  0
  183.6910  178.2910  142.5780 N   0  0  0  0  0  2  0  0  0  0  0  0
  182.6610  178.2910  141.5900 C   0  0  0  0  0  0  0  0  0  0  0  0
  182.8540  177.6610  140.3660 O   0  0  0  0  0  0  0  0  0  0  0  0
  181.5670  178.8630  141.8310 O   0  0  0  0  0  1  0  0  0  0  0  0
  1 20  1  0  0  0  0
  2 24  1  6  0  0  0
  2 27  1  0  0  0  0
  2 12  1  0  0  0  0
  3  4  1  0  0  0  0
  5  6  1  0  0  0  0
  6 28  2  0  0  0  0
  7 19  1  6  0  0  0
  7 24  1  0  0  0  0
  7 17  1  0  0  0  0
  9 26  1  0  0  0  0
 11  3  2  0  0  0  0
 12  8  1  0  0  0  0
 12 13  1  0  0  0  0
 13 22  2  0  0  0  0
 13 11  1  0  0  0  0
 14 23  1  6  0  0  0
 14 22  1  0  0  0  0
 15  9  1  0  0  0  0
 16 19  1  0  0  0  0
 16  1  1  0  0  0  0
 17 10  1  1  0  0  0
 17  8  1  0  0  0  0
 18  6  1  0  0  0  0
 18 15  2  0  0  0  0
 20 29  1  1  0  0  0
 20 10  1  0  0  0  0
 21  4  2  0  0  0  0
 22 21  1  0  0  0  0
 25  5  2  0  0  0  0
 27  5  1  6  0  0  0
 27 14  1  0  0  0  0
 28  9  1  0  0  0  0
 28 23  1  0  0  0  0
 30 32  1  0  0  0  0
 30 29  1  0  0  0  0
 31 30  2  0  0  0  0
M  END
>  <MODEL>
6

>  <REMARK>
 VINA RESULT:      -8.0      2.832      8.504
  Name = 
  1 active torsions:
  status: ('A' for Active; 'I' for Inactive)
    1  A    between atoms: C_20  and  N_29
                            x       y       z     vdW  Elec       q    Type
                         _______ _______ _______ _____ _____    ______ ____

>  <TORSDO>
F 1

$$$$
=
 OpenBabel11112416273D

 32 37  0  0  1  0  0  0  0  0999 V2000
  193.1300  171.8530  140.9180 C   0  0  0  0  0  2  0  0  0  0  0  0
  189.8900  175.9050  142.9880 C   0  0  1  0  0  3  0  0  0  0  0  0
  191.8660  176.4810  147.5210 C   0  0  0  0  0  3  0  0  0  0  0  0
  190.6940  177.1060  147.9400 C   0  0  0  0  0  3  0  0  0  0  0  0
  187.4030  176.4040  142.7390 C   0  0  0  0  0  0  0  0  0  0  0  0
  186.2530  177.1460  143.2550 C   0  0  0  0  0  0  0  0  0  0  0  0
  191.1940  174.3750  141.4730 C   0  0  1  0  0  3  0  0  0  0  0  0
  192.3520  175.6140  143.3460 C   0  0  0  0  0  2  0  0  0  0  0  0
  185.0270  178.2430  144.7010 N   0  0  0  0  0  0  0  0  0  0  0  0
  193.7470  174.1440  141.9130 C   0  0  0  0  0  2  0  0  0  0  0  0
  191.9790  176.0690  146.1930 C   0  0  0  0  0  3  0  0  0  0  0  0
  191.0300  175.8600  143.9190 N   0  0  0  0  0  0  0  0  0  0  0  0
  190.9220  176.2770  145.2950 C   0  0  0  0  0  0  0  0  0  0  0  0
  188.6370  177.1910  144.8020 C   0  0  2  0  0  3  0  0  0  0  0  0
  184.3220  178.1620  143.5810 N   0  0  0  0  0  0  0  0  0  0  0  0
  191.7220  171.9610  141.3210 N   0  0  0  0  0  2  0  0  0  0  0  0
  192.3450  174.3410  142.5080 C   0  0  2  0  0  3  0  0  0  0  0  0
  185.0520  177.4880  142.6580 C   0  0  0  0  0  3  0  0  0  0  0  0
  191.0740  173.0860  140.6460 C   0  0  0  0  0  2  0  0  0  0  0  0
  193.8280  173.2090  140.7050 C   0  0  1  0  0  3  0  0  0  0  0  0
  189.6750  177.3030  147.0620 N   0  0  0  0  0  0  0  0  0  0  0  0
  189.7490  176.8900  145.7640 C   0  0  0  0  0  0  0  0  0  0  0  0
  187.2940  177.4240  145.5300 C   0  0  0  0  0  2  0  0  0  0  0  0
  189.8640  174.6060  142.1820 C   0  0  0  0  0  2  0  0  0  0  0  0
  187.4030  175.9770  141.5530 O   0  0  0  0  0  0  0  0  0  0  0  0
  184.5540  178.8830  145.9160 C   0  0  0  0  0  1  0  0  0  0  0  0
  188.5390  176.0970  143.7050 C   0  0  2  0  0  3  0  0  0  0  0  0
  186.2110  177.6420  144.5220 C   0  0  0  0  0  0  0  0  0  0  0  0
  195.2230  173.0030  140.3460 N   0  0  0  0  0  2  0  0  0  0  0  0
  195.8770  173.7910  139.3500 C   0  0  0  0  0  0  0  0  0  0  0  0
  195.1980  174.8130  138.6970 O   0  0  0  0  0  0  0  0  0  0  0  0
  197.0800  173.5610  139.0640 O   0  0  0  0  0  1  0  0  0  0  0  0
  1 16  1  0  0  0  0
  2 24  1  1  0  0  0
  2 27  1  0  0  0  0
  2 12  1  0  0  0  0
  3  4  1  0  0  0  0
  5  6  1  0  0  0  0
  6 28  2  0  0  0  0
  7 19  1  1  0  0  0
  7 24  1  0  0  0  0
  7 17  1  0  0  0  0
  8 12  1  0  0  0  0
  9 26  1  0  0  0  0
 11  3  2  0  0  0  0
 12 13  1  0  0  0  0
 13 22  2  0  0  0  0
 13 11  1  0  0  0  0
 14 23  1  1  0  0  0
 14 22  1  0  0  0  0
 15  9  1  0  0  0  0
 17 10  1  6  0  0  0
 17  8  1  0  0  0  0
 18  6  1  0  0  0  0
 18 15  2  0  0  0  0
 19 16  1  0  0  0  0
 20 29  1  1  0  0  0
 20  1  1  0  0  0  0
 20 10  1  0  0  0  0
 21  4  2  0  0  0  0
 22 21  1  0  0  0  0
 25  5  2  0  0  0  0
 27  5  1  6  0  0  0
 27 14  1  0  0  0  0
 28  9  1  0  0  0  0
 28 23  1  0  0  0  0
 30 29  1  0  0  0  0
 31 30  2  0  0  0  0
 32 30  1  0  0  0  0
M  END
>  <MODEL>
7

>  <REMARK>
 VINA RESULT:      -7.9      2.436      3.801
  Name = 
  1 active torsions:
  status: ('A' for Active; 'I' for Inactive)
    1  A    between atoms: C_20  and  N_29
                            x       y       z     vdW  Elec       q    Type
                         _______ _______ _______ _____ _____    ______ ____

>  <TORSDO>
F 1

$$$$
=
 OpenBabel11112416273D

 32 37  0  0  1  0  0  0  0  0999 V2000
  186.2070  178.9150  143.1820 C   0  0  0  0  0  2  0  0  0  0  0  0
  189.3950  174.5060  141.9190 C   0  0  1  0  0  3  0  0  0  0  0  0
  193.8360  176.0400  143.5670 C   0  0  0  0  0  3  0  0  0  0  0  0
  194.4520  175.0830  142.7630 C   0  0  0  0  0  3  0  0  0  0  0  0
  189.3890  172.8990  139.9410 C   0  0  0  0  0  0  0  0  0  0  0  0
  190.1280  171.8750  139.2020 C   0  0  0  0  0  0  0  0  0  0  0  0
  187.4810  176.0220  142.5280 C   0  0  1  0  0  3  0  0  0  0  0  0
  189.5630  175.9520  143.9580 C   0  0  0  0  0  2  0  0  0  0  0  0
  191.8600  170.7480  138.4760 N   0  0  0  0  0  0  0  0  0  0  0  0
  187.7400  177.4780  144.6680 C   0  0  0  0  0  2  0  0  0  0  0  0
  192.4430  176.1100  143.5930 C   0  0  0  0  0  3  0  0  0  0  0  0
  190.2350  175.2910  142.8400 N   0  0  0  0  0  0  0  0  0  0  0  0
  191.6750  175.2310  142.8160 C   0  0  0  0  0  0  0  0  0  0  0  0
  191.5330  173.2970  141.2230 C   0  0  2  0  0  3  0  0  0  0  0  0
  190.7880  170.2180  137.9030 N   0  0  0  0  0  0  0  0  0  0  0  0
  186.6820  178.2910  141.9400 N   0  0  0  0  0  2  0  0  0  0  0  0
  188.4230  176.8290  143.4550 C   0  0  2  0  0  3  0  0  0  0  0  0
  189.6920  170.8920  138.3320 C   0  0  0  0  0  3  0  0  0  0  0  0
  186.3520  176.8650  141.9170 C   0  0  0  0  0  2  0  0  0  0  0  0
  186.3270  178.0130  144.4240 C   0  0  1  0  0  3  0  0  0  0  0  0
  193.6990  174.2350  142.0140 N   0  0  0  0  0  0  0  0  0  0  0  0
  192.3360  174.2970  142.0030 C   0  0  0  0  0  0  0  0  0  0  0  0
  192.3510  172.6760  140.0680 C   0  0  0  0  0  2  0  0  0  0  0  0
  188.2800  175.4060  141.3860 C   0  0  0  0  0  2  0  0  0  0  0  0
  188.1340  172.9650  139.8490 O   0  0  0  0  0  0  0  0  0  0  0  0
  193.2180  170.2920  138.2380 C   0  0  0  0  0  1  0  0  0  0  0  0
  190.1940  173.9150  140.7390 C   0  0  2  0  0  3  0  0  0  0  0  0
  191.4810  171.7500  139.2810 C   0  0  0  0  0  0  0  0  0  0  0  0
  185.8690  178.7250  145.6070 N   0  0  0  0  0  2  0  0  0  0  0  0
  185.1190  178.0840  146.6390 C   0  0  0  0  0  0  0  0  0  0  0  0
  184.8160  176.7300  146.5580 O   0  0  0  0  0  0  0  0  0  0  0  0
  184.7320  178.7500  147.6340 O   0  0  0  0  0  1  0  0  0  0  0  0
  1 20  1  0  0  0  0
  2 24  1  6  0  0  0
  2 12  1  0  0  0  0
  3 11  1  0  0  0  0
  4  3  2  0  0  0  0
  6 28  2  0  0  0  0
  6  5  1  0  0  0  0
  7 24  1  6  0  0  0
  7 17  1  0  0  0  0
  9 28  1  0  0  0  0
 12  8  1  0  0  0  0
 13 12  1  0  0  0  0
 13 11  2  0  0  0  0
 14 23  1  6  0  0  0
 14 22  1  0  0  0  0
 15 18  2  0  0  0  0
 15  9  1  0  0  0  0
 16  1  1  0  0  0  0
 17  8  1  1  0  0  0
 17 10  1  0  0  0  0
 18  6  1  0  0  0  0
 19 16  1  0  0  0  0
 19  7  1  0  0  0  0
 20 10  1  0  0  0  0
 20 29  1  1  0  0  0
 21  4  1  0  0  0  0
 22 21  2  0  0  0  0
 22 13  1  0  0  0  0
 25  5  2  0  0  0  0
 26  9  1  0  0  0  0
 27  5  1  1  0  0  0
 27 14  1  0  0  0  0
 27  2  1  0  0  0  0
 28 23  1  0  0  0  0
 29 30  1  0  0  0  0
 30 32  1  0  0  0  0
 31 30  2  0  0  0  0
M  END
>  <MODEL>
8

>  <REMARK>
 VINA RESULT:      -7.8      3.493      8.362
  Name = 
  1 active torsions:
  status: ('A' for Active; 'I' for Inactive)
    1  A    between atoms: C_20  and  N_29
                            x       y       z     vdW  Elec       q    Type
                         _______ _______ _______ _____ _____    ______ ____

>  <TORSDO>
F 1

$$$$
=
 OpenBabel11112416273D

 32 37  0  0  1  0  0  0  0  0999 V2000
  186.8820  177.8230  142.5890 C   0  0  0  0  0  2  0  0  0  0  0  0
  190.4790  173.8410  144.1420 C   0  0  1  0  0  3  0  0  0  0  0  0
  194.0510  176.5680  146.2850 C   0  0  0  0  0  3  0  0  0  0  0  0
  194.9370  175.5030  146.1380 C   0  0  0  0  0  3  0  0  0  0  0  0
  191.1960  171.6580  143.0410 C   0  0  0  0  0  0  0  0  0  0  0  0
  192.1790  170.5740  143.0120 C   0  0  0  0  0  0  0  0  0  0  0  0
  188.4130  175.1380  143.5210 C   0  0  1  0  0  3  0  0  0  0  0  0
  189.9000  175.9240  145.4070 C   0  0  0  0  0  2  0  0  0  0  0  0
  194.0970  169.5630  143.3260 N   0  0  0  0  0  0  0  0  0  0  0  0
  187.8860  177.2820  144.8960 C   0  0  0  0  0  2  0  0  0  0  0  0
  192.7270  176.4130  145.8720 C   0  0  0  0  0  3  0  0  0  0  0  0
  190.9310  175.0290  144.8860 N   0  0  0  0  0  0  0  0  0  0  0  0
  192.2980  175.2010  145.3110 C   0  0  0  0  0  0  0  0  0  0  0  0
  192.7720  172.8320  144.6330 C   0  0  2  0  0  3  0  0  0  0  0  0
  193.2980  168.6950  142.7180 N   0  0  0  0  0  0  0  0  0  0  0  0
  187.7690  176.8850  141.8890 N   0  0  0  0  0  2  0  0  0  0  0  0
  188.9600  176.3650  144.2910 C   0  0  2  0  0  3  0  0  0  0  0  0
  192.0970  169.2880  142.5070 C   0  0  0  0  0  3  0  0  0  0  0  0
  187.5220  175.5110  142.3270 C   0  0  0  0  0  2  0  0  0  0  0  0
  186.6160  177.4550  144.0610 C   0  0  1  0  0  3  0  0  0  0  0  0
  194.5110  174.3320  145.5930 N   0  0  0  0  0  0  0  0  0  0  0  0
  193.2290  174.1610  145.1600 C   0  0  0  0  0  0  0  0  0  0  0  0
  193.9520  171.9850  144.1070 C   0  0  0  0  0  2  0  0  0  0  0  0
  189.5720  174.2960  142.9990 C   0  0  0  0  0  2  0  0  0  0  0  0
  190.0420  171.4800  142.5660 O   0  0  0  0  0  0  0  0  0  0  0  0
  195.4730  169.2820  143.6950 C   0  0  0  0  0  1  0  0  0  0  0  0
  191.6480  173.0090  143.5770 C   0  0  2  0  0  3  0  0  0  0  0  0
  193.4310  170.7090  143.5270 C   0  0  0  0  0  0  0  0  0  0  0  0
  185.7620  178.4560  144.6810 N   0  0  0  0  0  2  0  0  0  0  0  0
  184.8760  178.1410  145.7560 C   0  0  0  0  0  0  0  0  0  0  0  0
  184.8160  176.8510  146.2690 O   0  0  0  0  0  1  0  0  0  0  0  0
  184.1450  179.0410  146.2450 O   0  0  0  0  0  0  0  0  0  0  0  0
  1 20  1  0  0  0  0
  2 24  1  6  0  0  0
  2 12  1  0  0  0  0
  4  3  1  0  0  0  0
  6  5  1  0  0  0  0
  6 28  2  0  0  0  0
  7 19  1  6  0  0  0
  7 17  1  0  0  0  0
  9 28  1  0  0  0  0
  9 26  1  0  0  0  0
 11  3  2  0  0  0  0
 12 13  1  0  0  0  0
 12  8  1  0  0  0  0
 13 11  1  0  0  0  0
 14 23  1  6  0  0  0
 14 22  1  0  0  0  0
 15  9  1  0  0  0  0
 16 19  1  0  0  0  0
 16  1  1  0  0  0  0
 17 10  1  1  0  0  0
 17  8  1  0  0  0  0
 18 15  2  0  0  0  0
 18  6  1  0  0  0  0
 20 29  1  1  0  0  0
 20 10  1  0  0  0  0
 21  4  2  0  0  0  0
 22 13  2  0  0  0  0
 22 21  1  0  0  0  0
 24  7  1  0  0  0  0
 25  5  2  0  0  0  0
 27  5  1  1  0  0  0
 27  2  1  0  0  0  0
 27 14  1  0  0  0  0
 28 23  1  0  0  0  0
 29 30  1  0  0  0  0
 30 32  2  0  0  0  0
 30 31  1  0  0  0  0
M  END
>  <MODEL>
9

>  <REMARK>
 VINA RESULT:      -7.8      3.388      9.004
  Name = 
  1 active torsions:
  status: ('A' for Active; 'I' for Inactive)
    1  A    between atoms: C_20  and  N_29
                            x       y       z     vdW  Elec       q    Type
                         _______ _______ _______ _____ _____    ______ ____

>  <TORSDO>
F 1

$$$$
