=
 OpenBabel11112416283D

 32 38  0  0  1  0  0  0  0  0999 V2000
  189.4140  172.4820  143.3130 C   0  0  2  0  0  3  0  0  0  0  0  0
  186.7190  176.8050  142.8890 C   0  0  0  0  0  0  0  0  0  0  0  0
  186.4060  177.9790  147.6110 C   0  0  0  0  0  3  0  0  0  0  0  0
  185.1660  178.5740  147.3820 C   0  0  0  0  0  3  0  0  0  0  0  0
  184.9510  177.5240  141.2070 C   0  0  0  0  0  0  0  0  0  0  0  0
  183.5100  177.9250  141.1700 C   0  0  0  0  0  0  0  0  0  0  0  0
  188.4220  175.0740  142.1640 C   0  0  1  0  0  3  0  0  0  0  0  0
  188.5470  176.0900  144.4300 C   0  0  0  0  0  3  0  0  0  0  0  0
  181.6120  178.7590  141.7940 C   0  0  0  0  0  0  0  0  0  0  0  0
  190.3770  174.5650  143.8830 C   0  0  0  0  0  2  0  0  0  0  0  0
  187.1050  177.3910  146.5540 C   0  0  0  0  0  3  0  0  0  0  0  0
  187.2640  176.7860  144.1890 C   0  0  0  0  0  0  0  0  0  0  0  0
  186.5730  177.3950  145.2530 C   0  0  0  0  0  0  0  0  0  0  0  0
  184.7620  178.0110  143.7330 C   0  0  0  0  0  0  0  0  0  0  0  0
  181.5180  178.4390  140.4870 N   0  0  0  0  0  0  0  0  0  0  0  0
  188.5740  172.5080  142.0480 C   0  0  0  0  0  2  0  0  0  0  0  0
  189.1250  175.3270  143.5000 C   0  0  0  0  0  0  0  0  0  0  0  0
  182.6880  177.9320  140.1000 N   0  0  0  0  0  0  0  0  0  0  0  0
  187.6480  173.7390  142.1200 C   0  0  0  0  0  2  0  0  0  0  0  0
  190.5580  173.4050  142.9240 C   0  0  1  0  0  3  0  0  0  0  0  0
  184.6230  178.5840  146.0950 C   0  0  0  0  0  3  0  0  0  0  0  0
  185.3150  178.0010  145.0230 C   0  0  1  0  0  3  0  0  0  0  0  0
  183.4450  178.5580  143.5310 N   0  0  0  0  0  0  0  0  0  0  0  0
  187.5280  176.2430  141.7460 C   0  0  0  0  0  2  0  0  0  0  0  0
  185.7600  178.5400  140.4160 C   0  0  0  0  0  1  0  0  0  0  0  0
  180.5550  179.3160  142.5660 N   0  0  0  0  0  1  0  0  0  0  0  0
  185.4820  177.4380  142.6410 C   0  0  0  0  0  0  0  0  0  0  0  0
  182.8650  178.4480  142.2390 C   0  0  0  0  0  0  0  0  0  0  0  0
  190.8610  172.0080  143.4160 C   0  0  2  0  0  3  0  0  0  0  0  0
  191.2290  171.1070  142.2800 C   0  0  0  0  0  0  0  0  0  0  0  0
  191.9000  171.6130  141.1730 O   0  0  0  0  0  0  0  0  0  0  0  0
  190.9670  169.8760  142.3420 O   0  0  0  0  0  1  0  0  0  0  0  0
  1 16  1  6  0  0  0
  1 29  1  0  0  0  0
  2 12  1  0  0  0  0
  4  3  1  0  0  0  0
  5 27  1  0  0  0  0
  6  5  2  0  0  0  0
  6 28  1  0  0  0  0
  7 24  1  1  0  0  0
  7 17  1  0  0  0  0
  9 28  2  0  0  0  0
  9 26  1  0  0  0  0
 11  3  2  0  0  0  0
 12  8  1  0  0  0  0
 12 13  2  0  0  0  0
 13 11  1  0  0  0  0
 14 22  1  0  0  0  0
 15  9  1  0  0  0  0
 16 19  1  0  0  0  0
 17 10  1  0  0  0  0
 17  8  2  0  0  0  0
 18 15  2  0  0  0  0
 18  6  1  0  0  0  0
 19  7  1  0  0  0  0
 20  1  1  0  0  0  0
 20 29  1  0  0  0  0
 20 10  1  1  0  0  0
 21  4  2  0  0  0  0
 22 13  1  0  0  0  0
 22 21  1  1  0  0  0
 23 14  2  0  0  0  0
 24  2  1  0  0  0  0
 25  5  1  0  0  0  0
 27  2  2  0  0  0  0
 27 14  1  0  0  0  0
 28 23  1  0  0  0  0
 29 30  1  6  0  0  0
 30 32  1  0  0  0  0
 31 30  2  0  0  0  0
M  END
>  <MODEL>
1

>  <REMARK>
 VINA RESULT:      -9.3      0.000      0.000
  Name = 
  1 active torsions:
  status: ('A' for Active; 'I' for Inactive)
    1  A    between atoms: C_29  and  C_30
                            x       y       z     vdW  Elec       q    Type
                         _______ _______ _______ _____ _____    ______ ____

>  <TORSDO>
F 1

$$$$
=
 OpenBabel11112416283D

 32 38  0  0  1  0  0  0  0  0999 V2000
  191.9990  174.1340  145.5980 C   0  0  2  0  0  3  0  0  0  0  0  0
  188.4880  177.4870  143.9960 C   0  0  0  0  0  0  0  0  0  0  0  0
  186.1280  178.1920  148.2030 C   0  0  0  0  0  3  0  0  0  0  0  0
  184.9410  178.4090  147.5030 C   0  0  0  0  0  3  0  0  0  0  0  0
  187.3340  177.7640  141.7460 C   0  0  0  0  0  0  0  0  0  0  0  0
  185.9590  177.7230  141.1590 C   0  0  0  0  0  0  0  0  0  0  0  0
  190.7720  176.3900  144.0390 C   0  0  1  0  0  3  0  0  0  0  0  0
  189.7460  177.2400  146.1380 C   0  0  0  0  0  3  0  0  0  0  0  0
  183.8080  177.9160  140.9940 C   0  0  0  0  0  0  0  0  0  0  0  0
  192.0150  176.3650  146.3820 C   0  0  0  0  0  2  0  0  0  0  0  0
  187.3070  177.9100  147.5100 C   0  0  0  0  0  3  0  0  0  0  0  0
  188.4970  177.5420  145.4050 C   0  0  0  0  0  0  0  0  0  0  0  0
  187.3150  177.8450  146.1070 C   0  0  0  0  0  0  0  0  0  0  0  0
  186.0940  178.0000  143.9960 C   0  0  0  0  0  0  0  0  0  0  0  0
  184.3010  177.6710  139.7630 N   0  0  0  0  0  0  0  0  0  0  0  0
  191.7160  173.9970  144.1120 C   0  0  0  0  0  2  0  0  0  0  0  0
  190.8250  176.7470  145.5260 C   0  0  0  0  0  0  0  0  0  0  0  0
  185.6250  177.5610  139.8620 N   0  0  0  0  0  0  0  0  0  0  0  0
  190.5060  174.8920  143.7760 C   0  0  0  0  0  2  0  0  0  0  0  0
  192.8740  175.3780  145.6160 C   0  0  1  0  0  3  0  0  0  0  0  0
  184.9330  178.3450  146.1080 C   0  0  0  0  0  3  0  0  0  0  0  0
  186.1110  178.0670  145.3970 C   0  0  1  0  0  3  0  0  0  0  0  0
  184.8440  178.1470  143.2950 N   0  0  0  0  0  0  0  0  0  0  0  0
  189.7890  177.2680  143.2630 C   0  0  0  0  0  2  0  0  0  0  0  0
  188.0330  179.0260  141.2630 C   0  0  0  0  0  1  0  0  0  0  0  0
  182.4270  178.0820  141.2920 N   0  0  0  0  0  1  0  0  0  0  0  0
  187.3010  177.7410  143.2780 C   0  0  0  0  0  0  0  0  0  0  0  0
  184.8410  177.9590  141.8860 C   0  0  0  0  0  0  0  0  0  0  0  0
  193.3770  174.1030  146.2520 C   0  0  2  0  0  3  0  0  0  0  0  0
  194.3890  173.4300  145.3790 C   0  0  0  0  0  0  0  0  0  0  0  0
  195.2210  174.1840  144.5620 O   0  0  0  0  0  0  0  0  0  0  0  0
  194.5150  172.1770  145.4110 O   0  0  0  0  0  1  0  0  0  0  0  0
  1 16  1  6  0  0  0
  1 20  1  0  0  0  0
  1 29  1  0  0  0  0
  2 12  1  0  0  0  0
  4  3  1  0  0  0  0
  5 27  1  0  0  0  0
  6  5  2  0  0  0  0
  6 28  1  0  0  0  0
  7 24  1  6  0  0  0
  7 17  1  0  0  0  0
  9 26  1  0  0  0  0
  9 28  2  0  0  0  0
 11  3  2  0  0  0  0
 12 13  2  0  0  0  0
 12  8  1  0  0  0  0
 13 11  1  0  0  0  0
 14 22  1  0  0  0  0
 15 18  2  0  0  0  0
 15  9  1  0  0  0  0
 17  8  2  0  0  0  0
 17 10  1  0  0  0  0
 18  6  1  0  0  0  0
 19  7  1  0  0  0  0
 19 16  1  0  0  0  0
 20 29  1  0  0  0  0
 20 10  1  1  0  0  0
 21  4  2  0  0  0  0
 22 13  1  0  0  0  0
 22 21  1  1  0  0  0
 23 14  2  0  0  0  0
 24  2  1  0  0  0  0
 25  5  1  0  0  0  0
 27  2  2  0  0  0  0
 27 14  1  0  0  0  0
 28 23  1  0  0  0  0
 29 30  1  6  0  0  0
 30 32  1  0  0  0  0
 31 30  2  0  0  0  0
M  END
>  <MODEL>
2

>  <REMARK>
 VINA RESULT:      -8.8      2.333      2.955
  Name = 
  1 active torsions:
  status: ('A' for Active; 'I' for Inactive)
    1  A    between atoms: C_29  and  C_30
                            x       y       z     vdW  Elec       q    Type
                         _______ _______ _______ _____ _____    ______ ____

>  <TORSDO>
F 1

$$$$
=
 OpenBabel11112416283D

 32 38  0  0  1  0  0  0  0  0999 V2000
  189.8810  171.8990  140.5200 C   0  0  2  0  0  3  0  0  0  0  0  0
  188.8190  176.1570  143.1410 C   0  0  0  0  0  0  0  0  0  0  0  0
  192.0700  175.6720  146.7420 C   0  0  0  0  0  3  0  0  0  0  0  0
  191.2040  176.3300  147.6140 C   0  0  0  0  0  3  0  0  0  0  0  0
  186.6410  177.4330  143.4620 C   0  0  0  0  0  0  0  0  0  0  0  0
  185.7150  177.8480  144.5610 C   0  0  0  0  0  0  0  0  0  0  0  0
  189.0780  174.7440  141.0540 C   0  0  1  0  0  3  0  0  0  0  0  0
  190.9450  174.9310  142.6860 C   0  0  0  0  0  3  0  0  0  0  0  0
  185.0250  178.4550  146.5220 C   0  0  0  0  0  0  0  0  0  0  0  0
  191.4640  173.6500  140.6700 C   0  0  0  0  0  2  0  0  0  0  0  0
  191.6970  175.4630  145.4120 C   0  0  0  0  0  3  0  0  0  0  0  0
  190.0660  175.6910  143.6030 C   0  0  0  0  0  0  0  0  0  0  0  0
  190.4550  175.9160  144.9370 C   0  0  0  0  0  0  0  0  0  0  0  0
  188.3290  177.0410  145.3720 C   0  0  0  0  0  0  0  0  0  0  0  0
  184.0000  178.5970  145.6560 N   0  0  0  0  0  0  0  0  0  0  0  0
  188.4540  172.3660  140.2950 C   0  0  0  0  0  2  0  0  0  0  0  0
  190.5280  174.5180  141.4870 C   0  0  0  0  0  0  0  0  0  0  0  0
  184.4260  178.2310  144.4480 N   0  0  0  0  0  0  0  0  0  0  0  0
  188.1700  173.5160  141.2820 C   0  0  0  0  0  2  0  0  0  0  0  0
  190.6510  172.8790  139.6490 C   0  0  1  0  0  3  0  0  0  0  0  0
  189.9640  176.7840  147.1580 C   0  0  0  0  0  3  0  0  0  0  0  0
  189.5780  176.5860  145.8240 C   0  0  0  0  0  0  0  0  0  0  0  0
  187.4160  177.6460  146.3070 N   0  0  0  0  0  0  0  0  0  0  0  0
  188.4710  176.0000  141.6810 C   0  0  0  0  0  2  0  0  0  0  0  0
  186.9310  178.6420  142.5870 C   0  0  0  0  0  1  0  0  0  0  0  0
  184.9490  178.7370  147.9140 N   0  0  0  0  0  1  0  0  0  0  0  0
  187.9520  176.8580  144.0070 C   0  0  0  0  0  0  0  0  0  0  0  0
  186.1170  177.9900  145.8460 C   0  0  1  0  0  3  0  0  0  0  0  0
  190.8370  171.3940  139.4440 C   0  0  2  0  0  3  0  0  0  0  0  0
  190.1020  170.9220  138.2290 C   0  0  0  0  0  0  0  0  0  0  0  0
  189.9090  171.7780  137.1510 O   0  0  0  0  0  0  0  0  0  0  0  0
  189.6890  169.7340  138.1630 O   0  0  0  0  0  1  0  0  0  0  0  0
  1 16  1  6  0  0  0
  2 12  2  0  0  0  0
  2 27  1  0  0  0  0
  3  4  1  0  0  0  0
  5 27  2  0  0  0  0
  5  6  1  0  0  0  0
  7 19  1  1  0  0  0
  7 17  1  0  0  0  0
  7 24  1  0  0  0  0
  8 12  1  0  0  0  0
  9 26  1  0  0  0  0
 10 17  1  0  0  0  0
 11  3  2  0  0  0  0
 12 13  1  0  0  0  0
 13 11  1  0  0  0  0
 13 22  2  0  0  0  0
 14 22  1  0  0  0  0
 14 23  2  0  0  0  0
 15  9  2  0  0  0  0
 16 19  1  0  0  0  0
 17  8  2  0  0  0  0
 18  6  2  0  0  0  0
 18 15  1  0  0  0  0
 20  1  1  0  0  0  0
 20 10  1  1  0  0  0
 21  4  2  0  0  0  0
 22 21  1  0  0  0  0
 24  2  1  0  0  0  0
 25  5  1  0  0  0  0
 27 14  1  0  0  0  0
 28  6  1  1  0  0  0
 28 23  1  0  0  0  0
 28  9  1  0  0  0  0
 29 30  1  6  0  0  0
 29 20  1  0  0  0  0
 29  1  1  0  0  0  0
 31 30  2  0  0  0  0
 32 30  1  0  0  0  0
M  END
>  <MODEL>
3

>  <REMARK>
 VINA RESULT:      -8.6      2.596      4.184
  Name = 
  1 active torsions:
  status: ('A' for Active; 'I' for Inactive)
    1  A    between atoms: C_29  and  C_30
                            x       y       z     vdW  Elec       q    Type
                         _______ _______ _______ _____ _____    ______ ____

>  <TORSDO>
F 1

$$$$
=
 OpenBabel11112416283D

 32 38  0  0  1  0  0  0  0  0999 V2000
  186.1970  176.8460  145.7490 C   0  0  2  0  0  3  0  0  0  0  0  0
  190.4720  174.9290  143.7030 C   0  0  0  0  0  0  0  0  0  0  0  0
  188.6100  173.1530  139.5620 C   0  0  0  0  0  3  0  0  0  0  0  0
  189.5630  172.1350  139.5680 C   0  0  0  0  0  3  0  0  0  0  0  0
  192.5460  173.9260  144.7820 C   0  0  0  0  0  0  0  0  0  0  0  0
  193.3010  172.6350  144.8160 C   0  0  0  0  0  0  0  0  0  0  0  0
  189.1080  176.5840  145.0530 C   0  0  1  0  0  3  0  0  0  0  0  0
  188.4660  176.0370  142.7140 C   0  0  0  0  0  3  0  0  0  0  0  0
  194.1190  170.7370  144.1700 C   0  0  0  0  0  0  0  0  0  0  0  0
  187.1100  177.7720  143.7740 C   0  0  0  0  0  2  0  0  0  0  0  0
  188.5950  174.1040  140.5860 C   0  0  0  0  0  3  0  0  0  0  0  0
  189.5150  174.9940  142.6700 C   0  0  0  0  0  0  0  0  0  0  0  0
  189.5370  174.0500  141.6260 C   0  0  0  0  0  0  0  0  0  0  0  0
  191.4520  172.9400  142.6640 C   0  0  0  0  0  0  0  0  0  0  0  0
  194.6930  171.0600  145.3470 N   0  0  0  0  0  0  0  0  0  0  0  0
  187.2280  176.4950  146.8070 C   0  0  0  0  0  2  0  0  0  0  0  0
  188.2830  176.8130  143.7840 C   0  0  0  0  0  0  0  0  0  0  0  0
  194.1960  172.2310  145.7410 N   0  0  0  0  0  2  0  0  0  0  0  0
  188.3770  175.7350  146.1150 C   0  0  0  0  0  2  0  0  0  0  0  0
  186.7690  178.1450  145.2030 C   0  0  1  0  0  3  0  0  0  0  0  0
  190.5050  172.0670  140.5980 C   0  0  0  0  0  3  0  0  0  0  0  0
  190.5050  173.0170  141.6300 C   0  0  0  0  0  0  0  0  0  0  0  0
  192.3760  171.8360  142.6970 N   0  0  0  0  0  0  0  0  0  0  0  0
  190.4950  176.0150  144.7510 C   0  0  0  0  0  2  0  0  0  0  0  0
  193.5300  175.0580  144.5290 C   0  0  0  0  0  1  0  0  0  0  0  0
  194.3900  169.5450  143.4410 N   0  0  0  0  0  1  0  0  0  0  0  0
  191.4630  173.9240  143.6980 C   0  0  0  0  0  0  0  0  0  0  0  0
  193.2440  171.7230  143.8150 C   0  0  0  0  0  0  0  0  0  0  0  0
  185.3480  178.1130  145.7140 C   0  0  2  0  0  3  0  0  0  0  0  0
  185.2470  178.7490  147.0650 C   0  0  0  0  0  0  0  0  0  0  0  0
  186.1250  179.7620  147.4290 O   0  0  0  0  0  0  0  0  0  0  0  0
  184.3400  178.3930  147.8630 O   0  0  0  0  0  1  0  0  0  0  0  0
  1 16  1  1  0  0  0
  2 24  1  0  0  0  0
  3  4  2  0  0  0  0
  3 11  1  0  0  0  0
  4 21  1  0  0  0  0
  5  6  1  0  0  0  0
  6 18  1  0  0  0  0
  7 24  1  6  0  0  0
  7 19  1  0  0  0  0
  8 17  2  0  0  0  0
  9 15  2  0  0  0  0
 10 17  1  0  0  0  0
 11 13  2  0  0  0  0
 12  8  1  0  0  0  0
 12  2  2  0  0  0  0
 13 22  1  0  0  0  0
 13 12  1  0  0  0  0
 14 23  2  0  0  0  0
 14 27  1  0  0  0  0
 15 18  1  0  0  0  0
 17  7  1  0  0  0  0
 19 16  1  0  0  0  0
 20 10  1  6  0  0  0
 20 29  1  0  0  0  0
 20  1  1  0  0  0  0
 21 22  2  0  0  0  0
 22 14  1  0  0  0  0
 23 28  1  0  0  0  0
 25  5  1  0  0  0  0
 26  9  1  0  0  0  0
 27  2  1  0  0  0  0
 27  5  2  0  0  0  0
 28  9  1  0  0  0  0
 28  6  2  0  0  0  0
 29  1  1  0  0  0  0
 29 30  1  1  0  0  0
 30 31  2  0  0  0  0
 30 32  1  0  0  0  0
M  END
>  <MODEL>
4

>  <REMARK>
 VINA RESULT:      -8.4      5.714      9.421
  Name = 
  1 active torsions:
  status: ('A' for Active; 'I' for Inactive)
    1  A    between atoms: C_29  and  C_30
                            x       y       z     vdW  Elec       q    Type
                         _______ _______ _______ _____ _____    ______ ____

>  <TORSDO>
F 1

$$$$
=
 OpenBabel11112416283D

 32 38  0  0  1  0  0  0  0  0999 V2000
  186.5670  176.8600  145.8150 C   0  0  2  0  0  3  0  0  0  0  0  0
  191.1990  175.8690  143.8920 C   0  0  0  0  0  0  0  0  0  0  0  0
  189.8780  173.1230  140.0870 C   0  0  0  0  0  3  0  0  0  0  0  0
  191.0650  172.4000  140.1940 C   0  0  0  0  0  3  0  0  0  0  0  0
  193.4630  175.5990  145.0210 C   0  0  0  0  0  0  0  0  0  0  0  0
  194.5320  174.5670  145.1980 C   0  0  0  0  0  0  0  0  0  0  0  0
  189.4450  177.2760  145.0590 C   0  0  1  0  0  3  0  0  0  0  0  0
  188.9740  176.2680  142.8360 C   0  0  0  0  0  3  0  0  0  0  0  0
  195.8230  172.8800  144.7790 C   0  0  0  0  0  0  0  0  0  0  0  0
  187.2060  177.7150  143.7050 C   0  0  0  0  0  2  0  0  0  0  0  0
  189.6110  174.1660  140.9770 C   0  0  0  0  0  3  0  0  0  0  0  0
  190.2600  175.5400  142.8930 C   0  0  0  0  0  0  0  0  0  0  0  0
  190.5330  174.5020  141.9820 C   0  0  0  0  0  0  0  0  0  0  0  0
  192.6710  174.0830  143.0900 C   0  0  0  0  0  0  0  0  0  0  0  0
  196.2890  173.4980  145.8840 N   0  0  0  0  0  0  0  0  0  0  0  0
  187.6520  176.9380  146.8740 C   0  0  0  0  0  2  0  0  0  0  0  0
  188.5910  177.1070  143.8000 C   0  0  0  0  0  0  0  0  0  0  0  0
  195.5000  174.5410  146.1380 N   0  0  0  0  0  2  0  0  0  0  0  0
  188.9620  176.4180  146.2490 C   0  0  0  0  0  2  0  0  0  0  0  0
  186.7770  178.1760  145.0840 C   0  0  1  0  0  3  0  0  0  0  0  0
  191.9900  172.7210  141.1900 C   0  0  0  0  0  3  0  0  0  0  0  0
  191.7390  173.7690  142.0890 C   0  0  0  0  0  0  0  0  0  0  0  0
  193.8530  173.2740  143.2360 N   0  0  0  0  0  0  0  0  0  0  0  0
  190.9340  177.0540  144.7880 C   0  0  0  0  0  2  0  0  0  0  0  0
  194.1130  176.9040  144.5880 C   0  0  0  0  0  1  0  0  0  0  0  0
  196.3990  171.7130  144.2050 N   0  0  0  0  0  1  0  0  0  0  0  0
  192.4200  175.1670  143.9850 C   0  0  0  0  0  0  0  0  0  0  0  0
  194.7190  173.5450  144.3290 C   0  0  0  0  0  0  0  0  0  0  0  0
  185.4140  177.8430  145.6440 C   0  0  2  0  0  3  0  0  0  0  0  0
  185.1470  178.6080  146.9020 C   0  0  0  0  0  0  0  0  0  0  0  0
  185.9410  179.6960  147.2410 O   0  0  0  0  0  0  0  0  0  0  0  0
  184.1760  178.2910  147.6380 O   0  0  0  0  0  1  0  0  0  0  0  0
  1 16  1  1  0  0  0
  2 27  1  0  0  0  0
  2 24  1  0  0  0  0
  3  4  2  0  0  0  0
  3 11  1  0  0  0  0
  4 21  1  0  0  0  0
  5  6  1  0  0  0  0
  6 18  1  0  0  0  0
  7 24  1  6  0  0  0
  7 19  1  0  0  0  0
  8 12  1  0  0  0  0
  8 17  2  0  0  0  0
  9 15  2  0  0  0  0
 10 17  1  0  0  0  0
 11 13  2  0  0  0  0
 12  2  2  0  0  0  0
 13 22  1  0  0  0  0
 13 12  1  0  0  0  0
 14 23  2  0  0  0  0
 14 27  1  0  0  0  0
 15 18  1  0  0  0  0
 17  7  1  0  0  0  0
 19 16  1  0  0  0  0
 20 10  1  6  0  0  0
 20 29  1  0  0  0  0
 20  1  1  0  0  0  0
 21 22  2  0  0  0  0
 22 14  1  0  0  0  0
 23 28  1  0  0  0  0
 25  5  1  0  0  0  0
 26  9  1  0  0  0  0
 27  5  2  0  0  0  0
 28  9  1  0  0  0  0
 28  6  2  0  0  0  0
 29  1  1  0  0  0  0
 29 30  1  1  0  0  0
 30 31  2  0  0  0  0
 30 32  1  0  0  0  0
M  END
>  <MODEL>
5

>  <REMARK>
 VINA RESULT:      -8.4      6.000      9.676
  Name = 
  1 active torsions:
  status: ('A' for Active; 'I' for Inactive)
    1  A    between atoms: C_29  and  C_30
                            x       y       z     vdW  Elec       q    Type
                         _______ _______ _______ _____ _____    ______ ____

>  <TORSDO>
F 1

$$$$
=
 OpenBabel11112416283D

 32 38  0  0  1  0  0  0  0  0999 V2000
  187.3600  177.9090  145.4300 C   0  0  2  0  0  3  0  0  0  0  0  0
  190.9070  174.9370  143.2570 C   0  0  0  0  0  0  0  0  0  0  0  0
  194.8890  176.8970  145.2750 C   0  0  0  0  0  3  0  0  0  0  0  0
  195.6230  176.5870  144.1300 C   0  0  0  0  0  3  0  0  0  0  0  0
  190.9770  173.7920  140.9860 C   0  0  0  0  0  0  0  0  0  0  0  0
  191.7980  173.7920  139.7360 C   0  0  0  0  0  0  0  0  0  0  0  0
  188.6390  175.4540  144.2630 C   0  0  1  0  0  3  0  0  0  0  0  0
  190.7210  175.9820  145.5160 C   0  0  0  0  0  3  0  0  0  0  0  0
  193.5170  173.9530  138.4280 C   0  0  0  0  0  0  0  0  0  0  0  0
  188.6480  176.4160  146.7350 C   0  0  0  0  0  2  0  0  0  0  0  0
  193.5340  176.5660  145.3470 C   0  0  0  0  0  3  0  0  0  0  0  0
  191.5280  175.5960  144.3380 C   0  0  0  0  0  0  0  0  0  0  0  0
  192.8980  175.9150  144.2770 C   0  0  0  0  0  0  0  0  0  0  0  0
  193.0280  174.9550  142.0330 C   0  0  0  0  0  0  0  0  0  0  0  0
  192.4920  173.4480  137.7110 N   0  0  0  0  0  0  0  0  0  0  0  0
  186.8880  177.3330  144.1070 C   0  0  0  0  0  2  0  0  0  0  0  0
  189.3900  175.8880  145.5250 C   0  0  0  0  0  0  0  0  0  0  0  0
  191.4370  173.3420  138.5160 N   0  0  0  0  0  0  0  0  0  0  0  0
  188.0900  176.6370  143.4370 C   0  0  0  0  0  2  0  0  0  0  0  0
  187.2120  176.7030  146.3440 C   0  0  1  0  0  3  0  0  0  0  0  0
  195.0040  175.9420  143.0570 C   0  0  0  0  0  3  0  0  0  0  0  0
  193.6450  175.5990  143.1170 C   0  0  1  0  0  3  0  0  0  0  0  0
  193.7820  174.7160  140.8290 N   0  0  0  0  0  0  0  0  0  0  0  0
  189.4660  174.5090  143.3890 C   0  0  0  0  0  2  0  0  0  0  0  0
  190.7600  172.3530  141.4270 C   0  0  0  0  0  1  0  0  0  0  0  0
  194.8120  174.2220  137.9050 N   0  0  0  0  0  1  0  0  0  0  0  0
  191.6510  174.5860  142.1100 C   0  0  0  0  0  0  0  0  0  0  0  0
  193.0990  174.1680  139.7100 C   0  0  0  0  0  0  0  0  0  0  0  0
  186.5340  178.0030  146.7090 C   0  0  2  0  0  3  0  0  0  0  0  0
  185.0660  177.9430  146.4250 C   0  0  0  0  0  0  0  0  0  0  0  0
  184.3910  179.0750  145.9860 O   0  0  0  0  0  0  0  0  0  0  0  0
  184.4450  176.8540  146.5470 O   0  0  0  0  0  1  0  0  0  0  0  0
  1 16  1  6  0  0  0
  1 20  1  0  0  0  0
  1 29  1  0  0  0  0
  2 24  1  0  0  0  0
  2 12  1  0  0  0  0
  3 11  2  0  0  0  0
  4  3  1  0  0  0  0
  5 25  1  0  0  0  0
  5 27  1  0  0  0  0
  6  5  2  0  0  0  0
  7 24  1  6  0  0  0
  7 17  1  0  0  0  0
  8 17  2  0  0  0  0
  9 28  2  0  0  0  0
 12  8  1  0  0  0  0
 13 12  2  0  0  0  0
 13 11  1  0  0  0  0
 14 27  1  0  0  0  0
 14 22  1  0  0  0  0
 15  9  1  0  0  0  0
 15 18  2  0  0  0  0
 17 10  1  0  0  0  0
 18  6  1  0  0  0  0
 19 16  1  0  0  0  0
 19  7  1  0  0  0  0
 20 29  1  0  0  0  0
 20 10  1  1  0  0  0
 21  4  2  0  0  0  0
 22 21  1  6  0  0  0
 22 13  1  0  0  0  0
 23 14  2  0  0  0  0
 26  9  1  0  0  0  0
 27  2  2  0  0  0  0
 28  6  1  0  0  0  0
 28 23  1  0  0  0  0
 29 30  1  6  0  0  0
 30 32  1  0  0  0  0
 31 30  2  0  0  0  0
M  END
>  <MODEL>
6

>  <REMARK>
 VINA RESULT:      -8.3      5.525      8.595
  Name = 
  1 active torsions:
  status: ('A' for Active; 'I' for Inactive)
    1  A    between atoms: C_29  and  C_30
                            x       y       z     vdW  Elec       q    Type
                         _______ _______ _______ _____ _____    ______ ____

>  <TORSDO>
F 1

$$$$
=
 OpenBabel11112416283D

 32 38  0  0  1  0  0  0  0  0999 V2000
  190.7540  172.0140  143.9000 C   0  0  2  0  0  3  0  0  0  0  0  0
  188.0110  176.2960  143.3870 C   0  0  0  0  0  0  0  0  0  0  0  0
  186.5970  176.8610  148.0180 C   0  0  0  0  0  3  0  0  0  0  0  0
  185.4110  177.4530  147.5850 C   0  0  0  0  0  3  0  0  0  0  0  0
  186.6290  177.1820  141.4430 C   0  0  0  0  0  0  0  0  0  0  0  0
  185.2140  177.5530  141.1270 C   0  0  0  0  0  0  0  0  0  0  0  0
  189.9160  174.7070  142.8690 C   0  0  1  0  0  3  0  0  0  0  0  0
  189.4830  175.4330  145.2070 C   0  0  0  0  0  3  0  0  0  0  0  0
  183.1860  178.2610  141.3980 C   0  0  0  0  0  0  0  0  0  0  0  0
  191.4630  174.0290  144.9150 C   0  0  0  0  0  2  0  0  0  0  0  0
  187.5420  176.4250  147.0860 C   0  0  0  0  0  3  0  0  0  0  0  0
  188.2540  176.1260  144.7650 C   0  0  0  0  0  0  0  0  0  0  0  0
  187.3140  176.5810  145.7080 C   0  0  0  0  0  0  0  0  0  0  0  0
  185.8580  177.3430  143.9000 C   0  0  0  0  0  0  0  0  0  0  0  0
  183.4010  178.1050  140.0760 N   0  0  0  0  0  0  0  0  0  0  0  0
  190.2170  172.1800  142.4900 C   0  0  0  0  0  2  0  0  0  0  0  0
  190.2910  174.8060  144.3500 C   0  0  0  0  0  0  0  0  0  0  0  0
  184.6510  177.6770  139.9080 N   0  0  0  0  0  0  0  0  0  0  0  0
  189.2390  173.3720  142.4940 C   0  0  0  0  0  2  0  0  0  0  0  0
  191.9090  173.0020  143.8920 C   0  0  1  0  0  3  0  0  0  0  0  0
  185.1690  177.6120  146.2190 C   0  0  0  0  0  3  0  0  0  0  0  0
  186.1100  177.1840  145.2710 C   0  0  1  0  0  3  0  0  0  0  0  0
  184.5930  177.8830  143.4700 N   0  0  0  0  0  0  0  0  0  0  0  0
  189.0810  175.9000  142.3990 C   0  0  0  0  0  2  0  0  0  0  0  0
  187.5420  178.3070  140.9820 C   0  0  0  0  0  1  0  0  0  0  0  0
  181.9570  178.6940  141.9700 N   0  0  0  0  0  1  0  0  0  0  0  0
  186.8300  176.9280  142.9410 C   0  0  0  0  0  0  0  0  0  0  0  0
  184.3220  177.9240  142.0760 C   0  0  0  0  0  0  0  0  0  0  0  0
  192.1630  171.5620  144.2720 C   0  0  2  0  0  3  0  0  0  0  0  0
  192.8200  170.8180  143.1520 C   0  0  0  0  0  0  0  0  0  0  0  0
  192.4480  169.5100  142.8670 O   0  0  0  0  0  1  0  0  0  0  0  0
  193.6850  171.3900  142.4380 O   0  0  0  0  0  0  0  0  0  0  0  0
  1 16  1  6  0  0  0
  1 29  1  0  0  0  0
  2 12  1  0  0  0  0
  4  3  1  0  0  0  0
  5 27  1  0  0  0  0
  6  5  2  0  0  0  0
  6 28  1  0  0  0  0
  7 24  1  1  0  0  0
  7 17  1  0  0  0  0
  9 26  1  0  0  0  0
  9 28  2  0  0  0  0
 11  3  2  0  0  0  0
 12  8  1  0  0  0  0
 12 13  2  0  0  0  0
 13 11  1  0  0  0  0
 14 22  1  0  0  0  0
 15  9  1  0  0  0  0
 16 19  1  0  0  0  0
 17 10  1  0  0  0  0
 17  8  2  0  0  0  0
 18 15  2  0  0  0  0
 18  6  1  0  0  0  0
 19  7  1  0  0  0  0
 20  1  1  0  0  0  0
 20 29  1  0  0  0  0
 20 10  1  1  0  0  0
 21  4  2  0  0  0  0
 22 13  1  0  0  0  0
 22 21  1  6  0  0  0
 23 14  2  0  0  0  0
 24  2  1  0  0  0  0
 25  5  1  0  0  0  0
 27  2  2  0  0  0  0
 27 14  1  0  0  0  0
 28 23  1  0  0  0  0
 29 30  1  6  0  0  0
 31 30  1  0  0  0  0
 32 30  2  0  0  0  0
M  END
>  <MODEL>
7

>  <REMARK>
 VINA RESULT:      -8.2      1.274      1.679
  Name = 
  1 active torsions:
  status: ('A' for Active; 'I' for Inactive)
    1  A    between atoms: C_29  and  C_30
                            x       y       z     vdW  Elec       q    Type
                         _______ _______ _______ _____ _____    ______ ____

>  <TORSDO>
F 1

$$$$
=
 OpenBabel11112416283D

 32 38  0  0  1  0  0  0  0  0999 V2000
  191.3680  171.0060  142.4070 C   0  0  2  0  0  3  0  0  0  0  0  0
  189.4990  175.6910  143.2360 C   0  0  0  0  0  0  0  0  0  0  0  0
  191.5420  176.5740  147.5740 C   0  0  0  0  0  3  0  0  0  0  0  0
  190.4440  177.3560  147.9340 C   0  0  0  0  0  3  0  0  0  0  0  0
  187.3020  176.7700  142.5420 C   0  0  0  0  0  0  0  0  0  0  0  0
  186.0840  177.3760  143.1650 C   0  0  0  0  0  0  0  0  0  0  0  0
  190.3910  173.7860  141.8240 C   0  0  1  0  0  3  0  0  0  0  0  0
  191.6860  174.6170  143.7770 C   0  0  0  0  0  3  0  0  0  0  0  0
  184.8320  178.4310  144.5820 C   0  0  0  0  0  0  0  0  0  0  0  0
  192.8030  172.8850  142.4640 C   0  0  0  0  0  2  0  0  0  0  0  0
  191.5840  175.9640  146.3180 C   0  0  0  0  0  3  0  0  0  0  0  0
  190.5610  175.5050  144.1450 C   0  0  0  0  0  0  0  0  0  0  0  0
  190.5310  176.1330  145.4040 C   0  0  0  0  0  0  0  0  0  0  0  0
  188.3530  177.1060  144.8740 C   0  0  0  0  0  0  0  0  0  0  0  0
  184.1080  178.2170  143.4640 N   0  0  0  0  0  0  0  0  0  0  0  0
  190.0640  171.2390  141.6640 C   0  0  0  0  0  2  0  0  0  0  0  0
  191.6520  173.8440  142.6900 C   0  0  0  0  0  0  0  0  0  0  0  0
  184.8800  177.5750  142.5890 N   0  0  0  0  0  0  0  0  0  0  0  0
  189.4790  172.5820  142.1450 C   0  0  0  0  0  2  0  0  0  0  0  0
  192.3440  171.7790  141.5340 C   0  0  1  0  0  3  0  0  0  0  0  0
  189.3880  177.5310  147.0360 C   0  0  0  0  0  3  0  0  0  0  0  0
  189.4190  176.9290  145.7690 C   0  0  1  0  0  3  0  0  0  0  0  0
  187.1930  177.8490  145.2930 N   0  0  0  0  0  0  0  0  0  0  0  0
  189.6040  175.0970  141.8530 C   0  0  0  0  0  2  0  0  0  0  0  0
  187.8170  177.7100  141.4640 C   0  0  0  0  0  1  0  0  0  0  0  0
  184.3400  179.0810  145.7480 N   0  0  0  0  0  1  0  0  0  0  0  0
  188.4020  176.5110  143.5770 C   0  0  0  0  0  0  0  0  0  0  0  0
  186.0830  177.9130  144.4080 C   0  0  0  0  0  0  0  0  0  0  0  0
  192.6090  170.3230  141.8410 C   0  0  2  0  0  3  0  0  0  0  0  0
  192.2770  169.4570  140.6670 C   0  0  0  0  0  0  0  0  0  0  0  0
  191.7030  168.2060  140.8600 O   0  0  0  0  0  1  0  0  0  0  0  0
  192.4810  169.8760  139.4970 O   0  0  0  0  0  0  0  0  0  0  0  0
  1 16  1  6  0  0  0
  2 27  2  0  0  0  0
  2 12  1  0  0  0  0
  3  4  1  0  0  0  0
  5  6  2  0  0  0  0
  5 27  1  0  0  0  0
  6 28  1  0  0  0  0
  7 24  1  1  0  0  0
  7 19  1  0  0  0  0
  7 17  1  0  0  0  0
  8 12  1  0  0  0  0
  9 26  1  0  0  0  0
 10 17  1  0  0  0  0
 11  3  2  0  0  0  0
 12 13  2  0  0  0  0
 13 22  1  0  0  0  0
 13 11  1  0  0  0  0
 14 23  2  0  0  0  0
 14 22  1  0  0  0  0
 15  9  1  0  0  0  0
 16 19  1  0  0  0  0
 17  8  2  0  0  0  0
 18  6  1  0  0  0  0
 18 15  2  0  0  0  0
 20 29  1  0  0  0  0
 20  1  1  0  0  0  0
 20 10  1  1  0  0  0
 21  4  2  0  0  0  0
 22 21  1  1  0  0  0
 24  2  1  0  0  0  0
 25  5  1  0  0  0  0
 27 14  1  0  0  0  0
 28  9  2  0  0  0  0
 28 23  1  0  0  0  0
 29 30  1  6  0  0  0
 29  1  1  0  0  0  0
 30 31  1  0  0  0  0
 32 30  2  0  0  0  0
M  END
>  <MODEL>
8

>  <REMARK>
 VINA RESULT:      -8.0      2.154      3.617
  Name = 
  1 active torsions:
  status: ('A' for Active; 'I' for Inactive)
    1  A    between atoms: C_29  and  C_30
                            x       y       z     vdW  Elec       q    Type
                         _______ _______ _______ _____ _____    ______ ____

>  <TORSDO>
F 1

$$$$
=
 OpenBabel11112416283D

 32 38  0  0  1  0  0  0  0  0999 V2000
  191.1620  171.5440  140.8290 C   0  0  2  0  0  3  0  0  0  0  0  0
  189.7060  175.7370  143.3650 C   0  0  0  0  0  0  0  0  0  0  0  0
  193.3090  175.9400  146.6430 C   0  0  0  0  0  3  0  0  0  0  0  0
  192.4370  176.5110  147.5690 C   0  0  0  0  0  3  0  0  0  0  0  0
  187.3970  176.6900  143.8470 C   0  0  0  0  0  0  0  0  0  0  0  0
  186.5240  177.0240  145.0150 C   0  0  0  0  0  0  0  0  0  0  0  0
  189.9850  174.2630  141.3230 C   0  0  1  0  0  3  0  0  0  0  0  0
  191.9430  174.8160  142.7520 C   0  0  0  0  0  3  0  0  0  0  0  0
  185.9310  177.6300  147.0080 C   0  0  0  0  0  0  0  0  0  0  0  0
  192.4650  173.5150  140.7500 C   0  0  0  0  0  2  0  0  0  0  0  0
  192.8520  175.6040  145.3660 C   0  0  0  0  0  3  0  0  0  0  0  0
  191.0470  175.4860  143.7200 C   0  0  0  0  0  0  0  0  0  0  0  0
  191.5170  175.8400  144.9980 C   0  0  0  0  0  0  0  0  0  0  0  0
  189.2930  176.6600  145.5950 C   0  0  0  0  0  0  0  0  0  0  0  0
  184.8220  177.5700  146.2430 N   0  0  0  0  0  0  0  0  0  0  0  0
  189.6660  171.7800  140.7270 C   0  0  0  0  0  2  0  0  0  0  0  0
  191.4870  174.2790  141.6180 C   0  0  0  0  0  0  0  0  0  0  0  0
  185.1860  177.2050  145.0150 N   0  0  0  0  0  0  0  0  0  0  0  0
  189.3010  172.9280  141.6900 C   0  0  0  0  0  2  0  0  0  0  0  0
  191.6890  172.5770  139.8460 C   0  0  1  0  0  3  0  0  0  0  0  0
  191.1060  176.7490  147.2190 C   0  0  0  0  0  3  0  0  0  0  0  0
  190.6330  176.4220  145.9390 C   0  0  0  0  0  0  0  0  0  0  0  0
  188.3880  177.1750  146.5900 N   0  0  0  0  0  0  0  0  0  0  0  0
  189.2540  175.4490  141.9550 C   0  0  0  0  0  2  0  0  0  0  0  0
  187.4170  177.8790  142.8990 C   0  0  0  0  0  1  0  0  0  0  0  0
  185.9420  177.9750  148.3880 N   0  0  0  0  0  1  0  0  0  0  0  0
  188.8250  176.3480  144.2830 C   0  0  0  0  0  0  0  0  0  0  0  0
  187.0150  177.2960  146.2470 C   0  0  1  0  0  3  0  0  0  0  0  0
  192.0810  171.1260  139.6850 C   0  0  2  0  0  3  0  0  0  0  0  0
  191.3180  170.4840  138.5700 C   0  0  0  0  0  0  0  0  0  0  0  0
  190.9170  171.2360  137.4720 O   0  0  0  0  0  0  0  0  0  0  0  0
  191.0720  169.2500  138.6040 O   0  0  0  0  0  1  0  0  0  0  0  0
  1 16  1  6  0  0  0
  2 12  2  0  0  0  0
  2 27  1  0  0  0  0
  3  4  1  0  0  0  0
  5 27  2  0  0  0  0
  5  6  1  0  0  0  0
  7 17  1  0  0  0  0
  7 19  1  1  0  0  0
  7 24  1  0  0  0  0
  8 12  1  0  0  0  0
  9 26  1  0  0  0  0
 10 17  1  0  0  0  0
 11  3  2  0  0  0  0
 12 13  1  0  0  0  0
 13 11  1  0  0  0  0
 13 22  2  0  0  0  0
 14 22  1  0  0  0  0
 14 23  2  0  0  0  0
 15  9  2  0  0  0  0
 16 19  1  0  0  0  0
 17  8  2  0  0  0  0
 18  6  2  0  0  0  0
 18 15  1  0  0  0  0
 20 10  1  1  0  0  0
 20  1  1  0  0  0  0
 21  4  2  0  0  0  0
 22 21  1  0  0  0  0
 24  2  1  0  0  0  0
 25  5  1  0  0  0  0
 27 14  1  0  0  0  0
 28  6  1  1  0  0  0
 28 23  1  0  0  0  0
 28  9  1  0  0  0  0
 29 30  1  6  0  0  0
 29 20  1  0  0  0  0
 29  1  1  0  0  0  0
 30 32  1  0  0  0  0
 31 30  2  0  0  0  0
M  END
>  <MODEL>
9

>  <REMARK>
 VINA RESULT:      -7.8      2.915      4.882
  Name = 
  1 active torsions:
  status: ('A' for Active; 'I' for Inactive)
    1  A    between atoms: C_29  and  C_30
                            x       y       z     vdW  Elec       q    Type
                         _______ _______ _______ _____ _____    ______ ____

>  <TORSDO>
F 1

$$$$
