=
 OpenBabel11112417463D

 34 41  0  0  1  0  0  0  0  0999 V2000
  192.4090  176.4190  145.5730 C   0  0  0  0  0  0  0  0  0  0  0  0
  190.2410  177.1660  146.6510 C   0  0  0  0  0  3  0  0  0  0  0  0
  196.2020  175.2360  140.1180 C   0  0  0  0  0  0  0  0  0  0  0  0
  194.4160  176.1300  144.2580 C   0  0  0  0  0  0  0  0  0  0  0  0
  194.2620  175.6160  141.8840 C   0  0  0  0  0  0  0  0  0  0  0  0
  194.1050  175.0190  139.0140 S   0  0  0  0  0  0  0  0  0  0  0  0
  195.7820  174.9420  138.7200 C   0  0  0  0  0  2  0  0  0  0  0  0
  197.5050  175.6580  142.1370 C   0  0  0  0  0  3  0  0  0  0  0  0
  190.1580  175.7460  144.6810 C   0  0  2  0  0  3  0  0  0  0  0  0
  187.7820  176.3740  142.5480 C   0  0  0  0  0  2  0  0  0  0  0  0
  192.8670  175.6510  141.9850 C   0  0  0  0  0  3  0  0  0  0  0  0
  196.5570  175.8590  143.0640 C   0  0  0  0  0  3  0  0  0  0  0  0
  190.7090  176.0170  143.2600 C   0  0  1  0  0  3  0  0  0  0  0  0
  188.7780  177.0000  146.2780 C   0  0  0  0  0  3  0  0  0  0  0  0
  195.0650  175.8560  143.0310 C   0  0  0  0  0  0  0  0  0  0  0  0
  197.3680  175.3550  140.7100 C   0  0  0  0  0  3  0  0  0  0  0  0
  188.1920  177.1600  143.8060 C   0  0  2  0  0  3  0  0  0  0  0  0
  193.0080  176.1330  144.3390 C   0  0  0  0  0  0  0  0  0  0  0  0
  194.8200  175.3470  140.6030 N   0  0  0  0  0  0  0  0  0  0  0  0
  192.2210  175.8850  143.2010 C   0  0  0  0  0  0  0  0  0  0  0  0
  194.5360  176.7030  146.5600 C   0  0  0  0  0  3  0  0  0  0  0  0
  188.4980  175.0330  142.3690 C   0  0  0  0  0  2  0  0  0  0  0  0
  195.1400  176.4140  145.3780 N   0  0  0  0  0  0  0  0  0  0  0  0
  190.0100  175.1660  142.1860 C   0  0  0  0  0  2  0  0  0  0  0  0
  188.7270  176.2590  144.9380 C   0  0  1  0  0  3  0  0  0  0  0  0
  193.1810  176.7070  146.6520 N   0  0  0  0  0  0  0  0  0  0  0  0
  190.9850  176.3940  145.6810 N   0  0  0  0  0  0  0  0  0  0  0  0
  187.1010  177.9240  144.2400 O   0  0  0  0  0  0  0  0  0  0  0  0
  186.0890  177.0800  144.2800 O   0  0  0  0  0  0  0  0  0  0  0  0
  185.5750  177.8310  147.4650 C   0  0  0  0  0  2  0  0  0  0  0  0
  185.6300  179.0640  145.5080 C   0  0  0  0  0  2  0  0  0  0  0  0
  185.1420  177.6870  145.1100 C   0  0  2  0  0  3  0  0  0  0  0  0
  185.4980  179.1880  146.9510 N   0  0  0  0  0  2  0  0  0  0  0  0
  185.0240  176.9120  146.3990 C   0  0  0  0  0  2  0  0  0  0  0  0
  1 27  1  0  0  0  0
  1 26  1  0  0  0  0
  3 19  1  0  0  0  0
  3 16  2  0  0  0  0
  4 18  1  0  0  0  0
  4 23  2  0  0  0  0
  5 11  1  0  0  0  0
  5 15  2  0  0  0  0
  6 19  1  0  0  0  0
  7  6  1  0  0  0  0
  7  3  1  0  0  0  0
  8 12  2  0  0  0  0
  9 25  1  0  0  0  0
  9 27  1  1  0  0  0
 10 17  1  0  0  0  0
 11 20  2  0  0  0  0
 13 24  1  6  0  0  0
 13  9  1  0  0  0  0
 14  2  2  0  0  0  0
 15 12  1  0  0  0  0
 15  4  1  0  0  0  0
 16  8  1  0  0  0  0
 17 28  1  1  0  0  0
 17 25  1  0  0  0  0
 18  1  2  0  0  0  0
 19  5  1  0  0  0  0
 20 13  1  0  0  0  0
 20 18  1  0  0  0  0
 21 26  2  0  0  0  0
 22 10  1  0  0  0  0
 23 21  1  0  0  0  0
 24 22  1  0  0  0  0
 25 14  1  1  0  0  0
 27  2  1  0  0  0  0
 28 29  1  0  0  0  0
 31 33  1  0  0  0  0
 32 29  1  6  0  0  0
 32 31  1  0  0  0  0
 32 34  1  0  0  0  0
 33 30  1  0  0  0  0
 34 30  1  0  0  0  0
M  END
>  <MODEL>
1

>  <REMARK>
 VINA RESULT:      -8.5      0.000      0.000
  Name = 
  3 active torsions:
  status: ('A' for Active; 'I' for Inactive)
    1  A    between atoms: C_17  and  O_28
    2  A    between atoms: O_28  and  O_29
    3  A    between atoms: O_29  and  C_32
                            x       y       z     vdW  Elec       q    Type
                         _______ _______ _______ _____ _____    ______ ____

>  <TORSDO>
F 3

$$$$
=
 OpenBabel11112417463D

 34 41  0  0  1  0  0  0  0  0999 V2000
  189.7340  175.1060  142.5590 C   0  0  0  0  0  0  0  0  0  0  0  0
  192.1360  174.3950  142.1730 C   0  0  0  0  0  3  0  0  0  0  0  0
  185.0760  178.6020  145.9690 C   0  0  0  0  0  0  0  0  0  0  0  0
  187.6480  176.2560  142.9660 C   0  0  0  0  0  0  0  0  0  0  0  0
  187.2090  177.2650  145.1370 C   0  0  0  0  0  0  0  0  0  0  0  0
  186.6630  178.5120  147.7380 S   0  0  0  0  0  0  0  0  0  0  0  0
  185.1110  179.1080  147.3680 C   0  0  0  0  0  2  0  0  0  0  0  0
  184.4110  178.0640  143.6830 C   0  0  0  0  0  3  0  0  0  0  0  0
  191.2830  174.5060  144.4460 C   0  0  2  0  0  3  0  0  0  0  0  0
  193.3500  175.5900  146.7130 C   0  0  0  0  0  2  0  0  0  0  0  0
  188.4670  176.8350  145.5720 C   0  0  0  0  0  3  0  0  0  0  0  0
  185.4690  177.3840  143.2200 C   0  0  0  0  0  3  0  0  0  0  0  0
  190.7150  175.7230  145.2160 C   0  0  1  0  0  3  0  0  0  0  0  0
  193.2940  174.0820  143.1050 C   0  0  0  0  0  3  0  0  0  0  0  0
  186.7760  176.9780  143.8150 C   0  0  0  0  0  0  0  0  0  0  0  0
  184.1890  178.6630  145.0020 C   0  0  0  0  0  3  0  0  0  0  0  0
  193.5260  175.5300  145.1850 C   0  0  2  0  0  3  0  0  0  0  0  0
  188.9000  175.8100  143.4380 C   0  0  0  0  0  0  0  0  0  0  0  0
  186.4120  177.9990  146.0600 N   0  0  0  0  0  0  0  0  0  0  0  0
  189.3160  176.0900  144.7510 C   0  0  0  0  0  0  0  0  0  0  0  0
  188.1330  175.3240  140.8360 C   0  0  0  0  0  3  0  0  0  0  0  0
  192.0880  174.9020  147.2390 C   0  0  0  0  0  2  0  0  0  0  0  0
  187.3010  175.9950  141.6740 N   0  0  0  0  0  0  0  0  0  0  0  0
  190.7900  175.5420  146.7410 C   0  0  0  0  0  2  0  0  0  0  0  0
  192.8100  174.3260  144.5370 C   0  0  1  0  0  3  0  0  0  0  0  0
  189.3410  174.8870  141.2780 N   0  0  0  0  0  0  0  0  0  0  0  0
  190.9920  174.6180  143.0290 N   0  0  0  0  0  0  0  0  0  0  0  0
  194.8950  175.5260  144.8850 O   0  0  0  0  0  0  0  0  0  0  0  0
  195.4760  175.0170  145.9540 O   0  0  0  0  0  0  0  0  0  0  0  0
  196.3910  172.4230  144.1090 C   0  0  0  0  0  2  0  0  0  0  0  0
  196.7990  174.6980  144.0030 C   0  0  0  0  0  2  0  0  0  0  0  0
  196.6240  174.3810  145.4740 C   0  0  2  0  0  3  0  0  0  0  0  0
  197.0290  173.4470  143.2980 N   0  0  0  0  0  2  0  0  0  0  0  0
  196.4450  172.8840  145.5460 C   0  0  0  0  0  2  0  0  0  0  0  0
  1 27  1  0  0  0  0
  1 18  1  0  0  0  0
  2 27  1  0  0  0  0
  2 14  2  0  0  0  0
  3 19  1  0  0  0  0
  3  7  1  0  0  0  0
  4 18  2  0  0  0  0
  4 15  1  0  0  0  0
  5 11  1  0  0  0  0
  5 19  1  0  0  0  0
  7  6  1  0  0  0  0
  8 16  1  0  0  0  0
  9 27  1  6  0  0  0
  9 25  1  0  0  0  0
  9 13  1  0  0  0  0
 10 22  1  0  0  0  0
 12  8  2  0  0  0  0
 12 15  1  0  0  0  0
 13 24  1  1  0  0  0
 15  5  2  0  0  0  0
 16  3  2  0  0  0  0
 17 28  1  1  0  0  0
 17 10  1  0  0  0  0
 18 20  1  0  0  0  0
 19  6  1  0  0  0  0
 20 13  1  0  0  0  0
 20 11  2  0  0  0  0
 21 26  1  0  0  0  0
 21 23  2  0  0  0  0
 23  4  1  0  0  0  0
 24 22  1  0  0  0  0
 25 14  1  6  0  0  0
 25 17  1  0  0  0  0
 26  1  2  0  0  0  0
 28 29  1  0  0  0  0
 30 34  1  0  0  0  0
 31 32  1  0  0  0  0
 32 34  1  0  0  0  0
 32 29  1  6  0  0  0
 33 31  1  0  0  0  0
 33 30  1  0  0  0  0
M  END
>  <MODEL>
2

>  <REMARK>
 VINA RESULT:      -8.5      3.680      9.038
  Name = 
  3 active torsions:
  status: ('A' for Active; 'I' for Inactive)
    1  A    between atoms: C_17  and  O_28
    2  A    between atoms: O_28  and  O_29
    3  A    between atoms: O_29  and  C_32
                            x       y       z     vdW  Elec       q    Type
                         _______ _______ _______ _____ _____    ______ ____

>  <TORSDO>
F 3

$$$$
=
 OpenBabel11112417463D

 34 41  0  0  1  0  0  0  0  0999 V2000
  188.7600  177.4350  146.5230 C   0  0  0  0  0  0  0  0  0  0  0  0
  190.7940  176.4150  147.6400 C   0  0  0  0  0  3  0  0  0  0  0  0
  184.6640  178.1420  141.2080 C   0  0  0  0  0  0  0  0  0  0  0  0
  186.7290  177.9220  145.3080 C   0  0  0  0  0  0  0  0  0  0  0  0
  186.6710  177.7110  142.8840 C   0  0  0  0  0  0  0  0  0  0  0  0
  186.5660  177.4420  139.9630 S   0  0  0  0  0  0  0  0  0  0  0  0
  184.9420  177.9150  139.7630 C   0  0  0  0  0  2  0  0  0  0  0  0
  183.5960  178.6730  143.3370 C   0  0  0  0  0  3  0  0  0  0  0  0
  190.9590  177.1660  145.3350 C   0  0  2  0  0  3  0  0  0  0  0  0
  192.7650  175.3310  143.3440 C   0  0  0  0  0  2  0  0  0  0  0  0
  188.0090  177.3060  142.9050 C   0  0  0  0  0  3  0  0  0  0  0  0
  184.5830  178.4650  144.2210 C   0  0  0  0  0  3  0  0  0  0  0  0
  190.1600  176.6930  144.0960 C   0  0  1  0  0  3  0  0  0  0  0  0
  192.1820  176.0480  147.1450 C   0  0  0  0  0  3  0  0  0  0  0  0
  186.0050  178.0300  144.0980 C   0  0  0  0  0  0  0  0  0  0  0  0
  183.6020  178.5270  141.8790 C   0  0  0  0  0  3  0  0  0  0  0  0
  192.3490  175.0660  144.8020 C   0  0  2  0  0  3  0  0  0  0  0  0
  188.0860  177.5370  145.2990 C   0  0  0  0  0  0  0  0  0  0  0  0
  186.0240  177.7740  141.6180 N   0  0  0  0  0  0  0  0  0  0  0  0
  188.7400  177.2330  144.0930 C   0  0  0  0  0  0  0  0  0  0  0  0
  186.7940  178.0500  147.6790 C   0  0  0  0  0  3  0  0  0  0  0  0
  192.4000  176.7220  142.8180 C   0  0  0  0  0  2  0  0  0  0  0  0
  186.1230  178.1710  146.5040 N   0  0  0  0  0  0  0  0  0  0  0  0
  190.8940  176.9850  142.7760 C   0  0  0  0  0  2  0  0  0  0  0  0
  192.2310  176.3530  145.6450 C   0  0  1  0  0  3  0  0  0  0  0  0
  188.1020  177.6830  147.6840 N   0  0  0  0  0  0  0  0  0  0  0  0
  190.1430  177.0770  146.5310 N   0  0  0  0  0  0  0  0  0  0  0  0
  193.2580  174.1670  145.3770 O   0  0  0  0  0  0  0  0  0  0  0  0
  194.2940  174.1630  144.5610 O   0  0  0  0  0  0  0  0  0  0  0  0
  197.2470  172.7540  145.0800 C   0  0  0  0  0  2  0  0  0  0  0  0
  196.5490  174.9150  144.6350 C   0  0  0  0  0  2  0  0  0  0  0  0
  195.4110  174.2660  145.3940 C   0  0  2  0  0  3  0  0  0  0  0  0
  197.7380  174.0970  144.8210 N   0  0  0  0  0  2  0  0  0  0  0  0
  195.9040  172.8860  145.7590 C   0  0  0  0  0  2  0  0  0  0  0  0
  1 27  1  0  0  0  0
  1 26  1  0  0  0  0
  3 19  1  0  0  0  0
  3 16  2  0  0  0  0
  4 23  2  0  0  0  0
  5 11  1  0  0  0  0
  5 15  2  0  0  0  0
  6 19  1  0  0  0  0
  7  6  1  0  0  0  0
  7  3  1  0  0  0  0
  8 12  2  0  0  0  0
  9 25  1  0  0  0  0
  9 27  1  1  0  0  0
 10 17  1  0  0  0  0
 11 20  2  0  0  0  0
 13 24  1  6  0  0  0
 13  9  1  0  0  0  0
 14  2  2  0  0  0  0
 15 12  1  0  0  0  0
 15  4  1  0  0  0  0
 16  8  1  0  0  0  0
 17 28  1  1  0  0  0
 17 25  1  0  0  0  0
 18  4  1  0  0  0  0
 18  1  2  0  0  0  0
 19  5  1  0  0  0  0
 20 13  1  0  0  0  0
 20 18  1  0  0  0  0
 21 26  2  0  0  0  0
 22 10  1  0  0  0  0
 23 21  1  0  0  0  0
 24 22  1  0  0  0  0
 25 14  1  1  0  0  0
 27  2  1  0  0  0  0
 29 28  1  0  0  0  0
 30 34  1  0  0  0  0
 31 33  1  0  0  0  0
 31 32  1  0  0  0  0
 32 29  1  6  0  0  0
 32 34  1  0  0  0  0
 33 30  1  0  0  0  0
M  END
>  <MODEL>
3

>  <REMARK>
 VINA RESULT:      -8.4      3.269      8.441
  Name = 
  3 active torsions:
  status: ('A' for Active; 'I' for Inactive)
    1  A    between atoms: C_17  and  O_28
    2  A    between atoms: O_28  and  O_29
    3  A    between atoms: O_29  and  C_32
                            x       y       z     vdW  Elec       q    Type
                         _______ _______ _______ _____ _____    ______ ____

>  <TORSDO>
F 3

$$$$
=
 OpenBabel11112417463D

 34 41  0  0  1  0  0  0  0  0999 V2000
  192.2080  176.3200  145.5110 C   0  0  0  0  0  0  0  0  0  0  0  0
  189.8830  176.8780  146.3520 C   0  0  0  0  0  3  0  0  0  0  0  0
  196.6090  175.3710  140.4850 C   0  0  0  0  0  0  0  0  0  0  0  0
  194.3510  176.1980  144.4030 C   0  0  0  0  0  0  0  0  0  0  0  0
  194.4790  175.6040  142.0460 C   0  0  0  0  0  0  0  0  0  0  0  0
  194.6610  174.9130  139.1980 S   0  0  0  0  0  0  0  0  0  0  0  0
  196.3570  174.9960  139.0660 C   0  0  0  0  0  2  0  0  0  0  0  0
  197.6630  175.9770  142.6000 C   0  0  0  0  0  3  0  0  0  0  0  0
  190.1300  175.4010  144.4380 C   0  0  2  0  0  3  0  0  0  0  0  0
  187.9230  175.7280  142.0690 C   0  0  0  0  0  2  0  0  0  0  0  0
  193.0850  175.5020  142.0140 C   0  0  0  0  0  3  0  0  0  0  0  0
  196.6150  176.1080  143.4260 C   0  0  0  0  0  3  0  0  0  0  0  0
  190.7880  175.6850  143.0660 C   0  0  1  0  0  3  0  0  0  0  0  0
  188.4870  176.5550  145.8500 C   0  0  0  0  0  3  0  0  0  0  0  0
  195.1400  175.9550  143.2530 C   0  0  0  0  0  0  0  0  0  0  0  0
  197.6950  175.6230  141.1790 C   0  0  0  0  0  3  0  0  0  0  0  0
  188.1310  176.5860  143.3300 C   0  0  2  0  0  3  0  0  0  0  0  0
  192.9490  176.0620  144.3500 C   0  0  0  0  0  0  0  0  0  0  0  0
  195.1830  175.3560  140.8340 N   0  0  0  0  0  0  0  0  0  0  0  0
  192.3040  175.7040  143.1540 C   0  0  0  0  0  0  0  0  0  0  0  0
  194.1910  176.8440  146.6820 C   0  0  0  0  0  3  0  0  0  0  0  0
  188.7790  174.4600  142.0090 C   0  0  0  0  0  2  0  0  0  0  0  0
  194.9320  176.5840  145.5740 N   0  0  0  0  0  0  0  0  0  0  0  0
  190.2820  174.7390  141.9640 C   0  0  0  0  0  2  0  0  0  0  0  0
  188.6380  175.7750  144.5410 C   0  0  1  0  0  3  0  0  0  0  0  0
  192.8400  176.7150  146.6470 N   0  0  0  0  0  0  0  0  0  0  0  0
  190.7890  176.1570  145.4860 N   0  0  0  0  0  0  0  0  0  0  0  0
  186.9340  177.2490  143.6310 O   0  0  0  0  0  0  0  0  0  0  0  0
  186.2460  177.2370  142.5050 O   0  0  0  0  0  0  0  0  0  0  0  0
  183.6830  178.8060  143.8980 C   0  0  0  0  0  2  0  0  0  0  0  0
  185.9420  179.2670  143.7080 C   0  0  0  0  0  2  0  0  0  0  0  0
  185.5820  178.4670  142.4740 C   0  0  2  0  0  3  0  0  0  0  0  0
  184.7080  179.7530  144.3040 N   0  0  0  0  0  2  0  0  0  0  0  0
  184.0920  178.2430  142.5570 C   0  0  0  0  0  2  0  0  0  0  0  0
  1 26  1  0  0  0  0
  3 19  1  0  0  0  0
  3 16  2  0  0  0  0
  4 23  2  0  0  0  0
  5 15  2  0  0  0  0
  6 19  1  0  0  0  0
  7  6  1  0  0  0  0
  7  3  1  0  0  0  0
  8 12  2  0  0  0  0
  9 25  1  0  0  0  0
  9 27  1  1  0  0  0
 10 17  1  0  0  0  0
 11  5  1  0  0  0  0
 11 20  2  0  0  0  0
 13 24  1  6  0  0  0
 13 20  1  0  0  0  0
 13  9  1  0  0  0  0
 14  2  2  0  0  0  0
 15 12  1  0  0  0  0
 15  4  1  0  0  0  0
 16  8  1  0  0  0  0
 17 28  1  1  0  0  0
 17 25  1  0  0  0  0
 18  4  1  0  0  0  0
 18  1  2  0  0  0  0
 19  5  1  0  0  0  0
 20 18  1  0  0  0  0
 22 10  1  0  0  0  0
 23 21  1  0  0  0  0
 24 22  1  0  0  0  0
 25 14  1  1  0  0  0
 26 21  2  0  0  0  0
 27  1  1  0  0  0  0
 27  2  1  0  0  0  0
 29 28  1  0  0  0  0
 30 33  1  0  0  0  0
 31 33  1  0  0  0  0
 32 29  1  1  0  0  0
 32 34  1  0  0  0  0
 32 31  1  0  0  0  0
 34 30  1  0  0  0  0
M  END
>  <MODEL>
4

>  <REMARK>
 VINA RESULT:      -8.1      1.203      1.377
  Name = 
  3 active torsions:
  status: ('A' for Active; 'I' for Inactive)
    1  A    between atoms: C_17  and  O_28
    2  A    between atoms: O_28  and  O_29
    3  A    between atoms: O_29  and  C_32
                            x       y       z     vdW  Elec       q    Type
                         _______ _______ _______ _____ _____    ______ ____

>  <TORSDO>
F 3

$$$$
=
 OpenBabel11112417463D

 34 41  0  0  1  0  0  0  0  0999 V2000
  188.7200  177.4250  146.5900 C   0  0  0  0  0  0  0  0  0  0  0  0
  190.7810  176.3790  147.6280 C   0  0  0  0  0  3  0  0  0  0  0  0
  184.4650  178.2290  141.4140 C   0  0  0  0  0  0  0  0  0  0  0  0
  186.6550  177.9400  145.4450 C   0  0  0  0  0  0  0  0  0  0  0  0
  186.5210  177.7650  143.0210 C   0  0  0  0  0  0  0  0  0  0  0  0
  186.3250  177.5390  140.1010 S   0  0  0  0  0  0  0  0  0  0  0  0
  184.6980  178.0230  139.9580 C   0  0  0  0  0  2  0  0  0  0  0  0
  183.4670  178.7340  143.5830 C   0  0  0  0  0  3  0  0  0  0  0  0
  190.8790  177.1630  145.3300 C   0  0  2  0  0  3  0  0  0  0  0  0
  192.6130  175.3490  143.2580 C   0  0  0  0  0  2  0  0  0  0  0  0
  187.8570  177.3520  142.9950 C   0  0  0  0  0  3  0  0  0  0  0  0
  184.4790  178.5100  144.4330 C   0  0  0  0  0  3  0  0  0  0  0  0
  190.0400  176.7120  144.1100 C   0  0  1  0  0  3  0  0  0  0  0  0
  192.1520  176.0130  147.0850 C   0  0  0  0  0  3  0  0  0  0  0  0
  185.8950  178.0690  144.2590 C   0  0  0  0  0  0  0  0  0  0  0  0
  183.4270  178.6100  142.1230 C   0  0  0  0  0  3  0  0  0  0  0  0
  192.2420  175.0640  144.7240 C   0  0  2  0  0  3  0  0  0  0  0  0
  188.0090  177.5490  145.3890 C   0  0  0  0  0  0  0  0  0  0  0  0
  185.8360  177.8490  141.7770 N   0  0  0  0  0  0  0  0  0  0  0  0
  188.6240  177.2590  144.1590 C   0  0  0  0  0  0  0  0  0  0  0  0
  186.7940  178.0330  147.8140 C   0  0  0  0  0  3  0  0  0  0  0  0
  192.2400  176.7490  142.7640 C   0  0  0  0  0  2  0  0  0  0  0  0
  186.0880  178.1740  146.6630 N   0  0  0  0  0  0  0  0  0  0  0  0
  190.7350  177.0190  142.7720 C   0  0  0  0  0  2  0  0  0  0  0  0
  192.1560  176.3400  145.5890 C   0  0  1  0  0  3  0  0  0  0  0  0
  188.0990  177.6590  147.7740 N   0  0  0  0  0  0  0  0  0  0  0  0
  190.1010  177.0610  146.5500 N   0  0  0  0  0  0  0  0  0  0  0  0
  193.1630  174.1530  145.2580 O   0  0  0  0  0  0  0  0  0  0  0  0
  192.5990  172.9700  145.1040 O   0  0  0  0  0  0  0  0  0  0  0  0
  194.6990  170.5140  145.8300 C   0  0  0  0  0  2  0  0  0  0  0  0
  193.0250  170.7900  144.2560 C   0  0  0  0  0  2  0  0  0  0  0  0
  193.5810  172.1750  144.5090 C   0  0  2  0  0  3  0  0  0  0  0  0
  193.9780  169.8210  144.7750 N   0  0  0  0  0  2  0  0  0  0  0  0
  194.7300  171.9810  145.4680 C   0  0  0  0  0  2  0  0  0  0  0  0
  1 26  1  0  0  0  0
  3 19  1  0  0  0  0
  3 16  2  0  0  0  0
  4 23  2  0  0  0  0
  5 15  2  0  0  0  0
  6 19  1  0  0  0  0
  7  6  1  0  0  0  0
  7  3  1  0  0  0  0
  8 12  2  0  0  0  0
  9 25  1  0  0  0  0
  9 27  1  1  0  0  0
 10 17  1  0  0  0  0
 11  5  1  0  0  0  0
 11 20  2  0  0  0  0
 13 24  1  6  0  0  0
 13 20  1  0  0  0  0
 13  9  1  0  0  0  0
 14  2  2  0  0  0  0
 15 12  1  0  0  0  0
 15  4  1  0  0  0  0
 16  8  1  0  0  0  0
 17 28  1  1  0  0  0
 17 25  1  0  0  0  0
 18  4  1  0  0  0  0
 18  1  2  0  0  0  0
 19  5  1  0  0  0  0
 20 18  1  0  0  0  0
 22 24  1  0  0  0  0
 22 10  1  0  0  0  0
 23 21  1  0  0  0  0
 25 14  1  1  0  0  0
 26 21  2  0  0  0  0
 27  1  1  0  0  0  0
 27  2  1  0  0  0  0
 29 28  1  0  0  0  0
 31 32  1  0  0  0  0
 31 33  1  0  0  0  0
 32 29  1  1  0  0  0
 32 34  1  0  0  0  0
 33 30  1  0  0  0  0
 34 30  1  0  0  0  0
M  END
>  <MODEL>
5

>  <REMARK>
 VINA RESULT:      -8.1      3.626      8.332
  Name = 
  3 active torsions:
  status: ('A' for Active; 'I' for Inactive)
    1  A    between atoms: C_17  and  O_28
    2  A    between atoms: O_28  and  O_29
    3  A    between atoms: O_29  and  C_32
                            x       y       z     vdW  Elec       q    Type
                         _______ _______ _______ _____ _____    ______ ____

>  <TORSDO>
F 3

$$$$
=
 OpenBabel11112417463D

 34 41  0  0  1  0  0  0  0  0999 V2000
  190.2470  174.6070  145.0420 C   0  0  0  0  0  0  0  0  0  0  0  0
  191.5890  172.6210  144.2180 C   0  0  0  0  0  3  0  0  0  0  0  0
  184.8000  178.5810  144.7830 C   0  0  0  0  0  0  0  0  0  0  0  0
  188.5740  176.1680  145.8160 C   0  0  0  0  0  0  0  0  0  0  0  0
  186.8010  176.9050  144.3200 C   0  0  0  0  0  0  0  0  0  0  0  0
  184.6380  177.7930  142.5440 S   0  0  0  0  0  0  0  0  0  0  0  0
  183.8620  178.8270  143.6540 C   0  0  0  0  0  2  0  0  0  0  0  0
  185.9260  178.6110  146.9480 C   0  0  0  0  0  3  0  0  0  0  0  0
  190.5000  174.0690  142.6000 C   0  0  2  0  0  3  0  0  0  0  0  0
  189.2130  172.6100  139.9910 C   0  0  0  0  0  2  0  0  0  0  0  0
  187.3350  176.0930  143.3150 C   0  0  0  0  0  3  0  0  0  0  0  0
  186.9520  177.7690  146.7590 C   0  0  0  0  0  3  0  0  0  0  0  0
  188.9950  174.3920  142.4370 C   0  0  1  0  0  3  0  0  0  0  0  0
  191.8220  172.0160  142.8440 C   0  0  0  0  0  3  0  0  0  0  0  0
  187.4200  176.9560  145.5980 C   0  0  0  0  0  0  0  0  0  0  0  0
  184.8720  179.0250  146.0180 C   0  0  0  0  0  3  0  0  0  0  0  0
  189.8390  171.9800  141.2480 C   0  0  2  0  0  3  0  0  0  0  0  0
  189.1080  175.3780  144.7770 C   0  0  0  0  0  0  0  0  0  0  0  0
  185.6280  177.6490  144.0080 N   0  0  0  0  0  0  0  0  0  0  0  0
  188.4960  175.3410  143.5130 C   0  0  0  0  0  0  0  0  0  0  0  0
  190.2730  175.3770  147.2750 C   0  0  0  0  0  3  0  0  0  0  0  0
  189.3600  174.1310  139.8980 C   0  0  0  0  0  2  0  0  0  0  0  0
  189.1780  176.1450  147.0390 N   0  0  0  0  0  0  0  0  0  0  0  0
  188.6480  174.8850  141.0220 C   0  0  0  0  0  2  0  0  0  0  0  0
  190.9900  172.8200  141.8420 C   0  0  1  0  0  3  0  0  0  0  0  0
  190.7990  174.6130  146.2830 N   0  0  0  0  0  0  0  0  0  0  0  0
  190.8220  173.8250  143.9930 N   0  0  0  0  0  0  0  0  0  0  0  0
  190.2670  170.6820  140.9410 O   0  0  0  0  0  0  0  0  0  0  0  0
  190.6880  170.7490  139.6930 O   0  0  0  0  0  0  0  0  0  0  0  0
  191.1010  168.9580  136.9380 C   0  0  0  0  0  2  0  0  0  0  0  0
  192.2200  169.0840  138.9590 C   0  0  0  0  0  2  0  0  0  0  0  0
  190.7760  169.4200  139.2690 C   0  0  2  0  0  3  0  0  0  0  0  0
  192.2640  168.4530  137.6500 N   0  0  0  0  0  2  0  0  0  0  0  0
  190.0340  169.2520  137.9660 C   0  0  0  0  0  2  0  0  0  0  0  0
  1 26  1  0  0  0  0
  3 16  2  0  0  0  0
  4 23  2  0  0  0  0
  5 15  2  0  0  0  0
  6  7  1  0  0  0  0
  6 19  1  0  0  0  0
  7  3  1  0  0  0  0
  9 27  1  1  0  0  0
 10 17  1  0  0  0  0
 11 20  2  0  0  0  0
 11  5  1  0  0  0  0
 12  8  2  0  0  0  0
 13 24  1  6  0  0  0
 13  9  1  0  0  0  0
 13 20  1  0  0  0  0
 14  2  2  0  0  0  0
 15  4  1  0  0  0  0
 15 12  1  0  0  0  0
 16  8  1  0  0  0  0
 17 28  1  6  0  0  0
 17 25  1  0  0  0  0
 18  1  2  0  0  0  0
 18  4  1  0  0  0  0
 19  5  1  0  0  0  0
 19  3  1  0  0  0  0
 20 18  1  0  0  0  0
 22 10  1  0  0  0  0
 22 24  1  0  0  0  0
 23 21  1  0  0  0  0
 25  9  1  0  0  0  0
 25 14  1  1  0  0  0
 26 21  2  0  0  0  0
 27  2  1  0  0  0  0
 27  1  1  0  0  0  0
 29 28  1  0  0  0  0
 30 33  1  0  0  0  0
 30 34  1  0  0  0  0
 31 32  1  0  0  0  0
 32 29  1  6  0  0  0
 33 31  1  0  0  0  0
 34 32  1  0  0  0  0
M  END
>  <MODEL>
6

>  <REMARK>
 VINA RESULT:      -7.8      4.442      8.790
  Name = 
  3 active torsions:
  status: ('A' for Active; 'I' for Inactive)
    1  A    between atoms: C_17  and  O_28
    2  A    between atoms: O_28  and  O_29
    3  A    between atoms: O_29  and  C_32
                            x       y       z     vdW  Elec       q    Type
                         _______ _______ _______ _____ _____    ______ ____

>  <TORSDO>
F 3

$$$$
=
 OpenBabel11112417463D

 34 41  0  0  1  0  0  0  0  0999 V2000
  189.5540  175.9970  146.0720 C   0  0  0  0  0  0  0  0  0  0  0  0
  187.1640  176.8390  146.1080 C   0  0  0  0  0  3  0  0  0  0  0  0
  195.6170  175.5310  143.1460 C   0  0  0  0  0  0  0  0  0  0  0  0
  191.9430  175.6800  145.9060 C   0  0  0  0  0  0  0  0  0  0  0  0
  193.0480  175.8090  143.7410 C   0  0  0  0  0  0  0  0  0  0  0  0
  194.4100  175.9830  141.1460 S   0  0  0  0  0  0  0  0  0  0  0  0
  195.9880  175.6750  141.7120 C   0  0  0  0  0  2  0  0  0  0  0  0
  195.6720  175.1900  145.5620 C   0  0  0  0  0  3  0  0  0  0  0  0
  188.0920  175.9930  144.0280 C   0  0  2  0  0  3  0  0  0  0  0  0
  187.2130  177.5580  141.3130 C   0  0  0  0  0  2  0  0  0  0  0  0
  191.8110  176.0740  143.1450 C   0  0  0  0  0  3  0  0  0  0  0  0
  194.3840  175.3250  145.9090 C   0  0  0  0  0  3  0  0  0  0  0  0
  189.3160  176.5020  143.2280 C   0  0  1  0  0  3  0  0  0  0  0  0
  186.1130  177.0420  145.0310 C   0  0  0  0  0  3  0  0  0  0  0  0
  193.1330  175.6050  145.1450 C   0  0  0  0  0  0  0  0  0  0  0  0
  196.2990  175.2820  144.2410 C   0  0  0  0  0  3  0  0  0  0  0  0
  186.9200  177.9170  142.7810 C   0  0  2  0  0  3  0  0  0  0  0  0
  190.7050  175.9220  145.2770 C   0  0  0  0  0  0  0  0  0  0  0  0
  194.1900  175.7690  142.8930 N   0  0  0  0  0  0  0  0  0  0  0  0
  190.6290  176.1130  143.8870 C   0  0  0  0  0  0  0  0  0  0  0  0
  190.8490  175.6310  148.0130 C   0  0  0  0  0  3  0  0  0  0  0  0
  187.8790  176.1950  141.1090 C   0  0  0  0  0  2  0  0  0  0  0  0
  191.9770  175.5390  147.2620 N   0  0  0  0  0  0  0  0  0  0  0  0
  189.2650  176.0890  141.7480 C   0  0  0  0  0  2  0  0  0  0  0  0
  186.7550  176.6800  143.6880 C   0  0  1  0  0  3  0  0  0  0  0  0
  189.6490  175.8610  147.4200 N   0  0  0  0  0  0  0  0  0  0  0  0
  188.2860  176.2090  145.4490 N   0  0  0  0  0  0  0  0  0  0  0  0
  185.7850  178.7370  142.8300 O   0  0  0  0  0  0  0  0  0  0  0  0
  185.2670  178.6740  141.6190 O   0  0  0  0  0  0  0  0  0  0  0  0
  182.0280  179.0350  142.2070 C   0  0  0  0  0  2  0  0  0  0  0  0
  183.2570  178.0500  140.5120 C   0  0  0  0  0  2  0  0  0  0  0  0
  184.1020  177.9160  141.7610 C   0  0  2  0  0  3  0  0  0  0  0  0
  181.8980  178.3710  140.9210 N   0  0  0  0  0  2  0  0  0  0  0  0
  183.2610  178.4800  142.8810 C   0  0  0  0  0  2  0  0  0  0  0  0
  1 26  1  0  0  0  0
  3 16  2  0  0  0  0
  4 23  2  0  0  0  0
  5 15  2  0  0  0  0
  6  7  1  0  0  0  0
  6 19  1  0  0  0  0
  7  3  1  0  0  0  0
  8 12  2  0  0  0  0
  9 27  1  1  0  0  0
 10 17  1  0  0  0  0
 11  5  1  0  0  0  0
 11 20  2  0  0  0  0
 13 24  1  6  0  0  0
 13 20  1  0  0  0  0
 13  9  1  0  0  0  0
 14  2  2  0  0  0  0
 15  4  1  0  0  0  0
 15 12  1  0  0  0  0
 16  8  1  0  0  0  0
 17 28  1  6  0  0  0
 17 25  1  0  0  0  0
 18  4  1  0  0  0  0
 18  1  2  0  0  0  0
 19  3  1  0  0  0  0
 19  5  1  0  0  0  0
 20 18  1  0  0  0  0
 22 10  1  0  0  0  0
 22 24  1  0  0  0  0
 23 21  1  0  0  0  0
 25  9  1  0  0  0  0
 25 14  1  1  0  0  0
 26 21  2  0  0  0  0
 27  1  1  0  0  0  0
 27  2  1  0  0  0  0
 29 28  1  0  0  0  0
 30 34  1  0  0  0  0
 31 33  1  0  0  0  0
 31 32  1  0  0  0  0
 32 29  1  6  0  0  0
 32 34  1  0  0  0  0
 33 30  1  0  0  0  0
M  END
>  <MODEL>
7

>  <REMARK>
 VINA RESULT:      -7.7      2.416      3.336
  Name = 
  3 active torsions:
  status: ('A' for Active; 'I' for Inactive)
    1  A    between atoms: C_17  and  O_28
    2  A    between atoms: O_28  and  O_29
    3  A    between atoms: O_29  and  C_32
                            x       y       z     vdW  Elec       q    Type
                         _______ _______ _______ _____ _____    ______ ____

>  <TORSDO>
F 3

$$$$
=
 OpenBabel11112417463D

 34 41  0  0  1  0  0  0  0  0999 V2000
  189.0850  174.7800  141.8640 C   0  0  0  0  0  0  0  0  0  0  0  0
  187.8590  176.7530  142.8760 C   0  0  0  0  0  3  0  0  0  0  0  0
  192.5680  169.0330  142.4790 C   0  0  0  0  0  0  0  0  0  0  0  0
  189.9800  172.6240  141.2390 C   0  0  0  0  0  0  0  0  0  0  0  0
  191.4090  171.3980  142.7820 C   0  0  0  0  0  0  0  0  0  0  0  0
  193.1150  169.8860  144.6310 S   0  0  0  0  0  0  0  0  0  0  0  0
  193.3860  168.5410  143.6210 C   0  0  0  0  0  2  0  0  0  0  0  0
  191.4230  169.2530  140.3350 C   0  0  0  0  0  3  0  0  0  0  0  0
  189.9530  176.0220  143.8690 C   0  0  2  0  0  3  0  0  0  0  0  0
  190.1350  176.1520  147.1150 C   0  0  0  0  0  2  0  0  0  0  0  0
  191.2690  172.4350  143.7090 C   0  0  0  0  0  3  0  0  0  0  0  0
  190.8170  170.4440  140.4450 C   0  0  0  0  0  3  0  0  0  0  0  0
  190.3120  174.6480  144.4860 C   0  0  1  0  0  3  0  0  0  0  0  0
  188.0930  177.6040  144.1130 C   0  0  0  0  0  3  0  0  0  0  0  0
  190.7610  171.4780  141.5200 C   0  0  0  0  0  0  0  0  0  0  0  0
  192.2740  168.5450  141.2950 C   0  0  0  0  0  3  0  0  0  0  0  0
  188.9260  176.4060  146.1990 C   0  0  2  0  0  3  0  0  0  0  0  0
  189.8770  173.6690  142.1810 C   0  0  0  0  0  0  0  0  0  0  0  0
  192.2030  170.2800  143.1630 N   0  0  0  0  0  0  0  0  0  0  0  0
  190.5290  173.5850  143.4230 C   0  0  0  0  0  0  0  0  0  0  0  0
  188.5250  173.8100  139.7840 C   0  0  0  0  0  3  0  0  0  0  0  0
  191.4660  175.9620  146.3820 C   0  0  0  0  0  2  0  0  0  0  0  0
  189.2990  172.7300  140.0620 N   0  0  0  0  0  0  0  0  0  0  0  0
  191.4920  174.7350  145.4690 C   0  0  0  0  0  2  0  0  0  0  0  0
  189.3120  177.0310  144.8410 C   0  0  1  0  0  3  0  0  0  0  0  0
  188.4190  174.8250  140.6810 N   0  0  0  0  0  0  0  0  0  0  0  0
  188.9950  175.8620  142.7930 N   0  0  0  0  0  0  0  0  0  0  0  0
  188.0000  177.2070  146.8790 O   0  0  0  0  0  0  0  0  0  0  0  0
  187.0090  176.3930  147.1890 O   0  0  0  0  0  0  0  0  0  0  0  0
  185.5510  179.1950  146.1900 C   0  0  0  0  0  2  0  0  0  0  0  0
  184.8170  177.0250  146.5170 C   0  0  0  0  0  2  0  0  0  0  0  0
  185.9390  177.2310  147.5120 C   0  0  2  0  0  3  0  0  0  0  0  0
  184.3910  178.3320  146.0420 N   0  0  0  0  0  2  0  0  0  0  0  0
  186.3570  178.6730  147.3580 C   0  0  0  0  0  2  0  0  0  0  0  0
  1 18  1  0  0  0  0
  1 27  1  0  0  0  0
  2 14  2  0  0  0  0
  3 19  1  0  0  0  0
  3  7  1  0  0  0  0
  4 15  2  0  0  0  0
  4 18  1  0  0  0  0
  5 19  1  0  0  0  0
  5 11  2  0  0  0  0
  7  6  1  0  0  0  0
  8 12  2  0  0  0  0
  8 16  1  0  0  0  0
  9 27  1  6  0  0  0
  9 13  1  0  0  0  0
  9 25  1  0  0  0  0
 12 15  1  0  0  0  0
 13 24  1  6  0  0  0
 15  5  1  0  0  0  0
 16  3  2  0  0  0  0
 17 28  1  1  0  0  0
 17 10  1  0  0  0  0
 18 20  2  0  0  0  0
 19  6  1  0  0  0  0
 20 11  1  0  0  0  0
 20 13  1  0  0  0  0
 21 23  2  0  0  0  0
 21 26  1  0  0  0  0
 22 10  1  0  0  0  0
 23  4  1  0  0  0  0
 24 22  1  0  0  0  0
 25 14  1  6  0  0  0
 25 17  1  0  0  0  0
 26  1  2  0  0  0  0
 27  2  1  0  0  0  0
 28 29  1  0  0  0  0
 30 34  1  0  0  0  0
 31 32  1  0  0  0  0
 32 29  1  6  0  0  0
 33 30  1  0  0  0  0
 33 31  1  0  0  0  0
 34 32  1  0  0  0  0
M  END
>  <MODEL>
8

>  <REMARK>
 VINA RESULT:      -7.6      3.950      5.465
  Name = 
  3 active torsions:
  status: ('A' for Active; 'I' for Inactive)
    1  A    between atoms: C_17  and  O_28
    2  A    between atoms: O_28  and  O_29
    3  A    between atoms: O_29  and  C_32
                            x       y       z     vdW  Elec       q    Type
                         _______ _______ _______ _____ _____    ______ ____

>  <TORSDO>
F 3

$$$$
=
 OpenBabel11112417463D

 34 41  0  0  1  0  0  0  0  0999 V2000
  190.2080  173.0440  142.4510 C   0  0  0  0  0  0  0  0  0  0  0  0
  188.0180  174.2930  142.1990 C   0  0  0  0  0  3  0  0  0  0  0  0
  196.2450  172.2160  145.3500 C   0  0  0  0  0  0  0  0  0  0  0  0
  192.1980  171.8920  143.1950 C   0  0  0  0  0  0  0  0  0  0  0  0
  193.9460  173.1060  144.3770 C   0  0  0  0  0  0  0  0  0  0  0  0
  196.0590  174.5400  145.8250 S   0  0  0  0  0  0  0  0  0  0  0  0
  197.1090  173.2150  146.0370 C   0  0  0  0  0  2  0  0  0  0  0  0
  195.3390  170.1660  144.3850 C   0  0  0  0  0  3  0  0  0  0  0  0
  190.0810  175.5540  142.4380 C   0  0  2  0  0  3  0  0  0  0  0  0
  189.9130  178.2750  144.2160 C   0  0  0  0  0  2  0  0  0  0  0  0
  193.1810  174.2720  144.2740 C   0  0  0  0  0  3  0  0  0  0  0  0
  194.1660  170.5720  143.8790 C   0  0  0  0  0  3  0  0  0  0  0  0
  191.0970  175.5490  143.6070 C   0  0  1  0  0  3  0  0  0  0  0  0
  187.6430  175.7640  142.2560 C   0  0  0  0  0  3  0  0  0  0  0  0
  193.4610  171.8870  143.8320 C   0  0  0  0  0  0  0  0  0  0  0  0
  196.3640  170.9330  145.0980 C   0  0  0  0  0  3  0  0  0  0  0  0
  188.8410  177.1940  143.9880 C   0  0  2  0  0  3  0  0  0  0  0  0
  191.4590  173.0880  143.0810 C   0  0  0  0  0  0  0  0  0  0  0  0
  195.1960  173.1990  145.0500 N   0  0  0  0  0  0  0  0  0  0  0  0
  191.9500  174.2920  143.6140 C   0  0  0  0  0  0  0  0  0  0  0  0
  190.4450  170.7190  142.1040 C   0  0  0  0  0  3  0  0  0  0  0  0
  191.1740  178.1150  143.3630 C   0  0  0  0  0  2  0  0  0  0  0  0
  191.6660  170.7400  142.6980 N   0  0  0  0  0  0  0  0  0  0  0  0
  191.9490  176.8290  143.6510 C   0  0  0  0  0  2  0  0  0  0  0  0
  188.9150  176.5500  142.5870 C   0  0  1  0  0  3  0  0  0  0  0  0
  189.7230  171.8640  141.9850 N   0  0  0  0  0  0  0  0  0  0  0  0
  189.4600  174.2510  142.2970 N   0  0  0  0  0  0  0  0  0  0  0  0
  187.5770  177.7510  144.2230 O   0  0  0  0  0  0  0  0  0  0  0  0
  187.1760  177.2160  145.3600 O   0  0  0  0  0  0  0  0  0  0  0  0
  184.2910  178.5300  146.3200 C   0  0  0  0  0  2  0  0  0  0  0  0
  185.2510  178.0810  144.2630 C   0  0  0  0  0  2  0  0  0  0  0  0
  185.7990  177.0320  145.2080 C   0  0  2  0  0  3  0  0  0  0  0  0
  184.0860  178.6850  144.8890 N   0  0  0  0  0  2  0  0  0  0  0  0
  185.1050  177.2740  146.5260 C   0  0  0  0  0  2  0  0  0  0  0  0
  1 18  1  0  0  0  0
  2 14  2  0  0  0  0
  2 27  1  0  0  0  0
  3  7  1  0  0  0  0
  4 15  1  0  0  0  0
  5 19  1  0  0  0  0
  6  7  1  0  0  0  0
  8 16  1  0  0  0  0
  9 27  1  1  0  0  0
  9 25  1  0  0  0  0
  9 13  1  0  0  0  0
 11  5  1  0  0  0  0
 12  8  2  0  0  0  0
 13 20  1  0  0  0  0
 13 24  1  6  0  0  0
 15 12  1  0  0  0  0
 15  5  2  0  0  0  0
 16  3  2  0  0  0  0
 17 10  1  0  0  0  0
 17 28  1  6  0  0  0
 18  4  2  0  0  0  0
 18 20  1  0  0  0  0
 19  3  1  0  0  0  0
 19  6  1  0  0  0  0
 20 11  2  0  0  0  0
 21 23  2  0  0  0  0
 22 24  1  0  0  0  0
 22 10  1  0  0  0  0
 23  4  1  0  0  0  0
 25 14  1  1  0  0  0
 25 17  1  0  0  0  0
 26 21  1  0  0  0  0
 26  1  2  0  0  0  0
 27  1  1  0  0  0  0
 28 29  1  0  0  0  0
 30 34  1  0  0  0  0
 31 33  1  0  0  0  0
 31 32  1  0  0  0  0
 32 29  1  1  0  0  0
 32 34  1  0  0  0  0
 33 30  1  0  0  0  0
M  END
>  <MODEL>
9

>  <REMARK>
 VINA RESULT:      -7.6      3.369      4.554
  Name = 
  3 active torsions:
  status: ('A' for Active; 'I' for Inactive)
    1  A    between atoms: C_17  and  O_28
    2  A    between atoms: O_28  and  O_29
    3  A    between atoms: O_29  and  C_32
                            x       y       z     vdW  Elec       q    Type
                         _______ _______ _______ _____ _____    ______ ____

>  <TORSDO>
F 3

$$$$
