=
 OpenBabel11112418093D

 34 40  0  0  1  0  0  0  0  0999 V2000
  189.1910  174.6730  142.8930 N   0  0  1  0  0  0  0  0  0  0  0  0
  191.4880  173.6610  143.0110 C   0  0  0  0  0  2  0  0  0  0  0  0
  185.1760  179.1640  145.1540 C   0  0  1  0  0  3  0  0  0  0  0  0
  187.0660  175.9020  142.7860 C   0  0  2  0  0  3  0  0  0  0  0  0
  186.3300  176.8380  144.9710 C   0  0  2  0  0  3  0  0  0  0  0  0
  185.7110  177.8440  147.2250 C   0  0  0  0  0  1  0  0  0  0  0  0
  186.3790  179.7500  144.7980 F   0  0  0  0  0  0  0  0  0  0  0  0
  184.7430  178.4530  142.7410 C   0  0  0  0  0  2  0  0  0  0  0  0
  190.4450  174.5050  144.9500 C   0  0  2  0  0  3  0  0  0  0  0  0
  192.1330  175.9530  147.2640 C   0  0  0  0  0  2  0  0  0  0  0  0
  187.6620  176.9490  145.4240 O   0  0  0  0  0  0  0  0  0  0  0  0
  184.9710  177.0910  142.9840 O   0  0  0  0  0  0  0  0  0  0  0  0
  189.7220  175.6820  145.6110 C   0  0  1  0  0  3  0  0  0  0  0  0
  192.5330  173.6040  144.1250 C   0  0  0  0  0  2  0  0  0  0  0  0
  186.2880  177.0380  143.4450 C   0  0  2  0  0  3  0  0  0  0  0  0
  184.1860  179.1470  143.9850 C   0  0  0  0  0  2  0  0  0  0  0  0
  192.6560  175.4080  145.9190 C   0  0  1  0  0  3  0  0  0  0  0  0
  188.4550  175.8320  143.4300 C   0  0  1  0  0  3  0  0  0  0  0  0
  185.3710  177.7660  145.7470 C   0  0  1  0  0  3  0  0  0  0  0  0
  188.3280  175.7890  144.9740 C   0  0  2  0  0  3  0  0  0  0  0  0
  187.8550  175.0000  140.8590 C   0  0  0  0  0  2  0  0  0  0  0  0
  190.9310  175.1940  147.8350 C   0  0  0  0  0  2  0  0  0  0  0  0
  187.2130  176.1330  141.4050 O   0  0  0  0  0  0  0  0  0  0  0  0
  189.6110  175.5320  147.1320 C   0  0  0  0  0  2  0  0  0  0  0  0
  191.8750  174.1900  145.3770 C   0  0  1  0  0  3  0  0  0  0  0  0
  189.2720  174.8550  141.4390 C   0  0  0  0  0  2  0  0  0  0  0  0
  190.5350  174.7450  143.4660 C   0  0  2  0  0  3  0  0  0  0  0  0
  192.6950  176.4440  144.9780 O   0  0  0  0  0  0  0  0  0  0  0  0
  194.0280  176.8590  144.9470 C   0  0  0  0  0  2  0  0  0  0  0  0
  195.3000  176.3170  141.6720 C   0  0  0  0  0  2  0  0  0  0  0  0
  196.2000  176.5850  143.7910 C   0  0  0  0  0  2  0  0  0  0  0  0
  194.7870  176.0700  143.8950 C   0  0  2  0  0  3  0  0  0  0  0  0
  196.4720  176.8100  142.3820 N   0  0  0  0  0  2  0  0  0  0  0  0
  194.1790  176.2560  142.5940 N   0  0  0  0  0  2  0  0  0  0  0  0
  1 26  1  6  0  0  0
  1 18  1  0  0  0  0
  1 27  1  0  0  0  0
  2 27  1  0  0  0  0
  2 14  1  0  0  0  0
  3  7  1  6  0  0  0
  3 19  1  0  0  0  0
  4 23  1  6  0  0  0
  4 18  1  0  0  0  0
  4 15  1  0  0  0  0
  5 11  1  1  0  0  0
  5 19  1  0  0  0  0
  8 12  1  0  0  0  0
  8 16  1  0  0  0  0
  9 25  1  0  0  0  0
  9 13  1  0  0  0  0
 10 22  1  0  0  0  0
 12 15  1  0  0  0  0
 13 24  1  0  0  0  0
 14 25  1  0  0  0  0
 15  5  1  0  0  0  0
 16  3  1  0  0  0  0
 17 10  1  0  0  0  0
 18 20  1  0  0  0  0
 19  6  1  0  0  0  0
 20 11  1  0  0  0  0
 20 13  1  0  0  0  0
 21 23  1  0  0  0  0
 21 26  1  0  0  0  0
 24 22  1  0  0  0  0
 25 17  1  0  0  0  0
 27  9  1  0  0  0  0
 28 17  1  0  0  0  0
 29 28  1  0  0  0  0
 30 33  1  0  0  0  0
 30 34  1  0  0  0  0
 31 32  1  0  0  0  0
 32 29  1  0  0  0  0
 33 31  1  0  0  0  0
 34 32  1  0  0  0  0
M  END
>  <MODEL>
1

>  <REMARK>
 VINA RESULT:      -9.1      0.000      0.000
  Name = 
  3 active torsions:
  status: ('A' for Active; 'I' for Inactive)
    1  A    between atoms: C_17  and  O_28
    2  A    between atoms: O_28  and  C_29
    3  A    between atoms: C_29  and  C_32
                            x       y       z     vdW  Elec       q    Type
                         _______ _______ _______ _____ _____    ______ ____

>  <TORSDO>
F 3

$$$$
=
 OpenBabel11112418093D

 34 40  0  0  1  0  0  0  0  0999 V2000
  190.6250  173.8300  143.1450 N   0  0  1  0  0  0  0  0  0  0  0  0
  192.7820  172.9850  144.1200 C   0  0  0  0  0  2  0  0  0  0  0  0
  186.4930  178.7420  142.6950 C   0  0  1  0  0  3  0  0  0  0  0  0
  188.6470  174.8860  142.1400 C   0  0  2  0  0  3  0  0  0  0  0  0
  187.5220  176.5380  143.6220 C   0  0  2  0  0  3  0  0  0  0  0  0
  186.5000  178.2840  145.1660 C   0  0  0  0  0  1  0  0  0  0  0  0
  187.7770  179.1850  142.4220 F   0  0  0  0  0  0  0  0  0  0  0  0
  186.5400  177.1880  140.6700 C   0  0  0  0  0  2  0  0  0  0  0  0
  191.4040  174.4550  145.3450 C   0  0  2  0  0  3  0  0  0  0  0  0
  192.6460  176.6880  147.2860 C   0  0  0  0  0  2  0  0  0  0  0  0
  188.7320  176.8370  144.2830 O   0  0  0  0  0  0  0  0  0  0  0  0
  186.6300  176.0150  141.4320 O   0  0  0  0  0  0  0  0  0  0  0  0
  190.6270  175.7750  145.3600 C   0  0  1  0  0  3  0  0  0  0  0  0
  193.5620  173.3640  145.3780 C   0  0  0  0  0  2  0  0  0  0  0  0
  187.8150  176.1640  142.1570 C   0  0  2  0  0  3  0  0  0  0  0  0
  185.7740  178.2760  141.4250 C   0  0  0  0  0  2  0  0  0  0  0  0
  193.4080  175.7010  146.3790 C   0  0  1  0  0  3  0  0  0  0  0  0
  189.8620  175.0880  143.0520 C   0  0  1  0  0  3  0  0  0  0  0  0
  186.4760  177.6620  143.7800 C   0  0  1  0  0  3  0  0  0  0  0  0
  189.4090  175.6090  144.4400 C   0  0  2  0  0  3  0  0  0  0  0  0
  189.7710  173.3590  140.8920 C   0  0  0  0  0  2  0  0  0  0  0  0
  191.3080  176.1620  147.8170 C   0  0  0  0  0  2  0  0  0  0  0  0
  189.0950  174.5980  140.8370 O   0  0  0  0  0  0  0  0  0  0  0  0
  190.1880  176.1890  146.7690 C   0  0  0  0  0  2  0  0  0  0  0  0
  192.6900  174.3510  146.1570 C   0  0  1  0  0  3  0  0  0  0  0  0
  191.0220  173.4690  141.7800 C   0  0  0  0  0  2  0  0  0  0  0  0
  191.8190  174.1380  143.9320 C   0  0  2  0  0  3  0  0  0  0  0  0
  193.7060  176.3210  145.1600 O   0  0  0  0  0  0  0  0  0  0  0  0
  195.0260  176.7610  145.2860 C   0  0  0  0  0  2  0  0  0  0  0  0
  196.5340  174.4230  143.0730 C   0  0  0  0  0  2  0  0  0  0  0  0
  194.8750  176.0340  142.9240 C   0  0  0  0  0  2  0  0  0  0  0  0
  195.8170  176.3720  144.0500 C   0  0  2  0  0  3  0  0  0  0  0  0
  195.3000  174.7580  142.3760 N   0  0  0  0  0  2  0  0  0  0  0  0
  196.5990  175.1810  144.3110 N   0  0  0  0  0  2  0  0  0  0  0  0
  1 26  1  6  0  0  0
  1 27  1  0  0  0  0
  2 14  1  0  0  0  0
  3  7  1  6  0  0  0
  3 19  1  0  0  0  0
  4 23  1  6  0  0  0
  4 15  1  0  0  0  0
  4 18  1  0  0  0  0
  5 19  1  0  0  0  0
  5 11  1  6  0  0  0
  8 16  1  0  0  0  0
  8 12  1  0  0  0  0
  9 13  1  0  0  0  0
  9 25  1  0  0  0  0
 10 22  1  0  0  0  0
 11 20  1  0  0  0  0
 12 15  1  0  0  0  0
 13 24  1  0  0  0  0
 14 25  1  0  0  0  0
 15  5  1  0  0  0  0
 16  3  1  0  0  0  0
 17 10  1  0  0  0  0
 18  1  1  0  0  0  0
 18 20  1  0  0  0  0
 19  6  1  0  0  0  0
 20 13  1  0  0  0  0
 21 26  1  0  0  0  0
 23 21  1  0  0  0  0
 24 22  1  0  0  0  0
 25 17  1  0  0  0  0
 27  2  1  0  0  0  0
 27  9  1  0  0  0  0
 28 29  1  0  0  0  0
 28 17  1  0  0  0  0
 30 34  1  0  0  0  0
 31 32  1  0  0  0  0
 32 34  1  0  0  0  0
 32 29  1  0  0  0  0
 33 31  1  0  0  0  0
 33 30  1  0  0  0  0
M  END
>  <MODEL>
2

>  <REMARK>
 VINA RESULT:      -8.2      1.467      1.989
  Name = 
  3 active torsions:
  status: ('A' for Active; 'I' for Inactive)
    1  A    between atoms: C_17  and  O_28
    2  A    between atoms: O_28  and  C_29
    3  A    between atoms: C_29  and  C_32
                            x       y       z     vdW  Elec       q    Type
                         _______ _______ _______ _____ _____    ______ ____

>  <TORSDO>
F 3

$$$$
=
 OpenBabel11112418093D

 34 40  0  0  1  0  0  0  0  0999 V2000
  191.7740  173.6230  142.6210 N   0  0  1  0  0  0  0  0  0  0  0  0
  194.1030  172.9690  143.3030 C   0  0  0  0  0  2  0  0  0  0  0  0
  187.2880  178.2350  142.5640 C   0  0  1  0  0  3  0  0  0  0  0  0
  189.6020  174.4960  141.8730 C   0  0  2  0  0  3  0  0  0  0  0  0
  188.5910  176.1540  143.4280 C   0  0  2  0  0  3  0  0  0  0  0  0
  187.6840  177.9150  145.0260 C   0  0  0  0  0  1  0  0  0  0  0  0
  188.4840  178.7420  142.0850 F   0  0  0  0  0  0  0  0  0  0  0  0
  187.1490  176.5780  140.6280 C   0  0  0  0  0  2  0  0  0  0  0  0
  192.8170  174.4160  144.6500 C   0  0  2  0  0  3  0  0  0  0  0  0
  194.1680  176.8250  146.2830 C   0  0  0  0  0  2  0  0  0  0  0  0
  189.8600  176.5640  143.8890 O   0  0  0  0  0  0  0  0  0  0  0  0
  187.4310  175.4570  141.4210 O   0  0  0  0  0  0  0  0  0  0  0  0
  191.9610  175.6840  144.7200 C   0  0  1  0  0  3  0  0  0  0  0  0
  195.0290  173.4650  144.4130 C   0  0  0  0  0  2  0  0  0  0  0  0
  188.6950  175.7190  141.9540 C   0  0  2  0  0  3  0  0  0  0  0  0
  186.4270  177.6560  141.4380 C   0  0  0  0  0  2  0  0  0  0  0  0
  194.8590  175.8390  145.3180 C   0  0  1  0  0  3  0  0  0  0  0  0
  190.9190  174.8230  142.5850 C   0  0  1  0  0  3  0  0  0  0  0  0
  187.5030  177.2180  143.6880 C   0  0  1  0  0  3  0  0  0  0  0  0
  190.6370  175.3920  143.9990 C   0  0  2  0  0  3  0  0  0  0  0  0
  190.6380  172.9770  140.5430 C   0  0  0  0  0  2  0  0  0  0  0  0
  192.9620  176.2470  147.0290 C   0  0  0  0  0  2  0  0  0  0  0  0
  189.8770  174.1660  140.5320 O   0  0  0  0  0  0  0  0  0  0  0  0
  191.7030  176.1460  146.1580 C   0  0  0  0  0  2  0  0  0  0  0  0
  194.2110  174.4370  145.2670 C   0  0  1  0  0  3  0  0  0  0  0  0
  191.9940  173.2130  141.2290 C   0  0  0  0  0  2  0  0  0  0  0  0
  193.0450  174.0470  143.2070 C   0  0  2  0  0  3  0  0  0  0  0  0
  194.9330  176.4090  144.0420 O   0  0  0  0  0  0  0  0  0  0  0  0
  196.2680  176.7880  143.8880 C   0  0  0  0  0  2  0  0  0  0  0  0
  197.0560  174.6880  141.1300 C   0  0  0  0  0  2  0  0  0  0  0  0
  195.5120  176.3590  141.5690 C   0  0  0  0  0  2  0  0  0  0  0  0
  196.7150  176.5270  142.4610 C   0  0  2  0  0  3  0  0  0  0  0  0
  195.7140  175.1460  140.7980 N   0  0  0  0  0  2  0  0  0  0  0  0
  197.4620  175.2870  142.3900 N   0  0  0  0  0  2  0  0  0  0  0  0
  1 26  1  6  0  0  0
  1 27  1  0  0  0  0
  2 14  1  0  0  0  0
  3  7  1  6  0  0  0
  3 19  1  0  0  0  0
  4 23  1  6  0  0  0
  4 15  1  0  0  0  0
  4 18  1  0  0  0  0
  5 19  1  0  0  0  0
  5 11  1  6  0  0  0
  8 12  1  0  0  0  0
  8 16  1  0  0  0  0
  9 13  1  0  0  0  0
  9 25  1  0  0  0  0
 10 22  1  0  0  0  0
 11 20  1  0  0  0  0
 12 15  1  0  0  0  0
 13 24  1  0  0  0  0
 14 25  1  0  0  0  0
 15  5  1  0  0  0  0
 16  3  1  0  0  0  0
 17 10  1  0  0  0  0
 18  1  1  0  0  0  0
 18 20  1  0  0  0  0
 19  6  1  0  0  0  0
 20 13  1  0  0  0  0
 21 26  1  0  0  0  0
 23 21  1  0  0  0  0
 24 22  1  0  0  0  0
 25 17  1  0  0  0  0
 27  2  1  0  0  0  0
 27  9  1  0  0  0  0
 28 17  1  0  0  0  0
 29 28  1  0  0  0  0
 30 34  1  0  0  0  0
 31 32  1  0  0  0  0
 32 29  1  0  0  0  0
 33 30  1  0  0  0  0
 33 31  1  0  0  0  0
 34 32  1  0  0  0  0
M  END
>  <MODEL>
3

>  <REMARK>
 VINA RESULT:      -8.0      1.995      2.865
  Name = 
  3 active torsions:
  status: ('A' for Active; 'I' for Inactive)
    1  A    between atoms: C_17  and  O_28
    2  A    between atoms: O_28  and  C_29
    3  A    between atoms: C_29  and  C_32
                            x       y       z     vdW  Elec       q    Type
                         _______ _______ _______ _____ _____    ______ ____

>  <TORSDO>
F 3

$$$$
=
 OpenBabel11112418093D

 34 40  0  0  1  0  0  0  0  0999 V2000
  190.6870  172.9330  142.5320 N   0  0  1  0  0  0  0  0  0  0  0  0
  188.2720  173.3950  142.0120 C   0  0  0  0  0  2  0  0  0  0  0  0
  195.9360  174.7810  145.7630 C   0  0  1  0  0  3  0  0  0  0  0  0
  192.9880  172.5350  143.2970 C   0  0  2  0  0  3  0  0  0  0  0  0
  194.2690  174.6140  143.7710 C   0  0  2  0  0  3  0  0  0  0  0  0
  195.4660  176.7910  144.3280 C   0  0  0  0  0  1  0  0  0  0  0  0
  194.8550  174.7130  146.6270 F   0  0  0  0  0  0  0  0  0  0  0  0
  195.7890  172.2760  145.2940 C   0  0  0  0  0  2  0  0  0  0  0  0
  189.7860  175.1680  142.3650 C   0  0  2  0  0  3  0  0  0  0  0  0
  188.8790  177.8790  143.8220 C   0  0  0  0  0  2  0  0  0  0  0  0
  193.0910  175.3200  144.0960 O   0  0  0  0  0  0  0  0  0  0  0  0
  195.3020  172.4360  143.9890 O   0  0  0  0  0  0  0  0  0  0  0  0
  190.8580  175.7820  143.2710 C   0  0  1  0  0  3  0  0  0  0  0  0
  187.4410  174.6770  142.0310 C   0  0  0  0  0  2  0  0  0  0  0  0
  194.1020  173.1320  144.1510 C   0  0  2  0  0  3  0  0  0  0  0  0
  196.6880  173.4490  145.6920 C   0  0  0  0  0  2  0  0  0  0  0  0
  188.0310  176.6150  143.5750 C   0  0  1  0  0  3  0  0  0  0  0  0
  191.7460  173.4220  143.4340 C   0  0  1  0  0  3  0  0  0  0  0  0
  195.5290  175.2730  144.3710 C   0  0  1  0  0  3  0  0  0  0  0  0
  192.1130  174.9040  143.1670 C   0  0  2  0  0  3  0  0  0  0  0  0
  191.7070  170.7200  142.8330 C   0  0  0  0  0  2  0  0  0  0  0  0
  189.9540  178.1430  142.7630 C   0  0  0  0  0  2  0  0  0  0  0  0
  192.6710  171.2320  143.7280 O   0  0  0  0  0  0  0  0  0  0  0  0
  191.1820  177.2340  142.9070 C   0  0  0  0  0  2  0  0  0  0  0  0
  188.4140  175.8290  142.3010 C   0  0  1  0  0  3  0  0  0  0  0  0
  190.4100  171.5440  142.9120 C   0  0  0  0  0  2  0  0  0  0  0  0
  189.5090  173.7550  142.8070 C   0  0  2  0  0  3  0  0  0  0  0  0
  188.0730  175.7950  144.7080 O   0  0  0  0  0  0  0  0  0  0  0  0
  188.0360  176.6700  145.7950 C   0  0  0  0  0  2  0  0  0  0  0  0
  190.9500  175.0120  146.9780 C   0  0  0  0  0  2  0  0  0  0  0  0
  190.0990  177.1660  147.0720 C   0  0  0  0  0  2  0  0  0  0  0  0
  188.9750  176.1790  146.8820 C   0  0  2  0  0  3  0  0  0  0  0  0
  191.3400  176.4130  147.0480 N   0  0  0  0  0  2  0  0  0  0  0  0
  189.5850  174.9250  146.4870 N   0  0  0  0  0  2  0  0  0  0  0  0
  1 27  1  0  0  0  0
  1 26  1  1  0  0  0
  1 18  1  0  0  0  0
  2 14  1  0  0  0  0
  2 27  1  0  0  0  0
  3  7  1  1  0  0  0
  4 18  1  0  0  0  0
  4 23  1  1  0  0  0
  4 15  1  0  0  0  0
  5 11  1  1  0  0  0
  5 15  1  0  0  0  0
  5 19  1  0  0  0  0
  6 19  1  0  0  0  0
  8 16  1  0  0  0  0
  9 27  1  0  0  0  0
  9 13  1  0  0  0  0
 12 15  1  0  0  0  0
 12  8  1  0  0  0  0
 14 25  1  0  0  0  0
 16  3  1  0  0  0  0
 17 10  1  0  0  0  0
 17 28  1  0  0  0  0
 19  3  1  0  0  0  0
 20 13  1  0  0  0  0
 20 18  1  0  0  0  0
 20 11  1  0  0  0  0
 21 26  1  0  0  0  0
 21 23  1  0  0  0  0
 22 24  1  0  0  0  0
 22 10  1  0  0  0  0
 24 13  1  0  0  0  0
 25  9  1  0  0  0  0
 25 17  1  0  0  0  0
 28 29  1  0  0  0  0
 29 32  1  0  0  0  0
 30 33  1  0  0  0  0
 32 31  1  0  0  0  0
 33 31  1  0  0  0  0
 34 32  1  0  0  0  0
 34 30  1  0  0  0  0
M  END
>  <MODEL>
4

>  <REMARK>
 VINA RESULT:      -7.5      3.086      7.274
  Name = 
  3 active torsions:
  status: ('A' for Active; 'I' for Inactive)
    1  A    between atoms: C_17  and  O_28
    2  A    between atoms: O_28  and  C_29
    3  A    between atoms: C_29  and  C_32
                            x       y       z     vdW  Elec       q    Type
                         _______ _______ _______ _____ _____    ______ ____

>  <TORSDO>
F 3

$$$$
=
 OpenBabel11112418093D

 34 40  0  0  1  0  0  0  0  0999 V2000
  192.0370  175.7950  145.9040 N   0  0  1  0  0  0  0  0  0  0  0  0
  189.7370  176.0340  146.8880 C   0  0  0  0  0  2  0  0  0  0  0  0
  195.6190  175.8000  140.5590 C   0  0  1  0  0  3  0  0  0  0  0  0
  194.2250  175.7730  144.7860 C   0  0  2  0  0  3  0  0  0  0  0  0
  194.1760  174.8180  142.4890 C   0  0  2  0  0  3  0  0  0  0  0  0
  194.0110  173.9200  140.1140 C   0  0  0  0  0  1  0  0  0  0  0  0
  194.8240  176.9340  140.5890 F   0  0  0  0  0  0  0  0  0  0  0  0
  196.8440  176.5340  142.6740 C   0  0  0  0  0  2  0  0  0  0  0  0
  190.0420  175.0250  144.7790 C   0  0  2  0  0  3  0  0  0  0  0  0
  187.9020  175.4010  142.4180 C   0  0  0  0  0  2  0  0  0  0  0  0
  192.8330  175.2090  142.3060 O   0  0  0  0  0  0  0  0  0  0  0  0
  196.2530  175.5590  143.4890 O   0  0  0  0  0  0  0  0  0  0  0  0
  190.6610  175.1300  143.3820 C   0  0  1  0  0  3  0  0  0  0  0  0
  188.3410  175.8000  146.3140 C   0  0  0  0  0  2  0  0  0  0  0  0
  194.8840  175.8270  143.4120 C   0  0  2  0  0  3  0  0  0  0  0  0
  196.9730  176.0400  141.2320 C   0  0  0  0  0  2  0  0  0  0  0  0
  187.8770  176.0410  143.8200 C   0  0  1  0  0  3  0  0  0  0  0  0
  192.7140  175.9550  144.6040 C   0  0  1  0  0  3  0  0  0  0  0  0
  194.9040  174.5810  141.1490 C   0  0  1  0  0  3  0  0  0  0  0  0
  192.1810  174.9680  143.5340 C   0  0  2  0  0  3  0  0  0  0  0  0
  194.1270  176.6240  146.8880 C   0  0  0  0  0  2  0  0  0  0  0  0
  188.5700  174.0240  142.3570 C   0  0  0  0  0  2  0  0  0  0  0  0
  194.7130  176.8020  145.6150 O   0  0  0  0  0  0  0  0  0  0  0  0
  190.1020  174.0900  142.4060 C   0  0  0  0  0  2  0  0  0  0  0  0
  188.5330  175.1830  144.9260 C   0  0  1  0  0  3  0  0  0  0  0  0
  192.6020  176.8040  146.8060 C   0  0  0  0  0  2  0  0  0  0  0  0
  190.6250  176.0960  145.6650 C   0  0  2  0  0  3  0  0  0  0  0  0
  188.4500  177.3170  143.7640 O   0  0  0  0  0  0  0  0  0  0  0  0
  187.4200  178.1630  143.3470 C   0  0  0  0  0  2  0  0  0  0  0  0
  184.6830  179.0410  145.4380 C   0  0  0  0  0  2  0  0  0  0  0  0
  184.9440  178.1860  143.3000 C   0  0  0  0  0  2  0  0  0  0  0  0
  186.1570  177.8610  144.1340 C   0  0  2  0  0  3  0  0  0  0  0  0
  184.0650  179.0010  144.1200 N   0  0  0  0  0  2  0  0  0  0  0  0
  186.0900  178.7010  145.3130 N   0  0  0  0  0  2  0  0  0  0  0  0
  1 26  1  1  0  0  0
  3  7  1  1  0  0  0
  3 19  1  0  0  0  0
  3 16  1  0  0  0  0
  4 23  1  1  0  0  0
  5 11  1  6  0  0  0
  5 15  1  0  0  0  0
  6 19  1  0  0  0  0
  8 12  1  0  0  0  0
  9 25  1  0  0  0  0
  9 27  1  0  0  0  0
 10 17  1  0  0  0  0
 11 20  1  0  0  0  0
 13 20  1  0  0  0  0
 13  9  1  0  0  0  0
 14  2  1  0  0  0  0
 15 12  1  0  0  0  0
 15  4  1  0  0  0  0
 16  8  1  0  0  0  0
 17 25  1  0  0  0  0
 18  4  1  0  0  0  0
 18  1  1  0  0  0  0
 19  5  1  0  0  0  0
 20 18  1  0  0  0  0
 22 24  1  0  0  0  0
 22 10  1  0  0  0  0
 23 21  1  0  0  0  0
 24 13  1  0  0  0  0
 25 14  1  0  0  0  0
 26 21  1  0  0  0  0
 27  1  1  0  0  0  0
 27  2  1  0  0  0  0
 28 17  1  0  0  0  0
 29 28  1  0  0  0  0
 29 32  1  0  0  0  0
 31 33  1  0  0  0  0
 31 32  1  0  0  0  0
 32 34  1  0  0  0  0
 33 30  1  0  0  0  0
 34 30  1  0  0  0  0
M  END
>  <MODEL>
5

>  <REMARK>
 VINA RESULT:      -7.5      2.827      8.239
  Name = 
  3 active torsions:
  status: ('A' for Active; 'I' for Inactive)
    1  A    between atoms: C_17  and  O_28
    2  A    between atoms: O_28  and  C_29
    3  A    between atoms: C_29  and  C_32
                            x       y       z     vdW  Elec       q    Type
                         _______ _______ _______ _____ _____    ______ ____

>  <TORSDO>
F 3

$$$$
=
 OpenBabel11112418093D

 34 40  0  0  1  0  0  0  0  0999 V2000
  190.8310  176.1460  144.9290 N   0  0  1  0  0  0  0  0  0  0  0  0
  192.4480  174.6920  143.6670 C   0  0  0  0  0  2  0  0  0  0  0  0
  184.6640  177.5350  146.1280 C   0  0  1  0  0  3  0  0  0  0  0  0
  189.1110  177.3430  146.2110 C   0  0  2  0  0  3  0  0  0  0  0  0
  186.9870  177.6980  144.9650 C   0  0  2  0  0  3  0  0  0  0  0  0
  184.8200  177.9250  143.6500 C   0  0  0  0  0  1  0  0  0  0  0  0
  184.8740  176.1740  146.2780 F   0  0  0  0  0  0  0  0  0  0  0  0
  186.2740  178.0500  148.0420 C   0  0  0  0  0  2  0  0  0  0  0  0
  190.3990  175.3360  142.6940 C   0  0  2  0  0  3  0  0  0  0  0  0
  188.7730  173.3630  140.7550 C   0  0  0  0  0  2  0  0  0  0  0  0
  187.1960  176.5390  144.1880 O   0  0  0  0  0  0  0  0  0  0  0  0
  187.2770  178.5620  147.2080 O   0  0  0  0  0  0  0  0  0  0  0  0
  188.8770  175.4240  142.8430 C   0  0  1  0  0  3  0  0  0  0  0  0
  192.3320  173.9220  142.3530 C   0  0  0  0  0  2  0  0  0  0  0  0
  187.6010  177.4980  146.3630 C   0  0  2  0  0  3  0  0  0  0  0  0
  184.8860  178.2890  147.4420 C   0  0  0  0  0  2  0  0  0  0  0  0
  190.0840  173.0680  141.5120 C   0  0  1  0  0  3  0  0  0  0  0  0
  189.3820  176.2420  145.1800 C   0  0  1  0  0  3  0  0  0  0  0  0
  185.5040  178.1250  144.9920 C   0  0  1  0  0  3  0  0  0  0  0  0
  188.5730  176.5100  143.8850 C   0  0  2  0  0  3  0  0  0  0  0  0
  191.0980  176.9480  147.2330 C   0  0  0  0  0  2  0  0  0  0  0  0
  188.5860  174.8290  140.3510 C   0  0  0  0  0  2  0  0  0  0  0  0
  189.7010  176.9780  147.4360 O   0  0  0  0  0  0  0  0  0  0  0  0
  188.1680  175.7310  141.5190 C   0  0  0  0  0  2  0  0  0  0  0  0
  190.9840  174.3050  141.7360 C   0  0  1  0  0  3  0  0  0  0  0  0
  191.4700  175.8550  146.2170 C   0  0  0  0  0  2  0  0  0  0  0  0
  191.0120  175.0060  144.0300 C   0  0  2  0  0  3  0  0  0  0  0  0
  189.7920  172.4290  142.7230 O   0  0  0  0  0  0  0  0  0  0  0  0
  189.7810  171.0650  142.4230 C   0  0  0  0  0  2  0  0  0  0  0  0
  192.7440  169.1070  142.5620 C   0  0  0  0  0  2  0  0  0  0  0  0
  191.0230  169.4250  141.0440 C   0  0  0  0  0  2  0  0  0  0  0  0
  191.1520  170.6360  141.9330 C   0  0  2  0  0  3  0  0  0  0  0  0
  191.9830  168.4420  141.5140 N   0  0  0  0  0  2  0  0  0  0  0  0
  191.9830  170.2430  143.0540 N   0  0  0  0  0  2  0  0  0  0  0  0
  1 18  1  0  0  0  0
  1 26  1  1  0  0  0
  2 27  1  0  0  0  0
  3  7  1  1  0  0  0
  3 16  1  0  0  0  0
  4 15  1  0  0  0  0
  4 23  1  1  0  0  0
  5 11  1  6  0  0  0
  5 19  1  0  0  0  0
  5 15  1  0  0  0  0
  6 19  1  0  0  0  0
  9 13  1  0  0  0  0
  9 27  1  0  0  0  0
 10 17  1  0  0  0  0
 12  8  1  0  0  0  0
 13 20  1  0  0  0  0
 14  2  1  0  0  0  0
 15 12  1  0  0  0  0
 16  8  1  0  0  0  0
 17 25  1  0  0  0  0
 17 28  1  0  0  0  0
 18  4  1  0  0  0  0
 19  3  1  0  0  0  0
 20 11  1  0  0  0  0
 20 18  1  0  0  0  0
 21 23  1  0  0  0  0
 22 10  1  0  0  0  0
 22 24  1  0  0  0  0
 24 13  1  0  0  0  0
 25 14  1  0  0  0  0
 25  9  1  0  0  0  0
 26 21  1  0  0  0  0
 27  1  1  0  0  0  0
 29 28  1  0  0  0  0
 30 34  1  0  0  0  0
 31 33  1  0  0  0  0
 31 32  1  0  0  0  0
 32 29  1  0  0  0  0
 32 34  1  0  0  0  0
 33 30  1  0  0  0  0
M  END
>  <MODEL>
6

>  <REMARK>
 VINA RESULT:      -7.5      2.653      5.176
  Name = 
  3 active torsions:
  status: ('A' for Active; 'I' for Inactive)
    1  A    between atoms: C_17  and  O_28
    2  A    between atoms: O_28  and  C_29
    3  A    between atoms: C_29  and  C_32
                            x       y       z     vdW  Elec       q    Type
                         _______ _______ _______ _____ _____    ______ ____

>  <TORSDO>
F 3

$$$$
=
 OpenBabel11112418093D

 34 40  0  0  1  0  0  0  0  0999 V2000
  190.0990  173.2590  142.1860 N   0  0  1  0  0  0  0  0  0  0  0  0
  187.9090  174.4870  142.0730 C   0  0  0  0  0  2  0  0  0  0  0  0
  195.7390  172.6030  145.2140 C   0  0  1  0  0  3  0  0  0  0  0  0
  192.2050  172.0510  142.5630 C   0  0  2  0  0  3  0  0  0  0  0  0
  194.0450  173.4770  143.4410 C   0  0  2  0  0  3  0  0  0  0  0  0
  195.8340  174.9910  144.4340 C   0  0  0  0  0  1  0  0  0  0  0  0
  194.7070  172.5820  146.1380 F   0  0  0  0  0  0  0  0  0  0  0  0
  194.8610  170.4790  144.1040 C   0  0  0  0  0  2  0  0  0  0  0  0
  189.8800  175.6040  142.7270 C   0  0  2  0  0  3  0  0  0  0  0  0
  189.8340  177.9160  144.9510 C   0  0  0  0  0  2  0  0  0  0  0  0
  193.1300  174.3490  144.0700 O   0  0  0  0  0  0  0  0  0  0  0  0
  194.4080  171.1350  142.9510 O   0  0  0  0  0  0  0  0  0  0  0  0
  191.1050  175.6150  143.6450 C   0  0  1  0  0  3  0  0  0  0  0  0
  187.4850  175.8820  142.5260 C   0  0  0  0  0  2  0  0  0  0  0  0
  193.4650  172.0510  143.4230 C   0  0  2  0  0  3  0  0  0  0  0  0
  196.0710  171.1980  144.7050 C   0  0  0  0  0  2  0  0  0  0  0  0
  188.6500  177.0560  144.4640 C   0  0  1  0  0  3  0  0  0  0  0  0
  191.2760  173.1610  143.0680 C   0  0  1  0  0  3  0  0  0  0  0  0
  195.4560  173.5680  144.0590 C   0  0  1  0  0  3  0  0  0  0  0  0
  192.0500  174.5000  143.1740 C   0  0  2  0  0  3  0  0  0  0  0  0
  190.4420  170.8650  141.7670 C   0  0  0  0  0  2  0  0  0  0  0  0
  190.9120  178.1740  143.8930 C   0  0  0  0  0  2  0  0  0  0  0  0
  191.5350  170.8150  142.6580 O   0  0  0  0  0  0  0  0  0  0  0  0
  191.8270  176.9670  143.6540 C   0  0  0  0  0  2  0  0  0  0  0  0
  188.7560  176.5990  142.9910 C   0  0  1  0  0  3  0  0  0  0  0  0
  189.4410  171.9480  142.2040 C   0  0  0  0  0  2  0  0  0  0  0  0
  189.2160  174.2520  142.7980 C   0  0  2  0  0  3  0  0  0  0  0  0
  188.4810  175.9630  145.3220 O   0  0  0  0  0  0  0  0  0  0  0  0
  187.9190  176.4940  146.4850 C   0  0  0  0  0  2  0  0  0  0  0  0
  184.5220  177.5410  146.5130 C   0  0  0  0  0  2  0  0  0  0  0  0
  186.5430  178.4050  147.2500 C   0  0  0  0  0  2  0  0  0  0  0  0
  186.7820  177.4320  146.1230 C   0  0  2  0  0  3  0  0  0  0  0  0
  185.1180  178.3940  147.5310 N   0  0  0  0  0  2  0  0  0  0  0  0
  185.5530  176.6840  145.9510 N   0  0  0  0  0  2  0  0  0  0  0  0
  1 26  1  1  0  0  0
  1 27  1  0  0  0  0
  1 18  1  0  0  0  0
  2 14  1  0  0  0  0
  2 27  1  0  0  0  0
  3  7  1  1  0  0  0
  4 23  1  1  0  0  0
  4 18  1  0  0  0  0
  4 15  1  0  0  0  0
  5 19  1  0  0  0  0
  5 11  1  1  0  0  0
  8 16  1  0  0  0  0
  9 27  1  0  0  0  0
  9 25  1  0  0  0  0
  9 13  1  0  0  0  0
 12 15  1  0  0  0  0
 12  8  1  0  0  0  0
 13 24  1  0  0  0  0
 14 25  1  0  0  0  0
 15  5  1  0  0  0  0
 16  3  1  0  0  0  0
 17 10  1  0  0  0  0
 17 28  1  0  0  0  0
 18 20  1  0  0  0  0
 19  6  1  0  0  0  0
 19  3  1  0  0  0  0
 20 13  1  0  0  0  0
 20 11  1  0  0  0  0
 21 26  1  0  0  0  0
 21 23  1  0  0  0  0
 22 10  1  0  0  0  0
 24 22  1  0  0  0  0
 25 17  1  0  0  0  0
 28 29  1  0  0  0  0
 30 33  1  0  0  0  0
 31 33  1  0  0  0  0
 32 29  1  0  0  0  0
 32 31  1  0  0  0  0
 34 32  1  0  0  0  0
 34 30  1  0  0  0  0
M  END
>  <MODEL>
7

>  <REMARK>
 VINA RESULT:      -7.5      3.471      7.949
  Name = 
  3 active torsions:
  status: ('A' for Active; 'I' for Inactive)
    1  A    between atoms: C_17  and  O_28
    2  A    between atoms: O_28  and  C_29
    3  A    between atoms: C_29  and  C_32
                            x       y       z     vdW  Elec       q    Type
                         _______ _______ _______ _____ _____    ______ ____

>  <TORSDO>
F 3

$$$$
=
 OpenBabel11112418093D

 34 40  0  0  1  0  0  0  0  0999 V2000
  192.5430  176.3430  146.3380 N   0  0  1  0  0  0  0  0  0  0  0  0
  194.8670  175.3850  146.3330 C   0  0  0  0  0  2  0  0  0  0  0  0
  186.9270  176.8270  143.2350 C   0  0  1  0  0  3  0  0  0  0  0  0
  190.1870  177.0360  146.2590 C   0  0  2  0  0  3  0  0  0  0  0  0
  189.3400  177.4770  143.9610 C   0  0  2  0  0  3  0  0  0  0  0  0
  188.5350  177.8050  141.5690 C   0  0  0  0  0  1  0  0  0  0  0  0
  187.2950  175.4950  143.3300 F   0  0  0  0  0  0  0  0  0  0  0  0
  186.7710  177.0230  145.7760 C   0  0  0  0  0  2  0  0  0  0  0  0
  193.8360  176.0470  144.3180 C   0  0  2  0  0  3  0  0  0  0  0  0
  194.3260  174.4460  141.5810 C   0  0  0  0  0  2  0  0  0  0  0  0
  190.2530  176.5590  143.4000 O   0  0  0  0  0  0  0  0  0  0  0  0
  187.9250  177.8090  145.8970 O   0  0  0  0  0  0  0  0  0  0  0  0
  192.6020  175.9550  143.4160 C   0  0  1  0  0  3  0  0  0  0  0  0
  195.7960  174.9410  145.2040 C   0  0  0  0  0  2  0  0  0  0  0  0
  188.9450  177.0100  145.3740 C   0  0  2  0  0  3  0  0  0  0  0  0
  186.0800  177.2670  144.4330 C   0  0  0  0  0  2  0  0  0  0  0  0
  194.8740  174.1040  142.9820 C   0  0  1  0  0  3  0  0  0  0  0  0
  191.2950  176.2410  145.5600 C   0  0  1  0  0  3  0  0  0  0  0  0
  188.1360  177.7450  143.0340 C   0  0  1  0  0  3  0  0  0  0  0  0
  191.4660  176.7310  144.0990 C   0  0  2  0  0  3  0  0  0  0  0  0
  191.0860  176.5980  148.2960 C   0  0  0  0  0  2  0  0  0  0  0  0
  194.1140  175.9420  141.3280 C   0  0  0  0  0  2  0  0  0  0  0  0
  189.9220  176.4480  147.5110 O   0  0  0  0  0  0  0  0  0  0  0  0
  192.8560  176.4990  142.0060 C   0  0  0  0  0  2  0  0  0  0  0  0
  195.1120  175.3310  143.8910 C   0  0  1  0  0  3  0  0  0  0  0  0
  192.2560  175.8160  147.6760 C   0  0  0  0  0  2  0  0  0  0  0  0
  193.5090  175.4690  145.6710 C   0  0  2  0  0  3  0  0  0  0  0  0
  194.0320  173.1730  143.6000 O   0  0  0  0  0  0  0  0  0  0  0  0
  193.3820  172.5160  142.5520 C   0  0  0  0  0  2  0  0  0  0  0  0
  190.3720  172.8120  144.4210 C   0  0  0  0  0  2  0  0  0  0  0  0
  190.9410  172.6990  142.1770 C   0  0  0  0  0  2  0  0  0  0  0  0
  192.0140  172.0460  143.0110 C   0  0  2  0  0  3  0  0  0  0  0  0
  189.9570  173.2460  143.0950 N   0  0  0  0  0  2  0  0  0  0  0  0
  191.7790  172.4510  144.3830 N   0  0  0  0  0  2  0  0  0  0  0  0
  1 26  1  1  0  0  0
  3  7  1  1  0  0  0
  3 16  1  0  0  0  0
  4 23  1  1  0  0  0
  5 11  1  6  0  0  0
  5 15  1  0  0  0  0
  6 19  1  0  0  0  0
  8 12  1  0  0  0  0
  9 27  1  0  0  0  0
 10 17  1  0  0  0  0
 11 20  1  0  0  0  0
 13 20  1  0  0  0  0
 13  9  1  0  0  0  0
 14  2  1  0  0  0  0
 15 12  1  0  0  0  0
 15  4  1  0  0  0  0
 16  8  1  0  0  0  0
 17 28  1  0  0  0  0
 17 25  1  0  0  0  0
 18  4  1  0  0  0  0
 18  1  1  0  0  0  0
 19  3  1  0  0  0  0
 19  5  1  0  0  0  0
 20 18  1  0  0  0  0
 22 10  1  0  0  0  0
 22 24  1  0  0  0  0
 23 21  1  0  0  0  0
 24 13  1  0  0  0  0
 25  9  1  0  0  0  0
 25 14  1  0  0  0  0
 26 21  1  0  0  0  0
 27  2  1  0  0  0  0
 27  1  1  0  0  0  0
 29 32  1  0  0  0  0
 29 28  1  0  0  0  0
 31 32  1  0  0  0  0
 31 33  1  0  0  0  0
 32 34  1  0  0  0  0
 33 30  1  0  0  0  0
 34 30  1  0  0  0  0
M  END
>  <MODEL>
8

>  <REMARK>
 VINA RESULT:      -7.4      2.392      5.055
  Name = 
  3 active torsions:
  status: ('A' for Active; 'I' for Inactive)
    1  A    between atoms: C_17  and  O_28
    2  A    between atoms: O_28  and  C_29
    3  A    between atoms: C_29  and  C_32
                            x       y       z     vdW  Elec       q    Type
                         _______ _______ _______ _____ _____    ______ ____

>  <TORSDO>
F 3

$$$$
=
 OpenBabel11112418093D

 34 40  0  0  1  0  0  0  0  0999 V2000
  189.7760  172.5480  142.8560 N   0  0  1  0  0  0  0  0  0  0  0  0
  190.0510  173.5050  145.1640 C   0  0  0  0  0  2  0  0  0  0  0  0
  189.4470  173.7550  136.5450 C   0  0  1  0  0  3  0  0  0  0  0  0
  189.7060  171.7770  140.5240 C   0  0  2  0  0  3  0  0  0  0  0  0
  188.5850  173.3640  138.9690 C   0  0  2  0  0  3  0  0  0  0  0  0
  187.5150  175.0920  137.4380 C   0  0  0  0  0  1  0  0  0  0  0  0
  190.5680  174.3680  137.0790 F   0  0  0  0  0  0  0  0  0  0  0  0
  190.3500  171.4460  137.1510 C   0  0  0  0  0  2  0  0  0  0  0  0
  188.8970  174.7060  143.4950 C   0  0  2  0  0  3  0  0  0  0  0  0
  189.0680  177.9040  143.3120 C   0  0  0  0  0  2  0  0  0  0  0  0
  188.9420  174.4700  139.7690 O   0  0  0  0  0  0  0  0  0  0  0  0
  189.4280  171.2340  138.1850 O   0  0  0  0  0  0  0  0  0  0  0  0
  188.9090  175.2520  142.0640 C   0  0  1  0  0  3  0  0  0  0  0  0
  189.7560  174.8850  145.7490 C   0  0  0  0  0  2  0  0  0  0  0  0
  189.6700  172.2760  139.0830 C   0  0  2  0  0  3  0  0  0  0  0  0
  189.7550  172.3360  136.0580 C   0  0  0  0  0  2  0  0  0  0  0  0
  189.8080  176.9780  144.2980 C   0  0  1  0  0  3  0  0  0  0  0  0
  189.8510  172.9890  141.4520 C   0  0  1  0  0  3  0  0  0  0  0  0
  188.2630  173.7720  137.5160 C   0  0  1  0  0  3  0  0  0  0  0  0
  188.7810  174.0570  141.1080 C   0  0  2  0  0  3  0  0  0  0  0  0
  190.7060  170.4250  142.0480 C   0  0  0  0  0  2  0  0  0  0  0  0
  187.7000  177.3870  142.8560 C   0  0  0  0  0  2  0  0  0  0  0  0
  190.7990  170.9120  140.7260 O   0  0  0  0  0  0  0  0  0  0  0  0
  187.7930  176.2700  141.8090 C   0  0  0  0  0  2  0  0  0  0  0  0
  189.0420  175.6840  144.6550 C   0  0  1  0  0  3  0  0  0  0  0  0
  190.8560  171.5760  143.0570 C   0  0  0  0  0  2  0  0  0  0  0  0
  190.0370  173.7360  143.6680 C   0  0  2  0  0  3  0  0  0  0  0  0
  191.0840  176.6890  143.8020 O   0  0  0  0  0  0  0  0  0  0  0  0
  191.9520  177.5090  144.5280 C   0  0  0  0  0  2  0  0  0  0  0  0
  193.6850  174.8620  146.1490 C   0  0  0  0  0  2  0  0  0  0  0  0
  193.3820  175.5670  143.9630 C   0  0  0  0  0  2  0  0  0  0  0  0
  193.1990  176.7290  144.9060 C   0  0  2  0  0  3  0  0  0  0  0  0
  193.6060  174.3850  144.7760 N   0  0  0  0  0  2  0  0  0  0  0  0
  193.0540  176.1680  146.2340 N   0  0  0  0  0  2  0  0  0  0  0  0
  1 26  1  6  0  0  0
  1 27  1  0  0  0  0
  2 14  1  0  0  0  0
  3  7  1  1  0  0  0
  3 19  1  0  0  0  0
  4 23  1  6  0  0  0
  4 18  1  0  0  0  0
  5 15  1  0  0  0  0
  5 11  1  1  0  0  0
  6 19  1  0  0  0  0
  8 12  1  0  0  0  0
  9 27  1  0  0  0  0
  9 25  1  0  0  0  0
 10 17  1  0  0  0  0
 11 20  1  0  0  0  0
 12 15  1  0  0  0  0
 13  9  1  0  0  0  0
 15  4  1  0  0  0  0
 16  3  1  0  0  0  0
 16  8  1  0  0  0  0
 17 25  1  0  0  0  0
 18  1  1  0  0  0  0
 19  5  1  0  0  0  0
 20 18  1  0  0  0  0
 20 13  1  0  0  0  0
 21 26  1  0  0  0  0
 22 10  1  0  0  0  0
 23 21  1  0  0  0  0
 24 13  1  0  0  0  0
 24 22  1  0  0  0  0
 25 14  1  0  0  0  0
 27  2  1  0  0  0  0
 28 17  1  0  0  0  0
 28 29  1  0  0  0  0
 29 32  1  0  0  0  0
 30 34  1  0  0  0  0
 31 33  1  0  0  0  0
 31 32  1  0  0  0  0
 32 34  1  0  0  0  0
 33 30  1  0  0  0  0
M  END
>  <MODEL>
9

>  <REMARK>
 VINA RESULT:      -7.4      3.503      6.180
  Name = 
  3 active torsions:
  status: ('A' for Active; 'I' for Inactive)
    1  A    between atoms: C_17  and  O_28
    2  A    between atoms: O_28  and  C_29
    3  A    between atoms: C_29  and  C_32
                            x       y       z     vdW  Elec       q    Type
                         _______ _______ _______ _____ _____    ______ ____

>  <TORSDO>
F 3

$$$$
