=
 OpenBabel11112417173D

 37 44  0  0  1  0  0  0  0  0999 V2000
  191.0210  173.6910  142.1260 C   0  0  0  0  0  2  0  0  0  0  0  0
  195.0230  175.7180  143.0310 C   0  0  1  0  0  0  0  0  0  0  0  0
  191.4450  176.2040  145.1330 C   0  0  0  0  0  0  0  0  0  0  0  0
  190.9450  172.7070  140.9290 C   0  0  2  0  0  3  0  0  0  0  0  0
  187.9910  176.1820  143.2590 C   0  0  0  0  0  2  0  0  0  0  0  0
  193.8620  176.0760  145.2020 C   0  0  0  0  0  0  0  0  0  0  0  0
  190.4170  176.2840  144.1180 N   0  0  0  0  0  0  0  0  0  0  0  0
  188.3940  173.0070  140.7480 C   0  0  0  0  0  0  0  0  0  0  0  0
  192.6550  176.0140  144.5400 C   0  0  0  0  0  0  0  0  0  0  0  0
  189.0230  176.8580  144.2240 C   0  0  2  0  0  3  0  0  0  0  0  0
  193.8510  176.2560  146.5880 C   0  0  0  0  0  3  0  0  0  0  0  0
  189.6740  172.6950  140.0400 C   0  0  0  0  0  2  0  0  0  0  0  0
  192.5700  175.9540  143.1500 N   0  0  0  0  0  0  0  0  0  0  0  0
  195.1040  174.2150  142.8340 C   0  0  0  0  0  1  0  0  0  0  0  0
  190.1470  176.5730  147.3080 C   0  0  0  0  0  2  0  0  0  0  0  0
  192.6150  176.4030  147.2510 C   0  0  0  0  0  3  0  0  0  0  0  0
  193.7450  176.2520  142.3360 C   0  0  0  0  0  2  0  0  0  0  0  0
  188.3350  174.2260  141.4560 N   0  0  0  0  0  0  0  0  0  0  0  0
  188.5700  174.8830  142.7950 C   0  0  1  0  0  3  0  0  0  0  0  0
  191.3990  176.4010  146.5330 C   0  0  0  0  0  0  0  0  0  0  0  0
  191.1730  176.2130  142.8140 C   0  0  1  0  0  3  0  0  0  0  0  0
  195.0400  176.0120  144.4440 O   0  0  0  0  0  0  0  0  0  0  0  0
  188.4150  176.8550  145.6390 C   0  0  1  0  0  3  0  0  0  0  0  0
  196.1290  176.2960  142.4390 F   0  0  0  0  0  0  0  0  0  0  0  0
  189.1630  175.4170  141.6780 C   0  0  1  0  0  3  0  0  0  0  0  0
  187.4140  172.2180  140.7250 O   0  0  0  0  0  0  0  0  0  0  0  0
  190.6490  175.1600  141.8010 C   0  0  2  0  0  3  0  0  0  0  0  0
  189.2650  177.5910  146.6440 C   0  0  0  0  0  2  0  0  0  0  0  0
  186.0370  176.7880  146.4240 C   0  0  0  0  0  3  0  0  0  0  0  0
  187.0280  177.4340  145.6750 C   0  0  0  0  0  0  0  0  0  0  0  0
  186.7110  178.6100  144.9750 C   0  0  0  0  0  3  0  0  0  0  0  0
  185.1130  180.2620  144.3480 F   0  0  0  0  0  0  0  0  0  0  0  0
  184.4290  178.4780  145.7730 C   0  0  0  0  0  3  0  0  0  0  0  0
  185.4140  179.1290  145.0250 C   0  0  0  0  0  0  0  0  0  0  0  0
  184.7410  177.3080  146.4730 C   0  0  0  0  0  3  0  0  0  0  0  0
  190.5550  171.0440  142.5990 O   0  0  0  0  0  1  0  0  0  0  0  0
  191.2360  171.2960  141.4080 C   0  0  0  0  0  2  0  0  0  0  0  0
  2 14  1  6  0  0  0
  2 22  1  0  0  0  0
  3 20  1  0  0  0  0
  4 37  1  1  0  0  0
  4  1  1  0  0  0  0
  6 11  2  0  0  0  0
  7 10  1  0  0  0  0
  7  3  1  0  0  0  0
  8 18  1  0  0  0  0
  9  3  2  0  0  0  0
  9  6  1  0  0  0  0
 10  5  1  6  0  0  0
 10 23  1  0  0  0  0
 11 16  1  0  0  0  0
 12  8  1  0  0  0  0
 12  4  1  0  0  0  0
 13  9  1  0  0  0  0
 17  2  1  0  0  0  0
 17 13  1  0  0  0  0
 18 19  1  0  0  0  0
 19  5  1  6  0  0  0
 20 16  2  0  0  0  0
 20 15  1  0  0  0  0
 21 13  1  1  0  0  0
 21  7  1  0  0  0  0
 22  6  1  0  0  0  0
 23 30  1  6  0  0  0
 23 28  1  0  0  0  0
 24  2  1  0  0  0  0
 25 18  1  6  0  0  0
 25 27  1  0  0  0  0
 25 19  1  0  0  0  0
 26  8  2  0  0  0  0
 27  1  1  1  0  0  0
 27 21  1  0  0  0  0
 28 15  1  0  0  0  0
 29 35  1  0  0  0  0
 30 29  2  0  0  0  0
 31 34  2  0  0  0  0
 31 30  1  0  0  0  0
 32 34  1  0  0  0  0
 33 35  2  0  0  0  0
 34 33  1  0  0  0  0
 37 36  1  0  0  0  0
M  END
>  <MODEL>
1

>  <REMARK>
 VINA RESULT:      -9.8      0.000      0.000
  Name = 
  2 active torsions:
  status: ('A' for Active; 'I' for Inactive)
    1  A    between atoms: C_4  and  C_37
    2  A    between atoms: C_23  and  C_30
                            x       y       z     vdW  Elec       q    Type
                         _______ _______ _______ _____ _____    ______ ____

>  <TORSDO>
F 2

$$$$
=
 OpenBabel11112417173D

 37 44  0  0  1  0  0  0  0  0999 V2000
  193.1220  174.5970  144.0570 C   0  0  0  0  0  2  0  0  0  0  0  0
  192.0060  170.9510  141.5260 C   0  0  1  0  0  0  0  0  0  0  0  0
  189.6110  174.2870  142.2930 C   0  0  0  0  0  0  0  0  0  0  0  0
  194.5300  174.6430  144.7070 C   0  0  2  0  0  3  0  0  0  0  0  0
  189.7380  176.0970  145.7800 C   0  0  0  0  0  2  0  0  0  0  0  0
  190.2880  172.5640  140.7320 C   0  0  0  0  0  0  0  0  0  0  0  0
  189.8170  174.5880  143.6940 N   0  0  0  0  0  0  0  0  0  0  0  0
  193.7370  176.3310  146.4830 C   0  0  0  0  0  0  0  0  0  0  0  0
  190.3790  173.2220  141.9400 C   0  0  0  0  0  0  0  0  0  0  0  0
  188.9420  175.3890  144.6300 C   0  0  2  0  0  3  0  0  0  0  0  0
  189.4140  173.0710  139.7660 C   0  0  0  0  0  3  0  0  0  0  0  0
  194.6840  175.2250  146.1370 C   0  0  0  0  0  2  0  0  0  0  0  0
  191.1340  172.7250  143.0020 N   0  0  0  0  0  0  0  0  0  0  0  0
  193.3540  171.5650  141.1930 C   0  0  0  0  0  1  0  0  0  0  0  0
  187.8460  175.9990  141.5830 C   0  0  0  0  0  2  0  0  0  0  0  0
  188.6360  174.2060  140.0710 C   0  0  0  0  0  3  0  0  0  0  0  0
  191.6130  171.3460  142.9720 C   0  0  0  0  0  2  0  0  0  0  0  0
  192.3590  176.0600  146.3430 N   0  0  0  0  0  0  0  0  0  0  0  0
  191.1840  176.1200  145.3980 C   0  0  1  0  0  3  0  0  0  0  0  0
  188.7070  174.8160  141.3430 C   0  0  0  0  0  0  0  0  0  0  0  0
  190.7470  173.5010  144.1760 C   0  0  1  0  0  3  0  0  0  0  0  0
  191.0330  171.3900  140.5560 O   0  0  0  0  0  0  0  0  0  0  0  0
  188.0520  176.4490  143.9530 C   0  0  1  0  0  3  0  0  0  0  0  0
  192.1230  169.5760  141.4550 F   0  0  0  0  0  0  0  0  0  0  0  0
  191.4830  174.9310  146.0150 C   0  0  1  0  0  3  0  0  0  0  0  0
  194.1440  177.4550  146.8720 O   0  0  0  0  0  0  0  0  0  0  0  0
  192.0010  173.9960  144.9440 C   0  0  2  0  0  3  0  0  0  0  0  0
  187.1420  175.8660  142.9020 C   0  0  0  0  0  2  0  0  0  0  0  0
  186.6710  178.4490  144.5610 C   0  0  0  0  0  3  0  0  0  0  0  0
  187.2130  177.2140  144.9390 C   0  0  0  0  0  0  0  0  0  0  0  0
  186.9590  176.7110  146.2250 C   0  0  0  0  0  3  0  0  0  0  0  0
  185.9330  176.9520  148.3630 F   0  0  0  0  0  0  0  0  0  0  0  0
  185.6380  178.6740  146.7400 C   0  0  0  0  0  3  0  0  0  0  0  0
  186.1740  177.4400  147.1230 C   0  0  0  0  0  0  0  0  0  0  0  0
  185.8870  179.1770  145.4600 C   0  0  0  0  0  3  0  0  0  0  0  0
  196.8000  175.2460  144.2770 O   0  0  0  0  0  1  0  0  0  0  0  0
  195.5020  175.3390  143.7730 C   0  0  0  0  0  2  0  0  0  0  0  0
  1  4  1  0  0  0  0
  2 14  1  6  0  0  0
  2 17  1  0  0  0  0
  3  7  1  0  0  0  0
  4 37  1  6  0  0  0
  4 12  1  0  0  0  0
  6  9  2  0  0  0  0
  7 21  1  0  0  0  0
  7 10  1  0  0  0  0
  8 26  2  0  0  0  0
  9  3  1  0  0  0  0
  9 13  1  0  0  0  0
 10  5  1  1  0  0  0
 11 16  2  0  0  0  0
 11  6  1  0  0  0  0
 12  8  1  0  0  0  0
 15 28  1  0  0  0  0
 16 20  1  0  0  0  0
 17 13  1  0  0  0  0
 18  8  1  0  0  0  0
 19  5  1  1  0  0  0
 19 25  1  0  0  0  0
 19 18  1  0  0  0  0
 20 15  1  0  0  0  0
 20  3  2  0  0  0  0
 21 13  1  6  0  0  0
 21 27  1  0  0  0  0
 22  6  1  0  0  0  0
 22  2  1  0  0  0  0
 23 10  1  0  0  0  0
 23 30  1  1  0  0  0
 24  2  1  0  0  0  0
 25 18  1  1  0  0  0
 27  1  1  6  0  0  0
 27 25  1  0  0  0  0
 28 23  1  0  0  0  0
 29 30  2  0  0  0  0
 29 35  1  0  0  0  0
 30 31  1  0  0  0  0
 31 34  2  0  0  0  0
 33 34  1  0  0  0  0
 34 32  1  0  0  0  0
 35 33  2  0  0  0  0
 37 36  1  0  0  0  0
M  END
>  <MODEL>
2

>  <REMARK>
 VINA RESULT:      -9.3      2.212      5.451
  Name = 
  2 active torsions:
  status: ('A' for Active; 'I' for Inactive)
    1  A    between atoms: C_4  and  C_37
    2  A    between atoms: C_23  and  C_30
                            x       y       z     vdW  Elec       q    Type
                         _______ _______ _______ _____ _____    ______ ____

>  <TORSDO>
F 2

$$$$
=
 OpenBabel11112417173D

 37 44  0  0  1  0  0  0  0  0999 V2000
  192.4090  174.8750  144.0300 C   0  0  0  0  0  2  0  0  0  0  0  0
  191.1290  171.7460  140.9440 C   0  0  1  0  0  0  0  0  0  0  0  0
  188.8470  174.9550  142.3420 C   0  0  0  0  0  0  0  0  0  0  0  0
  193.8330  174.7750  144.6370 C   0  0  2  0  0  3  0  0  0  0  0  0
  189.1110  176.1350  146.0820 C   0  0  0  0  0  2  0  0  0  0  0  0
  189.4380  173.5120  140.4890 C   0  0  0  0  0  0  0  0  0  0  0  0
  189.0970  175.0060  143.7670 N   0  0  0  0  0  0  0  0  0  0  0  0
  193.1320  176.1510  146.6980 C   0  0  0  0  0  0  0  0  0  0  0  0
  189.5770  173.9500  141.7890 C   0  0  0  0  0  0  0  0  0  0  0  0
  188.2680  175.6550  144.8510 C   0  0  2  0  0  3  0  0  0  0  0  0
  188.5550  174.1980  139.6500 C   0  0  0  0  0  3  0  0  0  0  0  0
  194.0390  175.0990  146.1400 C   0  0  0  0  0  2  0  0  0  0  0  0
  190.3430  173.2600  142.7270 N   0  0  0  0  0  0  0  0  0  0  0  0
  192.4850  172.3770  140.6820 C   0  0  0  0  0  1  0  0  0  0  0  0
  187.1150  176.8050  141.9880 C   0  0  0  0  0  2  0  0  0  0  0  0
  187.8160  175.2820  140.1680 C   0  0  0  0  0  3  0  0  0  0  0  0
  190.7830  171.8960  142.4470 C   0  0  0  0  0  2  0  0  0  0  0  0
  191.7440  175.9400  146.5540 N   0  0  0  0  0  0  0  0  0  0  0  0
  190.5480  176.1900  145.6680 C   0  0  1  0  0  3  0  0  0  0  0  0
  187.9360  175.6620  141.5230 C   0  0  0  0  0  0  0  0  0  0  0  0
  190.0070  173.8310  144.0280 C   0  0  1  0  0  3  0  0  0  0  0  0
  190.1450  172.3690  140.0930 O   0  0  0  0  0  0  0  0  0  0  0  0
  187.3920  176.8360  144.3930 C   0  0  1  0  0  3  0  0  0  0  0  0
  191.2060  170.4020  140.6350 F   0  0  0  0  0  0  0  0  0  0  0  0
  190.8280  174.9050  146.0620 C   0  0  1  0  0  3  0  0  0  0  0  0
  193.5800  177.1820  147.2620 O   0  0  0  0  0  0  0  0  0  0  0  0
  191.2940  174.1570  144.8320 C   0  0  2  0  0  3  0  0  0  0  0  0
  186.4390  176.4640  143.2840 C   0  0  0  0  0  2  0  0  0  0  0  0
  185.2010  177.3630  145.4870 C   0  0  0  0  0  3  0  0  0  0  0  0
  186.5990  177.4390  145.5180 C   0  0  0  0  0  0  0  0  0  0  0  0
  187.2340  178.0710  146.6000 C   0  0  0  0  0  3  0  0  0  0  0  0
  187.0910  179.2320  148.6760 F   0  0  0  0  0  0  0  0  0  0  0  0
  185.0790  178.5450  147.5970 C   0  0  0  0  0  3  0  0  0  0  0  0
  186.4740  178.6230  147.6360 C   0  0  0  0  0  0  0  0  0  0  0  0
  184.4430  177.9150  146.5230 C   0  0  0  0  0  3  0  0  0  0  0  0
  196.0600  175.6080  144.4100 O   0  0  0  0  0  1  0  0  0  0  0  0
  194.8010  175.6000  143.8080 C   0  0  0  0  0  2  0  0  0  0  0  0
  1  4  1  0  0  0  0
  2 14  1  6  0  0  0
  2 17  1  0  0  0  0
  3  7  1  0  0  0  0
  4 37  1  6  0  0  0
  4 12  1  0  0  0  0
  6  9  2  0  0  0  0
  7 21  1  0  0  0  0
  7 10  1  0  0  0  0
  8 26  2  0  0  0  0
  9  3  1  0  0  0  0
  9 13  1  0  0  0  0
 10  5  1  1  0  0  0
 11 16  2  0  0  0  0
 11  6  1  0  0  0  0
 12  8  1  0  0  0  0
 15 28  1  0  0  0  0
 16 20  1  0  0  0  0
 17 13  1  0  0  0  0
 18  8  1  0  0  0  0
 19 25  1  0  0  0  0
 19  5  1  1  0  0  0
 19 18  1  0  0  0  0
 20 15  1  0  0  0  0
 20  3  2  0  0  0  0
 21 13  1  6  0  0  0
 21 27  1  0  0  0  0
 22  6  1  0  0  0  0
 22  2  1  0  0  0  0
 23 10  1  0  0  0  0
 23 30  1  1  0  0  0
 24  2  1  0  0  0  0
 25 18  1  1  0  0  0
 27  1  1  6  0  0  0
 27 25  1  0  0  0  0
 28 23  1  0  0  0  0
 29 30  2  0  0  0  0
 29 35  1  0  0  0  0
 30 31  1  0  0  0  0
 31 34  2  0  0  0  0
 33 34  1  0  0  0  0
 34 32  1  0  0  0  0
 35 33  2  0  0  0  0
 37 36  1  0  0  0  0
M  END
>  <MODEL>
3

>  <REMARK>
 VINA RESULT:      -9.1      2.216      5.352
  Name = 
  2 active torsions:
  status: ('A' for Active; 'I' for Inactive)
    1  A    between atoms: C_4  and  C_37
    2  A    between atoms: C_23  and  C_30
                            x       y       z     vdW  Elec       q    Type
                         _______ _______ _______ _____ _____    ______ ____

>  <TORSDO>
F 2

$$$$
=
 OpenBabel11112417173D

 37 44  0  0  1  0  0  0  0  0999 V2000
  193.4730  174.4210  144.1680 C   0  0  0  0  0  2  0  0  0  0  0  0
  192.4780  170.4960  142.0340 C   0  0  1  0  0  0  0  0  0  0  0  0
  189.9960  173.8360  142.4060 C   0  0  0  0  0  0  0  0  0  0  0  0
  194.8700  174.5710  144.8270 C   0  0  2  0  0  3  0  0  0  0  0  0
  190.0300  176.0160  145.6770 C   0  0  0  0  0  2  0  0  0  0  0  0
  190.7350  171.9720  141.0500 C   0  0  0  0  0  0  0  0  0  0  0  0
  190.1750  174.2920  143.7680 N   0  0  0  0  0  0  0  0  0  0  0  0
  194.0130  176.4210  146.3990 C   0  0  0  0  0  0  0  0  0  0  0  0
  190.7940  172.7580  142.1800 C   0  0  0  0  0  0  0  0  0  0  0  0
  189.2680  175.1690  144.6010 C   0  0  2  0  0  3  0  0  0  0  0  0
  189.8640  172.3500  140.0230 C   0  0  0  0  0  3  0  0  0  0  0  0
  194.9900  175.3080  146.1860 C   0  0  0  0  0  2  0  0  0  0  0  0
  191.5440  172.3980  143.2980 N   0  0  0  0  0  0  0  0  0  0  0  0
  193.8160  171.1030  141.6530 C   0  0  0  0  0  1  0  0  0  0  0  0
  188.2030  175.4190  141.4930 C   0  0  0  0  0  2  0  0  0  0  0  0
  189.0560  173.4920  140.1940 C   0  0  0  0  0  3  0  0  0  0  0  0
  192.0540  171.0360  143.4240 C   0  0  0  0  0  2  0  0  0  0  0  0
  192.6440  176.1040  146.2720 N   0  0  0  0  0  0  0  0  0  0  0  0
  191.4810  176.0330  145.3130 C   0  0  1  0  0  3  0  0  0  0  0  0
  189.0940  174.2380  141.3930 C   0  0  0  0  0  0  0  0  0  0  0  0
  191.1220  173.2870  144.3760 C   0  0  1  0  0  3  0  0  0  0  0  0
  191.5090  170.8040  141.0110 O   0  0  0  0  0  0  0  0  0  0  0  0
  188.3640  176.1270  143.8030 C   0  0  1  0  0  3  0  0  0  0  0  0
  192.6270  169.1250  142.1140 F   0  0  0  0  0  0  0  0  0  0  0  0
  191.7980  174.9250  146.0580 C   0  0  1  0  0  3  0  0  0  0  0  0
  194.3880  177.5910  146.6680 O   0  0  0  0  0  0  0  0  0  0  0  0
  192.3530  173.8930  145.1010 C   0  0  2  0  0  3  0  0  0  0  0  0
  187.4830  175.4120  142.8100 C   0  0  0  0  0  2  0  0  0  0  0  0
  187.1690  176.5110  145.9700 C   0  0  0  0  0  3  0  0  0  0  0  0
  187.4930  176.9740  144.6890 C   0  0  0  0  0  0  0  0  0  0  0  0
  187.0060  178.2180  144.2570 C   0  0  0  0  0  3  0  0  0  0  0  0
  185.7300  180.1860  144.6800 F   0  0  0  0  0  0  0  0  0  0  0  0
  185.8760  178.5190  146.3780 C   0  0  0  0  0  3  0  0  0  0  0  0
  186.1990  178.9870  145.1010 C   0  0  0  0  0  0  0  0  0  0  0  0
  186.3620  177.2820  146.8120 C   0  0  0  0  0  3  0  0  0  0  0  0
  195.8090  174.4770  142.6320 O   0  0  0  0  0  1  0  0  0  0  0  0
  195.8390  175.1860  143.8340 C   0  0  0  0  0  2  0  0  0  0  0  0
  1  4  1  0  0  0  0
  2 14  1  6  0  0  0
  2 24  1  0  0  0  0
  2 17  1  0  0  0  0
  3  7  1  0  0  0  0
  4 37  1  6  0  0  0
  4 12  1  0  0  0  0
  6  9  2  0  0  0  0
  7 21  1  0  0  0  0
  7 10  1  0  0  0  0
  8 26  2  0  0  0  0
  9  3  1  0  0  0  0
  9 13  1  0  0  0  0
 10  5  1  1  0  0  0
 11 16  2  0  0  0  0
 11  6  1  0  0  0  0
 12  8  1  0  0  0  0
 13 17  1  0  0  0  0
 15 28  1  0  0  0  0
 16 20  1  0  0  0  0
 18  8  1  0  0  0  0
 19  5  1  1  0  0  0
 19 25  1  0  0  0  0
 19 18  1  0  0  0  0
 20 15  1  0  0  0  0
 20  3  2  0  0  0  0
 21 13  1  6  0  0  0
 21 27  1  0  0  0  0
 22  6  1  0  0  0  0
 22  2  1  0  0  0  0
 23 10  1  0  0  0  0
 23 30  1  1  0  0  0
 25 18  1  1  0  0  0
 27  1  1  6  0  0  0
 27 25  1  0  0  0  0
 28 23  1  0  0  0  0
 29 35  1  0  0  0  0
 30 29  2  0  0  0  0
 31 30  1  0  0  0  0
 31 34  2  0  0  0  0
 32 34  1  0  0  0  0
 33 35  2  0  0  0  0
 34 33  1  0  0  0  0
 36 37  1  0  0  0  0
M  END
>  <MODEL>
4

>  <REMARK>
 VINA RESULT:      -9.0      2.122      5.358
  Name = 
  2 active torsions:
  status: ('A' for Active; 'I' for Inactive)
    1  A    between atoms: C_4  and  C_37
    2  A    between atoms: C_23  and  C_30
                            x       y       z     vdW  Elec       q    Type
                         _______ _______ _______ _____ _____    ______ ____

>  <TORSDO>
F 2

$$$$
=
 OpenBabel11112417173D

 37 44  0  0  1  0  0  0  0  0999 V2000
  191.1580  174.8210  142.4920 C   0  0  0  0  0  2  0  0  0  0  0  0
  189.1110  172.9810  138.8350 C   0  0  1  0  0  0  0  0  0  0  0  0
  187.6270  176.0530  141.2480 C   0  0  0  0  0  0  0  0  0  0  0  0
  192.5530  174.2830  142.9060 C   0  0  2  0  0  3  0  0  0  0  0  0
  188.2960  176.0720  145.1200 C   0  0  0  0  0  2  0  0  0  0  0  0
  187.8160  175.0960  139.0310 C   0  0  0  0  0  0  0  0  0  0  0  0
  187.9420  175.6560  142.6030 N   0  0  0  0  0  0  0  0  0  0  0  0
  192.2500  175.1390  145.3160 C   0  0  0  0  0  0  0  0  0  0  0  0
  188.1010  175.1190  140.3800 C   0  0  0  0  0  0  0  0  0  0  0  0
  187.3180  176.1250  143.8970 C   0  0  2  0  0  3  0  0  0  0  0  0
  187.0650  176.1450  138.4940 C   0  0  0  0  0  3  0  0  0  0  0  0
  192.8880  174.1300  144.4130 C   0  0  0  0  0  2  0  0  0  0  0  0
  188.7430  174.0610  141.0230 N   0  0  0  0  0  0  0  0  0  0  0  0
  190.5570  173.3860  138.6150 C   0  0  0  0  0  1  0  0  0  0  0  0
  186.3150  178.2260  141.5670 C   0  0  0  0  0  2  0  0  0  0  0  0
  186.5970  177.1630  139.3500 C   0  0  0  0  0  3  0  0  0  0  0  0
  188.8690  172.7710  140.3510 C   0  0  0  0  0  2  0  0  0  0  0  0
  190.8440  175.2490  145.2610 N   0  0  0  0  0  0  0  0  0  0  0  0
  189.6920  175.9610  144.5950 C   0  0  1  0  0  3  0  0  0  0  0  0
  186.8530  177.1210  140.7390 C   0  0  0  0  0  0  0  0  0  0  0  0
  188.5920  174.3020  142.4540 C   0  0  1  0  0  3  0  0  0  0  0  0
  188.2460  173.9940  138.2800 O   0  0  0  0  0  0  0  0  0  0  0  0
  186.6940  177.5330  143.8550 C   0  0  1  0  0  3  0  0  0  0  0  0
  188.8870  171.7870  138.1770 F   0  0  0  0  0  0  0  0  0  0  0  0
  189.7090  174.5880  144.6080 C   0  0  1  0  0  3  0  0  0  0  0  0
  192.9310  175.8660  146.0840 O   0  0  0  0  0  0  0  0  0  0  0  0
  189.9520  174.1370  143.1840 C   0  0  2  0  0  3  0  0  0  0  0  0
  185.6380  177.6750  142.7880 C   0  0  0  0  0  2  0  0  0  0  0  0
  184.7080  177.8780  145.3420 C   0  0  0  0  0  3  0  0  0  0  0  0
  186.0970  177.9400  145.1730 C   0  0  0  0  0  0  0  0  0  0  0  0
  186.9050  178.3760  146.2360 C   0  0  0  0  0  3  0  0  0  0  0  0
  187.1090  179.1690  148.4740 F   0  0  0  0  0  0  0  0  0  0  0  0
  184.9380  178.6860  147.6140 C   0  0  0  0  0  3  0  0  0  0  0  0
  186.3260  178.7480  147.4520 C   0  0  0  0  0  0  0  0  0  0  0  0
  184.1300  178.2500  146.5590 C   0  0  0  0  0  3  0  0  0  0  0  0
  193.3470  176.4630  142.3390 O   0  0  0  0  0  1  0  0  0  0  0  0
  193.6380  175.1020  142.2320 C   0  0  0  0  0  2  0  0  0  0  0  0
  1  4  1  0  0  0  0
  2 14  1  6  0  0  0
  2 17  1  0  0  0  0
  3  7  1  0  0  0  0
  4 37  1  1  0  0  0
  4 12  1  0  0  0  0
  6  9  1  0  0  0  0
  7 10  1  0  0  0  0
  8 26  2  0  0  0  0
  9 13  1  0  0  0  0
  9  3  2  0  0  0  0
 10  5  1  1  0  0  0
 11  6  2  0  0  0  0
 11 16  1  0  0  0  0
 12  8  1  0  0  0  0
 15 28  1  0  0  0  0
 16 20  2  0  0  0  0
 17 13  1  0  0  0  0
 18  8  1  0  0  0  0
 19 25  1  0  0  0  0
 19  5  1  1  0  0  0
 19 18  1  0  0  0  0
 20  3  1  0  0  0  0
 20 15  1  0  0  0  0
 21 13  1  6  0  0  0
 21  7  1  0  0  0  0
 21 27  1  0  0  0  0
 22  2  1  0  0  0  0
 22  6  1  0  0  0  0
 23 10  1  0  0  0  0
 23 30  1  1  0  0  0
 24  2  1  0  0  0  0
 25 18  1  1  0  0  0
 27  1  1  6  0  0  0
 27 25  1  0  0  0  0
 28 23  1  0  0  0  0
 29 35  1  0  0  0  0
 30 29  2  0  0  0  0
 30 31  1  0  0  0  0
 31 34  2  0  0  0  0
 34 33  1  0  0  0  0
 34 32  1  0  0  0  0
 35 33  2  0  0  0  0
 37 36  1  0  0  0  0
M  END
>  <MODEL>
5

>  <REMARK>
 VINA RESULT:      -9.0      2.620      5.591
  Name = 
  2 active torsions:
  status: ('A' for Active; 'I' for Inactive)
    1  A    between atoms: C_4  and  C_37
    2  A    between atoms: C_23  and  C_30
                            x       y       z     vdW  Elec       q    Type
                         _______ _______ _______ _____ _____    ______ ____

>  <TORSDO>
F 2

$$$$
=
 OpenBabel11112417173D

 37 44  0  0  1  0  0  0  0  0999 V2000
  190.9500  173.5720  143.0670 C   0  0  0  0  0  2  0  0  0  0  0  0
  193.5740  176.0590  145.8730 C   0  0  1  0  0  0  0  0  0  0  0  0
  189.5180  176.6540  145.0650 C   0  0  0  0  0  0  0  0  0  0  0  0
  191.5920  172.3690  142.3270 C   0  0  2  0  0  3  0  0  0  0  0  0
  188.0610  175.9800  141.4770 C   0  0  0  0  0  2  0  0  0  0  0  0
  191.3210  176.7410  146.6780 C   0  0  0  0  0  0  0  0  0  0  0  0
  189.3810  176.4470  143.6390 N   0  0  0  0  0  0  0  0  0  0  0  0
  189.7690  172.4170  140.5100 C   0  0  0  0  0  0  0  0  0  0  0  0
  190.8120  176.4510  145.4310 C   0  0  0  0  0  0  0  0  0  0  0  0
  188.2810  176.9160  142.7150 C   0  0  2  0  0  3  0  0  0  0  0  0
  190.4390  177.1880  147.6670 C   0  0  0  0  0  3  0  0  0  0  0  0
  191.1830  172.0780  140.8600 C   0  0  0  0  0  2  0  0  0  0  0  0
  191.6300  176.1120  144.3540 N   0  0  0  0  0  0  0  0  0  0  0  0
  193.6660  174.5580  146.0840 C   0  0  0  0  0  1  0  0  0  0  0  0
  187.1580  177.3360  145.7830 C   0  0  0  0  0  2  0  0  0  0  0  0
  189.0780  177.3620  147.3450 C   0  0  0  0  0  3  0  0  0  0  0  0
  193.0700  176.3390  144.4340 C   0  0  0  0  0  2  0  0  0  0  0  0
  189.3500  173.7430  140.7520 N   0  0  0  0  0  0  0  0  0  0  0  0
  188.7180  174.6670  141.7640 C   0  0  1  0  0  3  0  0  0  0  0  0
  188.6020  177.1180  146.0370 C   0  0  0  0  0  0  0  0  0  0  0  0
  190.7890  176.1840  143.1630 C   0  0  1  0  0  3  0  0  0  0  0  0
  192.7040  176.6260  146.8760 O   0  0  0  0  0  0  0  0  0  0  0  0
  186.9110  177.1410  143.3830 C   0  0  1  0  0  3  0  0  0  0  0  0
  194.8370  176.5980  146.0180 F   0  0  0  0  0  0  0  0  0  0  0  0
  189.9200  175.0170  141.2010 C   0  0  1  0  0  3  0  0  0  0  0  0
  188.9810  171.5620  140.0300 O   0  0  0  0  0  0  0  0  0  0  0  0
  190.9660  174.9130  142.2900 C   0  0  2  0  0  3  0  0  0  0  0  0
  186.9700  178.1270  144.5220 C   0  0  0  0  0  2  0  0  0  0  0  0
  186.2030  177.7570  141.0600 C   0  0  0  0  0  3  0  0  0  0  0  0
  185.8610  177.5990  142.4090 C   0  0  0  0  0  0  0  0  0  0  0  0
  184.5470  177.8670  142.8270 C   0  0  0  0  0  3  0  0  0  0  0  0
  182.3230  178.5480  142.3100 F   0  0  0  0  0  0  0  0  0  0  0  0
  183.9360  178.4480  140.5570 C   0  0  0  0  0  3  0  0  0  0  0  0
  183.5880  178.2900  141.9020 C   0  0  0  0  0  0  0  0  0  0  0  0
  185.2430  178.1810  140.1370 C   0  0  0  0  0  3  0  0  0  0  0  0
  192.2670  171.1450  144.2640 O   0  0  0  0  0  1  0  0  0  0  0  0
  191.4200  171.1080  143.1560 C   0  0  0  0  0  2  0  0  0  0  0  0
  2 24  1  0  0  0  0
  2 14  1  1  0  0  0
  2 22  1  0  0  0  0
  3  9  2  0  0  0  0
  3 20  1  0  0  0  0
  4  1  1  0  0  0  0
  4 37  1  1  0  0  0
  6 22  1  0  0  0  0
  6 11  2  0  0  0  0
  7  3  1  0  0  0  0
  8 18  1  0  0  0  0
  8 12  1  0  0  0  0
  9  6  1  0  0  0  0
 10  5  1  6  0  0  0
 10 23  1  0  0  0  0
 10  7  1  0  0  0  0
 12  4  1  0  0  0  0
 13 17  1  0  0  0  0
 13  9  1  0  0  0  0
 15 20  1  0  0  0  0
 16 11  1  0  0  0  0
 17  2  1  0  0  0  0
 18 19  1  0  0  0  0
 19  5  1  6  0  0  0
 20 16  2  0  0  0  0
 21  7  1  1  0  0  0
 21 13  1  0  0  0  0
 23 30  1  6  0  0  0
 23 28  1  0  0  0  0
 25 18  1  6  0  0  0
 25 19  1  0  0  0  0
 25 27  1  0  0  0  0
 26  8  2  0  0  0  0
 27  1  1  1  0  0  0
 27 21  1  0  0  0  0
 28 15  1  0  0  0  0
 29 30  1  0  0  0  0
 30 31  2  0  0  0  0
 33 34  2  0  0  0  0
 34 32  1  0  0  0  0
 34 31  1  0  0  0  0
 35 33  1  0  0  0  0
 35 29  2  0  0  0  0
 37 36  1  0  0  0  0
M  END
>  <MODEL>
6

>  <REMARK>
 VINA RESULT:      -8.2      2.073      2.945
  Name = 
  2 active torsions:
  status: ('A' for Active; 'I' for Inactive)
    1  A    between atoms: C_4  and  C_37
    2  A    between atoms: C_23  and  C_30
                            x       y       z     vdW  Elec       q    Type
                         _______ _______ _______ _____ _____    ______ ____

>  <TORSDO>
F 2

$$$$
=
 OpenBabel11112417173D

 37 44  0  0  1  0  0  0  0  0999 V2000
  189.2190  176.5080  145.3090 C   0  0  0  0  0  2  0  0  0  0  0  0
  187.2450  177.0460  141.2150 C   0  0  1  0  0  0  0  0  0  0  0  0
  190.4760  174.5570  142.1230 C   0  0  0  0  0  0  0  0  0  0  0  0
  188.6540  177.3080  146.5120 C   0  0  2  0  0  3  0  0  0  0  0  0
  193.1730  175.6430  144.7670 C   0  0  0  0  0  2  0  0  0  0  0  0
  188.4620  174.9120  140.8250 C   0  0  0  0  0  0  0  0  0  0  0  0
  191.3150  175.3330  143.0100 N   0  0  0  0  0  0  0  0  0  0  0  0
  190.8740  177.0850  147.7980 C   0  0  0  0  0  0  0  0  0  0  0  0
  189.3730  175.2810  141.7920 C   0  0  0  0  0  0  0  0  0  0  0  0
  192.7790  175.1470  143.3340 C   0  0  2  0  0  3  0  0  0  0  0  0
  188.6240  173.6720  140.2000 C   0  0  0  0  0  3  0  0  0  0  0  0
  189.6380  177.8930  147.5600 C   0  0  0  0  0  2  0  0  0  0  0  0
  189.3590  176.5430  142.3850 N   0  0  0  0  0  0  0  0  0  0  0  0
  186.2780  176.7840  142.3550 C   0  0  0  0  0  1  0  0  0  0  0  0
  191.8090  172.3970  141.8010 C   0  0  0  0  0  2  0  0  0  0  0  0
  189.7260  172.8650  140.5510 C   0  0  0  0  0  3  0  0  0  0  0  0
  188.5660  177.6160  141.7910 C   0  0  0  0  0  2  0  0  0  0  0  0
  191.6710  176.7880  146.6720 N   0  0  0  0  0  0  0  0  0  0  0  0
  191.9180  175.7860  145.5700 C   0  0  1  0  0  3  0  0  0  0  0  0
  190.6760  173.3040  141.4990 C   0  0  0  0  0  0  0  0  0  0  0  0
  190.6220  176.6700  143.1040 C   0  0  1  0  0  3  0  0  0  0  0  0
  187.4540  175.8230  140.4790 O   0  0  0  0  0  0  0  0  0  0  0  0
  193.3120  173.7100  143.1710 C   0  0  1  0  0  3  0  0  0  0  0  0
  186.6830  177.9860  140.3730 F   0  0  0  0  0  0  0  0  0  0  0  0
  191.7240  177.1050  145.2400 C   0  0  1  0  0  3  0  0  0  0  0  0
  191.1900  176.6780  148.9450 O   0  0  0  0  0  0  0  0  0  0  0  0
  190.3820  177.1930  144.5450 C   0  0  2  0  0  3  0  0  0  0  0  0
  193.1020  173.1600  141.7830 C   0  0  0  0  0  2  0  0  0  0  0  0
  195.7230  174.1470  142.6500 C   0  0  0  0  0  3  0  0  0  0  0  0
  194.7710  173.5920  143.5140 C   0  0  0  0  0  0  0  0  0  0  0  0
  195.1940  172.9410  144.6850 C   0  0  0  0  0  3  0  0  0  0  0  0
  196.9600  172.2170  146.1110 F   0  0  0  0  0  0  0  0  0  0  0  0
  197.5020  173.4010  144.1140 C   0  0  0  0  0  3  0  0  0  0  0  0
  196.5570  172.8460  144.9820 C   0  0  0  0  0  0  0  0  0  0  0  0
  197.0840  174.0510  142.9480 C   0  0  0  0  0  3  0  0  0  0  0  0
  186.3320  176.7900  146.7170 O   0  0  0  0  0  1  0  0  0  0  0  0
  187.5960  176.4830  147.2220 C   0  0  0  0  0  2  0  0  0  0  0  0
  1  4  1  0  0  0  0
  2 17  1  0  0  0  0
  2 14  1  1  0  0  0
  3  7  1  0  0  0  0
  4 37  1  1  0  0  0
  4 12  1  0  0  0  0
  6  9  2  0  0  0  0
  7 21  1  0  0  0  0
  7 10  1  0  0  0  0
  8 26  2  0  0  0  0
  9  3  1  0  0  0  0
  9 13  1  0  0  0  0
 10  5  1  1  0  0  0
 11 16  2  0  0  0  0
 11  6  1  0  0  0  0
 12  8  1  0  0  0  0
 16 20  1  0  0  0  0
 17 13  1  0  0  0  0
 18  8  1  0  0  0  0
 19  5  1  1  0  0  0
 19 18  1  0  0  0  0
 20 15  1  0  0  0  0
 20  3  2  0  0  0  0
 21 13  1  1  0  0  0
 21 27  1  0  0  0  0
 22  6  1  0  0  0  0
 22  2  1  0  0  0  0
 23 10  1  0  0  0  0
 23 30  1  6  0  0  0
 24  2  1  0  0  0  0
 25 19  1  0  0  0  0
 25 18  1  1  0  0  0
 27 25  1  0  0  0  0
 27  1  1  1  0  0  0
 28 15  1  0  0  0  0
 28 23  1  0  0  0  0
 29 35  2  0  0  0  0
 29 30  1  0  0  0  0
 30 31  2  0  0  0  0
 31 34  1  0  0  0  0
 33 34  2  0  0  0  0
 34 32  1  0  0  0  0
 35 33  1  0  0  0  0
 36 37  1  0  0  0  0
M  END
>  <MODEL>
7

>  <REMARK>
 VINA RESULT:      -8.1      2.566      8.119
  Name = 
  2 active torsions:
  status: ('A' for Active; 'I' for Inactive)
    1  A    between atoms: C_4  and  C_37
    2  A    between atoms: C_23  and  C_30
                            x       y       z     vdW  Elec       q    Type
                         _______ _______ _______ _____ _____    ______ ____

>  <TORSDO>
F 2

$$$$
=
 OpenBabel11112417173D

 37 44  0  0  1  0  0  0  0  0999 V2000
  189.6370  174.8340  142.4510 C   0  0  0  0  0  2  0  0  0  0  0  0
  189.2610  174.9280  147.0110 C   0  0  1  0  0  0  0  0  0  0  0  0
  192.7900  175.1850  144.7890 C   0  0  0  0  0  0  0  0  0  0  0  0
  188.3420  174.7050  141.6050 C   0  0  2  0  0  3  0  0  0  0  0  0
  193.2200  173.1520  141.4530 C   0  0  0  0  0  2  0  0  0  0  0  0
  191.5480  175.8710  146.7510 C   0  0  0  0  0  0  0  0  0  0  0  0
  192.6420  174.2110  143.7280 N   0  0  0  0  0  0  0  0  0  0  0  0
  189.6600  173.7910  139.5910 C   0  0  0  0  0  0  0  0  0  0  0  0
  191.6670  175.1940  145.5560 C   0  0  0  0  0  0  0  0  0  0  0  0
  193.7130  173.5600  142.8830 C   0  0  2  0  0  3  0  0  0  0  0  0
  192.6140  176.6750  147.1670 C   0  0  0  0  0  3  0  0  0  0  0  0
  188.3590  173.8250  140.3270 C   0  0  0  0  0  2  0  0  0  0  0  0
  190.7070  174.2830  145.1190 N   0  0  0  0  0  0  0  0  0  0  0  0
  188.3250  175.8720  146.2790 C   0  0  0  0  0  1  0  0  0  0  0  0
  195.1550  176.0910  144.4210 C   0  0  0  0  0  2  0  0  0  0  0  0
  193.7780  176.7350  146.3740 C   0  0  0  0  0  3  0  0  0  0  0  0
  189.6920  173.7930  146.0470 C   0  0  0  0  0  2  0  0  0  0  0  0
  190.8000  173.3950  140.3240 N   0  0  0  0  0  0  0  0  0  0  0  0
  191.9480  173.8860  141.1720 C   0  0  1  0  0  3  0  0  0  0  0  0
  193.8910  175.9770  145.1880 C   0  0  0  0  0  0  0  0  0  0  0  0
  191.3110  173.5560  144.0060 C   0  0  1  0  0  3  0  0  0  0  0  0
  190.3890  175.6750  147.5140 O   0  0  0  0  0  0  0  0  0  0  0  0
  195.0090  174.3760  142.7190 C   0  0  1  0  0  3  0  0  0  0  0  0
  188.5780  174.3740  148.0760 F   0  0  0  0  0  0  0  0  0  0  0  0
  191.1350  172.8940  141.6610 C   0  0  1  0  0  3  0  0  0  0  0  0
  189.7440  174.1070  138.3760 O   0  0  0  0  0  0  0  0  0  0  0  0
  190.3380  173.4960  142.7980 C   0  0  2  0  0  3  0  0  0  0  0  0
  195.6520  174.7280  144.0370 C   0  0  0  0  0  2  0  0  0  0  0  0
  196.5030  172.4190  142.2580 C   0  0  0  0  0  3  0  0  0  0  0  0
  196.0290  173.6770  141.8640 C   0  0  0  0  0  0  0  0  0  0  0  0
  196.5080  174.2580  140.6790 C   0  0  0  0  0  3  0  0  0  0  0  0
  197.9150  174.1510  138.7580 F   0  0  0  0  0  0  0  0  0  0  0  0
  197.9270  172.3320  140.3000 C   0  0  0  0  0  3  0  0  0  0  0  0
  197.4550  173.5860  139.9000 C   0  0  0  0  0  0  0  0  0  0  0  0
  197.4500  171.7490  141.4790 C   0  0  0  0  0  3  0  0  0  0  0  0
  186.6940  176.3800  142.0290 O   0  0  0  0  0  1  0  0  0  0  0  0
  187.8180  176.0860  141.2570 C   0  0  0  0  0  2  0  0  0  0  0  0
  2 14  1  6  0  0  0
  2 22  1  0  0  0  0
  2 24  1  0  0  0  0
  3 20  2  0  0  0  0
  3  9  1  0  0  0  0
  4 37  1  6  0  0  0
  4  1  1  0  0  0  0
  6 11  1  0  0  0  0
  6 22  1  0  0  0  0
  7  3  1  0  0  0  0
  8 18  1  0  0  0  0
  8 12  1  0  0  0  0
  9  6  2  0  0  0  0
 10  5  1  6  0  0  0
 10  7  1  0  0  0  0
 12  4  1  0  0  0  0
 13  9  1  0  0  0  0
 13 17  1  0  0  0  0
 15 20  1  0  0  0  0
 16 11  2  0  0  0  0
 17  2  1  0  0  0  0
 18 19  1  0  0  0  0
 19  5  1  6  0  0  0
 19 25  1  0  0  0  0
 20 16  1  0  0  0  0
 21  7  1  6  0  0  0
 21 13  1  0  0  0  0
 23 30  1  6  0  0  0
 23 10  1  0  0  0  0
 23 28  1  0  0  0  0
 25 18  1  6  0  0  0
 25 27  1  0  0  0  0
 26  8  2  0  0  0  0
 27  1  1  6  0  0  0
 27 21  1  0  0  0  0
 28 15  1  0  0  0  0
 30 29  1  0  0  0  0
 31 30  2  0  0  0  0
 32 34  1  0  0  0  0
 33 35  1  0  0  0  0
 34 33  2  0  0  0  0
 34 31  1  0  0  0  0
 35 29  2  0  0  0  0
 37 36  1  0  0  0  0
M  END
>  <MODEL>
8

>  <REMARK>
 VINA RESULT:      -7.9      2.822      7.330
  Name = 
  2 active torsions:
  status: ('A' for Active; 'I' for Inactive)
    1  A    between atoms: C_4  and  C_37
    2  A    between atoms: C_23  and  C_30
                            x       y       z     vdW  Elec       q    Type
                         _______ _______ _______ _____ _____    ______ ____

>  <TORSDO>
F 2

$$$$
=
 OpenBabel11112417173D

 37 44  0  0  1  0  0  0  0  0999 V2000
  189.6230  173.6970  140.0240 C   0  0  0  0  0  2  0  0  0  0  0  0
  187.0570  176.7010  142.3330 C   0  0  1  0  0  0  0  0  0  0  0  0
  191.0070  175.6260  143.1700 C   0  0  0  0  0  0  0  0  0  0  0  0
  189.0030  172.9890  138.7900 C   0  0  2  0  0  3  0  0  0  0  0  0
  192.2520  171.9410  142.6080 C   0  0  0  0  0  2  0  0  0  0  0  0
  189.3160  177.3590  143.1400 C   0  0  0  0  0  0  0  0  0  0  0  0
  191.0570  174.1920  142.9820 N   0  0  0  0  0  0  0  0  0  0  0  0
  190.6920  171.0530  138.9580 C   0  0  0  0  0  0  0  0  0  0  0  0
  189.7540  176.0770  142.8900 C   0  0  0  0  0  0  0  0  0  0  0  0
  192.0630  173.2010  143.5210 C   0  0  2  0  0  3  0  0  0  0  0  0
  190.2350  178.2910  143.6320 C   0  0  0  0  0  3  0  0  0  0  0  0
  189.3260  171.4940  138.5340 C   0  0  0  0  0  2  0  0  0  0  0  0
  188.8860  175.0540  142.5100 N   0  0  0  0  0  0  0  0  0  0  0  0
  187.0670  176.9010  140.8290 C   0  0  0  0  0  1  0  0  0  0  0  0
  193.3660  176.1910  143.9850 C   0  0  0  0  0  2  0  0  0  0  0  0
  191.5600  177.8790  143.8870 C   0  0  0  0  0  3  0  0  0  0  0  0
  187.4430  175.2350  142.6520 C   0  0  0  0  0  2  0  0  0  0  0  0
  191.0480  171.2810  140.3040 N   0  0  0  0  0  0  0  0  0  0  0  0
  191.6930  172.2580  141.2570 C   0  0  1  0  0  3  0  0  0  0  0  0
  191.9580  176.5390  143.6810 C   0  0  0  0  0  0  0  0  0  0  0  0
  189.6380  173.8100  142.6400 C   0  0  1  0  0  3  0  0  0  0  0  0
  187.9590  177.6480  142.9430 O   0  0  0  0  0  0  0  0  0  0  0  0
  193.4600  173.7770  143.8210 C   0  0  1  0  0  3  0  0  0  0  0  0
  185.7770  176.9370  142.7970 F   0  0  0  0  0  0  0  0  0  0  0  0
  190.4370  171.7810  141.5400 C   0  0  1  0  0  3  0  0  0  0  0  0
  191.4930  170.5120  138.1540 O   0  0  0  0  0  0  0  0  0  0  0  0
  189.4760  172.9370  141.3670 C   0  0  2  0  0  3  0  0  0  0  0  0
  193.4220  174.9280  144.7950 C   0  0  0  0  0  2  0  0  0  0  0  0
  195.7040  172.6640  143.8110 C   0  0  0  0  0  3  0  0  0  0  0  0
  194.4120  172.7400  144.3470 C   0  0  0  0  0  0  0  0  0  0  0  0
  194.0320  171.8520  145.3670 C   0  0  0  0  0  3  0  0  0  0  0  0
  194.5660  170.0420  146.8220 F   0  0  0  0  0  0  0  0  0  0  0  0
  196.2250  170.8250  145.2990 C   0  0  0  0  0  3  0  0  0  0  0  0
  194.9370  170.8970  145.8400 C   0  0  0  0  0  0  0  0  0  0  0  0
  196.6070  171.7090  144.2850 C   0  0  0  0  0  3  0  0  0  0  0  0
  188.1910  174.5510  137.1760 O   0  0  0  0  0  1  0  0  0  0  0  0
  189.3040  173.7910  137.5370 C   0  0  0  0  0  2  0  0  0  0  0  0
  2 14  1  6  0  0  0
  2 17  1  0  0  0  0
  2 24  1  0  0  0  0
  2 22  1  0  0  0  0
  3 20  1  0  0  0  0
  4 37  1  6  0  0  0
  4  1  1  0  0  0  0
  6 11  2  0  0  0  0
  7  3  1  0  0  0  0
  7 10  1  0  0  0  0
  8 18  1  0  0  0  0
  9  6  1  0  0  0  0
  9  3  2  0  0  0  0
 10  5  1  6  0  0  0
 10 23  1  0  0  0  0
 11 16  1  0  0  0  0
 12  4  1  0  0  0  0
 12  8  1  0  0  0  0
 13 17  1  0  0  0  0
 13  9  1  0  0  0  0
 15 28  1  0  0  0  0
 18 19  1  0  0  0  0
 19 25  1  0  0  0  0
 19  5  1  1  0  0  0
 20 16  2  0  0  0  0
 20 15  1  0  0  0  0
 21 13  1  6  0  0  0
 21  7  1  0  0  0  0
 22  6  1  0  0  0  0
 23 30  1  1  0  0  0
 23 28  1  0  0  0  0
 25 18  1  6  0  0  0
 26  8  2  0  0  0  0
 27  1  1  6  0  0  0
 27 25  1  0  0  0  0
 27 21  1  0  0  0  0
 29 35  2  0  0  0  0
 29 30  1  0  0  0  0
 30 31  2  0  0  0  0
 31 34  1  0  0  0  0
 33 34  2  0  0  0  0
 34 32  1  0  0  0  0
 35 33  1  0  0  0  0
 36 37  1  0  0  0  0
M  END
>  <MODEL>
9

>  <REMARK>
 VINA RESULT:      -7.7      3.166      7.029
  Name = 
  2 active torsions:
  status: ('A' for Active; 'I' for Inactive)
    1  A    between atoms: C_4  and  C_37
    2  A    between atoms: C_23  and  C_30
                            x       y       z     vdW  Elec       q    Type
                         _______ _______ _______ _____ _____    ______ ____

>  <TORSDO>
F 2

$$$$
