=
 OpenBabel11112416363D

 32 37  0  0  1  0  0  0  0  0999 V2000
  184.1520  178.3290  143.1980 C   0  0  0  0  0  2  0  0  0  0  0  0
  189.1380  175.7750  143.1740 C   0  0  1  0  0  3  0  0  0  0  0  0
  191.5620  175.7660  147.3030 C   0  0  0  0  0  2  0  0  0  0  0  0
  192.6330  174.9550  146.5690 C   0  0  0  0  0  2  0  0  0  0  0  0
  189.7890  173.6860  141.7660 C   0  0  0  0  0  0  0  0  0  0  0  0
  190.8060  172.7050  141.4160 C   0  0  0  0  0  0  0  0  0  0  0  0
  187.0580  176.9870  142.7380 C   0  0  0  0  0  0  0  0  0  0  0  0
  188.4800  177.6380  144.5920 C   0  0  0  0  0  3  0  0  0  0  0  0
  192.7610  171.6970  141.5150 N   0  0  0  0  0  0  0  0  0  0  0  0
  186.3700  178.8950  144.2950 C   0  0  0  0  0  2  0  0  0  0  0  0
  190.2840  175.8650  146.4680 C   0  0  0  0  0  2  0  0  0  0  0  0
  189.3900  176.6290  144.2620 C   0  0  0  0  0  0  0  0  0  0  0  0
  190.6150  176.4690  145.1030 C   0  0  0  0  0  0  0  0  0  0  0  0
  191.3400  174.6890  143.4240 C   0  0  0  0  0  0  0  0  0  0  0  0
  192.0100  171.0580  140.5940 C   0  0  0  0  0  3  0  0  0  0  0  0
  184.9850  178.2620  141.9190 C   0  0  0  0  0  2  0  0  0  0  0  0
  187.3140  177.8250  143.8470 C   0  0  0  0  0  0  0  0  0  0  0  0
  190.7580  171.6660  140.5020 C   0  0  0  0  0  3  0  0  0  0  0  0
  185.8840  177.1140  141.9190 N   0  0  0  0  0  2  0  0  0  0  0  0
  184.9760  178.3080  144.4870 C   0  0  1  0  0  3  0  0  0  0  0  0
  192.9040  175.5620  145.1940 C   0  0  0  0  0  2  0  0  0  0  0  0
  191.6460  175.6540  144.4550 N   0  0  0  0  0  0  0  0  0  0  0  0
  192.4320  173.6830  143.0580 C   0  0  0  0  0  2  0  0  0  0  0  0
  187.9670  175.9750  142.4250 C   0  0  0  0  0  3  0  0  0  0  0  0
  188.6610  173.6360  141.2070 O   0  0  0  0  0  0  0  0  0  0  0  0
  194.1220  171.3500  141.8860 C   0  0  0  0  0  1  0  0  0  0  0  0
  190.1210  174.7130  142.8050 C   0  0  0  0  0  0  0  0  0  0  0  0
  192.0220  172.6970  142.0120 C   0  0  0  0  0  0  0  0  0  0  0  0
  184.2690  179.0400  145.5250 N   0  0  0  0  0  2  0  0  0  0  0  0
  184.5000  178.3450  146.7820 C   0  0  0  0  0  3  0  0  0  0  0  0
  184.8930  176.9060  146.5080 C   0  0  0  0  0  1  0  0  0  0  0  0
  185.6160  179.0320  147.5390 C   0  0  0  0  0  1  0  0  0  0  0  0
  1 20  1  0  0  0  0
  2 24  1  6  0  0  0
  2 12  1  0  0  0  0
  4  3  1  0  0  0  0
  5 27  1  0  0  0  0
  6  5  1  0  0  0  0
  6 28  2  0  0  0  0
  7 17  1  0  0  0  0
  9 26  1  0  0  0  0
  9 28  1  0  0  0  0
 10 20  1  0  0  0  0
 11  3  1  0  0  0  0
 12  8  1  0  0  0  0
 12 13  2  0  0  0  0
 13 11  1  0  0  0  0
 14 22  1  0  0  0  0
 15  9  1  0  0  0  0
 16  1  1  0  0  0  0
 17 10  1  0  0  0  0
 17  8  2  0  0  0  0
 18 15  2  0  0  0  0
 18  6  1  0  0  0  0
 19 16  1  0  0  0  0
 19  7  1  0  0  0  0
 20 29  1  1  0  0  0
 21  4  1  0  0  0  0
 22 13  1  0  0  0  0
 22 21  1  0  0  0  0
 23 14  1  0  0  0  0
 24  7  2  0  0  0  0
 25  5  2  0  0  0  0
 27  2  1  0  0  0  0
 27 14  2  0  0  0  0
 28 23  1  0  0  0  0
 29 30  1  0  0  0  0
 30 32  1  0  0  0  0
 31 30  1  0  0  0  0
M  END
>  <MODEL>
1

>  <REMARK>
 VINA RESULT:      -9.1      0.000      0.000
  Name = 
  2 active torsions:
  status: ('A' for Active; 'I' for Inactive)
    1  A    between atoms: C_20  and  N_29
    2  A    between atoms: N_29  and  C_30
                            x       y       z     vdW  Elec       q    Type
                         _______ _______ _______ _____ _____    ______ ____

>  <TORSDO>
F 2

$$$$
=
 OpenBabel11112416363D

 32 37  0  0  1  0  0  0  0  0999 V2000
  193.6610  174.1570  143.6060 C   0  0  0  0  0  2  0  0  0  0  0  0
  188.3790  176.0050  143.8760 C   0  0  1  0  0  3  0  0  0  0  0  0
  187.0500  178.1070  147.9670 C   0  0  0  0  0  2  0  0  0  0  0  0
  185.6870  178.3310  147.3060 C   0  0  0  0  0  2  0  0  0  0  0  0
  186.9810  176.9610  141.9000 C   0  0  0  0  0  0  0  0  0  0  0  0
  185.7250  177.5380  141.4460 C   0  0  0  0  0  0  0  0  0  0  0  0
  190.5100  174.8700  143.4760 C   0  0  0  0  0  0  0  0  0  0  0  0
  189.7370  175.2450  145.7440 C   0  0  0  0  0  3  0  0  0  0  0  0
  183.6770  178.3270  141.6370 N   0  0  0  0  0  0  0  0  0  0  0  0
  191.9380  174.1480  145.4700 C   0  0  0  0  0  2  0  0  0  0  0  0
  188.0860  177.6450  146.9410 C   0  0  0  0  0  2  0  0  0  0  0  0
  188.5800  175.8620  145.2600 C   0  0  0  0  0  0  0  0  0  0  0  0
  187.5820  176.3820  146.2440 C   0  0  0  0  0  0  0  0  0  0  0  0
  186.1170  176.9270  144.2270 C   0  0  0  0  0  0  0  0  0  0  0  0
  184.0350  178.4080  140.3380 C   0  0  0  0  0  3  0  0  0  0  0  0
  192.5560  173.4750  142.8000 C   0  0  0  0  0  2  0  0  0  0  0  0
  190.7070  174.7520  144.8710 C   0  0  0  0  0  0  0  0  0  0  0  0
  185.3310  177.9190  140.1750 C   0  0  0  0  0  3  0  0  0  0  0  0
  191.4560  174.3870  142.5100 N   0  0  0  0  0  2  0  0  0  0  0  0
  193.1780  174.8240  144.8960 C   0  0  1  0  0  3  0  0  0  0  0  0
  185.2380  177.0620  146.5820 C   0  0  0  0  0  2  0  0  0  0  0  0
  186.2770  176.6570  145.6370 N   0  0  0  0  0  0  0  0  0  0  0  0
  184.7800  177.5130  143.7720 C   0  0  0  0  0  2  0  0  0  0  0  0
  189.3560  175.4980  143.0030 C   0  0  0  0  0  3  0  0  0  0  0  0
  187.9090  176.7650  141.0700 O   0  0  0  0  0  0  0  0  0  0  0  0
  182.4000  178.7420  142.1900 C   0  0  0  0  0  1  0  0  0  0  0  0
  187.1320  176.6420  143.3560 C   0  0  0  0  0  0  0  0  0  0  0  0
  184.7100  177.7980  142.3060 C   0  0  0  0  0  0  0  0  0  0  0  0
  194.2500  174.8110  145.8780 N   0  0  0  0  0  2  0  0  0  0  0  0
  194.4680  176.1850  146.3020 C   0  0  0  0  0  3  0  0  0  0  0  0
  194.8220  177.0420  145.1020 C   0  0  0  0  0  1  0  0  0  0  0  0
  193.2050  176.7210  146.9420 C   0  0  0  0  0  1  0  0  0  0  0  0
  1 20  1  0  0  0  0
  2 24  1  6  0  0  0
  2 12  1  0  0  0  0
  4  3  1  0  0  0  0
  5 27  1  0  0  0  0
  6  5  1  0  0  0  0
  6 28  2  0  0  0  0
  7 17  1  0  0  0  0
  9 26  1  0  0  0  0
  9 28  1  0  0  0  0
 11  3  1  0  0  0  0
 12  8  1  0  0  0  0
 12 13  2  0  0  0  0
 13 11  1  0  0  0  0
 14 22  1  0  0  0  0
 15  9  1  0  0  0  0
 16  1  1  0  0  0  0
 17 10  1  0  0  0  0
 17  8  2  0  0  0  0
 18 15  2  0  0  0  0
 18  6  1  0  0  0  0
 19 16  1  0  0  0  0
 19  7  1  0  0  0  0
 20 10  1  0  0  0  0
 20 29  1  1  0  0  0
 21  4  1  0  0  0  0
 22 13  1  0  0  0  0
 22 21  1  0  0  0  0
 23 14  1  0  0  0  0
 24  7  2  0  0  0  0
 25  5  2  0  0  0  0
 27  2  1  0  0  0  0
 27 14  2  0  0  0  0
 28 23  1  0  0  0  0
 29 30  1  0  0  0  0
 30 32  1  0  0  0  0
 31 30  1  0  0  0  0
M  END
>  <MODEL>
2

>  <REMARK>
 VINA RESULT:      -8.9      1.896      7.465
  Name = 
  2 active torsions:
  status: ('A' for Active; 'I' for Inactive)
    1  A    between atoms: C_20  and  N_29
    2  A    between atoms: N_29  and  C_30
                            x       y       z     vdW  Elec       q    Type
                         _______ _______ _______ _____ _____    ______ ____

>  <TORSDO>
F 2

$$$$
=
 OpenBabel11112416363D

 32 37  0  0  1  0  0  0  0  0999 V2000
  185.5060  179.0400  147.0760 C   0  0  0  0  0  2  0  0  0  0  0  0
  189.6160  175.7720  145.1250 C   0  0  0  0  0  0  0  0  0  0  0  0
  189.1970  174.2740  140.5960 C   0  0  0  0  0  2  0  0  0  0  0  0
  190.5440  173.5760  140.7960 C   0  0  0  0  0  2  0  0  0  0  0  0
  192.1320  175.9080  145.7770 C   0  0  0  0  0  0  0  0  0  0  0  0
  193.4810  175.3930  145.5950 C   0  0  0  0  0  0  0  0  0  0  0  0
  187.9200  177.0010  146.3880 C   0  0  0  0  0  0  0  0  0  0  0  0
  187.2910  175.7430  144.4120 C   0  0  0  0  0  2  0  0  0  0  0  0
  195.0620  174.1300  144.7280 N   0  0  0  0  0  0  0  0  0  0  0  0
  185.5000  177.0000  145.5650 C   0  0  0  0  0  2  0  0  0  0  0  0
  188.8990  175.2290  141.7540 C   0  0  0  0  0  2  0  0  0  0  0  0
  188.6180  175.3370  144.2350 C   0  0  0  0  0  0  0  0  0  0  0  0
  188.9460  174.4570  143.0720 C   0  0  0  0  0  0  0  0  0  0  0  0
  191.3100  174.3490  144.0290 C   0  0  0  0  0  0  0  0  0  0  0  0
  195.6320  174.9350  145.6490 C   0  0  0  0  0  3  0  0  0  0  0  0
  186.2980  178.1370  148.0220 C   0  0  0  0  0  2  0  0  0  0  0  0
  186.9300  176.5740  145.4740 C   0  0  0  0  0  0  0  0  0  0  0  0
  194.6600  175.7550  146.2230 C   0  0  0  0  0  3  0  0  0  0  0  0
  187.6320  177.8540  147.5080 N   0  0  0  0  0  2  0  0  0  0  0  0
  185.4170  178.5210  145.6400 C   0  0  1  0  0  3  0  0  0  0  0  0
  190.5700  172.8550  142.1430 C   0  0  0  0  0  2  0  0  0  0  0  0
  190.2540  173.8090  143.2030 N   0  0  0  0  0  0  0  0  0  0  0  0
  192.7140  173.7770  143.8350 C   0  0  0  0  0  2  0  0  0  0  0  0
  189.2430  176.6000  146.1950 C   0  0  0  0  0  3  0  0  0  0  0  0
  191.9290  176.8390  146.6010 O   0  0  0  0  0  0  0  0  0  0  0  0
  195.7580  173.1410  143.9230 C   0  0  0  0  0  1  0  0  0  0  0  0
  191.0290  175.3190  144.9510 C   0  0  0  0  0  0  0  0  0  0  0  0
  193.7540  174.4150  144.6990 C   0  0  0  0  0  0  0  0  0  0  0  0
  184.1760  178.9800  145.0360 N   0  0  0  0  0  2  0  0  0  0  0  0
  184.4720  179.3480  143.6600 C   0  0  0  0  0  3  0  0  0  0  0  0
  185.9660  179.5460  143.4920 C   0  0  0  0  0  1  0  0  0  0  0  0
  184.0070  178.2450  142.7340 C   0  0  0  0  0  1  0  0  0  0  0  0
  1 16  1  0  0  0  0
  2 24  2  0  0  0  0
  3  4  1  0  0  0  0
  3 11  1  0  0  0  0
  4 21  1  0  0  0  0
  5 25  2  0  0  0  0
  6  5  1  0  0  0  0
  6 18  1  0  0  0  0
  7 19  1  0  0  0  0
  8 17  1  0  0  0  0
  9 15  1  0  0  0  0
 10 20  1  0  0  0  0
 11 13  1  0  0  0  0
 12  8  1  0  0  0  0
 12  2  1  0  0  0  0
 13 22  1  0  0  0  0
 13 12  2  0  0  0  0
 14 27  2  0  0  0  0
 15 18  2  0  0  0  0
 17 10  1  0  0  0  0
 17  7  2  0  0  0  0
 19 16  1  0  0  0  0
 20 29  1  1  0  0  0
 20  1  1  0  0  0  0
 21 22  1  0  0  0  0
 22 14  1  0  0  0  0
 23 14  1  0  0  0  0
 23 28  1  0  0  0  0
 24  7  1  0  0  0  0
 26  9  1  0  0  0  0
 27  2  1  0  0  0  0
 27  5  1  0  0  0  0
 28  9  1  0  0  0  0
 28  6  2  0  0  0  0
 30 29  1  0  0  0  0
 31 30  1  0  0  0  0
 32 30  1  0  0  0  0
M  END
>  <MODEL>
3

>  <REMARK>
 VINA RESULT:      -8.5      2.157      4.453
  Name = 
  2 active torsions:
  status: ('A' for Active; 'I' for Inactive)
    1  A    between atoms: C_20  and  N_29
    2  A    between atoms: N_29  and  C_30
                            x       y       z     vdW  Elec       q    Type
                         _______ _______ _______ _____ _____    ______ ____

>  <TORSDO>
F 2

$$$$
=
 OpenBabel11112416363D

 32 37  0  0  1  0  0  0  0  0999 V2000
  195.2190  174.9020  146.0170 C   0  0  0  0  0  2  0  0  0  0  0  0
  190.1310  176.8770  144.7540 C   0  0  0  0  0  0  0  0  0  0  0  0
  188.2110  175.3750  140.6320 C   0  0  0  0  0  2  0  0  0  0  0  0
  186.9860  176.2150  141.0000 C   0  0  0  0  0  2  0  0  0  0  0  0
  188.2410  177.4540  146.4470 C   0  0  0  0  0  0  0  0  0  0  0  0
  186.8800  177.9240  146.6600 C   0  0  0  0  0  0  0  0  0  0  0  0
  192.4110  176.4260  145.5190 C   0  0  0  0  0  0  0  0  0  0  0  0
  191.8490  176.2020  143.1700 C   0  0  0  0  0  2  0  0  0  0  0  0
  184.8690  178.6190  146.0920 N   0  0  0  0  0  0  0  0  0  0  0  0
  194.1680  175.6520  143.8310 C   0  0  0  0  0  2  0  0  0  0  0  0
  189.1660  175.2520  141.8210 C   0  0  0  0  0  2  0  0  0  0  0  0
  190.5310  176.5830  143.4380 C   0  0  0  0  0  0  0  0  0  0  0  0
  189.5610  176.6480  142.3020 C   0  0  0  0  0  0  0  0  0  0  0  0
  187.8910  177.5800  143.9920 C   0  0  0  0  0  0  0  0  0  0  0  0
  184.9310  178.5830  147.4390 C   0  0  0  0  0  3  0  0  0  0  0  0
  194.7720  176.2750  146.5170 C   0  0  0  0  0  2  0  0  0  0  0  0
  192.7930  176.1140  144.1940 C   0  0  0  0  0  0  0  0  0  0  0  0
  186.1930  178.1440  147.8410 C   0  0  0  0  0  3  0  0  0  0  0  0
  193.3200  176.3630  146.6290 N   0  0  0  0  0  2  0  0  0  0  0  0
  194.5640  174.4670  144.7050 C   0  0  1  0  0  3  0  0  0  0  0  0
  187.4210  177.5850  141.5190 C   0  0  0  0  0  2  0  0  0  0  0  0
  188.3490  177.4020  142.6330 N   0  0  0  0  0  0  0  0  0  0  0  0
  186.4650  178.0960  144.1900 C   0  0  0  0  0  2  0  0  0  0  0  0
  191.0890  176.7940  145.7770 C   0  0  0  0  0  3  0  0  0  0  0  0
  188.9600  177.1660  147.4400 O   0  0  0  0  0  0  0  0  0  0  0  0
  183.7150  179.0250  145.3080 C   0  0  0  0  0  1  0  0  0  0  0  0
  188.7300  177.3090  145.0380 C   0  0  0  0  0  0  0  0  0  0  0  0
  186.0580  178.2160  145.6230 C   0  0  0  0  0  0  0  0  0  0  0  0
  195.4720  173.5950  143.9770 N   0  0  0  0  0  2  0  0  0  0  0  0
  196.0490  172.6680  144.9380 C   0  0  0  0  0  3  0  0  0  0  0  0
  195.2400  171.3850  144.9640 C   0  0  0  0  0  1  0  0  0  0  0  0
  197.4740  172.3510  144.5380 C   0  0  0  0  0  1  0  0  0  0  0  0
  1 16  1  0  0  0  0
  2 27  1  0  0  0  0
  2 24  2  0  0  0  0
  3  4  1  0  0  0  0
  3 11  1  0  0  0  0
  4 21  1  0  0  0  0
  5  6  1  0  0  0  0
  5 25  2  0  0  0  0
  6 18  1  0  0  0  0
  7 24  1  0  0  0  0
  7 19  1  0  0  0  0
  8 12  1  0  0  0  0
  8 17  1  0  0  0  0
  9 15  1  0  0  0  0
 10 17  1  0  0  0  0
 10 20  1  0  0  0  0
 11 13  1  0  0  0  0
 12  2  1  0  0  0  0
 13 22  1  0  0  0  0
 13 12  2  0  0  0  0
 14 23  1  0  0  0  0
 14 27  2  0  0  0  0
 15 18  2  0  0  0  0
 16 19  1  0  0  0  0
 17  7  2  0  0  0  0
 20 29  1  6  0  0  0
 20  1  1  0  0  0  0
 21 22  1  0  0  0  0
 22 14  1  0  0  0  0
 23 28  1  0  0  0  0
 26  9  1  0  0  0  0
 27  5  1  0  0  0  0
 28  9  1  0  0  0  0
 28  6  2  0  0  0  0
 29 30  1  0  0  0  0
 30 31  1  0  0  0  0
 32 30  1  0  0  0  0
M  END
>  <MODEL>
4

>  <REMARK>
 VINA RESULT:      -8.5      2.587      8.698
  Name = 
  2 active torsions:
  status: ('A' for Active; 'I' for Inactive)
    1  A    between atoms: C_20  and  N_29
    2  A    between atoms: N_29  and  C_30
                            x       y       z     vdW  Elec       q    Type
                         _______ _______ _______ _____ _____    ______ ____

>  <TORSDO>
F 2

$$$$
=
 OpenBabel11112416363D

 32 37  0  0  1  0  0  0  0  0999 V2000
  184.7310  177.8310  142.1810 C   0  0  0  0  0  2  0  0  0  0  0  0
  190.0230  176.1500  142.9270 C   0  0  1  0  0  3  0  0  0  0  0  0
  191.7450  176.4050  147.3880 C   0  0  0  0  0  2  0  0  0  0  0  0
  193.0390  175.8110  146.8270 C   0  0  0  0  0  2  0  0  0  0  0  0
  191.2320  174.2490  141.6250 C   0  0  0  0  0  0  0  0  0  0  0  0
  192.4420  173.4640  141.4330 C   0  0  0  0  0  0  0  0  0  0  0  0
  187.8590  177.0110  142.1770 C   0  0  0  0  0  0  0  0  0  0  0  0
  188.8450  177.8270  144.2370 C   0  0  0  0  0  3  0  0  0  0  0  0
  194.5020  172.7960  141.8320 N   0  0  0  0  0  0  0  0  0  0  0  0
  186.6240  178.7220  143.6190 C   0  0  0  0  0  2  0  0  0  0  0  0
  190.6140  176.3180  146.3620 C   0  0  0  0  0  2  0  0  0  0  0  0
  189.9540  176.9960  144.0480 C   0  0  0  0  0  0  0  0  0  0  0  0
  191.0440  177.0150  145.0720 C   0  0  0  0  0  0  0  0  0  0  0  0
  192.3130  175.4400  143.5150 C   0  0  0  0  0  0  0  0  0  0  0  0
  194.0230  172.0720  140.8000 C   0  0  0  0  0  3  0  0  0  0  0  0
  185.7510  177.9480  141.0490 C   0  0  0  0  0  2  0  0  0  0  0  0
  187.7940  177.8410  143.3190 C   0  0  0  0  0  0  0  0  0  0  0  0
  192.7150  172.4640  140.5150 C   0  0  0  0  0  3  0  0  0  0  0  0
  186.8230  176.9670  141.1840 N   0  0  0  0  0  2  0  0  0  0  0  0
  185.3380  177.9040  143.5840 C   0  0  1  0  0  3  0  0  0  0  0  0
  193.4120  176.5020  145.5160 C   0  0  0  0  0  2  0  0  0  0  0  0
  192.2860  176.4070  144.5890 N   0  0  0  0  0  0  0  0  0  0  0  0
  193.6040  174.6440  143.3190 C   0  0  0  0  0  2  0  0  0  0  0  0
  188.9650  176.1770  142.0040 C   0  0  0  0  0  3  0  0  0  0  0  0
  190.2290  174.0300  140.8940 O   0  0  0  0  0  0  0  0  0  0  0  0
  195.8280  172.6690  142.4120 C   0  0  0  0  0  1  0  0  0  0  0  0
  191.2180  175.2810  142.7110 C   0  0  0  0  0  0  0  0  0  0  0  0
  193.5360  173.6400  142.2140 C   0  0  0  0  0  0  0  0  0  0  0  0
  184.3640  178.4710  144.5030 N   0  0  0  0  0  2  0  0  0  0  0  0
  184.8620  178.2560  145.8520 C   0  0  0  0  0  3  0  0  0  0  0  0
  183.8060  178.6650  146.8610 C   0  0  0  0  0  1  0  0  0  0  0  0
  185.1910  176.7910  146.0400 C   0  0  0  0  0  1  0  0  0  0  0  0
  1 20  1  0  0  0  0
  2 24  1  6  0  0  0
  2 12  1  0  0  0  0
  4  3  1  0  0  0  0
  5 27  1  0  0  0  0
  6  5  1  0  0  0  0
  6 28  2  0  0  0  0
  7 17  1  0  0  0  0
  9 28  1  0  0  0  0
  9 26  1  0  0  0  0
 11  3  1  0  0  0  0
 12  8  1  0  0  0  0
 12 13  2  0  0  0  0
 13 11  1  0  0  0  0
 14 22  1  0  0  0  0
 15  9  1  0  0  0  0
 16 19  1  0  0  0  0
 16  1  1  0  0  0  0
 17 10  1  0  0  0  0
 17  8  2  0  0  0  0
 18 15  2  0  0  0  0
 18  6  1  0  0  0  0
 19  7  1  0  0  0  0
 20 10  1  0  0  0  0
 20 29  1  1  0  0  0
 21  4  1  0  0  0  0
 22 13  1  0  0  0  0
 22 21  1  0  0  0  0
 23 14  1  0  0  0  0
 24  7  2  0  0  0  0
 25  5  2  0  0  0  0
 27  2  1  0  0  0  0
 27 14  2  0  0  0  0
 28 23  1  0  0  0  0
 29 30  1  0  0  0  0
 30 32  1  0  0  0  0
 30 31  1  0  0  0  0
M  END
>  <MODEL>
5

>  <REMARK>
 VINA RESULT:      -8.3      1.202      1.427
  Name = 
  2 active torsions:
  status: ('A' for Active; 'I' for Inactive)
    1  A    between atoms: C_20  and  N_29
    2  A    between atoms: N_29  and  C_30
                            x       y       z     vdW  Elec       q    Type
                         _______ _______ _______ _____ _____    ______ ____

>  <TORSDO>
F 2

$$$$
=
 OpenBabel11112416363D

 32 37  0  0  1  0  0  0  0  0999 V2000
  190.3590  173.1980  138.0280 C   0  0  0  0  0  2  0  0  0  0  0  0
  188.7310  175.2230  142.9910 C   0  0  0  0  0  0  0  0  0  0  0  0
  191.9150  174.9720  146.5580 C   0  0  0  0  0  2  0  0  0  0  0  0
  190.8650  175.6690  147.4260 C   0  0  0  0  0  2  0  0  0  0  0  0
  187.1300  177.2370  143.3800 C   0  0  0  0  0  0  0  0  0  0  0  0
  186.4560  178.1090  144.3310 C   0  0  0  0  0  0  0  0  0  0  0  0
  188.9900  174.2330  140.7680 C   0  0  0  0  0  0  0  0  0  0  0  0
  190.3360  173.4340  142.6210 C   0  0  0  0  0  2  0  0  0  0  0  0
  185.9200  178.9080  146.3120 N   0  0  0  0  0  0  0  0  0  0  0  0
  190.7380  172.4030  140.4080 C   0  0  0  0  0  2  0  0  0  0  0  0
  191.5150  175.0070  145.0820 C   0  0  0  0  0  2  0  0  0  0  0  0
  189.7140  174.3450  143.4800 C   0  0  0  0  0  0  0  0  0  0  0  0
  190.1340  174.3750  144.9150 C   0  0  0  0  0  0  0  0  0  0  0  0
  188.2610  176.0750  145.2590 C   0  0  0  0  0  0  0  0  0  0  0  0
  185.2560  179.6240  145.3810 C   0  0  0  0  0  3  0  0  0  0  0  0
  188.8840  173.1820  138.4280 C   0  0  0  0  0  2  0  0  0  0  0  0
  189.9910  173.3710  141.2700 C   0  0  0  0  0  0  0  0  0  0  0  0
  185.5700  179.1490  144.1080 C   0  0  0  0  0  3  0  0  0  0  0  0
  188.5750  174.2310  139.3930 N   0  0  0  0  0  2  0  0  0  0  0  0
  191.3320  173.1300  139.2070 C   0  0  1  0  0  3  0  0  0  0  0  0
  189.4910  175.0400  147.1980 C   0  0  0  0  0  2  0  0  0  0  0  0
  189.1770  175.0800  145.7710 N   0  0  0  0  0  0  0  0  0  0  0  0
  187.5490  176.9630  146.2790 C   0  0  0  0  0  2  0  0  0  0  0  0
  188.3830  175.1460  141.6320 C   0  0  0  0  0  3  0  0  0  0  0  0
  186.9430  177.4040  142.1460 O   0  0  0  0  0  0  0  0  0  0  0  0
  185.8460  179.1120  147.7480 C   0  0  0  0  0  1  0  0  0  0  0  0
  188.0470  176.1790  143.9130 C   0  0  0  0  0  0  0  0  0  0  0  0
  186.6500  177.9890  145.6670 C   0  0  0  0  0  0  0  0  0  0  0  0
  192.5580  172.4730  138.7850 N   0  0  0  0  0  2  0  0  0  0  0  0
  193.6120  172.8950  139.6940 C   0  0  0  0  0  3  0  0  0  0  0  0
  194.9130  172.2090  139.3250 C   0  0  0  0  0  1  0  0  0  0  0  0
  193.7930  174.3950  139.5930 C   0  0  0  0  0  1  0  0  0  0  0  0
  1 16  1  0  0  0  0
  1 20  1  0  0  0  0
  2 12  1  0  0  0  0
  2 27  1  0  0  0  0
  3  4  1  0  0  0  0
  5 27  1  0  0  0  0
  5  6  1  0  0  0  0
  6 28  2  0  0  0  0
  7 17  2  0  0  0  0
  7 24  1  0  0  0  0
  8 12  1  0  0  0  0
  9 26  1  0  0  0  0
 10 17  1  0  0  0  0
 11  3  1  0  0  0  0
 12 13  2  0  0  0  0
 13 11  1  0  0  0  0
 13 22  1  0  0  0  0
 14 22  1  0  0  0  0
 14 23  1  0  0  0  0
 15  9  1  0  0  0  0
 16 19  1  0  0  0  0
 17  8  1  0  0  0  0
 18  6  1  0  0  0  0
 18 15  2  0  0  0  0
 19  7  1  0  0  0  0
 20 29  1  6  0  0  0
 20 10  1  0  0  0  0
 21  4  1  0  0  0  0
 22 21  1  0  0  0  0
 24  2  2  0  0  0  0
 25  5  2  0  0  0  0
 27 14  2  0  0  0  0
 28 23  1  0  0  0  0
 28  9  1  0  0  0  0
 29 30  1  0  0  0  0
 31 30  1  0  0  0  0
 32 30  1  0  0  0  0
M  END
>  <MODEL>
6

>  <REMARK>
 VINA RESULT:      -8.3      2.096      7.627
  Name = 
  2 active torsions:
  status: ('A' for Active; 'I' for Inactive)
    1  A    between atoms: C_20  and  N_29
    2  A    between atoms: N_29  and  C_30
                            x       y       z     vdW  Elec       q    Type
                         _______ _______ _______ _____ _____    ______ ____

>  <TORSDO>
F 2

$$$$
=
 OpenBabel11112416363D

 32 37  0  0  1  0  0  0  0  0999 V2000
  184.4310  178.2330  142.7380 C   0  0  0  0  0  2  0  0  0  0  0  0
  189.3830  175.6370  142.3880 C   0  0  1  0  0  3  0  0  0  0  0  0
  191.8430  175.1530  146.4670 C   0  0  0  0  0  2  0  0  0  0  0  0
  192.8970  174.4130  145.6400 C   0  0  0  0  0  2  0  0  0  0  0  0
  189.9950  173.7030  140.7560 C   0  0  0  0  0  0  0  0  0  0  0  0
  190.9950  172.7540  140.2930 C   0  0  0  0  0  0  0  0  0  0  0  0
  187.3150  176.9140  142.1070 C   0  0  0  0  0  0  0  0  0  0  0  0
  188.7620  177.3440  144.0050 C   0  0  0  0  0  3  0  0  0  0  0  0
  192.9380  171.7180  140.2630 N   0  0  0  0  0  0  0  0  0  0  0  0
  186.6660  178.6510  143.8660 C   0  0  0  0  0  2  0  0  0  0  0  0
  190.5590  175.3560  145.6610 C   0  0  0  0  0  2  0  0  0  0  0  0
  189.6560  176.3650  143.5590 C   0  0  0  0  0  0  0  0  0  0  0  0
  190.8860  176.1000  144.3660 C   0  0  0  0  0  0  0  0  0  0  0  0
  191.5730  174.5030  142.4970 C   0  0  0  0  0  0  0  0  0  0  0  0
  192.1710  171.1910  139.2860 C   0  0  0  0  0  3  0  0  0  0  0  0
  185.2520  178.2940  141.4500 C   0  0  0  0  0  2  0  0  0  0  0  0
  187.5930  177.6240  143.2970 C   0  0  0  0  0  0  0  0  0  0  0  0
  190.9260  171.8200  139.2720 C   0  0  0  0  0  3  0  0  0  0  0  0
  186.1370  177.1420  141.3180 N   0  0  0  0  0  2  0  0  0  0  0  0
  185.2670  178.0630  144.0080 C   0  0  1  0  0  3  0  0  0  0  0  0
  193.1640  175.1610  144.3350 C   0  0  0  0  0  2  0  0  0  0  0  0
  191.9010  175.3480  143.6240 N   0  0  0  0  0  0  0  0  0  0  0  0
  192.6480  173.5290  142.0150 C   0  0  0  0  0  2  0  0  0  0  0  0
  188.2090  175.9310  141.6770 C   0  0  0  0  0  3  0  0  0  0  0  0
  188.8610  173.7280  140.2070 O   0  0  0  0  0  0  0  0  0  0  0  0
  194.2980  171.3160  140.5810 C   0  0  0  0  0  1  0  0  0  0  0  0
  190.3490  174.6090  141.8970 C   0  0  0  0  0  0  0  0  0  0  0  0
  192.2170  172.6670  140.8720 C   0  0  0  0  0  0  0  0  0  0  0  0
  184.5780  178.6870  145.1260 N   0  0  0  0  0  2  0  0  0  0  0  0
  185.2710  178.2880  146.3420 C   0  0  0  0  0  3  0  0  0  0  0  0
  184.4410  178.6660  147.5530 C   0  0  0  0  0  1  0  0  0  0  0  0
  185.4830  176.7890  146.3300 C   0  0  0  0  0  1  0  0  0  0  0  0
  1 20  1  0  0  0  0
  2 24  1  6  0  0  0
  2 12  1  0  0  0  0
  4  3  1  0  0  0  0
  5 27  1  0  0  0  0
  6  5  1  0  0  0  0
  6 28  2  0  0  0  0
  7 17  1  0  0  0  0
  9 26  1  0  0  0  0
  9 28  1  0  0  0  0
 10 20  1  0  0  0  0
 11  3  1  0  0  0  0
 12  8  1  0  0  0  0
 12 13  2  0  0  0  0
 13 11  1  0  0  0  0
 14 22  1  0  0  0  0
 15  9  1  0  0  0  0
 16  1  1  0  0  0  0
 17 10  1  0  0  0  0
 17  8  2  0  0  0  0
 18 15  2  0  0  0  0
 18  6  1  0  0  0  0
 19 16  1  0  0  0  0
 19  7  1  0  0  0  0
 20 29  1  1  0  0  0
 21  4  1  0  0  0  0
 22 21  1  0  0  0  0
 22 13  1  0  0  0  0
 23 14  1  0  0  0  0
 24  7  2  0  0  0  0
 25  5  2  0  0  0  0
 27  2  1  0  0  0  0
 27 14  2  0  0  0  0
 28 23  1  0  0  0  0
 29 30  1  0  0  0  0
 30 31  1  0  0  0  0
 32 30  1  0  0  0  0
M  END
>  <MODEL>
7

>  <REMARK>
 VINA RESULT:      -8.1      0.924      1.082
  Name = 
  2 active torsions:
  status: ('A' for Active; 'I' for Inactive)
    1  A    between atoms: C_20  and  N_29
    2  A    between atoms: N_29  and  C_30
                            x       y       z     vdW  Elec       q    Type
                         _______ _______ _______ _____ _____    ______ ____

>  <TORSDO>
F 2

$$$$
=
 OpenBabel11112416363D

 32 37  0  0  1  0  0  0  0  0999 V2000
  185.5030  177.3540  143.7300 C   0  0  0  0  0  2  0  0  0  0  0  0
  190.5530  174.9330  143.6370 C   0  0  1  0  0  3  0  0  0  0  0  0
  193.8160  176.6620  146.6850 C   0  0  0  0  0  2  0  0  0  0  0  0
  194.7640  175.5900  146.1400 C   0  0  0  0  0  2  0  0  0  0  0  0
  191.0490  172.4250  143.1460 C   0  0  0  0  0  0  0  0  0  0  0  0
  192.0410  171.3670  143.0220 C   0  0  0  0  0  0  0  0  0  0  0  0
  188.3370  175.8820  143.2240 C   0  0  0  0  0  0  0  0  0  0  0  0
  190.0730  177.2400  144.2340 C   0  0  0  0  0  3  0  0  0  0  0  0
  194.0460  170.4590  143.0830 N   0  0  0  0  0  0  0  0  0  0  0  0
  187.8540  178.2910  143.9300 C   0  0  0  0  0  2  0  0  0  0  0  0
  192.3830  176.4170  146.2100 C   0  0  0  0  0  2  0  0  0  0  0  0
  190.9680  176.1680  144.1650 C   0  0  0  0  0  0  0  0  0  0  0  0
  192.3560  176.3620  144.6830 C   0  0  0  0  0  0  0  0  0  0  0  0
  192.8380  174.0140  143.8060 C   0  0  0  0  0  0  0  0  0  0  0  0
  193.1660  169.5010  142.7260 C   0  0  0  0  0  3  0  0  0  0  0  0
  186.0380  176.7200  142.4470 C   0  0  0  0  0  2  0  0  0  0  0  0
  188.7610  177.1120  143.7760 C   0  0  0  0  0  0  0  0  0  0  0  0
  191.8790  170.0360  142.6770 C   0  0  0  0  0  3  0  0  0  0  0  0
  187.0060  175.6660  142.7270 N   0  0  0  0  0  2  0  0  0  0  0  0
  186.5880  177.8760  144.6730 C   0  0  1  0  0  3  0  0  0  0  0  0
  194.6760  175.5340  144.6160 C   0  0  0  0  0  2  0  0  0  0  0  0
  193.2830  175.3240  144.2240 N   0  0  0  0  0  0  0  0  0  0  0  0
  193.9020  172.9250  143.6610 C   0  0  0  0  0  2  0  0  0  0  0  0
  189.2350  174.8140  143.1700 C   0  0  0  0  0  3  0  0  0  0  0  0
  189.8340  172.1640  142.9420 O   0  0  0  0  0  0  0  0  0  0  0  0
  195.4790  170.2780  143.2380 C   0  0  0  0  0  1  0  0  0  0  0  0
  191.5150  173.7940  143.5390 C   0  0  0  0  0  0  0  0  0  0  0  0
  193.3550  171.5920  143.2630 C   0  0  0  0  0  0  0  0  0  0  0  0
  186.0690  179.0010  145.4330 N   0  0  0  0  0  2  0  0  0  0  0  0
  185.9060  178.5590  146.8090 C   0  0  0  0  0  3  0  0  0  0  0  0
  184.4410  178.2900  147.0930 C   0  0  0  0  0  1  0  0  0  0  0  0
  186.6980  177.2870  147.0260 C   0  0  0  0  0  1  0  0  0  0  0  0
  1 20  1  0  0  0  0
  2 24  1  6  0  0  0
  2 12  1  0  0  0  0
  4  3  1  0  0  0  0
  5 27  1  0  0  0  0
  6  5  1  0  0  0  0
  6 28  2  0  0  0  0
  7 17  1  0  0  0  0
  9 26  1  0  0  0  0
  9 28  1  0  0  0  0
 10 20  1  0  0  0  0
 11  3  1  0  0  0  0
 12  8  1  0  0  0  0
 12 13  2  0  0  0  0
 13 11  1  0  0  0  0
 14 22  1  0  0  0  0
 15  9  1  0  0  0  0
 16 19  1  0  0  0  0
 16  1  1  0  0  0  0
 17 10  1  0  0  0  0
 17  8  2  0  0  0  0
 18 15  2  0  0  0  0
 18  6  1  0  0  0  0
 19  7  1  0  0  0  0
 20 29  1  6  0  0  0
 21  4  1  0  0  0  0
 22 21  1  0  0  0  0
 22 13  1  0  0  0  0
 23 14  1  0  0  0  0
 24  7  2  0  0  0  0
 25  5  2  0  0  0  0
 27  2  1  0  0  0  0
 27 14  2  0  0  0  0
 28 23  1  0  0  0  0
 29 30  1  0  0  0  0
 30 32  1  0  0  0  0
 30 31  1  0  0  0  0
M  END
>  <MODEL>
8

>  <REMARK>
 VINA RESULT:      -8.0      1.578      2.021
  Name = 
  2 active torsions:
  status: ('A' for Active; 'I' for Inactive)
    1  A    between atoms: C_20  and  N_29
    2  A    between atoms: N_29  and  C_30
                            x       y       z     vdW  Elec       q    Type
                         _______ _______ _______ _____ _____    ______ ____

>  <TORSDO>
F 2

$$$$
=
 OpenBabel11112416363D

 32 37  0  0  1  0  0  0  0  0999 V2000
  184.7870  178.2620  143.3330 C   0  0  0  0  0  2  0  0  0  0  0  0
  188.8100  174.9250  141.3200 C   0  0  1  0  0  3  0  0  0  0  0  0
  190.8790  171.9390  144.4390 C   0  0  0  0  0  2  0  0  0  0  0  0
  191.7110  171.4260  143.2610 C   0  0  0  0  0  2  0  0  0  0  0  0
  188.9100  173.9060  138.9270 C   0  0  0  0  0  0  0  0  0  0  0  0
  189.6170  173.0590  137.9780 C   0  0  0  0  0  0  0  0  0  0  0  0
  187.2010  176.6820  141.8730 C   0  0  0  0  0  0  0  0  0  0  0  0
  188.6380  175.7630  143.5960 C   0  0  0  0  0  3  0  0  0  0  0  0
  191.1880  171.6850  137.2740 N   0  0  0  0  0  0  0  0  0  0  0  0
  187.0050  177.4850  144.2920 C   0  0  0  0  0  2  0  0  0  0  0  0
  189.7360  172.8330  143.9540 C   0  0  0  0  0  2  0  0  0  0  0  0
  189.2350  174.9120  142.6600 C   0  0  0  0  0  0  0  0  0  0  0  0
  190.3080  173.9810  143.1230 C   0  0  0  0  0  0  0  0  0  0  0  0
  190.5840  173.3370  140.6690 C   0  0  0  0  0  0  0  0  0  0  0  0
  190.3400  171.9070  136.2490 C   0  0  0  0  0  3  0  0  0  0  0  0
  185.6390  178.7020  142.1430 C   0  0  0  0  0  2  0  0  0  0  0  0
  187.6230  176.6440  143.2210 C   0  0  0  0  0  0  0  0  0  0  0  0
  189.3250  172.7740  136.6550 C   0  0  0  0  0  3  0  0  0  0  0  0
  186.1650  177.5600  141.4040 N   0  0  0  0  0  2  0  0  0  0  0  0
  185.4920  177.2980  144.2890 C   0  0  1  0  0  3  0  0  0  0  0  0
  192.2270  172.5990  142.4300 C   0  0  0  0  0  2  0  0  0  0  0  0
  191.0960  173.4280  142.0180 N   0  0  0  0  0  0  0  0  0  0  0  0
  191.3570  172.4590  139.6840 C   0  0  0  0  0  2  0  0  0  0  0  0
  187.7950  175.8200  140.9490 C   0  0  0  0  0  3  0  0  0  0  0  0
  187.8520  174.4880  138.5700 O   0  0  0  0  0  0  0  0  0  0  0  0
  192.3650  170.8350  137.2300 C   0  0  0  0  0  1  0  0  0  0  0  0
  189.4630  174.0350  140.3140 C   0  0  0  0  0  0  0  0  0  0  0  0
  190.7420  172.3880  138.3240 C   0  0  0  0  0  0  0  0  0  0  0  0
  184.9670  177.4790  145.6320 N   0  0  0  0  0  2  0  0  0  0  0  0
  186.0760  177.8820  146.4820 C   0  0  0  0  0  3  0  0  0  0  0  0
  185.7340  179.1770  147.1930 C   0  0  0  0  0  1  0  0  0  0  0  0
  186.3400  176.8030  147.5110 C   0  0  0  0  0  1  0  0  0  0  0  0
  1 20  1  0  0  0  0
  2 24  1  6  0  0  0
  2 12  1  0  0  0  0
  4  3  1  0  0  0  0
  5 27  1  0  0  0  0
  6 28  2  0  0  0  0
  6  5  1  0  0  0  0
  7 17  1  0  0  0  0
  9 28  1  0  0  0  0
 11  3  1  0  0  0  0
 12 13  2  0  0  0  0
 12  8  1  0  0  0  0
 13 11  1  0  0  0  0
 14 22  1  0  0  0  0
 15 18  2  0  0  0  0
 15  9  1  0  0  0  0
 16  1  1  0  0  0  0
 17  8  2  0  0  0  0
 17 10  1  0  0  0  0
 18  6  1  0  0  0  0
 19  7  1  0  0  0  0
 19 16  1  0  0  0  0
 20 10  1  0  0  0  0
 20 29  1  1  0  0  0
 21  4  1  0  0  0  0
 22 21  1  0  0  0  0
 22 13  1  0  0  0  0
 23 14  1  0  0  0  0
 24  7  2  0  0  0  0
 25  5  2  0  0  0  0
 26  9  1  0  0  0  0
 27 14  2  0  0  0  0
 27  2  1  0  0  0  0
 28 23  1  0  0  0  0
 29 30  1  0  0  0  0
 30 31  1  0  0  0  0
 30 32  1  0  0  0  0
M  END
>  <MODEL>
9

>  <REMARK>
 VINA RESULT:      -7.8      2.148      3.097
  Name = 
  2 active torsions:
  status: ('A' for Active; 'I' for Inactive)
    1  A    between atoms: C_20  and  N_29
    2  A    between atoms: N_29  and  C_30
                            x       y       z     vdW  Elec       q    Type
                         _______ _______ _______ _____ _____    ______ ____

>  <TORSDO>
F 2

$$$$
