=
 OpenBabel11112416373D

 32 37  0  0  1  0  0  0  0  0999 V2000
  192.1900  174.0370  142.8930 C   0  0  0  0  0  3  0  0  0  0  0  0
  187.4320  176.5990  143.5280 C   0  0  0  0  0  0  0  0  0  0  0  0
  186.6470  178.1430  148.1000 C   0  0  0  0  0  3  0  0  0  0  0  0
  185.5840  179.0280  147.5880 C   0  0  0  0  0  3  0  0  0  0  0  0
  186.0180  177.2970  141.5960 C   0  0  0  0  0  0  0  0  0  0  0  0
  184.6850  177.8020  141.2660 C   0  0  0  0  0  0  0  0  0  0  0  0
  189.3070  175.1560  143.0330 C   0  0  0  0  0  0  0  0  0  0  0  0
  188.8200  175.6750  145.4540 C   0  0  0  0  0  2  0  0  0  0  0  0
  182.6780  178.5890  141.6120 N   0  0  0  0  0  0  0  0  0  0  0  0
  190.9260  174.4890  144.9290 C   0  0  0  0  0  2  0  0  0  0  0  0
  187.3400  177.3570  147.2750 C   0  0  0  0  0  3  0  0  0  0  0  0
  187.7560  176.6180  144.9700 C   0  0  0  0  0  0  0  0  0  0  0  0
  187.0430  177.3620  145.8280 C   0  0  0  0  0  0  0  0  0  0  0  0
  185.6330  178.3010  143.9270 C   0  0  2  0  0  3  0  0  0  0  0  0
  182.8720  178.3520  140.2970 C   0  0  0  0  0  3  0  0  0  0  0  0
  190.9680  173.3880  142.3320 C   0  0  0  0  0  2  0  0  0  0  0  0
  189.9060  175.4870  144.4000 C   0  0  1  0  0  3  0  0  0  0  0  0
  184.1120  177.8600  140.0470 N   0  0  0  0  0  0  0  0  0  0  0  0
  189.9460  174.3470  142.0760 O   0  0  0  0  0  0  0  0  0  0  0  0
  192.1820  174.5530  144.1170 C   0  0  0  0  0  0  0  0  0  0  0  0
  185.2750  179.0430  146.2890 C   0  0  0  0  0  3  0  0  0  0  0  0
  185.9610  178.1900  145.3540 N   0  0  0  0  0  0  0  0  0  0  0  0
  184.1090  178.2130  143.6890 C   0  0  0  0  0  2  0  0  0  0  0  0
  188.1960  175.7320  142.6740 N   0  0  0  0  0  0  0  0  0  0  0  0
  186.7740  176.8470  140.6930 O   0  0  0  0  0  0  0  0  0  0  0  0
  181.4590  179.0820  142.2310 C   0  0  0  0  0  1  0  0  0  0  0  0
  186.4200  177.3390  143.0330 C   0  0  0  0  0  0  0  0  0  0  0  0
  183.8230  178.2540  142.2180 C   0  0  0  0  0  0  0  0  0  0  0  0
  193.3690  175.1930  144.6040 N   0  0  0  0  0  2  0  0  0  0  0  0
  193.5550  176.5980  144.8110 C   0  0  0  0  0  0  0  0  0  0  0  0
  192.6350  177.4220  144.5660 O   0  0  0  0  0  0  0  0  0  0  0  0
  194.8580  177.0920  145.3240 C   0  0  0  0  0  1  0  0  0  0  0  0
  1 20  2  0  0  0  0
  2 12  1  0  0  0  0
  4  3  1  0  0  0  0
  5 27  1  0  0  0  0
  6  5  1  0  0  0  0
  6 28  2  0  0  0  0
  7 17  1  0  0  0  0
  9 28  1  0  0  0  0
  9 26  1  0  0  0  0
 11  3  2  0  0  0  0
 12  8  1  0  0  0  0
 12 13  2  0  0  0  0
 13 11  1  0  0  0  0
 14 23  1  1  0  0  0
 14 22  1  0  0  0  0
 15  9  1  0  0  0  0
 16  1  1  0  0  0  0
 17 10  1  1  0  0  0
 17  8  1  0  0  0  0
 18 15  2  0  0  0  0
 18  6  1  0  0  0  0
 19 16  1  0  0  0  0
 19  7  1  0  0  0  0
 20 29  1  0  0  0  0
 20 10  1  0  0  0  0
 21  4  2  0  0  0  0
 22 13  1  0  0  0  0
 22 21  1  0  0  0  0
 24  7  2  0  0  0  0
 24  2  1  0  0  0  0
 25  5  2  0  0  0  0
 27  2  2  0  0  0  0
 27 14  1  0  0  0  0
 28 23  1  0  0  0  0
 29 30  1  0  0  0  0
 30 32  1  0  0  0  0
 31 30  2  0  0  0  0
M  END
>  <MODEL>
1

>  <REMARK>
 VINA RESULT:      -9.0      0.000      0.000
  Name = 
  1 active torsions:
  status: ('A' for Active; 'I' for Inactive)
    1  A    between atoms: C_20  and  N_29
                            x       y       z     vdW  Elec       q    Type
                         _______ _______ _______ _____ _____    ______ ____

>  <TORSDO>
F 1

$$$$
=
 OpenBabel11112416373D

 32 37  0  0  1  0  0  0  0  0999 V2000
  185.3020  178.2970  141.6050 C   0  0  0  0  0  3  0  0  0  0  0  0
  189.5200  174.9240  142.2650 C   0  0  0  0  0  0  0  0  0  0  0  0
  192.4860  176.2090  145.9340 C   0  0  0  0  0  3  0  0  0  0  0  0
  193.0660  174.8540  145.9020 C   0  0  0  0  0  3  0  0  0  0  0  0
  189.6670  172.7200  141.1080 C   0  0  0  0  0  0  0  0  0  0  0  0
  190.5960  171.6250  140.8270 C   0  0  0  0  0  0  0  0  0  0  0  0
  187.7570  176.4110  141.5440 C   0  0  0  0  0  0  0  0  0  0  0  0
  189.4070  177.2710  143.2500 C   0  0  0  0  0  2  0  0  0  0  0  0
  192.4350  170.4530  140.9440 N   0  0  0  0  0  0  0  0  0  0  0  0
  187.4140  178.6560  142.7700 C   0  0  0  0  0  2  0  0  0  0  0  0
  191.5130  176.5580  145.0900 C   0  0  0  0  0  3  0  0  0  0  0  0
  189.9990  175.8910  143.2760 C   0  0  0  0  0  0  0  0  0  0  0  0
  191.0080  175.5820  144.1030 C   0  0  0  0  0  0  0  0  0  0  0  0
  191.1530  173.2310  143.1380 C   0  0  2  0  0  3  0  0  0  0  0  0
  191.5960  169.9260  140.0260 C   0  0  0  0  0  3  0  0  0  0  0  0
  186.0870  177.9160  140.3940 C   0  0  0  0  0  2  0  0  0  0  0  0
  187.9430  177.2310  142.8220 C   0  0  1  0  0  3  0  0  0  0  0  0
  190.4410  170.6330  139.9280 N   0  0  0  0  0  0  0  0  0  0  0  0
  186.7630  176.6760  140.5850 O   0  0  0  0  0  0  0  0  0  0  0  0
  185.9180  178.6540  142.7280 C   0  0  0  0  0  0  0  0  0  0  0  0
  192.6480  173.9540  145.0080 C   0  0  0  0  0  3  0  0  0  0  0  0
  191.6290  174.2820  144.0470 N   0  0  0  0  0  0  0  0  0  0  0  0
  192.3290  172.5240  142.4270 C   0  0  0  0  0  2  0  0  0  0  0  0
  188.4770  175.3410  141.3700 N   0  0  0  0  0  0  0  0  0  0  0  0
  188.5800  172.8150  140.4770 O   0  0  0  0  0  0  0  0  0  0  0  0
  193.7640  169.9710  141.2770 C   0  0  0  0  0  1  0  0  0  0  0  0
  190.0750  173.7000  142.1570 C   0  0  0  0  0  0  0  0  0  0  0  0
  191.8000  171.5140  141.4550 C   0  0  0  0  0  0  0  0  0  0  0  0
  185.1250  178.9830  143.8760 N   0  0  0  0  0  2  0  0  0  0  0  0
  184.9260  178.1660  145.0350 C   0  0  0  0  0  0  0  0  0  0  0  0
  185.4650  177.0320  145.1370 O   0  0  0  0  0  0  0  0  0  0  0  0
  184.0660  178.6660  146.1380 C   0  0  0  0  0  1  0  0  0  0  0  0
  1 20  2  0  0  0  0
  2 12  1  0  0  0  0
  4  3  1  0  0  0  0
  5 27  1  0  0  0  0
  6  5  1  0  0  0  0
  6 28  2  0  0  0  0
  7 17  1  0  0  0  0
  8 12  1  0  0  0  0
  9 26  1  0  0  0  0
  9 28  1  0  0  0  0
 11  3  2  0  0  0  0
 12 13  2  0  0  0  0
 13 11  1  0  0  0  0
 14 23  1  6  0  0  0
 14 22  1  0  0  0  0
 15  9  1  0  0  0  0
 16 19  1  0  0  0  0
 16  1  1  0  0  0  0
 17 10  1  6  0  0  0
 17  8  1  0  0  0  0
 18 15  2  0  0  0  0
 18  6  1  0  0  0  0
 19  7  1  0  0  0  0
 20 10  1  0  0  0  0
 20 29  1  0  0  0  0
 21  4  2  0  0  0  0
 22 13  1  0  0  0  0
 22 21  1  0  0  0  0
 24  7  2  0  0  0  0
 24  2  1  0  0  0  0
 25  5  2  0  0  0  0
 27  2  2  0  0  0  0
 27 14  1  0  0  0  0
 28 23  1  0  0  0  0
 29 30  1  0  0  0  0
 30 31  2  0  0  0  0
 30 32  1  0  0  0  0
M  END
>  <MODEL>
2

>  <REMARK>
 VINA RESULT:      -8.3      2.530      7.812
  Name = 
  1 active torsions:
  status: ('A' for Active; 'I' for Inactive)
    1  A    between atoms: C_20  and  N_29
                            x       y       z     vdW  Elec       q    Type
                         _______ _______ _______ _____ _____    ______ ____

>  <TORSDO>
F 1

$$$$
=
 OpenBabel11112416373D

 32 37  0  0  1  0  0  0  0  0999 V2000
  190.0320  173.3260  138.3480 C   0  0  0  0  0  3  0  0  0  0  0  0
  188.5260  175.5720  143.0700 C   0  0  0  0  0  0  0  0  0  0  0  0
  191.8640  175.0860  146.6100 C   0  0  0  0  0  3  0  0  0  0  0  0
  191.1730  176.1450  147.3670 C   0  0  0  0  0  3  0  0  0  0  0  0
  186.5440  177.0710  143.2680 C   0  0  0  0  0  0  0  0  0  0  0  0
  185.6840  177.7210  144.2580 C   0  0  0  0  0  0  0  0  0  0  0  0
  188.7900  174.3960  140.9750 C   0  0  0  0  0  0  0  0  0  0  0  0
  190.4090  173.8710  142.8390 C   0  0  0  0  0  2  0  0  0  0  0  0
  185.0000  178.3690  146.2280 N   0  0  0  0  0  0  0  0  0  0  0  0
  190.8830  172.9320  140.6000 C   0  0  0  0  0  2  0  0  0  0  0  0
  191.4130  174.6920  145.4180 C   0  0  0  0  0  3  0  0  0  0  0  0
  189.7580  174.9720  143.6270 C   0  0  0  0  0  0  0  0  0  0  0  0
  190.2040  175.3150  144.8430 C   0  0  0  0  0  0  0  0  0  0  0  0
  188.3320  177.0190  145.1100 C   0  0  2  0  0  3  0  0  0  0  0  0
  184.0940  178.6980  145.2810 C   0  0  0  0  0  3  0  0  0  0  0  0
  188.6630  173.0210  138.8610 C   0  0  0  0  0  2  0  0  0  0  0  0
  190.2460  174.0990  141.3400 C   0  0  1  0  0  3  0  0  0  0  0  0
  184.4890  178.3070  144.0430 N   0  0  0  0  0  0  0  0  0  0  0  0
  188.2050  174.0390  139.7470 O   0  0  0  0  0  0  0  0  0  0  0  0
  191.0850  173.2800  139.1580 C   0  0  0  0  0  0  0  0  0  0  0  0
  190.0650  176.7160  146.8870 C   0  0  0  0  0  3  0  0  0  0  0  0
  189.5080  176.3070  145.6250 N   0  0  0  0  0  0  0  0  0  0  0  0
  187.2100  177.1000  146.1690 C   0  0  0  0  0  2  0  0  0  0  0  0
  188.0700  175.1140  141.7870 N   0  0  0  0  0  0  0  0  0  0  0  0
  186.1950  177.0120  142.0590 O   0  0  0  0  0  0  0  0  0  0  0  0
  184.8810  178.6040  147.6570 C   0  0  0  0  0  1  0  0  0  0  0  0
  187.8260  176.4910  143.7640 C   0  0  0  0  0  0  0  0  0  0  0  0
  186.0040  177.7660  145.5810 C   0  0  0  0  0  0  0  0  0  0  0  0
  192.3760  173.6090  138.6300 N   0  0  0  0  0  2  0  0  0  0  0  0
  193.4030  172.6840  138.2530 C   0  0  0  0  0  0  0  0  0  0  0  0
  193.2350  171.4410  138.3630 O   0  0  0  0  0  0  0  0  0  0  0  0
  194.6890  173.2010  137.7220 C   0  0  0  0  0  1  0  0  0  0  0  0
  1 16  1  0  0  0  0
  1 20  2  0  0  0  0
  2 12  1  0  0  0  0
  2 27  2  0  0  0  0
  3  4  1  0  0  0  0
  5 27  1  0  0  0  0
  5  6  1  0  0  0  0
  6 28  2  0  0  0  0
  7 17  1  0  0  0  0
  7 24  2  0  0  0  0
  8 12  1  0  0  0  0
  9 26  1  0  0  0  0
 11  3  2  0  0  0  0
 12 13  2  0  0  0  0
 13 11  1  0  0  0  0
 13 22  1  0  0  0  0
 14 22  1  0  0  0  0
 14 23  1  1  0  0  0
 15  9  1  0  0  0  0
 16 19  1  0  0  0  0
 17 10  1  6  0  0  0
 17  8  1  0  0  0  0
 18  6  1  0  0  0  0
 18 15  2  0  0  0  0
 19  7  1  0  0  0  0
 20 10  1  0  0  0  0
 21  4  2  0  0  0  0
 22 21  1  0  0  0  0
 24  2  1  0  0  0  0
 25  5  2  0  0  0  0
 27 14  1  0  0  0  0
 28 23  1  0  0  0  0
 28  9  1  0  0  0  0
 29 20  1  0  0  0  0
 30 31  2  0  0  0  0
 30 29  1  0  0  0  0
 32 30  1  0  0  0  0
M  END
>  <MODEL>
3

>  <REMARK>
 VINA RESULT:      -8.3      2.725      4.761
  Name = 
  1 active torsions:
  status: ('A' for Active; 'I' for Inactive)
    1  A    between atoms: C_20  and  N_29
                            x       y       z     vdW  Elec       q    Type
                         _______ _______ _______ _____ _____    ______ ____

>  <TORSDO>
F 1

$$$$
=
 OpenBabel11112416373D

 32 37  0  0  1  0  0  0  0  0999 V2000
  192.6750  173.0090  139.5630 C   0  0  0  0  0  3  0  0  0  0  0  0
  189.4750  175.5860  143.1310 C   0  0  0  0  0  0  0  0  0  0  0  0
  191.5430  176.1870  147.5210 C   0  0  0  0  0  3  0  0  0  0  0  0
  190.5210  177.2030  147.8320 C   0  0  0  0  0  3  0  0  0  0  0  0
  187.3640  176.7280  142.4560 C   0  0  0  0  0  0  0  0  0  0  0  0
  186.1600  177.3460  143.0110 C   0  0  0  0  0  0  0  0  0  0  0  0
  190.5380  174.1970  141.4620 C   0  0  0  0  0  0  0  0  0  0  0  0
  191.5290  174.2260  143.7840 C   0  0  0  0  0  2  0  0  0  0  0  0
  184.8080  178.1300  144.5370 N   0  0  0  0  0  0  0  0  0  0  0  0
  192.8040  173.0850  141.9980 C   0  0  0  0  0  2  0  0  0  0  0  0
  191.5490  175.5580  146.3440 C   0  0  0  0  0  3  0  0  0  0  0  0
  190.5290  175.2940  144.1270 C   0  0  0  0  0  0  0  0  0  0  0  0
  190.5180  175.8740  145.3340 C   0  0  0  0  0  0  0  0  0  0  0  0
  188.4630  177.2440  144.7180 C   0  0  2  0  0  3  0  0  0  0  0  0
  184.2190  178.1610  143.3220 C   0  0  0  0  0  3  0  0  0  0  0  0
  191.2630  172.5420  139.6980 C   0  0  0  0  0  2  0  0  0  0  0  0
  191.8260  174.2130  142.2870 C   0  0  1  0  0  3  0  0  0  0  0  0
  185.0330  177.6790  142.3490 N   0  0  0  0  0  0  0  0  0  0  0  0
  190.4240  173.5760  140.2050 O   0  0  0  0  0  0  0  0  0  0  0  0
  193.4110  173.2610  140.6400 C   0  0  0  0  0  0  0  0  0  0  0  0
  189.5620  177.4980  146.9500 C   0  0  0  0  0  3  0  0  0  0  0  0
  189.4920  176.8280  145.6790 N   0  0  0  0  0  0  0  0  0  0  0  0
  187.0620  177.2730  145.3670 C   0  0  0  0  0  2  0  0  0  0  0  0
  189.5130  174.8820  141.8790 N   0  0  0  0  0  0  0  0  0  0  0  0
  187.4300  176.4410  141.2310 O   0  0  0  0  0  0  0  0  0  0  0  0
  184.2120  178.5360  145.7980 C   0  0  0  0  0  1  0  0  0  0  0  0
  188.4820  176.4550  143.4060 C   0  0  0  0  0  0  0  0  0  0  0  0
  186.0330  177.6290  144.3370 C   0  0  0  0  0  0  0  0  0  0  0  0
  194.7530  173.7350  140.4640 N   0  0  0  0  0  2  0  0  0  0  0  0
  195.1890  175.0980  140.5320 C   0  0  0  0  0  0  0  0  0  0  0  0
  194.3790  176.0330  140.7660 O   0  0  0  0  0  0  0  0  0  0  0  0
  196.6250  175.4130  140.3220 C   0  0  0  0  0  1  0  0  0  0  0  0
  1 16  1  0  0  0  0
  1 20  2  0  0  0  0
  2 27  2  0  0  0  0
  2 12  1  0  0  0  0
  3  4  1  0  0  0  0
  5  6  1  0  0  0  0
  5 27  1  0  0  0  0
  6 28  2  0  0  0  0
  7 24  2  0  0  0  0
  7 17  1  0  0  0  0
  8 12  1  0  0  0  0
  9 26  1  0  0  0  0
 11  3  2  0  0  0  0
 12 13  2  0  0  0  0
 13 22  1  0  0  0  0
 13 11  1  0  0  0  0
 14 23  1  1  0  0  0
 14 22  1  0  0  0  0
 15  9  1  0  0  0  0
 16 19  1  0  0  0  0
 17 10  1  1  0  0  0
 17  8  1  0  0  0  0
 18  6  1  0  0  0  0
 18 15  2  0  0  0  0
 19  7  1  0  0  0  0
 20 10  1  0  0  0  0
 21  4  2  0  0  0  0
 22 21  1  0  0  0  0
 24  2  1  0  0  0  0
 25  5  2  0  0  0  0
 27 14  1  0  0  0  0
 28  9  1  0  0  0  0
 28 23  1  0  0  0  0
 29 30  1  0  0  0  0
 29 20  1  0  0  0  0
 30 31  2  0  0  0  0
 32 30  1  0  0  0  0
M  END
>  <MODEL>
4

>  <REMARK>
 VINA RESULT:      -8.2      2.376      3.620
  Name = 
  1 active torsions:
  status: ('A' for Active; 'I' for Inactive)
    1  A    between atoms: C_20  and  N_29
                            x       y       z     vdW  Elec       q    Type
                         _______ _______ _______ _____ _____    ______ ____

>  <TORSDO>
F 1

$$$$
=
 OpenBabel11112416373D

 32 37  0  0  1  0  0  0  0  0999 V2000
  185.5060  177.5680  143.1200 C   0  0  0  0  0  3  0  0  0  0  0  0
  189.9570  174.4610  143.5000 C   0  0  0  0  0  0  0  0  0  0  0  0
  193.5200  176.4810  146.1690 C   0  0  0  0  0  3  0  0  0  0  0  0
  194.1590  175.1560  146.2680 C   0  0  0  0  0  3  0  0  0  0  0  0
  189.9940  172.0780  142.7650 C   0  0  0  0  0  0  0  0  0  0  0  0
  190.9080  170.9660  142.5050 C   0  0  0  0  0  0  0  0  0  0  0  0
  188.0020  175.7500  142.8990 C   0  0  0  0  0  0  0  0  0  0  0  0
  189.9090  176.9510  144.0360 C   0  0  0  0  0  2  0  0  0  0  0  0
  192.7970  169.8710  142.4510 N   0  0  0  0  0  0  0  0  0  0  0  0
  187.7850  178.1820  143.7330 C   0  0  0  0  0  2  0  0  0  0  0  0
  192.3800  176.6440  145.4960 C   0  0  0  0  0  3  0  0  0  0  0  0
  190.5730  175.6130  144.1930 C   0  0  0  0  0  0  0  0  0  0  0  0
  191.7430  175.4870  144.8340 C   0  0  0  0  0  0  0  0  0  0  0  0
  191.8250  172.9970  144.3110 C   0  0  2  0  0  3  0  0  0  0  0  0
  191.8220  169.1630  141.8420 C   0  0  0  0  0  3  0  0  0  0  0  0
  186.0520  176.9740  141.8630 C   0  0  0  0  0  2  0  0  0  0  0  0
  188.3940  176.8030  143.9370 C   0  0  1  0  0  3  0  0  0  0  0  0
  190.6330  169.8170  141.8560 N   0  0  0  0  0  0  0  0  0  0  0  0
  186.8220  175.8070  142.1360 O   0  0  0  0  0  0  0  0  0  0  0  0
  186.3130  178.1450  144.0040 C   0  0  0  0  0  0  0  0  0  0  0  0
  193.6220  174.0930  145.6630 C   0  0  0  0  0  3  0  0  0  0  0  0
  192.4130  174.2120  144.8910 N   0  0  0  0  0  0  0  0  0  0  0  0
  192.8730  172.1880  143.5140 C   0  0  0  0  0  2  0  0  0  0  0  0
  188.7330  174.6790  142.7800 N   0  0  0  0  0  0  0  0  0  0  0  0
  188.7990  172.0300  142.3670 O   0  0  0  0  0  0  0  0  0  0  0  0
  194.1920  169.4870  142.5840 C   0  0  0  0  0  1  0  0  0  0  0  0
  190.5470  173.2490  143.5060 C   0  0  0  0  0  0  0  0  0  0  0  0
  192.2180  171.0000  142.8770 C   0  0  0  0  0  0  0  0  0  0  0  0
  185.7490  178.6750  145.2110 N   0  0  0  0  0  2  0  0  0  0  0  0
  185.5630  177.9710  146.4440 C   0  0  0  0  0  0  0  0  0  0  0  0
  185.9010  176.7640  146.5660 O   0  0  0  0  0  0  0  0  0  0  0  0
  184.9590  178.6790  147.6020 C   0  0  0  0  0  1  0  0  0  0  0  0
  1 20  2  0  0  0  0
  2 27  2  0  0  0  0
  2 12  1  0  0  0  0
  3  4  1  0  0  0  0
  5 27  1  0  0  0  0
  6  5  1  0  0  0  0
  6 28  2  0  0  0  0
  7 17  1  0  0  0  0
  8 12  1  0  0  0  0
  9 26  1  0  0  0  0
  9 28  1  0  0  0  0
 10 20  1  0  0  0  0
 11  3  2  0  0  0  0
 12 13  2  0  0  0  0
 13 22  1  0  0  0  0
 13 11  1  0  0  0  0
 14 23  1  6  0  0  0
 14 22  1  0  0  0  0
 15 18  2  0  0  0  0
 15  9  1  0  0  0  0
 16 19  1  0  0  0  0
 16  1  1  0  0  0  0
 17 10  1  6  0  0  0
 17  8  1  0  0  0  0
 18  6  1  0  0  0  0
 19  7  1  0  0  0  0
 20 29  1  0  0  0  0
 21  4  2  0  0  0  0
 22 21  1  0  0  0  0
 24  7  2  0  0  0  0
 24  2  1  0  0  0  0
 25  5  2  0  0  0  0
 27 14  1  0  0  0  0
 28 23  1  0  0  0  0
 29 30  1  0  0  0  0
 30 31  2  0  0  0  0
 30 32  1  0  0  0  0
M  END
>  <MODEL>
5

>  <REMARK>
 VINA RESULT:      -8.1      2.617      8.038
  Name = 
  1 active torsions:
  status: ('A' for Active; 'I' for Inactive)
    1  A    between atoms: C_20  and  N_29
                            x       y       z     vdW  Elec       q    Type
                         _______ _______ _______ _____ _____    ______ ____

>  <TORSDO>
F 1

$$$$
=
 OpenBabel11112416373D

 32 37  0  0  1  0  0  0  0  0999 V2000
  186.0750  178.1500  144.7760 C   0  0  0  0  0  3  0  0  0  0  0  0
  190.5740  175.5970  143.0860 C   0  0  0  0  0  0  0  0  0  0  0  0
  189.7040  172.1030  139.7780 C   0  0  0  0  0  3  0  0  0  0  0  0
  191.1360  172.1180  139.4290 C   0  0  0  0  0  3  0  0  0  0  0  0
  192.8640  176.4300  143.6120 C   0  0  0  0  0  0  0  0  0  0  0  0
  194.2730  176.0410  143.5570 C   0  0  0  0  0  0  0  0  0  0  0  0
  188.7400  176.6670  144.2420 C   0  0  0  0  0  0  0  0  0  0  0  0
  188.2150  174.6900  142.7630 C   0  0  0  0  0  2  0  0  0  0  0  0
  196.0170  174.8220  143.0640 N   0  0  0  0  0  0  0  0  0  0  0  0
  186.3160  175.9910  143.6690 C   0  0  0  0  0  2  0  0  0  0  0  0
  189.2210  172.9140  140.7210 C   0  0  0  0  0  3  0  0  0  0  0  0
  189.6590  174.6980  142.3500 C   0  0  0  0  0  0  0  0  0  0  0  0
  190.1260  173.8400  141.4330 C   0  0  0  0  0  0  0  0  0  0  0  0
  192.4960  174.7190  141.7350 C   0  0  2  0  0  3  0  0  0  0  0  0
  196.3750  175.8670  143.8410 C   0  0  0  0  0  3  0  0  0  0  0  0
  187.0390  177.6750  145.8130 C   0  0  0  0  0  2  0  0  0  0  0  0
  187.7680  176.0740  143.2210 C   0  0  1  0  0  3  0  0  0  0  0  0
  195.3130  176.6460  144.1670 N   0  0  0  0  0  0  0  0  0  0  0  0
  188.3520  177.5400  145.2740 O   0  0  0  0  0  0  0  0  0  0  0  0
  185.7230  177.3620  143.7660 C   0  0  0  0  0  0  0  0  0  0  0  0
  191.9860  172.9260  140.0670 C   0  0  0  0  0  3  0  0  0  0  0  0
  191.5330  173.7970  141.1190 N   0  0  0  0  0  0  0  0  0  0  0  0
  193.7750  173.9800  142.1880 C   0  0  0  0  0  2  0  0  0  0  0  0
  190.0150  176.4500  144.0990 N   0  0  0  0  0  0  0  0  0  0  0  0
  192.5030  177.4320  144.2870 O   0  0  0  0  0  0  0  0  0  0  0  0
  196.8920  173.7750  142.5640 C   0  0  0  0  0  1  0  0  0  0  0  0
  191.9000  175.5880  142.8450 C   0  0  0  0  0  0  0  0  0  0  0  0
  194.6970  174.9400  142.8770 C   0  0  0  0  0  0  0  0  0  0  0  0
  184.8180  177.8700  142.7770 N   0  0  0  0  0  2  0  0  0  0  0  0
  185.1210  178.1370  141.4030 C   0  0  0  0  0  0  0  0  0  0  0  0
  186.2720  177.9330  140.9350 O   0  0  0  0  0  0  0  0  0  0  0  0
  184.0560  178.6660  140.5130 C   0  0  0  0  0  1  0  0  0  0  0  0
  1 16  1  0  0  0  0
  2 24  1  0  0  0  0
  3 11  2  0  0  0  0
  4  3  1  0  0  0  0
  4 21  2  0  0  0  0
  5 25  2  0  0  0  0
  6  5  1  0  0  0  0
  6 18  1  0  0  0  0
  7 19  1  0  0  0  0
  9 15  1  0  0  0  0
 10 20  1  0  0  0  0
 11 13  1  0  0  0  0
 12  8  1  0  0  0  0
 12  2  1  0  0  0  0
 13 12  2  0  0  0  0
 14 23  1  1  0  0  0
 14 27  1  0  0  0  0
 15 18  2  0  0  0  0
 17  8  1  1  0  0  0
 17 10  1  0  0  0  0
 17  7  1  0  0  0  0
 19 16  1  0  0  0  0
 20  1  2  0  0  0  0
 21 22  1  0  0  0  0
 22 13  1  0  0  0  0
 22 14  1  0  0  0  0
 23 28  1  0  0  0  0
 24  7  2  0  0  0  0
 26  9  1  0  0  0  0
 27  2  2  0  0  0  0
 27  5  1  0  0  0  0
 28  9  1  0  0  0  0
 28  6  2  0  0  0  0
 29 20  1  0  0  0  0
 30 29  1  0  0  0  0
 31 30  2  0  0  0  0
 32 30  1  0  0  0  0
M  END
>  <MODEL>
6

>  <REMARK>
 VINA RESULT:      -7.9      2.223      8.872
  Name = 
  1 active torsions:
  status: ('A' for Active; 'I' for Inactive)
    1  A    between atoms: C_20  and  N_29
                            x       y       z     vdW  Elec       q    Type
                         _______ _______ _______ _____ _____    ______ ____

>  <TORSDO>
F 1

$$$$
=
 OpenBabel11112416373D

 32 37  0  0  1  0  0  0  0  0999 V2000
  185.3410  177.9230  141.7230 C   0  0  0  0  0  3  0  0  0  0  0  0
  189.2230  174.1450  141.2110 C   0  0  0  0  0  0  0  0  0  0  0  0
  192.1130  173.7780  145.1370 C   0  0  0  0  0  3  0  0  0  0  0  0
  192.5770  172.4710  144.6380 C   0  0  0  0  0  3  0  0  0  0  0  0
  189.2350  172.4800  139.3540 C   0  0  0  0  0  0  0  0  0  0  0  0
  190.0800  171.4690  138.7180 C   0  0  0  0  0  0  0  0  0  0  0  0
  187.6270  175.9520  141.0350 C   0  0  0  0  0  0  0  0  0  0  0  0
  189.2630  175.9990  142.9570 C   0  0  0  0  0  2  0  0  0  0  0  0
  191.8050  170.1590  138.4400 N   0  0  0  0  0  0  0  0  0  0  0  0
  187.4200  177.6490  142.9680 C   0  0  0  0  0  2  0  0  0  0  0  0
  191.2140  174.4910  144.4570 C   0  0  0  0  0  3  0  0  0  0  0  0
  189.7340  174.6470  142.5040 C   0  0  0  0  0  0  0  0  0  0  0  0
  190.6740  173.9750  143.1830 C   0  0  0  0  0  0  0  0  0  0  0  0
  190.6640  172.1060  141.4540 C   0  0  2  0  0  3  0  0  0  0  0  0
  190.9680  170.0680  137.3850 C   0  0  0  0  0  3  0  0  0  0  0  0
  186.1460  177.9160  140.4650 C   0  0  0  0  0  2  0  0  0  0  0  0
  187.8220  176.2520  142.5220 C   0  0  1  0  0  3  0  0  0  0  0  0
  189.8840  170.8730  137.5250 N   0  0  0  0  0  0  0  0  0  0  0  0
  186.7040  176.6290  140.2170 O   0  0  0  0  0  0  0  0  0  0  0  0
  185.9320  177.8050  142.9070 C   0  0  0  0  0  0  0  0  0  0  0  0
  192.1260  171.9830  143.4790 C   0  0  0  0  0  3  0  0  0  0  0  0
  191.1840  172.7220  142.6810 N   0  0  0  0  0  0  0  0  0  0  0  0
  191.8070  171.5830  140.5560 C   0  0  0  0  0  2  0  0  0  0  0  0
  188.2610  174.9460  140.5060 N   0  0  0  0  0  0  0  0  0  0  0  0
  188.1910  172.8930  138.7820 O   0  0  0  0  0  0  0  0  0  0  0  0
  193.0720  169.4660  138.6010 C   0  0  0  0  0  1  0  0  0  0  0  0
  189.6760  172.9890  140.6860 C   0  0  0  0  0  0  0  0  0  0  0  0
  191.2390  171.0310  139.2830 C   0  0  0  0  0  0  0  0  0  0  0  0
  185.1170  177.7870  144.0860 N   0  0  0  0  0  2  0  0  0  0  0  0
  184.9550  178.8570  145.0250 C   0  0  0  0  0  0  0  0  0  0  0  0
  185.5510  179.9560  144.8740 O   0  0  0  0  0  0  0  0  0  0  0  0
  184.0680  178.6660  146.2000 C   0  0  0  0  0  1  0  0  0  0  0  0
  1 20  2  0  0  0  0
  2 12  1  0  0  0  0
  4  3  1  0  0  0  0
  5 27  1  0  0  0  0
  6 28  2  0  0  0  0
  6  5  1  0  0  0  0
  7 17  1  0  0  0  0
  9 26  1  0  0  0  0
  9 28  1  0  0  0  0
 11  3  2  0  0  0  0
 12  8  1  0  0  0  0
 12 13  2  0  0  0  0
 13 11  1  0  0  0  0
 14 23  1  6  0  0  0
 14 22  1  0  0  0  0
 15 18  2  0  0  0  0
 15  9  1  0  0  0  0
 16  1  1  0  0  0  0
 17  8  1  6  0  0  0
 17 10  1  0  0  0  0
 18  6  1  0  0  0  0
 19 16  1  0  0  0  0
 19  7  1  0  0  0  0
 20 10  1  0  0  0  0
 20 29  1  0  0  0  0
 21  4  2  0  0  0  0
 22 13  1  0  0  0  0
 22 21  1  0  0  0  0
 24  7  2  0  0  0  0
 24  2  1  0  0  0  0
 25  5  2  0  0  0  0
 27  2  2  0  0  0  0
 27 14  1  0  0  0  0
 28 23  1  0  0  0  0
 29 30  1  0  0  0  0
 30 32  1  0  0  0  0
 31 30  2  0  0  0  0
M  END
>  <MODEL>
7

>  <REMARK>
 VINA RESULT:      -7.7      3.271      8.080
  Name = 
  1 active torsions:
  status: ('A' for Active; 'I' for Inactive)
    1  A    between atoms: C_20  and  N_29
                            x       y       z     vdW  Elec       q    Type
                         _______ _______ _______ _____ _____    ______ ____

>  <TORSDO>
F 1

$$$$
=
 OpenBabel11112416373D

 32 37  0  0  1  0  0  0  0  0999 V2000
  186.0920  176.8310  142.9970 C   0  0  0  0  0  3  0  0  0  0  0  0
  191.0840  174.6670  142.8990 C   0  0  0  0  0  0  0  0  0  0  0  0
  194.0440  176.4420  146.3610 C   0  0  0  0  0  3  0  0  0  0  0  0
  194.9450  175.2960  146.1390 C   0  0  0  0  0  3  0  0  0  0  0  0
  191.6490  172.6660  141.5230 C   0  0  0  0  0  0  0  0  0  0  0  0
  192.7870  171.8790  141.0450 C   0  0  0  0  0  0  0  0  0  0  0  0
  188.9220  175.6760  142.5060 C   0  0  0  0  0  0  0  0  0  0  0  0
  190.4920  176.8260  144.1150 C   0  0  0  0  0  2  0  0  0  0  0  0
  194.8650  171.2340  140.8620 N   0  0  0  0  0  0  0  0  0  0  0  0
  188.1670  177.6600  143.9740 C   0  0  0  0  0  2  0  0  0  0  0  0
  192.9190  176.5760  145.6570 C   0  0  0  0  0  3  0  0  0  0  0  0
  191.4180  175.6550  143.9470 C   0  0  0  0  0  0  0  0  0  0  0  0
  192.5650  175.5710  144.6340 C   0  0  0  0  0  0  0  0  0  0  0  0
  193.1900  173.4150  143.4340 C   0  0  2  0  0  3  0  0  0  0  0  0
  194.0840  170.5660  139.9860 C   0  0  0  0  0  3  0  0  0  0  0  0
  186.7950  176.7560  141.6810 C   0  0  0  0  0  2  0  0  0  0  0  0
  189.0470  176.4270  143.8340 C   0  0  1  0  0  3  0  0  0  0  0  0
  192.7830  170.9450  140.0730 N   0  0  0  0  0  0  0  0  0  0  0  0
  187.7840  175.7310  141.6820 O   0  0  0  0  0  0  0  0  0  0  0  0
  186.7280  177.2620  144.0810 C   0  0  0  0  0  0  0  0  0  0  0  0
  194.6660  174.3800  145.2080 C   0  0  0  0  0  3  0  0  0  0  0  0
  193.4870  174.4890  144.3900 N   0  0  0  0  0  0  0  0  0  0  0  0
  194.4120  173.0960  142.5440 C   0  0  0  0  0  2  0  0  0  0  0  0
  189.8670  174.8510  142.1580 N   0  0  0  0  0  0  0  0  0  0  0  0
  190.5060  172.5100  141.0160 O   0  0  0  0  0  0  0  0  0  0  0  0
  196.3040  171.1020  141.0130 C   0  0  0  0  0  1  0  0  0  0  0  0
  191.9170  173.6450  142.6160 C   0  0  0  0  0  0  0  0  0  0  0  0
  194.0460  172.0500  141.5350 C   0  0  0  0  0  0  0  0  0  0  0  0
  186.0230  177.2890  145.3290 N   0  0  0  0  0  2  0  0  0  0  0  0
  185.4630  178.4440  145.9650 C   0  0  0  0  0  0  0  0  0  0  0  0
  185.5540  179.5870  145.4440 O   0  0  0  0  0  0  0  0  0  0  0  0
  184.7630  178.2910  147.2660 C   0  0  0  0  0  1  0  0  0  0  0  0
  1 20  2  0  0  0  0
  2 12  1  0  0  0  0
  4  3  1  0  0  0  0
  5 27  1  0  0  0  0
  6  5  1  0  0  0  0
  6 28  2  0  0  0  0
  7 17  1  0  0  0  0
  9 26  1  0  0  0  0
  9 28  1  0  0  0  0
 10 20  1  0  0  0  0
 11  3  2  0  0  0  0
 12  8  1  0  0  0  0
 12 13  2  0  0  0  0
 13 11  1  0  0  0  0
 14 23  1  6  0  0  0
 14 22  1  0  0  0  0
 15 18  2  0  0  0  0
 15  9  1  0  0  0  0
 16 19  1  0  0  0  0
 16  1  1  0  0  0  0
 17 10  1  6  0  0  0
 17  8  1  0  0  0  0
 18  6  1  0  0  0  0
 19  7  1  0  0  0  0
 20 29  1  0  0  0  0
 21  4  2  0  0  0  0
 22 13  1  0  0  0  0
 22 21  1  0  0  0  0
 24  7  2  0  0  0  0
 24  2  1  0  0  0  0
 25  5  2  0  0  0  0
 27  2  2  0  0  0  0
 27 14  1  0  0  0  0
 28 23  1  0  0  0  0
 29 30  1  0  0  0  0
 30 32  1  0  0  0  0
 31 30  2  0  0  0  0
M  END
>  <MODEL>
8

>  <REMARK>
 VINA RESULT:      -7.7      2.642      8.435
  Name = 
  1 active torsions:
  status: ('A' for Active; 'I' for Inactive)
    1  A    between atoms: C_20  and  N_29
                            x       y       z     vdW  Elec       q    Type
                         _______ _______ _______ _____ _____    ______ ____

>  <TORSDO>
F 1

$$$$
=
 OpenBabel11112416373D

 32 37  0  0  1  0  0  0  0  0999 V2000
  185.4760  177.5450  140.1380 C   0  0  0  0  0  3  0  0  0  0  0  0
  189.3120  175.2000  143.2030 C   0  0  0  0  0  0  0  0  0  0  0  0
  190.0840  177.4960  147.4500 C   0  0  0  0  0  3  0  0  0  0  0  0
  190.7800  176.2930  147.9410 C   0  0  0  0  0  3  0  0  0  0  0  0
  190.2470  172.9470  142.6870 C   0  0  0  0  0  0  0  0  0  0  0  0
  191.3310  172.0370  143.0560 C   0  0  0  0  0  0  0  0  0  0  0  0
  187.9020  176.2010  141.5140 C   0  0  0  0  0  0  0  0  0  0  0  0
  188.4670  177.5780  143.5530 C   0  0  0  0  0  2  0  0  0  0  0  0
  193.0440  171.2830  144.1820 N   0  0  0  0  0  0  0  0  0  0  0  0
  186.7580  178.4630  141.9980 C   0  0  0  0  0  2  0  0  0  0  0  0
  189.5700  177.5360  146.2200 C   0  0  0  0  0  3  0  0  0  0  0  0
  189.1500  176.3600  144.1060 C   0  0  0  0  0  0  0  0  0  0  0  0
  189.6990  176.3650  145.3280 C   0  0  0  0  0  0  0  0  0  0  0  0
  190.5640  173.9920  145.0100 C   0  0  2  0  0  3  0  0  0  0  0  0
  192.7910  170.4890  143.1190 C   0  0  0  0  0  3  0  0  0  0  0  0
  186.7690  177.1860  139.4830 C   0  0  0  0  0  2  0  0  0  0  0  0
  187.3790  177.1910  142.5560 C   0  0  1  0  0  3  0  0  0  0  0  0
  191.7310  170.9310  142.3960 N   0  0  0  0  0  0  0  0  0  0  0  0
  187.4320  176.1410  140.1900 O   0  0  0  0  0  0  0  0  0  0  0  0
  185.4600  178.1530  141.3190 C   0  0  0  0  0  0  0  0  0  0  0  0
  190.9330  175.2240  147.1550 C   0  0  0  0  0  3  0  0  0  0  0  0
  190.4340  175.2200  145.8050 N   0  0  0  0  0  0  0  0  0  0  0  0
  192.0120  173.4560  145.0290 C   0  0  0  0  0  2  0  0  0  0  0  0
  188.7500  175.2860  141.8830 N   0  0  0  0  0  0  0  0  0  0  0  0
  189.5670  172.7430  141.6450 O   0  0  0  0  0  0  0  0  0  0  0  0
  194.1220  171.1240  145.1430 C   0  0  0  0  0  1  0  0  0  0  0  0
  190.0040  174.1100  143.5900 C   0  0  0  0  0  0  0  0  0  0  0  0
  192.1180  172.2480  144.1480 C   0  0  0  0  0  0  0  0  0  0  0  0
  184.1960  178.4530  141.9250 N   0  0  0  0  0  2  0  0  0  0  0  0
  182.9060  178.3010  141.3210 C   0  0  0  0  0  0  0  0  0  0  0  0
  182.7810  177.8660  140.1460 O   0  0  0  0  0  0  0  0  0  0  0  0
  181.6920  178.6630  142.0970 C   0  0  0  0  0  1  0  0  0  0  0  0
  1 20  2  0  0  0  0
  2 27  2  0  0  0  0
  2 12  1  0  0  0  0
  3  4  1  0  0  0  0
  5  6  1  0  0  0  0
  5 27  1  0  0  0  0
  6 28  2  0  0  0  0
  7 24  2  0  0  0  0
  7 17  1  0  0  0  0
  8 12  1  0  0  0  0
  9 26  1  0  0  0  0
 11  3  2  0  0  0  0
 12 13  2  0  0  0  0
 13 22  1  0  0  0  0
 13 11  1  0  0  0  0
 14 23  1  6  0  0  0
 14 22  1  0  0  0  0
 15  9  1  0  0  0  0
 16  1  1  0  0  0  0
 16 19  1  0  0  0  0
 17 10  1  6  0  0  0
 17  8  1  0  0  0  0
 18  6  1  0  0  0  0
 18 15  2  0  0  0  0
 19  7  1  0  0  0  0
 20 29  1  0  0  0  0
 20 10  1  0  0  0  0
 21  4  2  0  0  0  0
 22 21  1  0  0  0  0
 24  2  1  0  0  0  0
 25  5  2  0  0  0  0
 27 14  1  0  0  0  0
 28  9  1  0  0  0  0
 28 23  1  0  0  0  0
 30 29  1  0  0  0  0
 30 32  1  0  0  0  0
 31 30  2  0  0  0  0
M  END
>  <MODEL>
9

>  <REMARK>
 VINA RESULT:      -7.5      2.549      7.943
  Name = 
  1 active torsions:
  status: ('A' for Active; 'I' for Inactive)
    1  A    between atoms: C_20  and  N_29
                            x       y       z     vdW  Elec       q    Type
                         _______ _______ _______ _____ _____    ______ ____

>  <TORSDO>
F 1

$$$$
