=
 OpenBabel11112418083D

 34 37  0  0  1  0  0  0  0  0999 V2000
  187.0180  177.2650  146.4030 C   0  0  2  0  0  3  0  0  0  0  0  0
  188.6140  175.6980  147.3070 O   0  0  0  0  0  0  0  0  0  0  0  0
  185.4710  178.1090  144.6420 C   0  0  0  0  0  2  0  0  0  0  0  0
  189.5660  177.3810  145.9160 C   0  0  2  0  0  3  0  0  0  0  0  0
  192.2490  177.1660  144.7690 C   0  0  0  0  0  2  0  0  0  0  0  0
  189.2630  177.0730  144.4270 C   0  0  1  0  0  3  0  0  0  0  0  0
  189.9890  175.4110  147.1940 C   0  0  0  0  0  2  0  0  0  0  0  0
  191.6540  176.0420  145.4830 N   0  0  0  0  0  0  0  0  0  0  0  0
  186.9410  177.9990  145.0610 C   0  0  2  0  0  3  0  0  0  0  0  0
  187.7670  177.2090  144.0410 C   0  0  1  0  0  3  0  0  0  0  0  0
  184.7710  178.1630  147.0430 C   0  0  0  0  0  2  0  0  0  0  0  0
  191.5680  177.3290  143.4190 C   0  0  0  0  0  2  0  0  0  0  0  0
  184.6810  178.8780  145.6980 C   0  0  0  0  0  2  0  0  0  0  0  0
  190.1830  177.9430  143.5690 C   0  0  0  0  0  2  0  0  0  0  0  0
  190.7060  176.5530  146.4840 C   0  0  1  0  0  3  0  0  0  0  0  0
  186.2290  178.0200  147.4710 C   0  0  0  0  0  2  0  0  0  0  0  0
  188.4500  177.0270  146.8880 C   0  0  1  0  0  3  0  0  0  0  0  0
  187.4870  177.5360  142.5650 C   0  0  0  0  0  2  0  0  0  0  0  0
  187.0160  176.3170  141.7820 C   0  0  0  0  0  2  0  0  0  0  0  0
  187.8770  175.2950  139.7920 O   0  0  0  0  0  1  0  0  0  0  0  0
  188.1970  175.6340  141.1130 C   0  0  2  0  0  3  0  0  0  0  0  0
  188.5970  174.4550  141.8840 N   0  0  0  0  0  0  0  0  0  0  0  0
  188.1420  173.3450  141.2510 O   0  0  0  0  0  1  0  0  0  0  0  0
  190.0510  174.3830  141.8850 C   0  0  0  0  0  2  0  0  0  0  0  0
  190.5270  173.4260  142.9650 C   0  0  0  0  0  2  0  0  0  0  0  0
  189.7440  173.5720  144.1100 O   0  0  0  0  0  0  0  0  0  0  0  0
  189.6910  172.2930  144.6620 C   0  0  0  0  0  1  0  0  0  0  0  0
  192.7520  175.4010  146.1930 C   0  0  0  0  0  2  0  0  0  0  0  0
  193.6140  174.6250  145.2140 C   0  0  0  0  0  2  0  0  0  0  0  0
  195.0940  174.9020  145.4790 C   0  0  1  0  0  3  0  0  0  0  0  0
  196.9980  173.8030  146.4860 O   0  0  0  0  0  1  0  0  0  0  0  0
  195.9480  173.6350  145.5800 C   0  0  0  0  0  2  0  0  0  0  0  0
  195.6620  175.9070  144.6620 O   0  0  0  0  0  0  0  0  0  0  0  0
  195.3290  175.6610  143.3200 C   0  0  0  0  0  1  0  0  0  0  0  0
  1 17  1  0  0  0  0
  1 16  1  1  0  0  0
  3  9  1  0  0  0  0
  3 13  1  0  0  0  0
  4 15  1  0  0  0  0
  4 17  1  0  0  0  0
  5  8  1  0  0  0  0
  6  4  1  0  0  0  0
  7  2  1  0  0  0  0
  8 28  1  0  0  0  0
  8 15  1  0  0  0  0
  9  1  1  0  0  0  0
 10  6  1  0  0  0  0
 10  9  1  0  0  0  0
 11 16  1  0  0  0  0
 12 14  1  0  0  0  0
 12  5  1  0  0  0  0
 13 11  1  0  0  0  0
 14  6  1  0  0  0  0
 15  7  1  0  0  0  0
 17  2  1  0  0  0  0
 18 10  1  0  0  0  0
 19 18  1  0  0  0  0
 20 21  1  0  0  0  0
 21 19  1  0  0  0  0
 21 22  1  0  0  0  0
 22 24  1  0  0  0  0
 23 22  1  0  0  0  0
 24 25  1  0  0  0  0
 25 26  1  0  0  0  0
 26 27  1  0  0  0  0
 29 30  1  0  0  0  0
 29 28  1  0  0  0  0
 30 32  1  0  0  0  0
 32 31  1  0  0  0  0
 33 30  1  0  0  0  0
 34 33  1  0  0  0  0
M  END
>  <MODEL>
1

>  <REMARK>
 VINA RESULT:      -6.8      0.000      0.000
  Name = 
  12 active torsions:
  status: ('A' for Active; 'I' for Inactive)
    1  A    between atoms: N_3  and  C_16
    2  A    between atoms: N_3  and  C_19
    3  A    between atoms: C_5  and  C_11
    4  A    between atoms: C_5  and  C_19
    5  A    between atoms: C_8  and  O_12
    6  A    between atoms: C_8  and  C_16
    7  A    between atoms: C_11  and  C_20
    8  A    between atoms: N_17  and  C_28
    9  A    between atoms: C_28  and  C_29
   10  A    between atoms: C_29  and  C_32
   11  A    between atoms: O_31  and  C_32
   12  A    between atoms: C_32  and  C_34
                            x       y       z     vdW  Elec       q    Type
                         _______ _______ _______ _____ _____    ______ ____

>  <TORSDO>
F 12

$$$$
=
 OpenBabel11112418083D

 34 37  0  0  1  0  0  0  0  0999 V2000
  186.8510  177.2670  146.2710 C   0  0  2  0  0  3  0  0  0  0  0  0
  188.3480  175.6540  147.2600 O   0  0  0  0  0  0  0  0  0  0  0  0
  185.4360  178.1590  144.4240 C   0  0  0  0  0  2  0  0  0  0  0  0
  189.4260  177.3190  145.9420 C   0  0  2  0  0  3  0  0  0  0  0  0
  192.1690  177.0420  144.9600 C   0  0  0  0  0  2  0  0  0  0  0  0
  189.2070  177.0280  144.4340 C   0  0  1  0  0  3  0  0  0  0  0  0
  189.7190  175.3330  147.2300 C   0  0  0  0  0  2  0  0  0  0  0  0
  191.5020  175.9300  145.6280 N   0  0  0  0  0  0  0  0  0  0  0  0
  186.8750  178.0090  144.9310 C   0  0  2  0  0  3  0  0  0  0  0  0
  187.7420  177.2030  143.9580 C   0  0  1  0  0  3  0  0  0  0  0  0
  184.5920  178.2190  146.7770 C   0  0  0  0  0  2  0  0  0  0  0  0
  191.5760  177.2290  143.5720 C   0  0  0  0  0  2  0  0  0  0  0  0
  184.6030  178.9430  145.4340 C   0  0  0  0  0  2  0  0  0  0  0  0
  190.2000  177.8780  143.6400 C   0  0  0  0  0  2  0  0  0  0  0  0
  190.5080  176.4600  146.5720 C   0  0  1  0  0  3  0  0  0  0  0  0
  186.0170  178.0360  147.2930 C   0  0  0  0  0  2  0  0  0  0  0  0
  188.2440  176.9890  146.8410 C   0  0  1  0  0  3  0  0  0  0  0  0
  187.5620  177.5450  142.4700 C   0  0  0  0  0  2  0  0  0  0  0  0
  187.0630  176.3550  141.6600 C   0  0  0  0  0  2  0  0  0  0  0  0
  188.1140  175.0630  139.9370 O   0  0  0  0  0  1  0  0  0  0  0  0
  188.2250  175.4560  141.2770 C   0  0  2  0  0  3  0  0  0  0  0  0
  188.2780  174.2960  142.1700 N   0  0  0  0  0  0  0  0  0  0  0  0
  187.7900  173.2160  141.5110 O   0  0  0  0  0  1  0  0  0  0  0  0
  189.6740  174.0190  142.4750 C   0  0  0  0  0  2  0  0  0  0  0  0
  190.1200  172.7470  141.7740 C   0  0  0  0  0  2  0  0  0  0  0  0
  191.0960  173.0440  140.8220 O   0  0  0  0  0  0  0  0  0  0  0  0
  191.7670  174.1490  141.3420 C   0  0  0  0  0  1  0  0  0  0  0  0
  192.5380  175.2570  146.4000 C   0  0  0  0  0  2  0  0  0  0  0  0
  193.8970  175.8370  146.0500 C   0  0  0  0  0  2  0  0  0  0  0  0
  194.8830  174.7120  145.7290 C   0  0  1  0  0  3  0  0  0  0  0  0
  194.8940  172.2950  145.7100 O   0  0  0  0  0  1  0  0  0  0  0  0
  194.2100  173.4230  145.2520 C   0  0  0  0  0  2  0  0  0  0  0  0
  195.9880  175.1050  144.9380 O   0  0  0  0  0  0  0  0  0  0  0  0
  195.6750  176.2910  144.2560 C   0  0  0  0  0  1  0  0  0  0  0  0
  1 17  1  0  0  0  0
  1 16  1  1  0  0  0
  3  9  1  0  0  0  0
  3 13  1  0  0  0  0
  4 15  1  0  0  0  0
  4 17  1  0  0  0  0
  5  8  1  0  0  0  0
  6  4  1  0  0  0  0
  7  2  1  0  0  0  0
  8 28  1  0  0  0  0
  8 15  1  0  0  0  0
  9  1  1  0  0  0  0
 10  6  1  0  0  0  0
 10  9  1  0  0  0  0
 11 16  1  0  0  0  0
 12 14  1  0  0  0  0
 12  5  1  0  0  0  0
 13 11  1  0  0  0  0
 14  6  1  0  0  0  0
 15  7  1  0  0  0  0
 17  2  1  0  0  0  0
 18 10  1  0  0  0  0
 19 18  1  0  0  0  0
 20 21  1  0  0  0  0
 21 19  1  0  0  0  0
 21 22  1  0  0  0  0
 22 24  1  0  0  0  0
 23 22  1  0  0  0  0
 25 24  1  0  0  0  0
 26 27  1  0  0  0  0
 26 25  1  0  0  0  0
 29 28  1  0  0  0  0
 30 29  1  0  0  0  0
 32 31  1  0  0  0  0
 32 30  1  0  0  0  0
 33 30  1  0  0  0  0
 34 33  1  0  0  0  0
M  END
>  <MODEL>
2

>  <REMARK>
 VINA RESULT:      -6.7      0.994      1.225
  Name = 
  12 active torsions:
  status: ('A' for Active; 'I' for Inactive)
    1  A    between atoms: N_3  and  C_16
    2  A    between atoms: N_3  and  C_19
    3  A    between atoms: C_5  and  C_11
    4  A    between atoms: C_5  and  C_19
    5  A    between atoms: C_8  and  O_12
    6  A    between atoms: C_8  and  C_16
    7  A    between atoms: C_11  and  C_20
    8  A    between atoms: N_17  and  C_28
    9  A    between atoms: C_28  and  C_29
   10  A    between atoms: C_29  and  C_32
   11  A    between atoms: O_31  and  C_32
   12  A    between atoms: C_32  and  C_34
                            x       y       z     vdW  Elec       q    Type
                         _______ _______ _______ _____ _____    ______ ____

>  <TORSDO>
F 12

$$$$
=
 OpenBabel11112418083D

 34 37  0  0  1  0  0  0  0  0999 V2000
  187.1270  177.1110  146.3490 C   0  0  2  0  0  3  0  0  0  0  0  0
  188.4060  175.1170  146.8100 O   0  0  0  0  0  0  0  0  0  0  0  0
  185.9180  178.6890  144.8470 C   0  0  0  0  0  2  0  0  0  0  0  0
  189.7120  176.9890  146.1300 C   0  0  2  0  0  3  0  0  0  0  0  0
  192.4730  176.7470  145.1920 C   0  0  0  0  0  2  0  0  0  0  0  0
  189.5610  177.2160  144.6030 C   0  0  1  0  0  3  0  0  0  0  0  0
  189.7410  174.6780  146.7180 C   0  0  0  0  0  2  0  0  0  0  0  0
  191.6670  175.5580  145.4460 N   0  0  0  0  0  0  0  0  0  0  0  0
  187.3030  178.2330  145.3220 C   0  0  2  0  0  3  0  0  0  0  0  0
  188.1510  177.6900  144.1660 C   0  0  1  0  0  3  0  0  0  0  0  0
  184.9380  178.0880  147.0690 C   0  0  0  0  0  2  0  0  0  0  0  0
  191.9880  177.4270  143.9220 C   0  0  0  0  0  2  0  0  0  0  0  0
  185.0990  179.1950  146.0310 C   0  0  0  0  0  2  0  0  0  0  0  0
  190.6750  178.1640  144.1550 C   0  0  0  0  0  2  0  0  0  0  0  0
  190.6690  175.8640  146.4820 C   0  0  1  0  0  3  0  0  0  0  0  0
  186.3060  177.6000  147.5390 C   0  0  0  0  0  2  0  0  0  0  0  0
  188.4510  176.5190  146.8400 C   0  0  1  0  0  3  0  0  0  0  0  0
  188.0950  178.5030  142.8630 C   0  0  0  0  0  2  0  0  0  0  0  0
  188.3710  177.6460  141.6340 C   0  0  0  0  0  2  0  0  0  0  0  0
  187.4120  175.9060  140.2940 O   0  0  0  0  0  1  0  0  0  0  0  0
  187.1040  176.9310  141.1980 C   0  0  2  0  0  3  0  0  0  0  0  0
  186.1610  177.8890  140.6170 N   0  0  0  0  0  0  0  0  0  0  0  0
  185.7540  177.4230  139.4100 O   0  0  0  0  0  1  0  0  0  0  0  0
  184.9860  177.9490  141.4740 C   0  0  0  0  0  2  0  0  0  0  0  0
  183.7490  178.2470  140.6440 C   0  0  0  0  0  2  0  0  0  0  0  0
  182.5990  177.9840  141.3880 O   0  0  0  0  0  0  0  0  0  0  0  0
  181.5800  178.6430  140.7020 C   0  0  0  0  0  1  0  0  0  0  0  0
  192.5870  174.5680  145.9910 C   0  0  0  0  0  2  0  0  0  0  0  0
  194.0180  175.0460  145.8150 C   0  0  0  0  0  2  0  0  0  0  0  0
  194.9120  173.8830  145.3820 C   0  0  1  0  0  3  0  0  0  0  0  0
  197.1770  174.5760  144.8970 O   0  0  0  0  0  1  0  0  0  0  0  0
  196.3560  174.0040  145.8720 C   0  0  0  0  0  2  0  0  0  0  0  0
  194.3480  172.6010  145.5780 O   0  0  0  0  0  0  0  0  0  0  0  0
  195.3690  171.6360  145.5650 C   0  0  0  0  0  1  0  0  0  0  0  0
  1 17  1  0  0  0  0
  1 16  1  1  0  0  0
  2 17  1  0  0  0  0
  3  9  1  0  0  0  0
  3 13  1  0  0  0  0
  4 15  1  0  0  0  0
  4 17  1  0  0  0  0
  5  8  1  0  0  0  0
  6  4  1  0  0  0  0
  7  2  1  0  0  0  0
  8 28  1  0  0  0  0
  8 15  1  0  0  0  0
  9  1  1  0  0  0  0
 10  6  1  0  0  0  0
 10  9  1  0  0  0  0
 11 16  1  0  0  0  0
 12 14  1  0  0  0  0
 12  5  1  0  0  0  0
 13 11  1  0  0  0  0
 14  6  1  0  0  0  0
 15  7  1  0  0  0  0
 18 10  1  0  0  0  0
 19 18  1  0  0  0  0
 20 21  1  0  0  0  0
 21 19  1  0  0  0  0
 22 21  1  0  0  0  0
 22 24  1  0  0  0  0
 23 22  1  0  0  0  0
 25 26  1  0  0  0  0
 25 24  1  0  0  0  0
 27 26  1  0  0  0  0
 29 28  1  0  0  0  0
 30 33  1  0  0  0  0
 30 29  1  0  0  0  0
 30 32  1  0  0  0  0
 31 32  1  0  0  0  0
 34 33  1  0  0  0  0
M  END
>  <MODEL>
3

>  <REMARK>
 VINA RESULT:      -6.4      2.101      3.488
  Name = 
  12 active torsions:
  status: ('A' for Active; 'I' for Inactive)
    1  A    between atoms: N_3  and  C_16
    2  A    between atoms: N_3  and  C_19
    3  A    between atoms: C_5  and  C_11
    4  A    between atoms: C_5  and  C_19
    5  A    between atoms: C_8  and  O_12
    6  A    between atoms: C_8  and  C_16
    7  A    between atoms: C_11  and  C_20
    8  A    between atoms: N_17  and  C_28
    9  A    between atoms: C_28  and  C_29
   10  A    between atoms: C_29  and  C_32
   11  A    between atoms: O_31  and  C_32
   12  A    between atoms: C_32  and  C_34
                            x       y       z     vdW  Elec       q    Type
                         _______ _______ _______ _____ _____    ______ ____

>  <TORSDO>
F 12

$$$$
=
 OpenBabel11112418083D

 34 37  0  0  1  0  0  0  0  0999 V2000
  186.1090  177.7640  144.2600 C   0  0  2  0  0  3  0  0  0  0  0  0
  186.9900  177.4700  142.0340 O   0  0  0  0  0  0  0  0  0  0  0  0
  186.2730  178.4290  146.6560 C   0  0  0  0  0  2  0  0  0  0  0  0
  187.4170  175.6510  143.5100 C   0  0  2  0  0  3  0  0  0  0  0  0
  189.4420  173.6070  142.9730 C   0  0  0  0  0  2  0  0  0  0  0  0
  188.5400  176.0300  144.5110 C   0  0  1  0  0  3  0  0  0  0  0  0
  187.7870  176.5460  141.3300 C   0  0  0  0  0  2  0  0  0  0  0  0
  189.3280  174.7840  142.1180 N   0  0  0  0  0  0  0  0  0  0  0  0
  186.6250  177.3390  145.6380 C   0  0  2  0  0  3  0  0  0  0  0  0
  188.1390  177.1270  145.5310 C   0  0  1  0  0  3  0  0  0  0  0  0
  184.2360  179.0310  145.3350 C   0  0  0  0  0  2  0  0  0  0  0  0
  190.0460  174.0080  144.3100 C   0  0  0  0  0  2  0  0  0  0  0  0
  184.7610  178.6270  146.7100 C   0  0  0  0  0  2  0  0  0  0  0  0
  189.0330  174.7440  145.1770 C   0  0  0  0  0  2  0  0  0  0  0  0
  187.9380  175.2620  142.1370 C   0  0  1  0  0  3  0  0  0  0  0  0
  184.5960  177.9700  144.2980 C   0  0  0  0  0  2  0  0  0  0  0  0
  186.4710  176.7840  143.1420 C   0  0  1  0  0  3  0  0  0  0  0  0
  188.9010  177.1040  146.8660 C   0  0  0  0  0  2  0  0  0  0  0  0
  190.3770  177.4420  146.6950 C   0  0  0  0  0  2  0  0  0  0  0  0
  191.5110  177.3620  148.8050 O   0  0  0  0  0  1  0  0  0  0  0  0
  191.2190  176.6180  147.6540 C   0  0  2  0  0  3  0  0  0  0  0  0
  192.4420  176.1650  146.9880 N   0  0  0  0  0  0  0  0  0  0  0  0
  192.4540  174.8090  146.9730 O   0  0  0  0  0  1  0  0  0  0  0  0
  192.3960  176.6090  145.6020 C   0  0  0  0  0  2  0  0  0  0  0  0
  193.7970  176.9380  145.1130 C   0  0  0  0  0  2  0  0  0  0  0  0
  194.2230  175.9710  144.2020 O   0  0  0  0  0  0  0  0  0  0  0  0
  195.5880  175.8370  144.4490 C   0  0  0  0  0  1  0  0  0  0  0  0
  189.6230  174.3200  140.7690 C   0  0  0  0  0  2  0  0  0  0  0  0
  189.1680  172.8800  140.6110 C   0  0  0  0  0  2  0  0  0  0  0  0
  188.5080  172.6830  139.2460 C   0  0  1  0  0  3  0  0  0  0  0  0
  188.9200  173.9770  137.2460 O   0  0  0  0  0  1  0  0  0  0  0  0
  188.2730  173.9890  138.4830 C   0  0  0  0  0  2  0  0  0  0  0  0
  189.0780  171.6570  138.4570 O   0  0  0  0  0  0  0  0  0  0  0  0
  190.2050  171.1360  139.1140 C   0  0  0  0  0  1  0  0  0  0  0  0
  1 16  1  1  0  0  0
  1  9  1  0  0  0  0
  2 17  1  0  0  0  0
  3 13  1  0  0  0  0
  4  6  1  0  0  0  0
  5 12  1  0  0  0  0
  6 14  1  0  0  0  0
  6 10  1  0  0  0  0
  7  2  1  0  0  0  0
  7 15  1  0  0  0  0
  8 15  1  0  0  0  0
  8  5  1  0  0  0  0
  9  3  1  0  0  0  0
 10  9  1  0  0  0  0
 10 18  1  0  0  0  0
 11 13  1  0  0  0  0
 12 14  1  0  0  0  0
 15  4  1  0  0  0  0
 16 11  1  0  0  0  0
 17  4  1  0  0  0  0
 17  1  1  0  0  0  0
 19 18  1  0  0  0  0
 19 21  1  0  0  0  0
 21 20  1  0  0  0  0
 22 21  1  0  0  0  0
 23 22  1  0  0  0  0
 24 22  1  0  0  0  0
 25 24  1  0  0  0  0
 26 27  1  0  0  0  0
 26 25  1  0  0  0  0
 28  8  1  0  0  0  0
 29 28  1  0  0  0  0
 30 29  1  0  0  0  0
 31 32  1  0  0  0  0
 32 30  1  0  0  0  0
 33 34  1  0  0  0  0
 33 30  1  0  0  0  0
M  END
>  <MODEL>
4

>  <REMARK>
 VINA RESULT:      -6.1      2.055      6.098
  Name = 
  12 active torsions:
  status: ('A' for Active; 'I' for Inactive)
    1  A    between atoms: N_3  and  C_16
    2  A    between atoms: N_3  and  C_19
    3  A    between atoms: C_5  and  C_11
    4  A    between atoms: C_5  and  C_19
    5  A    between atoms: C_8  and  O_12
    6  A    between atoms: C_8  and  C_16
    7  A    between atoms: C_11  and  C_20
    8  A    between atoms: N_17  and  C_28
    9  A    between atoms: C_28  and  C_29
   10  A    between atoms: C_29  and  C_32
   11  A    between atoms: O_31  and  C_32
   12  A    between atoms: C_32  and  C_34
                            x       y       z     vdW  Elec       q    Type
                         _______ _______ _______ _____ _____    ______ ____

>  <TORSDO>
F 12

$$$$
=
 OpenBabel11112418083D

 34 37  0  0  1  0  0  0  0  0999 V2000
  190.5010  174.7320  145.6560 C   0  0  2  0  0  3  0  0  0  0  0  0
  189.7700  172.7620  144.4690 O   0  0  0  0  0  0  0  0  0  0  0  0
  190.1230  176.8080  146.9800 C   0  0  0  0  0  2  0  0  0  0  0  0
  189.7790  174.7530  143.1610 C   0  0  2  0  0  3  0  0  0  0  0  0
  188.3410  174.9960  140.6240 C   0  0  0  0  0  2  0  0  0  0  0  0
  188.5750  175.6500  143.5510 C   0  0  1  0  0  3  0  0  0  0  0  0
  189.2450  172.4280  143.2050 C   0  0  0  0  0  2  0  0  0  0  0  0
  188.1760  173.8130  141.4620 N   0  0  0  0  0  0  0  0  0  0  0  0
  190.0770  176.2010  145.5730 C   0  0  2  0  0  3  0  0  0  0  0  0
  188.6670  176.2540  144.9760 C   0  0  1  0  0  3  0  0  0  0  0  0
  191.9740  175.2480  147.6120 C   0  0  0  0  0  2  0  0  0  0  0  0
  187.6270  176.1750  141.2660 C   0  0  0  0  0  2  0  0  0  0  0  0
  191.5360  176.7090  147.5470 C   0  0  0  0  0  2  0  0  0  0  0  0
  188.4050  176.7100  142.4610 C   0  0  0  0  0  2  0  0  0  0  0  0
  189.4030  173.6010  142.2450 C   0  0  1  0  0  3  0  0  0  0  0  0
  191.9130  174.6140  146.2250 C   0  0  0  0  0  2  0  0  0  0  0  0
  190.4200  173.9960  144.3160 C   0  0  1  0  0  3  0  0  0  0  0  0
  187.9050  177.5720  145.1900 C   0  0  0  0  0  2  0  0  0  0  0  0
  186.6500  177.3840  146.0330 C   0  0  0  0  0  2  0  0  0  0  0  0
  185.3850  178.9540  147.3280 O   0  0  0  0  0  1  0  0  0  0  0  0
  185.8210  178.6570  146.0310 C   0  0  2  0  0  3  0  0  0  0  0  0
  184.6920  178.5190  145.1080 N   0  0  0  0  0  0  0  0  0  0  0  0
  183.5540  178.8730  145.7550 O   0  0  0  0  0  1  0  0  0  0  0  0
  184.8780  179.4650  144.0170 C   0  0  0  0  0  2  0  0  0  0  0  0
  185.2570  178.7260  142.7440 C   0  0  0  0  0  2  0  0  0  0  0  0
  184.1160  178.1990  142.1400 O   0  0  0  0  0  0  0  0  0  0  0  0
  184.3680  178.2950  140.7720 C   0  0  0  0  0  1  0  0  0  0  0  0
  188.0360  172.6940  140.5390 C   0  0  0  0  0  2  0  0  0  0  0  0
  188.4640  173.1210  139.1460 C   0  0  0  0  0  2  0  0  0  0  0  0
  189.5660  172.1970  138.6270 C   0  0  1  0  0  3  0  0  0  0  0  0
  190.2360  174.1400  137.3540 O   0  0  0  0  0  1  0  0  0  0  0  0
  190.6890  172.9340  137.8920 C   0  0  0  0  0  2  0  0  0  0  0  0
  190.0280  171.2450  139.5650 O   0  0  0  0  0  0  0  0  0  0  0  0
  191.4250  171.3380  139.6750 C   0  0  0  0  0  1  0  0  0  0  0  0
  1 16  1  6  0  0  0
  3 13  1  0  0  0  0
  4  6  1  0  0  0  0
  4 17  1  0  0  0  0
  5 12  1  0  0  0  0
  5  8  1  0  0  0  0
  6 10  1  0  0  0  0
  7  2  1  0  0  0  0
  8 15  1  0  0  0  0
  9  1  1  0  0  0  0
  9  3  1  0  0  0  0
 10 18  1  0  0  0  0
 10  9  1  0  0  0  0
 12 14  1  0  0  0  0
 13 11  1  0  0  0  0
 14  6  1  0  0  0  0
 15  4  1  0  0  0  0
 15  7  1  0  0  0  0
 16 11  1  0  0  0  0
 17  2  1  0  0  0  0
 17  1  1  0  0  0  0
 18 19  1  0  0  0  0
 21 19  1  0  0  0  0
 21 20  1  0  0  0  0
 22 23  1  0  0  0  0
 22 21  1  0  0  0  0
 24 22  1  0  0  0  0
 25 24  1  0  0  0  0
 26 25  1  0  0  0  0
 27 26  1  0  0  0  0
 28  8  1  0  0  0  0
 29 28  1  0  0  0  0
 30 29  1  0  0  0  0
 30 33  1  0  0  0  0
 31 32  1  0  0  0  0
 32 30  1  0  0  0  0
 33 34  1  0  0  0  0
M  END
>  <MODEL>
5

>  <REMARK>
 VINA RESULT:      -6.1      2.881      6.626
  Name = 
  12 active torsions:
  status: ('A' for Active; 'I' for Inactive)
    1  A    between atoms: N_3  and  C_16
    2  A    between atoms: N_3  and  C_19
    3  A    between atoms: C_5  and  C_11
    4  A    between atoms: C_5  and  C_19
    5  A    between atoms: C_8  and  O_12
    6  A    between atoms: C_8  and  C_16
    7  A    between atoms: C_11  and  C_20
    8  A    between atoms: N_17  and  C_28
    9  A    between atoms: C_28  and  C_29
   10  A    between atoms: C_29  and  C_32
   11  A    between atoms: O_31  and  C_32
   12  A    between atoms: C_32  and  C_34
                            x       y       z     vdW  Elec       q    Type
                         _______ _______ _______ _____ _____    ______ ____

>  <TORSDO>
F 12

$$$$
=
 OpenBabel11112418083D

 34 37  0  0  1  0  0  0  0  0999 V2000
  191.3250  174.5660  144.9560 C   0  0  2  0  0  3  0  0  0  0  0  0
  190.5620  172.6670  143.6770 O   0  0  0  0  0  0  0  0  0  0  0  0
  191.0250  176.4190  146.5950 C   0  0  0  0  0  2  0  0  0  0  0  0
  190.1100  174.7780  142.6710 C   0  0  2  0  0  3  0  0  0  0  0  0
  188.1670  175.1270  140.5100 C   0  0  0  0  0  2  0  0  0  0  0  0
  188.9290  175.4720  143.3990 C   0  0  1  0  0  3  0  0  0  0  0  0
  189.8250  172.4160  142.5030 C   0  0  0  0  0  2  0  0  0  0  0  0
  188.2930  173.8460  141.1980 N   0  0  0  0  0  0  0  0  0  0  0  0
  190.7520  175.9720  145.1540 C   0  0  2  0  0  3  0  0  0  0  0  0
  189.2510  175.9200  144.8490 C   0  0  1  0  0  3  0  0  0  0  0  0
  193.1090  175.0360  146.6470 C   0  0  0  0  0  2  0  0  0  0  0  0
  187.4880  176.1310  141.4280 C   0  0  0  0  0  2  0  0  0  0  0  0
  192.5270  176.4300  146.8630 C   0  0  0  0  0  2  0  0  0  0  0  0
  188.4380  176.6190  142.5150 C   0  0  0  0  0  2  0  0  0  0  0  0
  189.6680  173.7000  141.6970 C   0  0  1  0  0  3  0  0  0  0  0  0
  192.8280  174.5590  145.2250 C   0  0  0  0  0  2  0  0  0  0  0  0
  191.0430  173.9810  143.5700 C   0  0  1  0  0  3  0  0  0  0  0  0
  188.4250  177.1020  145.3790 C   0  0  0  0  0  2  0  0  0  0  0  0
  187.0660  176.6660  145.9120 C   0  0  0  0  0  2  0  0  0  0  0  0
  185.9540  177.5570  147.8380 O   0  0  0  0  0  1  0  0  0  0  0  0
  186.3370  177.8500  146.5230 C   0  0  2  0  0  3  0  0  0  0  0  0
  185.1800  178.2070  145.6980 N   0  0  0  0  0  0  0  0  0  0  0  0
  184.1480  178.5370  146.5140 O   0  0  0  0  0  1  0  0  0  0  0  0
  185.5190  179.3980  144.9310 C   0  0  0  0  0  2  0  0  0  0  0  0
  185.5610  179.0690  143.4480 C   0  0  0  0  0  2  0  0  0  0  0  0
  184.8870  177.8720  143.2050 O   0  0  0  0  0  0  0  0  0  0  0  0
  184.0910  178.1390  142.0920 C   0  0  0  0  0  1  0  0  0  0  0  0
  188.0770  172.8300  140.1770 C   0  0  0  0  0  2  0  0  0  0  0  0
  188.4240  173.3920  138.8100 C   0  0  0  0  0  2  0  0  0  0  0  0
  189.6150  172.6380  138.2170 C   0  0  1  0  0  3  0  0  0  0  0  0
  189.5750  170.2610  137.7780 O   0  0  0  0  0  1  0  0  0  0  0  0
  189.7830  171.2220  138.7710 C   0  0  0  0  0  2  0  0  0  0  0  0
  189.7190  172.7160  136.8090 O   0  0  0  0  0  0  0  0  0  0  0  0
  189.9200  174.0530  136.4280 C   0  0  0  0  0  1  0  0  0  0  0  0
  1  9  1  0  0  0  0
  1 16  1  6  0  0  0
  3 13  1  0  0  0  0
  4  6  1  0  0  0  0
  4 17  1  0  0  0  0
  5  8  1  0  0  0  0
  5 12  1  0  0  0  0
  6 10  1  0  0  0  0
  7  2  1  0  0  0  0
  8 15  1  0  0  0  0
  9  3  1  0  0  0  0
 10  9  1  0  0  0  0
 10 18  1  0  0  0  0
 11 13  1  0  0  0  0
 12 14  1  0  0  0  0
 14  6  1  0  0  0  0
 15  7  1  0  0  0  0
 15  4  1  0  0  0  0
 16 11  1  0  0  0  0
 17  2  1  0  0  0  0
 17  1  1  0  0  0  0
 18 19  1  0  0  0  0
 19 21  1  0  0  0  0
 21 20  1  0  0  0  0
 22 23  1  0  0  0  0
 22 21  1  0  0  0  0
 24 22  1  0  0  0  0
 25 24  1  0  0  0  0
 26 25  1  0  0  0  0
 27 26  1  0  0  0  0
 28  8  1  0  0  0  0
 29 28  1  0  0  0  0
 30 32  1  0  0  0  0
 30 29  1  0  0  0  0
 31 32  1  0  0  0  0
 33 30  1  0  0  0  0
 34 33  1  0  0  0  0
M  END
>  <MODEL>
6

>  <REMARK>
 VINA RESULT:      -5.9      2.827      6.974
  Name = 
  12 active torsions:
  status: ('A' for Active; 'I' for Inactive)
    1  A    between atoms: N_3  and  C_16
    2  A    between atoms: N_3  and  C_19
    3  A    between atoms: C_5  and  C_11
    4  A    between atoms: C_5  and  C_19
    5  A    between atoms: C_8  and  O_12
    6  A    between atoms: C_8  and  C_16
    7  A    between atoms: C_11  and  C_20
    8  A    between atoms: N_17  and  C_28
    9  A    between atoms: C_28  and  C_29
   10  A    between atoms: C_29  and  C_32
   11  A    between atoms: O_31  and  C_32
   12  A    between atoms: C_32  and  C_34
                            x       y       z     vdW  Elec       q    Type
                         _______ _______ _______ _____ _____    ______ ____

>  <TORSDO>
F 12

$$$$
=
 OpenBabel11112418083D

 34 37  0  0  1  0  0  0  0  0999 V2000
  186.5930  177.6200  145.5540 C   0  0  2  0  0  3  0  0  0  0  0  0
  188.1610  176.5960  147.0750 O   0  0  0  0  0  0  0  0  0  0  0  0
  185.1480  177.6520  143.5250 C   0  0  0  0  0  2  0  0  0  0  0  0
  189.1640  177.6600  145.1950 C   0  0  2  0  0  3  0  0  0  0  0  0
  191.9230  177.1480  144.3630 C   0  0  0  0  0  2  0  0  0  0  0  0
  188.9690  176.7910  143.9260 C   0  0  1  0  0  3  0  0  0  0  0  0
  189.5460  176.3530  147.1540 C   0  0  0  0  0  2  0  0  0  0  0  0
  191.3070  176.3560  145.4220 N   0  0  0  0  0  0  0  0  0  0  0  0
  186.5890  177.7800  144.0310 C   0  0  2  0  0  3  0  0  0  0  0  0
  187.4990  176.6980  143.4390 C   0  0  1  0  0  3  0  0  0  0  0  0
  184.2880  178.5890  145.6790 C   0  0  0  0  0  2  0  0  0  0  0  0
  191.3300  176.7490  143.0200 C   0  0  0  0  0  2  0  0  0  0  0  0
  184.2720  178.7280  144.1590 C   0  0  0  0  0  2  0  0  0  0  0  0
  189.9240  177.3080  142.8480 C   0  0  0  0  0  2  0  0  0  0  0  0
  190.2830  177.1670  146.0970 C   0  0  1  0  0  3  0  0  0  0  0  0
  185.7170  178.6890  146.2050 C   0  0  0  0  0  2  0  0  0  0  0  0
  187.9940  177.6530  146.1680 C   0  0  1  0  0  3  0  0  0  0  0  0
  187.3110  176.4210  141.9390 C   0  0  0  0  0  2  0  0  0  0  0  0
  187.4410  174.9410  141.6030 C   0  0  0  0  0  2  0  0  0  0  0  0
  187.8250  175.0640  139.2410 O   0  0  0  0  0  1  0  0  0  0  0  0
  188.4280  174.7450  140.4650 C   0  0  2  0  0  3  0  0  0  0  0  0
  188.9330  173.3710  140.4680 N   0  0  0  0  0  0  0  0  0  0  0  0
  188.4720  172.7400  141.5770 O   0  0  0  0  0  1  0  0  0  0  0  0
  188.3740  172.6780  139.3160 C   0  0  0  0  0  2  0  0  0  0  0  0
  189.4470  171.8400  138.6400 C   0  0  0  0  0  2  0  0  0  0  0  0
  190.6410  172.5590  138.5710 O   0  0  0  0  0  0  0  0  0  0  0  0
  191.1880  172.2100  137.3370 C   0  0  0  0  0  1  0  0  0  0  0  0
  192.3700  176.0890  146.3820 C   0  0  0  0  0  2  0  0  0  0  0  0
  192.7510  174.6200  146.3300 C   0  0  0  0  0  2  0  0  0  0  0  0
  194.0800  174.4460  145.5930 C   0  0  1  0  0  3  0  0  0  0  0  0
  195.2970  176.2600  144.5570 O   0  0  0  0  0  1  0  0  0  0  0  0
  195.0410  175.6230  145.7730 C   0  0  0  0  0  2  0  0  0  0  0  0
  194.6890  173.1820  145.7650 O   0  0  0  0  0  0  0  0  0  0  0  0
  193.8490  172.1840  145.2440 C   0  0  0  0  0  1  0  0  0  0  0  0
  1 17  1  0  0  0  0
  1 16  1  1  0  0  0
  2  7  1  0  0  0  0
  3  9  1  0  0  0  0
  3 13  1  0  0  0  0
  4 15  1  0  0  0  0
  4 17  1  0  0  0  0
  5  8  1  0  0  0  0
  6  4  1  0  0  0  0
  8 15  1  0  0  0  0
  8 28  1  0  0  0  0
  9  1  1  0  0  0  0
 10  6  1  0  0  0  0
 10  9  1  0  0  0  0
 11 16  1  0  0  0  0
 12  5  1  0  0  0  0
 13 11  1  0  0  0  0
 14 12  1  0  0  0  0
 14  6  1  0  0  0  0
 15  7  1  0  0  0  0
 17  2  1  0  0  0  0
 18 10  1  0  0  0  0
 19 18  1  0  0  0  0
 20 21  1  0  0  0  0
 21 22  1  0  0  0  0
 21 19  1  0  0  0  0
 22 23  1  0  0  0  0
 24 22  1  0  0  0  0
 25 24  1  0  0  0  0
 26 25  1  0  0  0  0
 27 26  1  0  0  0  0
 29 28  1  0  0  0  0
 30 33  1  0  0  0  0
 30 32  1  0  0  0  0
 30 29  1  0  0  0  0
 31 32  1  0  0  0  0
 34 33  1  0  0  0  0
M  END
>  <MODEL>
7

>  <REMARK>
 VINA RESULT:      -5.9      1.770      2.426
  Name = 
  12 active torsions:
  status: ('A' for Active; 'I' for Inactive)
    1  A    between atoms: N_3  and  C_16
    2  A    between atoms: N_3  and  C_19
    3  A    between atoms: C_5  and  C_11
    4  A    between atoms: C_5  and  C_19
    5  A    between atoms: C_8  and  O_12
    6  A    between atoms: C_8  and  C_16
    7  A    between atoms: C_11  and  C_20
    8  A    between atoms: N_17  and  C_28
    9  A    between atoms: C_28  and  C_29
   10  A    between atoms: C_29  and  C_32
   11  A    between atoms: O_31  and  C_32
   12  A    between atoms: C_32  and  C_34
                            x       y       z     vdW  Elec       q    Type
                         _______ _______ _______ _____ _____    ______ ____

>  <TORSDO>
F 12

$$$$
=
 OpenBabel11112418083D

 34 37  0  0  1  0  0  0  0  0999 V2000
  185.7260  178.1610  145.0500 C   0  0  2  0  0  3  0  0  0  0  0  0
  185.3350  178.9850  142.8160 O   0  0  0  0  0  0  0  0  0  0  0  0
  187.1340  177.7620  147.0670 C   0  0  0  0  0  2  0  0  0  0  0  0
  186.2870  176.8040  142.9090 C   0  0  2  0  0  3  0  0  0  0  0  0
  187.5770  175.5320  140.6110 C   0  0  0  0  0  2  0  0  0  0  0  0
  187.7890  176.8950  143.2830 C   0  0  1  0  0  3  0  0  0  0  0  0
  185.5830  178.5860  141.4880 C   0  0  0  0  0  2  0  0  0  0  0  0
  187.1510  176.9260  140.5470 N   0  0  0  0  0  0  0  0  0  0  0  0
  186.8280  177.2790  145.6450 C   0  0  2  0  0  3  0  0  0  0  0  0
  188.0560  177.3750  144.7340 C   0  0  1  0  0  3  0  0  0  0  0  0
  184.7700  178.5370  147.3330 C   0  0  0  0  0  2  0  0  0  0  0  0
  188.8050  175.4160  141.5000 C   0  0  0  0  0  2  0  0  0  0  0  0
  185.8800  177.6760  147.9310 C   0  0  0  0  0  2  0  0  0  0  0  0
  188.4360  175.5440  142.9720 C   0  0  0  0  0  2  0  0  0  0  0  0
  186.0080  177.1220  141.4510 C   0  0  1  0  0  3  0  0  0  0  0  0
  184.4640  178.0890  145.9060 C   0  0  0  0  0  2  0  0  0  0  0  0
  185.3880  177.8200  143.5970 C   0  0  1  0  0  3  0  0  0  0  0  0
  189.3820  176.9090  145.3560 C   0  0  0  0  0  2  0  0  0  0  0  0
  190.5900  177.5730  144.7070 C   0  0  0  0  0  2  0  0  0  0  0  0
  191.2500  175.2740  144.5540 O   0  0  0  0  0  1  0  0  0  0  0  0
  191.7400  176.5860  144.6060 C   0  0  2  0  0  3  0  0  0  0  0  0
  192.6580  176.7680  145.7320 N   0  0  0  0  0  0  0  0  0  0  0  0
  192.3350  175.8810  146.7070 O   0  0  0  0  0  1  0  0  0  0  0  0
  194.0030  176.4390  145.2810 C   0  0  0  0  0  2  0  0  0  0  0  0
  194.4350  175.1020  145.8600 C   0  0  0  0  0  2  0  0  0  0  0  0
  194.2960  174.0980  144.9020 O   0  0  0  0  0  0  0  0  0  0  0  0
  195.1790  173.1000  145.3090 C   0  0  0  0  0  1  0  0  0  0  0  0
  186.6830  177.1310  139.1830 C   0  0  0  0  0  2  0  0  0  0  0  0
  186.9920  175.9050  138.3430 C   0  0  0  0  0  2  0  0  0  0  0  0
  186.7140  176.1930  136.8670 C   0  0  1  0  0  3  0  0  0  0  0  0
  188.6570  174.7910  136.5410 O   0  0  0  0  0  1  0  0  0  0  0  0
  187.8410  175.7470  135.9320 C   0  0  0  0  0  2  0  0  0  0  0  0
  185.4250  175.8160  136.4260 O   0  0  0  0  0  0  0  0  0  0  0  0
  185.3020  176.0910  135.0540 C   0  0  0  0  0  1  0  0  0  0  0  0
  1  9  1  0  0  0  0
  1 16  1  1  0  0  0
  2 17  1  0  0  0  0
  3 13  1  0  0  0  0
  4  6  1  0  0  0  0
  4 17  1  0  0  0  0
  5 12  1  0  0  0  0
  6 10  1  0  0  0  0
  7  2  1  0  0  0  0
  8  5  1  0  0  0  0
  8 15  1  0  0  0  0
  9  3  1  0  0  0  0
 10 18  1  0  0  0  0
 10  9  1  0  0  0  0
 11 13  1  0  0  0  0
 12 14  1  0  0  0  0
 14  6  1  0  0  0  0
 15  7  1  0  0  0  0
 15  4  1  0  0  0  0
 16 11  1  0  0  0  0
 17  1  1  0  0  0  0
 19 18  1  0  0  0  0
 20 21  1  0  0  0  0
 21 19  1  0  0  0  0
 21 22  1  0  0  0  0
 22 23  1  0  0  0  0
 24 22  1  0  0  0  0
 24 25  1  0  0  0  0
 26 27  1  0  0  0  0
 26 25  1  0  0  0  0
 28  8  1  0  0  0  0
 29 28  1  0  0  0  0
 30 29  1  0  0  0  0
 32 31  1  0  0  0  0
 32 30  1  0  0  0  0
 33 30  1  0  0  0  0
 34 33  1  0  0  0  0
M  END
>  <MODEL>
8

>  <REMARK>
 VINA RESULT:      -5.8      2.611      6.931
  Name = 
  12 active torsions:
  status: ('A' for Active; 'I' for Inactive)
    1  A    between atoms: N_3  and  C_16
    2  A    between atoms: N_3  and  C_19
    3  A    between atoms: C_5  and  C_11
    4  A    between atoms: C_5  and  C_19
    5  A    between atoms: C_8  and  O_12
    6  A    between atoms: C_8  and  C_16
    7  A    between atoms: C_11  and  C_20
    8  A    between atoms: N_17  and  C_28
    9  A    between atoms: C_28  and  C_29
   10  A    between atoms: C_29  and  C_32
   11  A    between atoms: O_31  and  C_32
   12  A    between atoms: C_32  and  C_34
                            x       y       z     vdW  Elec       q    Type
                         _______ _______ _______ _____ _____    ______ ____

>  <TORSDO>
F 12

$$$$
=
 OpenBabel11112418083D

 34 37  0  0  1  0  0  0  0  0999 V2000
  186.8050  177.3920  144.5650 C   0  0  2  0  0  3  0  0  0  0  0  0
  187.0750  177.3600  142.1670 O   0  0  0  0  0  0  0  0  0  0  0  0
  187.6330  177.6450  146.9010 C   0  0  0  0  0  2  0  0  0  0  0  0
  187.5710  175.2930  143.2420 C   0  0  2  0  0  3  0  0  0  0  0  0
  189.0850  173.1500  141.9460 C   0  0  0  0  0  2  0  0  0  0  0  0
  188.9440  175.3820  143.9580 C   0  0  1  0  0  3  0  0  0  0  0  0
  187.5350  176.4770  141.1710 C   0  0  0  0  0  2  0  0  0  0  0  0
  188.9450  174.4530  141.3060 N   0  0  0  0  0  0  0  0  0  0  0  0
  187.5680  176.6980  145.6970 C   0  0  2  0  0  3  0  0  0  0  0  0
  188.9640  176.3400  145.1770 C   0  0  1  0  0  3  0  0  0  0  0  0
  185.4510  178.6700  146.2370 C   0  0  0  0  0  2  0  0  0  0  0  0
  190.0440  173.2630  143.1220 C   0  0  0  0  0  2  0  0  0  0  0  0
  186.2240  177.9970  147.3680 C   0  0  0  0  0  2  0  0  0  0  0  0
  189.3870  173.9600  144.3070 C   0  0  0  0  0  2  0  0  0  0  0  0
  187.6850  175.0720  141.7430 C   0  0  1  0  0  3  0  0  0  0  0  0
  185.3920  177.7550  145.0170 C   0  0  0  0  0  2  0  0  0  0  0  0
  186.7410  176.5680  143.2760 C   0  0  1  0  0  3  0  0  0  0  0  0
  190.0120  176.0210  146.2560 C   0  0  0  0  0  2  0  0  0  0  0  0
  191.2730  176.8620  146.1040 C   0  0  0  0  0  2  0  0  0  0  0  0
  192.6140  175.0030  146.8010 O   0  0  0  0  0  1  0  0  0  0  0  0
  192.4650  175.9710  145.8000 C   0  0  2  0  0  3  0  0  0  0  0  0
  193.6750  176.7830  145.6590 N   0  0  0  0  0  0  0  0  0  0  0  0
  194.1280  177.1110  146.8950 O   0  0  0  0  0  1  0  0  0  0  0  0
  194.7020  175.9650  145.0290 C   0  0  0  0  0  2  0  0  0  0  0  0
  194.3720  175.7510  143.5610 C   0  0  0  0  0  2  0  0  0  0  0  0
  195.3180  176.3900  142.7610 O   0  0  0  0  0  0  0  0  0  0  0  0
  196.4920  176.3550  143.5110 C   0  0  0  0  0  1  0  0  0  0  0  0
  188.8370  174.1790  139.8790 C   0  0  0  0  0  2  0  0  0  0  0  0
  188.5520  172.7050  139.6590 C   0  0  0  0  0  2  0  0  0  0  0  0
  189.2800  172.2080  138.4090 C   0  0  1  0  0  3  0  0  0  0  0  0
  190.8080  172.7960  136.6310 O   0  0  0  0  0  1  0  0  0  0  0  0
  190.3420  173.1800  137.8900 C   0  0  0  0  0  2  0  0  0  0  0  0
  189.7210  170.8660  138.4780 O   0  0  0  0  0  0  0  0  0  0  0  0
  190.5830  170.7130  139.5760 C   0  0  0  0  0  1  0  0  0  0  0  0
  1 16  1  1  0  0  0
  1  9  1  0  0  0  0
  2 17  1  0  0  0  0
  3 13  1  0  0  0  0
  4 17  1  0  0  0  0
  4  6  1  0  0  0  0
  5 12  1  0  0  0  0
  6 14  1  0  0  0  0
  6 10  1  0  0  0  0
  7 15  1  0  0  0  0
  7  2  1  0  0  0  0
  8 15  1  0  0  0  0
  8  5  1  0  0  0  0
  9  3  1  0  0  0  0
 10  9  1  0  0  0  0
 10 18  1  0  0  0  0
 11 13  1  0  0  0  0
 12 14  1  0  0  0  0
 15  4  1  0  0  0  0
 16 11  1  0  0  0  0
 17  1  1  0  0  0  0
 19 18  1  0  0  0  0
 21 19  1  0  0  0  0
 21 20  1  0  0  0  0
 22 21  1  0  0  0  0
 22 23  1  0  0  0  0
 24 22  1  0  0  0  0
 25 24  1  0  0  0  0
 26 27  1  0  0  0  0
 26 25  1  0  0  0  0
 28  8  1  0  0  0  0
 29 28  1  0  0  0  0
 30 33  1  0  0  0  0
 30 29  1  0  0  0  0
 31 32  1  0  0  0  0
 32 30  1  0  0  0  0
 33 34  1  0  0  0  0
M  END
>  <MODEL>
9

>  <REMARK>
 VINA RESULT:      -5.6      2.297      6.249
  Name = 
  12 active torsions:
  status: ('A' for Active; 'I' for Inactive)
    1  A    between atoms: N_3  and  C_16
    2  A    between atoms: N_3  and  C_19
    3  A    between atoms: C_5  and  C_11
    4  A    between atoms: C_5  and  C_19
    5  A    between atoms: C_8  and  O_12
    6  A    between atoms: C_8  and  C_16
    7  A    between atoms: C_11  and  C_20
    8  A    between atoms: N_17  and  C_28
    9  A    between atoms: C_28  and  C_29
   10  A    between atoms: C_29  and  C_32
   11  A    between atoms: O_31  and  C_32
   12  A    between atoms: C_32  and  C_34
                            x       y       z     vdW  Elec       q    Type
                         _______ _______ _______ _____ _____    ______ ____

>  <TORSDO>
F 12

$$$$
