=
 OpenBabel11112417013D

 31 35  0  0  1  0  0  0  0  0999 V2000
  184.6630  178.2510  146.6060 C   0  0  0  0  0  0  0  0  0  0  0  0
  187.2970  176.1970  144.7900 C   0  0  2  0  0  3  0  0  0  0  0  0
  187.5680  176.9300  143.4560 C   0  0  2  0  0  3  0  0  0  0  0  0
  186.5480  177.9270  141.3980 C   0  0  2  0  0  3  0  0  0  0  0  0
  186.6530  177.1140  145.8030 C   0  0  0  0  0  0  0  0  0  0  0  0
  185.4200  178.8950  147.5860 C   0  0  0  0  0  3  0  0  0  0  0  0
  186.2630  177.3860  142.7900 C   0  0  0  0  0  2  0  0  0  0  0  0
  189.5200  176.6720  145.8870 C   0  0  2  0  0  3  0  0  0  0  0  0
  183.3330  178.4910  146.5100 F   0  0  0  0  0  0  0  0  0  0  0  0
  189.6270  175.4020  143.0760 C   0  0  0  0  0  2  0  0  0  0  0  0
  185.3710  178.4210  140.8390 O   0  0  0  0  0  1  0  0  0  0  0  0
  188.8620  177.4290  147.0420 C   0  0  0  0  0  2  0  0  0  0  0  0
  188.5820  175.5710  145.3730 C   0  0  2  0  0  3  0  0  0  0  0  0
  185.2770  177.3650  145.7190 C   0  0  0  0  0  3  0  0  0  0  0  0
  187.0840  176.7930  140.5330 C   0  0  0  0  0  2  0  0  0  0  0  0
  187.4170  177.7640  146.8000 C   0  0  0  0  0  0  0  0  0  0  0  0
  186.7890  178.6440  147.6880 C   0  0  0  0  0  3  0  0  0  0  0  0
  189.2550  174.6490  144.3490 C   0  0  0  0  0  2  0  0  0  0  0  0
  188.4200  176.0840  142.5220 C   0  0  0  0  0  0  0  0  0  0  0  0
  188.2500  176.1050  141.1890 C   0  0  0  0  0  3  0  0  0  0  0  0
  192.0850  177.2180  144.7660 O   0  0  0  0  0  0  0  0  0  0  0  0
  192.0320  176.4210  145.7430 C   0  0  0  0  0  0  0  0  0  0  0  0
  190.7790  176.0970  146.3440 N   0  0  0  0  0  2  0  0  0  0  0  0
  195.5660  176.1910  144.5520 C   0  0  1  0  0  3  0  0  0  0  0  0
  194.3860  176.8270  146.5190 C   0  0  0  0  0  2  0  0  0  0  0  0
  192.7930  173.7550  145.0600 O   0  0  0  0  0  1  0  0  0  0  0  0
  196.2100  176.6620  143.4090 O   0  0  0  0  0  1  0  0  0  0  0  0
  194.9350  177.3100  145.2510 N   0  0  0  0  0  2  0  0  0  0  0  0
  193.8150  174.6410  145.4060 C   0  0  2  0  0  3  0  0  0  0  0  0
  193.2830  175.7890  146.2800 C   0  0  2  0  0  3  0  0  0  0  0  0
  194.5120  175.1630  144.1520 C   0  0  0  0  0  2  0  0  0  0  0  0
  1  6  1  0  0  0  0
  2 13  1  0  0  0  0
  2  5  1  1  0  0  0
  3  7  1  6  0  0  0
  3  2  1  0  0  0  0
  4 11  1  6  0  0  0
  4  7  1  0  0  0  0
  5 16  2  0  0  0  0
  6 17  2  0  0  0  0
  8 23  1  1  0  0  0
  8 12  1  0  0  0  0
  9  1  1  0  0  0  0
 10 18  1  0  0  0  0
 13 18  1  6  0  0  0
 13  8  1  0  0  0  0
 14  5  1  0  0  0  0
 14  1  2  0  0  0  0
 15 20  1  0  0  0  0
 15  4  1  0  0  0  0
 16 12  1  0  0  0  0
 16 17  1  0  0  0  0
 19 10  1  0  0  0  0
 19  3  1  0  0  0  0
 20 19  2  0  0  0  0
 21 22  2  0  0  0  0
 22 23  1  0  0  0  0
 24 27  1  6  0  0  0
 24 28  1  0  0  0  0
 28 25  1  0  0  0  0
 29 26  1  6  0  0  0
 29 30  1  0  0  0  0
 30 22  1  6  0  0  0
 30 25  1  0  0  0  0
 31 24  1  0  0  0  0
 31 29  1  0  0  0  0
M  END
>  <MODEL>
1

>  <REMARK>
 VINA RESULT:      -9.5      0.000      0.000
  Name = 
  2 active torsions:
  status: ('A' for Active; 'I' for Inactive)
    1  A    between atoms: C_5  and  C_30
    2  A    between atoms: C_10  and  N_16
                            x       y       z     vdW  Elec       q    Type
                         _______ _______ _______ _____ _____    ______ ____

>  <TORSDO>
F 2

$$$$
=
 OpenBabel11112417013D

 31 35  0  0  1  0  0  0  0  0999 V2000
  184.6910  177.8320  146.7140 C   0  0  0  0  0  0  0  0  0  0  0  0
  187.1570  176.3120  144.2510 C   0  0  2  0  0  3  0  0  0  0  0  0
  187.1130  177.2080  142.9920 C   0  0  2  0  0  3  0  0  0  0  0  0
  185.6500  178.2840  141.2680 C   0  0  2  0  0  3  0  0  0  0  0  0
  186.6130  177.0340  145.4620 C   0  0  0  0  0  0  0  0  0  0  0  0
  185.5400  178.4570  147.6280 C   0  0  0  0  0  3  0  0  0  0  0  0
  185.6720  177.5700  142.6100 C   0  0  0  0  0  2  0  0  0  0  0  0
  189.4800  176.9360  145.0200 C   0  0  2  0  0  3  0  0  0  0  0  0
  183.3480  177.9180  146.8670 F   0  0  0  0  0  0  0  0  0  0  0  0
  189.2170  175.9880  142.0950 C   0  0  0  0  0  2  0  0  0  0  0  0
  184.3490  178.6880  140.9740 O   0  0  0  0  0  1  0  0  0  0  0  0
  188.9620  177.4830  146.3510 C   0  0  0  0  0  2  0  0  0  0  0  0
  188.5810  175.7890  144.5340 C   0  0  2  0  0  3  0  0  0  0  0  0
  185.2260  177.1240  145.6360 C   0  0  0  0  0  3  0  0  0  0  0  0
  186.1370  177.3200  140.1940 C   0  0  0  0  0  2  0  0  0  0  0  0
  187.4710  177.6640  146.3930 C   0  0  0  0  0  0  0  0  0  0  0  0
  186.9240  178.3640  147.4730 C   0  0  0  0  0  3  0  0  0  0  0  0
  189.1540  175.0670  143.3080 C   0  0  0  0  0  2  0  0  0  0  0  0
  187.8680  176.5740  141.8340 C   0  0  0  0  0  0  0  0  0  0  0  0
  187.4650  176.7130  140.5600 C   0  0  0  0  0  3  0  0  0  0  0  0
  191.7730  178.0820  143.7720 O   0  0  0  0  0  0  0  0  0  0  0  0
  191.9570  177.0990  144.5420 C   0  0  0  0  0  0  0  0  0  0  0  0
  190.8510  176.4730  145.1900 N   0  0  0  0  0  2  0  0  0  0  0  0
  193.4030  173.6760  144.9240 C   0  0  1  0  0  3  0  0  0  0  0  0
  193.7910  175.6410  143.6390 C   0  0  0  0  0  2  0  0  0  0  0  0
  192.9660  176.6170  147.1690 O   0  0  0  0  0  1  0  0  0  0  0  0
  192.8330  172.4040  144.9150 O   0  0  0  0  0  1  0  0  0  0  0  0
  193.0720  174.3660  143.6790 N   0  0  0  0  0  2  0  0  0  0  0  0
  193.4990  175.8520  146.1310 C   0  0  2  0  0  3  0  0  0  0  0  0
  193.3390  176.5620  144.7770 C   0  0  2  0  0  3  0  0  0  0  0  0
  192.8670  174.4620  146.1170 C   0  0  0  0  0  2  0  0  0  0  0  0
  1  9  1  0  0  0  0
  1  6  1  0  0  0  0
  2 13  1  0  0  0  0
  2  5  1  1  0  0  0
  3  7  1  6  0  0  0
  3  2  1  0  0  0  0
  4 11  1  6  0  0  0
  4  7  1  0  0  0  0
  5 14  1  0  0  0  0
  5 16  2  0  0  0  0
  8 23  1  1  0  0  0
  8 12  1  0  0  0  0
 10 18  1  0  0  0  0
 12 16  1  0  0  0  0
 13 18  1  6  0  0  0
 13  8  1  0  0  0  0
 14  1  2  0  0  0  0
 15 20  1  0  0  0  0
 15  4  1  0  0  0  0
 16 17  1  0  0  0  0
 17  6  2  0  0  0  0
 19 10  1  0  0  0  0
 19  3  1  0  0  0  0
 20 19  2  0  0  0  0
 21 22  2  0  0  0  0
 22 23  1  0  0  0  0
 24 27  1  6  0  0  0
 24 31  1  0  0  0  0
 25 28  1  0  0  0  0
 25 30  1  0  0  0  0
 28 24  1  0  0  0  0
 29 26  1  1  0  0  0
 30 22  1  6  0  0  0
 30 29  1  0  0  0  0
 31 29  1  0  0  0  0
M  END
>  <MODEL>
2

>  <REMARK>
 VINA RESULT:      -9.1      1.417      1.890
  Name = 
  2 active torsions:
  status: ('A' for Active; 'I' for Inactive)
    1  A    between atoms: C_5  and  C_30
    2  A    between atoms: C_10  and  N_16
                            x       y       z     vdW  Elec       q    Type
                         _______ _______ _______ _____ _____    ______ ____

>  <TORSDO>
F 2

$$$$
=
 OpenBabel11112417013D

 31 35  0  0  1  0  0  0  0  0999 V2000
  186.0490  178.1990  140.7630 C   0  0  0  0  0  0  0  0  0  0  0  0
  188.0920  177.9290  143.9590 C   0  0  2  0  0  3  0  0  0  0  0  0
  187.1100  177.4580  145.0560 C   0  0  2  0  0  3  0  0  0  0  0  0
  184.9130  177.8700  146.1830 C   0  0  2  0  0  3  0  0  0  0  0  0
  187.5610  177.6290  142.5770 C   0  0  0  0  0  0  0  0  0  0  0  0
  186.4530  177.0620  140.0620 C   0  0  0  0  0  3  0  0  0  0  0  0
  185.7780  178.2150  144.9810 C   0  0  0  0  0  2  0  0  0  0  0  0
  189.4620  175.8140  143.8080 C   0  0  2  0  0  3  0  0  0  0  0  0
  185.1170  179.0260  140.2330 F   0  0  0  0  0  0  0  0  0  0  0  0
  189.1280  177.0290  146.6260 C   0  0  0  0  0  2  0  0  0  0  0  0
  183.6710  178.4910  146.0590 O   0  0  0  0  0  1  0  0  0  0  0  0
  189.1000  175.6080  142.3370 C   0  0  0  0  0  2  0  0  0  0  0  0
  189.4950  177.3130  144.1400 C   0  0  2  0  0  3  0  0  0  0  0  0
  186.6010  178.4810  142.0140 C   0  0  0  0  0  3  0  0  0  0  0  0
  185.6070  178.3700  147.4440 C   0  0  0  0  0  2  0  0  0  0  0  0
  187.9710  176.4800  141.8620 C   0  0  0  0  0  0  0  0  0  0  0  0
  187.4180  176.2120  140.6060 C   0  0  0  0  0  3  0  0  0  0  0  0
  190.0410  177.5970  145.5450 C   0  0  0  0  0  2  0  0  0  0  0  0
  187.7400  177.5470  146.4380 C   0  0  0  0  0  0  0  0  0  0  0  0
  187.0240  177.8700  147.5280 C   0  0  0  0  0  3  0  0  0  0  0  0
  189.8910  173.4990  145.4170 O   0  0  0  0  0  0  0  0  0  0  0  0
  190.9020  174.0360  144.8850 C   0  0  0  0  0  0  0  0  0  0  0  0
  190.7570  175.2030  144.0760 N   0  0  0  0  0  2  0  0  0  0  0  0
  194.3630  175.1430  144.0140 C   0  0  1  0  0  3  0  0  0  0  0  0
  193.1540  174.4130  145.9310 C   0  0  0  0  0  2  0  0  0  0  0  0
  192.1560  172.3270  142.9720 O   0  0  0  0  0  1  0  0  0  0  0  0
  194.8550  176.2560  143.3360 O   0  0  0  0  0  1  0  0  0  0  0  0
  193.5470  175.5840  145.1450 N   0  0  0  0  0  2  0  0  0  0  0  0
  192.9910  173.0750  143.8030 C   0  0  2  0  0  3  0  0  0  0  0  0
  192.2740  173.4670  145.1050 C   0  0  2  0  0  3  0  0  0  0  0  0
  193.5220  174.2980  143.0610 C   0  0  0  0  0  2  0  0  0  0  0  0
  1 14  1  0  0  0  0
  2  5  1  6  0  0  0
  2 13  1  0  0  0  0
  2  3  1  0  0  0  0
  3  7  1  1  0  0  0
  3 19  1  0  0  0  0
  4 11  1  6  0  0  0
  4 15  1  0  0  0  0
  6 17  1  0  0  0  0
  6  1  2  0  0  0  0
  7  4  1  0  0  0  0
  8 23  1  6  0  0  0
  8 13  1  0  0  0  0
  9  1  1  0  0  0  0
 12  8  1  0  0  0  0
 13 18  1  1  0  0  0
 14  5  2  0  0  0  0
 15 20  1  0  0  0  0
 16 12  1  0  0  0  0
 16  5  1  0  0  0  0
 17 16  2  0  0  0  0
 18 10  1  0  0  0  0
 19 10  1  0  0  0  0
 19 20  2  0  0  0  0
 22 21  2  0  0  0  0
 23 22  1  0  0  0  0
 24 27  1  6  0  0  0
 24 28  1  0  0  0  0
 28 25  1  0  0  0  0
 29 26  1  6  0  0  0
 29 30  1  0  0  0  0
 30 22  1  6  0  0  0
 30 25  1  0  0  0  0
 31 29  1  0  0  0  0
 31 24  1  0  0  0  0
M  END
>  <MODEL>
3

>  <REMARK>
 VINA RESULT:      -8.8      2.121      4.290
  Name = 
  2 active torsions:
  status: ('A' for Active; 'I' for Inactive)
    1  A    between atoms: C_5  and  C_30
    2  A    between atoms: C_10  and  N_16
                            x       y       z     vdW  Elec       q    Type
                         _______ _______ _______ _____ _____    ______ ____

>  <TORSDO>
F 2

$$$$
=
 OpenBabel11112417013D

 31 35  0  0  1  0  0  0  0  0999 V2000
  194.3650  176.3540  145.0830 C   0  0  0  0  0  0  0  0  0  0  0  0
  190.8990  176.5240  143.5290 C   0  0  2  0  0  3  0  0  0  0  0  0
  190.6010  175.1060  142.9890 C   0  0  2  0  0  3  0  0  0  0  0  0
  191.4300  173.2140  141.5750 C   0  0  2  0  0  3  0  0  0  0  0  0
  191.9960  176.5010  144.5670 C   0  0  0  0  0  0  0  0  0  0  0  0
  194.0720  176.3400  146.4480 C   0  0  0  0  0  3  0  0  0  0  0  0
  191.8140  174.5180  142.2570 C   0  0  0  0  0  2  0  0  0  0  0  0
  189.2200  176.5210  145.4140 C   0  0  2  0  0  3  0  0  0  0  0  0
  195.6510  176.2820  144.6660 F   0  0  0  0  0  0  0  0  0  0  0  0
  188.1330  175.8070  142.6150 C   0  0  0  0  0  2  0  0  0  0  0  0
  192.5590  172.6420  140.9900 O   0  0  0  0  0  1  0  0  0  0  0  0
  190.3090  176.7100  146.4710 C   0  0  0  0  0  2  0  0  0  0  0  0
  189.6340  177.1990  144.1000 C   0  0  2  0  0  3  0  0  0  0  0  0
  193.3310  176.4340  144.1480 C   0  0  0  0  0  3  0  0  0  0  0  0
  190.3950  173.5120  140.4970 C   0  0  0  0  0  2  0  0  0  0  0  0
  191.7020  176.4910  145.9500 C   0  0  0  0  0  0  0  0  0  0  0  0
  192.7460  176.4190  146.8780 C   0  0  0  0  0  3  0  0  0  0  0  0
  188.5060  177.2160  143.0610 C   0  0  0  0  0  2  0  0  0  0  0  0
  189.3510  175.0950  142.1230 C   0  0  0  0  0  0  0  0  0  0  0  0
  189.2360  174.2960  141.0490 C   0  0  0  0  0  3  0  0  0  0  0  0
  187.6930  175.4900  147.5900 O   0  0  0  0  0  0  0  0  0  0  0  0
  187.2580  176.5220  147.0090 C   0  0  0  0  0  0  0  0  0  0  0  0
  187.9690  177.0830  145.9060 N   0  0  0  0  0  2  0  0  0  0  0  0
  184.8960  178.9810  145.4810 C   0  0  1  0  0  3  0  0  0  0  0  0
  184.8160  176.8380  146.5130 C   0  0  0  0  0  2  0  0  0  0  0  0
  187.2270  179.0220  148.3880 O   0  0  0  0  0  1  0  0  0  0  0  0
  184.8960  179.6580  144.2630 O   0  0  0  0  0  1  0  0  0  0  0  0
  184.9600  177.5410  145.2370 N   0  0  0  0  0  2  0  0  0  0  0  0
  186.0930  178.6890  147.6450 C   0  0  2  0  0  3  0  0  0  0  0  0
  185.9790  177.1680  147.4560 C   0  0  2  0  0  3  0  0  0  0  0  0
  186.1000  179.4250  146.3080 C   0  0  0  0  0  2  0  0  0  0  0  0
  1  6  1  0  0  0  0
  2 13  1  0  0  0  0
  2  5  1  1  0  0  0
  3  7  1  6  0  0  0
  3  2  1  0  0  0  0
  4 11  1  6  0  0  0
  4  7  1  0  0  0  0
  5 16  2  0  0  0  0
  6 17  2  0  0  0  0
  8 23  1  1  0  0  0
  8 12  1  0  0  0  0
  9  1  1  0  0  0  0
 10 18  1  0  0  0  0
 13 18  1  6  0  0  0
 13  8  1  0  0  0  0
 14  5  1  0  0  0  0
 14  1  2  0  0  0  0
 15 20  1  0  0  0  0
 15  4  1  0  0  0  0
 16 12  1  0  0  0  0
 16 17  1  0  0  0  0
 19 10  1  0  0  0  0
 19  3  1  0  0  0  0
 20 19  2  0  0  0  0
 22 21  2  0  0  0  0
 23 22  1  0  0  0  0
 24 27  1  6  0  0  0
 24 31  1  0  0  0  0
 25 30  1  0  0  0  0
 28 24  1  0  0  0  0
 28 25  1  0  0  0  0
 29 26  1  6  0  0  0
 30 22  1  6  0  0  0
 30 29  1  0  0  0  0
 31 29  1  0  0  0  0
M  END
>  <MODEL>
4

>  <REMARK>
 VINA RESULT:      -8.3      3.449      7.106
  Name = 
  2 active torsions:
  status: ('A' for Active; 'I' for Inactive)
    1  A    between atoms: C_5  and  C_30
    2  A    between atoms: C_10  and  N_16
                            x       y       z     vdW  Elec       q    Type
                         _______ _______ _______ _____ _____    ______ ____

>  <TORSDO>
F 2

$$$$
=
 OpenBabel11112417013D

 31 35  0  0  1  0  0  0  0  0999 V2000
  185.4730  178.2910  140.9340 C   0  0  0  0  0  0  0  0  0  0  0  0
  188.0710  178.0530  143.7010 C   0  0  2  0  0  3  0  0  0  0  0  0
  187.3930  177.2870  144.8610 C   0  0  2  0  0  3  0  0  0  0  0  0
  185.3950  177.1530  146.3640 C   0  0  2  0  0  3  0  0  0  0  0  0
  187.3580  177.8140  142.3900 C   0  0  0  0  0  0  0  0  0  0  0  0
  185.9280  177.3350  140.0250 C   0  0  0  0  0  3  0  0  0  0  0  0
  185.9630  177.7850  145.1020 C   0  0  0  0  0  2  0  0  0  0  0  0
  189.7220  176.2610  143.0400 C   0  0  2  0  0  3  0  0  0  0  0  0
  184.3380  178.9830  140.6790 F   0  0  0  0  0  0  0  0  0  0  0  0
  189.7020  177.0700  146.0190 C   0  0  0  0  0  2  0  0  0  0  0  0
  184.0660  177.5410  146.5240 O   0  0  0  0  0  1  0  0  0  0  0  0
  189.1430  176.1560  141.6290 C   0  0  0  0  0  2  0  0  0  0  0  0
  189.5660  177.6930  143.5710 C   0  0  2  0  0  3  0  0  0  0  0  0
  186.1860  178.5290  142.1110 C   0  0  0  0  0  3  0  0  0  0  0  0
  186.2110  177.6290  147.5590 C   0  0  0  0  0  2  0  0  0  0  0  0
  187.8180  176.8490  141.4650 C   0  0  0  0  0  0  0  0  0  0  0  0
  187.1010  176.6250  140.2860 C   0  0  0  0  0  3  0  0  0  0  0  0
  190.3000  177.9160  144.9000 C   0  0  0  0  0  2  0  0  0  0  0  0
  188.2360  177.3370  146.1250 C   0  0  0  0  0  0  0  0  0  0  0  0
  187.6830  177.3970  147.3480 C   0  0  0  0  0  3  0  0  0  0  0  0
  190.8340  173.9820  144.3450 O   0  0  0  0  0  0  0  0  0  0  0  0
  191.6180  174.7160  143.6820 C   0  0  0  0  0  0  0  0  0  0  0  0
  191.1280  175.8770  143.0130 N   0  0  0  0  0  2  0  0  0  0  0  0
  193.6450  171.6290  144.2470 C   0  0  1  0  0  3  0  0  0  0  0  0
  193.3570  173.2890  142.5660 C   0  0  0  0  0  2  0  0  0  0  0  0
  193.3510  174.9340  145.9410 O   0  0  0  0  0  1  0  0  0  0  0  0
  193.3060  170.3350  144.6380 O   0  0  0  0  0  1  0  0  0  0  0  0
  192.8900  171.9880  143.0480 N   0  0  0  0  0  2  0  0  0  0  0  0
  193.7060  174.0170  144.9510 C   0  0  2  0  0  3  0  0  0  0  0  0
  193.0810  174.3890  143.5970 C   0  0  2  0  0  3  0  0  0  0  0  0
  193.3250  172.6010  145.3780 C   0  0  0  0  0  2  0  0  0  0  0  0
  1 14  1  0  0  0  0
  2  5  1  6  0  0  0
  2  3  1  0  0  0  0
  3  7  1  1  0  0  0
  3 19  1  0  0  0  0
  4 11  1  1  0  0  0
  4 15  1  0  0  0  0
  6 17  1  0  0  0  0
  6  1  2  0  0  0  0
  7  4  1  0  0  0  0
  8 23  1  6  0  0  0
  8 13  1  0  0  0  0
  9  1  1  0  0  0  0
 10 19  1  0  0  0  0
 12  8  1  0  0  0  0
 13  2  1  0  0  0  0
 13 18  1  1  0  0  0
 14  5  2  0  0  0  0
 16 12  1  0  0  0  0
 16  5  1  0  0  0  0
 17 16  2  0  0  0  0
 18 10  1  0  0  0  0
 19 20  2  0  0  0  0
 20 15  1  0  0  0  0
 22 21  2  0  0  0  0
 23 22  1  0  0  0  0
 24 27  1  1  0  0  0
 24 31  1  0  0  0  0
 25 28  1  0  0  0  0
 25 30  1  0  0  0  0
 28 24  1  0  0  0  0
 29 31  1  0  0  0  0
 29 26  1  1  0  0  0
 30 22  1  1  0  0  0
 30 29  1  0  0  0  0
M  END
>  <MODEL>
5

>  <REMARK>
 VINA RESULT:      -8.0      2.478      4.715
  Name = 
  2 active torsions:
  status: ('A' for Active; 'I' for Inactive)
    1  A    between atoms: C_5  and  C_30
    2  A    between atoms: C_10  and  N_16
                            x       y       z     vdW  Elec       q    Type
                         _______ _______ _______ _____ _____    ______ ____

>  <TORSDO>
F 2

$$$$
=
 OpenBabel11112417013D

 31 35  0  0  1  0  0  0  0  0999 V2000
  193.2920  172.6030  141.0480 C   0  0  0  0  0  0  0  0  0  0  0  0
  191.5050  173.9950  144.1020 C   0  0  2  0  0  3  0  0  0  0  0  0
  192.2690  175.2810  144.4970 C   0  0  2  0  0  3  0  0  0  0  0  0
  194.5030  176.2830  145.0200 C   0  0  2  0  0  3  0  0  0  0  0  0
  191.7860  173.6030  142.6710 C   0  0  0  0  0  0  0  0  0  0  0  0
  192.4170  172.9480  140.0170 C   0  0  0  0  0  3  0  0  0  0  0  0
  193.7870  175.0700  144.4450 C   0  0  0  0  0  2  0  0  0  0  0  0
  189.3830  175.1020  143.3020 C   0  0  2  0  0  3  0  0  0  0  0  0
  194.4490  171.9570  140.7680 F   0  0  0  0  0  0  0  0  0  0  0  0
  190.3460  175.8780  146.1290 C   0  0  0  0  0  2  0  0  0  0  0  0
  195.8800  176.1200  144.8840 O   0  0  0  0  0  1  0  0  0  0  0  0
  189.5420  174.5350  141.8900 C   0  0  0  0  0  2  0  0  0  0  0  0
  189.9860  174.1370  144.3310 C   0  0  2  0  0  3  0  0  0  0  0  0
  192.9770  172.9290  142.3690 C   0  0  0  0  0  3  0  0  0  0  0  0
  194.1480  176.4040  146.4960 C   0  0  0  0  0  2  0  0  0  0  0  0
  190.9000  173.9480  141.6240 C   0  0  0  0  0  0  0  0  0  0  0  0
  191.2220  173.6090  140.3060 C   0  0  0  0  0  3  0  0  0  0  0  0
  189.6860  174.5500  145.7780 C   0  0  0  0  0  2  0  0  0  0  0  0
  191.8110  175.8040  145.8500 C   0  0  0  0  0  0  0  0  0  0  0  0
  192.6580  176.3970  146.7070 C   0  0  0  0  0  3  0  0  0  0  0  0
  188.1780  177.6350  143.8180 O   0  0  0  0  0  0  0  0  0  0  0  0
  187.4270  176.6210  143.8170 C   0  0  0  0  0  0  0  0  0  0  0  0
  187.9680  175.3220  143.5750 N   0  0  0  0  0  2  0  0  0  0  0  0
  185.1110  179.5180  144.2670 C   0  0  1  0  0  3  0  0  0  0  0  0
  185.2470  177.5300  142.9640 C   0  0  0  0  0  2  0  0  0  0  0  0
  186.3790  176.7920  146.4670 O   0  0  0  0  0  1  0  0  0  0  0  0
  185.3120  180.8970  144.2630 O   0  0  0  0  0  1  0  0  0  0  0  0
  185.5920  178.9520  143.0070 N   0  0  0  0  0  2  0  0  0  0  0  0
  185.6370  177.3890  145.4480 C   0  0  2  0  0  3  0  0  0  0  0  0
  185.9560  176.7590  144.0840 C   0  0  2  0  0  3  0  0  0  0  0  0
  185.8660  178.8990  145.4400 C   0  0  0  0  0  2  0  0  0  0  0  0
  1 14  1  0  0  0  0
  2  5  1  6  0  0  0
  2 13  1  0  0  0  0
  2  3  1  0  0  0  0
  3  7  1  1  0  0  0
  3 19  1  0  0  0  0
  4 11  1  1  0  0  0
  4 15  1  0  0  0  0
  6 17  1  0  0  0  0
  6  1  2  0  0  0  0
  7  4  1  0  0  0  0
  8 23  1  1  0  0  0
  8 13  1  0  0  0  0
  9  1  1  0  0  0  0
 12  8  1  0  0  0  0
 13 18  1  1  0  0  0
 14  5  2  0  0  0  0
 15 20  1  0  0  0  0
 16 12  1  0  0  0  0
 16  5  1  0  0  0  0
 17 16  2  0  0  0  0
 18 10  1  0  0  0  0
 19 10  1  0  0  0  0
 19 20  2  0  0  0  0
 22 21  2  0  0  0  0
 23 22  1  0  0  0  0
 24 27  1  6  0  0  0
 24 31  1  0  0  0  0
 25 28  1  0  0  0  0
 25 30  1  0  0  0  0
 28 24  1  0  0  0  0
 29 26  1  1  0  0  0
 30 22  1  6  0  0  0
 30 29  1  0  0  0  0
 31 29  1  0  0  0  0
M  END
>  <MODEL>
6

>  <REMARK>
 VINA RESULT:      -7.8      3.786      8.227
  Name = 
  2 active torsions:
  status: ('A' for Active; 'I' for Inactive)
    1  A    between atoms: C_5  and  C_30
    2  A    between atoms: C_10  and  N_16
                            x       y       z     vdW  Elec       q    Type
                         _______ _______ _______ _____ _____    ______ ____

>  <TORSDO>
F 2

$$$$
=
 OpenBabel11112417013D

 31 35  0  0  1  0  0  0  0  0999 V2000
  186.1420  177.2430  142.6830 C   0  0  0  0  0  0  0  0  0  0  0  0
  188.5420  174.2950  142.7570 C   0  0  2  0  0  3  0  0  0  0  0  0
  189.1830  174.2290  141.3520 C   0  0  2  0  0  3  0  0  0  0  0  0
  188.7590  174.1610  138.8850 C   0  0  2  0  0  3  0  0  0  0  0  0
  187.9480  175.6570  143.0300 C   0  0  0  0  0  0  0  0  0  0  0  0
  186.8440  178.2090  143.4060 C   0  0  0  0  0  3  0  0  0  0  0  0
  188.1360  174.4220  140.2470 C   0  0  0  0  0  2  0  0  0  0  0  0
  190.5990  175.0220  144.0260 C   0  0  2  0  0  3  0  0  0  0  0  0
  184.9300  177.5390  142.1560 F   0  0  0  0  0  0  0  0  0  0  0  0
  190.9010  172.5120  142.2570 C   0  0  0  0  0  2  0  0  0  0  0  0
  187.8260  174.4280  137.8850 O   0  0  0  0  0  1  0  0  0  0  0  0
  189.9340  176.3190  144.4900 C   0  0  0  0  0  2  0  0  0  0  0  0
  189.5470  173.9160  143.8650 C   0  0  2  0  0  3  0  0  0  0  0  0
  186.6920  175.9740  142.4960 C   0  0  0  0  0  3  0  0  0  0  0  0
  189.1780  172.6980  138.8120 C   0  0  0  0  0  2  0  0  0  0  0  0
  188.6550  176.6360  143.7660 C   0  0  0  0  0  0  0  0  0  0  0  0
  188.0910  177.9020  143.9530 C   0  0  0  0  0  3  0  0  0  0  0  0
  190.1690  172.5410  143.5930 C   0  0  0  0  0  2  0  0  0  0  0  0
  189.9780  172.9460  141.1650 C   0  0  0  0  0  0  0  0  0  0  0  0
  190.0430  172.3140  139.9820 C   0  0  0  0  0  3  0  0  0  0  0  0
  193.4130  175.0140  143.5650 O   0  0  0  0  0  0  0  0  0  0  0  0
  193.0070  174.6550  144.7040 C   0  0  0  0  0  0  0  0  0  0  0  0
  191.6110  174.6260  144.9980 N   0  0  0  0  0  2  0  0  0  0  0  0
  196.7220  174.2730  144.8370 C   0  0  1  0  0  3  0  0  0  0  0  0
  194.9950  175.3470  146.0740 C   0  0  0  0  0  2  0  0  0  0  0  0
  193.8240  171.9370  145.0230 O   0  0  0  0  0  1  0  0  0  0  0  0
  197.7240  174.4570  143.8870 O   0  0  0  0  0  1  0  0  0  0  0  0
  195.9500  175.5070  144.9760 N   0  0  0  0  0  2  0  0  0  0  0  0
  194.7170  172.9250  145.4420 C   0  0  2  0  0  3  0  0  0  0  0  0
  193.9830  174.2370  145.7650 C   0  0  2  0  0  3  0  0  0  0  0  0
  195.8090  173.1320  144.3960 C   0  0  0  0  0  2  0  0  0  0  0  0
  1  6  1  0  0  0  0
  2  5  1  1  0  0  0
  2 13  1  0  0  0  0
  3  7  1  6  0  0  0
  3  2  1  0  0  0  0
  4 11  1  6  0  0  0
  4  7  1  0  0  0  0
  5 16  2  0  0  0  0
  6 17  2  0  0  0  0
  8 12  1  0  0  0  0
  8 23  1  1  0  0  0
  9  1  1  0  0  0  0
 10 18  1  0  0  0  0
 13 18  1  6  0  0  0
 13  8  1  0  0  0  0
 14  1  2  0  0  0  0
 14  5  1  0  0  0  0
 15  4  1  0  0  0  0
 15 20  1  0  0  0  0
 16 17  1  0  0  0  0
 16 12  1  0  0  0  0
 19  3  1  0  0  0  0
 19 10  1  0  0  0  0
 20 19  2  0  0  0  0
 21 22  2  0  0  0  0
 22 23  1  0  0  0  0
 24 27  1  6  0  0  0
 24 28  1  0  0  0  0
 28 25  1  0  0  0  0
 29 26  1  6  0  0  0
 29 30  1  0  0  0  0
 30 22  1  6  0  0  0
 30 25  1  0  0  0  0
 31 24  1  0  0  0  0
 31 29  1  0  0  0  0
M  END
>  <MODEL>
7

>  <REMARK>
 VINA RESULT:      -7.4      2.582      3.427
  Name = 
  2 active torsions:
  status: ('A' for Active; 'I' for Inactive)
    1  A    between atoms: C_5  and  C_30
    2  A    between atoms: C_10  and  N_16
                            x       y       z     vdW  Elec       q    Type
                         _______ _______ _______ _____ _____    ______ ____

>  <TORSDO>
F 2

$$$$
=
 OpenBabel11112417013D

 31 35  0  0  1  0  0  0  0  0999 V2000
  187.0110  177.7560  146.9310 C   0  0  0  0  0  0  0  0  0  0  0  0
  188.9560  175.0470  145.1050 C   0  0  2  0  0  3  0  0  0  0  0  0
  189.1010  175.5340  143.6440 C   0  0  2  0  0  3  0  0  0  0  0  0
  187.9050  176.4050  141.6250 C   0  0  2  0  0  3  0  0  0  0  0  0
  188.6400  176.1910  146.0400 C   0  0  0  0  0  0  0  0  0  0  0  0
  188.0120  178.3850  147.6720 C   0  0  0  0  0  3  0  0  0  0  0  0
  187.7850  176.1150  143.1130 C   0  0  0  0  0  2  0  0  0  0  0  0
  191.3800  175.2720  145.7720 C   0  0  2  0  0  3  0  0  0  0  0  0
  185.7360  178.2090  146.9930 F   0  0  0  0  0  0  0  0  0  0  0  0
  190.8120  173.6330  143.2190 C   0  0  0  0  0  2  0  0  0  0  0  0
  186.7370  177.0160  141.1720 O   0  0  0  0  0  1  0  0  0  0  0  0
  191.0510  176.2820  146.8730 C   0  0  0  0  0  2  0  0  0  0  0  0
  190.2130  174.2920  145.5860 C   0  0  2  0  0  3  0  0  0  0  0  0
  187.3240  176.6640  146.1190 C   0  0  0  0  0  3  0  0  0  0  0  0
  188.1090  175.0880  140.8860 C   0  0  0  0  0  2  0  0  0  0  0  0
  189.6520  176.8280  146.7950 C   0  0  0  0  0  0  0  0  0  0  0  0
  189.3260  177.9150  147.6100 C   0  0  0  0  0  3  0  0  0  0  0  0
  190.5550  173.1370  144.6380 C   0  0  0  0  0  2  0  0  0  0  0  0
  189.6430  174.4340  142.7450 C   0  0  0  0  0  0  0  0  0  0  0  0
  189.2540  174.3030  141.4660 C   0  0  0  0  0  3  0  0  0  0  0  0
  193.7890  175.2600  144.2470 O   0  0  0  0  0  0  0  0  0  0  0  0
  193.7750  174.5980  145.3210 C   0  0  0  0  0  0  0  0  0  0  0  0
  192.5980  174.5540  146.1260 N   0  0  0  0  0  2  0  0  0  0  0  0
  196.7470  173.1680  143.5660 C   0  0  1  0  0  3  0  0  0  0  0  0
  196.2840  174.5820  145.4240 C   0  0  0  0  0  2  0  0  0  0  0  0
  193.8260  171.7440  145.3880 O   0  0  0  0  0  1  0  0  0  0  0  0
  197.1290  173.1380  142.2260 O   0  0  0  0  0  1  0  0  0  0  0  0
  196.5450  174.5540  143.9840 N   0  0  0  0  0  2  0  0  0  0  0  0
  195.0450  172.3990  145.2140 C   0  0  2  0  0  3  0  0  0  0  0  0
  194.9890  173.8340  145.7630 C   0  0  2  0  0  3  0  0  0  0  0  0
  195.4560  172.3740  143.7430 C   0  0  0  0  0  2  0  0  0  0  0  0
  1  9  1  0  0  0  0
  1  6  1  0  0  0  0
  2 13  1  0  0  0  0
  2  5  1  1  0  0  0
  3  7  1  6  0  0  0
  3  2  1  0  0  0  0
  4 11  1  6  0  0  0
  4  7  1  0  0  0  0
  5 14  1  0  0  0  0
  5 16  2  0  0  0  0
  8 23  1  1  0  0  0
  8 12  1  0  0  0  0
 10 18  1  0  0  0  0
 13 18  1  6  0  0  0
 13  8  1  0  0  0  0
 14  1  2  0  0  0  0
 15 20  1  0  0  0  0
 15  4  1  0  0  0  0
 16 12  1  0  0  0  0
 16 17  1  0  0  0  0
 17  6  2  0  0  0  0
 19 10  1  0  0  0  0
 19  3  1  0  0  0  0
 20 19  2  0  0  0  0
 21 22  2  0  0  0  0
 22 23  1  0  0  0  0
 24 27  1  6  0  0  0
 24 31  1  0  0  0  0
 24 28  1  0  0  0  0
 25 30  1  0  0  0  0
 28 25  1  0  0  0  0
 29 26  1  6  0  0  0
 29 30  1  0  0  0  0
 30 22  1  6  0  0  0
 31 29  1  0  0  0  0
M  END
>  <MODEL>
8

>  <REMARK>
 VINA RESULT:      -7.3      1.889      2.502
  Name = 
  2 active torsions:
  status: ('A' for Active; 'I' for Inactive)
    1  A    between atoms: C_5  and  C_30
    2  A    between atoms: C_10  and  N_16
                            x       y       z     vdW  Elec       q    Type
                         _______ _______ _______ _____ _____    ______ ____

>  <TORSDO>
F 2

$$$$
=
 OpenBabel11112417013D

 31 35  0  0  1  0  0  0  0  0999 V2000
  187.2680  177.4320  141.4100 C   0  0  0  0  0  0  0  0  0  0  0  0
  190.3260  176.9730  143.6220 C   0  0  2  0  0  3  0  0  0  0  0  0
  189.7890  176.6440  145.0340 C   0  0  2  0  0  3  0  0  0  0  0  0
  188.2370  177.3400  146.8720 C   0  0  2  0  0  3  0  0  0  0  0  0
  189.2830  176.7150  142.5600 C   0  0  0  0  0  0  0  0  0  0  0  0
  187.2540  176.2420  140.6810 C   0  0  0  0  0  3  0  0  0  0  0  0
  188.6160  177.5560  145.4140 C   0  0  0  0  0  2  0  0  0  0  0  0
  191.3060  174.7050  143.1030 C   0  0  2  0  0  3  0  0  0  0  0  0
  186.2980  178.3560  141.2160 F   0  0  0  0  0  0  0  0  0  0  0  0
  192.1930  176.0020  145.7590 C   0  0  0  0  0  2  0  0  0  0  0  0
  187.1150  178.1050  147.1810 O   0  0  0  0  0  1  0  0  0  0  0  0
  190.3950  174.5180  141.8880 C   0  0  0  0  0  2  0  0  0  0  0  0
  191.6200  176.1940  143.3040 C   0  0  2  0  0  3  0  0  0  0  0  0
  188.2780  177.6670  142.3440 C   0  0  0  0  0  3  0  0  0  0  0  0
  189.4050  177.7740  147.7480 C   0  0  0  0  0  2  0  0  0  0  0  0
  189.2690  175.5120  141.8170 C   0  0  0  0  0  0  0  0  0  0  0  0
  188.2570  175.2910  140.8780 C   0  0  0  0  0  3  0  0  0  0  0  0
  192.6830  176.4350  144.3830 C   0  0  0  0  0  2  0  0  0  0  0  0
  190.9000  176.6810  146.0720 C   0  0  0  0  0  0  0  0  0  0  0  0
  190.6870  177.1080  147.3280 C   0  0  0  0  0  3  0  0  0  0  0  0
  192.0920  172.4180  144.6140 O   0  0  0  0  0  0  0  0  0  0  0  0
  192.8630  172.8030  143.6930 C   0  0  0  0  0  0  0  0  0  0  0  0
  192.5340  173.9470  142.9050 N   0  0  0  0  0  2  0  0  0  0  0  0
  194.7870  170.1340  145.4640 C   0  0  1  0  0  3  0  0  0  0  0  0
  193.9240  170.5630  143.2870 C   0  0  0  0  0  2  0  0  0  0  0  0
  195.3730  173.7300  144.6880 O   0  0  0  0  0  1  0  0  0  0  0  0
  194.5710  169.4500  146.6590 O   0  0  0  0  0  1  0  0  0  0  0  0
  193.6280  169.9620  144.5890 N   0  0  0  0  0  2  0  0  0  0  0  0
  195.2490  172.3610  144.4500 C   0  0  2  0  0  3  0  0  0  0  0  0
  194.1470  172.0740  143.4180 C   0  0  2  0  0  3  0  0  0  0  0  0
  195.0030  171.6150  145.7590 C   0  0  0  0  0  2  0  0  0  0  0  0
  1 14  1  0  0  0  0
  2  5  1  6  0  0  0
  2  3  1  0  0  0  0
  3  7  1  1  0  0  0
  3 19  1  0  0  0  0
  4 11  1  1  0  0  0
  4 15  1  0  0  0  0
  6 17  1  0  0  0  0
  6  1  2  0  0  0  0
  7  4  1  0  0  0  0
  8 23  1  6  0  0  0
  8 13  1  0  0  0  0
  9  1  1  0  0  0  0
 10 19  1  0  0  0  0
 12  8  1  0  0  0  0
 13  2  1  0  0  0  0
 13 18  1  1  0  0  0
 14  5  2  0  0  0  0
 16 12  1  0  0  0  0
 16  5  1  0  0  0  0
 17 16  2  0  0  0  0
 18 10  1  0  0  0  0
 19 20  2  0  0  0  0
 20 15  1  0  0  0  0
 22 21  2  0  0  0  0
 23 22  1  0  0  0  0
 24 31  1  0  0  0  0
 24 27  1  1  0  0  0
 25 30  1  0  0  0  0
 25 28  1  0  0  0  0
 28 24  1  0  0  0  0
 29 26  1  1  0  0  0
 29 31  1  0  0  0  0
 30 22  1  1  0  0  0
 30 29  1  0  0  0  0
M  END
>  <MODEL>
9

>  <REMARK>
 VINA RESULT:      -7.0      3.011      5.414
  Name = 
  2 active torsions:
  status: ('A' for Active; 'I' for Inactive)
    1  A    between atoms: C_5  and  C_30
    2  A    between atoms: C_10  and  N_16
                            x       y       z     vdW  Elec       q    Type
                         _______ _______ _______ _____ _____    ______ ____

>  <TORSDO>
F 2

$$$$
