=
 OpenBabel11112416583D

 31 35  0  0  1  0  0  0  0  0999 V2000
  184.2430  178.4890  146.1240 C   0  0  0  0  0  0  0  0  0  0  0  0
  186.8840  177.2700  143.7320 C   0  0  0  0  0  0  0  0  0  0  0  0
  186.3680  177.4410  142.4100 C   0  0  0  0  0  0  0  0  0  0  0  0
  184.6200  178.1280  140.8440 C   0  0  0  0  0  0  0  0  0  0  0  0
  186.1860  177.6140  144.9290 C   0  0  0  0  0  0  0  0  0  0  0  0
  184.8760  178.2640  147.3450 C   0  0  0  0  0  3  0  0  0  0  0  0
  185.0930  177.9750  142.1500 C   0  0  0  0  0  3  0  0  0  0  0  0
  188.7550  176.5240  145.1270 C   0  0  0  0  0  0  0  0  0  0  0  0
  182.9980  179.0210  146.0950 F   0  0  0  0  0  0  0  0  0  0  0  0
  188.4250  176.5270  141.5010 C   0  0  0  0  0  3  0  0  0  0  0  0
  183.3580  178.6590  140.6210 O   0  0  0  0  0  1  0  0  0  0  0  0
  188.0590  176.8620  146.2400 N   0  0  0  0  0  0  0  0  0  0  0  0
  188.1900  176.7170  143.8600 C   0  0  0  0  0  0  0  0  0  0  0  0
  190.0670  175.9650  145.2450 N   0  0  0  0  0  2  0  0  0  0  0  0
  184.8930  178.1670  144.9310 C   0  0  0  0  0  3  0  0  0  0  0  0
  185.4170  177.7460  139.7650 C   0  0  0  0  0  3  0  0  0  0  0  0
  186.8140  177.3920  146.1810 C   0  0  0  0  0  0  0  0  0  0  0  0
  186.1580  177.7170  147.3730 C   0  0  0  0  0  3  0  0  0  0  0  0
  188.9050  176.3690  142.7560 N   0  0  0  0  0  0  0  0  0  0  0  0
  187.1600  177.0600  141.2980 C   0  0  0  0  0  0  0  0  0  0  0  0
  186.6850  177.2120  139.9920 C   0  0  0  0  0  3  0  0  0  0  0  0
  190.5230  176.9760  147.4240 C   0  0  0  0  0  1  0  0  0  0  0  0
  190.7310  175.7660  146.5280 C   0  0  2  0  0  3  0  0  0  0  0  0
  194.9230  175.0070  145.9360 C   0  0  0  0  0  0  0  0  0  0  0  0
  193.1500  176.4480  146.7290 C   0  0  0  0  0  3  0  0  0  0  0  0
  191.7070  173.3840  145.3180 F   0  0  0  0  0  0  0  0  0  0  0  0
  196.2430  174.7650  145.7480 F   0  0  0  0  0  0  0  0  0  0  0  0
  194.5110  176.1990  146.5360 C   0  0  0  0  0  3  0  0  0  0  0  0
  192.6120  174.3100  145.7200 C   0  0  0  0  0  0  0  0  0  0  0  0
  192.1920  175.5070  146.3220 C   0  0  0  0  0  0  0  0  0  0  0  0
  193.9760  174.0650  145.5290 C   0  0  0  0  0  3  0  0  0  0  0  0
  1  6  1  0  0  0  0
  2 13  1  0  0  0  0
  2  5  1  0  0  0  0
  3  2  2  0  0  0  0
  4  7  2  0  0  0  0
  5 15  1  0  0  0  0
  5 17  2  0  0  0  0
  6 18  2  0  0  0  0
  7  3  1  0  0  0  0
  8 14  1  0  0  0  0
  8 12  2  0  0  0  0
  9  1  1  0  0  0  0
 10 19  1  0  0  0  0
 11  4  1  0  0  0  0
 13  8  1  0  0  0  0
 14 23  1  0  0  0  0
 15  1  2  0  0  0  0
 16 21  2  0  0  0  0
 16  4  1  0  0  0  0
 17 12  1  0  0  0  0
 17 18  1  0  0  0  0
 19 13  2  0  0  0  0
 20 10  2  0  0  0  0
 20  3  1  0  0  0  0
 21 20  1  0  0  0  0
 23 22  1  1  0  0  0
 24 28  1  0  0  0  0
 26 29  1  0  0  0  0
 27 24  1  0  0  0  0
 28 25  2  0  0  0  0
 29 30  2  0  0  0  0
 30 23  1  0  0  0  0
 30 25  1  0  0  0  0
 31 29  1  0  0  0  0
 31 24  2  0  0  0  0
M  END
>  <MODEL>
1

>  <REMARK>
 VINA RESULT:      -9.9      0.000      0.000
  Name = 
  2 active torsions:
  status: ('A' for Active; 'I' for Inactive)
    1  A    between atoms: C_5  and  N_16
    2  A    between atoms: C_5  and  C_30
                            x       y       z     vdW  Elec       q    Type
                         _______ _______ _______ _____ _____    ______ ____

>  <TORSDO>
F 2

$$$$
=
 OpenBabel11112416583D

 31 35  0  0  1  0  0  0  0  0999 V2000
  184.9300  178.0240  146.8660 C   0  0  0  0  0  0  0  0  0  0  0  0
  186.7010  177.6170  143.5660 C   0  0  0  0  0  0  0  0  0  0  0  0
  185.7290  177.8190  142.5380 C   0  0  0  0  0  0  0  0  0  0  0  0
  183.4570  178.3050  141.7770 C   0  0  0  0  0  0  0  0  0  0  0  0
  186.4300  177.6860  144.9670 C   0  0  0  0  0  0  0  0  0  0  0  0
  185.9830  177.8030  147.7530 C   0  0  0  0  0  3  0  0  0  0  0  0
  184.3800  178.1130  142.8080 C   0  0  0  0  0  3  0  0  0  0  0  0
  189.0350  177.1170  144.1180 C   0  0  0  0  0  0  0  0  0  0  0  0
  183.6910  178.2960  147.3400 F   0  0  0  0  0  0  0  0  0  0  0  0
  187.4410  177.4360  140.8600 C   0  0  0  0  0  3  0  0  0  0  0  0
  182.1330  178.5930  142.0760 O   0  0  0  0  0  1  0  0  0  0  0  0
  188.7370  177.1900  145.4390 N   0  0  0  0  0  0  0  0  0  0  0  0
  188.0340  177.3260  143.1610 C   0  0  0  0  0  0  0  0  0  0  0  0
  190.3720  176.8230  143.7010 N   0  0  0  0  0  2  0  0  0  0  0  0
  185.1550  177.9660  145.4890 C   0  0  0  0  0  3  0  0  0  0  0  0
  183.8650  178.2060  140.4470 C   0  0  0  0  0  3  0  0  0  0  0  0
  187.4880  177.4640  145.8850 C   0  0  0  0  0  0  0  0  0  0  0  0
  187.2580  177.5230  147.2630 C   0  0  0  0  0  3  0  0  0  0  0  0
  188.3540  177.2470  141.8410 N   0  0  0  0  0  0  0  0  0  0  0  0
  186.1220  177.7240  141.1800 C   0  0  0  0  0  0  0  0  0  0  0  0
  185.1970  177.9160  140.1490 C   0  0  0  0  0  3  0  0  0  0  0  0
  192.6330  177.5410  144.2910 C   0  0  0  0  0  1  0  0  0  0  0  0
  191.4700  176.6260  144.6390 C   0  0  2  0  0  3  0  0  0  0  0  0
  192.7330  172.5140  144.6380 C   0  0  0  0  0  0  0  0  0  0  0  0
  191.5270  174.3320  143.5930 C   0  0  0  0  0  3  0  0  0  0  0  0
  193.0850  175.5130  146.6990 F   0  0  0  0  0  0  0  0  0  0  0  0
  193.1330  171.2190  144.6400 F   0  0  0  0  0  0  0  0  0  0  0  0
  191.9390  172.9980  143.5950 C   0  0  0  0  0  3  0  0  0  0  0  0
  192.7040  174.7020  145.6800 C   0  0  0  0  0  0  0  0  0  0  0  0
  191.9060  175.1930  144.6360 C   0  0  0  0  0  0  0  0  0  0  0  0
  193.1150  173.3650  145.6780 C   0  0  0  0  0  3  0  0  0  0  0  0
  1  9  1  0  0  0  0
  1  6  1  0  0  0  0
  2  5  1  0  0  0  0
  3  7  1  0  0  0  0
  3  2  2  0  0  0  0
  4 11  1  0  0  0  0
  4  7  2  0  0  0  0
  5 15  1  0  0  0  0
  5 17  2  0  0  0  0
  8 12  2  0  0  0  0
 10 20  2  0  0  0  0
 10 19  1  0  0  0  0
 12 17  1  0  0  0  0
 13  2  1  0  0  0  0
 13  8  1  0  0  0  0
 14  8  1  0  0  0  0
 14 23  1  0  0  0  0
 15  1  2  0  0  0  0
 16  4  1  0  0  0  0
 17 18  1  0  0  0  0
 18  6  2  0  0  0  0
 19 13  2  0  0  0  0
 20  3  1  0  0  0  0
 21 16  2  0  0  0  0
 21 20  1  0  0  0  0
 23 22  1  6  0  0  0
 24 27  1  0  0  0  0
 24 31  1  0  0  0  0
 25 28  1  0  0  0  0
 25 30  2  0  0  0  0
 28 24  2  0  0  0  0
 29 26  1  0  0  0  0
 30 23  1  0  0  0  0
 30 29  1  0  0  0  0
 31 29  2  0  0  0  0
M  END
>  <MODEL>
2

>  <REMARK>
 VINA RESULT:      -9.9      1.551      2.158
  Name = 
  2 active torsions:
  status: ('A' for Active; 'I' for Inactive)
    1  A    between atoms: C_5  and  N_16
    2  A    between atoms: C_5  and  C_30
                            x       y       z     vdW  Elec       q    Type
                         _______ _______ _______ _____ _____    ______ ____

>  <TORSDO>
F 2

$$$$
=
 OpenBabel11112416583D

 31 35  0  0  1  0  0  0  0  0999 V2000
  185.4120  177.9980  140.9910 C   0  0  0  0  0  0  0  0  0  0  0  0
  187.2420  176.8620  144.0800 C   0  0  0  0  0  0  0  0  0  0  0  0
  186.4640  177.2720  145.2070 C   0  0  0  0  0  0  0  0  0  0  0  0
  184.5130  178.3540  146.2080 C   0  0  0  0  0  0  0  0  0  0  0  0
  186.8910  177.1030  142.7170 C   0  0  0  0  0  0  0  0  0  0  0  0
  186.2730  177.5380  139.9960 C   0  0  0  0  0  3  0  0  0  0  0  0
  185.2480  177.9690  145.0840 C   0  0  0  0  0  3  0  0  0  0  0  0
  189.2640  175.7320  143.2810 C   0  0  0  0  0  0  0  0  0  0  0  0
  184.2770  178.6550  140.6530 F   0  0  0  0  0  0  0  0  0  0  0  0
  188.1140  176.2870  146.6910 C   0  0  0  0  0  3  0  0  0  0  0  0
  183.3170  179.0400  146.0530 O   0  0  0  0  0  1  0  0  0  0  0  0
  188.8960  175.9820  142.0000 N   0  0  0  0  0  0  0  0  0  0  0  0
  188.4550  176.1620  144.3400 C   0  0  0  0  0  0  0  0  0  0  0  0
  190.4830  175.0320  143.5520 N   0  0  0  0  0  2  0  0  0  0  0  0
  185.7200  177.7820  142.3350 C   0  0  0  0  0  3  0  0  0  0  0  0
  184.9820  178.0490  147.4850 C   0  0  0  0  0  3  0  0  0  0  0  0
  187.7540  176.6420  141.6910 C   0  0  0  0  0  0  0  0  0  0  0  0
  187.4410  176.8620  140.3460 C   0  0  0  0  0  3  0  0  0  0  0  0
  188.8440  175.9030  145.6170 N   0  0  0  0  0  0  0  0  0  0  0  0
  186.9210  176.9720  146.5150 C   0  0  0  0  0  0  0  0  0  0  0  0
  186.1850  177.3590  147.6380 C   0  0  0  0  0  3  0  0  0  0  0  0
  191.4100  173.0090  142.5410 C   0  0  0  0  0  1  0  0  0  0  0  0
  191.3580  174.5270  142.5010 C   0  0  2  0  0  3  0  0  0  0  0  0
  195.3060  176.1850  142.9030 C   0  0  0  0  0  0  0  0  0  0  0  0
  193.2120  175.5030  143.9030 C   0  0  0  0  0  3  0  0  0  0  0  0
  193.1110  174.8790  140.2880 F   0  0  0  0  0  0  0  0  0  0  0  0
  196.5510  176.7070  143.0260 F   0  0  0  0  0  0  0  0  0  0  0  0
  194.4950  176.0400  144.0310 C   0  0  0  0  0  3  0  0  0  0  0  0
  193.5510  175.2540  141.5150 C   0  0  0  0  0  0  0  0  0  0  0  0
  192.7310  175.1070  142.6450 C   0  0  0  0  0  0  0  0  0  0  0  0
  194.8350  175.7930  141.6480 C   0  0  0  0  0  3  0  0  0  0  0  0
  1 15  1  0  0  0  0
  2 13  2  0  0  0  0
  2  3  1  0  0  0  0
  3 20  1  0  0  0  0
  4 16  2  0  0  0  0
  5  2  1  0  0  0  0
  6 18  1  0  0  0  0
  6  1  2  0  0  0  0
  7  3  2  0  0  0  0
  7  4  1  0  0  0  0
  8 14  1  0  0  0  0
  8 13  1  0  0  0  0
  9  1  1  0  0  0  0
 11  4  1  0  0  0  0
 12  8  2  0  0  0  0
 13 19  1  0  0  0  0
 15  5  2  0  0  0  0
 16 21  1  0  0  0  0
 17 12  1  0  0  0  0
 17  5  1  0  0  0  0
 18 17  2  0  0  0  0
 19 10  2  0  0  0  0
 20 10  1  0  0  0  0
 20 21  2  0  0  0  0
 23 22  1  1  0  0  0
 23 30  1  0  0  0  0
 23 14  1  0  0  0  0
 24 27  1  0  0  0  0
 24 28  1  0  0  0  0
 25 28  2  0  0  0  0
 26 29  1  0  0  0  0
 29 31  1  0  0  0  0
 29 30  2  0  0  0  0
 30 25  1  0  0  0  0
 31 24  2  0  0  0  0
M  END
>  <MODEL>
3

>  <REMARK>
 VINA RESULT:      -9.5      2.611      4.631
  Name = 
  2 active torsions:
  status: ('A' for Active; 'I' for Inactive)
    1  A    between atoms: C_5  and  N_16
    2  A    between atoms: C_5  and  C_30
                            x       y       z     vdW  Elec       q    Type
                         _______ _______ _______ _____ _____    ______ ____

>  <TORSDO>
F 2

$$$$
=
 OpenBabel11112416583D

 31 35  0  0  1  0  0  0  0  0999 V2000
  191.2880  171.0900  142.8320 C   0  0  0  0  0  0  0  0  0  0  0  0
  191.8590  174.4800  144.3710 C   0  0  0  0  0  0  0  0  0  0  0  0
  193.1740  174.4740  144.9290 C   0  0  0  0  0  0  0  0  0  0  0  0
  195.3080  173.3870  145.4230 C   0  0  0  0  0  0  0  0  0  0  0  0
  191.2570  173.3770  143.6930 C   0  0  0  0  0  0  0  0  0  0  0  0
  189.9930  171.2440  142.3400 C   0  0  0  0  0  3  0  0  0  0  0  0
  194.0270  173.3570  144.8660 C   0  0  0  0  0  3  0  0  0  0  0  0
  189.7990  175.7480  143.9760 C   0  0  0  0  0  0  0  0  0  0  0  0
  191.9420  169.9160  142.6620 F   0  0  0  0  0  0  0  0  0  0  0  0
  192.8580  176.7650  145.6690 C   0  0  0  0  0  3  0  0  0  0  0  0
  196.1250  172.2690  145.3440 O   0  0  0  0  0  1  0  0  0  0  0  0
  189.2630  174.6770  143.3400 N   0  0  0  0  0  0  0  0  0  0  0  0
  191.0960  175.6750  144.5010 C   0  0  0  0  0  0  0  0  0  0  0  0
  189.0390  176.9520  144.1150 N   0  0  0  0  0  2  0  0  0  0  0  0
  191.9110  172.1460  143.5000 C   0  0  0  0  0  3  0  0  0  0  0  0
  195.7650  174.5410  146.0590 C   0  0  0  0  0  3  0  0  0  0  0  0
  189.9410  173.5140  143.1850 C   0  0  0  0  0  0  0  0  0  0  0  0
  189.3210  172.4530  142.5170 C   0  0  0  0  0  3  0  0  0  0  0  0
  191.6140  176.7600  145.1370 N   0  0  0  0  0  0  0  0  0  0  0  0
  193.6600  175.6360  145.5800 C   0  0  0  0  0  0  0  0  0  0  0  0
  194.9410  175.6640  146.1370 C   0  0  0  0  0  3  0  0  0  0  0  0
  187.7060  178.1250  142.4340 C   0  0  0  0  0  1  0  0  0  0  0  0
  187.6980  177.1110  143.5660 C   0  0  2  0  0  3  0  0  0  0  0  0
  184.9550  178.2950  146.6610 C   0  0  0  0  0  0  0  0  0  0  0  0
  185.9200  178.6530  144.4720 C   0  0  0  0  0  3  0  0  0  0  0  0
  187.4450  175.6960  146.0210 F   0  0  0  0  0  0  0  0  0  0  0  0
  184.0910  178.6660  147.6370 F   0  0  0  0  0  0  0  0  0  0  0  0
  185.0300  179.0350  145.4780 C   0  0  0  0  0  3  0  0  0  0  0  0
  186.6620  176.7880  145.8320 C   0  0  0  0  0  0  0  0  0  0  0  0
  186.7420  177.5280  144.6420 C   0  0  0  0  0  0  0  0  0  0  0  0
  185.7690  177.1740  146.8370 C   0  0  0  0  0  3  0  0  0  0  0  0
  1 15  1  0  0  0  0
  2 13  2  0  0  0  0
  2  3  1  0  0  0  0
  3 20  1  0  0  0  0
  4 16  2  0  0  0  0
  5  2  1  0  0  0  0
  6 18  1  0  0  0  0
  6  1  2  0  0  0  0
  7  3  2  0  0  0  0
  7  4  1  0  0  0  0
  8 14  1  0  0  0  0
  8 13  1  0  0  0  0
  9  1  1  0  0  0  0
 11  4  1  0  0  0  0
 12  8  2  0  0  0  0
 13 19  1  0  0  0  0
 15  5  2  0  0  0  0
 16 21  1  0  0  0  0
 17 12  1  0  0  0  0
 17  5  1  0  0  0  0
 18 17  2  0  0  0  0
 19 10  2  0  0  0  0
 20 10  1  0  0  0  0
 20 21  2  0  0  0  0
 23 22  1  6  0  0  0
 23 14  1  0  0  0  0
 23 30  1  0  0  0  0
 24 31  1  0  0  0  0
 24 27  1  0  0  0  0
 25 30  2  0  0  0  0
 25 28  1  0  0  0  0
 28 24  2  0  0  0  0
 29 26  1  0  0  0  0
 29 31  2  0  0  0  0
 30 29  1  0  0  0  0
M  END
>  <MODEL>
4

>  <REMARK>
 VINA RESULT:      -9.1      3.613      8.590
  Name = 
  2 active torsions:
  status: ('A' for Active; 'I' for Inactive)
    1  A    between atoms: C_5  and  N_16
    2  A    between atoms: C_5  and  C_30
                            x       y       z     vdW  Elec       q    Type
                         _______ _______ _______ _____ _____    ______ ____

>  <TORSDO>
F 2

$$$$
=
 OpenBabel11112416583D

 31 35  0  0  1  0  0  0  0  0999 V2000
  190.8860  176.8770  147.5760 C   0  0  0  0  0  0  0  0  0  0  0  0
  188.4980  176.2740  144.7260 C   0  0  0  0  0  0  0  0  0  0  0  0
  187.3080  177.0130  145.0100 C   0  0  0  0  0  0  0  0  0  0  0  0
  185.9720  178.5030  146.4140 C   0  0  0  0  0  0  0  0  0  0  0  0
  189.6530  176.2380  145.5660 C   0  0  0  0  0  0  0  0  0  0  0  0
  191.9760  176.1090  147.1670 C   0  0  0  0  0  3  0  0  0  0  0  0
  187.1500  177.7940  146.1690 C   0  0  0  0  0  3  0  0  0  0  0  0
  189.6690  174.7760  143.1800 C   0  0  0  0  0  0  0  0  0  0  0  0
  190.9410  177.5630  148.7420 F   0  0  0  0  0  0  0  0  0  0  0  0
  186.3310  176.2120  142.9360 C   0  0  0  0  0  3  0  0  0  0  0  0
  185.8480  179.2660  147.5660 O   0  0  0  0  0  1  0  0  0  0  0  0
  190.7440  174.7670  144.0050 N   0  0  0  0  0  0  0  0  0  0  0  0
  188.5320  175.5220  143.5180 C   0  0  0  0  0  0  0  0  0  0  0  0
  189.6920  174.0210  141.9650 N   0  0  0  0  0  2  0  0  0  0  0  0
  189.7390  176.9390  146.7820 C   0  0  0  0  0  3  0  0  0  0  0  0
  184.9200  178.4450  145.5000 C   0  0  0  0  0  3  0  0  0  0  0  0
  190.7710  175.4630  145.1670 C   0  0  0  0  0  0  0  0  0  0  0  0
  191.9170  175.4040  145.9660 C   0  0  0  0  0  3  0  0  0  0  0  0
  187.4630  175.5160  142.6770 N   0  0  0  0  0  0  0  0  0  0  0  0
  186.2270  176.9680  144.0950 C   0  0  0  0  0  0  0  0  0  0  0  0
  185.0480  177.6780  144.3410 C   0  0  0  0  0  3  0  0  0  0  0  0
  191.9540  174.1770  141.0500 C   0  0  0  0  0  1  0  0  0  0  0  0
  190.8500  173.2490  141.5330 C   0  0  2  0  0  3  0  0  0  0  0  0
  189.7430  170.4760  138.4370 C   0  0  0  0  0  0  0  0  0  0  0  0
  189.5950  172.6810  139.4210 C   0  0  0  0  0  3  0  0  0  0  0  0
  191.8030  170.5700  141.4550 F   0  0  0  0  0  0  0  0  0  0  0  0
  189.3960  169.6000  137.4630 F   0  0  0  0  0  0  0  0  0  0  0  0
  189.2380  171.7780  138.4170 C   0  0  0  0  0  3  0  0  0  0  0  0
  190.9650  170.9760  140.4690 C   0  0  0  0  0  0  0  0  0  0  0  0
  190.4600  172.2860  140.4540 C   0  0  0  0  0  0  0  0  0  0  0  0
  190.6040  170.0760  139.4610 C   0  0  0  0  0  3  0  0  0  0  0  0
  1  9  1  0  0  0  0
  2  3  1  0  0  0  0
  2  5  1  0  0  0  0
  3  7  1  0  0  0  0
  4 11  1  0  0  0  0
  5 15  1  0  0  0  0
  6  1  1  0  0  0  0
  7  4  2  0  0  0  0
  8 13  1  0  0  0  0
  8 12  2  0  0  0  0
 10 20  1  0  0  0  0
 12 17  1  0  0  0  0
 13  2  2  0  0  0  0
 14  8  1  0  0  0  0
 15  1  2  0  0  0  0
 16  4  1  0  0  0  0
 17  5  2  0  0  0  0
 17 18  1  0  0  0  0
 18  6  2  0  0  0  0
 19 10  2  0  0  0  0
 19 13  1  0  0  0  0
 20 21  1  0  0  0  0
 20  3  2  0  0  0  0
 21 16  2  0  0  0  0
 23 22  1  6  0  0  0
 23 14  1  0  0  0  0
 24 31  1  0  0  0  0
 25 30  2  0  0  0  0
 27 24  1  0  0  0  0
 28 24  2  0  0  0  0
 28 25  1  0  0  0  0
 29 26  1  0  0  0  0
 30 29  1  0  0  0  0
 30 23  1  0  0  0  0
 31 29  2  0  0  0  0
M  END
>  <MODEL>
5

>  <REMARK>
 VINA RESULT:      -9.0      3.895      6.252
  Name = 
  2 active torsions:
  status: ('A' for Active; 'I' for Inactive)
    1  A    between atoms: C_5  and  N_16
    2  A    between atoms: C_5  and  C_30
                            x       y       z     vdW  Elec       q    Type
                         _______ _______ _______ _____ _____    ______ ____

>  <TORSDO>
F 2

$$$$
=
 OpenBabel11112416583D

 31 35  0  0  1  0  0  0  0  0999 V2000
  195.3040  176.1720  143.9350 C   0  0  0  0  0  0  0  0  0  0  0  0
  191.9440  174.9920  142.7070 C   0  0  0  0  0  0  0  0  0  0  0  0
  192.1580  174.3390  141.4540 C   0  0  0  0  0  0  0  0  0  0  0  0
  193.6020  173.5650  139.6390 C   0  0  0  0  0  0  0  0  0  0  0  0
  192.9720  175.5830  143.5030 C   0  0  0  0  0  0  0  0  0  0  0  0
  194.9410  176.7770  145.1380 C   0  0  0  0  0  3  0  0  0  0  0  0
  193.4300  174.2100  140.8660 C   0  0  0  0  0  3  0  0  0  0  0  0
  190.3290  175.6810  144.4160 C   0  0  0  0  0  0  0  0  0  0  0  0
  196.6010  176.1570  143.5480 F   0  0  0  0  0  0  0  0  0  0  0  0
  189.7770  173.8910  141.2940 C   0  0  0  0  0  3  0  0  0  0  0  0
  194.8690  173.4540  139.0860 O   0  0  0  0  0  1  0  0  0  0  0  0
  191.3330  176.2320  145.1420 N   0  0  0  0  0  0  0  0  0  0  0  0
  190.6080  175.0560  143.1940 C   0  0  0  0  0  0  0  0  0  0  0  0
  188.9820  175.7430  144.8960 N   0  0  0  0  0  2  0  0  0  0  0  0
  194.3280  175.5830  143.1290 C   0  0  0  0  0  3  0  0  0  0  0  0
  192.5000  173.0330  138.9700 C   0  0  0  0  0  3  0  0  0  0  0  0
  192.6230  176.2020  144.7300 C   0  0  0  0  0  0  0  0  0  0  0  0
  193.6040  176.7910  145.5340 C   0  0  0  0  0  3  0  0  0  0  0  0
  189.5850  174.5110  142.4810 N   0  0  0  0  0  0  0  0  0  0  0  0
  191.0520  173.7910  140.7570 C   0  0  0  0  0  0  0  0  0  0  0  0
  191.2260  173.1460  139.5290 C   0  0  0  0  0  3  0  0  0  0  0  0
  188.5670  175.2910  147.2630 C   0  0  0  0  0  1  0  0  0  0  0  0
  188.6220  176.3490  146.1720 C   0  0  2  0  0  3  0  0  0  0  0  0
  184.8530  178.3950  145.8370 C   0  0  0  0  0  0  0  0  0  0  0  0
  186.2660  176.7840  146.9600 C   0  0  0  0  0  3  0  0  0  0  0  0
  188.1000  178.2910  144.1600 F   0  0  0  0  0  0  0  0  0  0  0  0
  183.6670  179.0420  145.7290 F   0  0  0  0  0  0  0  0  0  0  0  0
  185.0440  177.4510  146.8490 C   0  0  0  0  0  3  0  0  0  0  0  0
  187.1100  178.0080  145.0440 C   0  0  0  0  0  0  0  0  0  0  0  0
  187.3070  177.0580  146.0580 C   0  0  0  0  0  0  0  0  0  0  0  0
  185.8850  178.6730  144.9360 C   0  0  0  0  0  3  0  0  0  0  0  0
  1  6  1  0  0  0  0
  2 13  1  0  0  0  0
  2  5  1  0  0  0  0
  3  2  2  0  0  0  0
  4  7  2  0  0  0  0
  5 17  2  0  0  0  0
  6 18  2  0  0  0  0
  7  3  1  0  0  0  0
  8 14  1  0  0  0  0
  8 12  2  0  0  0  0
  9  1  1  0  0  0  0
 10 19  1  0  0  0  0
 11  4  1  0  0  0  0
 13  8  1  0  0  0  0
 14 23  1  0  0  0  0
 15  5  1  0  0  0  0
 15  1  2  0  0  0  0
 16 21  2  0  0  0  0
 16  4  1  0  0  0  0
 17 12  1  0  0  0  0
 17 18  1  0  0  0  0
 19 13  2  0  0  0  0
 20 10  2  0  0  0  0
 20  3  1  0  0  0  0
 21 20  1  0  0  0  0
 23 22  1  1  0  0  0
 24 28  1  0  0  0  0
 26 29  1  0  0  0  0
 27 24  1  0  0  0  0
 28 25  2  0  0  0  0
 29 30  2  0  0  0  0
 30 23  1  0  0  0  0
 30 25  1  0  0  0  0
 31 29  1  0  0  0  0
 31 24  2  0  0  0  0
M  END
>  <MODEL>
6

>  <REMARK>
 VINA RESULT:      -8.9      3.710      7.883
  Name = 
  2 active torsions:
  status: ('A' for Active; 'I' for Inactive)
    1  A    between atoms: C_5  and  N_16
    2  A    between atoms: C_5  and  C_30
                            x       y       z     vdW  Elec       q    Type
                         _______ _______ _______ _____ _____    ______ ____

>  <TORSDO>
F 2

$$$$
=
 OpenBabel11112416583D

 31 35  0  0  1  0  0  0  0  0999 V2000
  188.5680  174.5390  140.5930 C   0  0  0  0  0  0  0  0  0  0  0  0
  187.9150  176.5160  143.7320 C   0  0  0  0  0  0  0  0  0  0  0  0
  186.7850  177.3530  143.4760 C   0  0  0  0  0  0  0  0  0  0  0  0
  185.0060  178.1990  142.0290 C   0  0  0  0  0  0  0  0  0  0  0  0
  188.4840  175.6070  142.7900 C   0  0  0  0  0  0  0  0  0  0  0  0
  189.6730  173.7860  140.9880 C   0  0  0  0  0  3  0  0  0  0  0  0
  186.1070  177.3670  142.2440 C   0  0  0  0  0  3  0  0  0  0  0  0
  189.6220  175.8020  145.3380 C   0  0  0  0  0  0  0  0  0  0  0  0
  188.0630  174.3980  139.3450 F   0  0  0  0  0  0  0  0  0  0  0  0
  186.9470  178.2410  145.7310 C   0  0  0  0  0  3  0  0  0  0  0  0
  184.3580  178.1890  140.8020 O   0  0  0  0  0  1  0  0  0  0  0  0
  190.1340  174.9520  144.4150 N   0  0  0  0  0  0  0  0  0  0  0  0
  188.5120  176.5960  145.0220 C   0  0  0  0  0  0  0  0  0  0  0  0
  190.2180  175.8920  146.6370 N   0  0  0  0  0  2  0  0  0  0  0  0
  187.9820  175.4380  141.4870 C   0  0  0  0  0  3  0  0  0  0  0  0
  184.5580  179.0400  143.0470 C   0  0  0  0  0  3  0  0  0  0  0  0
  189.6080  174.8320  143.1720 C   0  0  0  0  0  0  0  0  0  0  0  0
  190.1920  173.9330  142.2740 C   0  0  0  0  0  3  0  0  0  0  0  0
  188.0150  177.4440  145.9630 N   0  0  0  0  0  0  0  0  0  0  0  0
  186.3130  178.2160  144.4970 C   0  0  0  0  0  0  0  0  0  0  0  0
  185.2110  179.0490  144.2800 C   0  0  0  0  0  3  0  0  0  0  0  0
  191.5650  175.1800  148.5480 C   0  0  0  0  0  1  0  0  0  0  0  0
  191.3530  175.0740  147.0460 C   0  0  2  0  0  3  0  0  0  0  0  0
  194.9020  176.2580  144.9240 C   0  0  0  0  0  0  0  0  0  0  0  0
  193.0960  176.7930  146.4430 C   0  0  0  0  0  3  0  0  0  0  0  0
  192.7770  173.3110  145.3270 F   0  0  0  0  0  0  0  0  0  0  0  0
  196.0200  176.6280  144.2540 F   0  0  0  0  0  0  0  0  0  0  0  0
  194.2490  177.1740  145.7530 C   0  0  0  0  0  3  0  0  0  0  0  0
  193.2470  174.5750  145.4740 C   0  0  0  0  0  0  0  0  0  0  0  0
  192.5870  175.4920  146.3080 C   0  0  0  0  0  0  0  0  0  0  0  0
  194.4010  174.9610  144.7850 C   0  0  0  0  0  3  0  0  0  0  0  0
  1  6  2  0  0  0  0
  1 15  1  0  0  0  0
  2 13  1  0  0  0  0
  3  2  2  0  0  0  0
  3 20  1  0  0  0  0
  4  7  2  0  0  0  0
  4 16  1  0  0  0  0
  5 17  1  0  0  0  0
  5  2  1  0  0  0  0
  6 18  1  0  0  0  0
  7  3  1  0  0  0  0
  8 14  1  0  0  0  0
  9  1  1  0  0  0  0
 10 19  1  0  0  0  0
 11  4  1  0  0  0  0
 12  8  2  0  0  0  0
 13  8  1  0  0  0  0
 13 19  2  0  0  0  0
 14 23  1  0  0  0  0
 15  5  2  0  0  0  0
 16 21  2  0  0  0  0
 17 12  1  0  0  0  0
 18 17  2  0  0  0  0
 20 10  2  0  0  0  0
 21 20  1  0  0  0  0
 23 22  1  1  0  0  0
 24 28  1  0  0  0  0
 26 29  1  0  0  0  0
 27 24  1  0  0  0  0
 28 25  2  0  0  0  0
 29 30  2  0  0  0  0
 30 25  1  0  0  0  0
 30 23  1  0  0  0  0
 31 24  2  0  0  0  0
 31 29  1  0  0  0  0
M  END
>  <MODEL>
7

>  <REMARK>
 VINA RESULT:      -8.9      2.229      3.983
  Name = 
  2 active torsions:
  status: ('A' for Active; 'I' for Inactive)
    1  A    between atoms: C_5  and  N_16
    2  A    between atoms: C_5  and  C_30
                            x       y       z     vdW  Elec       q    Type
                         _______ _______ _______ _____ _____    ______ ____

>  <TORSDO>
F 2

$$$$
=
 OpenBabel11112416583D

 31 35  0  0  1  0  0  0  0  0999 V2000
  185.0780  177.7110  146.6730 C   0  0  0  0  0  0  0  0  0  0  0  0
  186.9280  176.7580  143.5340 C   0  0  0  0  0  0  0  0  0  0  0  0
  186.1560  177.2310  142.4280 C   0  0  0  0  0  0  0  0  0  0  0  0
  184.2090  178.3660  141.4800 C   0  0  0  0  0  0  0  0  0  0  0  0
  186.5690  176.9190  144.9060 C   0  0  0  0  0  0  0  0  0  0  0  0
  185.9330  177.1940  147.6450 C   0  0  0  0  0  3  0  0  0  0  0  0
  184.9380  177.9180  142.5840 C   0  0  0  0  0  3  0  0  0  0  0  0
  188.9490  175.5890  144.2790 C   0  0  0  0  0  0  0  0  0  0  0  0
  183.9400  178.3460  147.0410 F   0  0  0  0  0  0  0  0  0  0  0  0
  187.8160  176.3360  140.9000 C   0  0  0  0  0  3  0  0  0  0  0  0
  183.0110  179.0410  141.6680 O   0  0  0  0  0  1  0  0  0  0  0  0
  188.5710  175.7610  145.5700 N   0  0  0  0  0  0  0  0  0  0  0  0
  188.1440  176.0780  143.2410 C   0  0  0  0  0  0  0  0  0  0  0  0
  190.1680  174.9030  143.9750 N   0  0  0  0  0  2  0  0  0  0  0  0
  185.3950  177.5740  145.3200 C   0  0  0  0  0  3  0  0  0  0  0  0
  184.6850  178.1350  140.1900 C   0  0  0  0  0  3  0  0  0  0  0  0
  187.4270  176.4010  145.9090 C   0  0  0  0  0  0  0  0  0  0  0  0
  187.1050  176.5400  147.2630 C   0  0  0  0  0  3  0  0  0  0  0  0
  188.5400  175.8920  141.9530 N   0  0  0  0  0  0  0  0  0  0  0  0
  186.6210  177.0080  141.1080 C   0  0  0  0  0  0  0  0  0  0  0  0
  185.8900  177.4570  140.0040 C   0  0  0  0  0  3  0  0  0  0  0  0
  190.3100  174.1430  146.2940 C   0  0  0  0  0  1  0  0  0  0  0  0
  191.0700  174.3970  145.0020 C   0  0  2  0  0  3  0  0  0  0  0  0
  194.2980  177.1660  145.6460 C   0  0  0  0  0  0  0  0  0  0  0  0
  192.3590  175.9830  146.4790 C   0  0  0  0  0  3  0  0  0  0  0  0
  192.9490  175.0670  142.9740 F   0  0  0  0  0  0  0  0  0  0  0  0
  195.3160  178.0380  145.8460 F   0  0  0  0  0  0  0  0  0  0  0  0
  193.4080  176.8810  146.6850 C   0  0  0  0  0  3  0  0  0  0  0  0
  193.0880  175.6530  144.1900 C   0  0  0  0  0  0  0  0  0  0  0  0
  192.1910  175.3630  145.2300 C   0  0  0  0  0  0  0  0  0  0  0  0
  194.1380  176.5530  144.4010 C   0  0  0  0  0  3  0  0  0  0  0  0
  1  9  1  0  0  0  0
  1  6  1  0  0  0  0
  2  5  1  0  0  0  0
  3  7  1  0  0  0  0
  3  2  2  0  0  0  0
  4 11  1  0  0  0  0
  4  7  2  0  0  0  0
  5 15  1  0  0  0  0
  5 17  2  0  0  0  0
  8 12  2  0  0  0  0
 10 20  2  0  0  0  0
 10 19  1  0  0  0  0
 12 17  1  0  0  0  0
 13  2  1  0  0  0  0
 13  8  1  0  0  0  0
 14  8  1  0  0  0  0
 14 23  1  0  0  0  0
 15  1  2  0  0  0  0
 16  4  1  0  0  0  0
 17 18  1  0  0  0  0
 18  6  2  0  0  0  0
 19 13  2  0  0  0  0
 20  3  1  0  0  0  0
 21 16  2  0  0  0  0
 21 20  1  0  0  0  0
 23 30  1  0  0  0  0
 23 22  1  1  0  0  0
 24 27  1  0  0  0  0
 24 28  1  0  0  0  0
 25 28  2  0  0  0  0
 26 29  1  0  0  0  0
 29 31  1  0  0  0  0
 29 30  2  0  0  0  0
 30 25  1  0  0  0  0
 31 24  2  0  0  0  0
M  END
>  <MODEL>
8

>  <REMARK>
 VINA RESULT:      -8.7      1.430      1.612
  Name = 
  2 active torsions:
  status: ('A' for Active; 'I' for Inactive)
    1  A    between atoms: C_5  and  N_16
    2  A    between atoms: C_5  and  C_30
                            x       y       z     vdW  Elec       q    Type
                         _______ _______ _______ _____ _____    ______ ____

>  <TORSDO>
F 2

$$$$
=
 OpenBabel11112416583D

 31 35  0  0  1  0  0  0  0  0999 V2000
  194.4220  175.2350  141.7150 C   0  0  0  0  0  0  0  0  0  0  0  0
  190.8130  174.1640  141.5960 C   0  0  0  0  0  0  0  0  0  0  0  0
  190.6610  173.3190  140.4540 C   0  0  0  0  0  0  0  0  0  0  0  0
  191.5400  172.1730  138.4810 C   0  0  0  0  0  0  0  0  0  0  0  0
  192.0380  174.7800  141.9960 C   0  0  0  0  0  0  0  0  0  0  0  0
  194.4170  176.0370  142.8560 C   0  0  0  0  0  3  0  0  0  0  0  0
  191.7250  173.0020  139.5890 C   0  0  0  0  0  3  0  0  0  0  0  0
  189.7380  175.2260  143.5250 C   0  0  0  0  0  0  0  0  0  0  0  0
  195.5690  175.0580  141.0170 F   0  0  0  0  0  0  0  0  0  0  0  0
  188.3070  173.0480  140.9830 C   0  0  0  0  0  3  0  0  0  0  0  0
  192.6100  171.8790  137.6480 O   0  0  0  0  0  1  0  0  0  0  0  0
  190.9200  175.7940  143.8700 N   0  0  0  0  0  0  0  0  0  0  0  0
  189.6580  174.4070  142.3910 C   0  0  0  0  0  0  0  0  0  0  0  0
  188.5700  175.4670  144.3170 N   0  0  0  0  0  2  0  0  0  0  0  0
  193.2450  174.6150  141.2920 C   0  0  0  0  0  3  0  0  0  0  0  0
  190.2790  171.6390  138.2120 C   0  0  0  0  0  3  0  0  0  0  0  0
  192.0530  175.5990  143.1530 C   0  0  0  0  0  0  0  0  0  0  0  0
  193.2340  176.2180  143.5720 C   0  0  0  0  0  3  0  0  0  0  0  0
  188.4620  173.8490  142.0620 N   0  0  0  0  0  0  0  0  0  0  0  0
  189.3890  172.7660  140.1610 C   0  0  0  0  0  0  0  0  0  0  0  0
  189.2050  171.9360  139.0520 C   0  0  0  0  0  3  0  0  0  0  0  0
  188.8510  175.4110  146.7450 C   0  0  0  0  0  1  0  0  0  0  0  0
  188.5860  176.2800  145.5260 C   0  0  2  0  0  3  0  0  0  0  0  0
  184.8690  178.4040  145.9430 C   0  0  0  0  0  0  0  0  0  0  0  0
  186.4270  176.7370  146.7460 C   0  0  0  0  0  3  0  0  0  0  0  0
  187.7470  178.2860  143.6920 F   0  0  0  0  0  0  0  0  0  0  0  0
  183.6980  179.0750  146.0710 F   0  0  0  0  0  0  0  0  0  0  0  0
  185.2210  177.4290  146.8790 C   0  0  0  0  0  3  0  0  0  0  0  0
  186.9310  177.9970  144.7360 C   0  0  0  0  0  0  0  0  0  0  0  0
  187.2900  177.0160  145.6740 C   0  0  0  0  0  0  0  0  0  0  0  0
  185.7220  178.6870  144.8730 C   0  0  0  0  0  3  0  0  0  0  0  0
  1  6  1  0  0  0  0
  2  5  1  0  0  0  0
  2 13  1  0  0  0  0
  3  2  2  0  0  0  0
  4  7  2  0  0  0  0
  5 17  2  0  0  0  0
  6 18  2  0  0  0  0
  7  3  1  0  0  0  0
  8 12  2  0  0  0  0
  8 14  1  0  0  0  0
  9  1  1  0  0  0  0
 10 19  1  0  0  0  0
 11  4  1  0  0  0  0
 13  8  1  0  0  0  0
 14 23  1  0  0  0  0
 15  1  2  0  0  0  0
 15  5  1  0  0  0  0
 16  4  1  0  0  0  0
 16 21  2  0  0  0  0
 17 18  1  0  0  0  0
 17 12  1  0  0  0  0
 19 13  2  0  0  0  0
 20  3  1  0  0  0  0
 20 10  2  0  0  0  0
 21 20  1  0  0  0  0
 23 30  1  0  0  0  0
 23 22  1  1  0  0  0
 24 27  1  0  0  0  0
 24 28  1  0  0  0  0
 25 28  2  0  0  0  0
 26 29  1  0  0  0  0
 29 31  1  0  0  0  0
 29 30  2  0  0  0  0
 30 25  1  0  0  0  0
 31 24  2  0  0  0  0
M  END
>  <MODEL>
9

>  <REMARK>
 VINA RESULT:      -8.7      3.979      7.810
  Name = 
  2 active torsions:
  status: ('A' for Active; 'I' for Inactive)
    1  A    between atoms: C_5  and  N_16
    2  A    between atoms: C_5  and  C_30
                            x       y       z     vdW  Elec       q    Type
                         _______ _______ _______ _____ _____    ______ ____

>  <TORSDO>
F 2

$$$$
