=
 OpenBabel11112416123D

 30 35  0  0  1  0  0  0  0  0999 V2000
  186.7820  177.4190  144.2600 C   0  0  0  0  0  0  0  0  0  0  0  0
  185.0530  178.4260  145.7560 C   0  0  0  0  0  0  0  0  0  0  0  0
  189.5480  177.2470  147.4230 N   0  0  0  0  0  2  0  0  0  0  0  0
  188.0920  176.9000  144.0790 C   0  0  0  0  0  0  0  0  0  0  0  0
  185.9030  177.4820  143.1320 N   0  0  0  0  0  2  0  0  0  0  0  0
  188.0020  176.3230  140.4880 O   0  0  0  0  0  0  0  0  0  0  0  0
  190.9540  176.3770  142.9210 C   0  0  1  0  0  3  0  0  0  0  0  0
  187.5840  176.5110  141.6640 C   0  0  0  0  0  0  0  0  0  0  0  0
  191.2520  176.3370  144.3650 C   0  0  0  0  0  0  0  0  0  0  0  0
  190.7430  176.6880  146.8010 C   0  0  1  0  0  3  0  0  0  0  0  0
  186.1240  176.7460  141.8950 C   0  0  2  0  0  3  0  0  0  0  0  0
  188.4830  176.3870  142.7790 N   0  0  0  0  0  0  0  0  0  0  0  0
  184.6850  178.8680  147.0300 C   0  0  0  0  0  3  0  0  0  0  0  0
  192.6630  176.0120  144.5650 C   0  0  0  0  0  2  0  0  0  0  0  0
  192.0700  175.8430  142.2510 O   0  0  0  0  0  0  0  0  0  0  0  0
  184.1120  178.5170  144.7380 O   0  0  0  0  0  1  0  0  0  0  0  0
  188.5370  177.3480  146.4260 C   0  0  0  0  0  0  0  0  0  0  0  0
  185.5800  178.8010  148.0950 C   0  0  0  0  0  3  0  0  0  0  0  0
  186.3530  177.9010  145.5320 C   0  0  0  0  0  0  0  0  0  0  0  0
  188.9610  176.9240  145.1930 C   0  0  0  0  0  0  0  0  0  0  0  0
  191.0150  175.3140  147.3880 C   0  0  0  0  0  1  0  0  0  0  0  0
  190.3760  176.5710  145.3460 C   0  0  0  0  0  0  0  0  0  0  0  0
  193.1660  175.9510  143.1370 C   0  0  0  0  0  2  0  0  0  0  0  0
  189.5940  174.2090  143.1700 C   0  0  0  0  0  1  0  0  0  0  0  0
  186.8600  178.2910  147.8960 C   0  0  0  0  0  3  0  0  0  0  0  0
  187.2530  177.8440  146.6300 C   0  0  0  0  0  0  0  0  0  0  0  0
  189.6970  175.6000  142.5530 C   0  0  2  0  0  3  0  0  0  0  0  0
  185.5600  177.4510  140.8290 O   0  0  0  0  0  0  0  0  0  0  0  0
  183.3450  178.2650  140.5480 C   0  0  0  0  0  1  0  0  0  0  0  0
  184.5890  178.2670  141.4110 C   0  0  0  0  0  2  0  0  0  0  0  0
  1 19  1  0  0  0  0
  2 13  1  0  0  0  0
  4  1  2  0  0  0  0
  4 20  1  0  0  0  0
  5  1  1  0  0  0  0
  6  8  2  0  0  0  0
  7 15  1  6  0  0  0
  7  9  1  0  0  0  0
  8 11  1  0  0  0  0
  8 12  1  0  0  0  0
  9 14  1  0  0  0  0
  9 22  2  0  0  0  0
 10 21  1  1  0  0  0
 10  3  1  0  0  0  0
 11 28  1  6  0  0  0
 11  5  1  0  0  0  0
 12  4  1  0  0  0  0
 13 18  2  0  0  0  0
 15 23  1  0  0  0  0
 16  2  1  0  0  0  0
 17 26  1  0  0  0  0
 17  3  1  0  0  0  0
 19  2  2  0  0  0  0
 19 26  1  0  0  0  0
 20 22  1  0  0  0  0
 20 17  2  0  0  0  0
 22 10  1  0  0  0  0
 23 14  1  0  0  0  0
 25 18  1  0  0  0  0
 26 25  2  0  0  0  0
 27 12  1  0  0  0  0
 27  7  1  0  0  0  0
 27 24  1  1  0  0  0
 28 30  1  0  0  0  0
 29 30  1  0  0  0  0
M  END
>  <MODEL>
1

>  <REMARK>
 VINA RESULT:      -8.4      0.000      0.000
  Name = 
  2 active torsions:
  status: ('A' for Active; 'I' for Inactive)
    1  A    between atoms: C_11  and  O_28
    2  A    between atoms: O_28  and  C_30
                            x       y       z     vdW  Elec       q    Type
                         _______ _______ _______ _____ _____    ______ ____

>  <TORSDO>
F 2

$$$$
=
 OpenBabel11112416123D

 30 35  0  0  1  0  0  0  0  0999 V2000
  187.7950  175.8520  141.4750 C   0  0  0  0  0  0  0  0  0  0  0  0
  189.5220  174.1540  140.8590 C   0  0  0  0  0  0  0  0  0  0  0  0
  188.7180  175.4380  145.5570 N   0  0  0  0  0  2  0  0  0  0  0  0
  187.1200  176.6030  142.4730 C   0  0  0  0  0  0  0  0  0  0  0  0
  187.4060  176.0150  140.1070 N   0  0  0  0  0  2  0  0  0  0  0  0
  184.6630  178.2820  140.3790 O   0  0  0  0  0  0  0  0  0  0  0  0
  184.8510  177.9210  144.1840 C   0  0  1  0  0  3  0  0  0  0  0  0
  185.7150  177.6620  140.6990 C   0  0  0  0  0  0  0  0  0  0  0  0
  185.7910  177.5430  145.2550 C   0  0  0  0  0  0  0  0  0  0  0  0
  187.7870  176.3510  146.2120 C   0  0  1  0  0  3  0  0  0  0  0  0
  186.6120  177.1340  139.6220 C   0  0  2  0  0  3  0  0  0  0  0  0
  186.1050  177.5630  142.0790 N   0  0  0  0  0  0  0  0  0  0  0  0
  190.5300  173.2730  141.2600 C   0  0  0  0  0  3  0  0  0  0  0  0
  185.2790  178.0070  146.5430 C   0  0  0  0  0  2  0  0  0  0  0  0
  183.9190  178.8140  144.7440 O   0  0  0  0  0  0  0  0  0  0  0  0
  189.2400  174.2460  139.5010 O   0  0  0  0  0  1  0  0  0  0  0  0
  188.4870  175.5020  144.1540 C   0  0  0  0  0  0  0  0  0  0  0  0
  190.8630  173.1370  142.6060 C   0  0  0  0  0  3  0  0  0  0  0  0
  188.8210  174.9240  141.8240 C   0  0  0  0  0  0  0  0  0  0  0  0
  187.4720  176.3620  143.8200 C   0  0  0  0  0  0  0  0  0  0  0  0
  188.5670  177.4880  146.8470 C   0  0  0  0  0  1  0  0  0  0  0  0
  186.9320  176.8690  145.0860 C   0  0  0  0  0  0  0  0  0  0  0  0
  183.9450  178.6040  146.1410 C   0  0  0  0  0  2  0  0  0  0  0  0
  186.5580  179.6470  143.3360 C   0  0  0  0  0  1  0  0  0  0  0  0
  190.1880  173.8820  143.5690 C   0  0  0  0  0  3  0  0  0  0  0  0
  189.1740  174.7690  143.1910 C   0  0  0  0  0  0  0  0  0  0  0  0
  185.5430  178.5640  142.9880 C   0  0  2  0  0  3  0  0  0  0  0  0
  185.8680  176.7290  138.5110 O   0  0  0  0  0  0  0  0  0  0  0  0
  186.2980  176.1160  136.2550 C   0  0  0  0  0  1  0  0  0  0  0  0
  186.7820  176.0690  137.6890 C   0  0  0  0  0  2  0  0  0  0  0  0
  1 19  2  0  0  0  0
  1  4  1  0  0  0  0
  2 13  2  0  0  0  0
  2 19  1  0  0  0  0
  3 10  1  0  0  0  0
  4 20  2  0  0  0  0
  5  1  1  0  0  0  0
  6  8  2  0  0  0  0
  7 15  1  1  0  0  0
  7  9  1  0  0  0  0
  8 12  1  0  0  0  0
  9 14  1  0  0  0  0
 10 21  1  6  0  0  0
 11 28  1  6  0  0  0
 11  5  1  0  0  0  0
 11  8  1  0  0  0  0
 12  4  1  0  0  0  0
 12 27  1  0  0  0  0
 13 18  1  0  0  0  0
 15 23  1  0  0  0  0
 16  2  1  0  0  0  0
 17  3  1  0  0  0  0
 18 25  2  0  0  0  0
 19 26  1  0  0  0  0
 20 17  1  0  0  0  0
 20 22  1  0  0  0  0
 22  9  2  0  0  0  0
 22 10  1  0  0  0  0
 23 14  1  0  0  0  0
 26 25  1  0  0  0  0
 26 17  2  0  0  0  0
 27 24  1  1  0  0  0
 27  7  1  0  0  0  0
 29 30  1  0  0  0  0
 30 28  1  0  0  0  0
M  END
>  <MODEL>
2

>  <REMARK>
 VINA RESULT:      -8.2      2.104      5.731
  Name = 
  2 active torsions:
  status: ('A' for Active; 'I' for Inactive)
    1  A    between atoms: C_11  and  O_28
    2  A    between atoms: O_28  and  C_30
                            x       y       z     vdW  Elec       q    Type
                         _______ _______ _______ _____ _____    ______ ____

>  <TORSDO>
F 2

$$$$
=
 OpenBabel11112416123D

 30 35  0  0  1  0  0  0  0  0999 V2000
  188.4770  177.2830  146.3050 C   0  0  0  0  0  0  0  0  0  0  0  0
  186.5150  178.3910  147.3840 C   0  0  0  0  0  0  0  0  0  0  0  0
  186.2100  176.4190  142.8690 N   0  0  0  0  0  2  0  0  0  0  0  0
  189.0370  176.6010  145.1920 C   0  0  0  0  0  0  0  0  0  0  0  0
  189.2940  177.5130  147.4570 N   0  0  0  0  0  2  0  0  0  0  0  0
  192.3280  175.8600  146.5580 O   0  0  0  0  0  0  0  0  0  0  0  0
  190.5610  174.4870  143.4540 C   0  0  1  0  0  3  0  0  0  0  0  0
  191.2080  176.4250  146.4170 C   0  0  0  0  0  0  0  0  0  0  0  0
  189.4130  174.7640  142.5710 C   0  0  0  0  0  0  0  0  0  0  0  0
  187.1490  175.7010  142.0130 C   0  0  1  0  0  3  0  0  0  0  0  0
  190.7460  177.4070  147.4500 C   0  0  2  0  0  3  0  0  0  0  0  0
  190.4360  176.2150  145.2230 N   0  0  0  0  0  0  0  0  0  0  0  0
  185.1790  178.7960  147.3100 C   0  0  0  0  0  3  0  0  0  0  0  0
  189.5610  174.0130  141.3260 C   0  0  0  0  0  2  0  0  0  0  0  0
  191.5180  173.7960  142.6880 O   0  0  0  0  0  0  0  0  0  0  0  0
  187.2200  178.6840  148.5460 O   0  0  0  0  0  1  0  0  0  0  0  0
  186.8850  176.7620  144.0750 C   0  0  0  0  0  0  0  0  0  0  0  0
  184.4180  178.5360  146.1730 C   0  0  0  0  0  3  0  0  0  0  0  0
  187.1150  177.7050  146.2950 C   0  0  0  0  0  0  0  0  0  0  0  0
  188.1830  176.3190  144.1020 C   0  0  0  0  0  0  0  0  0  0  0  0
  187.4410  176.5390  140.7810 C   0  0  0  0  0  1  0  0  0  0  0  0
  188.3860  175.5670  142.8600 C   0  0  0  0  0  0  0  0  0  0  0  0
  190.8280  173.2270  141.5940 C   0  0  0  0  0  2  0  0  0  0  0  0
  191.4130  176.8790  143.0470 C   0  0  0  0  0  1  0  0  0  0  0  0
  184.9860  177.8640  145.0940 C   0  0  0  0  0  3  0  0  0  0  0  0
  186.3210  177.4480  145.1460 C   0  0  0  0  0  0  0  0  0  0  0  0
  191.1730  175.7510  144.0450 C   0  0  2  0  0  3  0  0  0  0  0  0
  191.1910  177.0350  148.7210 O   0  0  0  0  0  0  0  0  0  0  0  0
  191.5660  177.9160  150.8970 C   0  0  0  0  0  1  0  0  0  0  0  0
  191.1910  178.2180  149.4610 C   0  0  0  0  0  2  0  0  0  0  0  0
  1  5  1  0  0  0  0
  2 16  1  0  0  0  0
  3 17  1  0  0  0  0
  4 12  1  0  0  0  0
  4  1  2  0  0  0  0
  7  9  1  6  0  0  0
  7 27  1  0  0  0  0
  8  6  2  0  0  0  0
  8 11  1  0  0  0  0
  9 22  2  0  0  0  0
 10 21  1  6  0  0  0
 10 22  1  0  0  0  0
 10  3  1  0  0  0  0
 11  5  1  0  0  0  0
 11 28  1  1  0  0  0
 12  8  1  0  0  0  0
 13  2  1  0  0  0  0
 14 23  1  0  0  0  0
 14  9  1  0  0  0  0
 15  7  1  0  0  0  0
 17 20  2  0  0  0  0
 17 26  1  0  0  0  0
 18 13  2  0  0  0  0
 19  1  1  0  0  0  0
 19  2  2  0  0  0  0
 20  4  1  0  0  0  0
 22 20  1  0  0  0  0
 23 15  1  0  0  0  0
 25 26  2  0  0  0  0
 25 18  1  0  0  0  0
 26 19  1  0  0  0  0
 27 24  1  6  0  0  0
 27 12  1  0  0  0  0
 28 30  1  0  0  0  0
 30 29  1  0  0  0  0
M  END
>  <MODEL>
3

>  <REMARK>
 VINA RESULT:      -8.1      2.328      5.299
  Name = 
  2 active torsions:
  status: ('A' for Active; 'I' for Inactive)
    1  A    between atoms: C_11  and  O_28
    2  A    between atoms: O_28  and  C_30
                            x       y       z     vdW  Elec       q    Type
                         _______ _______ _______ _____ _____    ______ ____

>  <TORSDO>
F 2

$$$$
=
 OpenBabel11112416123D

 30 35  0  0  1  0  0  0  0  0999 V2000
  188.5780  175.8270  143.5640 C   0  0  0  0  0  0  0  0  0  0  0  0
  186.3330  176.8430  143.9810 C   0  0  0  0  0  0  0  0  0  0  0  0
  190.0010  177.2370  147.2620 N   0  0  0  0  0  2  0  0  0  0  0  0
  189.9060  175.5760  143.9980 C   0  0  0  0  0  0  0  0  0  0  0  0
  188.1690  175.3500  142.2780 N   0  0  0  0  0  2  0  0  0  0  0  0
  191.1900  173.9230  141.0220 O   0  0  0  0  0  0  0  0  0  0  0  0
  193.0300  175.3590  144.0530 C   0  0  1  0  0  3  0  0  0  0  0  0
  190.3560  174.3660  141.8590 C   0  0  0  0  0  0  0  0  0  0  0  0
  192.7830  175.8290  145.4290 C   0  0  0  0  0  0  0  0  0  0  0  0
  191.3890  176.7880  147.2870 C   0  0  1  0  0  3  0  0  0  0  0  0
  188.8960  174.3370  141.5260 C   0  0  2  0  0  3  0  0  0  0  0  0
  190.7930  174.7870  143.1620 N   0  0  0  0  0  0  0  0  0  0  0  0
  185.4840  177.5620  144.8280 C   0  0  0  0  0  3  0  0  0  0  0  0
  194.0480  175.8950  146.1580 C   0  0  0  0  0  2  0  0  0  0  0  0
  194.3600  174.9010  144.0020 O   0  0  0  0  0  0  0  0  0  0  0  0
  185.8240  176.4110  142.7620 O   0  0  0  0  0  1  0  0  0  0  0  0
  189.4190  176.8060  146.0360 C   0  0  0  0  0  0  0  0  0  0  0  0
  185.9320  178.0200  146.0640 C   0  0  0  0  0  3  0  0  0  0  0  0
  187.6700  176.5700  144.3750 C   0  0  0  0  0  0  0  0  0  0  0  0
  190.3030  176.1280  145.2370 C   0  0  0  0  0  0  0  0  0  0  0  0
  191.5590  175.7530  148.3850 C   0  0  0  0  0  1  0  0  0  0  0  0
  191.5920  176.1550  145.9370 C   0  0  0  0  0  0  0  0  0  0  0  0
  195.0410  175.5110  145.0800 C   0  0  0  0  0  2  0  0  0  0  0  0
  191.8900  173.1300  144.6380 C   0  0  0  0  0  1  0  0  0  0  0  0
  187.2390  177.7650  146.4700 C   0  0  0  0  0  3  0  0  0  0  0  0
  188.1070  177.0480  145.6390 C   0  0  0  0  0  0  0  0  0  0  0  0
  192.0760  174.2530  143.6220 C   0  0  2  0  0  3  0  0  0  0  0  0
  188.6950  174.5410  140.1580 O   0  0  0  0  0  0  0  0  0  0  0  0
  188.5640  173.1710  138.2210 C   0  0  0  0  0  1  0  0  0  0  0  0
  188.2020  173.3260  139.6830 C   0  0  0  0  0  2  0  0  0  0  0  0
  1  4  2  0  0  0  0
  1 19  1  0  0  0  0
  2 19  2  0  0  0  0
  2 13  1  0  0  0  0
  3 10  1  0  0  0  0
  4 20  1  0  0  0  0
  5  1  1  0  0  0  0
  6  8  2  0  0  0  0
  7 15  1  1  0  0  0
  7  9  1  0  0  0  0
  8 12  1  0  0  0  0
  9 22  2  0  0  0  0
  9 14  1  0  0  0  0
 10 21  1  1  0  0  0
 11 28  1  6  0  0  0
 11  8  1  0  0  0  0
 11  5  1  0  0  0  0
 12 27  1  0  0  0  0
 12  4  1  0  0  0  0
 13 18  2  0  0  0  0
 15 23  1  0  0  0  0
 16  2  1  0  0  0  0
 17  3  1  0  0  0  0
 18 25  1  0  0  0  0
 19 26  1  0  0  0  0
 20 22  1  0  0  0  0
 20 17  2  0  0  0  0
 22 10  1  0  0  0  0
 23 14  1  0  0  0  0
 26 17  1  0  0  0  0
 26 25  2  0  0  0  0
 27  7  1  0  0  0  0
 27 24  1  1  0  0  0
 29 30  1  0  0  0  0
 30 28  1  0  0  0  0
M  END
>  <MODEL>
4

>  <REMARK>
 VINA RESULT:      -7.9      1.960      3.091
  Name = 
  2 active torsions:
  status: ('A' for Active; 'I' for Inactive)
    1  A    between atoms: C_11  and  O_28
    2  A    between atoms: O_28  and  C_30
                            x       y       z     vdW  Elec       q    Type
                         _______ _______ _______ _____ _____    ______ ____

>  <TORSDO>
F 2

$$$$
=
 OpenBabel11112416123D

 30 35  0  0  1  0  0  0  0  0999 V2000
  188.1720  175.7870  141.7020 C   0  0  0  0  0  0  0  0  0  0  0  0
  186.4100  177.5160  141.3160 C   0  0  0  0  0  0  0  0  0  0  0  0
  188.6720  177.0580  145.6800 N   0  0  0  0  0  2  0  0  0  0  0  0
  189.1080  175.1680  142.5720 C   0  0  0  0  0  0  0  0  0  0  0  0
  188.0790  175.3300  140.3490 N   0  0  0  0  0  2  0  0  0  0  0  0
  190.6620  172.8700  140.2170 O   0  0  0  0  0  0  0  0  0  0  0  0
  191.7590  173.9560  143.7180 C   0  0  1  0  0  3  0  0  0  0  0  0
  189.8020  173.6490  140.7130 C   0  0  0  0  0  0  0  0  0  0  0  0
  191.2440  174.6290  144.9250 C   0  0  0  0  0  0  0  0  0  0  0  0
  189.7280  176.1880  146.1860 C   0  0  1  0  0  3  0  0  0  0  0  0
  188.6210  174.0590  139.8880 C   0  0  2  0  0  3  0  0  0  0  0  0
  189.8950  174.0470  142.0910 N   0  0  0  0  0  0  0  0  0  0  0  0
  185.6290  178.5610  141.8180 C   0  0  0  0  0  3  0  0  0  0  0  0
  192.1340  174.3610  146.0530 C   0  0  0  0  0  2  0  0  0  0  0  0
  192.7870  173.0890  144.1320 O   0  0  0  0  0  0  0  0  0  0  0  0
  186.2220  177.1420  139.9910 O   0  0  0  0  0  1  0  0  0  0  0  0
  188.4210  176.7070  144.3230 C   0  0  0  0  0  0  0  0  0  0  0  0
  185.7660  178.9830  143.1380 C   0  0  0  0  0  3  0  0  0  0  0  0
  187.3590  176.8700  142.1510 C   0  0  0  0  0  0  0  0  0  0  0  0
  189.2320  175.6940  143.8770 C   0  0  0  0  0  0  0  0  0  0  0  0
  189.1570  175.2820  147.2610 C   0  0  0  0  0  1  0  0  0  0  0  0
  190.1400  175.3780  144.9850 C   0  0  0  0  0  0  0  0  0  0  0  0
  193.2340  173.5590  145.3880 C   0  0  0  0  0  2  0  0  0  0  0  0
  189.7980  172.2970  143.8400 C   0  0  0  0  0  1  0  0  0  0  0  0
  186.6910  178.3630  143.9740 C   0  0  0  0  0  3  0  0  0  0  0  0
  187.4850  177.3160  143.4930 C   0  0  0  0  0  0  0  0  0  0  0  0
  190.6850  173.1790  142.9670 C   0  0  2  0  0  3  0  0  0  0  0  0
  188.9710  174.1660  138.5400 O   0  0  0  0  0  0  0  0  0  0  0  0
  188.1780  175.1970  136.5500 C   0  0  0  0  0  1  0  0  0  0  0  0
  187.8160  174.6240  137.9050 C   0  0  0  0  0  2  0  0  0  0  0  0
  1 19  2  0  0  0  0
  1  4  1  0  0  0  0
  2 13  2  0  0  0  0
  2 19  1  0  0  0  0
  3 10  1  0  0  0  0
  4 20  2  0  0  0  0
  5  1  1  0  0  0  0
  6  8  2  0  0  0  0
  7 15  1  1  0  0  0
  7  9  1  0  0  0  0
  8 12  1  0  0  0  0
  9 22  2  0  0  0  0
  9 14  1  0  0  0  0
 10 21  1  1  0  0  0
 11 28  1  6  0  0  0
 11  5  1  0  0  0  0
 11  8  1  0  0  0  0
 12  4  1  0  0  0  0
 12 27  1  0  0  0  0
 13 18  1  0  0  0  0
 15 23  1  0  0  0  0
 16  2  1  0  0  0  0
 17  3  1  0  0  0  0
 18 25  2  0  0  0  0
 19 26  1  0  0  0  0
 20 17  1  0  0  0  0
 20 22  1  0  0  0  0
 22 10  1  0  0  0  0
 23 14  1  0  0  0  0
 26 25  1  0  0  0  0
 26 17  2  0  0  0  0
 27  7  1  0  0  0  0
 27 24  1  1  0  0  0
 29 30  1  0  0  0  0
 30 28  1  0  0  0  0
M  END
>  <MODEL>
5

>  <REMARK>
 VINA RESULT:      -7.6      2.413      3.726
  Name = 
  2 active torsions:
  status: ('A' for Active; 'I' for Inactive)
    1  A    between atoms: C_11  and  O_28
    2  A    between atoms: O_28  and  C_30
                            x       y       z     vdW  Elec       q    Type
                         _______ _______ _______ _____ _____    ______ ____

>  <TORSDO>
F 2

$$$$
=
 OpenBabel11112416123D

 30 35  0  0  1  0  0  0  0  0999 V2000
  188.4290  175.7380  141.7140 C   0  0  0  0  0  0  0  0  0  0  0  0
  186.6860  176.9760  140.4200 C   0  0  0  0  0  0  0  0  0  0  0  0
  187.4000  177.7930  145.2360 N   0  0  0  0  0  2  0  0  0  0  0  0
  189.0930  175.4910  142.9440 C   0  0  0  0  0  0  0  0  0  0  0  0
  188.8530  175.0300  140.5440 N   0  0  0  0  0  2  0  0  0  0  0  0
  191.6320  173.1590  141.7770 O   0  0  0  0  0  0  0  0  0  0  0  0
  191.3450  175.0690  145.0800 C   0  0  1  0  0  3  0  0  0  0  0  0
  190.5610  173.8270  141.7940 C   0  0  0  0  0  0  0  0  0  0  0  0
  190.3720  175.8350  145.8820 C   0  0  0  0  0  0  0  0  0  0  0  0
  188.3320  177.2620  146.2250 C   0  0  1  0  0  3  0  0  0  0  0  0
  189.6800  173.8320  140.5830 C   0  0  2  0  0  3  0  0  0  0  0  0
  190.1360  174.4820  143.0010 N   0  0  0  0  0  0  0  0  0  0  0  0
  185.6510  177.9160  140.4030 C   0  0  0  0  0  3  0  0  0  0  0  0
  190.8620  175.9640  147.2530 C   0  0  0  0  0  2  0  0  0  0  0  0
  192.2790  174.5180  145.9750 O   0  0  0  0  0  0  0  0  0  0  0  0
  187.0010  176.3340  139.2280 O   0  0  0  0  0  1  0  0  0  0  0  0
  187.6650  177.1550  143.9910 C   0  0  0  0  0  0  0  0  0  0  0  0
  185.2830  178.5930  141.5630 C   0  0  0  0  0  3  0  0  0  0  0  0
  187.3770  176.6980  141.6290 C   0  0  0  0  0  0  0  0  0  0  0  0
  188.7040  176.2620  144.0620 C   0  0  0  0  0  0  0  0  0  0  0  0
  187.5580  176.4730  147.2660 C   0  0  0  0  0  1  0  0  0  0  0  0
  189.2230  176.3450  145.4310 C   0  0  0  0  0  0  0  0  0  0  0  0
  192.2160  175.2910  147.1570 C   0  0  0  0  0  2  0  0  0  0  0  0
  189.6910  173.1010  145.0070 C   0  0  0  0  0  1  0  0  0  0  0  0
  185.9490  178.3360  142.7590 C   0  0  0  0  0  3  0  0  0  0  0  0
  186.9890  177.4010  142.8000 C   0  0  0  0  0  0  0  0  0  0  0  0
  190.6950  173.9670  144.2530 C   0  0  2  0  0  3  0  0  0  0  0  0
  190.4430  173.7570  139.4150 O   0  0  0  0  0  0  0  0  0  0  0  0
  188.9550  172.3960  138.1570 C   0  0  0  0  0  1  0  0  0  0  0  0
  189.5120  173.7870  138.3760 C   0  0  0  0  0  2  0  0  0  0  0  0
  1  4  1  0  0  0  0
  2 19  1  0  0  0  0
  3 10  1  0  0  0  0
  4 12  1  0  0  0  0
  4 20  2  0  0  0  0
  5 11  1  0  0  0  0
  5  1  1  0  0  0  0
  6  8  2  0  0  0  0
  7  9  1  1  0  0  0
  7 15  1  0  0  0  0
  8 12  1  0  0  0  0
  9 14  1  0  0  0  0
 10 21  1  1  0  0  0
 11 28  1  6  0  0  0
 11  8  1  0  0  0  0
 12 27  1  0  0  0  0
 13  2  2  0  0  0  0
 13 18  1  0  0  0  0
 15 23  1  0  0  0  0
 16  2  1  0  0  0  0
 17 20  1  0  0  0  0
 17  3  1  0  0  0  0
 18 25  2  0  0  0  0
 19  1  2  0  0  0  0
 19 26  1  0  0  0  0
 20 22  1  0  0  0  0
 22  9  2  0  0  0  0
 22 10  1  0  0  0  0
 23 14  1  0  0  0  0
 25 26  1  0  0  0  0
 26 17  2  0  0  0  0
 27 24  1  1  0  0  0
 27  7  1  0  0  0  0
 29 30  1  0  0  0  0
 30 28  1  0  0  0  0
M  END
>  <MODEL>
6

>  <REMARK>
 VINA RESULT:      -7.3      2.291      4.479
  Name = 
  2 active torsions:
  status: ('A' for Active; 'I' for Inactive)
    1  A    between atoms: C_11  and  O_28
    2  A    between atoms: O_28  and  C_30
                            x       y       z     vdW  Elec       q    Type
                         _______ _______ _______ _____ _____    ______ ____

>  <TORSDO>
F 2

$$$$
=
 OpenBabel11112416123D

 30 35  0  0  1  0  0  0  0  0999 V2000
  188.0590  176.7610  143.6410 C   0  0  0  0  0  0  0  0  0  0  0  0
  186.3510  178.2200  142.5470 C   0  0  0  0  0  0  0  0  0  0  0  0
  188.5660  174.5500  140.1000 N   0  0  0  0  0  2  0  0  0  0  0  0
  188.9730  175.6780  143.5620 C   0  0  0  0  0  0  0  0  0  0  0  0
  187.9080  177.4480  144.8880 N   0  0  0  0  0  2  0  0  0  0  0  0
  190.0520  175.5680  147.0350 O   0  0  0  0  0  0  0  0  0  0  0  0
  190.5190  173.0310  144.2090 C   0  0  1  0  0  3  0  0  0  0  0  0
  189.5630  176.0250  145.9650 C   0  0  0  0  0  0  0  0  0  0  0  0
  190.4210  172.9170  142.7420 C   0  0  0  0  0  0  0  0  0  0  0  0
  189.5540  173.5400  140.4670 C   0  0  1  0  0  3  0  0  0  0  0  0
  188.8610  177.3470  145.9840 C   0  0  2  0  0  3  0  0  0  0  0  0
  189.7790  175.3380  144.7210 N   0  0  0  0  0  0  0  0  0  0  0  0
  185.6240  178.5590  141.4020 C   0  0  0  0  0  3  0  0  0  0  0  0
  191.1250  171.7160  142.2960 C   0  0  0  0  0  2  0  0  0  0  0  0
  191.4660  172.0830  144.6380 O   0  0  0  0  0  0  0  0  0  0  0  0
  186.1380  178.9690  143.6990 O   0  0  0  0  0  1  0  0  0  0  0  0
  188.3200  175.3630  141.2420 C   0  0  0  0  0  0  0  0  0  0  0  0
  185.7920  177.8510  140.2150 C   0  0  0  0  0  3  0  0  0  0  0  0
  187.2760  177.1430  142.5120 C   0  0  0  0  0  0  0  0  0  0  0  0
  189.0410  174.9700  142.3410 C   0  0  0  0  0  0  0  0  0  0  0  0
  190.8350  173.7910  139.6920 C   0  0  0  0  0  1  0  0  0  0  0  0
  189.7800  173.7690  141.9370 C   0  0  0  0  0  0  0  0  0  0  0  0
  191.5590  171.1120  143.6160 C   0  0  0  0  0  2  0  0  0  0  0  0
  192.1020  175.0360  143.9190 C   0  0  0  0  0  1  0  0  0  0  0  0
  186.6930  176.7910  140.1590 C   0  0  0  0  0  3  0  0  0  0  0  0
  187.4310  176.4320  141.2920 C   0  0  0  0  0  0  0  0  0  0  0  0
  190.9230  174.4260  144.6700 C   0  0  2  0  0  3  0  0  0  0  0  0
  188.1950  177.5370  147.1970 O   0  0  0  0  0  0  0  0  0  0  0  0
  186.0860  178.5400  147.6420 C   0  0  0  0  0  1  0  0  0  0  0  0
  186.8380  177.4720  146.8750 C   0  0  0  0  0  2  0  0  0  0  0  0
  1  5  1  0  0  0  0
  2 16  1  0  0  0  0
  3 10  1  0  0  0  0
  3 17  1  0  0  0  0
  4  1  1  0  0  0  0
  4 12  1  0  0  0  0
  5 11  1  0  0  0  0
  7  9  1  6  0  0  0
  7 15  1  0  0  0  0
  7 27  1  0  0  0  0
  8 11  1  0  0  0  0
  8  6  2  0  0  0  0
 10 21  1  6  0  0  0
 10 22  1  0  0  0  0
 11 28  1  1  0  0  0
 12  8  1  0  0  0  0
 13  2  2  0  0  0  0
 14  9  1  0  0  0  0
 14 23  1  0  0  0  0
 17 26  2  0  0  0  0
 17 20  1  0  0  0  0
 18 13  1  0  0  0  0
 19  2  1  0  0  0  0
 19  1  2  0  0  0  0
 20  4  2  0  0  0  0
 22 20  1  0  0  0  0
 22  9  2  0  0  0  0
 23 15  1  0  0  0  0
 25 18  2  0  0  0  0
 25 26  1  0  0  0  0
 26 19  1  0  0  0  0
 27 24  1  6  0  0  0
 27 12  1  0  0  0  0
 30 28  1  0  0  0  0
 30 29  1  0  0  0  0
M  END
>  <MODEL>
7

>  <REMARK>
 VINA RESULT:      -7.3      2.412      5.240
  Name = 
  2 active torsions:
  status: ('A' for Active; 'I' for Inactive)
    1  A    between atoms: C_11  and  O_28
    2  A    between atoms: O_28  and  C_30
                            x       y       z     vdW  Elec       q    Type
                         _______ _______ _______ _____ _____    ______ ____

>  <TORSDO>
F 2

$$$$
=
 OpenBabel11112416123D

 30 35  0  0  1  0  0  0  0  0999 V2000
  189.2380  175.0960  141.8170 C   0  0  0  0  0  0  0  0  0  0  0  0
  189.3290  173.4650  139.9260 C   0  0  0  0  0  0  0  0  0  0  0  0
  192.6740  173.4060  143.5560 N   0  0  0  0  0  2  0  0  0  0  0  0
  189.7850  175.5960  143.0280 C   0  0  0  0  0  0  0  0  0  0  0  0
  188.0450  175.6940  141.2990 N   0  0  0  0  0  2  0  0  0  0  0  0
  187.2520  178.0830  143.8300 O   0  0  0  0  0  0  0  0  0  0  0  0
  190.0540  176.6100  145.9800 C   0  0  1  0  0  3  0  0  0  0  0  0
  187.9420  177.2800  143.1430 C   0  0  0  0  0  0  0  0  0  0  0  0
  191.3000  175.8300  145.8640 C   0  0  0  0  0  0  0  0  0  0  0  0
  192.8620  174.1900  144.7720 C   0  0  1  0  0  3  0  0  0  0  0  0
  187.5400  176.9900  141.7300 C   0  0  2  0  0  3  0  0  0  0  0  0
  189.1640  176.7390  143.6730 N   0  0  0  0  0  0  0  0  0  0  0  0
  189.9750  172.3950  139.2990 C   0  0  0  0  0  3  0  0  0  0  0  0
  192.0730  175.9540  147.0980 C   0  0  0  0  0  2  0  0  0  0  0  0
  190.1650  177.4010  147.1380 O   0  0  0  0  0  0  0  0  0  0  0  0
  188.1870  173.9800  139.3240 O   0  0  0  0  0  1  0  0  0  0  0  0
  191.5220  173.9030  142.8830 C   0  0  0  0  0  0  0  0  0  0  0  0
  191.1250  171.8350  139.8490 C   0  0  0  0  0  3  0  0  0  0  0  0
  189.8410  173.9950  141.1400 C   0  0  0  0  0  0  0  0  0  0  0  0
  190.9170  174.9340  143.5550 C   0  0  0  0  0  0  0  0  0  0  0  0
  194.1430  174.9950  144.6550 C   0  0  0  0  0  1  0  0  0  0  0  0
  191.6690  175.1080  144.8020 C   0  0  0  0  0  0  0  0  0  0  0  0
  191.1440  176.7910  147.9540 C   0  0  0  0  0  2  0  0  0  0  0  0
  190.9870  178.3000  144.2810 C   0  0  0  0  0  1  0  0  0  0  0  0
  191.6440  172.3390  141.0390 C   0  0  0  0  0  3  0  0  0  0  0  0
  191.0140  173.4080  141.6860 C   0  0  0  0  0  0  0  0  0  0  0  0
  189.7890  177.4890  144.7640 C   0  0  2  0  0  3  0  0  0  0  0  0
  186.1500  177.0140  141.5960 O   0  0  0  0  0  0  0  0  0  0  0  0
  184.4630  178.2910  140.5110 C   0  0  0  0  0  1  0  0  0  0  0  0
  185.9100  177.8440  140.5000 C   0  0  0  0  0  2  0  0  0  0  0  0
  1  4  1  0  0  0  0
  2 19  1  0  0  0  0
  3 10  1  0  0  0  0
  4 20  2  0  0  0  0
  4 12  1  0  0  0  0
  5 11  1  0  0  0  0
  5  1  1  0  0  0  0
  7  9  1  6  0  0  0
  7 15  1  0  0  0  0
  8 12  1  0  0  0  0
  8  6  2  0  0  0  0
  9 14  1  0  0  0  0
 10 21  1  6  0  0  0
 10 22  1  0  0  0  0
 11 28  1  1  0  0  0
 11  8  1  0  0  0  0
 12 27  1  0  0  0  0
 13 18  1  0  0  0  0
 13  2  2  0  0  0  0
 14 23  1  0  0  0  0
 15 23  1  0  0  0  0
 16  2  1  0  0  0  0
 17 20  1  0  0  0  0
 17  3  1  0  0  0  0
 18 25  2  0  0  0  0
 19 26  1  0  0  0  0
 19  1  2  0  0  0  0
 20 22  1  0  0  0  0
 22  9  2  0  0  0  0
 25 26  1  0  0  0  0
 26 17  2  0  0  0  0
 27 24  1  6  0  0  0
 27  7  1  0  0  0  0
 30 29  1  0  0  0  0
 30 28  1  0  0  0  0
M  END
>  <MODEL>
8

>  <REMARK>
 VINA RESULT:      -7.3      2.634      5.527
  Name = 
  2 active torsions:
  status: ('A' for Active; 'I' for Inactive)
    1  A    between atoms: C_11  and  O_28
    2  A    between atoms: O_28  and  C_30
                            x       y       z     vdW  Elec       q    Type
                         _______ _______ _______ _____ _____    ______ ____

>  <TORSDO>
F 2

$$$$
=
 OpenBabel11112416123D

 30 35  0  0  1  0  0  0  0  0999 V2000
  189.8730  175.8890  144.5230 C   0  0  0  0  0  0  0  0  0  0  0  0
  191.3740  176.5020  146.4240 C   0  0  0  0  0  0  0  0  0  0  0  0
  192.9140  173.5890  142.7480 N   0  0  0  0  0  2  0  0  0  0  0  0
  189.6680  175.1960  143.3010 C   0  0  0  0  0  0  0  0  0  0  0  0
  188.8070  176.6840  145.0530 N   0  0  0  0  0  2  0  0  0  0  0  0
  186.3150  176.3720  142.5170 O   0  0  0  0  0  0  0  0  0  0  0  0
  188.8800  174.5510  140.3390 C   0  0  1  0  0  3  0  0  0  0  0  0
  187.3410  176.1000  143.2000 C   0  0  0  0  0  0  0  0  0  0  0  0
  190.1320  173.7800  140.4430 C   0  0  0  0  0  0  0  0  0  0  0  0
  192.2950  173.0920  141.5240 C   0  0  1  0  0  3  0  0  0  0  0  0
  187.4220  176.5670  144.6210 C   0  0  2  0  0  3  0  0  0  0  0  0
  188.3680  175.2550  142.6560 N   0  0  0  0  0  0  0  0  0  0  0  0
  192.6190  176.3890  147.0500 C   0  0  0  0  0  3  0  0  0  0  0  0
  190.3640  173.0520  139.1970 C   0  0  0  0  0  2  0  0  0  0  0  0
  188.2210  174.1190  139.1740 O   0  0  0  0  0  0  0  0  0  0  0  0
  190.4050  177.2870  147.0390 O   0  0  0  0  0  1  0  0  0  0  0  0
  191.9570  174.3900  143.4340 C   0  0  0  0  0  0  0  0  0  0  0  0
  193.6320  175.6160  146.4870 C   0  0  0  0  0  3  0  0  0  0  0  0
  191.1270  175.8270  145.2000 C   0  0  0  0  0  0  0  0  0  0  0  0
  190.7640  174.4850  142.7630 C   0  0  0  0  0  0  0  0  0  0  0  0
  192.1430  171.5850  141.6170 C   0  0  0  0  0  1  0  0  0  0  0  0
  190.9430  173.7530  141.5050 C   0  0  0  0  0  0  0  0  0  0  0  0
  189.2020  173.5250  138.3480 C   0  0  0  0  0  2  0  0  0  0  0  0
  187.7800  172.9380  142.0120 C   0  0  0  0  0  1  0  0  0  0  0  0
  193.4110  174.9470  145.2870 C   0  0  0  0  0  3  0  0  0  0  0  0
  192.1740  175.0460  144.6420 C   0  0  0  0  0  0  0  0  0  0  0  0
  187.9740  174.3790  141.5510 C   0  0  2  0  0  3  0  0  0  0  0  0
  186.7820  177.7990  144.7750 O   0  0  0  0  0  0  0  0  0  0  0  0
  185.2970  176.7860  146.3300 C   0  0  0  0  0  1  0  0  0  0  0  0
  186.3740  177.8270  146.1090 C   0  0  0  0  0  2  0  0  0  0  0  0
  1  5  1  0  0  0  0
  1 19  1  0  0  0  0
  2 16  1  0  0  0  0
  2 13  1  0  0  0  0
  3 17  1  0  0  0  0
  4  1  2  0  0  0  0
  6  8  2  0  0  0  0
  7 15  1  6  0  0  0
  7  9  1  0  0  0  0
  7 27  1  0  0  0  0
  8 11  1  0  0  0  0
  9 22  2  0  0  0  0
 10 21  1  1  0  0  0
 10  3  1  0  0  0  0
 11 28  1  6  0  0  0
 11  5  1  0  0  0  0
 12  8  1  0  0  0  0
 12  4  1  0  0  0  0
 14  9  1  0  0  0  0
 17 26  1  0  0  0  0
 18 13  2  0  0  0  0
 19  2  2  0  0  0  0
 20  4  1  0  0  0  0
 20 17  2  0  0  0  0
 22 10  1  0  0  0  0
 22 20  1  0  0  0  0
 23 15  1  0  0  0  0
 23 14  1  0  0  0  0
 25 18  1  0  0  0  0
 26 19  1  0  0  0  0
 26 25  2  0  0  0  0
 27 24  1  1  0  0  0
 27 12  1  0  0  0  0
 28 30  1  0  0  0  0
 30 29  1  0  0  0  0
M  END
>  <MODEL>
9

>  <REMARK>
 VINA RESULT:      -7.3      2.617      5.366
  Name = 
  2 active torsions:
  status: ('A' for Active; 'I' for Inactive)
    1  A    between atoms: C_11  and  O_28
    2  A    between atoms: O_28  and  C_30
                            x       y       z     vdW  Elec       q    Type
                         _______ _______ _______ _____ _____    ______ ____

>  <TORSDO>
F 2

$$$$
