=
 OpenBabel11112417273D

 37 43  0  0  1  0  0  0  0  0999 V2000
  194.1920  174.1930  142.4240 C   0  0  0  0  0  0  0  0  0  0  0  0
  191.2020  174.7640  144.7850 N   0  0  1  0  0  0  0  0  0  0  0  0
  188.1190  174.8280  143.6420 O   0  0  0  0  0  0  0  0  0  0  0  0
  193.5120  173.6390  144.5550 C   0  0  2  0  0  3  0  0  0  0  0  0
  190.4750  175.2850  143.6130 C   0  0  2  0  0  3  0  0  0  0  0  0
  192.0150  173.6740  144.1970 C   0  0  2  0  0  3  0  0  0  0  0  0
  189.0720  175.8180  143.9300 C   0  0  2  0  0  3  0  0  0  0  0  0
  193.6460  173.9700  146.0190 C   0  0  0  0  0  2  0  0  0  0  0  0
  191.7350  173.6270  142.7040 C   0  0  2  0  0  3  0  0  0  0  0  0
  194.5490  172.8670  142.2160 F   0  0  0  0  0  0  0  0  0  0  0  0
  191.1360  176.7310  146.3090 C   0  0  0  0  0  2  0  0  0  0  0  0
  193.1450  175.3810  146.2930 C   0  0  0  0  0  2  0  0  0  0  0  0
  192.7780  174.4530  141.9210 C   0  0  0  0  0  2  0  0  0  0  0  0
  188.0470  176.1110  141.6110 O   0  0  0  0  0  0  0  0  0  0  0  0
  187.5060  175.0530  142.3760 C   0  0  1  0  0  3  0  0  0  0  0  0
  191.9960  175.8640  145.3870 C   0  0  1  0  0  3  0  0  0  0  0  0
  190.3970  174.2070  142.6220 N   0  0  2  0  0  0  0  0  0  0  0  0
  194.2800  174.5440  143.7860 O   0  0  0  0  0  0  0  0  0  0  0  0
  188.8860  176.4020  145.3270 C   0  0  1  0  0  3  0  0  0  0  0  0
  195.0590  174.9920  141.7060 F   0  0  0  0  0  0  0  0  0  0  0  0
  188.4140  174.8140  141.1950 C   0  0  2  0  0  3  0  0  0  0  0  0
  189.9550  174.7100  141.3050 C   0  0  2  0  0  3  0  0  0  0  0  0
  189.9760  177.4200  145.6180 C   0  0  0  0  0  2  0  0  0  0  0  0
  186.6530  176.5450  146.4420 C   0  0  0  0  0  3  0  0  0  0  0  0
  187.5350  177.0340  145.4710 C   0  0  0  0  0  0  0  0  0  0  0  0
  187.1360  178.0970  144.6450 C   0  0  0  0  0  3  0  0  0  0  0  0
  185.4470  179.7880  143.9180 C   0  0  0  0  0  1  0  0  0  0  0  0
  184.9900  178.1710  145.7650 C   0  0  0  0  0  3  0  0  0  0  0  0
  185.8660  178.6640  144.7940 C   0  0  0  0  0  0  0  0  0  0  0  0
  185.3840  177.1110  146.5900 C   0  0  0  0  0  3  0  0  0  0  0  0
  190.4140  173.7910  140.1610 C   0  0  0  0  0  2  0  0  0  0  0  0
  189.5150  172.5630  139.9680 C   0  0  1  0  0  3  0  0  0  0  0  0
  188.2050  173.1540  138.0950 O   0  0  0  0  0  0  0  0  0  0  0  0
  189.0580  172.4110  138.5520 C   0  0  0  0  0  3  0  0  0  0  0  0
  190.1860  171.3490  140.4080 N   0  0  0  0  0  2  0  0  0  0  0  0
  191.4860  171.3080  139.7580 C   0  0  0  0  0  2  0  0  0  0  0  0
  192.4760  171.1010  140.7010 F   0  0  0  0  0  0  0  0  0  0  0  0
  1 18  1  0  0  0  0
  2 16  1  0  0  0  0
  3  7  1  0  0  0  0
  4  8  1  0  0  0  0
  5  7  1  0  0  0  0
  5  2  1  0  0  0  0
  6  4  1  0  0  0  0
  6  2  1  0  0  0  0
  7 19  1  0  0  0  0
  8 12  1  0  0  0  0
  9  6  1  0  0  0  0
 10  1  1  0  0  0  0
 13  1  1  0  0  0  0
 13  9  1  0  0  0  0
 14 15  1  0  0  0  0
 15  3  1  0  0  0  0
 16 12  1  0  0  0  0
 16 11  1  0  0  0  0
 17  9  1  0  0  0  0
 17  5  1  0  0  0  0
 18  4  1  0  0  0  0
 19 25  1  0  0  0  0
 19 23  1  0  0  0  0
 20  1  1  0  0  0  0
 21 22  1  0  0  0  0
 21 14  1  0  0  0  0
 21 15  1  0  0  0  0
 22 17  1  0  0  0  0
 23 11  1  0  0  0  0
 24 30  1  0  0  0  0
 25 24  2  0  0  0  0
 26 29  2  0  0  0  0
 26 25  1  0  0  0  0
 27 29  1  0  0  0  0
 28 30  2  0  0  0  0
 29 28  1  0  0  0  0
 31 22  1  0  0  0  0
 32 31  1  0  0  0  0
 32 35  1  0  0  0  0
 33 34  2  0  0  0  0
 34 32  1  0  0  0  0
 36 35  1  0  0  0  0
 36 37  1  0  0  0  0
M  END
>  <MODEL>
1

>  <REMARK>
 VINA RESULT:      -7.7      0.000      0.000
  Name = 
  6 active torsions:
  status: ('A' for Active; 'I' for Inactive)
    1  A    between atoms: C_1  and  CA_4
    2  A    between atoms: C_1  and  C_27
    3  A    between atoms: CA_4  and  N_12
    4  A    between atoms: CA_4  and  C_37
    5  A    between atoms: C_8  and  N_12
    6  A    between atoms: C_23  and  C_30
                            x       y       z     vdW  Elec       q    Type
                         _______ _______ _______ _____ _____    ______ ____

>  <TORSDO>
F 6

$$$$
=
 OpenBabel11112417273D

 37 43  0  0  1  0  0  0  0  0999 V2000
  191.3620  175.8480  147.7160 C   0  0  0  0  0  0  0  0  0  0  0  0
  191.8270  175.2720  143.9360 N   0  0  1  0  0  0  0  0  0  0  0  0
  189.4490  176.0240  141.7940 O   0  0  0  0  0  0  0  0  0  0  0  0
  193.0100  175.9940  146.1120 C   0  0  2  0  0  3  0  0  0  0  0  0
  190.3590  175.1790  143.8480 C   0  0  2  0  0  3  0  0  0  0  0  0
  192.0200  176.3090  144.9760 C   0  0  2  0  0  3  0  0  0  0  0  0
  189.8340  174.8420  142.4460 C   0  0  2  0  0  3  0  0  0  0  0  0
  194.2080  175.3080  145.5050 C   0  0  0  0  0  2  0  0  0  0  0  0
  190.6490  176.7560  145.4570 C   0  0  2  0  0  3  0  0  0  0  0  0
  191.7370  177.1010  148.1840 F   0  0  0  0  0  0  0  0  0  0  0  0
  192.5070  173.0430  143.0580 C   0  0  0  0  0  2  0  0  0  0  0  0
  193.7990  173.9830  144.8760 C   0  0  0  0  0  2  0  0  0  0  0  0
  190.2220  175.9680  146.7140 C   0  0  0  0  0  2  0  0  0  0  0  0
  187.3310  175.2910  142.6630 O   0  0  0  0  0  0  0  0  0  0  0  0
  188.0390  176.2170  141.8630 C   0  0  1  0  0  3  0  0  0  0  0  0
  192.3740  173.9380  144.2920 C   0  0  1  0  0  3  0  0  0  0  0  0
  189.8040  176.4570  144.3040 N   0  0  2  0  0  0  0  0  0  0  0  0
  192.4470  175.1750  147.1180 O   0  0  0  0  0  0  0  0  0  0  0  0
  190.7560  173.9870  141.5820 C   0  0  1  0  0  3  0  0  0  0  0  0
  190.9170  175.1010  148.7890 F   0  0  0  0  0  0  0  0  0  0  0  0
  187.5250  176.5640  143.2390 C   0  0  2  0  0  3  0  0  0  0  0  0
  188.3470  176.3650  144.5360 C   0  0  2  0  0  3  0  0  0  0  0  0
  191.1980  172.7540  142.3510 C   0  0  0  0  0  2  0  0  0  0  0  0
  188.8130  172.9910  140.3640 C   0  0  0  0  0  3  0  0  0  0  0  0
  190.0790  173.5870  140.3060 C   0  0  0  0  0  0  0  0  0  0  0  0
  190.6930  173.7890  139.0600 C   0  0  0  0  0  3  0  0  0  0  0  0
  190.6980  173.6130  136.5680 C   0  0  0  0  0  1  0  0  0  0  0  0
  188.7800  172.8040  137.9500 C   0  0  0  0  0  3  0  0  0  0  0  0
  190.0430  173.3980  137.8850 C   0  0  0  0  0  0  0  0  0  0  0  0
  188.1650  172.6010  139.1890 C   0  0  0  0  0  3  0  0  0  0  0  0
  187.8610  177.4340  145.5290 C   0  0  0  0  0  2  0  0  0  0  0  0
  186.3370  177.6090  145.5380 C   0  0  1  0  0  3  0  0  0  0  0  0
  186.1690  176.7540  147.7320 O   0  0  0  0  0  0  0  0  0  0  0  0
  185.6790  176.8080  146.6150 C   0  0  0  0  0  3  0  0  0  0  0  0
  185.9730  179.0130  145.6690 N   0  0  0  0  0  2  0  0  0  0  0  0
  185.1760  179.3670  144.5060 C   0  0  0  0  0  2  0  0  0  0  0  0
  185.6240  180.5640  143.9760 F   0  0  0  0  0  0  0  0  0  0  0  0
  1 10  1  0  0  0  0
  1 20  1  0  0  0  0
  2 16  1  0  0  0  0
  2  6  1  0  0  0  0
  3 15  1  0  0  0  0
  3  7  1  0  0  0  0
  4 18  1  0  0  0  0
  5  2  1  0  0  0  0
  5 17  1  0  0  0  0
  6  9  1  0  0  0  0
  6  4  1  0  0  0  0
  7  5  1  0  0  0  0
  8  4  1  0  0  0  0
  9 13  1  0  0  0  0
 11 16  1  0  0  0  0
 12  8  1  0  0  0  0
 13  1  1  0  0  0  0
 14 21  1  0  0  0  0
 15 14  1  0  0  0  0
 15 21  1  0  0  0  0
 16 12  1  0  0  0  0
 17 22  1  0  0  0  0
 17  9  1  0  0  0  0
 18  1  1  0  0  0  0
 19 23  1  0  0  0  0
 19  7  1  0  0  0  0
 21 22  1  0  0  0  0
 22 31  1  0  0  0  0
 23 11  1  0  0  0  0
 25 24  1  0  0  0  0
 25 19  1  0  0  0  0
 26 25  2  0  0  0  0
 27 29  1  0  0  0  0
 28 30  1  0  0  0  0
 29 28  2  0  0  0  0
 29 26  1  0  0  0  0
 30 24  2  0  0  0  0
 31 32  1  0  0  0  0
 32 35  1  0  0  0  0
 32 34  1  0  0  0  0
 34 33  2  0  0  0  0
 36 35  1  0  0  0  0
 37 36  1  0  0  0  0
M  END
>  <MODEL>
2

>  <REMARK>
 VINA RESULT:      -7.6      3.188      6.684
  Name = 
  6 active torsions:
  status: ('A' for Active; 'I' for Inactive)
    1  A    between atoms: C_1  and  CA_4
    2  A    between atoms: C_1  and  C_27
    3  A    between atoms: CA_4  and  N_12
    4  A    between atoms: CA_4  and  C_37
    5  A    between atoms: C_8  and  N_12
    6  A    between atoms: C_23  and  C_30
                            x       y       z     vdW  Elec       q    Type
                         _______ _______ _______ _____ _____    ______ ____

>  <TORSDO>
F 6

$$$$
=
 OpenBabel11112417273D

 37 43  0  0  1  0  0  0  0  0999 V2000
  194.0900  173.7700  142.8440 C   0  0  0  0  0  0  0  0  0  0  0  0
  190.9640  175.0390  144.7040 N   0  0  1  0  0  0  0  0  0  0  0  0
  188.0030  175.0030  143.2760 O   0  0  0  0  0  0  0  0  0  0  0  0
  193.1940  173.7660  144.9660 C   0  0  2  0  0  3  0  0  0  0  0  0
  190.3810  175.3110  143.3780 C   0  0  2  0  0  3  0  0  0  0  0  0
  191.7390  173.7980  144.4630 C   0  0  2  0  0  3  0  0  0  0  0  0
  189.0010  175.9790  143.4250 C   0  0  2  0  0  3  0  0  0  0  0  0
  193.2280  174.4210  146.3240 C   0  0  0  0  0  2  0  0  0  0  0  0
  191.5830  173.4200  142.9990 C   0  0  2  0  0  3  0  0  0  0  0  0
  194.3620  172.4150  142.9800 F   0  0  0  0  0  0  0  0  0  0  0  0
  190.9210  177.3070  145.7270 C   0  0  0  0  0  2  0  0  0  0  0  0
  192.8150  175.8830  146.2190 C   0  0  0  0  0  2  0  0  0  0  0  0
  192.7480  173.9830  142.1580 C   0  0  0  0  0  2  0  0  0  0  0  0
  188.2000  175.7800  141.0090 O   0  0  0  0  0  0  0  0  0  0  0  0
  187.5180  174.9600  141.9370 C   0  0  1  0  0  3  0  0  0  0  0  0
  191.7870  176.2040  145.1170 C   0  0  1  0  0  3  0  0  0  0  0  0
  190.3050  174.0380  142.6550 N   0  0  2  0  0  0  0  0  0  0  0  0
  194.0900  174.4240  144.0930 O   0  0  0  0  0  0  0  0  0  0  0  0
  188.7420  176.8820  144.6270 C   0  0  1  0  0  3  0  0  0  0  0  0
  195.0740  174.3320  142.0530 F   0  0  0  0  0  0  0  0  0  0  0  0
  188.5010  174.4030  140.9370 C   0  0  2  0  0  3  0  0  0  0  0  0
  190.0150  174.2440  141.2200 C   0  0  2  0  0  3  0  0  0  0  0  0
  189.8790  177.8780  144.7860 C   0  0  0  0  0  2  0  0  0  0  0  0
  187.1680  178.3030  143.3060 C   0  0  0  0  0  3  0  0  0  0  0  0
  187.4360  177.6030  144.4880 C   0  0  0  0  0  0  0  0  0  0  0  0
  186.4860  177.5980  145.5220 C   0  0  0  0  0  3  0  0  0  0  0  0
  184.2760  178.2790  146.4660 C   0  0  0  0  0  1  0  0  0  0  0  0
  185.0160  178.9840  144.1860 C   0  0  0  0  0  3  0  0  0  0  0  0
  185.2790  178.2870  145.3690 C   0  0  0  0  0  0  0  0  0  0  0  0
  185.9610  178.9910  143.1540 C   0  0  0  0  0  3  0  0  0  0  0  0
  190.4970  173.0590  140.3670 C   0  0  0  0  0  2  0  0  0  0  0  0
  190.6640  173.4050  138.8820 C   0  0  1  0  0  3  0  0  0  0  0  0
  192.8720  174.1530  138.5140 O   0  0  0  0  0  0  0  0  0  0  0  0
  192.0740  173.2350  138.4140 C   0  0  0  0  0  3  0  0  0  0  0  0
  189.7650  172.6110  138.0560 N   0  0  0  0  0  2  0  0  0  0  0  0
  189.0600  173.5270  137.1740 C   0  0  0  0  0  2  0  0  0  0  0  0
  187.8690  173.9180  137.7600 F   0  0  0  0  0  0  0  0  0  0  0  0
  1 10  1  0  0  0  0
  1 18  1  0  0  0  0
  2 16  1  0  0  0  0
  3  7  1  0  0  0  0
  4  8  1  0  0  0  0
  5  7  1  0  0  0  0
  5  2  1  0  0  0  0
  6  2  1  0  0  0  0
  6  4  1  0  0  0  0
  7 19  1  0  0  0  0
  9  6  1  0  0  0  0
 12  8  1  0  0  0  0
 13  1  1  0  0  0  0
 13  9  1  0  0  0  0
 14 15  1  0  0  0  0
 15  3  1  0  0  0  0
 16 11  1  0  0  0  0
 16 12  1  0  0  0  0
 17  9  1  0  0  0  0
 17  5  1  0  0  0  0
 18  4  1  0  0  0  0
 19 23  1  0  0  0  0
 20  1  1  0  0  0  0
 21 14  1  0  0  0  0
 21 22  1  0  0  0  0
 21 15  1  0  0  0  0
 22 17  1  0  0  0  0
 23 11  1  0  0  0  0
 24 25  1  0  0  0  0
 25 19  1  0  0  0  0
 25 26  2  0  0  0  0
 28 29  2  0  0  0  0
 29 26  1  0  0  0  0
 29 27  1  0  0  0  0
 30 24  2  0  0  0  0
 30 28  1  0  0  0  0
 31 22  1  0  0  0  0
 32 31  1  0  0  0  0
 34 33  2  0  0  0  0
 34 32  1  0  0  0  0
 35 32  1  0  0  0  0
 36 37  1  0  0  0  0
 36 35  1  0  0  0  0
M  END
>  <MODEL>
3

>  <REMARK>
 VINA RESULT:      -7.3      1.601      2.033
  Name = 
  6 active torsions:
  status: ('A' for Active; 'I' for Inactive)
    1  A    between atoms: C_1  and  CA_4
    2  A    between atoms: C_1  and  C_27
    3  A    between atoms: CA_4  and  N_12
    4  A    between atoms: CA_4  and  C_37
    5  A    between atoms: C_8  and  N_12
    6  A    between atoms: C_23  and  C_30
                            x       y       z     vdW  Elec       q    Type
                         _______ _______ _______ _____ _____    ______ ____

>  <TORSDO>
F 6

$$$$
=
 OpenBabel11112417273D

 37 43  0  0  1  0  0  0  0  0999 V2000
  192.4940  171.9760  142.7090 C   0  0  0  0  0  0  0  0  0  0  0  0
  190.1220  174.9440  142.0740 N   0  0  1  0  0  0  0  0  0  0  0  0
  189.7800  177.3530  144.2860 O   0  0  0  0  0  0  0  0  0  0  0  0
  191.7920  173.3160  140.9710 C   0  0  2  0  0  3  0  0  0  0  0  0
  190.0330  175.0860  143.5390 C   0  0  2  0  0  3  0  0  0  0  0  0
  191.5320  174.5320  141.8780 C   0  0  2  0  0  3  0  0  0  0  0  0
  189.0640  176.1790  144.0050 C   0  0  2  0  0  3  0  0  0  0  0  0
  190.8680  173.4180  139.7840 C   0  0  0  0  0  2  0  0  0  0  0  0
  192.1900  174.4370  143.2450 C   0  0  2  0  0  3  0  0  0  0  0  0
  193.8060  172.1540  142.2880 F   0  0  0  0  0  0  0  0  0  0  0  0
  187.7340  174.5650  141.4790 C   0  0  0  0  0  2  0  0  0  0  0  0
  189.4150  173.3470  140.2350 C   0  0  0  0  0  2  0  0  0  0  0  0
  192.1330  172.9920  143.7840 C   0  0  0  0  0  2  0  0  0  0  0  0
  189.6210  176.4000  146.4870 O   0  0  0  0  0  0  0  0  0  0  0  0
  190.0160  177.4940  145.6830 C   0  0  1  0  0  3  0  0  0  0  0  0
  189.1230  173.9400  141.6260 C   0  0  1  0  0  3  0  0  0  0  0  0
  191.3830  175.3570  144.0420 N   0  0  2  0  0  0  0  0  0  0  0  0
  191.5880  172.0840  141.6340 O   0  0  0  0  0  0  0  0  0  0  0  0
  187.8710  176.4430  143.0900 C   0  0  1  0  0  3  0  0  0  0  0  0
  192.3820  170.7120  143.2540 F   0  0  0  0  0  0  0  0  0  0  0  0
  191.0070  176.5070  146.2500 C   0  0  2  0  0  3  0  0  0  0  0  0
  191.4530  175.2200  145.5120 C   0  0  2  0  0  3  0  0  0  0  0  0
  187.1660  175.1370  142.7630 C   0  0  0  0  0  2  0  0  0  0  0  0
  186.5800  178.5820  143.0330 C   0  0  0  0  0  3  0  0  0  0  0  0
  186.9120  177.4070  143.7190 C   0  0  0  0  0  0  0  0  0  0  0  0
  186.3510  177.1590  144.9820 C   0  0  0  0  0  3  0  0  0  0  0  0
  184.8750  177.8140  146.8870 C   0  0  0  0  0  1  0  0  0  0  0  0
  185.1380  179.2500  144.8610 C   0  0  0  0  0  3  0  0  0  0  0  0
  185.4660  178.0800  145.5500 C   0  0  0  0  0  0  0  0  0  0  0  0
  185.6950  179.5010  143.6020 C   0  0  0  0  0  3  0  0  0  0  0  0
  192.8830  174.9170  145.9890 C   0  0  0  0  0  2  0  0  0  0  0  0
  193.9240  175.9150  145.4690 C   0  0  1  0  0  3  0  0  0  0  0  0
  194.9410  177.9160  146.2000 O   0  0  0  0  0  0  0  0  0  0  0  0
  194.3330  176.9050  146.5120 C   0  0  0  0  0  3  0  0  0  0  0  0
  195.0960  175.2260  144.9490 N   0  0  0  0  0  2  0  0  0  0  0  0
  195.3030  174.0400  145.7650 C   0  0  0  0  0  2  0  0  0  0  0  0
  196.4780  174.1650  146.4840 F   0  0  0  0  0  0  0  0  0  0  0  0
  1 20  1  0  0  0  0
  1 13  1  0  0  0  0
  2  5  1  0  0  0  0
  3 15  1  0  0  0  0
  4 18  1  0  0  0  0
  4  6  1  0  0  0  0
  5  7  1  0  0  0  0
  5 17  1  0  0  0  0
  6  2  1  0  0  0  0
  6  9  1  0  0  0  0
  7  3  1  0  0  0  0
  8 12  1  0  0  0  0
  8  4  1  0  0  0  0
  9 13  1  0  0  0  0
  9 17  1  0  0  0  0
 10  1  1  0  0  0  0
 11 16  1  0  0  0  0
 11 23  1  0  0  0  0
 12 16  1  0  0  0  0
 15 21  1  0  0  0  0
 15 14  1  0  0  0  0
 16  2  1  0  0  0  0
 17 22  1  0  0  0  0
 18  1  1  0  0  0  0
 19 25  1  0  0  0  0
 19  7  1  0  0  0  0
 21 14  1  0  0  0  0
 22 31  1  0  0  0  0
 22 21  1  0  0  0  0
 23 19  1  0  0  0  0
 24 30  2  0  0  0  0
 24 25  1  0  0  0  0
 25 26  2  0  0  0  0
 26 29  1  0  0  0  0
 28 29  2  0  0  0  0
 29 27  1  0  0  0  0
 30 28  1  0  0  0  0
 32 31  1  0  0  0  0
 32 34  1  0  0  0  0
 33 34  2  0  0  0  0
 35 32  1  0  0  0  0
 35 36  1  0  0  0  0
 36 37  1  0  0  0  0
M  END
>  <MODEL>
4

>  <REMARK>
 VINA RESULT:      -7.2      1.946      5.153
  Name = 
  6 active torsions:
  status: ('A' for Active; 'I' for Inactive)
    1  A    between atoms: C_1  and  CA_4
    2  A    between atoms: C_1  and  C_27
    3  A    between atoms: CA_4  and  N_12
    4  A    between atoms: CA_4  and  C_37
    5  A    between atoms: C_8  and  N_12
    6  A    between atoms: C_23  and  C_30
                            x       y       z     vdW  Elec       q    Type
                         _______ _______ _______ _____ _____    ______ ____

>  <TORSDO>
F 6

$$$$
=
 OpenBabel11112417273D

 37 43  0  0  1  0  0  0  0  0999 V2000
  187.7330  176.2640  141.4410 C   0  0  0  0  0  0  0  0  0  0  0  0
  190.4960  173.8790  142.6720 N   0  0  1  0  0  0  0  0  0  0  0  0
  192.0790  174.4250  145.5020 O   0  0  0  0  0  0  0  0  0  0  0  0
  188.2150  174.0120  141.4730 C   0  0  2  0  0  3  0  0  0  0  0  0
  191.0430  175.0250  143.4220 C   0  0  2  0  0  3  0  0  0  0  0  0
  189.0340  174.1000  142.7730 C   0  0  2  0  0  3  0  0  0  0  0  0
  192.3540  174.7240  144.1580 C   0  0  2  0  0  3  0  0  0  0  0  0
  188.7450  172.8500  140.6710 C   0  0  0  0  0  2  0  0  0  0  0  0
  188.8030  175.3780  143.5630 C   0  0  2  0  0  3  0  0  0  0  0  0
  186.4480  175.9730  141.8800 F   0  0  0  0  0  0  0  0  0  0  0  0
  192.4230  173.2940  141.2080 C   0  0  0  0  0  2  0  0  0  0  0  0
  190.1960  173.0920  140.2800 C   0  0  0  0  0  2  0  0  0  0  0  0
  188.6420  176.5880  142.6190 C   0  0  0  0  0  2  0  0  0  0  0  0
  192.6250  176.7590  145.6740 O   0  0  0  0  0  0  0  0  0  0  0  0
  192.3070  175.5530  146.3410 C   0  0  1  0  0  3  0  0  0  0  0  0
  191.0260  173.9140  141.2850 C   0  0  1  0  0  3  0  0  0  0  0  0
  190.0170  175.4660  144.3710 N   0  0  2  0  0  0  0  0  0  0  0  0
  188.2800  175.1950  140.7030 O   0  0  0  0  0  0  0  0  0  0  0  0
  193.2520  173.6730  143.5120 C   0  0  1  0  0  3  0  0  0  0  0  0
  187.6690  177.3770  140.6250 F   0  0  0  0  0  0  0  0  0  0  0  0
  191.3060  176.6690  146.1680 C   0  0  2  0  0  3  0  0  0  0  0  0
  190.3480  176.7820  144.9570 C   0  0  2  0  0  3  0  0  0  0  0  0
  193.4690  174.0030  142.0440 C   0  0  0  0  0  2  0  0  0  0  0  0
  195.4050  174.6980  144.2570 C   0  0  0  0  0  3  0  0  0  0  0  0
  194.5680  173.5770  144.2220 C   0  0  0  0  0  0  0  0  0  0  0  0
  194.9780  172.3860  144.8410 C   0  0  0  0  0  3  0  0  0  0  0  0
  196.6450  171.0580  146.1420 C   0  0  0  0  0  1  0  0  0  0  0  0
  197.0470  173.4440  145.5210 C   0  0  0  0  0  3  0  0  0  0  0  0
  196.2150  172.3210  145.4890 C   0  0  0  0  0  0  0  0  0  0  0  0
  196.6420  174.6330  144.9060 C   0  0  0  0  0  3  0  0  0  0  0  0
  189.0930  177.5140  145.4590 C   0  0  0  0  0  2  0  0  0  0  0  0
  188.6700  177.0990  146.8730 C   0  0  1  0  0  3  0  0  0  0  0  0
  186.6160  177.9380  147.6780 O   0  0  0  0  0  0  0  0  0  0  0  0
  187.8120  178.1290  147.5360 C   0  0  0  0  0  3  0  0  0  0  0  0
  187.9840  175.8150  146.8580 N   0  0  0  0  0  2  0  0  0  0  0  0
  188.7790  174.8850  147.6440 C   0  0  0  0  0  2  0  0  0  0  0  0
  189.2800  173.8880  146.8270 F   0  0  0  0  0  0  0  0  0  0  0  0
  1 10  1  0  0  0  0
  1 13  1  0  0  0  0
  2  6  1  0  0  0  0
  2  5  1  0  0  0  0
  3 15  1  0  0  0  0
  4  6  1  0  0  0  0
  5  7  1  0  0  0  0
  5 17  1  0  0  0  0
  6  9  1  0  0  0  0
  7  3  1  0  0  0  0
  8  4  1  0  0  0  0
  9 17  1  0  0  0  0
 11 16  1  0  0  0  0
 11 23  1  0  0  0  0
 12  8  1  0  0  0  0
 12 16  1  0  0  0  0
 13  9  1  0  0  0  0
 14 21  1  0  0  0  0
 14 15  1  0  0  0  0
 16  2  1  0  0  0  0
 17 22  1  0  0  0  0
 18  1  1  0  0  0  0
 18  4  1  0  0  0  0
 19  7  1  0  0  0  0
 19 25  1  0  0  0  0
 20  1  1  0  0  0  0
 21 15  1  0  0  0  0
 22 31  1  0  0  0  0
 22 21  1  0  0  0  0
 23 19  1  0  0  0  0
 24 30  1  0  0  0  0
 25 24  2  0  0  0  0
 25 26  1  0  0  0  0
 26 29  2  0  0  0  0
 29 28  1  0  0  0  0
 29 27  1  0  0  0  0
 30 28  2  0  0  0  0
 31 32  1  0  0  0  0
 32 34  1  0  0  0  0
 34 33  2  0  0  0  0
 35 32  1  0  0  0  0
 35 36  1  0  0  0  0
 37 36  1  0  0  0  0
M  END
>  <MODEL>
5

>  <REMARK>
 VINA RESULT:      -7.1      3.014      7.653
  Name = 
  6 active torsions:
  status: ('A' for Active; 'I' for Inactive)
    1  A    between atoms: C_1  and  CA_4
    2  A    between atoms: C_1  and  C_27
    3  A    between atoms: CA_4  and  N_12
    4  A    between atoms: CA_4  and  C_37
    5  A    between atoms: C_8  and  N_12
    6  A    between atoms: C_23  and  C_30
                            x       y       z     vdW  Elec       q    Type
                         _______ _______ _______ _____ _____    ______ ____

>  <TORSDO>
F 6

$$$$
=
 OpenBabel11112417273D

 37 43  0  0  1  0  0  0  0  0999 V2000
  187.1600  177.0650  147.1390 C   0  0  0  0  0  0  0  0  0  0  0  0
  190.1870  175.9420  145.0370 N   0  0  1  0  0  0  0  0  0  0  0  0
  189.8780  175.2660  141.8340 O   0  0  0  0  0  0  0  0  0  0  0  0
  189.4160  177.4950  146.9480 C   0  0  2  0  0  3  0  0  0  0  0  0
  189.2210  175.2780  144.1430 C   0  0  2  0  0  3  0  0  0  0  0  0
  189.4560  177.1650  145.4450 C   0  0  2  0  0  3  0  0  0  0  0  0
  189.8680  174.4850  143.0010 C   0  0  2  0  0  3  0  0  0  0  0  0
  190.7810  177.2110  147.5210 C   0  0  0  0  0  2  0  0  0  0  0  0
  188.0890  177.1420  144.7800 C   0  0  2  0  0  3  0  0  0  0  0  0
  186.9240  178.4330  147.1690 F   0  0  0  0  0  0  0  0  0  0  0  0
  191.5910  174.0140  145.7500 C   0  0  0  0  0  2  0  0  0  0  0  0
  191.1150  175.7310  147.3880 C   0  0  0  0  0  2  0  0  0  0  0  0
  187.0290  176.5290  145.7190 C   0  0  0  0  0  2  0  0  0  0  0  0
  187.8820  173.9750  141.4800 O   0  0  0  0  0  0  0  0  0  0  0  0
  188.8060  174.9150  140.9660 C   0  0  1  0  0  3  0  0  0  0  0  0
  190.5160  175.0240  146.1570 C   0  0  1  0  0  3  0  0  0  0  0  0
  188.3320  176.3110  143.6040 N   0  0  2  0  0  0  0  0  0  0  0  0
  188.4370  176.7510  147.6460 O   0  0  0  0  0  0  0  0  0  0  0  0
  191.2400  173.8880  143.3010 C   0  0  1  0  0  3  0  0  0  0  0  0
  186.2090  176.4440  147.9240 F   0  0  0  0  0  0  0  0  0  0  0  0
  187.4410  175.3150  141.4700 C   0  0  2  0  0  3  0  0  0  0  0  0
  187.1530  175.7190  142.9370 C   0  0  2  0  0  3  0  0  0  0  0  0
  191.1950  173.1060  144.6030 C   0  0  0  0  0  2  0  0  0  0  0  0
  192.7890  173.4090  141.3990 C   0  0  0  0  0  3  0  0  0  0  0  0
  191.7000  173.0050  142.1810 C   0  0  0  0  0  0  0  0  0  0  0  0
  191.0560  171.7910  141.8980 C   0  0  0  0  0  3  0  0  0  0  0  0
  190.8150  169.7050  140.5440 C   0  0  0  0  0  1  0  0  0  0  0  0
  192.5880  171.3980  140.0640 C   0  0  0  0  0  3  0  0  0  0  0  0
  191.5000  170.9900  140.8410 C   0  0  0  0  0  0  0  0  0  0  0  0
  193.2320  172.6080  140.3430 C   0  0  0  0  0  3  0  0  0  0  0  0
  185.9700  176.7000  142.8960 C   0  0  0  0  0  2  0  0  0  0  0  0
  186.1470  177.8270  141.8710 C   0  0  1  0  0  3  0  0  0  0  0  0
  185.1210  177.5410  139.7640 O   0  0  0  0  0  0  0  0  0  0  0  0
  184.9970  177.9160  140.9190 C   0  0  0  0  0  3  0  0  0  0  0  0
  186.3460  179.1090  142.5320 N   0  0  0  0  0  2  0  0  0  0  0  0
  185.3650  179.2070  143.6000 C   0  0  0  0  0  2  0  0  0  0  0  0
  185.9130  179.8700  144.6820 F   0  0  0  0  0  0  0  0  0  0  0  0
  1 10  1  0  0  0  0
  1 18  1  0  0  0  0
  1 20  1  0  0  0  0
  2  6  1  0  0  0  0
  2 16  1  0  0  0  0
  3  7  1  0  0  0  0
  4  8  1  0  0  0  0
  4 18  1  0  0  0  0
  5  2  1  0  0  0  0
  6  4  1  0  0  0  0
  7 19  1  0  0  0  0
  7  5  1  0  0  0  0
  9  6  1  0  0  0  0
  9 13  1  0  0  0  0
 11 16  1  0  0  0  0
 12  8  1  0  0  0  0
 13  1  1  0  0  0  0
 15 21  1  0  0  0  0
 15 14  1  0  0  0  0
 15  3  1  0  0  0  0
 16 12  1  0  0  0  0
 17  5  1  0  0  0  0
 17  9  1  0  0  0  0
 19 23  1  0  0  0  0
 21 14  1  0  0  0  0
 21 22  1  0  0  0  0
 22 17  1  0  0  0  0
 23 11  1  0  0  0  0
 24 25  1  0  0  0  0
 25 19  1  0  0  0  0
 26 25  2  0  0  0  0
 27 29  1  0  0  0  0
 28 30  1  0  0  0  0
 28 29  2  0  0  0  0
 29 26  1  0  0  0  0
 30 24  2  0  0  0  0
 31 22  1  0  0  0  0
 32 35  1  0  0  0  0
 32 31  1  0  0  0  0
 33 34  2  0  0  0  0
 34 32  1  0  0  0  0
 35 36  1  0  0  0  0
 36 37  1  0  0  0  0
M  END
>  <MODEL>
6

>  <REMARK>
 VINA RESULT:      -7.1      3.706      6.981
  Name = 
  6 active torsions:
  status: ('A' for Active; 'I' for Inactive)
    1  A    between atoms: C_1  and  CA_4
    2  A    between atoms: C_1  and  C_27
    3  A    between atoms: CA_4  and  N_12
    4  A    between atoms: CA_4  and  C_37
    5  A    between atoms: C_8  and  N_12
    6  A    between atoms: C_23  and  C_30
                            x       y       z     vdW  Elec       q    Type
                         _______ _______ _______ _____ _____    ______ ____

>  <TORSDO>
F 6

$$$$
=
 OpenBabel11112417273D

 37 43  0  0  1  0  0  0  0  0999 V2000
  193.2370  172.4400  143.4590 C   0  0  0  0  0  0  0  0  0  0  0  0
  190.3800  174.2380  141.6040 N   0  0  1  0  0  0  0  0  0  0  0  0
  189.6390  177.3760  142.2520 O   0  0  0  0  0  0  0  0  0  0  0  0
  192.3010  172.5340  141.3560 C   0  0  2  0  0  3  0  0  0  0  0  0
  190.2770  175.1230  142.7790 C   0  0  2  0  0  3  0  0  0  0  0  0
  191.8390  173.9940  141.5150 C   0  0  2  0  0  3  0  0  0  0  0  0
  189.1360  176.1440  142.6980 C   0  0  2  0  0  3  0  0  0  0  0  0
  191.3650  171.8550  140.3880 C   0  0  0  0  0  2  0  0  0  0  0  0
  192.5130  174.7350  142.6580 C   0  0  2  0  0  3  0  0  0  0  0  0
  194.4950  172.5540  142.8810 F   0  0  0  0  0  0  0  0  0  0  0  0
  188.0910  173.2630  141.5310 C   0  0  0  0  0  2  0  0  0  0  0  0
  189.9510  171.8260  140.9490 C   0  0  0  0  0  2  0  0  0  0  0  0
  192.7120  173.8080  143.8750 C   0  0  0  0  0  2  0  0  0  0  0  0
  189.6620  177.7270  144.6300 O   0  0  0  0  0  0  0  0  0  0  0  0
  189.8560  178.2700  143.3390 C   0  0  1  0  0  3  0  0  0  0  0  0
  189.5680  173.0190  141.8470 C   0  0  1  0  0  3  0  0  0  0  0  0
  191.5640  175.8100  142.9310 N   0  0  2  0  0  0  0  0  0  0  0  0
  192.3190  171.8290  142.5810 O   0  0  0  0  0  0  0  0  0  0  0  0
  187.9100  175.7050  141.9020 C   0  0  1  0  0  3  0  0  0  0  0  0
  193.3500  171.6580  144.5920 F   0  0  0  0  0  0  0  0  0  0  0  0
  191.0070  177.8900  144.2370 C   0  0  2  0  0  3  0  0  0  0  0  0
  191.6650  176.4880  144.2410 C   0  0  2  0  0  3  0  0  0  0  0  0
  187.4400  174.3400  142.3750 C   0  0  0  0  0  2  0  0  0  0  0  0
  186.3330  177.3480  140.8720 C   0  0  0  0  0  3  0  0  0  0  0  0
  186.8020  176.7060  142.0250 C   0  0  0  0  0  0  0  0  0  0  0  0
  186.2350  177.0180  143.2700 C   0  0  0  0  0  3  0  0  0  0  0  0
  184.6110  178.2890  144.6790 C   0  0  0  0  0  1  0  0  0  0  0  0
  184.7440  178.6000  142.2040 C   0  0  0  0  0  3  0  0  0  0  0  0
  185.2070  177.9620  143.3580 C   0  0  0  0  0  0  0  0  0  0  0  0
  185.3070  178.2920  140.9610 C   0  0  0  0  0  3  0  0  0  0  0  0
  193.1290  176.6940  144.6630 C   0  0  0  0  0  2  0  0  0  0  0  0
  193.3230  176.7550  146.1830 C   0  0  1  0  0  3  0  0  0  0  0  0
  192.2300  174.9210  147.1900 O   0  0  0  0  0  0  0  0  0  0  0  0
  192.1960  176.1120  146.9270 C   0  0  0  0  0  3  0  0  0  0  0  0
  194.5880  176.1490  146.5750 N   0  0  0  0  0  2  0  0  0  0  0  0
  195.2390  175.6780  145.3640 C   0  0  0  0  0  2  0  0  0  0  0  0
  195.6130  174.3550  145.5150 F   0  0  0  0  0  0  0  0  0  0  0  0
  1 13  1  0  0  0  0
  1 20  1  0  0  0  0
  2 16  1  0  0  0  0
  2  5  1  0  0  0  0
  3  7  1  0  0  0  0
  3 15  1  0  0  0  0
  4  6  1  0  0  0  0
  4 18  1  0  0  0  0
  5 17  1  0  0  0  0
  6  2  1  0  0  0  0
  6  9  1  0  0  0  0
  7  5  1  0  0  0  0
  8 12  1  0  0  0  0
  8  4  1  0  0  0  0
  9 17  1  0  0  0  0
  9 13  1  0  0  0  0
 10  1  1  0  0  0  0
 11 16  1  0  0  0  0
 11 23  1  0  0  0  0
 12 16  1  0  0  0  0
 15 21  1  0  0  0  0
 15 14  1  0  0  0  0
 17 22  1  0  0  0  0
 18  1  1  0  0  0  0
 19 25  1  0  0  0  0
 19 23  1  0  0  0  0
 19  7  1  0  0  0  0
 21 22  1  0  0  0  0
 21 14  1  0  0  0  0
 22 31  1  0  0  0  0
 24 30  2  0  0  0  0
 24 25  1  0  0  0  0
 25 26  2  0  0  0  0
 26 29  1  0  0  0  0
 28 29  2  0  0  0  0
 29 27  1  0  0  0  0
 30 28  1  0  0  0  0
 31 32  1  0  0  0  0
 32 35  1  0  0  0  0
 32 34  1  0  0  0  0
 34 33  2  0  0  0  0
 36 37  1  0  0  0  0
 36 35  1  0  0  0  0
M  END
>  <MODEL>
7

>  <REMARK>
 VINA RESULT:      -7.0      2.213      5.097
  Name = 
  6 active torsions:
  status: ('A' for Active; 'I' for Inactive)
    1  A    between atoms: C_1  and  CA_4
    2  A    between atoms: C_1  and  C_27
    3  A    between atoms: CA_4  and  N_12
    4  A    between atoms: CA_4  and  C_37
    5  A    between atoms: C_8  and  N_12
    6  A    between atoms: C_23  and  C_30
                            x       y       z     vdW  Elec       q    Type
                         _______ _______ _______ _____ _____    ______ ____

>  <TORSDO>
F 6

$$$$
=
 OpenBabel11112417273D

 37 43  0  0  1  0  0  0  0  0999 V2000
  187.4210  175.7660  142.6010 C   0  0  0  0  0  0  0  0  0  0  0  0
  191.1370  175.7570  143.6170 N   0  0  1  0  0  0  0  0  0  0  0  0
  193.1630  173.3590  142.6370 O   0  0  0  0  0  0  0  0  0  0  0  0
  189.1510  177.2520  142.9260 C   0  0  2  0  0  3  0  0  0  0  0  0
  191.1020  174.2940  143.4380 C   0  0  2  0  0  3  0  0  0  0  0  0
  190.2370  176.2320  142.5390 C   0  0  2  0  0  3  0  0  0  0  0  0
  192.4130  173.5860  143.8020 C   0  0  2  0  0  3  0  0  0  0  0  0
  189.7660  178.2430  143.8820 C   0  0  0  0  0  2  0  0  0  0  0  0
  189.7070  175.0160  141.7960 C   0  0  2  0  0  3  0  0  0  0  0  0
  187.1270  176.4040  141.4030 F   0  0  0  0  0  0  0  0  0  0  0  0
  191.8070  175.9350  146.0080 C   0  0  0  0  0  2  0  0  0  0  0  0
  190.2090  177.5440  145.1590 C   0  0  0  0  0  2  0  0  0  0  0  0
  188.3410  174.5760  142.3640 C   0  0  0  0  0  2  0  0  0  0  0  0
  192.0590  171.2370  142.8680 O   0  0  0  0  0  0  0  0  0  0  0  0
  193.0090  172.0210  142.1750 C   0  0  1  0  0  3  0  0  0  0  0  0
  190.6750  176.0850  144.9890 C   0  0  1  0  0  3  0  0  0  0  0  0
  190.7510  174.0250  142.0390 N   0  0  2  0  0  0  0  0  0  0  0  0
  188.0200  176.6500  143.5220 O   0  0  0  0  0  0  0  0  0  0  0  0
  193.2430  174.2510  144.8960 C   0  0  1  0  0  3  0  0  0  0  0  0
  186.2400  175.2980  143.1430 F   0  0  0  0  0  0  0  0  0  0  0  0
  191.6460  171.7120  141.6060 C   0  0  2  0  0  3  0  0  0  0  0  0
  190.4010  172.6040  141.8300 C   0  0  2  0  0  3  0  0  0  0  0  0
  192.3760  174.5340  146.1110 C   0  0  0  0  0  2  0  0  0  0  0  0
  195.6780  173.9790  145.3890 C   0  0  0  0  0  3  0  0  0  0  0  0
  194.4110  173.3940  145.2810 C   0  0  0  0  0  0  0  0  0  0  0  0
  194.2590  172.0200  145.5250 C   0  0  0  0  0  3  0  0  0  0  0  0
  195.2010  169.7880  146.1310 C   0  0  0  0  0  1  0  0  0  0  0  0
  196.6290  171.8310  145.9810 C   0  0  0  0  0  3  0  0  0  0  0  0
  195.3670  171.2420  145.8740 C   0  0  0  0  0  0  0  0  0  0  0  0
  196.7850  173.2000  145.7380 C   0  0  0  0  0  3  0  0  0  0  0  0
  189.5000  172.4160  140.5990 C   0  0  0  0  0  2  0  0  0  0  0  0
  190.2600  172.4950  139.2690 C   0  0  1  0  0  3  0  0  0  0  0  0
  190.0620  170.1700  138.9150 O   0  0  0  0  0  0  0  0  0  0  0  0
  190.0460  171.2840  138.4190 C   0  0  0  0  0  3  0  0  0  0  0  0
  189.8960  173.6950  138.5290 N   0  0  0  0  0  2  0  0  0  0  0  0
  188.4470  173.7150  138.4150 C   0  0  0  0  0  2  0  0  0  0  0  0
  187.9530  174.9080  138.9090 F   0  0  0  0  0  0  0  0  0  0  0  0
  1 20  1  0  0  0  0
  1 18  1  0  0  0  0
  2 16  1  0  0  0  0
  3  7  1  0  0  0  0
  4 18  1  0  0  0  0
  4  8  1  0  0  0  0
  5  2  1  0  0  0  0
  5  7  1  0  0  0  0
  6  4  1  0  0  0  0
  6  2  1  0  0  0  0
  7 19  1  0  0  0  0
  8 12  1  0  0  0  0
  9 17  1  0  0  0  0
  9 13  1  0  0  0  0
  9  6  1  0  0  0  0
 10  1  1  0  0  0  0
 11 23  1  0  0  0  0
 13  1  1  0  0  0  0
 15  3  1  0  0  0  0
 15 14  1  0  0  0  0
 16 12  1  0  0  0  0
 16 11  1  0  0  0  0
 17  5  1  0  0  0  0
 19 25  1  0  0  0  0
 19 23  1  0  0  0  0
 21 22  1  0  0  0  0
 21 15  1  0  0  0  0
 21 14  1  0  0  0  0
 22 17  1  0  0  0  0
 24 30  1  0  0  0  0
 25 24  2  0  0  0  0
 25 26  1  0  0  0  0
 26 29  2  0  0  0  0
 29 28  1  0  0  0  0
 29 27  1  0  0  0  0
 30 28  2  0  0  0  0
 31 22  1  0  0  0  0
 32 31  1  0  0  0  0
 34 33  2  0  0  0  0
 34 32  1  0  0  0  0
 35 32  1  0  0  0  0
 36 35  1  0  0  0  0
 36 37  1  0  0  0  0
M  END
>  <MODEL>
8

>  <REMARK>
 VINA RESULT:      -6.9      3.017      6.478
  Name = 
  6 active torsions:
  status: ('A' for Active; 'I' for Inactive)
    1  A    between atoms: C_1  and  CA_4
    2  A    between atoms: C_1  and  C_27
    3  A    between atoms: CA_4  and  N_12
    4  A    between atoms: CA_4  and  C_37
    5  A    between atoms: C_8  and  N_12
    6  A    between atoms: C_23  and  C_30
                            x       y       z     vdW  Elec       q    Type
                         _______ _______ _______ _____ _____    ______ ____

>  <TORSDO>
F 6

$$$$
=
 OpenBabel11112417273D

 37 43  0  0  1  0  0  0  0  0999 V2000
  194.8740  174.4810  141.2450 C   0  0  0  0  0  0  0  0  0  0  0  0
  191.9920  175.3590  143.6460 N   0  0  1  0  0  0  0  0  0  0  0  0
  188.9010  174.4400  143.0030 O   0  0  0  0  0  0  0  0  0  0  0  0
  194.4720  174.6590  143.5060 C   0  0  2  0  0  3  0  0  0  0  0  0
  191.0950  175.2620  142.4810 C   0  0  2  0  0  3  0  0  0  0  0  0
  192.9830  174.2900  143.3750 C   0  0  2  0  0  3  0  0  0  0  0  0
  189.6340  175.6170  142.7830 C   0  0  2  0  0  3  0  0  0  0  0  0
  194.6260  175.5350  144.7240 C   0  0  0  0  0  2  0  0  0  0  0  0
  192.6220  173.6360  142.0520 C   0  0  2  0  0  3  0  0  0  0  0  0
  195.4960  173.2610  141.4730 F   0  0  0  0  0  0  0  0  0  0  0  0
  191.6010  177.7100  144.3650 C   0  0  0  0  0  2  0  0  0  0  0  0
  193.8500  176.8320  144.5470 C   0  0  0  0  0  2  0  0  0  0  0  0
  193.4080  174.2770  140.8880 C   0  0  0  0  0  2  0  0  0  0  0  0
  188.4190  174.8290  140.6810 O   0  0  0  0  0  0  0  0  0  0  0  0
  188.1730  174.0580  141.8400 C   0  0  1  0  0  3  0  0  0  0  0  0
  192.5670  176.7270  143.7000 C   0  0  1  0  0  3  0  0  0  0  0  0
  191.1880  173.8950  141.9600 N   0  0  2  0  0  0  0  0  0  0  0  0
  194.9730  175.3290  142.3670 O   0  0  0  0  0  0  0  0  0  0  0  0
  189.4170  176.6410  143.8930 C   0  0  1  0  0  3  0  0  0  0  0  0
  195.4980  175.0910  140.1750 F   0  0  0  0  0  0  0  0  0  0  0  0
  189.0310  173.5580  140.7050 C   0  0  2  0  0  3  0  0  0  0  0  0
  190.5620  173.7780  140.6250 C   0  0  2  0  0  3  0  0  0  0  0  0
  190.2760  177.8690  143.6460 C   0  0  0  0  0  2  0  0  0  0  0  0
  187.3490  177.6190  142.8850 C   0  0  0  0  0  3  0  0  0  0  0  0
  187.9730  177.0300  143.9920 C   0  0  0  0  0  0  0  0  0  0  0  0
  187.2410  176.8260  145.1720 C   0  0  0  0  0  3  0  0  0  0  0  0
  185.1270  176.9890  146.4930 C   0  0  0  0  0  1  0  0  0  0  0  0
  185.2800  177.7930  144.1330 C   0  0  0  0  0  3  0  0  0  0  0  0
  185.8970  177.2070  145.2410 C   0  0  0  0  0  0  0  0  0  0  0  0
  186.0060  177.9990  142.9550 C   0  0  0  0  0  3  0  0  0  0  0  0
  191.1340  172.5930  139.8300 C   0  0  0  0  0  2  0  0  0  0  0  0
  190.4560  172.3870  138.4700 C   0  0  1  0  0  3  0  0  0  0  0  0
  189.8310  174.1470  137.0260 O   0  0  0  0  0  0  0  0  0  0  0  0
  190.7440  173.5030  137.5170 C   0  0  0  0  0  3  0  0  0  0  0  0
  190.8450  171.1150  137.8790 N   0  0  0  0  0  2  0  0  0  0  0  0
  189.7440  170.1870  138.0770 C   0  0  0  0  0  2  0  0  0  0  0  0
  190.1580  168.8990  137.7900 F   0  0  0  0  0  0  0  0  0  0  0  0
  1 10  1  0  0  0  0
  1 18  1  0  0  0  0
  2 16  1  0  0  0  0
  4  8  1  0  0  0  0
  5  7  1  0  0  0  0
  5  2  1  0  0  0  0
  6  4  1  0  0  0  0
  6  2  1  0  0  0  0
  7  3  1  0  0  0  0
  7 19  1  0  0  0  0
  9  6  1  0  0  0  0
 12  8  1  0  0  0  0
 13  1  1  0  0  0  0
 13  9  1  0  0  0  0
 14 21  1  0  0  0  0
 14 15  1  0  0  0  0
 15  3  1  0  0  0  0
 16 11  1  0  0  0  0
 16 12  1  0  0  0  0
 17  9  1  0  0  0  0
 17  5  1  0  0  0  0
 18  4  1  0  0  0  0
 19 25  1  0  0  0  0
 20  1  1  0  0  0  0
 21 15  1  0  0  0  0
 22 21  1  0  0  0  0
 22 17  1  0  0  0  0
 23 19  1  0  0  0  0
 23 11  1  0  0  0  0
 24 30  2  0  0  0  0
 24 25  1  0  0  0  0
 25 26  2  0  0  0  0
 26 29  1  0  0  0  0
 28 29  2  0  0  0  0
 29 27  1  0  0  0  0
 30 28  1  0  0  0  0
 31 22  1  0  0  0  0
 32 31  1  0  0  0  0
 33 34  2  0  0  0  0
 34 32  1  0  0  0  0
 35 36  1  0  0  0  0
 35 32  1  0  0  0  0
 37 36  1  0  0  0  0
M  END
>  <MODEL>
9

>  <REMARK>
 VINA RESULT:      -6.8      1.720      2.079
  Name = 
  6 active torsions:
  status: ('A' for Active; 'I' for Inactive)
    1  A    between atoms: C_1  and  CA_4
    2  A    between atoms: C_1  and  C_27
    3  A    between atoms: CA_4  and  N_12
    4  A    between atoms: CA_4  and  C_37
    5  A    between atoms: C_8  and  N_12
    6  A    between atoms: C_23  and  C_30
                            x       y       z     vdW  Elec       q    Type
                         _______ _______ _______ _____ _____    ______ ____

>  <TORSDO>
F 6

$$$$
