=
 OpenBabel11112417413D

 28 33  0  0  1  0  0  0  0  0999 V2000
  187.4980  177.5450  144.6590 C   0  0  0  0  0  0  0  0  0  0  0  0
  190.6740  177.2450  147.1900 O   0  0  0  0  0  0  0  0  0  0  0  0
  191.4640  174.7470  141.4430 O   0  0  0  0  0  1  0  0  0  0  0  0
  186.4980  177.0700  147.2300 C   0  0  0  0  0  3  0  0  0  0  0  0
  190.3440  173.1160  142.7660 C   0  0  1  0  0  3  0  0  0  0  0  0
  187.9900  177.7300  143.2530 C   0  0  1  0  0  3  0  0  0  0  0  0
  191.0470  175.1820  148.4590 O   0  0  0  0  0  0  0  0  0  0  0  0
  191.0890  175.8030  147.0920 S   0  0  0  0  0  0  0  0  0  0  0  0
  192.9290  174.3730  145.7700 C   0  0  2  0  0  3  0  0  0  0  0  0
  189.9850  174.8950  146.0080 C   0  0  2  0  0  3  0  0  0  0  0  0
  186.3020  175.9040  142.9480 O   0  0  0  0  0  1  0  0  0  0  0  0
  188.9800  174.8290  143.7930 C   0  0  2  0  0  3  0  0  0  0  0  0
  191.9740  174.2670  144.6770 N   0  0  0  0  0  2  0  0  0  0  0  0
  192.7470  175.7090  146.4620 C   0  0  0  0  0  2  0  0  0  0  0  0
  187.3530  176.6400  142.3830 C   0  0  2  0  0  0  0  0  0  0  0  0
  188.0910  176.5420  145.4650 C   0  0  0  0  0  0  0  0  0  0  0  0
  190.2010  174.3100  141.8400 C   0  0  1  0  0  3  0  0  0  0  0  0
  194.3350  174.2850  145.2170 C   0  0  0  0  0  1  0  0  0  0  0  0
  188.4270  175.8430  141.6460 C   0  0  0  0  0  2  0  0  0  0  0  0
  187.5670  176.3110  146.7480 C   0  0  0  0  0  3  0  0  0  0  0  0
  186.4320  178.3090  145.1530 C   0  0  0  0  0  3  0  0  0  0  0  0
  185.9360  178.0720  146.4370 C   0  0  0  0  0  3  0  0  0  0  0  0
  187.0100  178.0880  142.1380 C   0  0  0  0  0  2  0  0  0  0  0  0
  189.6980  173.5250  144.0720 C   0  0  2  0  0  3  0  0  0  0  0  0
  189.5080  175.3900  142.5400 N   0  0  1  0  0  0  0  0  0  0  0  0
  190.6890  173.7970  145.2110 C   0  0  2  0  0  3  0  0  0  0  0  0
  189.5980  171.9340  142.1810 C   0  0  0  0  0  1  0  0  0  0  0  0
  189.3020  175.7670  144.9630 C   0  0  1  0  0  3  0  0  0  0  0  0
  1 21  2  0  0  0  0
  1 16  1  0  0  0  0
  3 17  1  0  0  0  0
  5 27  1  6  0  0  0
  5 24  1  0  0  0  0
  6 23  1  6  0  0  0
  6  1  1  0  0  0  0
  8  2  2  0  0  0  0
  8  7  2  0  0  0  0
  9 18  1  6  0  0  0
  9 14  1  0  0  0  0
 10  8  1  6  0  0  0
 12 24  1  0  0  0  0
 12 28  1  0  0  0  0
 13 26  1  0  0  0  0
 13  9  1  0  0  0  0
 14  8  1  0  0  0  0
 15 11  1  0  0  0  0
 15  6  1  0  0  0  0
 16 20  2  0  0  0  0
 17 25  1  0  0  0  0
 17  5  1  0  0  0  0
 19 15  1  0  0  0  0
 19 25  1  0  0  0  0
 20  4  1  0  0  0  0
 21 22  1  0  0  0  0
 22  4  2  0  0  0  0
 23 15  1  0  0  0  0
 24 26  1  0  0  0  0
 25 12  1  0  0  0  0
 26 10  1  0  0  0  0
 28 16  1  0  0  0  0
 28 10  1  0  0  0  0
M  END
>  <MODEL>
1

>  <REMARK>
 VINA RESULT:      -9.1      0.000      0.000
  Name = 
  0 active torsions:
  status: ('A' for Active; 'I' for Inactive)
                            x       y       z     vdW  Elec       q    Type
                         _______ _______ _______ _____ _____    ______ ____

>  <TORSDO>
F 0

$$$$
=
 OpenBabel11112417413D

 28 33  0  0  1  0  0  0  0  0999 V2000
  185.8120  177.0490  143.6260 C   0  0  0  0  0  0  0  0  0  0  0  0
  187.4730  173.9830  141.5220 O   0  0  0  0  0  0  0  0  0  0  0  0
  189.1140  174.3760  147.6090 O   0  0  0  0  0  1  0  0  0  0  0  0
  186.3760  177.9890  141.0510 C   0  0  0  0  0  3  0  0  0  0  0  0
  190.5220  175.8730  146.4070 C   0  0  1  0  0  3  0  0  0  0  0  0
  185.5570  176.6100  145.0400 C   0  0  1  0  0  3  0  0  0  0  0  0
  189.7300  174.2050  140.5960 O   0  0  0  0  0  0  0  0  0  0  0  0
  188.9350  174.0530  141.8610 S   0  0  0  0  0  0  0  0  0  0  0  0
  190.6200  172.8440  143.5590 C   0  0  2  0  0  3  0  0  0  0  0  0
  189.2750  175.4510  142.9330 C   0  0  2  0  0  3  0  0  0  0  0  0
  186.7090  178.8040  145.4050 O   0  0  0  0  0  1  0  0  0  0  0  0
  188.6690  176.5590  145.0130 C   0  0  2  0  0  3  0  0  0  0  0  0
  190.2500  173.8490  144.5460 N   0  0  0  0  0  2  0  0  0  0  0  0
  189.4240  172.5510  142.6760 C   0  0  0  0  0  2  0  0  0  0  0  0
  186.2450  177.6110  145.9750 C   0  0  2  0  0  0  0  0  0  0  0  0
  187.0650  176.7550  143.0350 C   0  0  0  0  0  0  0  0  0  0  0  0
  189.2060  175.6870  147.1400 C   0  0  1  0  0  3  0  0  0  0  0  0
  191.0380  171.5750  144.2690 C   0  0  0  0  0  1  0  0  0  0  0  0
  187.1970  176.8920  146.9270 C   0  0  0  0  0  2  0  0  0  0  0  0
  187.3340  177.2460  141.7460 C   0  0  0  0  0  3  0  0  0  0  0  0
  184.8530  177.7850  142.9190 C   0  0  0  0  0  3  0  0  0  0  0  0
  185.1360  178.2510  141.6330 C   0  0  0  0  0  3  0  0  0  0  0  0
  184.7400  177.4930  145.9810 C   0  0  0  0  0  2  0  0  0  0  0  0
  190.1570  176.2750  144.9940 C   0  0  2  0  0  3  0  0  0  0  0  0
  188.0980  175.9570  146.2270 N   0  0  1  0  0  0  0  0  0  0  0  0
  190.3890  175.1820  143.9440 C   0  0  2  0  0  3  0  0  0  0  0  0
  191.3100  176.9890  147.0630 C   0  0  0  0  0  1  0  0  0  0  0  0
  188.0790  175.8850  143.7680 C   0  0  1  0  0  3  0  0  0  0  0  0
  1  6  1  0  0  0  0
  2  8  2  0  0  0  0
  4 22  2  0  0  0  0
  4 20  1  0  0  0  0
  5 27  1  1  0  0  0
  5 17  1  0  0  0  0
  6 15  1  0  0  0  0
  6 23  1  1  0  0  0
  7  8  2  0  0  0  0
  8 14  1  0  0  0  0
  9 18  1  1  0  0  0
  9 13  1  0  0  0  0
 10  8  1  1  0  0  0
 10 28  1  0  0  0  0
 10 26  1  0  0  0  0
 11 15  1  0  0  0  0
 12 25  1  0  0  0  0
 14  9  1  0  0  0  0
 15 23  1  0  0  0  0
 15 19  1  0  0  0  0
 16  1  1  0  0  0  0
 16 28  1  0  0  0  0
 17  3  1  0  0  0  0
 20 16  2  0  0  0  0
 21  1  2  0  0  0  0
 22 21  1  0  0  0  0
 24 12  1  0  0  0  0
 24  5  1  0  0  0  0
 25 19  1  0  0  0  0
 25 17  1  0  0  0  0
 26 13  1  0  0  0  0
 26 24  1  0  0  0  0
 28 12  1  0  0  0  0
M  END
>  <MODEL>
2

>  <REMARK>
 VINA RESULT:      -8.3      2.147      4.687
  Name = 
  0 active torsions:
  status: ('A' for Active; 'I' for Inactive)
                            x       y       z     vdW  Elec       q    Type
                         _______ _______ _______ _____ _____    ______ ____

>  <TORSDO>
F 0

$$$$
=
 OpenBabel11112417413D

 28 33  0  0  1  0  0  0  0  0999 V2000
  185.6710  177.7630  145.4890 C   0  0  0  0  0  0  0  0  0  0  0  0
  185.9440  176.6300  141.5870 O   0  0  0  0  0  0  0  0  0  0  0  0
  189.8560  173.7160  145.6000 O   0  0  0  0  0  1  0  0  0  0  0  0
  185.3150  180.0480  143.9110 C   0  0  0  0  0  3  0  0  0  0  0  0
  190.8790  175.7810  145.0000 C   0  0  1  0  0  3  0  0  0  0  0  0
  185.9250  176.5790  146.3770 C   0  0  1  0  0  3  0  0  0  0  0  0
  187.6720  177.5950  140.1420 O   0  0  0  0  0  0  0  0  0  0  0  0
  187.4180  176.6660  141.2950 S   0  0  0  0  0  0  0  0  0  0  0  0
  189.4450  174.9160  141.1940 C   0  0  2  0  0  3  0  0  0  0  0  0
  188.3360  177.2470  142.7230 C   0  0  2  0  0  3  0  0  0  0  0  0
  187.4200  178.3020  147.4120 O   0  0  0  0  0  1  0  0  0  0  0  0
  188.7440  176.9120  145.0980 C   0  0  2  0  0  3  0  0  0  0  0  0
  189.6290  175.1400  142.6210 N   0  0  0  0  0  2  0  0  0  0  0  0
  187.9720  175.0350  140.8590 C   0  0  0  0  0  2  0  0  0  0  0  0
  187.0530  176.9520  147.3460 C   0  0  2  0  0  0  0  0  0  0  0  0
  186.5420  178.0010  144.3980 C   0  0  0  0  0  0  0  0  0  0  0  0
  189.9380  175.0630  145.9520 C   0  0  1  0  0  3  0  0  0  0  0  0
  189.9270  173.5260  140.8390 C   0  0  0  0  0  1  0  0  0  0  0  0
  188.1910  175.9370  147.2630 C   0  0  0  0  0  2  0  0  0  0  0  0
  186.3550  179.1590  143.6250 C   0  0  0  0  0  3  0  0  0  0  0  0
  184.6240  178.6530  145.7620 C   0  0  0  0  0  3  0  0  0  0  0  0
  184.4470  179.7910  144.9730 C   0  0  0  0  0  3  0  0  0  0  0  0
  185.6690  176.6770  147.8790 C   0  0  0  0  0  2  0  0  0  0  0  0
  190.0540  176.8620  144.3380 C   0  0  2  0  0  3  0  0  0  0  0  0
  188.6110  175.6700  145.8750 N   0  0  1  0  0  0  0  0  0  0  0  0
  189.7070  176.5860  142.8700 C   0  0  2  0  0  3  0  0  0  0  0  0
  192.0050  176.4160  145.7900 C   0  0  0  0  0  1  0  0  0  0  0  0
  187.6300  176.9940  144.0470 C   0  0  1  0  0  3  0  0  0  0  0  0
  1 21  1  0  0  0  0
  1  6  1  0  0  0  0
  3 17  1  0  0  0  0
  4 22  1  0  0  0  0
  5 27  1  1  0  0  0
  5 17  1  0  0  0  0
  6 15  1  0  0  0  0
  6 23  1  1  0  0  0
  7  8  2  0  0  0  0
  8  2  2  0  0  0  0
  9 18  1  1  0  0  0
  9 13  1  0  0  0  0
 10  8  1  6  0  0  0
 10 26  1  0  0  0  0
 10 28  1  0  0  0  0
 12 25  1  0  0  0  0
 13 26  1  0  0  0  0
 14  9  1  0  0  0  0
 14  8  1  0  0  0  0
 15 11  1  0  0  0  0
 15 23  1  0  0  0  0
 16  1  2  0  0  0  0
 19 15  1  0  0  0  0
 20  4  2  0  0  0  0
 20 16  1  0  0  0  0
 22 21  2  0  0  0  0
 24  5  1  0  0  0  0
 24 12  1  0  0  0  0
 25 17  1  0  0  0  0
 25 19  1  0  0  0  0
 26 24  1  0  0  0  0
 28 16  1  0  0  0  0
 28 12  1  0  0  0  0
M  END
>  <MODEL>
3

>  <REMARK>
 VINA RESULT:      -7.8      2.372      4.930
  Name = 
  0 active torsions:
  status: ('A' for Active; 'I' for Inactive)
                            x       y       z     vdW  Elec       q    Type
                         _______ _______ _______ _____ _____    ______ ____

>  <TORSDO>
F 0

$$$$
=
 OpenBabel11112417413D

 28 33  0  0  1  0  0  0  0  0999 V2000
  185.9860  178.6270  146.0220 C   0  0  0  0  0  0  0  0  0  0  0  0
  189.6760  177.6990  147.4750 O   0  0  0  0  0  0  0  0  0  0  0  0
  189.2190  178.2180  141.1960 O   0  0  0  0  0  1  0  0  0  0  0  0
  185.6370  176.8970  148.1950 C   0  0  0  0  0  3  0  0  0  0  0  0
  188.5160  176.0170  141.7700 C   0  0  1  0  0  3  0  0  0  0  0  0
  186.1270  179.5000  144.8080 C   0  0  1  0  0  3  0  0  0  0  0  0
  190.4310  175.3680  147.5210 O   0  0  0  0  0  0  0  0  0  0  0  0
  190.1230  176.5380  146.6310 S   0  0  0  0  0  0  0  0  0  0  0  0
  191.6690  176.1550  144.4760 C   0  0  2  0  0  3  0  0  0  0  0  0
  188.8400  176.0630  145.4700 C   0  0  2  0  0  3  0  0  0  0  0  0
  184.5030  177.7770  143.9910 O   0  0  0  0  0  1  0  0  0  0  0  0
  187.3500  176.8530  143.7160 C   0  0  2  0  0  3  0  0  0  0  0  0
  190.4910  176.4110  143.6610 N   0  0  0  0  0  2  0  0  0  0  0  0
  191.5910  176.9900  145.7380 C   0  0  0  0  0  2  0  0  0  0  0  0
  185.3570  178.8370  143.6600 C   0  0  2  0  0  0  0  0  0  0  0  0
  186.7970  177.4710  146.1320 C   0  0  0  0  0  0  0  0  0  0  0  0
  188.1050  177.4640  141.5640 C   0  0  1  0  0  3  0  0  0  0  0  0
  192.9100  176.5390  143.6990 C   0  0  0  0  0  1  0  0  0  0  0  0
  186.2650  178.6320  142.4500 C   0  0  0  0  0  2  0  0  0  0  0  0
  186.5990  176.6090  147.2240 C   0  0  0  0  0  3  0  0  0  0  0  0
  185.0310  178.9150  147.0060 C   0  0  0  0  0  3  0  0  0  0  0  0
  184.8600  178.0520  148.0900 C   0  0  0  0  0  3  0  0  0  0  0  0
  184.8990  180.1700  144.1980 C   0  0  0  0  0  2  0  0  0  0  0  0
  188.1740  175.6890  143.2070 C   0  0  2  0  0  3  0  0  0  0  0  0
  187.5450  177.9920  142.8060 N   0  0  1  0  0  0  0  0  0  0  0  0
  189.3890  175.5630  144.1340 C   0  0  2  0  0  3  0  0  0  0  0  0
  187.7100  175.1290  140.8430 C   0  0  0  0  0  1  0  0  0  0  0  0
  187.8930  177.1980  145.1090 C   0  0  1  0  0  3  0  0  0  0  0  0
  1 16  2  0  0  0  0
  1 21  1  0  0  0  0
  3 17  1  0  0  0  0
  5 27  1  6  0  0  0
  5 24  1  0  0  0  0
  6 23  1  1  0  0  0
  6  1  1  0  0  0  0
  8  2  2  0  0  0  0
  8  7  2  0  0  0  0
  9 18  1  6  0  0  0
  9 14  1  0  0  0  0
 10  8  1  1  0  0  0
 12 28  1  0  0  0  0
 13 26  1  0  0  0  0
 13  9  1  0  0  0  0
 14  8  1  0  0  0  0
 15 11  1  0  0  0  0
 15 23  1  0  0  0  0
 15  6  1  0  0  0  0
 16 20  1  0  0  0  0
 17  5  1  0  0  0  0
 17 25  1  0  0  0  0
 19 25  1  0  0  0  0
 19 15  1  0  0  0  0
 20  4  2  0  0  0  0
 21 22  2  0  0  0  0
 22  4  1  0  0  0  0
 24 12  1  0  0  0  0
 24 26  1  0  0  0  0
 25 12  1  0  0  0  0
 26 10  1  0  0  0  0
 28 10  1  0  0  0  0
 28 16  1  0  0  0  0
M  END
>  <MODEL>
4

>  <REMARK>
 VINA RESULT:      -7.7      2.006      2.698
  Name = 
  0 active torsions:
  status: ('A' for Active; 'I' for Inactive)
                            x       y       z     vdW  Elec       q    Type
                         _______ _______ _______ _____ _____    ______ ____

>  <TORSDO>
F 0

$$$$
=
 OpenBabel11112417413D

 28 33  0  0  1  0  0  0  0  0999 V2000
  187.9360  176.2200  144.1950 C   0  0  0  0  0  0  0  0  0  0  0  0
  187.9190  172.6860  142.1730 O   0  0  0  0  0  0  0  0  0  0  0  0
  193.0040  173.8100  145.7480 O   0  0  0  0  0  1  0  0  0  0  0  0
  186.7660  176.6750  141.6930 C   0  0  0  0  0  3  0  0  0  0  0  0
  193.3510  174.9180  143.6700 C   0  0  1  0  0  3  0  0  0  0  0  0
  188.6200  176.0400  145.5200 C   0  0  1  0  0  3  0  0  0  0  0  0
  189.1030  172.4830  140.0370 O   0  0  0  0  0  0  0  0  0  0  0  0
  189.2730  172.6270  141.5220 S   0  0  0  0  0  0  0  0  0  0  0  0
  191.6500  171.4970  142.0280 C   0  0  2  0  0  3  0  0  0  0  0  0
  190.2070  174.1220  141.8580 C   0  0  2  0  0  3  0  0  0  0  0  0
  189.7470  178.1060  144.6600 O   0  0  0  0  0  1  0  0  0  0  0  0
  191.0330  175.6030  143.6030 C   0  0  2  0  0  3  0  0  0  0  0  0
  191.9770  172.6800  142.8110 N   0  0  0  0  0  2  0  0  0  0  0  0
  190.1650  171.2210  142.1430 C   0  0  0  0  0  2  0  0  0  0  0  0
  189.7410  177.0810  145.6160 C   0  0  2  0  0  0  0  0  0  0  0  0
  188.5450  175.6880  143.0330 C   0  0  0  0  0  0  0  0  0  0  0  0
  192.7820  175.0110  145.0740 C   0  0  1  0  0  3  0  0  0  0  0  0
  192.4210  170.3110  142.5660 C   0  0  0  0  0  1  0  0  0  0  0  0
  191.0800  176.4060  145.9040 C   0  0  0  0  0  2  0  0  0  0  0  0
  187.9490  175.9360  141.7850 C   0  0  0  0  0  3  0  0  0  0  0  0
  186.7450  176.9510  144.0960 C   0  0  0  0  0  3  0  0  0  0  0  0
  186.1620  177.1750  142.8470 C   0  0  0  0  0  3  0  0  0  0  0  0
  188.5700  177.1510  146.5660 C   0  0  0  0  0  2  0  0  0  0  0  0
  192.1840  175.1390  142.7330 C   0  0  2  0  0  3  0  0  0  0  0  0
  191.3460  175.2710  145.0010 N   0  0  1  0  0  0  0  0  0  0  0  0
  191.7090  173.8770  142.0030 C   0  0  2  0  0  3  0  0  0  0  0  0
  194.3750  176.0170  143.4690 C   0  0  0  0  0  1  0  0  0  0  0  0
  189.7940  174.8230  143.1440 C   0  0  1  0  0  3  0  0  0  0  0  0
  1  6  1  0  0  0  0
  4 20  2  0  0  0  0
  4 22  1  0  0  0  0
  5 27  1  1  0  0  0
  5 17  1  0  0  0  0
  6 15  1  0  0  0  0
  6 23  1  1  0  0  0
  7  8  2  0  0  0  0
  8 14  1  0  0  0  0
  8  2  2  0  0  0  0
  9 14  1  0  0  0  0
  9 18  1  1  0  0  0
  9 13  1  0  0  0  0
 10  8  1  1  0  0  0
 10 26  1  0  0  0  0
 10 28  1  0  0  0  0
 11 15  1  0  0  0  0
 12 25  1  0  0  0  0
 15 19  1  0  0  0  0
 15 23  1  0  0  0  0
 16 28  1  0  0  0  0
 16  1  2  0  0  0  0
 17  3  1  0  0  0  0
 20 16  1  0  0  0  0
 21  1  1  0  0  0  0
 22 21  2  0  0  0  0
 24 12  1  0  0  0  0
 24  5  1  0  0  0  0
 25 17  1  0  0  0  0
 25 19  1  0  0  0  0
 26 24  1  0  0  0  0
 26 13  1  0  0  0  0
 28 12  1  0  0  0  0
M  END
>  <MODEL>
5

>  <REMARK>
 VINA RESULT:      -7.5      2.356      4.661
  Name = 
  0 active torsions:
  status: ('A' for Active; 'I' for Inactive)
                            x       y       z     vdW  Elec       q    Type
                         _______ _______ _______ _____ _____    ______ ____

>  <TORSDO>
F 0

$$$$
=
 OpenBabel11112417413D

 28 33  0  0  1  0  0  0  0  0999 V2000
  188.2240  176.6800  143.7280 C   0  0  0  0  0  0  0  0  0  0  0  0
  191.6470  176.9050  145.9240 O   0  0  0  0  0  0  0  0  0  0  0  0
  192.0340  173.6750  140.5090 O   0  0  0  0  0  1  0  0  0  0  0  0
  187.5160  176.5160  146.4310 C   0  0  0  0  0  3  0  0  0  0  0  0
  191.1610  172.1870  142.1500 C   0  0  1  0  0  3  0  0  0  0  0  0
  188.5620  176.6930  142.2650 C   0  0  1  0  0  3  0  0  0  0  0  0
  192.2810  175.0620  147.4090 O   0  0  0  0  0  0  0  0  0  0  0  0
  192.1460  175.4870  145.9750 S   0  0  0  0  0  0  0  0  0  0  0  0
  193.9390  173.9860  144.6670 C   0  0  2  0  0  3  0  0  0  0  0  0
  191.0040  174.3790  145.1450 C   0  0  2  0  0  3  0  0  0  0  0  0
  186.9790  174.7550  142.3880 O   0  0  0  0  0  1  0  0  0  0  0  0
  189.7920  173.9510  143.0780 C   0  0  2  0  0  3  0  0  0  0  0  0
  192.8900  173.6780  143.7060 N   0  0  0  0  0  2  0  0  0  0  0  0
  193.7370  175.3940  145.1900 C   0  0  0  0  0  2  0  0  0  0  0  0
  187.9170  175.4600  141.6220 C   0  0  2  0  0  0  0  0  0  0  0  0
  188.9600  175.8320  144.5920 C   0  0  0  0  0  0  0  0  0  0  0  0
  190.8480  173.2320  141.0930 C   0  0  1  0  0  3  0  0  0  0  0  0
  195.2860  173.8960  143.9840 C   0  0  0  0  0  1  0  0  0  0  0  0
  188.9650  174.6260  140.8870 C   0  0  0  0  0  2  0  0  0  0  0  0
  188.5810  175.7550  145.9430 C   0  0  0  0  0  3  0  0  0  0  0  0
  187.1640  177.4480  144.2270 C   0  0  0  0  0  3  0  0  0  0  0  0
  186.8130  177.3660  145.5760 C   0  0  0  0  0  3  0  0  0  0  0  0
  187.4550  176.8400  141.2230 C   0  0  0  0  0  2  0  0  0  0  0  0
  190.6210  172.7390  143.4510 C   0  0  2  0  0  3  0  0  0  0  0  0
  190.1570  174.3600  141.7130 N   0  0  1  0  0  0  0  0  0  0  0  0
  191.6980  173.2190  144.4310 C   0  0  2  0  0  3  0  0  0  0  0  0
  190.4420  170.8970  141.8110 C   0  0  0  0  0  1  0  0  0  0  0  0
  190.1650  175.0590  144.0720 C   0  0  1  0  0  3  0  0  0  0  0  0
  1 21  2  0  0  0  0
  1 16  1  0  0  0  0
  2  8  2  0  0  0  0
  3 17  1  0  0  0  0
  5 27  1  6  0  0  0
  5 24  1  0  0  0  0
  6 23  1  6  0  0  0
  6  1  1  0  0  0  0
  8  7  2  0  0  0  0
  9 18  1  6  0  0  0
  9 14  1  0  0  0  0
 10  8  1  6  0  0  0
 12 24  1  0  0  0  0
 12 28  1  0  0  0  0
 13 26  1  0  0  0  0
 13  9  1  0  0  0  0
 14  8  1  0  0  0  0
 15  6  1  0  0  0  0
 15 11  1  0  0  0  0
 16 20  2  0  0  0  0
 17 25  1  0  0  0  0
 17  5  1  0  0  0  0
 19 15  1  0  0  0  0
 19 25  1  0  0  0  0
 20  4  1  0  0  0  0
 21 22  1  0  0  0  0
 22  4  2  0  0  0  0
 23 15  1  0  0  0  0
 24 26  1  0  0  0  0
 25 12  1  0  0  0  0
 26 10  1  0  0  0  0
 28 16  1  0  0  0  0
 28 10  1  0  0  0  0
M  END
>  <MODEL>
6

>  <REMARK>
 VINA RESULT:      -7.5      1.257      1.486
  Name = 
  0 active torsions:
  status: ('A' for Active; 'I' for Inactive)
                            x       y       z     vdW  Elec       q    Type
                         _______ _______ _______ _____ _____    ______ ____

>  <TORSDO>
F 0

$$$$
=
 OpenBabel11112417413D

 28 33  0  0  1  0  0  0  0  0999 V2000
  192.2590  174.4200  144.2660 C   0  0  0  0  0  0  0  0  0  0  0  0
  190.1970  175.6490  147.5550 O   0  0  0  0  0  0  0  0  0  0  0  0
  186.8090  174.9040  142.2770 O   0  0  0  0  0  1  0  0  0  0  0  0
  193.8980  176.1870  145.6900 C   0  0  0  0  0  3  0  0  0  0  0  0
  187.7980  177.0670  142.1740 C   0  0  1  0  0  3  0  0  0  0  0  0
  191.3910  173.5220  143.4330 C   0  0  1  0  0  3  0  0  0  0  0  0
  189.7060  178.0270  147.8840 O   0  0  0  0  0  0  0  0  0  0  0  0
  189.3800  176.8110  147.0650 S   0  0  0  0  0  0  0  0  0  0  0  0
  186.8710  177.2350  146.2240 C   0  0  2  0  0  3  0  0  0  0  0  0
  189.7370  177.1590  145.3410 C   0  0  2  0  0  3  0  0  0  0  0  0
  192.2740  175.1000  141.7000 O   0  0  0  0  0  1  0  0  0  0  0  0
  189.8600  176.2120  143.1030 C   0  0  2  0  0  3  0  0  0  0  0  0
  187.3220  176.8720  144.8880 N   0  0  0  0  0  2  0  0  0  0  0  0
  187.6520  176.4360  147.2470 C   0  0  0  0  0  2  0  0  0  0  0  0
  191.3510  174.0920  142.0110 C   0  0  2  0  0  0  0  0  0  0  0  0
  191.7170  175.6320  144.7570 C   0  0  0  0  0  0  0  0  0  0  0  0
  187.9500  175.5890  141.8620 C   0  0  1  0  0  3  0  0  0  0  0  0
  185.3980  176.9150  146.3600 C   0  0  0  0  0  1  0  0  0  0  0  0
  189.9100  174.3230  141.5630 C   0  0  0  0  0  2  0  0  0  0  0  0
  192.5590  176.5120  145.4590 C   0  0  0  0  0  3  0  0  0  0  0  0
  193.6000  174.0960  144.5100 C   0  0  0  0  0  3  0  0  0  0  0  0
  194.4160  174.9780  145.2220 C   0  0  0  0  0  3  0  0  0  0  0  0
  191.9890  172.7480  142.2600 C   0  0  0  0  0  2  0  0  0  0  0  0
  188.9390  177.4150  143.1040 C   0  0  2  0  0  3  0  0  0  0  0  0
  189.1180  175.0620  142.5630 N   0  0  1  0  0  0  0  0  0  0  0  0
  188.5200  177.6550  144.5600 C   0  0  2  0  0  3  0  0  0  0  0  0
  187.9270  177.8670  140.8930 C   0  0  0  0  0  1  0  0  0  0  0  0
  190.2400  175.9490  144.5660 C   0  0  1  0  0  3  0  0  0  0  0  0
  1 21  2  0  0  0  0
  1 16  1  0  0  0  0
  5 27  1  6  0  0  0
  5 24  1  0  0  0  0
  6 23  1  6  0  0  0
  6  1  1  0  0  0  0
  8 14  1  0  0  0  0
  8  2  2  0  0  0  0
  8  7  2  0  0  0  0
  9 18  1  6  0  0  0
  9 14  1  0  0  0  0
 10  8  1  1  0  0  0
 11 15  1  0  0  0  0
 12 24  1  0  0  0  0
 12 28  1  0  0  0  0
 13  9  1  0  0  0  0
 15 23  1  0  0  0  0
 15  6  1  0  0  0  0
 16 20  2  0  0  0  0
 17  5  1  0  0  0  0
 17  3  1  0  0  0  0
 17 25  1  0  0  0  0
 19 15  1  0  0  0  0
 19 25  1  0  0  0  0
 20  4  1  0  0  0  0
 21 22  1  0  0  0  0
 22  4  2  0  0  0  0
 24 26  1  0  0  0  0
 25 12  1  0  0  0  0
 26 13  1  0  0  0  0
 26 10  1  0  0  0  0
 28 16  1  0  0  0  0
 28 10  1  0  0  0  0
M  END
>  <MODEL>
7

>  <REMARK>
 VINA RESULT:      -7.5      1.499      5.263
  Name = 
  0 active torsions:
  status: ('A' for Active; 'I' for Inactive)
                            x       y       z     vdW  Elec       q    Type
                         _______ _______ _______ _____ _____    ______ ____

>  <TORSDO>
F 0

$$$$
=
 OpenBabel11112417413D

 28 33  0  0  1  0  0  0  0  0999 V2000
  188.8770  175.6310  145.4130 C   0  0  0  0  0  0  0  0  0  0  0  0
  187.7440  173.6370  142.0470 O   0  0  0  0  0  0  0  0  0  0  0  0
  193.5500  172.3800  144.1920 O   0  0  0  0  0  1  0  0  0  0  0  0
  187.3570  177.3880  143.8510 C   0  0  0  0  0  3  0  0  0  0  0  0
  193.7020  174.3620  142.8840 C   0  0  1  0  0  3  0  0  0  0  0  0
  189.7550  174.7470  146.2510 C   0  0  1  0  0  3  0  0  0  0  0  0
  188.4200  174.4610  139.8410 O   0  0  0  0  0  0  0  0  0  0  0  0
  188.9030  173.8130  141.1070 S   0  0  0  0  0  0  0  0  0  0  0  0
  191.0520  172.4020  140.3490 C   0  0  2  0  0  3  0  0  0  0  0  0
  190.1700  174.8490  141.8430 C   0  0  2  0  0  3  0  0  0  0  0  0
  191.0890  176.8670  146.2050 O   0  0  0  0  0  1  0  0  0  0  0  0
  191.6060  175.1640  143.7820 C   0  0  2  0  0  3  0  0  0  0  0  0
  191.7600  172.9900  141.4770 N   0  0  0  0  0  2  0  0  0  0  0  0
  189.5930  172.2230  140.7170 C   0  0  0  0  0  2  0  0  0  0  0  0
  191.0620  175.5020  146.5210 C   0  0  2  0  0  0  0  0  0  0  0  0
  189.1250  175.7200  144.0210 C   0  0  0  0  0  0  0  0  0  0  0  0
  193.4500  173.7690  144.2580 C   0  0  1  0  0  3  0  0  0  0  0  0
  191.6550  171.0520  140.0270 C   0  0  0  0  0  1  0  0  0  0  0  0
  192.2650  174.6730  146.0770 C   0  0  0  0  0  2  0  0  0  0  0  0
  188.3590  176.6160  143.2560 C   0  0  0  0  0  3  0  0  0  0  0  0
  187.8630  176.4000  146.0000 C   0  0  0  0  0  3  0  0  0  0  0  0
  187.1060  177.2740  145.2190 C   0  0  0  0  0  3  0  0  0  0  0  0
  190.1390  175.1680  147.6670 C   0  0  0  0  0  2  0  0  0  0  0  0
  192.4440  175.1200  142.5210 C   0  0  2  0  0  3  0  0  0  0  0  0
  192.1120  174.1410  144.7110 N   0  0  1  0  0  0  0  0  0  0  0  0
  191.5890  174.4490  141.4400 C   0  0  2  0  0  3  0  0  0  0  0  0
  194.8700  175.3260  142.9580 C   0  0  0  0  0  1  0  0  0  0  0  0
  190.1690  174.8260  143.3650 C   0  0  1  0  0  3  0  0  0  0  0  0
  1 21  1  0  0  0  0
  1  6  1  0  0  0  0
  3 17  1  0  0  0  0
  4 22  1  0  0  0  0
  5 27  1  1  0  0  0
  5 17  1  0  0  0  0
  6 15  1  0  0  0  0
  6 23  1  1  0  0  0
  7  8  2  0  0  0  0
  8  2  2  0  0  0  0
  9 18  1  1  0  0  0
  9 14  1  0  0  0  0
  9 13  1  0  0  0  0
 10  8  1  6  0  0  0
 10 28  1  0  0  0  0
 11 15  1  0  0  0  0
 12 25  1  0  0  0  0
 14  8  1  0  0  0  0
 15 23  1  0  0  0  0
 16  1  2  0  0  0  0
 17 25  1  0  0  0  0
 19 15  1  0  0  0  0
 20  4  2  0  0  0  0
 20 16  1  0  0  0  0
 22 21  2  0  0  0  0
 24  5  1  0  0  0  0
 24 12  1  0  0  0  0
 25 19  1  0  0  0  0
 26 13  1  0  0  0  0
 26 10  1  0  0  0  0
 26 24  1  0  0  0  0
 28 12  1  0  0  0  0
 28 16  1  0  0  0  0
M  END
>  <MODEL>
8

>  <REMARK>
 VINA RESULT:      -7.4      2.327      4.988
  Name = 
  0 active torsions:
  status: ('A' for Active; 'I' for Inactive)
                            x       y       z     vdW  Elec       q    Type
                         _______ _______ _______ _____ _____    ______ ____

>  <TORSDO>
F 0

$$$$
=
 OpenBabel11112417413D

 28 33  0  0  1  0  0  0  0  0999 V2000
  189.9690  174.7040  144.4290 C   0  0  0  0  0  0  0  0  0  0  0  0
  193.0700  177.3350  144.6380 O   0  0  0  0  0  0  0  0  0  0  0  0
  194.4270  171.6320  142.2880 O   0  0  0  0  0  1  0  0  0  0  0  0
  189.6750  176.1840  146.7870 C   0  0  0  0  0  3  0  0  0  0  0  0
  194.5130  171.4490  144.6600 C   0  0  1  0  0  3  0  0  0  0  0  0
  190.1240  173.8380  143.2120 C   0  0  1  0  0  3  0  0  0  0  0  0
  194.6310  177.2530  146.5250 O   0  0  0  0  0  0  0  0  0  0  0  0
  194.1790  176.5480  145.2780 S   0  0  0  0  0  0  0  0  0  0  0  0
  196.3380  175.1800  144.4720 C   0  0  2  0  0  3  0  0  0  0  0  0
  193.6220  174.8990  145.7120 C   0  0  2  0  0  3  0  0  0  0  0  0
  189.6570  172.1260  144.9800 O   0  0  0  0  0  1  0  0  0  0  0  0
  192.5680  172.8690  144.8780 C   0  0  2  0  0  3  0  0  0  0  0  0
  195.4730  174.0180  144.3280 N   0  0  0  0  0  2  0  0  0  0  0  0
  195.5470  176.4320  144.1490 C   0  0  0  0  0  2  0  0  0  0  0  0
  190.0780  172.3750  143.6670 C   0  0  2  0  0  0  0  0  0  0  0  0
  191.0930  174.9190  145.2630 C   0  0  0  0  0  0  0  0  0  0  0  0
  193.6490  171.3660  143.4140 C   0  0  1  0  0  3  0  0  0  0  0  0
  197.5000  175.0630  143.5090 C   0  0  0  0  0  1  0  0  0  0  0  0
  191.3220  171.6250  143.1930 C   0  0  0  0  0  2  0  0  0  0  0  0
  190.9220  175.6540  146.4480 C   0  0  0  0  0  3  0  0  0  0  0  0
  188.7230  175.2480  144.7690 C   0  0  0  0  0  3  0  0  0  0  0  0
  188.5790  175.9870  145.9450 C   0  0  0  0  0  3  0  0  0  0  0  0
  188.9870  172.9160  142.7770 C   0  0  0  0  0  2  0  0  0  0  0  0
  193.9000  172.5340  145.5180 C   0  0  2  0  0  3  0  0  0  0  0  0
  192.5690  172.3460  143.5040 N   0  0  1  0  0  0  0  0  0  0  0  0
  194.7100  173.8350  145.5690 C   0  0  2  0  0  3  0  0  0  0  0  0
  194.4570  170.1280  145.3990 C   0  0  0  0  0  1  0  0  0  0  0  0
  192.4660  174.4000  144.8550 C   0  0  1  0  0  3  0  0  0  0  0  0
  1 21  2  0  0  0  0
  1 16  1  0  0  0  0
  2  8  2  0  0  0  0
  3 17  1  0  0  0  0
  5 27  1  1  0  0  0
  5 24  1  0  0  0  0
  6 23  1  6  0  0  0
  6 15  1  0  0  0  0
  6  1  1  0  0  0  0
  8  7  2  0  0  0  0
  9 18  1  6  0  0  0
 10  8  1  6  0  0  0
 12 24  1  0  0  0  0
 13  9  1  0  0  0  0
 13 26  1  0  0  0  0
 14  9  1  0  0  0  0
 14  8  1  0  0  0  0
 15 11  1  0  0  0  0
 16 20  2  0  0  0  0
 17 25  1  0  0  0  0
 17  5  1  0  0  0  0
 19 25  1  0  0  0  0
 19 15  1  0  0  0  0
 20  4  1  0  0  0  0
 21 22  1  0  0  0  0
 22  4  2  0  0  0  0
 23 15  1  0  0  0  0
 24 26  1  0  0  0  0
 25 12  1  0  0  0  0
 26 10  1  0  0  0  0
 28 12  1  0  0  0  0
 28 16  1  0  0  0  0
 28 10  1  0  0  0  0
M  END
>  <MODEL>
9

>  <REMARK>
 VINA RESULT:      -7.1      2.784      4.286
  Name = 
  0 active torsions:
  status: ('A' for Active; 'I' for Inactive)
                            x       y       z     vdW  Elec       q    Type
                         _______ _______ _______ _____ _____    ______ ____

>  <TORSDO>
F 0

$$$$
