=
 OpenBabel11112416123D

 30 35  0  0  1  0  0  0  0  0999 V2000
  186.9980  176.3350  144.3430 C   0  0  2  0  0  3  0  0  0  0  0  0
  185.2990  177.9340  145.3190 C   0  0  0  0  0  0  0  0  0  0  0  0
  189.6470  177.2610  147.4490 N   0  0  0  0  0  2  0  0  0  0  0  0
  188.4890  175.9360  144.1750 C   0  0  1  0  0  3  0  0  0  0  0  0
  186.1800  176.1080  143.1380 N   0  0  0  0  0  2  0  0  0  0  0  0
  188.0840  174.5920  141.3530 C   0  0  0  0  0  1  0  0  0  0  0  0
  191.5030  176.9140  143.3600 C   0  0  1  0  0  3  0  0  0  0  0  0
  188.1710  176.0840  141.6520 C   0  0  1  0  0  3  0  0  0  0  0  0
  191.7190  176.6690  144.8560 C   0  0  2  0  0  3  0  0  0  0  0  0
  190.7690  176.3790  147.1370 C   0  0  1  0  0  3  0  0  0  0  0  0
  186.7730  176.6400  141.9010 C   0  0  2  0  0  3  0  0  0  0  0  0
  189.0780  176.4010  142.8420 C   0  0  2  0  0  3  0  0  0  0  0  0
  184.8450  178.1760  146.6980 C   0  0  0  0  0  3  0  0  0  0  0  0
  192.9440  176.0090  145.0240 O   0  0  0  0  0  0  0  0  0  0  0  0
  192.8850  176.7910  142.7870 C   0  0  0  0  0  2  0  0  0  0  0  0
  184.4410  177.9160  144.3970 O   0  0  0  0  0  0  0  0  0  0  0  0
  188.7930  177.2500  146.3250 C   0  0  0  0  0  0  0  0  0  0  0  0
  185.6870  178.4760  147.6410 N   0  0  0  0  0  0  0  0  0  0  0  0
  186.7640  177.7170  145.0030 C   0  0  1  0  0  3  0  0  0  0  0  0
  189.2970  176.4630  145.2730 N   0  0  0  0  0  0  0  0  0  0  0  0
  190.7020  175.1430  148.0130 C   0  0  0  0  0  1  0  0  0  0  0  0
  190.6110  175.9690  145.6550 C   0  0  1  0  0  3  0  0  0  0  0  0
  193.7570  176.4930  143.9870 C   0  0  0  0  0  2  0  0  0  0  0  0
  190.8060  174.4950  142.8660 C   0  0  0  0  0  1  0  0  0  0  0  0
  187.1120  178.6920  147.3980 C   0  0  0  0  0  2  0  0  0  0  0  0
  187.5990  177.8390  146.2650 C   0  0  0  0  0  0  0  0  0  0  0  0
  190.5370  175.9800  142.6190 C   0  0  2  0  0  3  0  0  0  0  0  0
  186.7480  178.1650  141.8480 C   0  0  0  0  0  2  0  0  0  0  0  0
  185.1010  177.9160  140.1380 O   0  0  0  0  0  1  0  0  0  0  0  0
  185.4370  178.6640  141.2670 C   0  0  0  0  0  2  0  0  0  0  0  0
  1  5  1  6  0  0  0
  1 19  1  0  0  0  0
  2 13  1  0  0  0  0
  4  1  1  0  0  0  0
  4 20  1  1  0  0  0
  7 15  1  6  0  0  0
  7  9  1  0  0  0  0
  8  6  1  1  0  0  0
  8 11  1  0  0  0  0
  8 12  1  0  0  0  0
  9 14  1  6  0  0  0
  9 22  1  0  0  0  0
 10  3  1  0  0  0  0
 10 21  1  1  0  0  0
 11 28  1  1  0  0  0
 11  5  1  0  0  0  0
 12  4  1  0  0  0  0
 13 18  2  0  0  0  0
 15 23  1  0  0  0  0
 16  2  2  0  0  0  0
 17  3  1  0  0  0  0
 19  2  1  0  0  0  0
 19 26  1  0  0  0  0
 20 22  1  0  0  0  0
 20 17  1  0  0  0  0
 22 10  1  0  0  0  0
 23 14  1  0  0  0  0
 25 18  1  0  0  0  0
 26 17  2  0  0  0  0
 26 25  1  0  0  0  0
 27 12  1  0  0  0  0
 27 24  1  0  0  0  0
 27  7  1  0  0  0  0
 29 30  1  0  0  0  0
 30 28  1  0  0  0  0
M  END
>  <MODEL>
1

>  <REMARK>
 VINA RESULT:      -7.7      0.000      0.000
  Name = 
  2 active torsions:
  status: ('A' for Active; 'I' for Inactive)
    1  A    between atoms: C_11  and  C_28
    2  A    between atoms: C_28  and  C_30
                            x       y       z     vdW  Elec       q    Type
                         _______ _______ _______ _____ _____    ______ ____

>  <TORSDO>
F 2

$$$$
=
 OpenBabel11112416123D

 30 35  0  0  1  0  0  0  0  0999 V2000
  191.0410  174.2850  145.2330 C   0  0  2  0  0  3  0  0  0  0  0  0
  193.1610  172.9330  144.9530 C   0  0  0  0  0  0  0  0  0  0  0  0
  189.6790  172.9120  141.5200 N   0  0  0  0  0  2  0  0  0  0  0  0
  189.8580  175.0370  144.5640 C   0  0  1  0  0  3  0  0  0  0  0  0
  191.5470  174.9350  146.4560 N   0  0  0  0  0  2  0  0  0  0  0  0
  189.4980  177.1030  146.9170 C   0  0  0  0  0  1  0  0  0  0  0  0
  188.9410  177.2750  142.3610 C   0  0  1  0  0  3  0  0  0  0  0  0
  190.5670  177.1300  145.8310 C   0  0  1  0  0  3  0  0  0  0  0  0
  188.3820  176.0190  141.6850 C   0  0  2  0  0  3  0  0  0  0  0  0
  188.3630  173.5430  141.4510 C   0  0  1  0  0  3  0  0  0  0  0  0
  191.8040  176.3760  146.3080 C   0  0  2  0  0  3  0  0  0  0  0  0
  190.0810  176.5500  144.5030 C   0  0  2  0  0  3  0  0  0  0  0  0
  193.4030  171.5600  144.4810 C   0  0  0  0  0  3  0  0  0  0  0  0
  187.1020  176.3130  141.1970 O   0  0  0  0  0  0  0  0  0  0  0  0
  188.1040  178.3790  141.7830 C   0  0  0  0  0  2  0  0  0  0  0  0
  193.8080  173.3510  145.9480 O   0  0  0  0  0  0  0  0  0  0  0  0
  190.3630  173.5110  142.6010 C   0  0  0  0  0  0  0  0  0  0  0  0
  192.9810  171.1630  143.3180 N   0  0  0  0  0  0  0  0  0  0  0  0
  192.1590  173.8340  144.2600 C   0  0  1  0  0  3  0  0  0  0  0  0
  189.6110  174.5280  143.2170 N   0  0  0  0  0  0  0  0  0  0  0  0
  187.2970  172.5370  141.8370 C   0  0  0  0  0  1  0  0  0  0  0  0
  188.3730  174.7020  142.4730 C   0  0  1  0  0  3  0  0  0  0  0  0
  187.1560  177.6700  140.8410 C   0  0  0  0  0  2  0  0  0  0  0  0
  187.5450  176.9860  144.4930 C   0  0  0  0  0  1  0  0  0  0  0  0
  192.3320  172.0540  142.3590 C   0  0  0  0  0  2  0  0  0  0  0  0
  191.5520  173.1240  143.0630 C   0  0  0  0  0  0  0  0  0  0  0  0
  188.9080  177.3310  143.8940 C   0  0  2  0  0  3  0  0  0  0  0  0
  193.0210  176.6680  145.4340 C   0  0  0  0  0  2  0  0  0  0  0  0
  194.9910  177.9740  145.7720 O   0  0  0  0  0  1  0  0  0  0  0  0
  194.2520  176.9090  146.2890 C   0  0  0  0  0  2  0  0  0  0  0  0
  1  5  1  1  0  0  0
  2 16  2  0  0  0  0
  3 17  1  0  0  0  0
  4 20  1  6  0  0  0
  4  1  1  0  0  0  0
  7 15  1  6  0  0  0
  7 27  1  0  0  0  0
  8 11  1  0  0  0  0
  8  6  1  1  0  0  0
  9 14  1  1  0  0  0
  9  7  1  0  0  0  0
  9 22  1  0  0  0  0
 10  3  1  0  0  0  0
 10 21  1  1  0  0  0
 10 22  1  0  0  0  0
 11 28  1  6  0  0  0
 11  5  1  0  0  0  0
 12  4  1  0  0  0  0
 12  8  1  0  0  0  0
 13  2  1  0  0  0  0
 17 26  2  0  0  0  0
 17 20  1  0  0  0  0
 18 13  2  0  0  0  0
 19  2  1  0  0  0  0
 19  1  1  0  0  0  0
 22 20  1  0  0  0  0
 23 14  1  0  0  0  0
 23 15  1  0  0  0  0
 25 26  1  0  0  0  0
 25 18  1  0  0  0  0
 26 19  1  0  0  0  0
 27 24  1  0  0  0  0
 27 12  1  0  0  0  0
 28 30  1  0  0  0  0
 29 30  1  0  0  0  0
M  END
>  <MODEL>
2

>  <REMARK>
 VINA RESULT:      -7.3      2.542      7.069
  Name = 
  2 active torsions:
  status: ('A' for Active; 'I' for Inactive)
    1  A    between atoms: C_11  and  C_28
    2  A    between atoms: C_28  and  C_30
                            x       y       z     vdW  Elec       q    Type
                         _______ _______ _______ _____ _____    ______ ____

>  <TORSDO>
F 2

$$$$
=
 OpenBabel11112416123D

 30 35  0  0  1  0  0  0  0  0999 V2000
  192.2530  174.1960  144.2070 C   0  0  2  0  0  3  0  0  0  0  0  0
  194.1720  173.8900  142.5880 C   0  0  0  0  0  0  0  0  0  0  0  0
  189.5470  174.0870  141.0140 N   0  0  0  0  0  2  0  0  0  0  0  0
  190.8060  174.7010  144.4570 C   0  0  1  0  0  3  0  0  0  0  0  0
  193.1680  174.4180  145.3410 N   0  0  0  0  0  2  0  0  0  0  0  0
  191.2840  175.3640  147.5010 C   0  0  0  0  0  1  0  0  0  0  0  0
  188.6940  177.1840  144.1720 C   0  0  1  0  0  3  0  0  0  0  0  0
  191.7250  176.1960  146.3040 C   0  0  1  0  0  3  0  0  0  0  0  0
  188.0630  176.2060  143.1760 C   0  0  2  0  0  3  0  0  0  0  0  0
  188.2730  174.2000  141.7200 C   0  0  1  0  0  3  0  0  0  0  0  0
  193.1330  175.7860  145.8820 C   0  0  2  0  0  3  0  0  0  0  0  0
  190.7700  176.0830  145.1150 C   0  0  2  0  0  3  0  0  0  0  0  0
  194.3560  173.0040  141.4260 C   0  0  0  0  0  3  0  0  0  0  0  0
  186.6740  176.2170  143.3650 O   0  0  0  0  0  0  0  0  0  0  0  0
  187.5450  178.0680  144.5620 C   0  0  0  0  0  2  0  0  0  0  0  0
  195.1390  174.0580  143.3760 O   0  0  0  0  0  0  0  0  0  0  0  0
  190.5610  174.3860  141.9520 C   0  0  0  0  0  0  0  0  0  0  0  0
  193.5080  173.0000  140.4420 N   0  0  0  0  0  0  0  0  0  0  0  0
  192.8540  174.5940  142.8350 C   0  0  1  0  0  3  0  0  0  0  0  0
  190.0430  174.7370  143.2120 N   0  0  0  0  0  0  0  0  0  0  0  0
  187.6470  172.8260  141.8590 C   0  0  0  0  0  1  0  0  0  0  0  0
  188.5920  174.7660  143.1220 C   0  0  1  0  0  3  0  0  0  0  0  0
  186.3770  177.5290  143.7650 C   0  0  0  0  0  2  0  0  0  0  0  0
  188.4760  175.5900  146.1710 C   0  0  0  0  0  1  0  0  0  0  0  0
  192.3800  173.9250  140.3580 C   0  0  0  0  0  2  0  0  0  0  0  0
  191.8700  174.2750  141.7240 C   0  0  0  0  0  0  0  0  0  0  0  0
  189.3560  176.5930  145.4240 C   0  0  2  0  0  3  0  0  0  0  0  0
  193.7660  176.8060  144.9400 C   0  0  0  0  0  2  0  0  0  0  0  0
  195.9700  177.0750  144.0630 O   0  0  0  0  0  1  0  0  0  0  0  0
  195.2420  176.9820  145.2490 C   0  0  0  0  0  2  0  0  0  0  0  0
  1  4  1  0  0  0  0
  1  5  1  1  0  0  0
  2 19  1  0  0  0  0
  2 16  2  0  0  0  0
  3 10  1  0  0  0  0
  3 17  1  0  0  0  0
  4 20  1  6  0  0  0
  4 12  1  0  0  0  0
  5 11  1  0  0  0  0
  7 15  1  1  0  0  0
  7 27  1  0  0  0  0
  8  6  1  1  0  0  0
  9 14  1  1  0  0  0
  9  7  1  0  0  0  0
 10 21  1  1  0  0  0
 10 22  1  0  0  0  0
 11 28  1  6  0  0  0
 11  8  1  0  0  0  0
 12 27  1  0  0  0  0
 12  8  1  0  0  0  0
 13  2  1  0  0  0  0
 14 23  1  0  0  0  0
 17 20  1  0  0  0  0
 18 13  2  0  0  0  0
 19  1  1  0  0  0  0
 22  9  1  0  0  0  0
 22 20  1  0  0  0  0
 23 15  1  0  0  0  0
 25 18  1  0  0  0  0
 25 26  1  0  0  0  0
 26 17  2  0  0  0  0
 26 19  1  0  0  0  0
 27 24  1  0  0  0  0
 28 30  1  0  0  0  0
 29 30  1  0  0  0  0
M  END
>  <MODEL>
3

>  <REMARK>
 VINA RESULT:      -6.9      2.635      7.428
  Name = 
  2 active torsions:
  status: ('A' for Active; 'I' for Inactive)
    1  A    between atoms: C_11  and  C_28
    2  A    between atoms: C_28  and  C_30
                            x       y       z     vdW  Elec       q    Type
                         _______ _______ _______ _____ _____    ______ ____

>  <TORSDO>
F 2

$$$$
=
 OpenBabel11112416123D

 30 35  0  0  1  0  0  0  0  0999 V2000
  191.1870  175.6140  143.7760 C   0  0  2  0  0  3  0  0  0  0  0  0
  188.8500  175.3870  142.8350 C   0  0  0  0  0  0  0  0  0  0  0  0
  192.6220  173.0100  140.8280 N   0  0  0  0  0  2  0  0  0  0  0  0
  192.5960  174.9910  143.9740 C   0  0  1  0  0  3  0  0  0  0  0  0
  190.7090  176.3890  144.9350 N   0  0  0  0  0  2  0  0  0  0  0  0
  193.1590  176.4770  146.6950 C   0  0  0  0  0  1  0  0  0  0  0  0
  194.3160  172.3860  144.9550 C   0  0  1  0  0  3  0  0  0  0  0  0
  192.2790  175.2510  146.4880 C   0  0  1  0  0  3  0  0  0  0  0  0
  194.6250  172.3360  143.4550 C   0  0  2  0  0  3  0  0  0  0  0  0
  194.0520  173.0040  141.1290 C   0  0  1  0  0  3  0  0  0  0  0  0
  190.8420  175.6890  146.2220 C   0  0  2  0  0  3  0  0  0  0  0  0
  192.7690  174.3510  145.3530 C   0  0  2  0  0  3  0  0  0  0  0  0
  188.3330  175.3920  141.4570 C   0  0  0  0  0  3  0  0  0  0  0  0
  195.9890  172.0590  143.2940 O   0  0  0  0  0  0  0  0  0  0  0  0
  195.4690  171.6470  145.5690 C   0  0  0  0  0  2  0  0  0  0  0  0
  188.2070  176.0060  143.7220 O   0  0  0  0  0  0  0  0  0  0  0  0
  191.9790  173.6370  141.9180 C   0  0  0  0  0  0  0  0  0  0  0  0
  188.7870  174.5640  140.5640 N   0  0  0  0  0  0  0  0  0  0  0  0
  190.1250  174.6500  143.1910 C   0  0  1  0  0  3  0  0  0  0  0  0
  192.8770  173.9970  142.9400 N   0  0  0  0  0  0  0  0  0  0  0  0
  194.7750  173.9400  140.1790 C   0  0  0  0  0  1  0  0  0  0  0  0
  194.2030  173.5220  142.5770 C   0  0  1  0  0  3  0  0  0  0  0  0
  196.3210  171.2430  144.3860 C   0  0  0  0  0  2  0  0  0  0  0  0
  195.3130  174.7280  145.2790 C   0  0  0  0  0  1  0  0  0  0  0  0
  189.7550  173.5130  140.8710 C   0  0  0  0  0  2  0  0  0  0  0  0
  190.6820  173.9410  141.9690 C   0  0  0  0  0  0  0  0  0  0  0  0
  194.1670  173.7690  145.6030 C   0  0  2  0  0  3  0  0  0  0  0  0
  189.8580  174.5310  146.3640 C   0  0  0  0  0  2  0  0  0  0  0  0
  187.9690  175.8410  147.0070 O   0  0  0  0  0  1  0  0  0  0  0  0
  188.8270  174.8280  147.4370 C   0  0  0  0  0  2  0  0  0  0  0  0
  1  4  1  0  0  0  0
  1  5  1  1  0  0  0
  2 19  1  0  0  0  0
  2 16  2  0  0  0  0
  3 10  1  0  0  0  0
  3 17  1  0  0  0  0
  4 20  1  6  0  0  0
  4 12  1  0  0  0  0
  5 11  1  0  0  0  0
  7 15  1  1  0  0  0
  7 27  1  0  0  0  0
  8  6  1  6  0  0  0
  9 14  1  1  0  0  0
  9  7  1  0  0  0  0
 10 21  1  6  0  0  0
 10 22  1  0  0  0  0
 11 28  1  6  0  0  0
 11  8  1  0  0  0  0
 12 27  1  0  0  0  0
 12  8  1  0  0  0  0
 13  2  1  0  0  0  0
 14 23  1  0  0  0  0
 17 26  2  0  0  0  0
 17 20  1  0  0  0  0
 18 25  1  0  0  0  0
 18 13  2  0  0  0  0
 19  1  1  0  0  0  0
 22 20  1  0  0  0  0
 22  9  1  0  0  0  0
 23 15  1  0  0  0  0
 24 27  1  0  0  0  0
 25 26  1  0  0  0  0
 26 19  1  0  0  0  0
 28 30  1  0  0  0  0
 29 30  1  0  0  0  0
M  END
>  <MODEL>
4

>  <REMARK>
 VINA RESULT:      -6.6      3.449      6.366
  Name = 
  2 active torsions:
  status: ('A' for Active; 'I' for Inactive)
    1  A    between atoms: C_11  and  C_28
    2  A    between atoms: C_28  and  C_30
                            x       y       z     vdW  Elec       q    Type
                         _______ _______ _______ _____ _____    ______ ____

>  <TORSDO>
F 2

$$$$
=
 OpenBabel11112416123D

 30 35  0  0  1  0  0  0  0  0999 V2000
  190.6010  175.4260  143.0360 C   0  0  2  0  0  3  0  0  0  0  0  0
  188.7070  177.0630  143.4010 C   0  0  0  0  0  0  0  0  0  0  0  0
  188.7960  174.1370  139.4860 N   0  0  0  0  0  2  0  0  0  0  0  0
  191.0870  174.0900  142.4120 C   0  0  1  0  0  3  0  0  0  0  0  0
  191.1840  175.7150  144.3590 N   0  0  0  0  0  2  0  0  0  0  0  0
  193.2730  173.5520  144.6180 C   0  0  0  0  0  1  0  0  0  0  0  0
  190.5450  170.8820  142.0630 C   0  0  1  0  0  3  0  0  0  0  0  0
  191.7710  173.3330  144.7460 C   0  0  1  0  0  3  0  0  0  0  0  0
  190.2880  171.3350  140.6220 C   0  0  2  0  0  3  0  0  0  0  0  0
  189.7730  173.1590  139.0110 C   0  0  1  0  0  3  0  0  0  0  0  0
  191.1130  174.5900  145.3050 C   0  0  2  0  0  3  0  0  0  0  0  0
  191.1110  172.9410  143.4230 C   0  0  2  0  0  3  0  0  0  0  0  0
  188.0060  177.9840  142.4920 C   0  0  0  0  0  3  0  0  0  0  0  0
  190.9000  170.4190  139.7560 O   0  0  0  0  0  0  0  0  0  0  0  0
  190.9020  169.4320  141.9100 C   0  0  0  0  0  2  0  0  0  0  0  0
  188.9990  177.4650  144.5580 O   0  0  0  0  0  0  0  0  0  0  0  0
  189.1480  174.4520  140.8170 C   0  0  0  0  0  0  0  0  0  0  0  0
  187.4420  177.5560  141.4020 N   0  0  0  0  0  0  0  0  0  0  0  0
  189.0710  175.6590  142.9670 C   0  0  1  0  0  3  0  0  0  0  0  0
  190.2560  173.7140  141.2710 N   0  0  0  0  0  0  0  0  0  0  0  0
  190.6450  173.7910  137.9440 C   0  0  0  0  0  1  0  0  0  0  0  0
  190.6440  172.7760  140.2290 C   0  0  1  0  0  3  0  0  0  0  0  0
  190.8160  169.1860  140.4200 C   0  0  0  0  0  2  0  0  0  0  0  0
  192.9640  171.7360  142.1060 C   0  0  0  0  0  1  0  0  0  0  0  0
  187.3710  176.1400  141.0460 C   0  0  0  0  0  2  0  0  0  0  0  0
  188.5690  175.3960  141.5580 C   0  0  0  0  0  0  0  0  0  0  0  0
  191.6360  171.6160  142.8540 C   0  0  2  0  0  3  0  0  0  0  0  0
  189.6910  174.3210  145.7920 C   0  0  0  0  0  2  0  0  0  0  0  0
  188.2560  175.5970  147.2100 O   0  0  0  0  0  1  0  0  0  0  0  0
  189.4730  174.9160  147.1710 C   0  0  0  0  0  2  0  0  0  0  0  0
  1  5  1  1  0  0  0
  2 16  2  0  0  0  0
  3 17  1  0  0  0  0
  4 20  1  6  0  0  0
  4  1  1  0  0  0  0
  4 12  1  0  0  0  0
  5 11  1  0  0  0  0
  7 15  1  6  0  0  0
  7 27  1  0  0  0  0
  8  6  1  6  0  0  0
  8 11  1  0  0  0  0
  9 14  1  6  0  0  0
  9  7  1  0  0  0  0
 10 21  1  6  0  0  0
 10  3  1  0  0  0  0
 10 22  1  0  0  0  0
 11 28  1  6  0  0  0
 12  8  1  0  0  0  0
 13  2  1  0  0  0  0
 14 23  1  0  0  0  0
 17 20  1  0  0  0  0
 17 26  2  0  0  0  0
 18 13  2  0  0  0  0
 19  1  1  0  0  0  0
 19  2  1  0  0  0  0
 22  9  1  0  0  0  0
 22 20  1  0  0  0  0
 23 15  1  0  0  0  0
 24 27  1  0  0  0  0
 25 18  1  0  0  0  0
 25 26  1  0  0  0  0
 26 19  1  0  0  0  0
 27 12  1  0  0  0  0
 28 30  1  0  0  0  0
 30 29  1  0  0  0  0
M  END
>  <MODEL>
5

>  <REMARK>
 VINA RESULT:      -6.6      3.428      6.368
  Name = 
  2 active torsions:
  status: ('A' for Active; 'I' for Inactive)
    1  A    between atoms: C_11  and  C_28
    2  A    between atoms: C_28  and  C_30
                            x       y       z     vdW  Elec       q    Type
                         _______ _______ _______ _____ _____    ______ ____

>  <TORSDO>
F 2

$$$$
=
 OpenBabel11112416123D

 30 35  0  0  1  0  0  0  0  0999 V2000
  188.1400  174.4860  142.2130 C   0  0  2  0  0  3  0  0  0  0  0  0
  187.8160  175.2860  139.8350 C   0  0  0  0  0  0  0  0  0  0  0  0
  187.0400  178.2670  143.6320 N   0  0  0  0  0  2  0  0  0  0  0  0
  188.4680  174.8360  143.6900 C   0  0  1  0  0  3  0  0  0  0  0  0
  188.7030  173.1990  141.7650 N   0  0  0  0  0  2  0  0  0  0  0  0
  189.7560  172.0350  144.3430 C   0  0  0  0  0  1  0  0  0  0  0  0
  190.5190  176.3410  145.7480 C   0  0  1  0  0  3  0  0  0  0  0  0
  190.4020  173.1820  143.5770 C   0  0  1  0  0  3  0  0  0  0  0  0
  189.2890  177.2390  145.9230 C   0  0  2  0  0  3  0  0  0  0  0  0
  187.0970  178.0550  145.0770 C   0  0  1  0  0  3  0  0  0  0  0  0
  190.1280  173.0230  142.0850 C   0  0  2  0  0  3  0  0  0  0  0  0
  189.9290  174.5570  144.0510 C   0  0  2  0  0  3  0  0  0  0  0  0
  186.7640  176.0940  139.1980 C   0  0  0  0  0  3  0  0  0  0  0  0
  189.1350  177.5150  147.2880 O   0  0  0  0  0  0  0  0  0  0  0  0
  191.2850  176.5540  147.0210 C   0  0  0  0  0  2  0  0  0  0  0  0
  188.2690  174.2890  139.2160 O   0  0  0  0  0  0  0  0  0  0  0  0
  187.6530  177.1470  143.0300 C   0  0  0  0  0  0  0  0  0  0  0  0
  186.4510  177.2710  139.6500 N   0  0  0  0  0  0  0  0  0  0  0  0
  188.3550  175.6430  141.2050 C   0  0  1  0  0  3  0  0  0  0  0  0
  188.1580  176.2350  143.9760 N   0  0  0  0  0  0  0  0  0  0  0  0
  185.6980  177.8170  145.6110 C   0  0  0  0  0  1  0  0  0  0  0  0
  187.9580  176.7910  145.3050 C   0  0  1  0  0  3  0  0  0  0  0  0
  190.4420  177.5410  147.7990 C   0  0  0  0  0  2  0  0  0  0  0  0
  189.3160  174.2130  146.5270 C   0  0  0  0  0  1  0  0  0  0  0  0
  187.1690  177.9210  140.7440 C   0  0  0  0  0  2  0  0  0  0  0  0
  187.6930  176.9090  141.7190 C   0  0  0  0  0  0  0  0  0  0  0  0
  190.2770  174.8440  145.5180 C   0  0  2  0  0  3  0  0  0  0  0  0
  191.0330  173.9160  141.2410 C   0  0  0  0  0  2  0  0  0  0  0  0
  191.2220  172.7210  139.1830 O   0  0  0  0  0  1  0  0  0  0  0  0
  191.9210  173.0820  140.3350 C   0  0  0  0  0  2  0  0  0  0  0  0
  1  5  1  6  0  0  0
  1  4  1  0  0  0  0
  2 19  1  0  0  0  0
  3 10  1  0  0  0  0
  4 20  1  6  0  0  0
  4 12  1  0  0  0  0
  5 11  1  0  0  0  0
  7  9  1  0  0  0  0
  7 15  1  1  0  0  0
  8 12  1  0  0  0  0
  8  6  1  1  0  0  0
  9 14  1  1  0  0  0
 10 22  1  0  0  0  0
 10 21  1  6  0  0  0
 11 28  1  6  0  0  0
 11  8  1  0  0  0  0
 12 27  1  0  0  0  0
 13 18  2  0  0  0  0
 13  2  1  0  0  0  0
 14 23  1  0  0  0  0
 15 23  1  0  0  0  0
 16  2  2  0  0  0  0
 17  3  1  0  0  0  0
 17 20  1  0  0  0  0
 18 25  1  0  0  0  0
 19 26  1  0  0  0  0
 19  1  1  0  0  0  0
 20 22  1  0  0  0  0
 22  9  1  0  0  0  0
 25 26  1  0  0  0  0
 26 17  2  0  0  0  0
 27  7  1  0  0  0  0
 27 24  1  0  0  0  0
 29 30  1  0  0  0  0
 30 28  1  0  0  0  0
M  END
>  <MODEL>
6

>  <REMARK>
 VINA RESULT:      -6.6      2.530      5.157
  Name = 
  2 active torsions:
  status: ('A' for Active; 'I' for Inactive)
    1  A    between atoms: C_11  and  C_28
    2  A    between atoms: C_28  and  C_30
                            x       y       z     vdW  Elec       q    Type
                         _______ _______ _______ _____ _____    ______ ____

>  <TORSDO>
F 2

$$$$
=
 OpenBabel11112416123D

 30 35  0  0  1  0  0  0  0  0999 V2000
  189.6720  176.0440  143.1350 C   0  0  2  0  0  3  0  0  0  0  0  0
  191.2370  174.0590  143.0460 C   0  0  0  0  0  0  0  0  0  0  0  0
  190.0000  176.1100  147.3080 N   0  0  0  0  0  2  0  0  0  0  0  0
  188.6250  176.8640  143.9380 C   0  0  1  0  0  3  0  0  0  0  0  0
  189.3820  175.9560  141.6920 N   0  0  0  0  0  2  0  0  0  0  0  0
  187.0790  177.8820  141.3880 C   0  0  0  0  0  1  0  0  0  0  0  0
  185.8560  176.7940  145.6800 C   0  0  1  0  0  3  0  0  0  0  0  0
  186.9820  176.5020  142.0260 C   0  0  1  0  0  3  0  0  0  0  0  0
  186.8410  177.1660  146.7940 C   0  0  2  0  0  3  0  0  0  0  0  0
  189.1780  177.2710  147.6380 C   0  0  1  0  0  3  0  0  0  0  0  0
  187.9980  175.5650  141.3810 C   0  0  2  0  0  3  0  0  0  0  0  0
  187.1850  176.5300  143.5410 C   0  0  2  0  0  3  0  0  0  0  0  0
  192.4980  173.7610  143.7440 C   0  0  0  0  0  3  0  0  0  0  0  0
  186.2590  178.1710  147.5790 O   0  0  0  0  0  0  0  0  0  0  0  0
  184.5410  177.2980  146.1990 C   0  0  0  0  0  2  0  0  0  0  0  0
  191.1430  173.7750  141.8230 O   0  0  0  0  0  0  0  0  0  0  0  0
  189.7560  175.8090  145.9500 C   0  0  0  0  0  0  0  0  0  0  0  0
  192.5700  173.7750  145.0410 N   0  0  0  0  0  0  0  0  0  0  0  0
  190.0690  174.6900  143.7740 C   0  0  1  0  0  3  0  0  0  0  0  0
  188.7920  176.6570  145.3750 N   0  0  0  0  0  0  0  0  0  0  0  0
  190.0700  178.4720  147.8850 C   0  0  0  0  0  1  0  0  0  0  0  0
  188.2790  177.5410  146.4100 C   0  0  1  0  0  3  0  0  0  0  0  0
  184.8820  177.9020  147.5440 C   0  0  0  0  0  2  0  0  0  0  0  0
  186.3790  178.8660  144.2600 C   0  0  0  0  0  1  0  0  0  0  0  0
  191.4070  173.9840  145.9010 C   0  0  0  0  0  2  0  0  0  0  0  0
  190.4070  174.8870  145.2420 C   0  0  0  0  0  0  0  0  0  0  0  0
  186.1240  177.3580  144.2790 C   0  0  2  0  0  3  0  0  0  0  0  0
  187.7140  174.1020  141.7100 C   0  0  0  0  0  2  0  0  0  0  0  0
  188.1790  173.8510  139.3820 O   0  0  0  0  0  1  0  0  0  0  0  0
  188.2310  173.1920  140.6110 C   0  0  0  0  0  2  0  0  0  0  0  0
  1  5  1  6  0  0  0
  1 19  1  0  0  0  0
  1  4  1  0  0  0  0
  2 13  1  0  0  0  0
  2 19  1  0  0  0  0
  3 10  1  0  0  0  0
  4 20  1  1  0  0  0
  7 15  1  1  0  0  0
  7  9  1  0  0  0  0
  8  6  1  6  0  0  0
  8 12  1  0  0  0  0
  9 14  1  6  0  0  0
 10 21  1  6  0  0  0
 11  5  1  0  0  0  0
 11 28  1  1  0  0  0
 11  8  1  0  0  0  0
 12  4  1  0  0  0  0
 12 27  1  0  0  0  0
 13 18  2  0  0  0  0
 15 23  1  0  0  0  0
 16  2  2  0  0  0  0
 17  3  1  0  0  0  0
 18 25  1  0  0  0  0
 19 26  1  0  0  0  0
 20 17  1  0  0  0  0
 20 22  1  0  0  0  0
 22  9  1  0  0  0  0
 22 10  1  0  0  0  0
 23 14  1  0  0  0  0
 24 27  1  0  0  0  0
 26 25  1  0  0  0  0
 26 17  2  0  0  0  0
 27  7  1  0  0  0  0
 29 30  1  0  0  0  0
 30 28  1  0  0  0  0
M  END
>  <MODEL>
7

>  <REMARK>
 VINA RESULT:      -6.5      2.190      5.426
  Name = 
  2 active torsions:
  status: ('A' for Active; 'I' for Inactive)
    1  A    between atoms: C_11  and  C_28
    2  A    between atoms: C_28  and  C_30
                            x       y       z     vdW  Elec       q    Type
                         _______ _______ _______ _____ _____    ______ ____

>  <TORSDO>
F 2

$$$$
=
 OpenBabel11112416123D

 30 35  0  0  1  0  0  0  0  0999 V2000
  190.6220  176.5840  143.7040 C   0  0  2  0  0  3  0  0  0  0  0  0
  188.2310  177.1480  143.1010 C   0  0  0  0  0  0  0  0  0  0  0  0
  190.7020  173.6990  140.6720 N   0  0  0  0  0  2  0  0  0  0  0  0
  191.7630  175.5320  143.7260 C   0  0  1  0  0  3  0  0  0  0  0  0
  190.5900  177.4560  144.8920 N   0  0  0  0  0  2  0  0  0  0  0  0
  193.1560  176.7120  146.2960 C   0  0  0  0  0  1  0  0  0  0  0  0
  192.6600  172.4940  144.5450 C   0  0  1  0  0  3  0  0  0  0  0  0
  191.9040  175.8450  146.2500 C   0  0  1  0  0  3  0  0  0  0  0  0
  192.7220  172.3670  143.0190 C   0  0  2  0  0  3  0  0  0  0  0  0
  192.0790  173.2200  140.7730 C   0  0  1  0  0  3  0  0  0  0  0  0
  190.6670  176.7320  146.1710 C   0  0  2  0  0  3  0  0  0  0  0  0
  191.9100  174.8500  145.0890 C   0  0  2  0  0  3  0  0  0  0  0  0
  187.5560  177.3430  141.8070 C   0  0  0  0  0  3  0  0  0  0  0  0
  193.8850  171.6620  142.6810 O   0  0  0  0  0  0  0  0  0  0  0  0
  193.5840  171.4090  145.0190 C   0  0  0  0  0  2  0  0  0  0  0  0
  187.9560  177.9310  144.0470 O   0  0  0  0  0  0  0  0  0  0  0  0
  190.4570  174.4850  141.8200 C   0  0  0  0  0  0  0  0  0  0  0  0
  187.5850  176.4250  140.8870 N   0  0  0  0  0  0  0  0  0  0  0  0
  189.2320  176.0300  143.3010 C   0  0  1  0  0  3  0  0  0  0  0  0
  191.5570  174.5170  142.6960 N   0  0  0  0  0  0  0  0  0  0  0  0
  192.9260  173.8820  139.7040 C   0  0  0  0  0  1  0  0  0  0  0  0
  192.5910  173.6390  142.1700 C   0  0  1  0  0  3  0  0  0  0  0  0
  194.0820  170.7660  143.7430 C   0  0  0  0  0  2  0  0  0  0  0  0
  194.4010  174.3750  144.6540 C   0  0  0  0  0  1  0  0  0  0  0  0
  188.1900  175.1110  141.0920 C   0  0  0  0  0  2  0  0  0  0  0  0
  189.3510  175.1960  142.0380 C   0  0  0  0  0  0  0  0  0  0  0  0
  193.0630  173.8390  145.1630 C   0  0  2  0  0  3  0  0  0  0  0  0
  189.3890  175.9580  146.4830 C   0  0  0  0  0  2  0  0  0  0  0  0
  187.0660  176.4140  146.7990 O   0  0  0  0  0  1  0  0  0  0  0  0
  188.3480  176.8660  147.1130 C   0  0  0  0  0  2  0  0  0  0  0  0
  1  4  1  0  0  0  0
  1  5  1  1  0  0  0
  2 19  1  0  0  0  0
  2 16  2  0  0  0  0
  3 10  1  0  0  0  0
  3 17  1  0  0  0  0
  4 20  1  6  0  0  0
  4 12  1  0  0  0  0
  5 11  1  0  0  0  0
  7 15  1  1  0  0  0
  7 27  1  0  0  0  0
  8  6  1  6  0  0  0
  9 14  1  1  0  0  0
  9  7  1  0  0  0  0
 10 21  1  6  0  0  0
 10 22  1  0  0  0  0
 11  8  1  0  0  0  0
 11 28  1  6  0  0  0
 12 27  1  0  0  0  0
 12  8  1  0  0  0  0
 13  2  1  0  0  0  0
 14 23  1  0  0  0  0
 17 26  2  0  0  0  0
 17 20  1  0  0  0  0
 18 25  1  0  0  0  0
 18 13  2  0  0  0  0
 19  1  1  0  0  0  0
 22 20  1  0  0  0  0
 22  9  1  0  0  0  0
 23 15  1  0  0  0  0
 24 27  1  0  0  0  0
 25 26  1  0  0  0  0
 26 19  1  0  0  0  0
 28 30  1  0  0  0  0
 29 30  1  0  0  0  0
M  END
>  <MODEL>
8

>  <REMARK>
 VINA RESULT:      -6.5      2.822      5.626
  Name = 
  2 active torsions:
  status: ('A' for Active; 'I' for Inactive)
    1  A    between atoms: C_11  and  C_28
    2  A    between atoms: C_28  and  C_30
                            x       y       z     vdW  Elec       q    Type
                         _______ _______ _______ _____ _____    ______ ____

>  <TORSDO>
F 2

$$$$
=
 OpenBabel11112416123D

 30 35  0  0  1  0  0  0  0  0999 V2000
  189.3430  173.9200  143.4450 C   0  0  2  0  0  3  0  0  0  0  0  0
  187.4900  175.3850  142.5390 C   0  0  0  0  0  0  0  0  0  0  0  0
  190.6000  177.0500  145.9250 N   0  0  0  0  0  2  0  0  0  0  0  0
  190.7540  173.8230  144.0860 C   0  0  1  0  0  3  0  0  0  0  0  0
  189.0550  172.8520  142.4700 N   0  0  0  0  0  2  0  0  0  0  0  0
  191.4200  171.0110  142.8280 C   0  0  0  0  0  1  0  0  0  0  0  0
  193.8960  174.7230  143.9200 C   0  0  1  0  0  3  0  0  0  0  0  0
  191.4660  172.3610  142.1250 C   0  0  1  0  0  3  0  0  0  0  0  0
  193.4890  175.4750  145.1920 C   0  0  2  0  0  3  0  0  0  0  0  0
  191.7020  176.4150  146.6440 C   0  0  1  0  0  3  0  0  0  0  0  0
  190.1170  172.6480  141.4720 C   0  0  2  0  0  3  0  0  0  0  0  0
  191.8470  173.5090  143.0610 C   0  0  2  0  0  3  0  0  0  0  0  0
  186.5440  176.3030  143.1950 C   0  0  0  0  0  3  0  0  0  0  0  0
  194.5090  175.3210  146.1410 O   0  0  0  0  0  0  0  0  0  0  0  0
  195.3820  174.5740  144.0680 C   0  0  0  0  0  2  0  0  0  0  0  0
  187.0670  174.6400  141.6180 O   0  0  0  0  0  0  0  0  0  0  0  0
  190.2600  176.1890  144.8580 C   0  0  0  0  0  0  0  0  0  0  0  0
  186.9610  177.2750  143.9490 N   0  0  0  0  0  0  0  0  0  0  0  0
  188.9470  175.3350  142.9530 C   0  0  1  0  0  3  0  0  0  0  0  0
  191.0930  175.0570  144.7920 N   0  0  0  0  0  0  0  0  0  0  0  0
  191.2250  175.9700  148.0130 C   0  0  0  0  0  1  0  0  0  0  0  0
  192.1190  175.1790  145.8160 C   0  0  1  0  0  3  0  0  0  0  0  0
  195.6920  175.2450  145.3880 C   0  0  0  0  0  2  0  0  0  0  0  0
  193.3140  172.4110  144.8680 C   0  0  0  0  0  1  0  0  0  0  0  0
  188.3760  177.5950  144.1260 C   0  0  0  0  0  2  0  0  0  0  0  0
  189.2220  176.3590  144.0390 C   0  0  0  0  0  0  0  0  0  0  0  0
  193.2490  173.3550  143.6670 C   0  0  2  0  0  3  0  0  0  0  0  0
  190.2020  173.7900  140.4640 C   0  0  0  0  0  2  0  0  0  0  0  0
  188.4400  172.8300  139.1700 O   0  0  0  0  0  1  0  0  0  0  0  0
  189.7390  173.3350  139.0920 C   0  0  0  0  0  2  0  0  0  0  0  0
  1  5  1  6  0  0  0
  1  4  1  0  0  0  0
  2 19  1  0  0  0  0
  2 13  1  0  0  0  0
  3 10  1  0  0  0  0
  4 20  1  6  0  0  0
  7 15  1  1  0  0  0
  7  9  1  0  0  0  0
  8  6  1  1  0  0  0
  8 12  1  0  0  0  0
  9 22  1  0  0  0  0
  9 14  1  1  0  0  0
 10 21  1  1  0  0  0
 11 28  1  1  0  0  0
 11  8  1  0  0  0  0
 11  5  1  0  0  0  0
 12 27  1  0  0  0  0
 12  4  1  0  0  0  0
 13 18  2  0  0  0  0
 15 23  1  0  0  0  0
 16  2  2  0  0  0  0
 17  3  1  0  0  0  0
 18 25  1  0  0  0  0
 19  1  1  0  0  0  0
 19 26  1  0  0  0  0
 20 17  1  0  0  0  0
 20 22  1  0  0  0  0
 22 10  1  0  0  0  0
 23 14  1  0  0  0  0
 26 25  1  0  0  0  0
 26 17  2  0  0  0  0
 27  7  1  0  0  0  0
 27 24  1  0  0  0  0
 30 29  1  0  0  0  0
 30 28  1  0  0  0  0
M  END
>  <MODEL>
9

>  <REMARK>
 VINA RESULT:      -6.4      2.519      3.935
  Name = 
  2 active torsions:
  status: ('A' for Active; 'I' for Inactive)
    1  A    between atoms: C_11  and  C_28
    2  A    between atoms: C_28  and  C_30
                            x       y       z     vdW  Elec       q    Type
                         _______ _______ _______ _____ _____    ______ ____

>  <TORSDO>
F 2

$$$$
