=
 OpenBabel11112417053D

 31 35  0  0  1  0  0  0  0  0999 V2000
  184.8180  178.1730  146.8940 C   0  0  0  0  0  0  0  0  0  0  0  0
  187.4250  175.8480  145.3920 C   0  0  2  0  0  3  0  0  0  0  0  0
  187.5400  176.2140  143.9180 C   0  0  0  0  0  0  0  0  0  0  0  0
  186.6590  177.3080  141.9290 C   0  0  0  0  0  0  0  0  0  0  0  0
  186.8040  176.9450  146.2250 C   0  0  0  0  0  0  0  0  0  0  0  0
  185.6040  179.0350  147.6610 C   0  0  0  0  0  3  0  0  0  0  0  0
  186.5640  177.0050  143.2900 C   0  0  0  0  0  3  0  0  0  0  0  0
  189.6860  176.6270  146.1910 C   0  0  2  0  0  3  0  0  0  0  0  0
  183.4760  178.3470  146.8410 F   0  0  0  0  0  0  0  0  0  0  0  0
  189.5840  174.8500  143.7380 N   0  0  0  0  0  2  0  0  0  0  0  0
  185.6260  178.1590  141.2850 C   0  0  0  0  0  1  0  0  0  0  0  0
  189.0670  177.5830  147.2130 C   0  0  0  0  0  2  0  0  0  0  0  0
  188.7770  175.4070  145.9910 C   0  0  2  0  0  3  0  0  0  0  0  0
  185.4150  177.1310  146.1810 C   0  0  0  0  0  3  0  0  0  0  0  0
  187.7250  176.8120  141.1760 C   0  0  0  0  0  3  0  0  0  0  0  0
  187.5970  177.8180  147.0050 C   0  0  0  0  0  0  0  0  0  0  0  0
  186.9870  178.8520  147.7220 C   0  0  0  0  0  3  0  0  0  0  0  0
  189.4250  174.3460  145.0970 C   0  0  0  0  0  2  0  0  0  0  0  0
  188.5920  175.6870  143.1390 C   0  0  0  0  0  0  0  0  0  0  0  0
  188.6890  176.0020  141.7800 C   0  0  0  0  0  3  0  0  0  0  0  0
  192.1220  176.9560  144.7480 O   0  0  0  0  0  0  0  0  0  0  0  0
  192.1870  176.4150  145.8860 C   0  0  0  0  0  0  0  0  0  0  0  0
  191.0020  176.2130  146.6570 N   0  0  0  0  0  2  0  0  0  0  0  0
  195.6780  176.1060  144.4500 C   0  0  1  0  0  3  0  0  0  0  0  0
  194.5410  177.0940  146.4590 C   0  0  0  0  0  2  0  0  0  0  0  0
  193.1020  173.7020  145.6820 O   0  0  0  0  0  1  0  0  0  0  0  0
  196.2030  176.4100  143.0640 C   0  0  0  0  0  1  0  0  0  0  0  0
  195.0880  177.3760  145.0600 C   0  0  0  0  0  2  0  0  0  0  0  0
  194.0680  174.7070  145.7560 C   0  0  2  0  0  3  0  0  0  0  0  0
  193.5050  175.9620  146.4440 C   0  0  2  0  0  3  0  0  0  0  0  0
  194.6120  175.0190  144.3630 C   0  0  0  0  0  2  0  0  0  0  0  0
  1  6  1  0  0  0  0
  2  3  1  6  0  0  0
  2 13  1  0  0  0  0
  2  5  1  0  0  0  0
  4  7  2  0  0  0  0
  5 16  2  0  0  0  0
  6 17  2  0  0  0  0
  7  3  1  0  0  0  0
  8 23  1  1  0  0  0
  8 12  1  0  0  0  0
  9  1  1  0  0  0  0
 10 18  1  0  0  0  0
 11  4  1  0  0  0  0
 13 18  1  6  0  0  0
 13  8  1  0  0  0  0
 14  5  1  0  0  0  0
 14  1  2  0  0  0  0
 15 20  2  0  0  0  0
 15  4  1  0  0  0  0
 16 12  1  0  0  0  0
 16 17  1  0  0  0  0
 19 10  1  0  0  0  0
 19  3  2  0  0  0  0
 20 19  1  0  0  0  0
 21 22  2  0  0  0  0
 22 23  1  0  0  0  0
 24 27  1  6  0  0  0
 24 28  1  0  0  0  0
 28 25  1  0  0  0  0
 29 26  1  6  0  0  0
 29 30  1  0  0  0  0
 30 22  1  6  0  0  0
 30 25  1  0  0  0  0
 31 24  1  0  0  0  0
 31 29  1  0  0  0  0
M  END
>  <MODEL>
1

>  <REMARK>
 VINA RESULT:      -9.0      0.000      0.000
  Name = 
  2 active torsions:
  status: ('A' for Active; 'I' for Inactive)
    1  A    between atoms: C_5  and  C_30
    2  A    between atoms: C_10  and  N_16
                            x       y       z     vdW  Elec       q    Type
                         _______ _______ _______ _____ _____    ______ ____

>  <TORSDO>
F 2

$$$$
=
 OpenBabel11112417053D

 31 35  0  0  1  0  0  0  0  0999 V2000
  194.5200  176.5010  145.1130 C   0  0  0  0  0  0  0  0  0  0  0  0
  191.1130  176.9830  143.4950 C   0  0  2  0  0  3  0  0  0  0  0  0
  190.8330  175.7250  142.6820 C   0  0  0  0  0  0  0  0  0  0  0  0
  191.6010  173.6830  141.6020 C   0  0  0  0  0  0  0  0  0  0  0  0
  192.1730  176.7770  144.5520 C   0  0  0  0  0  0  0  0  0  0  0  0
  194.1790  176.2890  146.4510 C   0  0  0  0  0  3  0  0  0  0  0  0
  191.8600  174.8170  142.3770 C   0  0  0  0  0  3  0  0  0  0  0  0
  189.3720  176.7100  145.2980 C   0  0  2  0  0  3  0  0  0  0  0  0
  195.8180  176.4670  144.7320 F   0  0  0  0  0  0  0  0  0  0  0  0
  188.4850  176.4210  142.4140 N   0  0  0  0  0  2  0  0  0  0  0  0
  192.6960  172.7250  141.3010 C   0  0  0  0  0  1  0  0  0  0  0  0
  190.4250  176.7340  146.4080 C   0  0  0  0  0  2  0  0  0  0  0  0
  189.8300  177.5740  144.1150 C   0  0  2  0  0  3  0  0  0  0  0  0
  193.5210  176.7460  144.1690 C   0  0  0  0  0  3  0  0  0  0  0  0
  190.3140  173.4500  141.1120 C   0  0  0  0  0  3  0  0  0  0  0  0
  191.8320  176.5660  145.9080 C   0  0  0  0  0  0  0  0  0  0  0  0
  192.8410  176.3300  146.8460 C   0  0  0  0  0  3  0  0  0  0  0  0
  188.7440  177.7100  143.0450 C   0  0  0  0  0  2  0  0  0  0  0  0
  189.5450  175.4990  142.1510 C   0  0  0  0  0  0  0  0  0  0  0  0
  189.2880  174.3570  141.3860 C   0  0  0  0  0  3  0  0  0  0  0  0
  187.8650  175.4660  147.3740 O   0  0  0  0  0  0  0  0  0  0  0  0
  187.4040  176.5290  146.8750 C   0  0  0  0  0  0  0  0  0  0  0  0
  188.1050  177.1970  145.8260 N   0  0  0  0  0  2  0  0  0  0  0  0
  184.9870  179.1020  145.5030 C   0  0  1  0  0  3  0  0  0  0  0  0
  184.9400  176.7680  146.4260 C   0  0  0  0  0  2  0  0  0  0  0  0
  187.2700  178.9230  148.4510 O   0  0  0  0  0  1  0  0  0  0  0  0
  185.0350  179.9180  144.2300 C   0  0  0  0  0  1  0  0  0  0  0  0
  184.9780  177.6160  145.1550 C   0  0  0  0  0  2  0  0  0  0  0  0
  186.1670  178.6130  147.6530 C   0  0  2  0  0  3  0  0  0  0  0  0
  186.1060  177.1030  147.3650 C   0  0  2  0  0  3  0  0  0  0  0  0
  186.2000  179.4340  146.3660 C   0  0  0  0  0  2  0  0  0  0  0  0
  1  6  1  0  0  0  0
  2  3  1  1  0  0  0
  2 13  1  0  0  0  0
  2  5  1  0  0  0  0
  4  7  2  0  0  0  0
  5 16  2  0  0  0  0
  6 17  2  0  0  0  0
  7  3  1  0  0  0  0
  8 23  1  1  0  0  0
  8 12  1  0  0  0  0
  9  1  1  0  0  0  0
 10 18  1  0  0  0  0
 11  4  1  0  0  0  0
 13 18  1  6  0  0  0
 13  8  1  0  0  0  0
 14  5  1  0  0  0  0
 14  1  2  0  0  0  0
 15 20  2  0  0  0  0
 15  4  1  0  0  0  0
 16 12  1  0  0  0  0
 16 17  1  0  0  0  0
 19 10  1  0  0  0  0
 19  3  2  0  0  0  0
 20 19  1  0  0  0  0
 22 21  2  0  0  0  0
 23 22  1  0  0  0  0
 24 27  1  6  0  0  0
 24 31  1  0  0  0  0
 25 30  1  0  0  0  0
 28 24  1  0  0  0  0
 28 25  1  0  0  0  0
 29 26  1  6  0  0  0
 30 22  1  6  0  0  0
 30 29  1  0  0  0  0
 31 29  1  0  0  0  0
M  END
>  <MODEL>
2

>  <REMARK>
 VINA RESULT:      -8.8      3.377      7.108
  Name = 
  2 active torsions:
  status: ('A' for Active; 'I' for Inactive)
    1  A    between atoms: C_5  and  C_30
    2  A    between atoms: C_10  and  N_16
                            x       y       z     vdW  Elec       q    Type
                         _______ _______ _______ _____ _____    ______ ____

>  <TORSDO>
F 2

$$$$
=
 OpenBabel11112417053D

 31 35  0  0  1  0  0  0  0  0999 V2000
  184.9920  177.7250  146.8760 C   0  0  0  0  0  0  0  0  0  0  0  0
  187.3680  175.8190  144.6000 C   0  0  2  0  0  3  0  0  0  0  0  0
  187.1460  176.3530  143.1900 C   0  0  0  0  0  0  0  0  0  0  0  0
  185.7970  177.5740  141.5740 C   0  0  0  0  0  0  0  0  0  0  0  0
  186.8680  176.7600  145.6720 C   0  0  0  0  0  0  0  0  0  0  0  0
  185.8650  178.5650  147.5700 C   0  0  0  0  0  3  0  0  0  0  0  0
  186.0100  177.1180  142.8770 C   0  0  0  0  0  3  0  0  0  0  0  0
  189.6920  176.7050  145.0180 C   0  0  2  0  0  3  0  0  0  0  0  0
  183.6610  177.7840  147.1170 F   0  0  0  0  0  0  0  0  0  0  0  0
  189.1890  175.2040  142.4330 N   0  0  0  0  0  2  0  0  0  0  0  0
  184.5980  178.3950  141.2620 C   0  0  0  0  0  1  0  0  0  0  0  0
  189.2410  177.4850  146.2550 C   0  0  0  0  0  2  0  0  0  0  0  0
  188.8410  175.4380  144.8540 C   0  0  2  0  0  3  0  0  0  0  0  0
  185.4920  176.8250  145.9330 C   0  0  0  0  0  3  0  0  0  0  0  0
  186.7100  177.2610  140.5640 C   0  0  0  0  0  3  0  0  0  0  0  0
  187.7490  177.6090  146.3790 C   0  0  0  0  0  0  0  0  0  0  0  0
  187.2390  178.5000  147.3280 C   0  0  0  0  0  3  0  0  0  0  0  0
  189.3540  174.5430  143.7220 C   0  0  0  0  0  2  0  0  0  0  0  0
  188.0420  176.0100  142.1560 C   0  0  0  0  0  0  0  0  0  0  0  0
  187.8300  176.4780  140.8550 C   0  0  0  0  0  3  0  0  0  0  0  0
  191.8470  178.0540  143.7280 O   0  0  0  0  0  0  0  0  0  0  0  0
  192.1340  177.0850  144.4840 C   0  0  0  0  0  0  0  0  0  0  0  0
  191.1000  176.3610  145.1530 N   0  0  0  0  0  2  0  0  0  0  0  0
  193.8510  173.7410  144.9430 C   0  0  1  0  0  3  0  0  0  0  0  0
  194.0730  175.8010  143.5250 C   0  0  0  0  0  2  0  0  0  0  0  0
  193.2970  176.7460  147.0860 O   0  0  0  0  0  1  0  0  0  0  0  0
  193.2820  172.3400  144.9920 C   0  0  0  0  0  1  0  0  0  0  0  0
  193.5170  174.3780  143.5970 C   0  0  0  0  0  2  0  0  0  0  0  0
  193.8240  175.9890  146.0380 C   0  0  2  0  0  3  0  0  0  0  0  0
  193.5620  176.6670  144.6830 C   0  0  2  0  0  3  0  0  0  0  0  0
  193.2620  174.5690  146.0800 C   0  0  0  0  0  2  0  0  0  0  0  0
  1  9  1  0  0  0  0
  1  6  1  0  0  0  0
  2  3  1  6  0  0  0
  2 13  1  0  0  0  0
  2  5  1  0  0  0  0
  4  7  2  0  0  0  0
  5 14  1  0  0  0  0
  5 16  2  0  0  0  0
  7  3  1  0  0  0  0
  8 23  1  1  0  0  0
  8 12  1  0  0  0  0
 10 18  1  0  0  0  0
 11  4  1  0  0  0  0
 12 16  1  0  0  0  0
 13 18  1  6  0  0  0
 13  8  1  0  0  0  0
 14  1  2  0  0  0  0
 15 20  2  0  0  0  0
 15  4  1  0  0  0  0
 16 17  1  0  0  0  0
 17  6  2  0  0  0  0
 19 10  1  0  0  0  0
 19  3  2  0  0  0  0
 20 19  1  0  0  0  0
 21 22  2  0  0  0  0
 22 23  1  0  0  0  0
 24 27  1  6  0  0  0
 24 31  1  0  0  0  0
 25 28  1  0  0  0  0
 25 30  1  0  0  0  0
 28 24  1  0  0  0  0
 29 31  1  0  0  0  0
 29 26  1  1  0  0  0
 30 22  1  6  0  0  0
 30 29  1  0  0  0  0
M  END
>  <MODEL>
3

>  <REMARK>
 VINA RESULT:      -8.7      1.255      1.877
  Name = 
  2 active torsions:
  status: ('A' for Active; 'I' for Inactive)
    1  A    between atoms: C_5  and  C_30
    2  A    between atoms: C_10  and  N_16
                            x       y       z     vdW  Elec       q    Type
                         _______ _______ _______ _____ _____    ______ ____

>  <TORSDO>
F 2

$$$$
=
 OpenBabel11112417053D

 31 35  0  0  1  0  0  0  0  0999 V2000
  186.4400  177.9160  140.7540 C   0  0  0  0  0  0  0  0  0  0  0  0
  188.8860  177.7600  143.6610 C   0  0  2  0  0  3  0  0  0  0  0  0
  188.0600  177.5060  144.9160 C   0  0  0  0  0  0  0  0  0  0  0  0
  185.9200  177.4830  146.0770 C   0  0  0  0  0  0  0  0  0  0  0  0
  188.1570  177.3910  142.3900 C   0  0  0  0  0  0  0  0  0  0  0  0
  186.6910  176.7090  140.0970 C   0  0  0  0  0  3  0  0  0  0  0  0
  186.6670  177.6860  144.9130 C   0  0  0  0  0  3  0  0  0  0  0  0
  190.1020  175.5560  143.5110 C   0  0  2  0  0  3  0  0  0  0  0  0
  185.4870  178.7550  140.2870 F   0  0  0  0  0  0  0  0  0  0  0  0
  190.1190  177.0070  146.1720 N   0  0  0  0  0  2  0  0  0  0  0  0
  184.4450  177.6640  146.0530 C   0  0  0  0  0  1  0  0  0  0  0  0
  189.5520  175.2750  142.1120 C   0  0  0  0  0  2  0  0  0  0  0  0
  190.2640  177.0680  143.7210 C   0  0  2  0  0  3  0  0  0  0  0  0
  187.1720  178.2560  141.8940 C   0  0  0  0  0  3  0  0  0  0  0  0
  186.5590  177.1100  147.2610 C   0  0  0  0  0  3  0  0  0  0  0  0
  188.4120  176.1720  141.7210 C   0  0  0  0  0  0  0  0  0  0  0  0
  187.6800  175.8460  140.5750 C   0  0  0  0  0  3  0  0  0  0  0  0
  190.9590  177.3960  145.0460 C   0  0  0  0  0  2  0  0  0  0  0  0
  188.6990  177.1660  146.1270 C   0  0  0  0  0  0  0  0  0  0  0  0
  187.9460  176.9530  147.2860 C   0  0  0  0  0  3  0  0  0  0  0  0
  190.5280  173.1710  145.0130 O   0  0  0  0  0  0  0  0  0  0  0  0
  191.5260  173.6800  144.4310 C   0  0  0  0  0  0  0  0  0  0  0  0
  191.3820  174.8790  143.6700 N   0  0  0  0  0  2  0  0  0  0  0  0
  195.0700  175.0080  144.2920 C   0  0  1  0  0  3  0  0  0  0  0  0
  193.6560  173.5440  145.7630 C   0  0  0  0  0  2  0  0  0  0  0  0
  192.9940  172.7760  142.1370 O   0  0  0  0  0  1  0  0  0  0  0  0
  195.5870  176.4160  144.0950 C   0  0  0  0  0  1  0  0  0  0  0  0
  194.2000  174.9560  145.5460 C   0  0  0  0  0  2  0  0  0  0  0  0
  193.7260  173.1690  143.2590 C   0  0  2  0  0  3  0  0  0  0  0  0
  192.8810  173.0420  144.5380 C   0  0  2  0  0  3  0  0  0  0  0  0
  194.2600  174.5880  143.0700 C   0  0  0  0  0  2  0  0  0  0  0  0
  1 14  1  0  0  0  0
  2  5  1  6  0  0  0
  2 13  1  0  0  0  0
  2  3  1  0  0  0  0
  3 19  1  0  0  0  0
  4 15  2  0  0  0  0
  6 17  1  0  0  0  0
  6  1  2  0  0  0  0
  7  3  2  0  0  0  0
  7  4  1  0  0  0  0
  8 23  1  6  0  0  0
  8 13  1  0  0  0  0
  9  1  1  0  0  0  0
 11  4  1  0  0  0  0
 12  8  1  0  0  0  0
 13 18  1  1  0  0  0
 14  5  2  0  0  0  0
 15 20  1  0  0  0  0
 16 12  1  0  0  0  0
 16  5  1  0  0  0  0
 17 16  2  0  0  0  0
 18 10  1  0  0  0  0
 19 10  1  0  0  0  0
 19 20  2  0  0  0  0
 22 21  2  0  0  0  0
 23 22  1  0  0  0  0
 24 27  1  6  0  0  0
 24 28  1  0  0  0  0
 28 25  1  0  0  0  0
 29 26  1  6  0  0  0
 29 30  1  0  0  0  0
 30 22  1  6  0  0  0
 30 25  1  0  0  0  0
 31 29  1  0  0  0  0
 31 24  1  0  0  0  0
M  END
>  <MODEL>
4

>  <REMARK>
 VINA RESULT:      -8.1      2.036      4.370
  Name = 
  2 active torsions:
  status: ('A' for Active; 'I' for Inactive)
    1  A    between atoms: C_5  and  C_30
    2  A    between atoms: C_10  and  N_16
                            x       y       z     vdW  Elec       q    Type
                         _______ _______ _______ _____ _____    ______ ____

>  <TORSDO>
F 2

$$$$
=
 OpenBabel11112417053D

 31 35  0  0  1  0  0  0  0  0999 V2000
  191.8260  173.2580  141.5700 C   0  0  0  0  0  0  0  0  0  0  0  0
  191.0930  174.1200  145.2010 C   0  0  2  0  0  3  0  0  0  0  0  0
  192.1450  175.1350  145.6300 C   0  0  0  0  0  0  0  0  0  0  0  0
  194.2820  176.2480  145.2870 C   0  0  0  0  0  0  0  0  0  0  0  0
  190.9440  174.0250  143.7000 C   0  0  0  0  0  0  0  0  0  0  0  0
  190.7850  173.9060  140.9020 C   0  0  0  0  0  3  0  0  0  0  0  0
  193.3070  175.3400  144.8680 C   0  0  0  0  0  3  0  0  0  0  0  0
  189.0510  175.5980  145.2310 C   0  0  2  0  0  3  0  0  0  0  0  0
  192.7610  172.5760  140.8680 F   0  0  0  0  0  0  0  0  0  0  0  0
  190.8500  175.6130  147.6710 N   0  0  0  0  0  2  0  0  0  0  0  0
  195.4980  176.4650  144.4600 C   0  0  0  0  0  1  0  0  0  0  0  0
  188.7510  175.3240  143.7570 C   0  0  0  0  0  2  0  0  0  0  0  0
  189.7270  174.3770  145.8700 C   0  0  2  0  0  3  0  0  0  0  0  0
  191.9030  173.3160  142.9630 C   0  0  0  0  0  3  0  0  0  0  0  0
  194.1150  176.9530  146.4810 C   0  0  0  0  0  3  0  0  0  0  0  0
  189.8900  174.6760  143.0200 C   0  0  0  0  0  0  0  0  0  0  0  0
  189.8170  174.6040  141.6260 C   0  0  0  0  0  3  0  0  0  0  0  0
  189.9060  174.5410  147.3810 C   0  0  0  0  0  2  0  0  0  0  0  0
  192.0040  175.8240  146.8540 C   0  0  0  0  0  0  0  0  0  0  0  0
  192.9780  176.7400  147.2630 C   0  0  0  0  0  3  0  0  0  0  0  0
  188.6570  177.8220  146.9710 O   0  0  0  0  0  0  0  0  0  0  0  0
  187.6760  177.0520  146.7770 C   0  0  0  0  0  0  0  0  0  0  0  0
  187.8100  175.9150  145.9240 N   0  0  0  0  0  2  0  0  0  0  0  0
  184.4660  178.7470  145.6970 C   0  0  1  0  0  3  0  0  0  0  0  0
  185.2040  176.5860  146.7420 C   0  0  0  0  0  2  0  0  0  0  0  0
  187.1220  179.4710  148.2180 O   0  0  0  0  0  1  0  0  0  0  0  0
  184.0970  179.4160  144.3910 C   0  0  0  0  0  1  0  0  0  0  0  0
  184.8160  177.2840  145.4370 C   0  0  0  0  0  2  0  0  0  0  0  0
  186.0420  178.8020  147.6380 C   0  0  2  0  0  3  0  0  0  0  0  0
  186.3580  177.3090  147.4480 C   0  0  2  0  0  3  0  0  0  0  0  0
  185.6540  179.4710  146.3210 C   0  0  0  0  0  2  0  0  0  0  0  0
  1 14  1  0  0  0  0
  2  5  1  6  0  0  0
  2  3  1  0  0  0  0
  2 13  1  0  0  0  0
  3 19  1  0  0  0  0
  4 15  2  0  0  0  0
  6  1  2  0  0  0  0
  6 17  1  0  0  0  0
  7  4  1  0  0  0  0
  7  3  2  0  0  0  0
  8 13  1  0  0  0  0
  8 23  1  1  0  0  0
  9  1  1  0  0  0  0
 11  4  1  0  0  0  0
 12  8  1  0  0  0  0
 13 18  1  1  0  0  0
 14  5  2  0  0  0  0
 15 20  1  0  0  0  0
 16  5  1  0  0  0  0
 16 12  1  0  0  0  0
 17 16  2  0  0  0  0
 18 10  1  0  0  0  0
 19 20  2  0  0  0  0
 19 10  1  0  0  0  0
 22 21  2  0  0  0  0
 23 22  1  0  0  0  0
 24 27  1  6  0  0  0
 24 31  1  0  0  0  0
 25 30  1  0  0  0  0
 28 24  1  0  0  0  0
 28 25  1  0  0  0  0
 29 26  1  6  0  0  0
 30 22  1  6  0  0  0
 30 29  1  0  0  0  0
 31 29  1  0  0  0  0
M  END
>  <MODEL>
5

>  <REMARK>
 VINA RESULT:      -8.0      3.161      7.753
  Name = 
  2 active torsions:
  status: ('A' for Active; 'I' for Inactive)
    1  A    between atoms: C_5  and  C_30
    2  A    between atoms: C_10  and  N_16
                            x       y       z     vdW  Elec       q    Type
                         _______ _______ _______ _____ _____    ______ ____

>  <TORSDO>
F 2

$$$$
=
 OpenBabel11112417053D

 31 35  0  0  1  0  0  0  0  0999 V2000
  185.3930  177.6040  142.3980 C   0  0  0  0  0  0  0  0  0  0  0  0
  188.2070  175.2030  143.2760 C   0  0  2  0  0  3  0  0  0  0  0  0
  188.7700  174.6870  141.9570 C   0  0  0  0  0  0  0  0  0  0  0  0
  188.5700  174.3460  139.5550 C   0  0  0  0  0  0  0  0  0  0  0  0
  187.4240  176.4860  143.1210 C   0  0  0  0  0  0  0  0  0  0  0  0
  185.9610  178.8420  142.7050 C   0  0  0  0  0  3  0  0  0  0  0  0
  188.0630  174.8520  140.7550 C   0  0  0  0  0  3  0  0  0  0  0  0
  190.1680  176.5840  144.0520 C   0  0  2  0  0  3  0  0  0  0  0  0
  184.1370  177.5410  141.8960 F   0  0  0  0  0  0  0  0  0  0  0  0
  190.7050  173.7400  143.1520 N   0  0  0  0  0  2  0  0  0  0  0  0
  187.8160  174.5430  138.2900 C   0  0  0  0  0  1  0  0  0  0  0  0
  189.3240  177.8580  144.1250 C   0  0  0  0  0  2  0  0  0  0  0  0
  189.2990  175.3560  144.3550 C   0  0  2  0  0  3  0  0  0  0  0  0
  186.1210  176.4310  142.6070 C   0  0  0  0  0  3  0  0  0  0  0  0
  189.7840  173.6570  139.5450 C   0  0  0  0  0  3  0  0  0  0  0  0
  187.9950  177.7400  143.4340 C   0  0  0  0  0  0  0  0  0  0  0  0
  187.2530  178.9080  143.2290 C   0  0  0  0  0  3  0  0  0  0  0  0
  190.1280  174.0720  144.4490 C   0  0  0  0  0  2  0  0  0  0  0  0
  189.9770  173.9560  141.9410 C   0  0  0  0  0  0  0  0  0  0  0  0
  190.4860  173.4610  140.7360 C   0  0  0  0  0  3  0  0  0  0  0  0
  192.9370  176.4250  143.3930 O   0  0  0  0  0  0  0  0  0  0  0  0
  192.6350  176.6000  144.6060 C   0  0  0  0  0  0  0  0  0  0  0  0
  191.2660  176.6800  145.0040 N   0  0  0  0  0  2  0  0  0  0  0  0
  195.9840  174.9110  145.1300 C   0  0  1  0  0  3  0  0  0  0  0  0
  195.0270  177.2310  145.0670 C   0  0  0  0  0  2  0  0  0  0  0  0
  192.7130  174.9160  146.9280 O   0  0  0  0  0  1  0  0  0  0  0  0
  196.6920  173.8530  144.3120 C   0  0  0  0  0  1  0  0  0  0  0  0
  195.7510  176.1480  144.2660 C   0  0  0  0  0  2  0  0  0  0  0  0
  193.9260  175.4210  146.4550 C   0  0  2  0  0  3  0  0  0  0  0  0
  193.7060  176.7150  145.6520 C   0  0  2  0  0  3  0  0  0  0  0  0
  194.6540  174.3600  145.6330 C   0  0  0  0  0  2  0  0  0  0  0  0
  1 14  2  0  0  0  0
  1  6  1  0  0  0  0
  2  3  1  6  0  0  0
  2 13  1  0  0  0  0
  4  7  1  0  0  0  0
  5  2  1  0  0  0  0
  5 16  2  0  0  0  0
  6 17  2  0  0  0  0
  7  3  2  0  0  0  0
  8 12  1  0  0  0  0
  8 13  1  0  0  0  0
  8 23  1  1  0  0  0
  9  1  1  0  0  0  0
 10 18  1  0  0  0  0
 11  4  1  0  0  0  0
 13 18  1  6  0  0  0
 14  5  1  0  0  0  0
 15  4  2  0  0  0  0
 15 20  1  0  0  0  0
 16 12  1  0  0  0  0
 17 16  1  0  0  0  0
 19  3  1  0  0  0  0
 19 10  1  0  0  0  0
 20 19  2  0  0  0  0
 21 22  2  0  0  0  0
 22 23  1  0  0  0  0
 24 27  1  6  0  0  0
 24 31  1  0  0  0  0
 25 30  1  0  0  0  0
 28 25  1  0  0  0  0
 28 24  1  0  0  0  0
 29 26  1  6  0  0  0
 30 22  1  6  0  0  0
 30 29  1  0  0  0  0
 31 29  1  0  0  0  0
M  END
>  <MODEL>
6

>  <REMARK>
 VINA RESULT:      -7.6      2.381      3.033
  Name = 
  2 active torsions:
  status: ('A' for Active; 'I' for Inactive)
    1  A    between atoms: C_5  and  C_30
    2  A    between atoms: C_10  and  N_16
                            x       y       z     vdW  Elec       q    Type
                         _______ _______ _______ _____ _____    ______ ____

>  <TORSDO>
F 2

$$$$
=
 OpenBabel11112417053D

 31 35  0  0  1  0  0  0  0  0999 V2000
  190.5010  171.4890  142.5000 C   0  0  0  0  0  0  0  0  0  0  0  0
  189.7900  174.4600  144.7640 C   0  0  2  0  0  3  0  0  0  0  0  0
  191.1360  174.9320  145.3020 C   0  0  0  0  0  0  0  0  0  0  0  0
  193.5010  174.5480  145.7290 C   0  0  0  0  0  0  0  0  0  0  0  0
  189.9170  173.6160  143.5170 C   0  0  0  0  0  0  0  0  0  0  0  0
  190.2790  172.0290  141.2320 C   0  0  0  0  0  3  0  0  0  0  0  0
  192.2790  174.1220  145.2030 C   0  0  0  0  0  3  0  0  0  0  0  0
  189.2230  176.4210  143.2840 C   0  0  2  0  0  3  0  0  0  0  0  0
  190.8940  170.1990  142.6270 F   0  0  0  0  0  0  0  0  0  0  0  0
  190.0790  176.9960  146.1350 N   0  0  0  0  0  2  0  0  0  0  0  0
  194.7040  173.6850  145.6030 C   0  0  0  0  0  1  0  0  0  0  0  0
  189.1180  175.5360  142.0420 C   0  0  0  0  0  2  0  0  0  0  0  0
  188.8110  175.6300  144.5340 C   0  0  2  0  0  3  0  0  0  0  0  0
  190.3180  172.2780  143.6370 C   0  0  0  0  0  3  0  0  0  0  0  0
  193.5930  175.7840  146.3720 C   0  0  0  0  0  3  0  0  0  0  0  0
  189.6910  174.1590  142.2320 C   0  0  0  0  0  0  0  0  0  0  0  0
  189.8670  173.3570  141.1000 C   0  0  0  0  0  3  0  0  0  0  0  0
  188.7490  176.5150  145.7820 C   0  0  0  0  0  2  0  0  0  0  0  0
  191.2310  176.1620  145.9870 C   0  0  0  0  0  0  0  0  0  0  0  0
  192.4590  176.5890  146.5010 C   0  0  0  0  0  3  0  0  0  0  0  0
  186.6140  176.4040  142.1360 O   0  0  0  0  0  0  0  0  0  0  0  0
  187.0670  177.5110  142.5390 C   0  0  0  0  0  0  0  0  0  0  0  0
  188.3700  177.5900  143.1160 N   0  0  0  0  0  2  0  0  0  0  0  0
  184.3980  179.1420  144.6750 C   0  0  1  0  0  3  0  0  0  0  0  0
  186.5470  179.7630  143.5340 C   0  0  0  0  0  2  0  0  0  0  0  0
  184.4780  177.5470  141.3010 O   0  0  0  0  0  1  0  0  0  0  0  0
  183.7870  178.7080  145.9890 C   0  0  0  0  0  1  0  0  0  0  0  0
  185.9020  179.3330  144.8520 C   0  0  0  0  0  2  0  0  0  0  0  0
  184.7390  178.5070  142.2800 C   0  0  2  0  0  3  0  0  0  0  0  0
  186.2510  178.7650  142.4080 C   0  0  2  0  0  3  0  0  0  0  0  0
  184.1220  178.0840  143.6120 C   0  0  0  0  0  2  0  0  0  0  0  0
  1  9  1  0  0  0  0
  1 14  1  0  0  0  0
  2  5  1  6  0  0  0
  2  3  1  0  0  0  0
  3 19  1  0  0  0  0
  4 15  2  0  0  0  0
  5 14  2  0  0  0  0
  6  1  2  0  0  0  0
  7  3  2  0  0  0  0
  7  4  1  0  0  0  0
  8 23  1  6  0  0  0
  8 13  1  0  0  0  0
 11  4  1  0  0  0  0
 12 16  1  0  0  0  0
 12  8  1  0  0  0  0
 13  2  1  0  0  0  0
 13 18  1  1  0  0  0
 15 20  1  0  0  0  0
 16  5  1  0  0  0  0
 17  6  1  0  0  0  0
 17 16  2  0  0  0  0
 18 10  1  0  0  0  0
 19 10  1  0  0  0  0
 19 20  2  0  0  0  0
 21 22  2  0  0  0  0
 22 23  1  0  0  0  0
 24 28  1  0  0  0  0
 24 27  1  1  0  0  0
 25 28  1  0  0  0  0
 29 26  1  6  0  0  0
 29 30  1  0  0  0  0
 29 31  1  0  0  0  0
 30 22  1  1  0  0  0
 30 25  1  0  0  0  0
 31 24  1  0  0  0  0
M  END
>  <MODEL>
7

>  <REMARK>
 VINA RESULT:      -7.4      3.437      7.978
  Name = 
  2 active torsions:
  status: ('A' for Active; 'I' for Inactive)
    1  A    between atoms: C_5  and  C_30
    2  A    between atoms: C_10  and  N_16
                            x       y       z     vdW  Elec       q    Type
                         _______ _______ _______ _____ _____    ______ ____

>  <TORSDO>
F 2

$$$$
=
 OpenBabel11112417053D

 31 35  0  0  1  0  0  0  0  0999 V2000
  187.7850  177.5690  141.7620 C   0  0  0  0  0  0  0  0  0  0  0  0
  191.1600  176.9230  143.3900 C   0  0  2  0  0  3  0  0  0  0  0  0
  190.9220  176.9030  144.8950 C   0  0  0  0  0  0  0  0  0  0  0  0
  189.5360  177.4120  146.8310 C   0  0  0  0  0  0  0  0  0  0  0  0
  189.8960  176.7010  142.5920 C   0  0  0  0  0  0  0  0  0  0  0  0
  187.4820  176.3200  141.2150 C   0  0  0  0  0  3  0  0  0  0  0  0
  189.7320  177.4040  145.4470 C   0  0  0  0  0  3  0  0  0  0  0  0
  191.7250  174.4930  143.0260 C   0  0  2  0  0  3  0  0  0  0  0  0
  186.9120  178.5960  141.6300 F   0  0  0  0  0  0  0  0  0  0  0  0
  193.1770  175.9700  145.2390 N   0  0  0  0  0  2  0  0  0  0  0  0
  188.2650  177.9320  147.3970 C   0  0  0  0  0  1  0  0  0  0  0  0
  190.5800  174.3110  142.0270 C   0  0  0  0  0  2  0  0  0  0  0  0
  192.2600  175.9300  142.9600 C   0  0  2  0  0  3  0  0  0  0  0  0
  188.9880  177.7590  142.4450 C   0  0  0  0  0  3  0  0  0  0  0  0
  190.5350  176.9320  147.6810 C   0  0  0  0  0  3  0  0  0  0  0  0
  189.5880  175.4390  142.0340 C   0  0  0  0  0  0  0  0  0  0  0  0
  188.3850  175.2630  141.3440 C   0  0  0  0  0  3  0  0  0  0  0  0
  193.5070  176.1220  143.8270 C   0  0  0  0  0  2  0  0  0  0  0  0
  191.9390  176.4550  145.7650 C   0  0  0  0  0  0  0  0  0  0  0  0
  191.7340  176.4550  147.1480 C   0  0  0  0  0  3  0  0  0  0  0  0
  192.6990  172.4930  144.8090 O   0  0  0  0  0  0  0  0  0  0  0  0
  193.2200  172.5550  143.6610 C   0  0  0  0  0  0  0  0  0  0  0  0
  192.7830  173.5400  142.7230 N   0  0  0  0  0  2  0  0  0  0  0  0
  195.0450  169.7620  145.4510 C   0  0  1  0  0  3  0  0  0  0  0  0
  193.8420  170.1470  143.2810 C   0  0  0  0  0  2  0  0  0  0  0  0
  195.9950  173.1190  144.1240 O   0  0  0  0  0  1  0  0  0  0  0  0
  194.8960  169.2320  146.8600 C   0  0  0  0  0  1  0  0  0  0  0  0
  193.7210  169.6090  144.7070 C   0  0  0  0  0  2  0  0  0  0  0  0
  195.6060  171.7790  144.0830 C   0  0  2  0  0  3  0  0  0  0  0  0
  194.3140  171.6070  143.2650 C   0  0  2  0  0  3  0  0  0  0  0  0
  195.4570  171.2290  145.5000 C   0  0  0  0  0  2  0  0  0  0  0  0
  1 14  1  0  0  0  0
  2  5  1  6  0  0  0
  2  3  1  0  0  0  0
  3  7  2  0  0  0  0
  3 19  1  0  0  0  0
  4 11  1  0  0  0  0
  4 15  2  0  0  0  0
  6 17  1  0  0  0  0
  6  1  2  0  0  0  0
  7  4  1  0  0  0  0
  8 23  1  6  0  0  0
  9  1  1  0  0  0  0
 10 19  1  0  0  0  0
 12 16  1  0  0  0  0
 12  8  1  0  0  0  0
 13  8  1  0  0  0  0
 13  2  1  0  0  0  0
 13 18  1  1  0  0  0
 14  5  2  0  0  0  0
 16  5  1  0  0  0  0
 17 16  2  0  0  0  0
 18 10  1  0  0  0  0
 19 20  2  0  0  0  0
 20 15  1  0  0  0  0
 22 21  2  0  0  0  0
 23 22  1  0  0  0  0
 24 31  1  0  0  0  0
 24 27  1  1  0  0  0
 25 28  1  0  0  0  0
 28 24  1  0  0  0  0
 29 26  1  1  0  0  0
 29 31  1  0  0  0  0
 30 25  1  0  0  0  0
 30 22  1  1  0  0  0
 30 29  1  0  0  0  0
M  END
>  <MODEL>
8

>  <REMARK>
 VINA RESULT:      -7.3      3.023      5.634
  Name = 
  2 active torsions:
  status: ('A' for Active; 'I' for Inactive)
    1  A    between atoms: C_5  and  C_30
    2  A    between atoms: C_10  and  N_16
                            x       y       z     vdW  Elec       q    Type
                         _______ _______ _______ _____ _____    ______ ____

>  <TORSDO>
F 2

$$$$
=
 OpenBabel11112417053D

 31 35  0  0  1  0  0  0  0  0999 V2000
  185.5480  179.2140  143.2830 C   0  0  0  0  0  0  0  0  0  0  0  0
  188.8430  177.3480  143.6240 C   0  0  2  0  0  3  0  0  0  0  0  0
  188.7540  176.5320  144.9080 C   0  0  0  0  0  0  0  0  0  0  0  0
  187.7050  176.0640  147.0540 C   0  0  0  0  0  0  0  0  0  0  0  0
  187.4910  177.7680  143.0970 C   0  0  0  0  0  0  0  0  0  0  0  0
  184.9300  178.5250  142.2380 C   0  0  0  0  0  3  0  0  0  0  0  0
  187.7590  176.7940  145.8640 C   0  0  0  0  0  3  0  0  0  0  0  0
  188.8300  175.4730  141.9380 C   0  0  2  0  0  3  0  0  0  0  0  0
  184.9090  180.2450  143.8850 F   0  0  0  0  0  0  0  0  0  0  0  0
  190.7750  175.2830  144.2560 N   0  0  0  0  0  2  0  0  0  0  0  0
  186.6360  176.3450  148.0480 C   0  0  0  0  0  1  0  0  0  0  0  0
  187.5830  176.0210  141.2430 C   0  0  0  0  0  2  0  0  0  0  0  0
  189.6550  176.6250  142.5290 C   0  0  2  0  0  3  0  0  0  0  0  0
  186.8230  178.8380  143.7090 C   0  0  0  0  0  3  0  0  0  0  0  0
  188.6520  175.0710  147.3090 C   0  0  0  0  0  3  0  0  0  0  0  0
  186.8640  177.0750  142.0370 C   0  0  0  0  0  0  0  0  0  0  0  0
  185.5900  177.4650  141.6120 C   0  0  0  0  0  3  0  0  0  0  0  0
  190.9920  176.1430  143.0990 C   0  0  0  0  0  2  0  0  0  0  0  0
  189.7290  175.5520  145.1920 C   0  0  0  0  0  0  0  0  0  0  0  0
  189.6630  174.8160  146.3790 C   0  0  0  0  0  3  0  0  0  0  0  0
  189.5150  172.7150  142.1760 O   0  0  0  0  0  0  0  0  0  0  0  0
  189.9240  173.3320  141.1540 C   0  0  0  0  0  0  0  0  0  0  0  0
  189.6230  174.7170  140.9790 N   0  0  0  0  0  2  0  0  0  0  0  0
  192.3920  170.4610  141.2560 C   0  0  1  0  0  3  0  0  0  0  0  0
  190.3470  171.1520  139.9720 C   0  0  0  0  0  2  0  0  0  0  0  0
  192.6100  174.1120  140.5110 O   0  0  0  0  0  1  0  0  0  0  0  0
  192.8890  169.6310  142.4190 C   0  0  0  0  0  1  0  0  0  0  0  0
  190.8770  170.3130  141.1360 C   0  0  0  0  0  2  0  0  0  0  0  0
  192.2610  172.7750  140.3160 C   0  0  2  0  0  3  0  0  0  0  0  0
  190.7430  172.6270  140.1120 C   0  0  2  0  0  3  0  0  0  0  0  0
  192.7620  171.9230  141.4800 C   0  0  0  0  0  2  0  0  0  0  0  0
  1 14  1  0  0  0  0
  1  9  1  0  0  0  0
  2  5  1  6  0  0  0
  2  3  1  0  0  0  0
  3 19  2  0  0  0  0
  3  7  1  0  0  0  0
  4 15  1  0  0  0  0
  4 11  1  0  0  0  0
  5 14  2  0  0  0  0
  6  1  2  0  0  0  0
  7  4  2  0  0  0  0
  8 23  1  6  0  0  0
  8 13  1  0  0  0  0
 10 19  1  0  0  0  0
 12  8  1  0  0  0  0
 12 16  1  0  0  0  0
 13 18  1  1  0  0  0
 13  2  1  0  0  0  0
 16  5  1  0  0  0  0
 17 16  2  0  0  0  0
 17  6  1  0  0  0  0
 18 10  1  0  0  0  0
 19 20  1  0  0  0  0
 20 15  2  0  0  0  0
 22 21  2  0  0  0  0
 23 22  1  0  0  0  0
 24 31  1  0  0  0  0
 24 27  1  1  0  0  0
 25 30  1  0  0  0  0
 25 28  1  0  0  0  0
 28 24  1  0  0  0  0
 29 26  1  1  0  0  0
 29 31  1  0  0  0  0
 30 29  1  0  0  0  0
 30 22  1  1  0  0  0
M  END
>  <MODEL>
9

>  <REMARK>
 VINA RESULT:      -7.3      3.231      5.503
  Name = 
  2 active torsions:
  status: ('A' for Active; 'I' for Inactive)
    1  A    between atoms: C_5  and  C_30
    2  A    between atoms: C_10  and  N_16
                            x       y       z     vdW  Elec       q    Type
                         _______ _______ _______ _____ _____    ______ ____

>  <TORSDO>
F 2

$$$$
