=
 OpenBabel11112417183D

 37 43  0  0  1  0  0  0  0  0999 V2000
  195.7150  175.7600  142.8050 C   0  0  1  0  0  0  0  0  0  0  0  0
  192.1660  175.4300  145.0280 C   0  0  0  0  0  0  0  0  0  0  0  0
  188.8450  174.8630  143.4980 N   0  0  0  0  0  2  0  0  0  0  0  0
  194.5660  175.5470  145.1110 C   0  0  0  0  0  0  0  0  0  0  0  0
  191.2750  175.3890  144.0470 C   0  0  0  0  0  0  0  0  0  0  0  0
  193.4640  175.1800  144.4770 C   0  0  0  0  0  0  0  0  0  0  0  0
  189.7960  175.6460  144.2450 C   0  0  0  0  0  0  0  0  0  0  0  0
  194.4780  175.9000  146.5040 N   0  0  0  0  0  0  0  0  0  0  0  0
  193.3640  174.8880  143.0380 C   0  0  2  0  0  3  0  0  0  0  0  0
  196.3340  174.5110  142.2050 C   0  0  0  0  0  1  0  0  0  0  0  0
  191.3460  177.2410  146.4520 C   0  0  0  0  0  3  0  0  0  0  0  0
  193.3360  176.0270  147.1320 C   0  0  0  0  0  3  0  0  0  0  0  0
  194.2570  175.8870  142.3080 C   0  0  0  0  0  2  0  0  0  0  0  0
  188.6770  174.0840  141.1140 C   0  0  1  0  0  3  0  0  0  0  0  0
  189.3260  173.9780  142.4650 C   0  0  1  0  0  3  0  0  0  0  0  0
  191.9880  175.8960  146.4400 C   0  0  2  0  0  3  0  0  0  0  0  0
  191.9400  175.0950  142.7770 N   0  0  0  0  0  0  0  0  0  0  0  0
  195.8610  175.6820  144.3520 C   0  0  0  0  0  2  0  0  0  0  0  0
  189.3190  176.6070  145.0850 C   0  0  0  0  0  0  0  0  0  0  0  0
  196.4320  176.8650  142.3500 O   0  0  0  0  0  1  0  0  0  0  0  0
  189.9080  174.9360  141.4370 C   0  0  1  0  0  3  0  0  0  0  0  0
  191.3530  174.5270  141.5530 C   0  0  0  0  0  2  0  0  0  0  0  0
  190.1770  177.5220  145.8780 C   0  0  0  0  0  3  0  0  0  0  0  0
  187.1110  176.4510  146.2430 C   0  0  0  0  0  3  0  0  0  0  0  0
  187.8680  176.9110  145.1550 C   0  0  0  0  0  0  0  0  0  0  0  0
  187.2440  177.7040  144.1780 C   0  0  0  0  0  3  0  0  0  0  0  0
  185.1170  178.9850  143.0410 Cl  0  0  0  0  0  0  0  0  0  0  0  0
  185.1360  177.5320  145.3540 C   0  0  0  0  0  3  0  0  0  0  0  0
  185.8830  178.0070  144.2740 C   0  0  0  0  0  0  0  0  0  0  0  0
  185.7500  176.7550  146.3400 C   0  0  0  0  0  3  0  0  0  0  0  0
  188.9260  172.8410  140.2350 C   0  0  2  0  0  3  0  0  0  0  0  0
  187.8590  172.4860  139.4020 O   0  0  0  0  0  1  0  0  0  0  0  0
  191.3660  171.2960  139.9250 O   0  0  0  0  0  0  0  0  0  0  0  0
  190.5570  170.9650  140.8320 C   0  0  0  0  0  0  0  0  0  0  0  0
  189.3480  171.7030  141.0430 N   0  0  0  0  0  2  0  0  0  0  0  0
  190.8780  168.5290  140.8190 C   0  0  0  0  0  1  0  0  0  0  0  0
  190.8480  169.7770  141.6770 C   0  0  0  0  0  2  0  0  0  0  0  0
  1 10  1  6  0  0  0
  1 18  1  0  0  0  0
  2 16  1  0  0  0  0
  3  7  1  0  0  0  0
  4  8  1  0  0  0  0
  5  7  1  0  0  0  0
  5  2  2  0  0  0  0
  6  2  1  0  0  0  0
  6  4  2  0  0  0  0
  7 19  2  0  0  0  0
  8 12  2  0  0  0  0
  9 13  1  6  0  0  0
  9  6  1  0  0  0  0
 13  1  1  0  0  0  0
 14 31  1  6  0  0  0
 14 21  1  0  0  0  0
 14 15  1  0  0  0  0
 15  3  1  1  0  0  0
 16 11  1  6  0  0  0
 16 12  1  0  0  0  0
 17  9  1  0  0  0  0
 17  5  1  0  0  0  0
 18  4  1  0  0  0  0
 19 25  1  0  0  0  0
 19 23  1  0  0  0  0
 20  1  1  0  0  0  0
 21 22  1  6  0  0  0
 21 15  1  0  0  0  0
 22 17  1  0  0  0  0
 23 11  2  0  0  0  0
 24 30  1  0  0  0  0
 25 24  2  0  0  0  0
 26 29  2  0  0  0  0
 26 25  1  0  0  0  0
 27 29  1  0  0  0  0
 28 30  2  0  0  0  0
 29 28  1  0  0  0  0
 31 32  1  1  0  0  0
 31 35  1  0  0  0  0
 33 34  2  0  0  0  0
 34 35  1  0  0  0  0
 34 37  1  0  0  0  0
 36 37  1  0  0  0  0
M  END
>  <MODEL>
1

>  <REMARK>
 VINA RESULT:      -7.9      0.000      0.000
  Name = 
  4 active torsions:
  status: ('A' for Active; 'I' for Inactive)
    1  A    between atoms: C_4  and  C_37
    2  A    between atoms: C_8  and  N_12
    3  A    between atoms: C_8  and  C_18
    4  A    between atoms: C_23  and  C_30
                            x       y       z     vdW  Elec       q    Type
                         _______ _______ _______ _____ _____    ______ ____

>  <TORSDO>
F 4

$$$$
=
 OpenBabel11112417183D

 37 43  0  0  1  0  0  0  0  0999 V2000
  191.7500  170.2080  141.6800 C   0  0  1  0  0  0  0  0  0  0  0  0
  189.9020  173.9780  141.5590 C   0  0  0  0  0  0  0  0  0  0  0  0
  190.2210  176.4950  144.2530 N   0  0  0  0  0  2  0  0  0  0  0  0
  190.4300  171.9780  140.3340 C   0  0  0  0  0  0  0  0  0  0  0  0
  190.1870  174.4210  142.7760 C   0  0  0  0  0  0  0  0  0  0  0  0
  190.7470  172.8580  141.2710 C   0  0  2  0  0  3  0  0  0  0  0  0
  189.4660  175.5750  143.4400 C   0  0  0  0  0  0  0  0  0  0  0  0
  189.4100  172.3200  139.3790 N   0  0  0  0  0  0  0  0  0  0  0  0
  191.6890  172.6270  142.3780 C   0  0  2  0  0  3  0  0  0  0  0  0
  193.2450  170.1060  141.4400 C   0  0  0  0  0  1  0  0  0  0  0  0
  187.4750  174.2370  141.4260 C   0  0  0  0  0  3  0  0  0  0  0  0
  188.6690  173.3950  139.4870 C   0  0  0  0  0  3  0  0  0  0  0  0
  191.4950  171.1890  142.8480 C   0  0  0  0  0  2  0  0  0  0  0  0
  192.0230  176.2540  145.9890 C   0  0  1  0  0  3  0  0  0  0  0  0
  191.6010  176.1970  144.5490 C   0  0  1  0  0  3  0  0  0  0  0  0
  188.7540  174.3470  140.6710 C   0  0  0  0  0  0  0  0  0  0  0  0
  191.2580  173.6160  143.3640 N   0  0  0  0  0  0  0  0  0  0  0  0
  191.0670  170.6110  140.3420 C   0  0  0  0  0  2  0  0  0  0  0  0
  188.1240  175.7730  143.3220 C   0  0  0  0  0  0  0  0  0  0  0  0
  191.2800  168.9500  142.0530 O   0  0  0  0  0  1  0  0  0  0  0  0
  191.5050  174.9390  145.3990 C   0  0  1  0  0  3  0  0  0  0  0  0
  192.1800  173.9840  144.4500 C   0  0  0  0  0  2  0  0  0  0  0  0
  187.2120  174.8830  142.5620 C   0  0  0  0  0  3  0  0  0  0  0  0
  187.0180  178.0110  143.4360 C   0  0  0  0  0  3  0  0  0  0  0  0
  187.4370  176.8420  144.0900 C   0  0  0  0  0  0  0  0  0  0  0  0
  187.1450  176.6830  145.4550 C   0  0  0  0  0  3  0  0  0  0  0  0
  186.1280  177.4790  147.8610 Cl  0  0  0  0  0  0  0  0  0  0  0  0
  186.0710  178.8510  145.4990 C   0  0  0  0  0  3  0  0  0  0  0  0
  186.4720  177.6860  146.1580 C   0  0  0  0  0  0  0  0  0  0  0  0
  186.3420  179.0130  144.1380 C   0  0  0  0  0  3  0  0  0  0  0  0
  193.5510  176.3660  146.1590 C   0  0  2  0  0  3  0  0  0  0  0  0
  193.9700  177.2370  147.1700 O   0  0  0  0  0  1  0  0  0  0  0  0
  195.9620  175.1670  145.0670 O   0  0  0  0  0  0  0  0  0  0  0  0
  195.3980  176.0840  144.4130 C   0  0  0  0  0  0  0  0  0  0  0  0
  194.1970  176.6970  144.8930 N   0  0  0  0  0  2  0  0  0  0  0  0
  197.4790  176.2150  143.1120 C   0  0  0  0  0  1  0  0  0  0  0  0
  196.0030  176.5550  143.1390 C   0  0  0  0  0  2  0  0  0  0  0  0
  1 10  1  6  0  0  0
  1 20  1  0  0  0  0
  1 13  1  0  0  0  0
  2  5  2  0  0  0  0
  4 18  1  0  0  0  0
  5 17  1  0  0  0  0
  5  7  1  0  0  0  0
  6  4  1  1  0  0  0
  6  2  1  0  0  0  0
  6  9  1  0  0  0  0
  7  3  1  0  0  0  0
  8 12  1  0  0  0  0
  8  4  2  0  0  0  0
  9 13  1  1  0  0  0
  9 17  1  0  0  0  0
 11 23  2  0  0  0  0
 12 16  2  0  0  0  0
 14 31  1  6  0  0  0
 15  3  1  1  0  0  0
 15 21  1  0  0  0  0
 15 14  1  0  0  0  0
 16 11  1  0  0  0  0
 16  2  1  0  0  0  0
 17 22  1  0  0  0  0
 18  1  1  0  0  0  0
 19  7  2  0  0  0  0
 19 25  1  0  0  0  0
 21 22  1  6  0  0  0
 21 14  1  0  0  0  0
 23 19  1  0  0  0  0
 24 25  2  0  0  0  0
 24 30  1  0  0  0  0
 25 26  1  0  0  0  0
 26 29  2  0  0  0  0
 28 29  1  0  0  0  0
 29 27  1  0  0  0  0
 30 28  2  0  0  0  0
 31 32  1  1  0  0  0
 34 35  1  0  0  0  0
 34 33  2  0  0  0  0
 35 31  1  0  0  0  0
 36 37  1  0  0  0  0
 37 34  1  0  0  0  0
M  END
>  <MODEL>
2

>  <REMARK>
 VINA RESULT:      -7.9      1.981      6.109
  Name = 
  4 active torsions:
  status: ('A' for Active; 'I' for Inactive)
    1  A    between atoms: C_4  and  C_37
    2  A    between atoms: C_8  and  N_12
    3  A    between atoms: C_8  and  C_18
    4  A    between atoms: C_23  and  C_30
                            x       y       z     vdW  Elec       q    Type
                         _______ _______ _______ _____ _____    ______ ____

>  <TORSDO>
F 4

$$$$
=
 OpenBabel11112417183D

 37 43  0  0  1  0  0  0  0  0999 V2000
  190.4520  172.1270  137.3250 C   0  0  1  0  0  0  0  0  0  0  0  0
  189.9200  171.9800  141.4890 C   0  0  0  0  0  0  0  0  0  0  0  0
  188.6280  174.8170  143.4830 N   0  0  0  0  0  2  0  0  0  0  0  0
  190.4150  170.7260  139.4980 C   0  0  0  0  0  0  0  0  0  0  0  0
  189.5970  173.2430  141.7320 C   0  0  0  0  0  0  0  0  0  0  0  0
  189.7920  171.7370  140.0830 C   0  0  0  0  0  0  0  0  0  0  0  0
  189.6520  173.8740  143.1060 C   0  0  0  0  0  0  0  0  0  0  0  0
  190.9550  169.6760  140.3200 N   0  0  0  0  0  0  0  0  0  0  0  0
  189.2760  172.9340  139.4000 C   0  0  2  0  0  3  0  0  0  0  0  0
  189.2370  172.0590  136.4180 C   0  0  0  0  0  1  0  0  0  0  0  0
  191.7780  171.5750  143.0270 C   0  0  0  0  0  3  0  0  0  0  0  0
  190.9990  169.7500  141.6270 C   0  0  0  0  0  3  0  0  0  0  0  0
  190.2780  173.3040  138.3110 C   0  0  0  0  0  2  0  0  0  0  0  0
  187.4840  176.7390  142.3370 C   0  0  1  0  0  3  0  0  0  0  0  0
  187.6830  175.2580  142.4860 C   0  0  1  0  0  3  0  0  0  0  0  0
  190.5610  170.9820  142.4050 C   0  0  2  0  0  3  0  0  0  0  0  0
  189.2210  173.9120  140.4860 N   0  0  0  0  0  0  0  0  0  0  0  0
  190.6310  170.7390  138.0060 C   0  0  0  0  0  2  0  0  0  0  0  0
  190.6430  173.6100  144.0020 C   0  0  0  0  0  0  0  0  0  0  0  0
  191.5730  172.3770  136.5350 O   0  0  0  0  0  1  0  0  0  0  0  0
  188.5530  176.0260  141.5040 C   0  0  1  0  0  3  0  0  0  0  0  0
  188.3930  175.1160  140.3140 C   0  0  0  0  0  2  0  0  0  0  0  0
  191.7870  172.7030  143.7360 C   0  0  0  0  0  3  0  0  0  0  0  0
  189.6990  174.2180  146.2340 C   0  0  0  0  0  3  0  0  0  0  0  0
  190.7290  174.3450  145.2880 C   0  0  0  0  0  0  0  0  0  0  0  0
  191.8530  175.1250  145.6070 C   0  0  0  0  0  3  0  0  0  0  0  0
  193.3330  176.7660  147.2110 Cl  0  0  0  0  0  0  0  0  0  0  0  0
  190.8940  175.6640  147.7630 C   0  0  0  0  0  3  0  0  0  0  0  0
  191.9320  175.7870  146.8350 C   0  0  0  0  0  0  0  0  0  0  0  0
  189.7790  174.8790  147.4630 C   0  0  0  0  0  3  0  0  0  0  0  0
  186.1760  177.0930  141.5990 C   0  0  2  0  0  3  0  0  0  0  0  0
  186.3070  178.0640  140.6010 O   0  0  0  0  0  1  0  0  0  0  0  0
  186.0250  179.5330  143.1690 O   0  0  0  0  0  0  0  0  0  0  0  0
  185.1140  178.6740  143.3050 C   0  0  0  0  0  0  0  0  0  0  0  0
  185.1260  177.4630  142.5430 N   0  0  0  0  0  2  0  0  0  0  0  0
  184.3910  178.2900  145.6220 C   0  0  0  0  0  1  0  0  0  0  0  0
  184.0240  178.9100  144.2890 C   0  0  0  0  0  2  0  0  0  0  0  0
  1 10  1  6  0  0  0
  1 18  1  0  0  0  0
  1 13  1  0  0  0  0
  2  5  2  0  0  0  0
  2 16  1  0  0  0  0
  4  6  2  0  0  0  0
  4  8  1  0  0  0  0
  5  7  1  0  0  0  0
  6  2  1  0  0  0  0
  7  3  1  0  0  0  0
  7 19  2  0  0  0  0
  8 12  2  0  0  0  0
  9 13  1  6  0  0  0
  9  6  1  0  0  0  0
  9 17  1  0  0  0  0
 11 23  2  0  0  0  0
 14 31  1  6  0  0  0
 14 15  1  0  0  0  0
 15  3  1  1  0  0  0
 16 12  1  6  0  0  0
 16 11  1  0  0  0  0
 17  5  1  0  0  0  0
 18  4  1  0  0  0  0
 19 25  1  0  0  0  0
 20  1  1  0  0  0  0
 21 22  1  6  0  0  0
 21 14  1  0  0  0  0
 21 15  1  0  0  0  0
 22 17  1  0  0  0  0
 23 19  1  0  0  0  0
 24 30  1  0  0  0  0
 25 26  1  0  0  0  0
 25 24  2  0  0  0  0
 26 29  2  0  0  0  0
 29 27  1  0  0  0  0
 29 28  1  0  0  0  0
 30 28  2  0  0  0  0
 31 32  1  6  0  0  0
 31 35  1  0  0  0  0
 33 34  2  0  0  0  0
 34 37  1  0  0  0  0
 35 34  1  0  0  0  0
 37 36  1  0  0  0  0
M  END
>  <MODEL>
3

>  <REMARK>
 VINA RESULT:      -7.7      3.448      6.925
  Name = 
  4 active torsions:
  status: ('A' for Active; 'I' for Inactive)
    1  A    between atoms: C_4  and  C_37
    2  A    between atoms: C_8  and  N_12
    3  A    between atoms: C_8  and  C_18
    4  A    between atoms: C_23  and  C_30
                            x       y       z     vdW  Elec       q    Type
                         _______ _______ _______ _____ _____    ______ ____

>  <TORSDO>
F 4

$$$$
=
 OpenBabel11112417183D

 37 43  0  0  1  0  0  0  0  0999 V2000
  194.5710  174.7900  144.4880 C   0  0  1  0  0  0  0  0  0  0  0  0
  190.4610  175.1120  145.2910 C   0  0  0  0  0  0  0  0  0  0  0  0
  187.8570  175.0680  142.6600 N   0  0  0  0  0  2  0  0  0  0  0  0
  192.6570  174.8300  146.2260 C   0  0  0  0  0  0  0  0  0  0  0  0
  189.9830  175.1960  144.0560 C   0  0  0  0  0  0  0  0  0  0  0  0
  191.8100  174.6360  145.2280 C   0  0  0  0  0  0  0  0  0  0  0  0
  188.5950  175.7010  143.7250 C   0  0  0  0  0  0  0  0  0  0  0  0
  192.1380  175.2270  147.5070 N   0  0  0  0  0  0  0  0  0  0  0  0
  192.1820  174.3290  143.8380 C   0  0  2  0  0  3  0  0  0  0  0  0
  195.1490  173.4410  144.1020 C   0  0  0  0  0  1  0  0  0  0  0  0
  189.4970  177.0700  146.3940 C   0  0  0  0  0  3  0  0  0  0  0  0
  190.8850  175.5590  147.6930 C   0  0  0  0  0  3  0  0  0  0  0  0
  193.4280  175.1460  143.5090 C   0  0  0  0  0  2  0  0  0  0  0  0
  188.4250  174.2680  140.3460 C   0  0  1  0  0  3  0  0  0  0  0  0
  188.5220  174.0900  141.8340 C   0  0  1  0  0  3  0  0  0  0  0  0
  189.8700  175.6370  146.5630 C   0  0  2  0  0  3  0  0  0  0  0  0
  190.9990  174.7630  143.0960 N   0  0  0  0  0  0  0  0  0  0  0  0
  194.1410  174.7280  145.9810 C   0  0  0  0  0  2  0  0  0  0  0  0
  188.0160  176.7480  144.3740 C   0  0  0  0  0  0  0  0  0  0  0  0
  195.5740  175.7480  144.3570 O   0  0  0  0  0  1  0  0  0  0  0  0
  189.5820  174.9110  141.1160 C   0  0  1  0  0  3  0  0  0  0  0  0
  190.8020  174.2710  141.7230 C   0  0  0  0  0  2  0  0  0  0  0  0
  188.6720  177.5280  145.4530 C   0  0  0  0  0  3  0  0  0  0  0  0
  185.7240  177.6000  144.8890 C   0  0  0  0  0  3  0  0  0  0  0  0
  186.7060  177.2920  143.9350 C   0  0  0  0  0  0  0  0  0  0  0  0
  186.4480  177.5600  142.5800 C   0  0  0  0  0  3  0  0  0  0  0  0
  184.9100  178.4160  140.4930 Cl  0  0  0  0  0  0  0  0  0  0  0  0
  184.2460  178.3910  143.1430 C   0  0  0  0  0  3  0  0  0  0  0  0
  185.2210  178.1000  142.1860 C   0  0  0  0  0  0  0  0  0  0  0  0
  184.4970  178.1420  144.4940 C   0  0  0  0  0  3  0  0  0  0  0  0
  188.7620  172.9800  139.5680 C   0  0  2  0  0  3  0  0  0  0  0  0
  189.2260  171.9210  140.3550 O   0  0  0  0  0  1  0  0  0  0  0  0
  188.2310  174.5580  137.1880 O   0  0  0  0  0  0  0  0  0  0  0  0
  189.3660  174.0270  137.3150 C   0  0  0  0  0  0  0  0  0  0  0  0
  189.6900  173.2550  138.4760 N   0  0  0  0  0  2  0  0  0  0  0  0
  191.7280  174.5010  136.8300 C   0  0  0  0  0  1  0  0  0  0  0  0
  190.3740  174.1810  136.2320 C   0  0  0  0  0  2  0  0  0  0  0  0
  1 10  1  6  0  0  0
  1 18  1  0  0  0  0
  2 16  1  0  0  0  0
  3  7  1  0  0  0  0
  4  8  1  0  0  0  0
  5  2  2  0  0  0  0
  6  2  1  0  0  0  0
  6  4  2  0  0  0  0
  7  5  1  0  0  0  0
  7 19  2  0  0  0  0
  8 12  2  0  0  0  0
  9 13  1  6  0  0  0
  9  6  1  0  0  0  0
 13  1  1  0  0  0  0
 14 31  1  6  0  0  0
 14 21  1  0  0  0  0
 14 15  1  0  0  0  0
 15  3  1  1  0  0  0
 16 11  1  6  0  0  0
 16 12  1  0  0  0  0
 17  9  1  0  0  0  0
 17  5  1  0  0  0  0
 18  4  1  0  0  0  0
 19 23  1  0  0  0  0
 20  1  1  0  0  0  0
 21 22  1  6  0  0  0
 21 15  1  0  0  0  0
 22 17  1  0  0  0  0
 23 11  2  0  0  0  0
 25 19  1  0  0  0  0
 25 24  2  0  0  0  0
 26 25  1  0  0  0  0
 27 29  1  0  0  0  0
 28 30  2  0  0  0  0
 29 26  2  0  0  0  0
 29 28  1  0  0  0  0
 30 24  1  0  0  0  0
 31 32  1  1  0  0  0
 33 34  2  0  0  0  0
 34 35  1  0  0  0  0
 35 31  1  0  0  0  0
 37 36  1  0  0  0  0
 37 34  1  0  0  0  0
M  END
>  <MODEL>
4

>  <REMARK>
 VINA RESULT:      -7.5      1.939      2.738
  Name = 
  4 active torsions:
  status: ('A' for Active; 'I' for Inactive)
    1  A    between atoms: C_4  and  C_37
    2  A    between atoms: C_8  and  N_12
    3  A    between atoms: C_8  and  C_18
    4  A    between atoms: C_23  and  C_30
                            x       y       z     vdW  Elec       q    Type
                         _______ _______ _______ _____ _____    ______ ____

>  <TORSDO>
F 4

$$$$
=
 OpenBabel11112417183D

 37 43  0  0  1  0  0  0  0  0999 V2000
  195.1350  175.5130  144.3990 C   0  0  1  0  0  0  0  0  0  0  0  0
  191.0610  175.5780  145.4210 C   0  0  0  0  0  0  0  0  0  0  0  0
  188.3330  175.0900  142.9680 N   0  0  0  0  0  2  0  0  0  0  0  0
  193.3210  175.5570  146.2410 C   0  0  0  0  0  0  0  0  0  0  0  0
  190.5130  175.5120  144.2150 C   0  0  0  0  0  0  0  0  0  0  0  0
  192.4410  175.2070  145.3170 C   0  0  0  0  0  0  0  0  0  0  0  0
  189.0710  175.8730  143.9270 C   0  0  0  0  0  0  0  0  0  0  0  0
  192.8400  176.0260  147.5140 N   0  0  0  0  0  0  0  0  0  0  0  0
  192.7620  174.8060  143.9380 C   0  0  2  0  0  3  0  0  0  0  0  0
  195.8030  174.1840  144.0960 C   0  0  0  0  0  1  0  0  0  0  0  0
  189.9970  177.5450  146.4100 C   0  0  0  0  0  3  0  0  0  0  0  0
  191.5750  176.2730  147.7460 C   0  0  0  0  0  3  0  0  0  0  0  0
  193.9150  175.6860  143.4660 C   0  0  0  0  0  2  0  0  0  0  0  0
  188.8410  174.1320  140.7000 C   0  0  1  0  0  3  0  0  0  0  0  0
  189.0330  174.0980  142.1900 C   0  0  1  0  0  3  0  0  0  0  0  0
  190.4980  176.1680  146.6780 C   0  0  2  0  0  3  0  0  0  0  0  0
  191.5090  175.0760  143.2360 N   0  0  0  0  0  0  0  0  0  0  0  0
  194.7930  175.5510  145.9160 C   0  0  0  0  0  2  0  0  0  0  0  0
  188.4410  176.9260  144.5190 C   0  0  0  0  0  0  0  0  0  0  0  0
  196.0450  176.5320  144.1260 O   0  0  0  0  0  1  0  0  0  0  0  0
  189.9790  174.9320  141.3410 C   0  0  1  0  0  3  0  0  0  0  0  0
  191.2800  174.4480  141.9250 C   0  0  0  0  0  2  0  0  0  0  0  0
  189.0870  177.8490  145.4850 C   0  0  0  0  0  3  0  0  0  0  0  0
  186.6750  177.2020  142.7740 C   0  0  0  0  0  3  0  0  0  0  0  0
  187.0690  177.3220  144.1150 C   0  0  0  0  0  0  0  0  0  0  0  0
  186.1310  177.7630  145.0630 C   0  0  0  0  0  3  0  0  0  0  0  0
  183.6810  178.6660  145.8620 Cl  0  0  0  0  0  0  0  0  0  0  0  0
  184.4570  177.9930  143.3310 C   0  0  0  0  0  3  0  0  0  0  0  0
  184.8340  178.1040  144.6710 C   0  0  0  0  0  0  0  0  0  0  0  0
  185.3770  177.5410  142.3820 C   0  0  0  0  0  3  0  0  0  0  0  0
  189.2440  172.8100  140.0160 C   0  0  2  0  0  3  0  0  0  0  0  0
  188.3410  172.3460  139.0540 O   0  0  0  0  0  1  0  0  0  0  0  0
  191.5580  171.0570  140.0940 O   0  0  0  0  0  0  0  0  0  0  0  0
  190.6740  170.9230  140.9810 C   0  0  0  0  0  0  0  0  0  0  0  0
  189.5220  171.7720  141.0040 N   0  0  0  0  0  2  0  0  0  0  0  0
  191.8120  168.8140  141.5270 C   0  0  0  0  0  1  0  0  0  0  0  0
  190.8150  169.8520  142.0030 C   0  0  0  0  0  2  0  0  0  0  0  0
  1 10  1  6  0  0  0
  1 18  1  0  0  0  0
  2 16  1  0  0  0  0
  3  7  1  0  0  0  0
  4  8  1  0  0  0  0
  5  2  2  0  0  0  0
  6  2  1  0  0  0  0
  6  4  2  0  0  0  0
  7  5  1  0  0  0  0
  7 19  2  0  0  0  0
  8 12  2  0  0  0  0
  9 13  1  6  0  0  0
  9  6  1  0  0  0  0
 13  1  1  0  0  0  0
 14 31  1  6  0  0  0
 14 21  1  0  0  0  0
 14 15  1  0  0  0  0
 15  3  1  1  0  0  0
 16 11  1  6  0  0  0
 16 12  1  0  0  0  0
 17  9  1  0  0  0  0
 17  5  1  0  0  0  0
 18  4  1  0  0  0  0
 19 23  1  0  0  0  0
 20  1  1  0  0  0  0
 21 22  1  6  0  0  0
 21 15  1  0  0  0  0
 22 17  1  0  0  0  0
 23 11  2  0  0  0  0
 24 25  1  0  0  0  0
 25 19  1  0  0  0  0
 25 26  2  0  0  0  0
 28 29  2  0  0  0  0
 29 26  1  0  0  0  0
 29 27  1  0  0  0  0
 30 24  2  0  0  0  0
 30 28  1  0  0  0  0
 31 32  1  6  0  0  0
 31 35  1  0  0  0  0
 33 34  2  0  0  0  0
 34 35  1  0  0  0  0
 34 37  1  0  0  0  0
 36 37  1  0  0  0  0
M  END
>  <MODEL>
5

>  <REMARK>
 VINA RESULT:      -7.4      1.162      1.570
  Name = 
  4 active torsions:
  status: ('A' for Active; 'I' for Inactive)
    1  A    between atoms: C_4  and  C_37
    2  A    between atoms: C_8  and  N_12
    3  A    between atoms: C_8  and  C_18
    4  A    between atoms: C_23  and  C_30
                            x       y       z     vdW  Elec       q    Type
                         _______ _______ _______ _____ _____    ______ ____

>  <TORSDO>
F 4

$$$$
=
 OpenBabel11112417183D

 37 43  0  0  1  0  0  0  0  0999 V2000
  195.5100  175.7300  142.5800 C   0  0  1  0  0  0  0  0  0  0  0  0
  191.9880  175.3970  144.8430 C   0  0  0  0  0  0  0  0  0  0  0  0
  188.6340  174.9440  143.3450 N   0  0  0  0  0  2  0  0  0  0  0  0
  194.3900  175.4650  144.8950 C   0  0  0  0  0  0  0  0  0  0  0  0
  191.0810  175.4050  143.8740 C   0  0  0  0  0  0  0  0  0  0  0  0
  193.2720  175.1400  144.2650 C   0  0  0  0  0  0  0  0  0  0  0  0
  189.6110  175.6840  144.1020 C   0  0  0  0  0  0  0  0  0  0  0  0
  194.3290  175.7740  146.2990 N   0  0  0  0  0  0  0  0  0  0  0  0
  193.1460  174.8970  142.8190 C   0  0  2  0  0  3  0  0  0  0  0  0
  196.0960  174.4890  141.9310 C   0  0  0  0  0  1  0  0  0  0  0  0
  191.2240  177.1760  146.3360 C   0  0  0  0  0  3  0  0  0  0  0  0
  193.1980  175.9030  146.9480 C   0  0  0  0  0  3  0  0  0  0  0  0
  194.0480  175.9010  142.1080 C   0  0  0  0  0  2  0  0  0  0  0  0
  188.4170  174.2460  140.9400 C   0  0  1  0  0  3  0  0  0  0  0  0
  189.0830  174.0840  142.2770 C   0  0  1  0  0  3  0  0  0  0  0  0
  191.8380  175.8210  146.2720 C   0  0  2  0  0  3  0  0  0  0  0  0
  191.7230  175.1390  142.5860 N   0  0  0  0  0  0  0  0  0  0  0  0
  195.6770  175.5990  144.1210 C   0  0  0  0  0  2  0  0  0  0  0  0
  189.1660  176.6270  144.9790 C   0  0  0  0  0  0  0  0  0  0  0  0
  196.2430  176.8350  142.1500 O   0  0  0  0  0  1  0  0  0  0  0  0
  189.6690  175.0640  141.2720 C   0  0  1  0  0  3  0  0  0  0  0  0
  191.1080  174.6230  141.3540 C   0  0  0  0  0  2  0  0  0  0  0  0
  190.0520  177.4990  145.7890 C   0  0  0  0  0  3  0  0  0  0  0  0
  186.9980  176.5740  146.2200 C   0  0  0  0  0  3  0  0  0  0  0  0
  187.7220  176.9570  145.0800 C   0  0  0  0  0  0  0  0  0  0  0  0
  187.0740  177.6990  144.0790 C   0  0  0  0  0  3  0  0  0  0  0  0
  184.9260  178.9410  142.9400 Cl  0  0  0  0  0  0  0  0  0  0  0  0
  185.0070  177.6290  145.3350 C   0  0  0  0  0  3  0  0  0  0  0  0
  185.7210  178.0270  144.2030 C   0  0  0  0  0  0  0  0  0  0  0  0
  185.6450  176.9040  146.3440 C   0  0  0  0  0  3  0  0  0  0  0  0
  188.6290  173.0280  140.0170 C   0  0  2  0  0  3  0  0  0  0  0  0
  189.3020  171.9530  140.6060 O   0  0  0  0  0  1  0  0  0  0  0  0
  187.4490  174.5550  137.8460 O   0  0  0  0  0  0  0  0  0  0  0  0
  188.6390  174.1600  137.7250 C   0  0  0  0  0  0  0  0  0  0  0  0
  189.2780  173.4210  138.7710 N   0  0  0  0  0  2  0  0  0  0  0  0
  190.8580  174.1750  136.6700 C   0  0  0  0  0  1  0  0  0  0  0  0
  189.3810  174.4420  136.4670 C   0  0  0  0  0  2  0  0  0  0  0  0
  1 10  1  6  0  0  0
  1 18  1  0  0  0  0
  2 16  1  0  0  0  0
  3  7  1  0  0  0  0
  4  8  1  0  0  0  0
  5  7  1  0  0  0  0
  5  2  2  0  0  0  0
  6  2  1  0  0  0  0
  6  4  2  0  0  0  0
  7 19  2  0  0  0  0
  8 12  2  0  0  0  0
  9 13  1  6  0  0  0
  9  6  1  0  0  0  0
 13  1  1  0  0  0  0
 14 31  1  6  0  0  0
 14 21  1  0  0  0  0
 14 15  1  0  0  0  0
 15  3  1  1  0  0  0
 16 11  1  6  0  0  0
 16 12  1  0  0  0  0
 17  9  1  0  0  0  0
 17  5  1  0  0  0  0
 18  4  1  0  0  0  0
 19 25  1  0  0  0  0
 19 23  1  0  0  0  0
 20  1  1  0  0  0  0
 21 22  1  6  0  0  0
 21 15  1  0  0  0  0
 22 17  1  0  0  0  0
 23 11  2  0  0  0  0
 24 30  1  0  0  0  0
 25 24  2  0  0  0  0
 26 29  2  0  0  0  0
 26 25  1  0  0  0  0
 27 29  1  0  0  0  0
 28 30  2  0  0  0  0
 29 28  1  0  0  0  0
 31 32  1  1  0  0  0
 34 33  2  0  0  0  0
 34 35  1  0  0  0  0
 35 31  1  0  0  0  0
 37 36  1  0  0  0  0
 37 34  1  0  0  0  0
M  END
>  <MODEL>
6

>  <REMARK>
 VINA RESULT:      -7.4      1.397      2.132
  Name = 
  4 active torsions:
  status: ('A' for Active; 'I' for Inactive)
    1  A    between atoms: C_4  and  C_37
    2  A    between atoms: C_8  and  N_12
    3  A    between atoms: C_8  and  C_18
    4  A    between atoms: C_23  and  C_30
                            x       y       z     vdW  Elec       q    Type
                         _______ _______ _______ _____ _____    ______ ____

>  <TORSDO>
F 4

$$$$
=
 OpenBabel11112417183D

 37 43  0  0  1  0  0  0  0  0999 V2000
  191.4810  176.2440  147.8780 C   0  0  1  0  0  0  0  0  0  0  0  0
  191.7470  175.9600  143.6960 C   0  0  0  0  0  0  0  0  0  0  0  0
  188.7960  175.8430  141.4660 N   0  0  0  0  0  2  0  0  0  0  0  0
  192.9490  176.3020  145.7500 C   0  0  0  0  0  0  0  0  0  0  0  0
  190.4670  175.8020  143.3870 C   0  0  1  0  0  3  0  0  0  0  0  0
  191.8370  176.4350  145.0440 C   0  0  0  0  0  0  0  0  0  0  0  0
  189.9840  175.2750  142.0530 C   0  0  0  0  0  0  0  0  0  0  0  0
  194.1710  175.9800  145.0630 N   0  0  0  0  0  0  0  0  0  0  0  0
  190.4930  176.6600  145.6000 C   0  0  2  0  0  3  0  0  0  0  0  0
  191.0970  177.5690  148.5100 C   0  0  0  0  0  1  0  0  0  0  0  0
  192.8260  174.0690  142.5830 C   0  0  0  0  0  3  0  0  0  0  0  0
  194.2070  175.6570  143.7940 C   0  0  0  0  0  3  0  0  0  0  0  0
  190.3820  175.8280  146.8740 C   0  0  0  0  0  2  0  0  0  0  0  0
  186.5350  176.5060  142.3410 C   0  0  1  0  0  3  0  0  0  0  0  0
  188.0090  176.7710  142.2410 C   0  0  1  0  0  3  0  0  0  0  0  0
  192.9590  175.5100  142.9380 C   0  0  0  0  0  0  0  0  0  0  0  0
  189.6270  176.1800  144.5240 N   0  0  1  0  0  0  0  0  0  0  0  0
  192.8980  176.3940  147.2540 C   0  0  0  0  0  2  0  0  0  0  0  0
  190.6120  174.2670  141.3860 C   0  0  0  0  0  0  0  0  0  0  0  0
  191.5430  175.2820  148.8850 O   0  0  0  0  0  1  0  0  0  0  0  0
  187.4880  175.9120  143.3820 C   0  0  1  0  0  3  0  0  0  0  0  0
  188.2140  176.5900  144.5140 C   0  0  0  0  0  2  0  0  0  0  0  0
  191.8120  173.5540  141.8890 C   0  0  0  0  0  3  0  0  0  0  0  0
  188.7620  173.1020  140.1750 C   0  0  0  0  0  3  0  0  0  0  0  0
  190.0340  173.6950  140.1440 C   0  0  0  0  0  0  0  0  0  0  0  0
  190.7130  173.7860  138.9170 C   0  0  0  0  0  3  0  0  0  0  0  0
  191.0070  173.3790  136.2330 Cl  0  0  0  0  0  0  0  0  0  0  0  0
  188.8820  172.6690  137.7970 C   0  0  0  0  0  3  0  0  0  0  0  0
  190.1430  173.2690  137.7510 C   0  0  0  0  0  0  0  0  0  0  0  0
  188.1910  172.5870  139.0080 C   0  0  0  0  0  3  0  0  0  0  0  0
  185.7340  177.7460  142.7860 C   0  0  2  0  0  3  0  0  0  0  0  0
  186.3560  178.9730  142.5270 O   0  0  0  0  0  1  0  0  0  0  0  0
  183.7800  179.3830  144.1790 O   0  0  0  0  0  0  0  0  0  0  0  0
  184.3940  178.4970  144.8300 C   0  0  0  0  0  0  0  0  0  0  0  0
  185.3530  177.6480  144.1910 N   0  0  0  0  0  2  0  0  0  0  0  0
  185.3890  177.8490  146.9810 C   0  0  0  0  0  1  0  0  0  0  0  0
  184.1390  178.3490  146.2880 C   0  0  0  0  0  2  0  0  0  0  0  0
  1 10  1  1  0  0  0
  1 20  1  0  0  0  0
  2  6  1  0  0  0  0
  3  7  1  0  0  0  0
  4 18  1  0  0  0  0
  5  7  1  1  0  0  0
  5  2  1  0  0  0  0
  5 17  1  0  0  0  0
  6  9  1  0  0  0  0
  6  4  2  0  0  0  0
  8  4  1  0  0  0  0
  9 13  1  1  0  0  0
 11 16  1  0  0  0  0
 12  8  2  0  0  0  0
 13  1  1  0  0  0  0
 14 31  1  1  0  0  0
 14 21  1  0  0  0  0
 15  3  1  6  0  0  0
 15 14  1  0  0  0  0
 15 21  1  0  0  0  0
 16  2  2  0  0  0  0
 16 12  1  0  0  0  0
 17 22  1  6  0  0  0
 17  9  1  0  0  0  0
 18  1  1  0  0  0  0
 19 23  1  0  0  0  0
 19  7  2  0  0  0  0
 21 22  1  1  0  0  0
 23 11  2  0  0  0  0
 25 24  1  0  0  0  0
 25 19  1  0  0  0  0
 26 25  2  0  0  0  0
 27 29  1  0  0  0  0
 28 30  1  0  0  0  0
 29 28  2  0  0  0  0
 29 26  1  0  0  0  0
 30 24  2  0  0  0  0
 31 32  1  1  0  0  0
 31 35  1  0  0  0  0
 33 34  2  0  0  0  0
 34 37  1  0  0  0  0
 35 34  1  0  0  0  0
 37 36  1  0  0  0  0
M  END
>  <MODEL>
7

>  <REMARK>
 VINA RESULT:      -7.1      3.513      6.725
  Name = 
  4 active torsions:
  status: ('A' for Active; 'I' for Inactive)
    1  A    between atoms: C_4  and  C_37
    2  A    between atoms: C_8  and  N_12
    3  A    between atoms: C_8  and  C_18
    4  A    between atoms: C_23  and  C_30
                            x       y       z     vdW  Elec       q    Type
                         _______ _______ _______ _____ _____    ______ ____

>  <TORSDO>
F 4

$$$$
=
 OpenBabel11112417183D

 37 43  0  0  1  0  0  0  0  0999 V2000
  188.4150  177.2520  143.4350 C   0  0  1  0  0  0  0  0  0  0  0  0
  190.4780  174.0220  141.7140 C   0  0  0  0  0  0  0  0  0  0  0  0
  194.1220  174.0390  141.0700 N   0  0  0  0  0  2  0  0  0  0  0  0
  188.3980  174.7900  142.6450 C   0  0  0  0  0  0  0  0  0  0  0  0
  191.6790  174.5630  141.5600 C   0  0  0  0  0  0  0  0  0  0  0  0
  189.7210  174.8390  142.6140 C   0  0  2  0  0  3  0  0  0  0  0  0
  192.7450  173.9950  140.6470 C   0  0  0  0  0  0  0  0  0  0  0  0
  187.7320  173.6820  142.0130 N   0  0  0  0  0  0  0  0  0  0  0  0
  190.5460  175.9470  143.1200 C   0  0  2  0  0  3  0  0  0  0  0  0
  188.5590  177.5170  144.9220 C   0  0  0  0  0  1  0  0  0  0  0  0
  189.9540  173.1830  139.4780 C   0  0  0  0  0  3  0  0  0  0  0  0
  188.3630  172.8040  141.2720 C   0  0  0  0  0  3  0  0  0  0  0  0
  189.8190  177.2460  142.7870 C   0  0  0  0  0  2  0  0  0  0  0  0
  195.5830  175.7650  142.1670 C   0  0  1  0  0  3  0  0  0  0  0  0
  194.4640  174.7690  142.2660 C   0  0  1  0  0  3  0  0  0  0  0  0
  189.8430  172.9090  140.9380 C   0  0  0  0  0  0  0  0  0  0  0  0
  191.7890  175.7770  142.3690 N   0  0  0  0  0  0  0  0  0  0  0  0
  187.6180  175.9290  143.2500 C   0  0  0  0  0  2  0  0  0  0  0  0
  192.4630  173.4630  139.4250 C   0  0  0  0  0  0  0  0  0  0  0  0
  187.6770  178.2930  142.8740 O   0  0  0  0  0  1  0  0  0  0  0  0
  194.1430  176.2080  141.8930 C   0  0  1  0  0  3  0  0  0  0  0  0
  193.0100  176.4350  142.8600 C   0  0  0  0  0  2  0  0  0  0  0  0
  191.1030  173.3970  138.8370 C   0  0  0  0  0  3  0  0  0  0  0  0
  193.9010  171.6770  138.4340 C   0  0  0  0  0  3  0  0  0  0  0  0
  193.5490  173.0330  138.5090 C   0  0  0  0  0  0  0  0  0  0  0  0
  194.1980  173.9530  137.6680 C   0  0  0  0  0  3  0  0  0  0  0  0
  196.0050  174.6880  135.7580 Cl  0  0  0  0  0  0  0  0  0  0  0  0
  195.5490  172.1770  136.7320 C   0  0  0  0  0  3  0  0  0  0  0  0
  195.1980  173.5270  136.7890 C   0  0  0  0  0  0  0  0  0  0  0  0
  194.9000  171.2510  137.5530 C   0  0  0  0  0  3  0  0  0  0  0  0
  196.1610  176.1520  143.5430 C   0  0  2  0  0  3  0  0  0  0  0  0
  197.1300  177.1610  143.5130 O   0  0  0  0  0  1  0  0  0  0  0  0
  195.2540  175.1500  146.1140 O   0  0  0  0  0  0  0  0  0  0  0  0
  196.1880  174.5410  145.5290 C   0  0  0  0  0  0  0  0  0  0  0  0
  196.6620  174.9780  144.2500 N   0  0  0  0  0  2  0  0  0  0  0  0
  196.2940  172.0860  145.5790 C   0  0  0  0  0  1  0  0  0  0  0  0
  196.8260  173.3680  146.1850 C   0  0  0  0  0  2  0  0  0  0  0  0
  1 10  1  1  0  0  0
  4 18  1  0  0  0  0
  5  2  2  0  0  0  0
  5 17  1  0  0  0  0
  6  2  1  6  0  0  0
  6  4  1  0  0  0  0
  6  9  1  0  0  0  0
  7  3  1  0  0  0  0
  7  5  1  0  0  0  0
  8  4  2  0  0  0  0
  9 13  1  6  0  0  0
 11 16  1  0  0  0  0
 12  8  1  0  0  0  0
 13  1  1  0  0  0  0
 14 15  1  0  0  0  0
 14 31  1  1  0  0  0
 15  3  1  6  0  0  0
 16 12  2  0  0  0  0
 16  2  1  0  0  0  0
 17 22  1  0  0  0  0
 17  9  1  0  0  0  0
 18  1  1  0  0  0  0
 19  7  2  0  0  0  0
 20  1  1  0  0  0  0
 21 14  1  0  0  0  0
 21 15  1  0  0  0  0
 21 22  1  1  0  0  0
 23 19  1  0  0  0  0
 23 11  2  0  0  0  0
 24 25  1  0  0  0  0
 25 19  1  0  0  0  0
 26 25  2  0  0  0  0
 27 29  1  0  0  0  0
 28 29  2  0  0  0  0
 28 30  1  0  0  0  0
 29 26  1  0  0  0  0
 30 24  2  0  0  0  0
 31 32  1  6  0  0  0
 31 35  1  0  0  0  0
 34 33  2  0  0  0  0
 34 37  1  0  0  0  0
 35 34  1  0  0  0  0
 36 37  1  0  0  0  0
M  END
>  <MODEL>
8

>  <REMARK>
 VINA RESULT:      -6.9      3.700      8.313
  Name = 
  4 active torsions:
  status: ('A' for Active; 'I' for Inactive)
    1  A    between atoms: C_4  and  C_37
    2  A    between atoms: C_8  and  N_12
    3  A    between atoms: C_8  and  C_18
    4  A    between atoms: C_23  and  C_30
                            x       y       z     vdW  Elec       q    Type
                         _______ _______ _______ _____ _____    ______ ____

>  <TORSDO>
F 4

$$$$
=
 OpenBabel11112417183D

 37 43  0  0  1  0  0  0  0  0999 V2000
  187.4530  176.5510  143.3360 C   0  0  1  0  0  0  0  0  0  0  0  0
  191.5480  175.6290  143.4980 C   0  0  0  0  0  0  0  0  0  0  0  0
  192.8940  172.2180  142.9950 N   0  0  0  0  0  2  0  0  0  0  0  0
  189.9000  177.3780  143.4590 C   0  0  0  0  0  0  0  0  0  0  0  0
  191.4970  174.3060  143.4110 C   0  0  0  0  0  0  0  0  0  0  0  0
  190.2800  176.1620  143.1000 C   0  0  0  0  0  0  0  0  0  0  0  0
  192.6450  173.3950  143.7890 C   0  0  0  0  0  0  0  0  0  0  0  0
  190.8880  178.2910  143.9680 N   0  0  0  0  0  0  0  0  0  0  0  0
  189.3840  175.0820  142.6590 C   0  0  2  0  0  3  0  0  0  0  0  0
  186.7560  176.6000  141.9880 C   0  0  0  0  0  1  0  0  0  0  0  0
  192.8900  176.0030  145.5080 C   0  0  0  0  0  3  0  0  0  0  0  0
  192.1160  177.9260  144.2430 C   0  0  0  0  0  3  0  0  0  0  0  0
  188.1180  175.1650  143.5070 C   0  0  0  0  0  2  0  0  0  0  0  0
  191.4480  170.4360  141.9710 C   0  0  1  0  0  3  0  0  0  0  0  0
  191.9460  171.8530  141.9710 C   0  0  1  0  0  3  0  0  0  0  0  0
  192.6000  176.4880  144.1290 C   0  0  2  0  0  3  0  0  0  0  0  0
  190.1800  173.8860  142.9330 N   0  0  0  0  0  0  0  0  0  0  0  0
  188.4390  177.7510  143.4190 C   0  0  0  0  0  2  0  0  0  0  0  0
  193.4460  173.6240  144.8680 C   0  0  0  0  0  0  0  0  0  0  0  0
  186.4900  176.7010  144.3320 O   0  0  0  0  0  1  0  0  0  0  0  0
  190.6970  171.5080  142.7670 C   0  0  1  0  0  3  0  0  0  0  0  0
  189.8110  172.6220  142.2750 C   0  0  0  0  0  2  0  0  0  0  0  0
  193.2790  174.7640  145.8040 C   0  0  0  0  0  3  0  0  0  0  0  0
  195.8330  173.0090  145.2710 C   0  0  0  0  0  3  0  0  0  0  0  0
  194.4790  172.6400  145.2770 C   0  0  0  0  0  0  0  0  0  0  0  0
  194.1240  171.3580  145.7280 C   0  0  0  0  0  3  0  0  0  0  0  0
  194.6490  168.8550  146.6840 Cl  0  0  0  0  0  0  0  0  0  0  0  0
  196.4520  170.8260  146.1160 C   0  0  0  0  0  3  0  0  0  0  0  0
  195.1070  170.4530  146.1380 C   0  0  0  0  0  0  0  0  0  0  0  0
  196.8160  172.1040  145.6840 C   0  0  0  0  0  3  0  0  0  0  0  0
  190.8160  170.0260  140.6250 C   0  0  2  0  0  3  0  0  0  0  0  0
  190.8960  168.6620  140.3280 O   0  0  0  0  0  1  0  0  0  0  0  0
  189.3050  171.6230  138.7260 O   0  0  0  0  0  0  0  0  0  0  0  0
  190.5580  171.5790  138.6090 C   0  0  0  0  0  0  0  0  0  0  0  0
  191.3560  170.8240  139.5280 N   0  0  0  0  0  2  0  0  0  0  0  0
  190.8210  173.7600  137.5080 C   0  0  0  0  0  1  0  0  0  0  0  0
  191.2170  172.2980  137.4860 C   0  0  0  0  0  2  0  0  0  0  0  0
  1 10  1  6  0  0  0
  1 18  1  0  0  0  0
  1 13  1  0  0  0  0
  1 20  1  0  0  0  0
  2 16  1  0  0  0  0
  3  7  1  0  0  0  0
  4  8  1  0  0  0  0
  5  2  2  0  0  0  0
  5  7  1  0  0  0  0
  6  4  2  0  0  0  0
  6  2  1  0  0  0  0
  7 19  2  0  0  0  0
  8 12  2  0  0  0  0
  9 17  1  0  0  0  0
  9  6  1  0  0  0  0
  9 13  1  1  0  0  0
 11 23  2  0  0  0  0
 14 31  1  6  0  0  0
 14 21  1  0  0  0  0
 15 14  1  0  0  0  0
 15 21  1  0  0  0  0
 15  3  1  1  0  0  0
 16 12  1  1  0  0  0
 16 11  1  0  0  0  0
 17  5  1  0  0  0  0
 18  4  1  0  0  0  0
 19 25  1  0  0  0  0
 19 23  1  0  0  0  0
 21 22  1  6  0  0  0
 22 17  1  0  0  0  0
 24 25  2  0  0  0  0
 24 30  1  0  0  0  0
 25 26  1  0  0  0  0
 26 29  2  0  0  0  0
 28 29  1  0  0  0  0
 29 27  1  0  0  0  0
 30 28  2  0  0  0  0
 31 32  1  6  0  0  0
 34 33  2  0  0  0  0
 34 35  1  0  0  0  0
 35 31  1  0  0  0  0
 37 36  1  0  0  0  0
 37 34  1  0  0  0  0
M  END
>  <MODEL>
9

>  <REMARK>
 VINA RESULT:      -6.9      3.593      6.669
  Name = 
  4 active torsions:
  status: ('A' for Active; 'I' for Inactive)
    1  A    between atoms: C_4  and  C_37
    2  A    between atoms: C_8  and  N_12
    3  A    between atoms: C_8  and  C_18
    4  A    between atoms: C_23  and  C_30
                            x       y       z     vdW  Elec       q    Type
                         _______ _______ _______ _____ _____    ______ ____

>  <TORSDO>
F 4

$$$$
