=
 OpenBabel11112417363D

 28 32  0  0  1  0  0  0  0  0999 V2000
  191.8260  176.3800  145.0050 C   0  0  0  0  0  0  0  0  0  0  0  0
  189.7930  174.2210  141.1840 C   0  0  0  0  0  1  0  0  0  0  0  0
  185.6650  177.4020  146.2950 O   0  0  0  0  0  0  0  0  0  0  0  0
  193.1420  176.2280  142.5340 C   0  0  0  0  0  3  0  0  0  0  0  0
  186.7910  178.3250  144.4470 N   0  0  0  0  0  0  0  0  0  0  0  0
  191.2260  176.5380  146.3610 C   0  0  0  0  0  2  0  0  0  0  0  0
  187.6200  174.0700  142.3280 C   0  0  0  0  0  1  0  0  0  0  0  0
  188.5540  175.0040  141.5710 C   0  0  0  0  0  0  0  0  0  0  0  0
  187.2830  176.7170  140.2620 C   0  0  0  0  0  0  0  0  0  0  0  0
  188.9270  176.2300  142.4250 C   0  0  1  0  0  3  0  0  0  0  0  0
  188.7630  174.1940  147.6690 O   0  0  0  0  0  0  0  0  0  0  0  0
  188.8430  177.1530  144.6650 C   0  0  1  0  0  3  0  0  0  0  0  0
  187.2870  177.5880  141.3580 O   0  0  0  0  0  0  0  0  0  0  0  0
  187.9030  175.4540  140.3670 O   0  0  0  0  0  0  0  0  0  0  0  0
  189.2510  175.2630  147.2190 C   0  0  0  0  0  0  0  0  0  0  0  0
  191.0560  176.2300  143.8180 C   0  0  0  0  0  0  0  0  0  0  0  0
  186.6770  177.4450  145.5460 C   0  0  0  0  0  0  0  0  0  0  0  0
  186.7640  177.0760  139.1730 O   0  0  0  0  0  0  0  0  0  0  0  0
  188.3760  176.4660  147.0690 C   0  0  0  0  0  2  0  0  0  0  0  0
  191.7510  176.1510  142.5940 C   0  0  0  0  0  3  0  0  0  0  0  0
  193.2220  176.4570  144.9320 C   0  0  0  0  0  3  0  0  0  0  0  0
  193.8780  176.3800  143.7060 C   0  0  0  0  0  3  0  0  0  0  0  0
  190.6150  175.2970  146.8040 N   0  0  0  0  0  2  0  0  0  0  0  0
  188.0020  178.0250  143.7050 C   0  0  1  0  0  3  0  0  0  0  0  0
  187.8330  176.5260  145.6500 C   0  0  2  0  0  3  0  0  0  0  0  0
  187.6840  177.0460  142.6050 C   0  0  2  0  0  3  0  0  0  0  0  0
  185.7250  179.1880  143.9620 C   0  0  0  0  0  1  0  0  0  0  0  0
  189.5330  176.0590  143.8260 C   0  0  2  0  0  3  0  0  0  0  0  0
  1  6  1  0  0  0  0
  2  8  1  0  0  0  0
  4 20  2  0  0  0  0
  4 22  1  0  0  0  0
  5 17  1  0  0  0  0
  6 23  1  0  0  0  0
  8  7  1  0  0  0  0
  9 14  1  0  0  0  0
  9 13  1  0  0  0  0
 10  8  1  1  0  0  0
 10 26  1  0  0  0  0
 10 28  1  0  0  0  0
 12 25  1  0  0  0  0
 13 26  1  0  0  0  0
 14  8  1  0  0  0  0
 15 11  2  0  0  0  0
 16 28  1  0  0  0  0
 16  1  2  0  0  0  0
 17 25  1  0  0  0  0
 17  3  2  0  0  0  0
 18  9  2  0  0  0  0
 19 15  1  0  0  0  0
 20 16  1  0  0  0  0
 21  1  1  0  0  0  0
 22 21  2  0  0  0  0
 23 15  1  0  0  0  0
 24  5  1  0  0  0  0
 24 12  1  0  0  0  0
 25 19  1  0  0  0  0
 26 24  1  0  0  0  0
 27  5  1  0  0  0  0
 28 12  1  0  0  0  0
M  END
>  <MODEL>
1

>  <REMARK>
 VINA RESULT:      -8.5      0.000      0.000
  Name = 
  0 active torsions:
  status: ('A' for Active; 'I' for Inactive)
                            x       y       z     vdW  Elec       q    Type
                         _______ _______ _______ _____ _____    ______ ____

>  <TORSDO>
F 0

$$$$
=
 OpenBabel11112417363D

 28 32  0  0  1  0  0  0  0  0999 V2000
  188.5370  173.7490  142.4950 C   0  0  0  0  0  0  0  0  0  0  0  0
  192.5050  175.7050  144.4500 C   0  0  0  0  0  1  0  0  0  0  0  0
  186.1080  179.2120  144.7150 O   0  0  0  0  0  0  0  0  0  0  0  0
  190.6050  172.1570  143.5170 C   0  0  0  0  0  3  0  0  0  0  0  0
  186.9740  177.5060  146.0840 N   0  0  0  0  0  0  0  0  0  0  0  0
  187.3670  174.4850  141.9330 C   0  0  0  0  0  2  0  0  0  0  0  0
  191.4930  177.9480  144.4510 C   0  0  0  0  0  1  0  0  0  0  0  0
  191.5340  176.6120  145.1800 C   0  0  0  0  0  0  0  0  0  0  0  0
  191.1640  176.8930  147.6390 C   0  0  0  0  0  0  0  0  0  0  0  0
  190.1350  175.9720  145.2490 C   0  0  1  0  0  3  0  0  0  0  0  0
  187.6790  177.8360  140.5410 O   0  0  0  0  0  0  0  0  0  0  0  0
  187.8740  176.1140  144.3860 C   0  0  1  0  0  3  0  0  0  0  0  0
  189.7800  176.7660  147.4660 O   0  0  0  0  0  0  0  0  0  0  0  0
  192.0200  176.8170  146.5200 O   0  0  0  0  0  0  0  0  0  0  0  0
  187.3470  176.9130  141.3290 C   0  0  0  0  0  0  0  0  0  0  0  0
  189.4010  174.2890  143.4880 C   0  0  0  0  0  0  0  0  0  0  0  0
  186.7550  178.1380  144.8400 C   0  0  0  0  0  0  0  0  0  0  0  0
  191.6450  177.0330  148.7940 O   0  0  0  0  0  0  0  0  0  0  0  0
  186.5300  177.2340  142.5390 C   0  0  0  0  0  2  0  0  0  0  0  0
  190.4330  173.4630  143.9750 C   0  0  0  0  0  3  0  0  0  0  0  0
  188.7200  172.4370  142.0430 C   0  0  0  0  0  3  0  0  0  0  0  0
  189.7480  171.6440  142.5480 C   0  0  0  0  0  3  0  0  0  0  0  0
  187.8030  175.5820  141.0880 N   0  0  0  0  0  2  0  0  0  0  0  0
  187.8740  176.3810  145.9080 C   0  0  1  0  0  3  0  0  0  0  0  0
  187.4500  177.4470  143.7310 C   0  0  2  0  0  3  0  0  0  0  0  0
  189.2920  176.8340  146.1380 C   0  0  2  0  0  3  0  0  0  0  0  0
  186.6060  178.0670  147.3750 C   0  0  0  0  0  1  0  0  0  0  0  0
  189.3120  175.7400  143.9730 C   0  0  2  0  0  3  0  0  0  0  0  0
  1 16  1  0  0  0  0
  2  8  1  0  0  0  0
  3 17  2  0  0  0  0
  4 20  1  0  0  0  0
  5 27  1  0  0  0  0
  6  1  1  0  0  0  0
  7  8  1  0  0  0  0
  8 14  1  0  0  0  0
  9 18  2  0  0  0  0
 10  8  1  6  0  0  0
 10 26  1  0  0  0  0
 11 15  2  0  0  0  0
 12 24  1  0  0  0  0
 13  9  1  0  0  0  0
 14  9  1  0  0  0  0
 15 19  1  0  0  0  0
 16 28  1  0  0  0  0
 16 20  2  0  0  0  0
 17  5  1  0  0  0  0
 19 25  1  0  0  0  0
 21  1  2  0  0  0  0
 21 22  1  0  0  0  0
 22  4  2  0  0  0  0
 23 15  1  0  0  0  0
 23  6  1  0  0  0  0
 24  5  1  0  0  0  0
 24 26  1  0  0  0  0
 25 12  1  0  0  0  0
 25 17  1  0  0  0  0
 26 13  1  0  0  0  0
 28 12  1  0  0  0  0
 28 10  1  0  0  0  0
M  END
>  <MODEL>
2

>  <REMARK>
 VINA RESULT:      -8.1      2.150      5.313
  Name = 
  0 active torsions:
  status: ('A' for Active; 'I' for Inactive)
                            x       y       z     vdW  Elec       q    Type
                         _______ _______ _______ _____ _____    ______ ____

>  <TORSDO>
F 0

$$$$
=
 OpenBabel11112417363D

 28 32  0  0  1  0  0  0  0  0999 V2000
  191.0100  176.8420  144.4050 C   0  0  0  0  0  0  0  0  0  0  0  0
  190.1610  172.7300  142.0050 C   0  0  0  0  0  1  0  0  0  0  0  0
  184.8130  177.5780  143.0930 O   0  0  0  0  0  0  0  0  0  0  0  0
  193.0200  175.5660  142.9250 C   0  0  0  0  0  3  0  0  0  0  0  0
  186.5040  177.5080  141.4580 N   0  0  0  0  0  0  0  0  0  0  0  0
  190.0270  177.6200  145.2120 C   0  0  0  0  0  2  0  0  0  0  0  0
  187.7350  172.9310  142.3630 C   0  0  0  0  0  1  0  0  0  0  0  0
  188.9040  173.4280  141.5240 C   0  0  0  0  0  0  0  0  0  0  0  0
  188.1910  173.9920  139.1920 C   0  0  0  0  0  0  0  0  0  0  0  0
  189.0540  174.9570  141.6300 C   0  0  1  0  0  3  0  0  0  0  0  0
  187.1640  176.0410  146.8190 O   0  0  0  0  0  0  0  0  0  0  0  0
  188.3240  176.9150  142.8590 C   0  0  1  0  0  3  0  0  0  0  0  0
  187.8980  175.3060  139.5770 O   0  0  0  0  0  0  0  0  0  0  0  0
  188.6840  173.0750  140.1460 O   0  0  0  0  0  0  0  0  0  0  0  0
  187.8210  176.7570  146.0190 C   0  0  0  0  0  0  0  0  0  0  0  0
  190.6410  175.9810  143.3350 C   0  0  0  0  0  0  0  0  0  0  0  0
  186.0090  177.3460  142.7710 C   0  0  0  0  0  0  0  0  0  0  0  0
  188.0550  173.6410  137.9910 O   0  0  0  0  0  0  0  0  0  0  0  0
  187.0980  177.5660  144.9900 C   0  0  0  0  0  2  0  0  0  0  0  0
  191.6770  175.3510  142.6160 C   0  0  0  0  0  3  0  0  0  0  0  0
  192.3620  177.0500  144.7060 C   0  0  0  0  0  3  0  0  0  0  0  0
  193.3620  176.4160  143.9730 C   0  0  0  0  0  3  0  0  0  0  0  0
  189.2470  176.7420  146.0660 N   0  0  0  0  0  2  0  0  0  0  0  0
  187.8680  177.0190  141.3860 C   0  0  1  0  0  3  0  0  0  0  0  0
  187.0270  176.7870  143.6880 C   0  0  2  0  0  3  0  0  0  0  0  0
  187.8590  175.5720  140.9680 C   0  0  2  0  0  3  0  0  0  0  0  0
  185.6870  177.8290  140.2980 C   0  0  0  0  0  1  0  0  0  0  0  0
  189.1850  175.6430  142.9980 C   0  0  2  0  0  3  0  0  0  0  0  0
  1 21  1  0  0  0  0
  1  6  1  0  0  0  0
  4 22  1  0  0  0  0
  5 17  1  0  0  0  0
  6 23  1  0  0  0  0
  8  2  1  0  0  0  0
  8  7  1  0  0  0  0
  9 13  1  0  0  0  0
  9 14  1  0  0  0  0
 10  8  1  1  0  0  0
 10 28  1  0  0  0  0
 12 28  1  0  0  0  0
 12 25  1  0  0  0  0
 13 26  1  0  0  0  0
 14  8  1  0  0  0  0
 15 23  1  0  0  0  0
 15 11  2  0  0  0  0
 16  1  2  0  0  0  0
 17  3  2  0  0  0  0
 17 25  1  0  0  0  0
 18  9  2  0  0  0  0
 19 15  1  0  0  0  0
 20  4  2  0  0  0  0
 20 16  1  0  0  0  0
 22 21  2  0  0  0  0
 24  5  1  0  0  0  0
 24 12  1  0  0  0  0
 25 19  1  0  0  0  0
 26 24  1  0  0  0  0
 26 10  1  0  0  0  0
 27  5  1  0  0  0  0
 28 16  1  0  0  0  0
M  END
>  <MODEL>
3

>  <REMARK>
 VINA RESULT:      -8.1      1.635      2.280
  Name = 
  0 active torsions:
  status: ('A' for Active; 'I' for Inactive)
                            x       y       z     vdW  Elec       q    Type
                         _______ _______ _______ _____ _____    ______ ____

>  <TORSDO>
F 0

$$$$
=
 OpenBabel11112417363D

 28 32  0  0  1  0  0  0  0  0999 V2000
  187.3540  177.1380  142.3000 C   0  0  0  0  0  0  0  0  0  0  0  0
  187.8050  176.0510  146.9920 C   0  0  0  0  0  1  0  0  0  0  0  0
  192.7510  173.7430  142.1450 O   0  0  0  0  0  0  0  0  0  0  0  0
  186.3540  178.8280  144.3000 C   0  0  0  0  0  3  0  0  0  0  0  0
  192.5330  175.8150  143.2380 N   0  0  0  0  0  0  0  0  0  0  0  0
  187.8540  176.3310  141.1490 C   0  0  0  0  0  2  0  0  0  0  0  0
  189.3570  174.2080  146.4960 C   0  0  0  0  0  1  0  0  0  0  0  0
  189.2410  175.7190  146.6390 C   0  0  0  0  0  0  0  0  0  0  0  0
  191.3640  176.7300  147.4980 C   0  0  0  0  0  0  0  0  0  0  0  0
  189.6640  176.4350  145.3430 C   0  0  1  0  0  3  0  0  0  0  0  0
  188.2670  172.7180  141.3540 O   0  0  0  0  0  0  0  0  0  0  0  0
  190.1880  176.0930  143.0000 C   0  0  1  0  0  3  0  0  0  0  0  0
  191.8440  176.8810  146.1910 O   0  0  0  0  0  0  0  0  0  0  0  0
  190.0900  176.1620  147.7150 O   0  0  0  0  0  0  0  0  0  0  0  0
  188.5700  173.9370  141.2700 C   0  0  0  0  0  0  0  0  0  0  0  0
  187.9250  177.0840  143.6030 C   0  0  0  0  0  0  0  0  0  0  0  0
  192.0220  174.6730  142.5820 C   0  0  0  0  0  0  0  0  0  0  0  0
  192.0480  177.1370  148.4720 O   0  0  0  0  0  0  0  0  0  0  0  0
  190.0080  174.3340  141.1710 C   0  0  0  0  0  2  0  0  0  0  0  0
  187.3930  177.9430  144.5850 C   0  0  0  0  0  3  0  0  0  0  0  0
  186.3120  178.0300  142.0270 C   0  0  0  0  0  3  0  0  0  0  0  0
  185.8110  178.8700  143.0190 C   0  0  0  0  0  3  0  0  0  0  0  0
  187.5420  174.9250  141.3280 N   0  0  0  0  0  2  0  0  0  0  0  0
  191.4350  176.6170  143.7470 C   0  0  1  0  0  3  0  0  0  0  0  0
  190.5420  174.6560  142.5580 C   0  0  2  0  0  3  0  0  0  0  0  0
  191.1340  176.2090  145.1650 C   0  0  2  0  0  3  0  0  0  0  0  0
  193.9260  176.0040  143.6080 C   0  0  0  0  0  1  0  0  0  0  0  0
  189.0120  176.0790  143.9980 C   0  0  2  0  0  3  0  0  0  0  0  0
  1 16  1  0  0  0  0
  3 17  2  0  0  0  0
  4 20  1  0  0  0  0
  5 27  1  0  0  0  0
  5 24  1  0  0  0  0
  6 23  1  0  0  0  0
  6  1  1  0  0  0  0
  7  8  1  0  0  0  0
  8  2  1  0  0  0  0
  8 14  1  0  0  0  0
  9 14  1  0  0  0  0
  9 18  2  0  0  0  0
 10  8  1  1  0  0  0
 12 24  1  0  0  0  0
 12 28  1  0  0  0  0
 13  9  1  0  0  0  0
 15 23  1  0  0  0  0
 15 11  2  0  0  0  0
 16 28  1  0  0  0  0
 16 20  2  0  0  0  0
 17  5  1  0  0  0  0
 19 15  1  0  0  0  0
 19 25  1  0  0  0  0
 21  1  2  0  0  0  0
 21 22  1  0  0  0  0
 22  4  2  0  0  0  0
 24 26  1  0  0  0  0
 25 17  1  0  0  0  0
 25 12  1  0  0  0  0
 26 10  1  0  0  0  0
 26 13  1  0  0  0  0
 28 10  1  0  0  0  0
M  END
>  <MODEL>
4

>  <REMARK>
 VINA RESULT:      -8.1      2.313      6.378
  Name = 
  0 active torsions:
  status: ('A' for Active; 'I' for Inactive)
                            x       y       z     vdW  Elec       q    Type
                         _______ _______ _______ _____ _____    ______ ____

>  <TORSDO>
F 0

$$$$
=
 OpenBabel11112417363D

 28 32  0  0  1  0  0  0  0  0999 V2000
  192.1250  176.1860  144.7360 C   0  0  0  0  0  0  0  0  0  0  0  0
  190.7930  172.7560  141.5960 C   0  0  0  0  0  1  0  0  0  0  0  0
  185.7840  176.7940  145.0440 O   0  0  0  0  0  0  0  0  0  0  0  0
  193.7560  175.4640  142.5740 C   0  0  0  0  0  3  0  0  0  0  0  0
  187.0560  177.2530  143.1180 N   0  0  0  0  0  0  0  0  0  0  0  0
  191.3430  176.6670  145.9110 C   0  0  0  0  0  2  0  0  0  0  0  0
  188.5110  172.6920  142.5150 C   0  0  0  0  0  1  0  0  0  0  0  0
  189.4520  173.4630  141.5990 C   0  0  0  0  0  0  0  0  0  0  0  0
  188.2190  174.5410  139.7070 C   0  0  0  0  0  0  0  0  0  0  0  0
  189.6060  174.9240  142.0630 C   0  0  1  0  0  3  0  0  0  0  0  0
  188.9420  174.5410  147.6380 O   0  0  0  0  0  0  0  0  0  0  0  0
  189.1560  176.4560  143.8860 C   0  0  1  0  0  3  0  0  0  0  0  0
  188.0070  175.6930  140.4740 O   0  0  0  0  0  0  0  0  0  0  0  0
  188.9260  173.4510  140.2590 O   0  0  0  0  0  0  0  0  0  0  0  0
  189.3900  175.4780  146.9280 C   0  0  0  0  0  0  0  0  0  0  0  0
  191.5300  175.5960  143.5860 C   0  0  0  0  0  0  0  0  0  0  0  0
  186.8770  176.7340  144.4200 C   0  0  0  0  0  0  0  0  0  0  0  0
  187.8160  174.4940  138.5160 O   0  0  0  0  0  0  0  0  0  0  0  0
  188.4420  176.4670  146.3280 C   0  0  0  0  0  2  0  0  0  0  0  0
  192.3810  175.2400  142.5200 C   0  0  0  0  0  3  0  0  0  0  0  0
  193.5070  176.4050  144.7770 C   0  0  0  0  0  3  0  0  0  0  0  0
  194.3200  176.0460  143.7050 C   0  0  0  0  0  3  0  0  0  0  0  0
  190.7890  175.5510  146.6570 N   0  0  0  0  0  2  0  0  0  0  0  0
  188.3740  176.8930  142.6270 C   0  0  1  0  0  3  0  0  0  0  0  0
  188.0840  176.0350  144.9150 C   0  0  2  0  0  3  0  0  0  0  0  0
  188.2850  175.6000  141.8600 C   0  0  2  0  0  3  0  0  0  0  0  0
  185.9920  177.7960  142.2890 C   0  0  0  0  0  1  0  0  0  0  0  0
  190.0390  175.2530  143.4990 C   0  0  2  0  0  3  0  0  0  0  0  0
  1 21  1  0  0  0  0
  1  6  1  0  0  0  0
  2  8  1  0  0  0  0
  4 22  1  0  0  0  0
  5 17  1  0  0  0  0
  6 23  1  0  0  0  0
  8  7  1  0  0  0  0
  9 14  1  0  0  0  0
  9 13  1  0  0  0  0
 10  8  1  1  0  0  0
 10 28  1  0  0  0  0
 12 25  1  0  0  0  0
 13 26  1  0  0  0  0
 14  8  1  0  0  0  0
 15 11  2  0  0  0  0
 16  1  2  0  0  0  0
 17 25  1  0  0  0  0
 17  3  2  0  0  0  0
 18  9  2  0  0  0  0
 19 15  1  0  0  0  0
 20  4  2  0  0  0  0
 20 16  1  0  0  0  0
 22 21  2  0  0  0  0
 23 15  1  0  0  0  0
 24  5  1  0  0  0  0
 24 12  1  0  0  0  0
 25 19  1  0  0  0  0
 26 10  1  0  0  0  0
 26 24  1  0  0  0  0
 27  5  1  0  0  0  0
 28 16  1  0  0  0  0
 28 12  1  0  0  0  0
M  END
>  <MODEL>
5

>  <REMARK>
 VINA RESULT:      -7.9      1.217      1.470
  Name = 
  0 active torsions:
  status: ('A' for Active; 'I' for Inactive)
                            x       y       z     vdW  Elec       q    Type
                         _______ _______ _______ _____ _____    ______ ____

>  <TORSDO>
F 0

$$$$
=
 OpenBabel11112417363D

 28 32  0  0  1  0  0  0  0  0999 V2000
  187.6180  176.2110  146.5850 C   0  0  0  0  0  0  0  0  0  0  0  0
  187.0590  179.1220  142.7630 C   0  0  0  0  0  1  0  0  0  0  0  0
  191.9740  173.7260  142.6440 O   0  0  0  0  0  0  0  0  0  0  0  0
  185.1540  177.4160  146.0070 C   0  0  0  0  0  3  0  0  0  0  0  0
  189.6570  173.6940  142.2320 N   0  0  0  0  0  0  0  0  0  0  0  0
  188.8680  175.5040  146.9880 C   0  0  0  0  0  2  0  0  0  0  0  0
  189.2580  178.4880  141.8600 C   0  0  0  0  0  1  0  0  0  0  0  0
  187.8080  178.0460  142.0030 C   0  0  0  0  0  0  0  0  0  0  0  0
  187.0660  176.6710  140.0480 C   0  0  0  0  0  0  0  0  0  0  0  0
  187.7090  176.6930  142.7320 C   0  0  1  0  0  3  0  0  0  0  0  0
  192.1730  176.7910  146.1580 O   0  0  0  0  0  0  0  0  0  0  0  0
  188.9600  175.0740  144.0320 C   0  0  1  0  0  3  0  0  0  0  0  0
  187.4960  175.4990  140.6820 O   0  0  0  0  0  0  0  0  0  0  0  0
  187.2200  177.9160  140.6950 O   0  0  0  0  0  0  0  0  0  0  0  0
  191.1630  176.0400  146.1480 C   0  0  0  0  0  0  0  0  0  0  0  0
  187.3380  176.6100  145.2480 C   0  0  0  0  0  0  0  0  0  0  0  0
  190.8100  174.1190  142.9280 C   0  0  0  0  0  0  0  0  0  0  0  0
  186.5090  176.6100  138.9220 O   0  0  0  0  0  0  0  0  0  0  0  0
  191.1600  174.8200  145.2830 C   0  0  0  0  0  2  0  0  0  0  0  0
  186.0920  177.2180  144.9950 C   0  0  0  0  0  3  0  0  0  0  0  0
  186.6680  176.4160  147.5920 C   0  0  0  0  0  3  0  0  0  0  0  0
  185.4440  177.0160  147.3090 C   0  0  0  0  0  3  0  0  0  0  0  0
  190.0130  176.3930  146.9160 N   0  0  0  0  0  2  0  0  0  0  0  0
  188.5020  174.4380  142.7000 C   0  0  1  0  0  3  0  0  0  0  0  0
  190.5010  175.1420  143.9520 C   0  0  2  0  0  3  0  0  0  0  0  0
  188.3070  175.6540  141.8340 C   0  0  2  0  0  3  0  0  0  0  0  0
  189.6690  172.8670  141.0360 C   0  0  0  0  0  1  0  0  0  0  0  0
  188.3580  176.4910  144.1100 C   0  0  2  0  0  3  0  0  0  0  0  0
  1  6  1  0  0  0  0
  1 21  1  0  0  0  0
  3 17  2  0  0  0  0
  4 22  1  0  0  0  0
  5 24  1  0  0  0  0
  5 17  1  0  0  0  0
  7  8  1  0  0  0  0
  8  2  1  0  0  0  0
  9 13  1  0  0  0  0
  9 14  1  0  0  0  0
 10  8  1  6  0  0  0
 10 28  1  0  0  0  0
 12 28  1  0  0  0  0
 13 26  1  0  0  0  0
 14  8  1  0  0  0  0
 15 11  2  0  0  0  0
 15 23  1  0  0  0  0
 16  1  2  0  0  0  0
 17 25  1  0  0  0  0
 18  9  2  0  0  0  0
 19 15  1  0  0  0  0
 20 16  1  0  0  0  0
 20  4  2  0  0  0  0
 22 21  2  0  0  0  0
 23  6  1  0  0  0  0
 24 12  1  0  0  0  0
 25 12  1  0  0  0  0
 25 19  1  0  0  0  0
 26 24  1  0  0  0  0
 26 10  1  0  0  0  0
 27  5  1  0  0  0  0
 28 16  1  0  0  0  0
M  END
>  <MODEL>
6

>  <REMARK>
 VINA RESULT:      -7.7      2.148      4.822
  Name = 
  0 active torsions:
  status: ('A' for Active; 'I' for Inactive)
                            x       y       z     vdW  Elec       q    Type
                         _______ _______ _______ _____ _____    ______ ____

>  <TORSDO>
F 0

$$$$
=
 OpenBabel11112417363D

 28 32  0  0  1  0  0  0  0  0999 V2000
  187.9940  175.9730  143.1980 C   0  0  0  0  0  0  0  0  0  0  0  0
  190.6200  175.5170  147.2340 C   0  0  0  0  0  1  0  0  0  0  0  0
  193.4300  173.7180  140.7410 O   0  0  0  0  0  0  0  0  0  0  0  0
  187.5800  177.6400  145.4140 C   0  0  0  0  0  3  0  0  0  0  0  0
  193.2330  175.8130  141.7950 N   0  0  0  0  0  0  0  0  0  0  0  0
  188.1270  175.1610  141.9550 C   0  0  0  0  0  2  0  0  0  0  0  0
  192.1890  173.9740  146.1320 C   0  0  0  0  0  1  0  0  0  0  0  0
  191.8060  175.4390  146.2930 C   0  0  0  0  0  0  0  0  0  0  0  0
  193.8040  176.9380  146.1260 C   0  0  0  0  0  0  0  0  0  0  0  0
  191.4670  176.0780  144.9340 C   0  0  1  0  0  3  0  0  0  0  0  0
  189.3930  171.7460  142.0010 O   0  0  0  0  0  0  0  0  0  0  0  0
  191.0130  175.5930  142.6020 C   0  0  1  0  0  3  0  0  0  0  0  0
  193.6380  177.0380  144.7390 O   0  0  0  0  0  0  0  0  0  0  0  0
  192.9070  176.1560  146.8840 O   0  0  0  0  0  0  0  0  0  0  0  0
  189.3470  172.9830  141.7790 C   0  0  0  0  0  0  0  0  0  0  0  0
  189.0580  176.1750  144.1210 C   0  0  0  0  0  0  0  0  0  0  0  0
  192.7650  174.5280  141.4420 C   0  0  0  0  0  0  0  0  0  0  0  0
  194.7250  177.5760  146.6980 O   0  0  0  0  0  0  0  0  0  0  0  0
  190.4780  173.6450  141.0570 C   0  0  0  0  0  2  0  0  0  0  0  0
  188.8130  177.0150  145.2270 C   0  0  0  0  0  3  0  0  0  0  0  0
  186.7620  176.6060  143.3970 C   0  0  0  0  0  3  0  0  0  0  0  0
  186.5530  177.4330  144.4980 C   0  0  0  0  0  3  0  0  0  0  0  0
  188.2470  173.7480  142.2680 N   0  0  0  0  0  2  0  0  0  0  0  0
  192.3040  176.4330  142.7230 C   0  0  1  0  0  3  0  0  0  0  0  0
  191.4600  174.2160  142.0660 C   0  0  2  0  0  3  0  0  0  0  0  0
  192.7330  176.1310  144.1350 C   0  0  2  0  0  3  0  0  0  0  0  0
  194.5700  176.3140  141.5160 C   0  0  0  0  0  1  0  0  0  0  0  0
  190.4070  175.4550  144.0140 C   0  0  2  0  0  3  0  0  0  0  0  0
  1 21  2  0  0  0  0
  1 16  1  0  0  0  0
  3 17  2  0  0  0  0
  5 24  1  0  0  0  0
  6 23  1  0  0  0  0
  6  1  1  0  0  0  0
  7  8  1  0  0  0  0
  8 14  1  0  0  0  0
  8  2  1  0  0  0  0
  9 18  2  0  0  0  0
  9 14  1  0  0  0  0
 10  8  1  1  0  0  0
 12 24  1  0  0  0  0
 12 28  1  0  0  0  0
 13  9  1  0  0  0  0
 15 11  2  0  0  0  0
 15 23  1  0  0  0  0
 16 20  2  0  0  0  0
 17  5  1  0  0  0  0
 17 25  1  0  0  0  0
 19 15  1  0  0  0  0
 19 25  1  0  0  0  0
 20  4  1  0  0  0  0
 21 22  1  0  0  0  0
 22  4  2  0  0  0  0
 24 26  1  0  0  0  0
 25 12  1  0  0  0  0
 26 13  1  0  0  0  0
 26 10  1  0  0  0  0
 27  5  1  0  0  0  0
 28 16  1  0  0  0  0
 28 10  1  0  0  0  0
M  END
>  <MODEL>
7

>  <REMARK>
 VINA RESULT:      -7.5      3.092      6.566
  Name = 
  0 active torsions:
  status: ('A' for Active; 'I' for Inactive)
                            x       y       z     vdW  Elec       q    Type
                         _______ _______ _______ _____ _____    ______ ____

>  <TORSDO>
F 0

$$$$
=
 OpenBabel11112417363D

 28 32  0  0  1  0  0  0  0  0999 V2000
  192.6340  175.6400  146.0330 C   0  0  0  0  0  0  0  0  0  0  0  0
  192.1550  171.7710  143.1710 C   0  0  0  0  0  1  0  0  0  0  0  0
  186.6030  176.4160  144.1090 O   0  0  0  0  0  0  0  0  0  0  0  0
  194.8250  174.5420  144.6730 C   0  0  0  0  0  3  0  0  0  0  0  0
  188.4650  176.5290  142.6750 N   0  0  0  0  0  0  0  0  0  0  0  0
  191.5480  176.3220  146.7950 C   0  0  0  0  0  2  0  0  0  0  0  0
  189.7000  171.9020  143.2720 C   0  0  0  0  0  1  0  0  0  0  0  0
  190.9430  172.4950  142.6210 C   0  0  0  0  0  0  0  0  0  0  0  0
  190.4790  173.2740  140.2880 C   0  0  0  0  0  0  0  0  0  0  0  0
  191.0430  174.0080  142.8880 C   0  0  1  0  0  3  0  0  0  0  0  0
  188.5650  174.5540  147.9120 O   0  0  0  0  0  0  0  0  0  0  0  0
  190.1340  175.8270  144.2090 C   0  0  1  0  0  3  0  0  0  0  0  0
  190.1120  174.5390  140.7610 O   0  0  0  0  0  0  0  0  0  0  0  0
  190.8850  172.2750  141.1990 O   0  0  0  0  0  0  0  0  0  0  0  0
  189.2890  175.3540  147.2630 C   0  0  0  0  0  0  0  0  0  0  0  0
  192.4060  174.8820  144.8500 C   0  0  0  0  0  0  0  0  0  0  0  0
  187.8330  176.2330  143.9030 C   0  0  0  0  0  0  0  0  0  0  0  0
  190.4850  173.0400  139.0520 O   0  0  0  0  0  0  0  0  0  0  0  0
  188.6640  176.2500  146.2410 C   0  0  0  0  0  2  0  0  0  0  0  0
  193.5300  174.3400  144.1950 C   0  0  0  0  0  3  0  0  0  0  0  0
  193.9380  175.8360  146.5020 C   0  0  0  0  0  3  0  0  0  0  0  0
  195.0280  175.2900  145.8290 C   0  0  0  0  0  3  0  0  0  0  0  0
  190.7010  175.3540  147.4680 N   0  0  0  0  0  2  0  0  0  0  0  0
  189.8410  176.0670  142.7110 C   0  0  1  0  0  3  0  0  0  0  0  0
  188.7570  175.6000  144.8700 C   0  0  2  0  0  3  0  0  0  0  0  0
  189.9140  174.6680  142.1580 C   0  0  2  0  0  3  0  0  0  0  0  0
  187.7740  176.9500  141.4670 C   0  0  0  0  0  1  0  0  0  0  0  0
  191.0050  174.5590  144.3210 C   0  0  2  0  0  3  0  0  0  0  0  0
  1 21  1  0  0  0  0
  1  6  1  0  0  0  0
  4 22  1  0  0  0  0
  5 24  1  0  0  0  0
  5 17  1  0  0  0  0
  6 23  1  0  0  0  0
  8  2  1  0  0  0  0
  8  7  1  0  0  0  0
  9 13  1  0  0  0  0
  9 14  1  0  0  0  0
 10  8  1  1  0  0  0
 10 28  1  0  0  0  0
 12 28  1  0  0  0  0
 12 25  1  0  0  0  0
 13 26  1  0  0  0  0
 14  8  1  0  0  0  0
 15 23  1  0  0  0  0
 15 11  2  0  0  0  0
 16  1  2  0  0  0  0
 17  3  2  0  0  0  0
 17 25  1  0  0  0  0
 18  9  2  0  0  0  0
 19 15  1  0  0  0  0
 20  4  2  0  0  0  0
 20 16  1  0  0  0  0
 22 21  2  0  0  0  0
 24 12  1  0  0  0  0
 25 19  1  0  0  0  0
 26 24  1  0  0  0  0
 26 10  1  0  0  0  0
 27  5  1  0  0  0  0
 28 16  1  0  0  0  0
M  END
>  <MODEL>
8

>  <REMARK>
 VINA RESULT:      -7.4      2.158      2.943
  Name = 
  0 active torsions:
  status: ('A' for Active; 'I' for Inactive)
                            x       y       z     vdW  Elec       q    Type
                         _______ _______ _______ _____ _____    ______ ____

>  <TORSDO>
F 0

$$$$
=
 OpenBabel11112417363D

 28 32  0  0  1  0  0  0  0  0999 V2000
  189.2210  174.2010  140.8600 C   0  0  0  0  0  0  0  0  0  0  0  0
  193.3420  176.3340  142.2240 C   0  0  0  0  0  1  0  0  0  0  0  0
  187.3760  176.7450  146.4090 O   0  0  0  0  0  0  0  0  0  0  0  0
  191.7200  173.1900  140.0910 C   0  0  0  0  0  3  0  0  0  0  0  0
  188.9930  175.0470  146.2150 N   0  0  0  0  0  0  0  0  0  0  0  0
  187.8380  174.6320  141.2140 C   0  0  0  0  0  2  0  0  0  0  0  0
  192.1550  177.7890  143.8130 C   0  0  0  0  0  1  0  0  0  0  0  0
  192.7040  176.3850  143.5980 C   0  0  0  0  0  0  0  0  0  0  0  0
  193.4690  175.3550  145.7470 C   0  0  0  0  0  0  0  0  0  0  0  0
  191.5920  175.3270  143.7230 C   0  0  1  0  0  3  0  0  0  0  0  0
  187.0250  178.1040  141.9590 O   0  0  0  0  0  0  0  0  0  0  0  0
  189.1900  175.0180  143.8510 C   0  0  1  0  0  3  0  0  0  0  0  0
  192.1910  174.8300  145.9740 O   0  0  0  0  0  0  0  0  0  0  0  0
  193.7180  176.1150  144.5840 O   0  0  0  0  0  0  0  0  0  0  0  0
  187.2190  176.8730  142.1380 C   0  0  0  0  0  0  0  0  0  0  0  0
  190.3640  174.4990  141.6550 C   0  0  0  0  0  0  0  0  0  0  0  0
  188.1450  176.0490  145.6930 C   0  0  0  0  0  0  0  0  0  0  0  0
  194.4020  175.1150  146.5560 O   0  0  0  0  0  0  0  0  0  0  0  0
  187.0130  176.2850  143.4970 C   0  0  0  0  0  2  0  0  0  0  0  0
  191.6050  173.9790  141.2350 C   0  0  0  0  0  3  0  0  0  0  0  0
  189.3500  173.4080  139.7140 C   0  0  0  0  0  3  0  0  0  0  0  0
  190.5910  172.9060  139.3290 C   0  0  0  0  0  3  0  0  0  0  0  0
  187.6860  176.0670  141.0570 N   0  0  0  0  0  2  0  0  0  0  0  0
  189.8530  174.5390  145.1620 C   0  0  1  0  0  3  0  0  0  0  0  0
  188.3390  176.2460  144.2400 C   0  0  2  0  0  3  0  0  0  0  0  0
  191.1430  175.3150  145.1520 C   0  0  2  0  0  3  0  0  0  0  0  0
  189.1860  174.7790  147.6310 C   0  0  0  0  0  1  0  0  0  0  0  0
  190.3140  175.4240  142.8760 C   0  0  2  0  0  3  0  0  0  0  0  0
  1  6  1  0  0  0  0
  1 16  1  0  0  0  0
  2  8  1  0  0  0  0
  4 20  1  0  0  0  0
  5 27  1  0  0  0  0
  8  7  1  0  0  0  0
  8 14  1  0  0  0  0
  9 13  1  0  0  0  0
  9 18  2  0  0  0  0
 10  8  1  1  0  0  0
 10 26  1  0  0  0  0
 11 15  2  0  0  0  0
 12 25  1  0  0  0  0
 12 24  1  0  0  0  0
 14  9  1  0  0  0  0
 15 19  1  0  0  0  0
 16 28  1  0  0  0  0
 17  5  1  0  0  0  0
 17  3  2  0  0  0  0
 19 25  1  0  0  0  0
 20 16  2  0  0  0  0
 21  1  2  0  0  0  0
 22 21  1  0  0  0  0
 22  4  2  0  0  0  0
 23  6  1  0  0  0  0
 23 15  1  0  0  0  0
 24  5  1  0  0  0  0
 25 17  1  0  0  0  0
 26 24  1  0  0  0  0
 26 13  1  0  0  0  0
 28 10  1  0  0  0  0
 28 12  1  0  0  0  0
M  END
>  <MODEL>
9

>  <REMARK>
 VINA RESULT:      -6.9      2.333      5.462
  Name = 
  0 active torsions:
  status: ('A' for Active; 'I' for Inactive)
                            x       y       z     vdW  Elec       q    Type
                         _______ _______ _______ _____ _____    ______ ____

>  <TORSDO>
F 0

$$$$
