=
 OpenBabel11112416323D

 32 37  0  0  1  0  0  0  0  0999 V2000
  186.7110  176.9710  146.4220 C   0  0  0  0  0  2  0  0  0  0  0  0
  191.8360  176.4210  144.1650 C   0  0  1  0  0  3  0  0  0  0  0  0
  189.5840  172.7870  142.9120 C   0  0  0  0  0  2  0  0  0  0  0  0
  190.1970  172.5700  141.6650 O   0  0  0  0  0  0  0  0  0  0  0  0
  194.0150  175.6840  145.2610 C   0  0  1  0  0  3  0  0  0  0  0  0
  195.0860  174.6390  145.2260 C   0  0  0  0  0  0  0  0  0  0  0  0
  189.8860  177.0430  145.5570 C   0  0  1  0  0  3  0  0  0  0  0  0
  189.8350  177.2610  143.0420 C   0  0  0  0  0  2  0  0  0  0  0  0
  196.1720  172.8420  144.6690 N   0  0  0  0  0  0  0  0  0  0  0  0
  187.8330  177.9490  144.3810 C   0  0  0  0  0  2  0  0  0  0  0  0
  189.6290  174.2720  143.2890 C   0  0  0  0  0  2  0  0  0  0  0  0
  191.0150  176.3850  142.9410 N   0  0  2  0  0  0  0  0  0  0  0  0
  190.6930  175.0230  142.4640 C   0  0  1  0  0  3  0  0  0  0  0  0
  192.8490  174.1690  143.5070 C   0  0  1  0  0  3  0  0  0  0  0  0
  196.7600  173.3930  145.7210 N   0  0  0  0  0  0  0  0  0  0  0  0
  187.8560  176.0310  146.7770 C   0  0  0  0  0  2  0  0  0  0  0  0
  189.0040  176.9870  144.3000 C   0  0  2  0  0  3  0  0  0  0  0  0
  196.1110  174.4930  146.0910 N   0  0  0  0  0  0  0  0  0  0  0  0
  189.1550  176.8210  146.8880 C   0  0  0  0  0  2  0  0  0  0  0  0
  186.6110  177.2140  144.9170 C   0  0  2  0  0  3  0  0  0  0  0  0
  191.5810  172.7210  141.8770 C   0  0  0  0  0  2  0  0  0  0  0  0
  191.9610  174.1710  142.2530 C   0  0  1  0  0  3  0  0  0  0  0  0
  194.1610  173.4170  143.2150 C   0  0  0  0  0  2  0  0  0  0  0  0
  191.0330  176.0540  145.4180 C   0  0  0  0  0  2  0  0  0  0  0  0
  194.6410  177.0630  145.3820 C   0  0  0  0  0  1  0  0  0  0  0  0
  196.6300  171.6340  144.0050 C   0  0  0  0  0  1  0  0  0  0  0  0
  193.1310  175.6150  143.9920 C   0  0  1  0  0  3  0  0  0  0  0  0
  195.1080  173.5900  144.3540 C   0  0  0  0  0  0  0  0  0  0  0  0
  185.4190  177.9970  144.6260 N   0  0  0  0  0  2  0  0  0  0  0  0
  184.7600  177.9570  143.3580 C   0  0  0  0  0  0  0  0  0  0  0  0
  185.2120  177.2470  142.4210 O   0  0  0  0  0  0  0  0  0  0  0  0
  183.5330  178.7670  143.1420 C   0  0  0  0  0  1  0  0  0  0  0  0
  1 16  1  0  0  0  0
  2 24  1  1  0  0  0
  3 11  1  0  0  0  0
  4 21  1  0  0  0  0
  4  3  1  0  0  0  0
  5 25  1  6  0  0  0
  6  5  1  0  0  0  0
  6 18  1  0  0  0  0
  7 24  1  6  0  0  0
  7 19  1  0  0  0  0
  9 15  1  0  0  0  0
 10 20  1  0  0  0  0
 12  8  1  1  0  0  0
 12  2  1  0  0  0  0
 13 12  1  0  0  0  0
 13 11  1  1  0  0  0
 14 23  1  6  0  0  0
 14 27  1  0  0  0  0
 15 18  2  0  0  0  0
 16 19  1  0  0  0  0
 17  8  1  6  0  0  0
 17 10  1  0  0  0  0
 17  7  1  0  0  0  0
 20 29  1  1  0  0  0
 20  1  1  0  0  0  0
 22 21  1  1  0  0  0
 22 13  1  0  0  0  0
 22 14  1  0  0  0  0
 23 28  1  0  0  0  0
 26  9  1  0  0  0  0
 27  2  1  0  0  0  0
 27  5  1  0  0  0  0
 28  9  1  0  0  0  0
 28  6  2  0  0  0  0
 30 29  1  0  0  0  0
 31 30  2  0  0  0  0
 32 30  1  0  0  0  0
M  END
>  <MODEL>
1

>  <REMARK>
 VINA RESULT:      -8.6      0.000      0.000
  Name = 
  1 active torsions:
  status: ('A' for Active; 'I' for Inactive)
    1  A    between atoms: C_20  and  N_29
                            x       y       z     vdW  Elec       q    Type
                         _______ _______ _______ _____ _____    ______ ____

>  <TORSDO>
F 1

$$$$
=
 OpenBabel11112416323D

 32 37  0  0  1  0  0  0  0  0999 V2000
  195.1730  175.4240  145.1480 C   0  0  0  0  0  2  0  0  0  0  0  0
  189.5460  175.4050  145.0920 C   0  0  1  0  0  3  0  0  0  0  0  0
  190.7850  174.3670  140.9400 C   0  0  0  0  0  2  0  0  0  0  0  0
  189.7110  173.5260  140.5960 O   0  0  0  0  0  0  0  0  0  0  0  0
  187.9230  177.3670  144.9850 C   0  0  1  0  0  3  0  0  0  0  0  0
  186.8370  177.9860  144.1620 C   0  0  0  0  0  0  0  0  0  0  0  0
  191.9350  175.7870  145.6160 C   0  0  1  0  0  3  0  0  0  0  0  0
  191.0040  173.4580  145.3240 C   0  0  0  0  0  2  0  0  0  0  0  0
  185.4650  178.3310  142.5140 N   0  0  0  0  0  0  0  0  0  0  0  0
  193.4260  173.7570  145.8930 C   0  0  0  0  0  2  0  0  0  0  0  0
  191.0250  174.3510  142.4540 C   0  0  0  0  0  2  0  0  0  0  0  0
  189.8080  174.0170  144.6710 N   0  0  2  0  0  0  0  0  0  0  0  0
  189.7920  173.8110  143.2060 C   0  0  1  0  0  3  0  0  0  0  0  0
  188.1590  175.7460  142.9730 C   0  0  1  0  0  3  0  0  0  0  0  0
  185.3930  179.3520  143.3560 N   0  0  0  0  0  0  0  0  0  0  0  0
  194.1830  176.3940  144.5160 C   0  0  0  0  0  2  0  0  0  0  0  0
  192.2380  174.3520  145.1580 C   0  0  2  0  0  3  0  0  0  0  0  0
  186.2310  179.1730  144.3730 N   0  0  0  0  0  0  0  0  0  0  0  0
  193.1100  176.7700  145.5310 C   0  0  0  0  0  2  0  0  0  0  0  0
  194.6890  173.9760  145.0700 C   0  0  2  0  0  3  0  0  0  0  0  0
  188.5430  174.1830  141.0310 C   0  0  0  0  0  2  0  0  0  0  0  0
  188.4750  174.2970  142.5700 C   0  0  1  0  0  3  0  0  0  0  0  0
  186.7780  176.1500  142.4250 C   0  0  0  0  0  2  0  0  0  0  0  0
  190.7430  176.3270  144.8400 C   0  0  0  0  0  2  0  0  0  0  0  0
  187.5220  177.3590  146.4500 C   0  0  0  0  0  1  0  0  0  0  0  0
  184.6760  178.2040  141.3010 C   0  0  0  0  0  1  0  0  0  0  0  0
  188.2220  175.9230  144.5120 C   0  0  1  0  0  3  0  0  0  0  0  0
  186.3790  177.4730  142.9830 C   0  0  0  0  0  0  0  0  0  0  0  0
  195.7330  173.0850  145.5550 N   0  0  0  0  0  2  0  0  0  0  0  0
  196.0590  171.8540  144.9060 C   0  0  0  0  0  0  0  0  0  0  0  0
  195.4250  171.4780  143.8860 O   0  0  0  0  0  0  0  0  0  0  0  0
  197.1540  171.0070  145.4460 C   0  0  0  0  0  1  0  0  0  0  0  0
  2 24  1  6  0  0  0
  3 11  1  0  0  0  0
  4  3  1  0  0  0  0
  4 21  1  0  0  0  0
  5 25  1  1  0  0  0
  6 18  1  0  0  0  0
  6  5  1  0  0  0  0
  7 24  1  6  0  0  0
  9 28  1  0  0  0  0
  9 15  1  0  0  0  0
 12  2  1  0  0  0  0
 12  8  1  6  0  0  0
 13 11  1  6  0  0  0
 13 12  1  0  0  0  0
 14 23  1  1  0  0  0
 14 27  1  0  0  0  0
 15 18  2  0  0  0  0
 16  1  1  0  0  0  0
 16 19  1  0  0  0  0
 17  8  1  1  0  0  0
 17  7  1  0  0  0  0
 17 10  1  0  0  0  0
 19  7  1  0  0  0  0
 20  1  1  0  0  0  0
 20 29  1  1  0  0  0
 20 10  1  0  0  0  0
 22 21  1  6  0  0  0
 22 14  1  0  0  0  0
 22 13  1  0  0  0  0
 23 28  1  0  0  0  0
 26  9  1  0  0  0  0
 27  5  1  0  0  0  0
 27  2  1  0  0  0  0
 28  6  2  0  0  0  0
 30 32  1  0  0  0  0
 30 29  1  0  0  0  0
 31 30  2  0  0  0  0
M  END
>  <MODEL>
2

>  <REMARK>
 VINA RESULT:      -8.6      1.920      8.043
  Name = 
  1 active torsions:
  status: ('A' for Active; 'I' for Inactive)
    1  A    between atoms: C_20  and  N_29
                            x       y       z     vdW  Elec       q    Type
                         _______ _______ _______ _____ _____    ______ ____

>  <TORSDO>
F 1

$$$$
=
 OpenBabel11112416323D

 32 37  0  0  1  0  0  0  0  0999 V2000
  191.3240  170.9590  142.0600 C   0  0  0  0  0  2  0  0  0  0  0  0
  189.2120  176.1600  142.4500 C   0  0  1  0  0  3  0  0  0  0  0  0
  189.4890  174.6660  146.6380 C   0  0  0  0  0  2  0  0  0  0  0  0
  189.7400  175.8880  147.2890 O   0  0  0  0  0  0  0  0  0  0  0  0
  186.8340  176.9750  142.0370 C   0  0  1  0  0  3  0  0  0  0  0  0
  185.6570  177.6300  142.6900 C   0  0  0  0  0  0  0  0  0  0  0  0
  189.9100  173.9090  141.6940 C   0  0  1  0  0  3  0  0  0  0  0  0
  191.5500  175.5130  142.7490 C   0  0  0  0  0  2  0  0  0  0  0  0
  184.3940  178.5030  144.2270 N   0  0  0  0  0  0  0  0  0  0  0  0
  192.3460  173.2680  141.9740 C   0  0  0  0  0  2  0  0  0  0  0  0
  189.9980  174.7050  145.1930 C   0  0  0  0  0  2  0  0  0  0  0  0
  190.4300  176.3190  143.2660 N   0  0  2  0  0  0  0  0  0  0  0  0
  190.2150  176.1560  144.7200 C   0  0  1  0  0  3  0  0  0  0  0  0
  187.8230  176.9680  144.4360 C   0  0  1  0  0  3  0  0  0  0  0  0
  183.6870  178.3650  143.1150 N   0  0  0  0  0  0  0  0  0  0  0  0
  189.9220  171.4370  142.4160 C   0  0  0  0  0  2  0  0  0  0  0  0
  191.1760  174.0400  142.5560 C   0  0  2  0  0  3  0  0  0  0  0  0
  184.4320  177.8220  142.1570 N   0  0  0  0  0  0  0  0  0  0  0  0
  189.4570  172.4730  141.3990 C   0  0  0  0  0  2  0  0  0  0  0  0
  192.4060  171.8860  142.6120 C   0  0  2  0  0  3  0  0  0  0  0  0
  188.8350  176.8170  146.7420 C   0  0  0  0  0  2  0  0  0  0  0  0
  189.1190  177.1020  145.2500 C   0  0  1  0  0  3  0  0  0  0  0  0
  186.8000  178.0170  144.9120 C   0  0  0  0  0  2  0  0  0  0  0  0
  188.7770  174.6960  142.3320 C   0  0  0  0  0  2  0  0  0  0  0  0
  187.0820  177.5970  140.6740 C   0  0  0  0  0  1  0  0  0  0  0  0
  183.8870  179.0710  145.4640 C   0  0  0  0  0  1  0  0  0  0  0  0
  188.1010  177.1100  142.9170 C   0  0  1  0  0  3  0  0  0  0  0  0
  185.6240  178.0290  143.9940 C   0  0  0  0  0  0  0  0  0  0  0  0
  193.7180  171.3050  142.3670 N   0  0  0  0  0  2  0  0  0  0  0  0
  194.5490  170.8060  143.4180 C   0  0  0  0  0  0  0  0  0  0  0  0
  194.1760  170.8740  144.6190 O   0  0  0  0  0  0  0  0  0  0  0  0
  195.8670  170.2050  143.0890 C   0  0  0  0  0  1  0  0  0  0  0  0
  1 16  1  0  0  0  0
  1 20  1  0  0  0  0
  2 24  1  1  0  0  0
  2 27  1  0  0  0  0
  2 12  1  0  0  0  0
  3  4  1  0  0  0  0
  5 25  1  6  0  0  0
  5  6  1  0  0  0  0
  5 27  1  0  0  0  0
  6 28  2  0  0  0  0
  7 19  1  1  0  0  0
  7 24  1  0  0  0  0
  7 17  1  0  0  0  0
  9 26  1  0  0  0  0
 10 20  1  0  0  0  0
 11  3  1  0  0  0  0
 12  8  1  6  0  0  0
 12 13  1  0  0  0  0
 13 11  1  6  0  0  0
 13 22  1  0  0  0  0
 14 23  1  1  0  0  0
 14 22  1  0  0  0  0
 15  9  1  0  0  0  0
 17 10  1  6  0  0  0
 17  8  1  0  0  0  0
 18  6  1  0  0  0  0
 18 15  2  0  0  0  0
 19 16  1  0  0  0  0
 20 29  1  6  0  0  0
 21  4  1  0  0  0  0
 22 21  1  1  0  0  0
 27 14  1  0  0  0  0
 28  9  1  0  0  0  0
 28 23  1  0  0  0  0
 29 30  1  0  0  0  0
 30 31  2  0  0  0  0
 32 30  1  0  0  0  0
M  END
>  <MODEL>
3

>  <REMARK>
 VINA RESULT:      -8.4      2.771      8.615
  Name = 
  1 active torsions:
  status: ('A' for Active; 'I' for Inactive)
    1  A    between atoms: C_20  and  N_29
                            x       y       z     vdW  Elec       q    Type
                         _______ _______ _______ _____ _____    ______ ____

>  <TORSDO>
F 1

$$$$
=
 OpenBabel11112416323D

 32 37  0  0  1  0  0  0  0  0999 V2000
  187.5860  176.4290  146.8880 C   0  0  0  0  0  2  0  0  0  0  0  0
  192.5000  175.2050  144.4340 C   0  0  1  0  0  3  0  0  0  0  0  0
  189.6490  172.0880  143.0190 C   0  0  0  0  0  2  0  0  0  0  0  0
  190.1910  171.8610  141.7410 O   0  0  0  0  0  0  0  0  0  0  0  0
  194.5490  174.0460  145.4080 C   0  0  1  0  0  3  0  0  0  0  0  0
  195.4300  172.8440  145.2680 C   0  0  0  0  0  0  0  0  0  0  0  0
  190.7100  176.0400  145.9260 C   0  0  1  0  0  3  0  0  0  0  0  0
  190.6420  176.4390  143.4340 C   0  0  0  0  0  2  0  0  0  0  0  0
  196.1910  170.9360  144.5590 N   0  0  0  0  0  0  0  0  0  0  0  0
  188.8110  177.3510  144.8800 C   0  0  0  0  0  2  0  0  0  0  0  0
  189.9480  173.5150  143.4910 C   0  0  0  0  0  2  0  0  0  0  0  0
  191.6580  175.3900  143.2380 N   0  0  2  0  0  0  0  0  0  0  0  0
  191.1040  174.1370  142.6830 C   0  0  1  0  0  3  0  0  0  0  0  0
  193.1100  172.8690  143.5970 C   0  0  1  0  0  3  0  0  0  0  0  0
  196.8840  171.3080  145.6250 N   0  0  0  0  0  0  0  0  0  0  0  0
  188.5660  175.2910  147.1420 C   0  0  0  0  0  2  0  0  0  0  0  0
  189.8050  176.2180  144.6980 C   0  0  2  0  0  3  0  0  0  0  0  0
  196.4340  172.4710  146.0890 N   0  0  0  0  0  0  0  0  0  0  0  0
  189.9810  175.8470  147.2630 C   0  0  0  0  0  2  0  0  0  0  0  0
  187.4960  176.7910  145.4060 C   0  0  2  0  0  3  0  0  0  0  0  0
  191.5850  171.7680  141.9170 C   0  0  0  0  0  2  0  0  0  0  0  0
  192.2080  173.1050  142.3750 C   0  0  1  0  0  3  0  0  0  0  0  0
  194.2720  171.9350  143.2120 C   0  0  0  0  0  2  0  0  0  0  0  0
  191.6730  174.8880  145.6850 C   0  0  0  0  0  2  0  0  0  0  0  0
  195.3970  175.2910  145.5980 C   0  0  0  0  0  1  0  0  0  0  0  0
  196.4270  169.7190  143.8030 C   0  0  0  0  0  1  0  0  0  0  0  0
  193.6380  174.2120  144.1660 C   0  0  1  0  0  3  0  0  0  0  0  0
  195.2590  171.8690  144.3290 C   0  0  0  0  0  0  0  0  0  0  0  0
  186.4440  177.7770  145.2060 N   0  0  0  0  0  2  0  0  0  0  0  0
  185.5160  177.7060  144.1220 C   0  0  0  0  0  0  0  0  0  0  0  0
  185.5930  176.7820  143.2690 O   0  0  0  0  0  0  0  0  0  0  0  0
  184.4540  178.7380  143.9960 C   0  0  0  0  0  1  0  0  0  0  0  0
  1 16  1  0  0  0  0
  2 24  1  1  0  0  0
  3 11  1  0  0  0  0
  4 21  1  0  0  0  0
  4  3  1  0  0  0  0
  5 25  1  6  0  0  0
  6  5  1  0  0  0  0
  6 18  1  0  0  0  0
  7 24  1  6  0  0  0
  7 19  1  0  0  0  0
  9 15  1  0  0  0  0
 10 20  1  0  0  0  0
 12  8  1  1  0  0  0
 12  2  1  0  0  0  0
 13 12  1  0  0  0  0
 13 11  1  1  0  0  0
 14 23  1  6  0  0  0
 14 27  1  0  0  0  0
 15 18  2  0  0  0  0
 16 19  1  0  0  0  0
 17  8  1  6  0  0  0
 17 10  1  0  0  0  0
 17  7  1  0  0  0  0
 20 29  1  1  0  0  0
 20  1  1  0  0  0  0
 22 21  1  1  0  0  0
 22 13  1  0  0  0  0
 22 14  1  0  0  0  0
 23 28  1  0  0  0  0
 26  9  1  0  0  0  0
 27  2  1  0  0  0  0
 27  5  1  0  0  0  0
 28  9  1  0  0  0  0
 28  6  2  0  0  0  0
 30 29  1  0  0  0  0
 31 30  2  0  0  0  0
 32 30  1  0  0  0  0
M  END
>  <MODEL>
4

>  <REMARK>
 VINA RESULT:      -8.3      1.172      1.397
  Name = 
  1 active torsions:
  status: ('A' for Active; 'I' for Inactive)
    1  A    between atoms: C_20  and  N_29
                            x       y       z     vdW  Elec       q    Type
                         _______ _______ _______ _____ _____    ______ ____

>  <TORSDO>
F 1

$$$$
=
 OpenBabel11112416323D

 32 37  0  0  1  0  0  0  0  0999 V2000
  192.6180  172.2410  141.4390 C   0  0  0  0  0  2  0  0  0  0  0  0
  189.9210  176.8790  143.1360 C   0  0  1  0  0  3  0  0  0  0  0  0
  191.3790  174.9160  146.8600 C   0  0  0  0  0  2  0  0  0  0  0  0
  191.5940  176.0650  147.6420 O   0  0  0  0  0  0  0  0  0  0  0  0
  187.4200  177.3010  143.3700 C   0  0  1  0  0  3  0  0  0  0  0  0
  186.3440  177.6410  144.3540 C   0  0  0  0  0  0  0  0  0  0  0  0
  190.7440  174.9110  141.8800 C   0  0  1  0  0  3  0  0  0  0  0  0
  192.3330  176.6290  142.8290 C   0  0  0  0  0  2  0  0  0  0  0  0
  185.3600  178.0610  146.2450 N   0  0  0  0  0  0  0  0  0  0  0  0
  193.2450  174.6870  141.5360 C   0  0  0  0  0  2  0  0  0  0  0  0
  191.5270  175.2380  145.3680 C   0  0  0  0  0  2  0  0  0  0  0  0
  191.2590  177.1450  143.6960 N   0  0  2  0  0  0  0  0  0  0  0  0
  191.4140  176.7540  145.1140 C   0  0  1  0  0  3  0  0  0  0  0  0
  188.9290  177.1530  145.4750 C   0  0  1  0  0  3  0  0  0  0  0  0
  184.4420  177.9460  145.2970 N   0  0  0  0  0  0  0  0  0  0  0  0
  191.2830  172.4080  142.1540 C   0  0  0  0  0  2  0  0  0  0  0  0
  192.1420  175.1520  142.4700 C   0  0  2  0  0  3  0  0  0  0  0  0
  185.0140  177.6790  144.1270 N   0  0  0  0  0  0  0  0  0  0  0  0
  190.4480  173.4700  141.4470 C   0  0  0  0  0  2  0  0  0  0  0  0
  193.6520  173.2660  141.9040 C   0  0  2  0  0  3  0  0  0  0  0  0
  190.4610  176.8810  147.4600 C   0  0  0  0  0  2  0  0  0  0  0  0
  190.3460  177.4080  146.0120 C   0  0  1  0  0  3  0  0  0  0  0  0
  187.9040  177.9270  146.3230 C   0  0  0  0  0  2  0  0  0  0  0  0
  189.6880  175.3900  142.8640 C   0  0  0  0  0  2  0  0  0  0  0  0
  187.2500  178.1330  142.1100 C   0  0  0  0  0  1  0  0  0  0  0  0
  185.0770  178.3580  147.6380 C   0  0  0  0  0  1  0  0  0  0  0  0
  188.8230  177.5440  143.9770 C   0  0  1  0  0  3  0  0  0  0  0  0
  186.5580  177.8510  145.6850 C   0  0  0  0  0  0  0  0  0  0  0  0
  194.9410  172.9680  141.2970 N   0  0  0  0  0  2  0  0  0  0  0  0
  196.1790  173.1590  141.9850 C   0  0  0  0  0  0  0  0  0  0  0  0
  196.2000  173.6220  143.1560 O   0  0  0  0  0  0  0  0  0  0  0  0
  197.4560  172.8100  141.3100 C   0  0  0  0  0  1  0  0  0  0  0  0
  1 20  1  0  0  0  0
  1 16  1  0  0  0  0
  2 24  1  1  0  0  0
  2 12  1  0  0  0  0
  2 27  1  0  0  0  0
  3  4  1  0  0  0  0
  5 25  1  6  0  0  0
  5 27  1  0  0  0  0
  5  6  1  0  0  0  0
  6 28  2  0  0  0  0
  7 19  1  1  0  0  0
  7 17  1  0  0  0  0
  7 24  1  0  0  0  0
  9 26  1  0  0  0  0
 10 20  1  0  0  0  0
 11  3  1  0  0  0  0
 12  8  1  6  0  0  0
 12 13  1  0  0  0  0
 13 11  1  6  0  0  0
 13 22  1  0  0  0  0
 14 22  1  0  0  0  0
 14 23  1  1  0  0  0
 15  9  1  0  0  0  0
 17 10  1  6  0  0  0
 17  8  1  0  0  0  0
 18  6  1  0  0  0  0
 18 15  2  0  0  0  0
 19 16  1  0  0  0  0
 20 29  1  6  0  0  0
 21  4  1  0  0  0  0
 22 21  1  1  0  0  0
 27 14  1  0  0  0  0
 28  9  1  0  0  0  0
 28 23  1  0  0  0  0
 29 30  1  0  0  0  0
 30 31  2  0  0  0  0
 32 30  1  0  0  0  0
M  END
>  <MODEL>
5

>  <REMARK>
 VINA RESULT:      -7.6      2.834      8.352
  Name = 
  1 active torsions:
  status: ('A' for Active; 'I' for Inactive)
    1  A    between atoms: C_20  and  N_29
                            x       y       z     vdW  Elec       q    Type
                         _______ _______ _______ _____ _____    ______ ____

>  <TORSDO>
F 1

$$$$
=
 OpenBabel11112416323D

 32 37  0  0  1  0  0  0  0  0999 V2000
  184.4420  177.9790  144.7920 C   0  0  0  0  0  2  0  0  0  0  0  0
  189.6930  177.0330  143.0040 C   0  0  1  0  0  3  0  0  0  0  0  0
  187.4820  173.2330  142.2820 C   0  0  0  0  0  2  0  0  0  0  0  0
  188.1710  172.7950  141.1360 O   0  0  0  0  0  0  0  0  0  0  0  0
  191.7890  176.5060  144.3520 C   0  0  1  0  0  3  0  0  0  0  0  0
  192.8490  175.4710  144.5730 C   0  0  0  0  0  0  0  0  0  0  0  0
  187.6660  177.8950  144.1330 C   0  0  1  0  0  3  0  0  0  0  0  0
  187.7760  177.6570  141.6220 C   0  0  0  0  0  2  0  0  0  0  0  0
  193.9470  173.6030  144.4190 N   0  0  0  0  0  0  0  0  0  0  0  0
  185.7010  178.5750  142.6840 C   0  0  0  0  0  2  0  0  0  0  0  0
  187.5210  174.7620  142.3880 C   0  0  0  0  0  2  0  0  0  0  0  0
  188.9500  176.7770  141.7560 N   0  0  2  0  0  0  0  0  0  0  0  0
  188.6430  175.3520  141.5120 C   0  0  1  0  0  3  0  0  0  0  0  0
  190.7190  174.7000  142.8270 C   0  0  1  0  0  3  0  0  0  0  0  0
  194.4730  174.3350  145.3900 N   0  0  0  0  0  0  0  0  0  0  0  0
  185.5510  177.1190  145.3820 C   0  0  0  0  0  2  0  0  0  0  0  0
  186.8650  177.6140  142.8530 C   0  0  2  0  0  3  0  0  0  0  0  0
  193.8150  175.4830  145.5150 N   0  0  0  0  0  0  0  0  0  0  0  0
  186.8500  177.9160  145.4330 C   0  0  0  0  0  2  0  0  0  0  0  0
  184.4400  177.9480  143.2640 C   0  0  2  0  0  3  0  0  0  0  0  0
  189.5400  172.9820  141.4050 C   0  0  0  0  0  2  0  0  0  0  0  0
  189.9120  174.4760  141.5390 C   0  0  1  0  0  3  0  0  0  0  0  0
  192.0380  173.9080  142.7590 C   0  0  0  0  0  2  0  0  0  0  0  0
  188.8080  176.8980  144.2470 C   0  0  0  0  0  2  0  0  0  0  0  0
  192.4220  177.8840  144.2630 C   0  0  0  0  0  1  0  0  0  0  0  0
  194.4320  172.2960  144.0140 C   0  0  0  0  0  1  0  0  0  0  0  0
  190.9860  176.2100  143.0620 C   0  0  1  0  0  3  0  0  0  0  0  0
  192.9130  174.2830  143.9070 C   0  0  0  0  0  0  0  0  0  0  0  0
  183.2780  178.6660  142.7610 N   0  0  0  0  0  2  0  0  0  0  0  0
  182.7040  178.4030  141.4790 C   0  0  0  0  0  0  0  0  0  0  0  0
  183.2100  177.5410  140.7130 O   0  0  0  0  0  0  0  0  0  0  0  0
  181.5020  179.1600  141.0430 C   0  0  0  0  0  1  0  0  0  0  0  0
  1 16  1  0  0  0  0
  2 27  1  0  0  0  0
  2 24  1  1  0  0  0
  3 11  1  0  0  0  0
  4 21  1  0  0  0  0
  4  3  1  0  0  0  0
  5 25  1  6  0  0  0
  5  6  1  0  0  0  0
  6 18  1  0  0  0  0
  7 24  1  1  0  0  0
  7 19  1  0  0  0  0
  9 15  1  0  0  0  0
 10 17  1  0  0  0  0
 10 20  1  0  0  0  0
 12  8  1  1  0  0  0
 12  2  1  0  0  0  0
 13 22  1  0  0  0  0
 13 12  1  0  0  0  0
 13 11  1  1  0  0  0
 14 23  1  6  0  0  0
 14 27  1  0  0  0  0
 15 18  2  0  0  0  0
 16 19  1  0  0  0  0
 17  8  1  6  0  0  0
 17  7  1  0  0  0  0
 20 29  1  6  0  0  0
 20  1  1  0  0  0  0
 22 21  1  1  0  0  0
 22 14  1  0  0  0  0
 23 28  1  0  0  0  0
 26  9  1  0  0  0  0
 27  5  1  0  0  0  0
 28  9  1  0  0  0  0
 28  6  2  0  0  0  0
 30 29  1  0  0  0  0
 31 30  2  0  0  0  0
 32 30  1  0  0  0  0
M  END
>  <MODEL>
6

>  <REMARK>
 VINA RESULT:      -7.5      1.741      2.551
  Name = 
  1 active torsions:
  status: ('A' for Active; 'I' for Inactive)
    1  A    between atoms: C_20  and  N_29
                            x       y       z     vdW  Elec       q    Type
                         _______ _______ _______ _____ _____    ______ ____

>  <TORSDO>
F 1

$$$$
=
 OpenBabel11112416323D

 32 37  0  0  1  0  0  0  0  0999 V2000
  188.0020  175.5480  147.4800 C   0  0  0  0  0  2  0  0  0  0  0  0
  192.5030  176.4550  144.2270 C   0  0  1  0  0  3  0  0  0  0  0  0
  190.3410  173.0420  142.3500 C   0  0  0  0  0  2  0  0  0  0  0  0
  190.6690  173.2890  141.0040 O   0  0  0  0  0  0  0  0  0  0  0  0
  194.9290  175.7710  144.5960 C   0  0  1  0  0  3  0  0  0  0  0  0
  196.0490  174.9550  144.0280 C   0  0  0  0  0  0  0  0  0  0  0  0
  190.8770  176.3460  146.0900 C   0  0  1  0  0  3  0  0  0  0  0  0
  190.2340  177.2710  143.8300 C   0  0  0  0  0  2  0  0  0  0  0  0
  197.1270  173.5800  142.7370 N   0  0  0  0  0  0  0  0  0  0  0  0
  188.5400  177.2330  145.6750 C   0  0  0  0  0  2  0  0  0  0  0  0
  190.3440  174.3440  143.1590 C   0  0  0  0  0  2  0  0  0  0  0  0
  191.4300  176.6500  143.2350 N   0  0  2  0  0  0  0  0  0  0  0  0
  191.1240  175.4520  142.4240 C   0  0  1  0  0  3  0  0  0  0  0  0
  193.5260  174.6690  142.7120 C   0  0  1  0  0  3  0  0  0  0  0  0
  197.8910  173.8870  143.7760 N   0  0  0  0  0  0  0  0  0  0  0  0
  189.2730  174.7310  147.2940 C   0  0  0  0  0  2  0  0  0  0  0  0
  189.7390  176.5240  145.0730 C   0  0  2  0  0  3  0  0  0  0  0  0
  197.2530  174.7210  144.5910 N   0  0  0  0  0  0  0  0  0  0  0  0
  190.4920  175.6420  147.3970 C   0  0  0  0  0  2  0  0  0  0  0  0
  187.5400  176.1990  146.1760 C   0  0  2  0  0  3  0  0  0  0  0  0
  192.0470  173.5800  140.9840 C   0  0  0  0  0  2  0  0  0  0  0  0
  192.3780  174.8990  141.7170 C   0  0  1  0  0  3  0  0  0  0  0  0
  194.7950  174.2410  141.9520 C   0  0  0  0  0  2  0  0  0  0  0  0
  192.0410  175.6250  145.4290 C   0  0  0  0  0  2  0  0  0  0  0  0
  195.4460  177.1340  145.0220 C   0  0  0  0  0  1  0  0  0  0  0  0
  197.5220  172.7000  141.6520 C   0  0  0  0  0  1  0  0  0  0  0  0
  193.7870  175.9390  143.5640 C   0  0  1  0  0  3  0  0  0  0  0  0
  195.9590  174.2190  142.8830 C   0  0  0  0  0  0  0  0  0  0  0  0
  186.2510  176.8430  146.3810 N   0  0  0  0  0  2  0  0  0  0  0  0
  186.1000  178.0380  147.1490 C   0  0  0  0  0  0  0  0  0  0  0  0
  187.0940  178.5740  147.7080 O   0  0  0  0  0  0  0  0  0  0  0  0
  184.7540  178.6520  147.2950 C   0  0  0  0  0  1  0  0  0  0  0  0
  2 24  1  1  0  0  0
  3 11  1  0  0  0  0
  4  3  1  0  0  0  0
  5 25  1  6  0  0  0
  6 18  1  0  0  0  0
  6  5  1  0  0  0  0
  7 24  1  6  0  0  0
  7 19  1  0  0  0  0
  9 28  1  0  0  0  0
  9 15  1  0  0  0  0
 10 20  1  0  0  0  0
 12  8  1  1  0  0  0
 12  2  1  0  0  0  0
 13 11  1  1  0  0  0
 13 12  1  0  0  0  0
 14 23  1  6  0  0  0
 14 27  1  0  0  0  0
 15 18  2  0  0  0  0
 16 19  1  0  0  0  0
 16  1  1  0  0  0  0
 17  8  1  6  0  0  0
 17 10  1  0  0  0  0
 17  7  1  0  0  0  0
 20 29  1  1  0  0  0
 20  1  1  0  0  0  0
 21  4  1  0  0  0  0
 22 21  1  1  0  0  0
 22 13  1  0  0  0  0
 22 14  1  0  0  0  0
 23 28  1  0  0  0  0
 26  9  1  0  0  0  0
 27  2  1  0  0  0  0
 27  5  1  0  0  0  0
 28  6  2  0  0  0  0
 29 30  1  0  0  0  0
 30 32  1  0  0  0  0
 30 31  2  0  0  0  0
M  END
>  <MODEL>
7

>  <REMARK>
 VINA RESULT:      -7.4      1.959      2.072
  Name = 
  1 active torsions:
  status: ('A' for Active; 'I' for Inactive)
    1  A    between atoms: C_20  and  N_29
                            x       y       z     vdW  Elec       q    Type
                         _______ _______ _______ _____ _____    ______ ____

>  <TORSDO>
F 1

$$$$
=
 OpenBabel11112416323D

 32 37  0  0  1  0  0  0  0  0999 V2000
  196.5210  173.0810  144.7880 C   0  0  0  0  0  2  0  0  0  0  0  0
  190.9120  173.5080  144.9320 C   0  0  1  0  0  3  0  0  0  0  0  0
  192.0240  173.8250  140.6300 C   0  0  0  0  0  2  0  0  0  0  0  0
  190.8810  173.2310  140.0650 O   0  0  0  0  0  0  0  0  0  0  0  0
  189.4580  175.5090  145.5420 C   0  0  1  0  0  3  0  0  0  0  0  0
  188.4200  176.4480  145.0100 C   0  0  0  0  0  0  0  0  0  0  0  0
  193.3290  173.5110  145.4670 C   0  0  1  0  0  3  0  0  0  0  0  0
  192.2050  171.4910  144.4520 C   0  0  0  0  0  2  0  0  0  0  0  0
  187.0670  177.4270  143.6210 N   0  0  0  0  0  0  0  0  0  0  0  0
  194.6480  171.3990  145.0000 C   0  0  0  0  0  2  0  0  0  0  0  0
  192.2750  173.2860  142.0430 C   0  0  0  0  0  2  0  0  0  0  0  0
  191.0540  172.3240  144.0650 N   0  0  2  0  0  0  0  0  0  0  0  0
  191.0080  172.6210  142.6170 C   0  0  1  0  0  3  0  0  0  0  0  0
  189.5410  174.6410  143.0980 C   0  0  1  0  0  3  0  0  0  0  0  0
  187.0880  178.1090  144.7560 N   0  0  0  0  0  0  0  0  0  0  0  0
  195.6100  174.2790  144.5500 C   0  0  0  0  0  2  0  0  0  0  0  0
  193.5070  172.2930  144.5480 C   0  0  2  0  0  3  0  0  0  0  0  0
  187.9170  177.5380  145.6250 N   0  0  0  0  0  0  0  0  0  0  0  0
  194.5810  174.3740  145.6710 C   0  0  0  0  0  2  0  0  0  0  0  0
  195.9180  171.7830  144.2520 C   0  0  2  0  0  3  0  0  0  0  0  0
  189.7760  173.7910  140.7350 C   0  0  0  0  0  2  0  0  0  0  0  0
  189.7300  173.3890  142.2260 C   0  0  1  0  0  3  0  0  0  0  0  0
  188.1930  175.3070  142.7650 C   0  0  0  0  0  2  0  0  0  0  0  0
  192.1800  174.3670  144.9580 C   0  0  0  0  0  2  0  0  0  0  0  0
  189.0700  175.0430  146.9340 C   0  0  0  0  0  1  0  0  0  0  0  0
  186.2590  177.7720  142.4640 C   0  0  0  0  0  1  0  0  0  0  0  0
  189.6310  174.2880  144.6060 C   0  0  1  0  0  3  0  0  0  0  0  0
  187.9100  176.3950  143.7460 C   0  0  0  0  0  0  0  0  0  0  0  0
  196.8880  170.7050  144.3760 N   0  0  0  0  0  2  0  0  0  0  0  0
  196.8670  169.5480  143.5370 C   0  0  0  0  0  0  0  0  0  0  0  0
  195.9740  169.4070  142.6600 O   0  0  0  0  0  0  0  0  0  0  0  0
  197.9050  168.4990  143.7070 C   0  0  0  0  0  1  0  0  0  0  0  0
  2 24  1  6  0  0  0
  3 11  1  0  0  0  0
  4  3  1  0  0  0  0
  4 21  1  0  0  0  0
  5 25  1  1  0  0  0
  6  5  1  0  0  0  0
  6 18  1  0  0  0  0
  7 24  1  6  0  0  0
  7 19  1  0  0  0  0
  9 28  1  0  0  0  0
  9 15  1  0  0  0  0
 12  8  1  6  0  0  0
 12  2  1  0  0  0  0
 13 11  1  1  0  0  0
 13 12  1  0  0  0  0
 14 23  1  1  0  0  0
 14 27  1  0  0  0  0
 15 18  2  0  0  0  0
 16  1  1  0  0  0  0
 16 19  1  0  0  0  0
 17  8  1  1  0  0  0
 17 10  1  0  0  0  0
 17  7  1  0  0  0  0
 20 29  1  1  0  0  0
 20  1  1  0  0  0  0
 20 10  1  0  0  0  0
 22 21  1  6  0  0  0
 22 13  1  0  0  0  0
 22 14  1  0  0  0  0
 23 28  1  0  0  0  0
 26  9  1  0  0  0  0
 27  2  1  0  0  0  0
 27  5  1  0  0  0  0
 28  6  2  0  0  0  0
 30 32  1  0  0  0  0
 30 29  1  0  0  0  0
 31 30  2  0  0  0  0
M  END
>  <MODEL>
8

>  <REMARK>
 VINA RESULT:      -7.2      2.376      8.247
  Name = 
  1 active torsions:
  status: ('A' for Active; 'I' for Inactive)
    1  A    between atoms: C_20  and  N_29
                            x       y       z     vdW  Elec       q    Type
                         _______ _______ _______ _____ _____    ______ ____

>  <TORSDO>
F 1

$$$$
=
 OpenBabel11112416323D

 32 37  0  0  1  0  0  0  0  0999 V2000
  187.7150  177.8990  143.1840 C   0  0  0  0  0  2  0  0  0  0  0  0
  191.2460  173.5930  143.9930 C   0  0  1  0  0  3  0  0  0  0  0  0
  193.3160  177.1660  145.6670 C   0  0  0  0  0  2  0  0  0  0  0  0
  194.0330  176.5370  146.7000 O   0  0  0  0  0  0  0  0  0  0  0  0
  192.8110  172.4530  142.3380 C   0  0  1  0  0  3  0  0  0  0  0  0
  194.2510  172.1520  142.0550 C   0  0  0  0  0  0  0  0  0  0  0  0
  189.4660  175.1110  143.1850 C   0  0  1  0  0  3  0  0  0  0  0  0
  189.6920  174.5270  145.6320 C   0  0  0  0  0  2  0  0  0  0  0  0
  196.4150  172.1490  142.2430 N   0  0  0  0  0  0  0  0  0  0  0  0
  187.8380  176.0410  144.8910 C   0  0  0  0  0  2  0  0  0  0  0  0
  192.0350  176.3880  145.3430 C   0  0  0  0  0  2  0  0  0  0  0  0
  191.0580  174.0320  145.3880 N   0  0  2  0  0  0  0  0  0  0  0  0
  192.1080  174.9470  145.8850 C   0  0  1  0  0  3  0  0  0  0  0  0
  193.7690  173.8790  144.2830 C   0  0  1  0  0  3  0  0  0  0  0  0
  196.0810  171.5800  141.0940 N   0  0  0  0  0  0  0  0  0  0  0  0
  189.0370  177.5590  142.5080 C   0  0  0  0  0  2  0  0  0  0  0  0
  189.2680  175.6040  144.6270 C   0  0  2  0  0  3  0  0  0  0  0  0
  194.7590  171.5770  140.9450 N   0  0  0  0  0  0  0  0  0  0  0  0
  189.0390  176.0930  142.0870 C   0  0  0  0  0  2  0  0  0  0  0  0
  187.7200  177.5430  144.6700 C   0  0  2  0  0  3  0  0  0  0  0  0
  194.5950  175.3750  146.1380 C   0  0  0  0  0  2  0  0  0  0  0  0
  193.5190  174.3460  145.7260 C   0  0  1  0  0  3  0  0  0  0  0  0
  195.1330  173.1700  144.1940 C   0  0  0  0  0  2  0  0  0  0  0  0
  190.9150  174.6980  142.9840 C   0  0  0  0  0  2  0  0  0  0  0  0
  191.9680  171.2110  142.1060 C   0  0  0  0  0  1  0  0  0  0  0  0
  197.7770  172.3090  142.7210 C   0  0  0  0  0  1  0  0  0  0  0  0
  192.6260  172.9520  143.7920 C   0  0  1  0  0  3  0  0  0  0  0  0
  195.2880  172.5370  142.8530 C   0  0  0  0  0  0  0  0  0  0  0  0
  186.4920  178.0200  145.2900 N   0  0  0  0  0  2  0  0  0  0  0  0
  186.3610  178.1960  146.7030 C   0  0  0  0  0  0  0  0  0  0  0  0
  187.3130  177.9160  147.4770 O   0  0  0  0  0  0  0  0  0  0  0  0
  185.0840  178.7100  147.2630 C   0  0  0  0  0  1  0  0  0  0  0  0
  1 20  1  0  0  0  0
  2 24  1  6  0  0  0
  2 12  1  0  0  0  0
  3  4  1  0  0  0  0
  5 25  1  1  0  0  0
  5 27  1  0  0  0  0
  6  5  1  0  0  0  0
  6 28  2  0  0  0  0
  7 19  1  6  0  0  0
  7 17  1  0  0  0  0
  9 26  1  0  0  0  0
  9 28  1  0  0  0  0
 11  3  1  0  0  0  0
 12  8  1  6  0  0  0
 12 13  1  0  0  0  0
 13 11  1  6  0  0  0
 14 23  1  1  0  0  0
 14 22  1  0  0  0  0
 15  9  1  0  0  0  0
 16  1  1  0  0  0  0
 17 10  1  6  0  0  0
 17  8  1  0  0  0  0
 18 15  2  0  0  0  0
 18  6  1  0  0  0  0
 19 16  1  0  0  0  0
 20 10  1  0  0  0  0
 20 29  1  6  0  0  0
 21  4  1  0  0  0  0
 22 13  1  0  0  0  0
 22 21  1  6  0  0  0
 24  7  1  0  0  0  0
 27  2  1  0  0  0  0
 27 14  1  0  0  0  0
 28 23  1  0  0  0  0
 29 30  1  0  0  0  0
 30 32  1  0  0  0  0
 30 31  2  0  0  0  0
M  END
>  <MODEL>
9

>  <REMARK>
 VINA RESULT:      -7.2      2.583      4.073
  Name = 
  1 active torsions:
  status: ('A' for Active; 'I' for Inactive)
    1  A    between atoms: C_20  and  N_29
                            x       y       z     vdW  Elec       q    Type
                         _______ _______ _______ _____ _____    ______ ____

>  <TORSDO>
F 1

$$$$
