=
 OpenBabel11112417273D

 37 43  0  0  1  0  0  0  0  0999 V2000
  187.7890  176.4840  142.2430 O   0  0  0  0  0  0  0  0  0  0  0  0
  191.3520  173.1140  140.6890 C   0  0  0  0  0  0  0  0  0  0  0  0
  189.7320  174.4390  144.2520 C   0  0  0  0  0  0  0  0  0  0  0  0
  186.7670  177.4030  141.9280 C   0  0  2  0  0  3  0  0  0  0  0  0
  189.0270  177.5410  145.7290 C   0  0  0  0  0  2  0  0  0  0  0  0
  190.0880  172.5330  142.8510 C   0  0  0  0  0  0  0  0  0  0  0  0
  190.0020  175.8230  144.1980 N   0  0  0  0  0  0  0  0  0  0  0  0
  185.7630  177.7450  144.3180 C   0  0  0  0  0  0  0  0  0  0  0  0
  189.8480  173.8880  143.0160 C   0  0  0  0  0  0  0  0  0  0  0  0
  190.2660  176.7270  145.3250 C   0  0  2  0  0  3  0  0  0  0  0  0
  189.9790  171.6920  143.9730 C   0  0  0  0  0  3  0  0  0  0  0  0
  185.5810  177.2530  142.8910 C   0  0  0  0  0  2  0  0  0  0  0  0
  190.0900  174.9090  141.9750 C   0  0  2  0  0  3  0  0  0  0  0  0
  190.7150  173.2050  139.3160 C   0  0  0  0  0  1  0  0  0  0  0  0
  189.3160  174.2700  146.7160 C   0  0  0  0  0  2  0  0  0  0  0  0
  189.7030  172.2490  145.2410 C   0  0  0  0  0  3  0  0  0  0  0  0
  191.4080  174.5370  141.3050 C   0  0  0  0  0  2  0  0  0  0  0  0
  186.9740  178.4850  144.8240 C   0  0  0  0  0  2  0  0  0  0  0  0
  188.1550  177.6930  144.5650 N   0  0  1  0  0  0  0  0  0  0  0  0
  189.6000  173.6470  145.3920 C   0  0  0  0  0  0  0  0  0  0  0  0
  190.1520  176.2280  142.7900 C   0  0  1  0  0  3  0  0  0  0  0  0
  190.5720  172.0480  141.5150 C   0  0  0  0  0  2  0  0  0  0  0  0
  191.1160  176.1340  146.4630 C   0  0  1  0  0  3  0  0  0  0  0  0
  192.7750  172.6270  140.5150 C   0  0  0  0  0  1  0  0  0  0  0  0
  188.8760  178.2910  143.4470 C   0  0  0  0  0  2  0  0  0  0  0  0
  184.8550  177.5410  145.1060 O   0  0  0  0  0  0  0  0  0  0  0  0
  189.0090  177.1950  142.3800 C   0  0  2  0  0  3  0  0  0  0  0  0
  190.5380  174.9760  147.2970 C   0  0  0  0  0  2  0  0  0  0  0  0
  193.2850  176.8990  145.4840 C   0  0  0  0  0  3  0  0  0  0  0  0
  192.5220  175.8610  146.0240 C   0  0  0  0  0  0  0  0  0  0  0  0
  193.0750  174.5780  146.1200 C   0  0  0  0  0  3  0  0  0  0  0  0
  194.9240  173.1200  145.7630 F   0  0  0  0  0  0  0  0  0  0  0  0
  195.1050  175.3850  145.1570 N   0  0  0  0  0  0  0  0  0  0  0  0
  194.3800  174.3580  145.6760 C   0  0  0  0  0  0  0  0  0  0  0  0
  194.5880  176.6390  145.0530 C   0  0  0  0  0  3  0  0  0  0  0  0
  186.3160  177.2200  140.4820 C   0  0  0  0  0  2  0  0  0  0  0  0
  185.0680  178.0280  140.1670 C   0  0  0  0  0  1  0  0  0  0  0  0
  1 27  1  0  0  0  0
  2 17  1  0  0  0  0
  2 22  1  0  0  0  0
  3 20  1  0  0  0  0
  4 36  1  6  0  0  0
  4  1  1  0  0  0  0
  4 12  1  0  0  0  0
  6  9  1  0  0  0  0
  6 11  2  0  0  0  0
  7  3  1  0  0  0  0
  7 10  1  0  0  0  0
  8 18  1  0  0  0  0
  8 26  2  0  0  0  0
  9  3  2  0  0  0  0
 10  5  1  1  0  0  0
 10 23  1  0  0  0  0
 11 16  1  0  0  0  0
 12  8  1  0  0  0  0
 13 17  1  1  0  0  0
 13 21  1  0  0  0  0
 13  9  1  0  0  0  0
 14  2  1  0  0  0  0
 15 28  1  0  0  0  0
 16 20  2  0  0  0  0
 19 25  1  6  0  0  0
 19 18  1  0  0  0  0
 19  5  1  0  0  0  0
 20 15  1  0  0  0  0
 21  7  1  1  0  0  0
 22  6  1  0  0  0  0
 23 30  1  6  0  0  0
 23 28  1  0  0  0  0
 24  2  1  0  0  0  0
 27 21  1  0  0  0  0
 27 25  1  1  0  0  0
 29 30  1  0  0  0  0
 30 31  2  0  0  0  0
 33 34  2  0  0  0  0
 34 32  1  0  0  0  0
 34 31  1  0  0  0  0
 35 33  1  0  0  0  0
 35 29  2  0  0  0  0
 37 36  1  0  0  0  0
M  END
>  <MODEL>
1

>  <REMARK>
 VINA RESULT:      -9.0      0.000      0.000
  Name = 
  2 active torsions:
  status: ('A' for Active; 'I' for Inactive)
    1  A    between atoms: C_4  and  C_36
    2  A    between atoms: C_23  and  C_30
                            x       y       z     vdW  Elec       q    Type
                         _______ _______ _______ _____ _____    ______ ____

>  <TORSDO>
F 2

$$$$
=
 OpenBabel11112417273D

 37 43  0  0  1  0  0  0  0  0999 V2000
  188.9830  175.4950  143.1780 O   0  0  0  0  0  0  0  0  0  0  0  0
  190.8820  171.9450  139.9760 C   0  0  0  0  0  0  0  0  0  0  0  0
  191.9160  173.6970  143.5730 C   0  0  0  0  0  0  0  0  0  0  0  0
  187.9410  176.3750  143.5360 C   0  0  2  0  0  3  0  0  0  0  0  0
  192.1250  176.9570  144.8490 C   0  0  0  0  0  2  0  0  0  0  0  0
  191.4040  171.6340  142.4730 C   0  0  0  0  0  0  0  0  0  0  0  0
  191.9770  175.0630  143.2250 N   0  0  0  0  0  0  0  0  0  0  0  0
  188.7370  177.0060  145.9460 C   0  0  0  0  0  0  0  0  0  0  0  0
  191.2310  173.0010  142.6290 C   0  0  0  0  0  0  0  0  0  0  0  0
  192.8490  176.0950  143.8030 C   0  0  2  0  0  3  0  0  0  0  0  0
  192.1260  170.9350  143.4570 C   0  0  0  0  0  3  0  0  0  0  0  0
  187.6990  176.3470  145.0520 C   0  0  0  0  0  2  0  0  0  0  0  0
  190.6490  173.8880  141.6000 C   0  0  2  0  0  3  0  0  0  0  0  0
  189.4940  171.8740  139.3700 C   0  0  0  0  0  1  0  0  0  0  0  0
  193.2410  173.8270  145.6940 C   0  0  0  0  0  2  0  0  0  0  0  0
  192.7120  171.6420  144.5310 C   0  0  0  0  0  3  0  0  0  0  0  0
  191.2220  173.4320  140.2640 C   0  0  0  0  0  2  0  0  0  0  0  0
  189.9210  177.7950  145.4500 C   0  0  0  0  0  2  0  0  0  0  0  0
  190.6950  176.9730  144.5470 N   0  0  1  0  0  0  0  0  0  0  0  0
  192.6280  173.0480  144.5810 C   0  0  0  0  0  0  0  0  0  0  0  0
  191.1310  175.2950  142.0420 C   0  0  1  0  0  3  0  0  0  0  0  0
  190.9240  170.9900  141.2060 C   0  0  0  0  0  2  0  0  0  0  0  0
  194.2800  175.6380  144.1390 C   0  0  1  0  0  3  0  0  0  0  0  0
  191.8700  171.4330  138.9480 C   0  0  0  0  0  1  0  0  0  0  0  0
  190.4520  177.4280  143.1830 C   0  0  0  0  0  2  0  0  0  0  0  0
  188.5920  176.9030  147.1520 O   0  0  0  0  0  0  0  0  0  0  0  0
  189.9330  176.2110  142.4050 C   0  0  2  0  0  3  0  0  0  0  0  0
  194.4840  174.5920  145.2500 C   0  0  0  0  0  2  0  0  0  0  0  0
  195.1500  176.2470  141.8760 C   0  0  0  0  0  3  0  0  0  0  0  0
  195.0640  175.3070  142.9060 C   0  0  0  0  0  0  0  0  0  0  0  0
  195.6880  174.0630  142.7560 C   0  0  0  0  0  3  0  0  0  0  0  0
  196.9930  172.5800  141.4260 F   0  0  0  0  0  0  0  0  0  0  0  0
  196.4610  174.7150  140.5940 N   0  0  0  0  0  0  0  0  0  0  0  0
  196.3870  173.7820  141.5820 C   0  0  0  0  0  0  0  0  0  0  0  0
  195.8620  175.9300  140.7170 C   0  0  0  0  0  3  0  0  0  0  0  0
  186.6650  176.0210  142.7780 C   0  0  0  0  0  2  0  0  0  0  0  0
  185.6380  177.1410  142.8350 C   0  0  0  0  0  1  0  0  0  0  0  0
  1  4  1  0  0  0  0
  2 17  1  0  0  0  0
  2 22  1  0  0  0  0
  3 20  1  0  0  0  0
  4 36  1  6  0  0  0
  4 12  1  0  0  0  0
  6  9  1  0  0  0  0
  6 11  2  0  0  0  0
  7  3  1  0  0  0  0
  7 10  1  0  0  0  0
  8 26  2  0  0  0  0
  9  3  2  0  0  0  0
 10 23  1  0  0  0  0
 10  5  1  1  0  0  0
 11 16  1  0  0  0  0
 12  8  1  0  0  0  0
 13 17  1  6  0  0  0
 13 21  1  0  0  0  0
 13  9  1  0  0  0  0
 14  2  1  0  0  0  0
 16 20  2  0  0  0  0
 18  8  1  0  0  0  0
 19 25  1  6  0  0  0
 19  5  1  0  0  0  0
 19 18  1  0  0  0  0
 20 15  1  0  0  0  0
 21 27  1  0  0  0  0
 21  7  1  1  0  0  0
 22  6  1  0  0  0  0
 23 30  1  6  0  0  0
 23 28  1  0  0  0  0
 24  2  1  0  0  0  0
 27  1  1  0  0  0  0
 27 25  1  1  0  0  0
 28 15  1  0  0  0  0
 29 30  1  0  0  0  0
 31 30  2  0  0  0  0
 32 34  1  0  0  0  0
 33 35  1  0  0  0  0
 33 34  2  0  0  0  0
 34 31  1  0  0  0  0
 35 29  2  0  0  0  0
 36 37  1  0  0  0  0
M  END
>  <MODEL>
2

>  <REMARK>
 VINA RESULT:      -7.5      2.326      3.111
  Name = 
  2 active torsions:
  status: ('A' for Active; 'I' for Inactive)
    1  A    between atoms: C_4  and  C_36
    2  A    between atoms: C_23  and  C_30
                            x       y       z     vdW  Elec       q    Type
                         _______ _______ _______ _____ _____    ______ ____

>  <TORSDO>
F 2

$$$$
=
 OpenBabel11112417273D

 37 43  0  0  1  0  0  0  0  0999 V2000
  190.0560  175.9520  143.7960 O   0  0  0  0  0  0  0  0  0  0  0  0
  194.8820  175.3570  145.4750 C   0  0  0  0  0  0  0  0  0  0  0  0
  192.6810  174.4700  142.0920 C   0  0  0  0  0  0  0  0  0  0  0  0
  188.7610  176.4770  143.9840 C   0  0  2  0  0  3  0  0  0  0  0  0
  189.5810  172.9880  141.3890 C   0  0  0  0  0  2  0  0  0  0  0  0
  194.5770  175.6560  142.9400 C   0  0  0  0  0  0  0  0  0  0  0  0
  191.6490  173.6640  142.6190 N   0  0  0  0  0  0  0  0  0  0  0  0
  187.7920  176.0620  141.5900 C   0  0  0  0  0  0  0  0  0  0  0  0
  193.2890  175.1660  143.0870 C   0  0  0  0  0  0  0  0  0  0  0  0
  190.9460  172.5610  141.9500 C   0  0  2  0  0  3  0  0  0  0  0  0
  195.1640  175.6260  141.6630 C   0  0  0  0  0  3  0  0  0  0  0  0
  188.2070  177.0480  142.6700 C   0  0  0  0  0  2  0  0  0  0  0  0
  192.6140  174.9770  144.3890 C   0  0  2  0  0  3  0  0  0  0  0  0
  194.5600  176.4140  146.5130 C   0  0  0  0  0  1  0  0  0  0  0  0
  192.4500  173.7910  139.6920 C   0  0  0  0  0  2  0  0  0  0  0  0
  194.4650  175.0370  140.5850 C   0  0  0  0  0  3  0  0  0  0  0  0
  193.6620  174.4070  145.3380 C   0  0  0  0  0  2  0  0  0  0  0  0
  187.7630  174.5650  141.7580 C   0  0  0  0  0  2  0  0  0  0  0  0
  189.0710  174.1100  142.1760 N   0  0  1  0  0  0  0  0  0  0  0  0
  193.2130  174.4280  140.8040 C   0  0  0  0  0  0  0  0  0  0  0  0
  191.4730  173.9830  144.0460 C   0  0  1  0  0  3  0  0  0  0  0  0
  195.3280  176.0790  144.1690 C   0  0  0  0  0  2  0  0  0  0  0  0
  191.8210  171.6650  141.0570 C   0  0  1  0  0  3  0  0  0  0  0  0
  196.0510  174.5400  145.9840 C   0  0  0  0  0  1  0  0  0  0  0  0
  189.0100  173.7700  143.5930 C   0  0  0  0  0  2  0  0  0  0  0  0
  187.4410  176.5170  140.5150 O   0  0  0  0  0  0  0  0  0  0  0  0
  190.0800  174.6220  144.2900 C   0  0  2  0  0  3  0  0  0  0  0  0
  192.4510  172.2680  139.7880 C   0  0  0  0  0  2  0  0  0  0  0  0
  194.1470  170.8280  141.4330 C   0  0  0  0  0  3  0  0  0  0  0  0
  192.8170  170.8820  141.8570 C   0  0  0  0  0  0  0  0  0  0  0  0
  192.4340  170.1810  143.0070 C   0  0  0  0  0  3  0  0  0  0  0  0
  193.0240  168.7600  144.8240 F   0  0  0  0  0  0  0  0  0  0  0  0
  194.6750  169.4080  143.2800 N   0  0  0  0  0  0  0  0  0  0  0  0
  193.3850  169.4430  143.7110 C   0  0  0  0  0  0  0  0  0  0  0  0
  195.0710  170.0800  142.1650 C   0  0  0  0  0  3  0  0  0  0  0  0
  188.7740  177.5430  145.0750 C   0  0  0  0  0  2  0  0  0  0  0  0
  187.9480  177.1340  146.2830 C   0  0  0  0  0  1  0  0  0  0  0  0
  1  4  1  0  0  0  0
  1 27  1  0  0  0  0
  2 24  1  0  0  0  0
  2 14  1  0  0  0  0
  3  7  1  0  0  0  0
  3  9  1  0  0  0  0
  4 36  1  1  0  0  0
  6  9  2  0  0  0  0
  6 22  1  0  0  0  0
  8 18  1  0  0  0  0
  8 12  1  0  0  0  0
  9 13  1  0  0  0  0
 10  5  1  6  0  0  0
 10  7  1  0  0  0  0
 11  6  1  0  0  0  0
 12  4  1  0  0  0  0
 13 17  1  1  0  0  0
 15 28  1  0  0  0  0
 15 20  1  0  0  0  0
 16 20  1  0  0  0  0
 16 11  2  0  0  0  0
 17  2  1  0  0  0  0
 18 19  1  0  0  0  0
 19  5  1  6  0  0  0
 19 25  1  0  0  0  0
 20  3  2  0  0  0  0
 21  7  1  6  0  0  0
 21 27  1  0  0  0  0
 21 13  1  0  0  0  0
 22  2  1  0  0  0  0
 23 30  1  1  0  0  0
 23 10  1  0  0  0  0
 26  8  2  0  0  0  0
 27 25  1  6  0  0  0
 28 23  1  0  0  0  0
 29 30  2  0  0  0  0
 29 35  1  0  0  0  0
 30 31  1  0  0  0  0
 31 34  2  0  0  0  0
 33 34  1  0  0  0  0
 34 32  1  0  0  0  0
 35 33  2  0  0  0  0
 36 37  1  0  0  0  0
M  END
>  <MODEL>
3

>  <REMARK>
 VINA RESULT:      -7.2      2.444      5.654
  Name = 
  2 active torsions:
  status: ('A' for Active; 'I' for Inactive)
    1  A    between atoms: C_4  and  C_36
    2  A    between atoms: C_23  and  C_30
                            x       y       z     vdW  Elec       q    Type
                         _______ _______ _______ _____ _____    ______ ____

>  <TORSDO>
F 2

$$$$
=
 OpenBabel11112417273D

 37 43  0  0  1  0  0  0  0  0999 V2000
  194.2310  175.5390  143.6180 O   0  0  0  0  0  0  0  0  0  0  0  0
  189.2030  176.3860  144.2900 C   0  0  0  0  0  0  0  0  0  0  0  0
  191.6560  173.2850  143.0890 C   0  0  0  0  0  0  0  0  0  0  0  0
  195.5640  175.9840  143.7340 C   0  0  2  0  0  3  0  0  0  0  0  0
  194.3200  172.8710  140.8470 C   0  0  0  0  0  2  0  0  0  0  0  0
  190.0260  173.9850  144.6950 C   0  0  0  0  0  0  0  0  0  0  0  0
  192.3230  173.8530  141.9830 N   0  0  0  0  0  0  0  0  0  0  0  0
  196.8000  173.7290  143.2560 C   0  0  0  0  0  0  0  0  0  0  0  0
  191.0870  174.2590  143.8470 C   0  0  0  0  0  0  0  0  0  0  0  0
  192.8130  173.1620  140.7830 C   0  0  2  0  0  3  0  0  0  0  0  0
  189.6910  172.6400  144.9360 C   0  0  0  0  0  3  0  0  0  0  0  0
  196.4770  174.8520  144.2280 C   0  0  0  0  0  2  0  0  0  0  0  0
  191.4420  175.6120  143.3680 C   0  0  2  0  0  3  0  0  0  0  0  0
  189.6040  177.5870  145.1240 C   0  0  0  0  0  1  0  0  0  0  0  0
  192.1240  170.8800  142.5690 C   0  0  0  0  0  2  0  0  0  0  0  0
  190.3900  171.6130  144.2620 C   0  0  0  0  0  3  0  0  0  0  0  0
  190.1280  176.3130  143.0460 C   0  0  0  0  0  2  0  0  0  0  0  0
  196.3960  173.7070  141.8050 C   0  0  0  0  0  2  0  0  0  0  0  0
  194.9620  173.8620  141.7090 N   0  0  1  0  0  0  0  0  0  0  0  0
  191.3720  171.9380  143.3050 C   0  0  0  0  0  0  0  0  0  0  0  0
  192.3190  175.3190  142.1220 C   0  0  1  0  0  3  0  0  0  0  0  0
  189.2080  175.1310  145.2130 C   0  0  0  0  0  2  0  0  0  0  0  0
  191.9050  172.0410  140.2490 C   0  0  1  0  0  3  0  0  0  0  0  0
  187.7860  176.6060  143.8020 C   0  0  0  0  0  1  0  0  0  0  0  0
  194.6740  175.2170  141.2520 C   0  0  0  0  0  2  0  0  0  0  0  0
  197.4470  172.7850  143.6780 O   0  0  0  0  0  0  0  0  0  0  0  0
  193.7640  175.8490  142.3150 C   0  0  2  0  0  3  0  0  0  0  0  0
  191.6980  170.7790  141.1080 C   0  0  0  0  0  2  0  0  0  0  0  0
  189.4220  172.2910  140.4000 C   0  0  0  0  0  3  0  0  0  0  0  0
  190.6100  172.5760  139.7210 C   0  0  0  0  0  0  0  0  0  0  0  0
  190.5630  173.3340  138.5440 C   0  0  0  0  0  3  0  0  0  0  0  0
  189.2790  174.5250  136.9320 F   0  0  0  0  0  0  0  0  0  0  0  0
  188.1920  173.5050  138.7510 N   0  0  0  0  0  0  0  0  0  0  0  0
  189.3340  173.7930  138.0710 C   0  0  0  0  0  0  0  0  0  0  0  0
  188.2120  172.7700  139.8950 C   0  0  0  0  0  3  0  0  0  0  0  0
  195.6420  177.1880  144.6690 C   0  0  0  0  0  2  0  0  0  0  0  0
  194.5660  177.1470  145.7410 C   0  0  0  0  0  1  0  0  0  0  0  0
  1  4  1  0  0  0  0
  2 14  1  0  0  0  0
  2 22  1  0  0  0  0
  3 20  2  0  0  0  0
  3  9  1  0  0  0  0
  4 12  1  0  0  0  0
  4 36  1  1  0  0  0
  6 11  1  0  0  0  0
  6 22  1  0  0  0  0
  7  3  1  0  0  0  0
  8 26  2  0  0  0  0
  8 12  1  0  0  0  0
  9  6  2  0  0  0  0
 10  5  1  1  0  0  0
 10  7  1  0  0  0  0
 13 17  1  6  0  0  0
 13  9  1  0  0  0  0
 15 20  1  0  0  0  0
 16 11  2  0  0  0  0
 17  2  1  0  0  0  0
 18  8  1  0  0  0  0
 19  5  1  6  0  0  0
 19 18  1  0  0  0  0
 20 16  1  0  0  0  0
 21  7  1  1  0  0  0
 21 27  1  0  0  0  0
 21 13  1  0  0  0  0
 23 30  1  1  0  0  0
 23 10  1  0  0  0  0
 23 28  1  0  0  0  0
 24  2  1  0  0  0  0
 25 19  1  0  0  0  0
 27 25  1  6  0  0  0
 27  1  1  0  0  0  0
 28 15  1  0  0  0  0
 30 29  2  0  0  0  0
 31 30  1  0  0  0  0
 32 34  1  0  0  0  0
 33 35  2  0  0  0  0
 34 31  2  0  0  0  0
 34 33  1  0  0  0  0
 35 29  1  0  0  0  0
 36 37  1  0  0  0  0
M  END
>  <MODEL>
4

>  <REMARK>
 VINA RESULT:      -7.1      3.450      7.531
  Name = 
  2 active torsions:
  status: ('A' for Active; 'I' for Inactive)
    1  A    between atoms: C_4  and  C_36
    2  A    between atoms: C_23  and  C_30
                            x       y       z     vdW  Elec       q    Type
                         _______ _______ _______ _____ _____    ______ ____

>  <TORSDO>
F 2

$$$$
=
 OpenBabel11112417273D

 37 43  0  0  1  0  0  0  0  0999 V2000
  190.3700  175.2570  144.5970 O   0  0  0  0  0  0  0  0  0  0  0  0
  190.4550  172.5980  140.1960 C   0  0  0  0  0  0  0  0  0  0  0  0
  192.6400  172.8020  143.6970 C   0  0  0  0  0  0  0  0  0  0  0  0
  189.7310  176.1900  145.4410 C   0  0  2  0  0  3  0  0  0  0  0  0
  194.0660  175.3330  145.6620 C   0  0  0  0  0  2  0  0  0  0  0  0
  191.3270  171.3840  142.2860 C   0  0  0  0  0  0  0  0  0  0  0  0
  193.0440  174.1550  143.7100 N   0  0  0  0  0  0  0  0  0  0  0  0
  191.1280  175.8060  147.6190 C   0  0  0  0  0  0  0  0  0  0  0  0
  191.6080  172.6270  142.8300 C   0  0  0  0  0  0  0  0  0  0  0  0
  194.2800  174.7130  144.2730 C   0  0  2  0  0  3  0  0  0  0  0  0
  191.9780  170.2570  142.8200 C   0  0  0  0  0  3  0  0  0  0  0  0
  189.7880  175.7300  146.9050 C   0  0  0  0  0  2  0  0  0  0  0  0
  191.1360  173.9090  142.2650 C   0  0  2  0  0  3  0  0  0  0  0  0
  189.0220  173.0490  139.9950 C   0  0  0  0  0  1  0  0  0  0  0  0
  194.3230  171.9300  145.3330 C   0  0  0  0  0  2  0  0  0  0  0  0
  192.9450  170.4230  143.8370 C   0  0  0  0  0  3  0  0  0  0  0  0
  191.2780  173.7900  140.7520 C   0  0  0  0  0  2  0  0  0  0  0  0
  192.3770  176.4170  147.0390 C   0  0  0  0  0  2  0  0  0  0  0  0
  192.6770  175.7750  145.7790 N   0  0  1  0  0  0  0  0  0  0  0  0
  193.3010  171.7160  144.2680 C   0  0  0  0  0  0  0  0  0  0  0  0
  192.0970  174.9450  142.9050 C   0  0  1  0  0  3  0  0  0  0  0  0
  190.4410  171.3140  141.0770 C   0  0  0  0  0  2  0  0  0  0  0  0
  195.5420  173.8550  144.0750 C   0  0  1  0  0  3  0  0  0  0  0  0
  191.0260  172.2330  138.8410 C   0  0  0  0  0  1  0  0  0  0  0  0
  192.3270  176.6900  144.6990 C   0  0  0  0  0  2  0  0  0  0  0  0
  191.1920  175.3540  148.7500 O   0  0  0  0  0  0  0  0  0  0  0  0
  191.3250  175.9460  143.8060 C   0  0  2  0  0  3  0  0  0  0  0  0
  195.6290  172.4880  144.7790 C   0  0  0  0  0  2  0  0  0  0  0  0
  196.1490  172.5140  142.0540 C   0  0  0  0  0  3  0  0  0  0  0  0
  195.9380  173.7680  142.6330 C   0  0  0  0  0  0  0  0  0  0  0  0
  196.1270  174.9220  141.8620 C   0  0  0  0  0  3  0  0  0  0  0  0
  196.7080  175.9100  139.7750 F   0  0  0  0  0  0  0  0  0  0  0  0
  196.7170  173.5670  139.9870 N   0  0  0  0  0  0  0  0  0  0  0  0
  196.5210  174.8000  140.5290 C   0  0  0  0  0  0  0  0  0  0  0  0
  196.5400  172.4330  140.7160 C   0  0  0  0  0  3  0  0  0  0  0  0
  188.2880  176.4050  144.9970 C   0  0  0  0  0  2  0  0  0  0  0  0
  187.3600  176.6540  146.1750 C   0  0  0  0  0  1  0  0  0  0  0  0
  1  4  1  0  0  0  0
  2 17  1  0  0  0  0
  2 22  1  0  0  0  0
  3  7  1  0  0  0  0
  3 20  1  0  0  0  0
  4 36  1  6  0  0  0
  4 12  1  0  0  0  0
  5 19  1  0  0  0  0
  6 11  2  0  0  0  0
  6  9  1  0  0  0  0
  7 10  1  0  0  0  0
  8 26  2  0  0  0  0
  9  3  2  0  0  0  0
 10  5  1  1  0  0  0
 11 16  1  0  0  0  0
 12  8  1  0  0  0  0
 13 17  1  6  0  0  0
 13  9  1  0  0  0  0
 13 21  1  0  0  0  0
 14  2  1  0  0  0  0
 16 20  2  0  0  0  0
 18  8  1  0  0  0  0
 19 25  1  6  0  0  0
 19 18  1  0  0  0  0
 20 15  1  0  0  0  0
 21  7  1  1  0  0  0
 21 27  1  0  0  0  0
 22  6  1  0  0  0  0
 23 30  1  6  0  0  0
 23 10  1  0  0  0  0
 23 28  1  0  0  0  0
 24  2  1  0  0  0  0
 27  1  1  0  0  0  0
 27 25  1  1  0  0  0
 28 15  1  0  0  0  0
 29 30  1  0  0  0  0
 31 30  2  0  0  0  0
 32 34  1  0  0  0  0
 33 34  2  0  0  0  0
 33 35  1  0  0  0  0
 34 31  1  0  0  0  0
 35 29  2  0  0  0  0
 36 37  1  0  0  0  0
M  END
>  <MODEL>
5

>  <REMARK>
 VINA RESULT:      -7.0      2.946      4.716
  Name = 
  2 active torsions:
  status: ('A' for Active; 'I' for Inactive)
    1  A    between atoms: C_4  and  C_36
    2  A    between atoms: C_23  and  C_30
                            x       y       z     vdW  Elec       q    Type
                         _______ _______ _______ _____ _____    ______ ____

>  <TORSDO>
F 2

$$$$
=
 OpenBabel11112417273D

 37 43  0  0  1  0  0  0  0  0999 V2000
  190.0570  175.9500  143.7960 O   0  0  0  0  0  0  0  0  0  0  0  0
  194.8830  175.3570  145.4740 C   0  0  0  0  0  0  0  0  0  0  0  0
  192.6830  174.4700  142.0910 C   0  0  0  0  0  0  0  0  0  0  0  0
  188.7620  176.4740  143.9850 C   0  0  2  0  0  3  0  0  0  0  0  0
  189.5830  172.9870  141.3880 C   0  0  0  0  0  2  0  0  0  0  0  0
  194.5780  175.6570  142.9390 C   0  0  0  0  0  0  0  0  0  0  0  0
  191.6510  173.6640  142.6180 N   0  0  0  0  0  0  0  0  0  0  0  0
  187.7930  176.0600  141.5910 C   0  0  0  0  0  0  0  0  0  0  0  0
  193.2910  175.1660  143.0860 C   0  0  0  0  0  0  0  0  0  0  0  0
  190.9480  172.5610  141.9500 C   0  0  2  0  0  3  0  0  0  0  0  0
  195.1650  175.6270  141.6620 C   0  0  0  0  0  3  0  0  0  0  0  0
  188.2070  177.0450  142.6710 C   0  0  0  0  0  2  0  0  0  0  0  0
  192.6160  174.9760  144.3880 C   0  0  2  0  0  3  0  0  0  0  0  0
  194.5610  176.4130  146.5120 C   0  0  0  0  0  1  0  0  0  0  0  0
  192.4510  173.7910  139.6910 C   0  0  0  0  0  2  0  0  0  0  0  0
  194.4660  175.0390  140.5840 C   0  0  0  0  0  3  0  0  0  0  0  0
  193.6640  174.4070  145.3370 C   0  0  0  0  0  2  0  0  0  0  0  0
  187.7650  174.5630  141.7590 C   0  0  0  0  0  2  0  0  0  0  0  0
  189.0720  174.1080  142.1760 N   0  0  1  0  0  0  0  0  0  0  0  0
  193.2140  174.4280  140.8030 C   0  0  0  0  0  0  0  0  0  0  0  0
  191.4750  173.9820  144.0450 C   0  0  1  0  0  3  0  0  0  0  0  0
  195.3290  176.0800  144.1680 C   0  0  0  0  0  2  0  0  0  0  0  0
  191.8240  171.6650  141.0560 C   0  0  1  0  0  3  0  0  0  0  0  0
  196.0530  174.5410  145.9830 C   0  0  0  0  0  1  0  0  0  0  0  0
  189.0120  173.7670  143.5930 C   0  0  0  0  0  2  0  0  0  0  0  0
  187.4410  176.5150  140.5160 O   0  0  0  0  0  0  0  0  0  0  0  0
  190.0820  174.6200  144.2900 C   0  0  2  0  0  3  0  0  0  0  0  0
  192.4530  172.2690  139.7870 C   0  0  0  0  0  2  0  0  0  0  0  0
  192.3760  170.0950  142.9220 C   0  0  0  0  0  3  0  0  0  0  0  0
  192.8200  170.8820  141.8560 C   0  0  0  0  0  0  0  0  0  0  0  0
  194.1900  170.9460  141.5720 C   0  0  0  0  0  3  0  0  0  0  0  0
  196.4160  170.2790  142.0910 F   0  0  0  0  0  0  0  0  0  0  0  0
  194.6320  169.4610  143.3880 N   0  0  0  0  0  0  0  0  0  0  0  0
  195.0880  170.2230  142.3570 C   0  0  0  0  0  0  0  0  0  0  0  0
  193.3060  169.3840  143.6820 C   0  0  0  0  0  3  0  0  0  0  0  0
  188.7740  177.5410  145.0760 C   0  0  0  0  0  2  0  0  0  0  0  0
  187.9710  177.1180  146.2950 C   0  0  0  0  0  1  0  0  0  0  0  0
  1  4  1  0  0  0  0
  1 27  1  0  0  0  0
  2 24  1  0  0  0  0
  2 14  1  0  0  0  0
  3  7  1  0  0  0  0
  3  9  1  0  0  0  0
  4 36  1  1  0  0  0
  6  9  2  0  0  0  0
  6 22  1  0  0  0  0
  8 18  1  0  0  0  0
  8 12  1  0  0  0  0
  9 13  1  0  0  0  0
 10  5  1  6  0  0  0
 10  7  1  0  0  0  0
 11  6  1  0  0  0  0
 12  4  1  0  0  0  0
 13 17  1  1  0  0  0
 15 28  1  0  0  0  0
 15 20  1  0  0  0  0
 16 20  1  0  0  0  0
 16 11  2  0  0  0  0
 17  2  1  0  0  0  0
 18 19  1  0  0  0  0
 19  5  1  6  0  0  0
 19 25  1  0  0  0  0
 20  3  2  0  0  0  0
 21  7  1  6  0  0  0
 21 27  1  0  0  0  0
 21 13  1  0  0  0  0
 22  2  1  0  0  0  0
 23 30  1  1  0  0  0
 23 10  1  0  0  0  0
 26  8  2  0  0  0  0
 27 25  1  6  0  0  0
 28 23  1  0  0  0  0
 29 35  1  0  0  0  0
 30 29  2  0  0  0  0
 31 30  1  0  0  0  0
 31 34  2  0  0  0  0
 32 34  1  0  0  0  0
 33 35  2  0  0  0  0
 34 33  1  0  0  0  0
 36 37  1  0  0  0  0
M  END
>  <MODEL>
6

>  <REMARK>
 VINA RESULT:      -7.0      2.439      5.677
  Name = 
  2 active torsions:
  status: ('A' for Active; 'I' for Inactive)
    1  A    between atoms: C_4  and  C_36
    2  A    between atoms: C_23  and  C_30
                            x       y       z     vdW  Elec       q    Type
                         _______ _______ _______ _____ _____    ______ ____

>  <TORSDO>
F 2

$$$$
=
 OpenBabel11112417273D

 37 43  0  0  1  0  0  0  0  0999 V2000
  189.5860  173.3240  140.9410 O   0  0  0  0  0  0  0  0  0  0  0  0
  186.9510  177.7060  141.5010 C   0  0  0  0  0  0  0  0  0  0  0  0
  190.1380  175.7930  143.3050 C   0  0  0  0  0  0  0  0  0  0  0  0
  189.8380  172.1430  140.2130 C   0  0  2  0  0  3  0  0  0  0  0  0
  190.8230  172.5700  144.5050 C   0  0  0  0  0  2  0  0  0  0  0  0
  189.4360  177.7700  142.1550 C   0  0  0  0  0  0  0  0  0  0  0  0
  189.5580  174.5680  143.6990 N   0  0  0  0  0  0  0  0  0  0  0  0
  192.0620  171.4040  141.3760 C   0  0  0  0  0  0  0  0  0  0  0  0
  189.3630  176.4030  142.3720 C   0  0  0  0  0  0  0  0  0  0  0  0
  189.9060  173.7480  144.8670 C   0  0  2  0  0  3  0  0  0  0  0  0
  190.4880  178.4870  142.7520 C   0  0  0  0  0  3  0  0  0  0  0  0
  191.3470  171.8710  140.1180 C   0  0  0  0  0  2  0  0  0  0  0  0
  188.2270  175.5540  141.9550 C   0  0  2  0  0  3  0  0  0  0  0  0
  186.4350  177.4750  140.0940 C   0  0  0  0  0  1  0  0  0  0  0  0
  192.1380  175.7210  144.8120 C   0  0  0  0  0  2  0  0  0  0  0  0
  191.3940  177.8200  143.6070 C   0  0  0  0  0  3  0  0  0  0  0  0
  186.9620  176.3490  142.2550 C   0  0  0  0  0  2  0  0  0  0  0  0
  191.3800  171.0640  142.6760 C   0  0  0  0  0  2  0  0  0  0  0  0
  190.5950  172.1980  143.1100 N   0  0  1  0  0  0  0  0  0  0  0  0
  191.2060  176.4560  143.9090 C   0  0  0  0  0  0  0  0  0  0  0  0
  188.3960  174.2890  142.8380 C   0  0  1  0  0  3  0  0  0  0  0  0
  188.3230  178.4370  141.4010 C   0  0  0  0  0  2  0  0  0  0  0  0
  190.2450  174.5320  146.1470 C   0  0  1  0  0  3  0  0  0  0  0  0
  185.9790  178.6240  142.2120 C   0  0  0  0  0  1  0  0  0  0  0  0
  189.1870  171.9040  142.8700 C   0  0  0  0  0  2  0  0  0  0  0  0
  193.2730  171.2790  141.3240 O   0  0  0  0  0  0  0  0  0  0  0  0
  188.6550  173.0290  141.9710 C   0  0  2  0  0  3  0  0  0  0  0  0
  191.5080  175.4140  146.1670 C   0  0  0  0  0  2  0  0  0  0  0  0
  188.3650  174.7150  147.7850 C   0  0  0  0  0  3  0  0  0  0  0  0
  189.0500  175.2530  146.6920 C   0  0  0  0  0  0  0  0  0  0  0  0
  188.5920  176.4410  146.1100 C   0  0  0  0  0  3  0  0  0  0  0  0
  187.0070  178.2180  146.0740 F   0  0  0  0  0  0  0  0  0  0  0  0
  186.8110  176.5280  147.6970 N   0  0  0  0  0  0  0  0  0  0  0  0
  187.4600  177.0690  146.6310 C   0  0  0  0  0  0  0  0  0  0  0  0
  187.2380  175.3750  148.2790 C   0  0  0  0  0  3  0  0  0  0  0  0
  189.2170  172.2340  138.8230 C   0  0  0  0  0  2  0  0  0  0  0  0
  188.7860  173.6510  138.4830 C   0  0  0  0  0  1  0  0  0  0  0  0
  1 27  1  0  0  0  0
  2 24  1  0  0  0  0
  2 17  1  0  0  0  0
  3  7  1  0  0  0  0
  3 20  1  0  0  0  0
  4 36  1  6  0  0  0
  4  1  1  0  0  0  0
  6  9  1  0  0  0  0
  6 11  2  0  0  0  0
  7 10  1  0  0  0  0
  8 18  1  0  0  0  0
  9  3  2  0  0  0  0
 10  5  1  6  0  0  0
 10 23  1  0  0  0  0
 11 16  1  0  0  0  0
 12  4  1  0  0  0  0
 12  8  1  0  0  0  0
 13 17  1  1  0  0  0
 13  9  1  0  0  0  0
 13 21  1  0  0  0  0
 14  2  1  0  0  0  0
 15 28  1  0  0  0  0
 16 20  2  0  0  0  0
 19 18  1  1  0  0  0
 19  5  1  0  0  0  0
 20 15  1  0  0  0  0
 21  7  1  1  0  0  0
 22  2  1  0  0  0  0
 22  6  1  0  0  0  0
 23 28  1  0  0  0  0
 23 30  1  6  0  0  0
 25 19  1  0  0  0  0
 26  8  2  0  0  0  0
 27 21  1  0  0  0  0
 27 25  1  1  0  0  0
 29 35  1  0  0  0  0
 30 29  2  0  0  0  0
 31 34  2  0  0  0  0
 31 30  1  0  0  0  0
 32 34  1  0  0  0  0
 33 35  2  0  0  0  0
 34 33  1  0  0  0  0
 37 36  1  0  0  0  0
M  END
>  <MODEL>
7

>  <REMARK>
 VINA RESULT:      -6.9      2.781      6.115
  Name = 
  2 active torsions:
  status: ('A' for Active; 'I' for Inactive)
    1  A    between atoms: C_4  and  C_36
    2  A    between atoms: C_23  and  C_30
                            x       y       z     vdW  Elec       q    Type
                         _______ _______ _______ _____ _____    ______ ____

>  <TORSDO>
F 2

$$$$
=
 OpenBabel11112417273D

 37 43  0  0  1  0  0  0  0  0999 V2000
  186.9740  177.8040  146.4300 O   0  0  0  0  0  0  0  0  0  0  0  0
  191.5940  175.5820  146.8510 C   0  0  0  0  0  0  0  0  0  0  0  0
  189.1760  177.0840  143.8560 C   0  0  0  0  0  0  0  0  0  0  0  0
  185.8270  178.3480  147.0440 C   0  0  2  0  0  3  0  0  0  0  0  0
  185.8140  176.7800  142.9070 C   0  0  0  0  0  2  0  0  0  0  0  0
  191.3030  177.2700  144.9350 C   0  0  0  0  0  0  0  0  0  0  0  0
  188.0060  176.3090  144.0100 N   0  0  0  0  0  0  0  0  0  0  0  0
  184.7370  179.4870  144.9570 C   0  0  0  0  0  0  0  0  0  0  0  0
  189.9440  177.0050  144.9740 C   0  0  0  0  0  0  0  0  0  0  0  0
  187.0660  175.8920  142.9610 C   0  0  2  0  0  3  0  0  0  0  0  0
  191.8400  177.8480  143.7710 C   0  0  0  0  0  3  0  0  0  0  0  0
  185.3800  179.6300  146.3270 C   0  0  0  0  0  2  0  0  0  0  0  0
  189.2740  176.2490  146.0540 C   0  0  2  0  0  3  0  0  0  0  0  0
  191.5320  175.9310  148.3250 C   0  0  0  0  0  1  0  0  0  0  0  0
  188.7490  177.8850  141.5220 C   0  0  0  0  0  2  0  0  0  0  0  0
  191.0050  178.0760  142.6540 C   0  0  0  0  0  3  0  0  0  0  0  0
  190.1940  175.0850  146.4000 C   0  0  0  0  0  2  0  0  0  0  0  0
  184.3890  178.1740  144.3050 C   0  0  0  0  0  2  0  0  0  0  0  0
  185.5760  177.3510  144.2320 N   0  0  1  0  0  0  0  0  0  0  0  0
  189.6570  177.6670  142.6850 C   0  0  0  0  0  0  0  0  0  0  0  0
  187.9370  175.8160  145.3950 C   0  0  1  0  0  3  0  0  0  0  0  0
  192.1560  176.8150  146.0840 C   0  0  0  0  0  2  0  0  0  0  0  0
  187.7070  175.5010  141.6170 C   0  0  1  0  0  3  0  0  0  0  0  0
  192.5700  174.4360  146.6820 C   0  0  0  0  0  1  0  0  0  0  0  0
  185.4760  176.3050  145.2430 C   0  0  0  0  0  2  0  0  0  0  0  0
  184.4690  180.5090  144.3490 O   0  0  0  0  0  0  0  0  0  0  0  0
  186.7210  176.4400  146.1310 C   0  0  2  0  0  3  0  0  0  0  0  0
  188.4220  176.5860  140.7920 C   0  0  0  0  0  2  0  0  0  0  0  0
  187.9830  173.1310  142.3620 C   0  0  0  0  0  3  0  0  0  0  0  0
  188.5270  174.2530  141.7320 C   0  0  0  0  0  0  0  0  0  0  0  0
  189.8390  174.1990  141.2450 C   0  0  0  0  0  3  0  0  0  0  0  0
  191.8500  172.9650  140.9290 F   0  0  0  0  0  0  0  0  0  0  0  0
  190.0270  171.9460  142.0090 N   0  0  0  0  0  0  0  0  0  0  0  0
  190.5800  173.0270  141.3950 C   0  0  0  0  0  0  0  0  0  0  0  0
  188.7550  171.9740  142.4900 C   0  0  0  0  0  3  0  0  0  0  0  0
  186.0960  178.6200  148.5210 C   0  0  0  0  0  2  0  0  0  0  0  0
  187.4390  179.2970  148.7410 C   0  0  0  0  0  1  0  0  0  0  0  0
  1  4  1  0  0  0  0
  2 14  1  0  0  0  0
  3  7  1  0  0  0  0
  3  9  1  0  0  0  0
  4 36  1  1  0  0  0
  6  9  2  0  0  0  0
  6 22  1  0  0  0  0
  8 12  1  0  0  0  0
  9 13  1  0  0  0  0
 10  5  1  6  0  0  0
 10  7  1  0  0  0  0
 11  6  1  0  0  0  0
 12  4  1  0  0  0  0
 13 17  1  6  0  0  0
 15 20  1  0  0  0  0
 16 20  1  0  0  0  0
 16 11  2  0  0  0  0
 17  2  1  0  0  0  0
 18  8  1  0  0  0  0
 19  5  1  6  0  0  0
 19 18  1  0  0  0  0
 19 25  1  0  0  0  0
 20  3  2  0  0  0  0
 21  7  1  6  0  0  0
 21 13  1  0  0  0  0
 21 27  1  0  0  0  0
 22  2  1  0  0  0  0
 23 30  1  1  0  0  0
 23 10  1  0  0  0  0
 24  2  1  0  0  0  0
 26  8  2  0  0  0  0
 27 25  1  6  0  0  0
 27  1  1  0  0  0  0
 28 15  1  0  0  0  0
 28 23  1  0  0  0  0
 29 35  1  0  0  0  0
 30 29  2  0  0  0  0
 31 34  2  0  0  0  0
 31 30  1  0  0  0  0
 32 34  1  0  0  0  0
 33 35  2  0  0  0  0
 34 33  1  0  0  0  0
 36 37  1  0  0  0  0
M  END
>  <MODEL>
8

>  <REMARK>
 VINA RESULT:      -6.8      2.353      5.649
  Name = 
  2 active torsions:
  status: ('A' for Active; 'I' for Inactive)
    1  A    between atoms: C_4  and  C_36
    2  A    between atoms: C_23  and  C_30
                            x       y       z     vdW  Elec       q    Type
                         _______ _______ _______ _____ _____    ______ ____

>  <TORSDO>
F 2

$$$$
=
 OpenBabel11112417273D

 37 43  0  0  1  0  0  0  0  0999 V2000
  193.9840  174.8530  143.5510 O   0  0  0  0  0  0  0  0  0  0  0  0
  190.4910  176.6310  146.8820 C   0  0  0  0  0  0  0  0  0  0  0  0
  190.6720  173.8760  143.8080 C   0  0  0  0  0  0  0  0  0  0  0  0
  195.3170  174.8170  143.0920 C   0  0  2  0  0  3  0  0  0  0  0  0
  191.8660  173.8160  140.5110 C   0  0  0  0  0  2  0  0  0  0  0  0
  190.2260  174.1850  146.1380 C   0  0  0  0  0  0  0  0  0  0  0  0
  191.0800  174.6780  142.7210 N   0  0  0  0  0  0  0  0  0  0  0  0
  195.1410  172.7820  141.4580 C   0  0  0  0  0  0  0  0  0  0  0  0
  190.9160  174.5140  144.9820 C   0  0  0  0  0  0  0  0  0  0  0  0
  190.7420  174.5010  141.3030 C   0  0  2  0  0  3  0  0  0  0  0  0
  189.4320  173.0240  146.1370 C   0  0  0  0  0  3  0  0  0  0  0  0
  195.7290  173.3840  142.7230 C   0  0  0  0  0  2  0  0  0  0  0  0
  191.6460  175.7840  144.7810 C   0  0  2  0  0  3  0  0  0  0  0  0
  191.6580  177.1660  147.6880 C   0  0  0  0  0  1  0  0  0  0  0  0
  189.7850  171.9410  142.4880 C   0  0  0  0  0  2  0  0  0  0  0  0
  189.3000  172.2680  144.9510 C   0  0  0  0  0  3  0  0  0  0  0  0
  190.7720  176.8810  145.3760 C   0  0  0  0  0  2  0  0  0  0  0  0
  194.2830  173.5300  140.4700 C   0  0  0  0  0  2  0  0  0  0  0  0
  193.1460  174.0940  141.1610 N   0  0  1  0  0  0  0  0  0  0  0  0
  189.9090  172.7100  143.7590 C   0  0  0  0  0  0  0  0  0  0  0  0
  191.7870  175.8620  143.2380 C   0  0  1  0  0  3  0  0  0  0  0  0
  190.2590  175.1460  147.2910 C   0  0  0  0  0  2  0  0  0  0  0  0
  189.3020  174.0360  141.0200 C   0  0  1  0  0  3  0  0  0  0  0  0
  189.2570  177.4230  147.2610 C   0  0  0  0  0  1  0  0  0  0  0  0
  193.3580  175.5300  141.3050 C   0  0  0  0  0  2  0  0  0  0  0  0
  195.3950  171.6150  141.2160 O   0  0  0  0  0  0  0  0  0  0  0  0
  193.2770  175.8330  142.8080 C   0  0  2  0  0  3  0  0  0  0  0  0
  188.8700  172.6320  141.4810 C   0  0  0  0  0  2  0  0  0  0  0  0
  187.7500  175.0810  142.6770 C   0  0  0  0  0  3  0  0  0  0  0  0
  188.2950  175.0820  141.3910 C   0  0  0  0  0  0  0  0  0  0  0  0
  187.8710  176.0420  140.4650 C   0  0  0  0  0  3  0  0  0  0  0  0
  186.4940  177.9160  139.9520 F   0  0  0  0  0  0  0  0  0  0  0  0
  186.3980  176.9640  142.1010 N   0  0  0  0  0  0  0  0  0  0  0  0
  186.9120  176.9830  140.8410 C   0  0  0  0  0  0  0  0  0  0  0  0
  186.7940  176.0410  143.0170 C   0  0  0  0  0  3  0  0  0  0  0  0
  196.2570  175.3950  144.1460 C   0  0  0  0  0  2  0  0  0  0  0  0
  195.6910  175.2590  145.5500 C   0  0  0  0  0  1  0  0  0  0  0  0
  2 24  1  0  0  0  0
  2 22  1  0  0  0  0
  2 14  1  0  0  0  0
  3  9  1  0  0  0  0
  4  1  1  0  0  0  0
  4 36  1  1  0  0  0
  5 19  1  0  0  0  0
  6 22  1  0  0  0  0
  7  3  1  0  0  0  0
  8 12  1  0  0  0  0
  9  6  2  0  0  0  0
 10  5  1  1  0  0  0
 10  7  1  0  0  0  0
 11  6  1  0  0  0  0
 12  4  1  0  0  0  0
 13  9  1  0  0  0  0
 13 17  1  6  0  0  0
 15 20  1  0  0  0  0
 16 11  2  0  0  0  0
 17  2  1  0  0  0  0
 18  8  1  0  0  0  0
 19 18  1  6  0  0  0
 19 25  1  0  0  0  0
 20  3  2  0  0  0  0
 20 16  1  0  0  0  0
 21  7  1  6  0  0  0
 21 13  1  0  0  0  0
 23 10  1  0  0  0  0
 23 30  1  1  0  0  0
 23 28  1  0  0  0  0
 26  8  2  0  0  0  0
 27 25  1  6  0  0  0
 27 21  1  0  0  0  0
 27  1  1  0  0  0  0
 28 15  1  0  0  0  0
 29 35  1  0  0  0  0
 30 29  2  0  0  0  0
 31 34  2  0  0  0  0
 31 30  1  0  0  0  0
 32 34  1  0  0  0  0
 33 35  2  0  0  0  0
 34 33  1  0  0  0  0
 36 37  1  0  0  0  0
M  END
>  <MODEL>
9

>  <REMARK>
 VINA RESULT:      -6.8      3.206      7.362
  Name = 
  2 active torsions:
  status: ('A' for Active; 'I' for Inactive)
    1  A    between atoms: C_4  and  C_36
    2  A    between atoms: C_23  and  C_30
                            x       y       z     vdW  Elec       q    Type
                         _______ _______ _______ _____ _____    ______ ____

>  <TORSDO>
F 2

$$$$
