=
 OpenBabel11112417423D

 28 32  0  0  1  0  0  0  0  0999 V2000
  186.1390  178.3620  144.6190 C   0  0  0  0  0  0  0  0  0  0  0  0
  189.2750  178.2020  145.4600 F   0  0  0  0  0  0  0  0  0  0  0  0
  188.0400  173.2960  141.4280 C   0  0  0  0  0  1  0  0  0  0  0  0
  184.3880  177.6160  146.6860 C   0  0  0  0  0  3  0  0  0  0  0  0
  189.6180  174.5680  142.8720 C   0  0  2  0  0  3  0  0  0  0  0  0
  187.0100  178.8400  143.4940 C   0  0  0  0  0  2  0  0  0  0  0  0
  188.3090  177.9140  147.5930 C   0  0  0  0  0  1  0  0  0  0  0  0
  189.1750  177.3020  146.5080 C   0  0  1  0  0  0  0  0  0  0  0  0
  191.4420  176.2060  146.4590 C   0  0  0  0  0  0  0  0  0  0  0  0
  188.5550  175.9570  146.0350 C   0  0  2  0  0  3  0  0  0  0  0  0
  187.7450  177.6660  140.5130 O   0  0  0  0  0  0  0  0  0  0  0  0
  188.1230  176.1870  143.6690 C   0  0  1  0  0  3  0  0  0  0  0  0
  190.9560  175.0010  145.7260 C   0  0  0  0  0  2  0  0  0  0  0  0
  190.5050  177.0960  147.0590 N   0  0  0  0  0  2  0  0  0  0  0  0
  186.8860  177.4910  141.4160 C   0  0  0  0  0  0  0  0  0  0  0  0
  186.3330  177.1270  145.3040 C   0  0  0  0  0  0  0  0  0  0  0  0
  188.4830  174.6770  141.8710 C   0  0  2  0  0  3  0  0  0  0  0  0
  192.6800  176.2560  146.8230 N   0  0  0  0  0  2  0  0  0  0  0  0
  186.5260  176.1670  141.8160 N   0  0  0  0  0  2  0  0  0  0  0  0
  185.4420  176.7750  146.3260 C   0  0  0  0  0  3  0  0  0  0  0  0
  185.0770  179.1960  144.9960 C   0  0  0  0  0  3  0  0  0  0  0  0
  184.2080  178.8280  146.0220 C   0  0  0  0  0  3  0  0  0  0  0  0
  186.3200  178.6630  142.1440 C   0  0  0  0  0  2  0  0  0  0  0  0
  189.4870  175.6720  143.8220 N   0  0  1  0  0  0  0  0  0  0  0  0
  187.3870  175.3400  142.6570 C   0  0  2  0  0  3  0  0  0  0  0  0
  189.5300  175.1410  145.1840 C   0  0  2  0  0  3  0  0  0  0  0  0
  190.9500  174.6660  142.1520 C   0  0  0  0  0  1  0  0  0  0  0  0
  187.4350  176.1260  145.0170 C   0  0  2  0  0  3  0  0  0  0  0  0
  1 21  2  0  0  0  0
  1 16  1  0  0  0  0
  2  8  1  0  0  0  0
  3 17  1  0  0  0  0
  5 27  1  6  0  0  0
  5 24  1  0  0  0  0
  6  1  1  0  0  0  0
  8 14  1  0  0  0  0
  8  7  1  1  0  0  0
  9 18  2  0  0  0  0
  9 14  1  0  0  0  0
 10  8  1  0  0  0  0
 11 15  2  0  0  0  0
 12 24  1  0  0  0  0
 12 28  1  0  0  0  0
 13  9  1  0  0  0  0
 15 19  1  0  0  0  0
 15 23  1  0  0  0  0
 16 20  2  0  0  0  0
 17 25  1  0  0  0  0
 17  5  1  0  0  0  0
 19 25  1  0  0  0  0
 20  4  1  0  0  0  0
 21 22  1  0  0  0  0
 22  4  2  0  0  0  0
 23  6  1  0  0  0  0
 24 26  1  0  0  0  0
 25 12  1  0  0  0  0
 26 13  1  0  0  0  0
 26 10  1  0  0  0  0
 28 16  1  0  0  0  0
 28 10  1  0  0  0  0
M  END
>  <MODEL>
1

>  <REMARK>
 VINA RESULT:      -9.2      0.000      0.000
  Name = 
  0 active torsions:
  status: ('A' for Active; 'I' for Inactive)
                            x       y       z     vdW  Elec       q    Type
                         _______ _______ _______ _____ _____    ______ ____

>  <TORSDO>
F 0

$$$$
=
 OpenBabel11112417423D

 28 32  0  0  1  0  0  0  0  0999 V2000
  190.6900  174.7290  144.5350 C   0  0  0  0  0  0  0  0  0  0  0  0
  188.1740  175.7820  146.3030 F   0  0  0  0  0  0  0  0  0  0  0  0
  187.1200  177.4560  140.1440 C   0  0  0  0  0  1  0  0  0  0  0  0
  193.0410  176.2120  144.9430 C   0  0  0  0  0  3  0  0  0  0  0  0
  186.4160  177.4240  142.5310 C   0  0  2  0  0  3  0  0  0  0  0  0
  189.4920  173.8510  144.3200 C   0  0  0  0  0  2  0  0  0  0  0  0
  189.8890  177.0380  147.3240 C   0  0  0  0  0  1  0  0  0  0  0  0
  188.5960  177.0800  146.5330 C   0  0  1  0  0  0  0  0  0  0  0  0
  186.4030  178.2930  146.7870 C   0  0  0  0  0  0  0  0  0  0  0  0
  188.8200  177.8420  145.1970 C   0  0  2  0  0  3  0  0  0  0  0  0
  187.4820  173.3050  141.7760 O   0  0  0  0  0  0  0  0  0  0  0  0
  188.2700  176.3000  143.4200 C   0  0  1  0  0  3  0  0  0  0  0  0
  186.4150  178.8180  145.3910 C   0  0  0  0  0  2  0  0  0  0  0  0
  187.5930  177.7470  147.3490 N   0  0  0  0  0  2  0  0  0  0  0  0
  188.6110  173.8140  142.0010 C   0  0  0  0  0  0  0  0  0  0  0  0
  190.6610  176.1500  144.4290 C   0  0  0  0  0  0  0  0  0  0  0  0
  187.0470  176.6220  141.4080 C   0  0  2  0  0  3  0  0  0  0  0  0
  185.4350  178.6330  147.5710 N   0  0  0  0  0  2  0  0  0  0  0  0
  188.9590  175.0730  141.4190 N   0  0  0  0  0  2  0  0  0  0  0  0
  191.8490  176.8660  144.6310 C   0  0  0  0  0  3  0  0  0  0  0  0
  191.8960  174.0890  144.8520 C   0  0  0  0  0  3  0  0  0  0  0  0
  193.0640  174.8230  145.0560 C   0  0  0  0  0  3  0  0  0  0  0  0
  189.5480  173.1590  142.9600 C   0  0  0  0  0  2  0  0  0  0  0  0
  187.0410  177.0100  143.7860 N   0  0  1  0  0  0  0  0  0  0  0  0
  188.4330  176.3400  141.9180 C   0  0  2  0  0  3  0  0  0  0  0  0
  187.5010  178.1960  144.5070 C   0  0  2  0  0  3  0  0  0  0  0  0
  184.9240  177.1480  142.5850 C   0  0  0  0  0  1  0  0  0  0  0  0
  189.4380  176.9830  144.1010 C   0  0  2  0  0  3  0  0  0  0  0  0
  1 21  1  0  0  0  0
  2  8  1  0  0  0  0
  3 17  1  0  0  0  0
  4 22  1  0  0  0  0
  5 27  1  1  0  0  0
  5 24  1  0  0  0  0
  6  1  1  0  0  0  0
  8  7  1  1  0  0  0
  8 14  1  0  0  0  0
  9 14  1  0  0  0  0
  9 18  2  0  0  0  0
 10  8  1  0  0  0  0
 11 15  2  0  0  0  0
 12 24  1  0  0  0  0
 12 28  1  0  0  0  0
 13  9  1  0  0  0  0
 15 23  1  0  0  0  0
 16  1  2  0  0  0  0
 16 20  1  0  0  0  0
 17 25  1  0  0  0  0
 17  5  1  0  0  0  0
 19 25  1  0  0  0  0
 19 15  1  0  0  0  0
 20  4  2  0  0  0  0
 21 22  2  0  0  0  0
 23  6  1  0  0  0  0
 24 26  1  0  0  0  0
 25 12  1  0  0  0  0
 26 10  1  0  0  0  0
 26 13  1  0  0  0  0
 28 16  1  0  0  0  0
 28 10  1  0  0  0  0
M  END
>  <MODEL>
2

>  <REMARK>
 VINA RESULT:      -8.0      2.124      5.105
  Name = 
  0 active torsions:
  status: ('A' for Active; 'I' for Inactive)
                            x       y       z     vdW  Elec       q    Type
                         _______ _______ _______ _____ _____    ______ ____

>  <TORSDO>
F 0

$$$$
=
 OpenBabel11112417423D

 28 32  0  0  1  0  0  0  0  0999 V2000
  188.7150  176.2020  144.9000 C   0  0  0  0  0  0  0  0  0  0  0  0
  189.1300  173.0810  144.0900 F   0  0  0  0  0  0  0  0  0  0  0  0
  194.9200  175.5290  145.6190 C   0  0  0  0  0  1  0  0  0  0  0  0
  188.1600  177.8630  142.7040 C   0  0  0  0  0  3  0  0  0  0  0  0
  193.5010  173.6260  144.8700 C   0  0  2  0  0  3  0  0  0  0  0  0
  188.9380  175.3660  146.1260 C   0  0  0  0  0  2  0  0  0  0  0  0
  188.2970  173.8850  142.0350 C   0  0  0  0  0  1  0  0  0  0  0  0
  189.4670  173.2450  142.7570 C   0  0  1  0  0  0  0  0  0  0  0  0
  190.9100  171.2220  142.3440 C   0  0  0  0  0  0  0  0  0  0  0  0
  190.7320  174.1330  142.6030 C   0  0  2  0  0  3  0  0  0  0  0  0
  191.3750  175.1240  148.3200 O   0  0  0  0  0  0  0  0  0  0  0  0
  191.4350  174.7310  144.8360 C   0  0  1  0  0  3  0  0  0  0  0  0
  192.1880  171.9790  142.4860 C   0  0  0  0  0  2  0  0  0  0  0  0
  189.6830  171.9270  142.1790 N   0  0  0  0  0  2  0  0  0  0  0  0
  190.9800  175.9150  147.4240 C   0  0  0  0  0  0  0  0  0  0  0  0
  189.5600  176.1690  143.7540 C   0  0  0  0  0  0  0  0  0  0  0  0
  193.5990  174.8090  145.8140 C   0  0  2  0  0  3  0  0  0  0  0  0
  190.9600  169.9670  142.0440 N   0  0  0  0  0  2  0  0  0  0  0  0
  191.9120  176.4670  146.4920 N   0  0  0  0  0  2  0  0  0  0  0  0
  189.2660  177.0120  142.6740 C   0  0  0  0  0  3  0  0  0  0  0  0
  187.6070  177.0600  144.9120 C   0  0  0  0  0  3  0  0  0  0  0  0
  187.3290  177.8850  143.8220 C   0  0  0  0  0  3  0  0  0  0  0  0
  189.5230  176.1960  147.2660 C   0  0  0  0  0  2  0  0  0  0  0  0
  192.0990  173.4720  144.4850 N   0  0  1  0  0  0  0  0  0  0  0  0
  192.4630  175.6940  145.3830 C   0  0  2  0  0  3  0  0  0  0  0  0
  192.0070  173.4000  143.0280 C   0  0  2  0  0  3  0  0  0  0  0  0
  193.9830  172.3680  145.5700 C   0  0  0  0  0  1  0  0  0  0  0  0
  190.7870  175.2940  143.5890 C   0  0  2  0  0  3  0  0  0  0  0  0
  1 21  1  0  0  0  0
  1  6  1  0  0  0  0
  3 17  1  0  0  0  0
  4 22  1  0  0  0  0
  5 27  1  1  0  0  0
  5 17  1  0  0  0  0
  6 23  1  0  0  0  0
  8  7  1  6  0  0  0
  8  2  1  0  0  0  0
  9 13  1  0  0  0  0
 10  8  1  0  0  0  0
 10 26  1  0  0  0  0
 10 28  1  0  0  0  0
 12 25  1  0  0  0  0
 13 26  1  0  0  0  0
 14  9  1  0  0  0  0
 14  8  1  0  0  0  0
 15 11  2  0  0  0  0
 16  1  2  0  0  0  0
 18  9  2  0  0  0  0
 19 15  1  0  0  0  0
 20  4  2  0  0  0  0
 20 16  1  0  0  0  0
 22 21  2  0  0  0  0
 23 15  1  0  0  0  0
 24 12  1  0  0  0  0
 24  5  1  0  0  0  0
 25 17  1  0  0  0  0
 25 19  1  0  0  0  0
 26 24  1  0  0  0  0
 28 16  1  0  0  0  0
 28 12  1  0  0  0  0
M  END
>  <MODEL>
3

>  <REMARK>
 VINA RESULT:      -7.9      3.105      5.710
  Name = 
  0 active torsions:
  status: ('A' for Active; 'I' for Inactive)
                            x       y       z     vdW  Elec       q    Type
                         _______ _______ _______ _____ _____    ______ ____

>  <TORSDO>
F 0

$$$$
=
 OpenBabel11112417423D

 28 32  0  0  1  0  0  0  0  0999 V2000
  188.3150  176.1190  145.5400 C   0  0  0  0  0  0  0  0  0  0  0  0
  189.2550  173.7540  143.5170 F   0  0  0  0  0  0  0  0  0  0  0  0
  194.5090  177.1170  145.2300 C   0  0  0  0  0  1  0  0  0  0  0  0
  186.9240  178.1970  144.2590 C   0  0  0  0  0  3  0  0  0  0  0  0
  193.4430  175.2660  143.9530 C   0  0  2  0  0  3  0  0  0  0  0  0
  188.9870  175.0130  146.3000 C   0  0  0  0  0  2  0  0  0  0  0  0
  187.8310  174.9380  142.0570 C   0  0  0  0  0  1  0  0  0  0  0  0
  189.2460  174.4650  142.3300 C   0  0  1  0  0  0  0  0  0  0  0  0
  190.9940  173.2430  140.9890 C   0  0  0  0  0  0  0  0  0  0  0  0
  190.2060  175.6850  142.4000 C   0  0  2  0  0  3  0  0  0  0  0  0
  191.8310  174.7570  147.9290 O   0  0  0  0  0  0  0  0  0  0  0  0
  191.2210  175.6440  144.5920 C   0  0  1  0  0  3  0  0  0  0  0  0
  192.0600  174.2460  141.2750 C   0  0  0  0  0  2  0  0  0  0  0  0
  189.6310  173.5620  141.2560 N   0  0  0  0  0  2  0  0  0  0  0  0
  191.0780  175.6550  147.4710 C   0  0  0  0  0  0  0  0  0  0  0  0
  188.8730  176.7420  144.3870 C   0  0  0  0  0  0  0  0  0  0  0  0
  193.4670  176.0160  145.2710 C   0  0  2  0  0  3  0  0  0  0  0  0
  191.2670  172.2480  140.2130 N   0  0  0  0  0  2  0  0  0  0  0  0
  191.6310  176.7500  146.7360 N   0  0  0  0  0  2  0  0  0  0  0  0
  188.1630  177.7810  143.7700 C   0  0  0  0  0  3  0  0  0  0  0  0
  187.0680  176.5470  146.0150 C   0  0  0  0  0  3  0  0  0  0  0  0
  186.3750  177.5780  145.3800 C   0  0  0  0  0  3  0  0  0  0  0  0
  189.5970  175.5260  147.6020 C   0  0  0  0  0  2  0  0  0  0  0  0
  192.0650  174.8470  143.6980 N   0  0  1  0  0  0  0  0  0  0  0  0
  192.0910  176.6150  145.3570 C   0  0  2  0  0  3  0  0  0  0  0  0
  191.6770  175.2650  142.3520 C   0  0  2  0  0  3  0  0  0  0  0  0
  194.3440  174.0470  144.0370 C   0  0  0  0  0  1  0  0  0  0  0  0
  190.2030  176.3870  143.7520 C   0  0  2  0  0  3  0  0  0  0  0  0
  1 21  1  0  0  0  0
  1  6  1  0  0  0  0
  3 17  1  0  0  0  0
  4 22  1  0  0  0  0
  5 27  1  1  0  0  0
  5 17  1  0  0  0  0
  6 23  1  0  0  0  0
  8  7  1  6  0  0  0
  8 10  1  0  0  0  0
  8  2  1  0  0  0  0
  9 14  1  0  0  0  0
  9 13  1  0  0  0  0
 10 28  1  0  0  0  0
 12 25  1  0  0  0  0
 13 26  1  0  0  0  0
 14  8  1  0  0  0  0
 15 23  1  0  0  0  0
 15 11  2  0  0  0  0
 16  1  2  0  0  0  0
 17 25  1  0  0  0  0
 18  9  2  0  0  0  0
 19 15  1  0  0  0  0
 20  4  2  0  0  0  0
 20 16  1  0  0  0  0
 22 21  2  0  0  0  0
 24  5  1  0  0  0  0
 24 12  1  0  0  0  0
 25 19  1  0  0  0  0
 26 10  1  0  0  0  0
 26 24  1  0  0  0  0
 28 16  1  0  0  0  0
 28 12  1  0  0  0  0
M  END
>  <MODEL>
4

>  <REMARK>
 VINA RESULT:      -7.9      2.822      5.397
  Name = 
  0 active torsions:
  status: ('A' for Active; 'I' for Inactive)
                            x       y       z     vdW  Elec       q    Type
                         _______ _______ _______ _____ _____    ______ ____

>  <TORSDO>
F 0

$$$$
=
 OpenBabel11112417423D

 28 32  0  0  1  0  0  0  0  0999 V2000
  190.4980  175.0880  143.4630 C   0  0  0  0  0  0  0  0  0  0  0  0
  188.6660  177.1730  141.7710 F   0  0  0  0  0  0  0  0  0  0  0  0
  186.1680  176.7000  147.7200 C   0  0  0  0  0  1  0  0  0  0  0  0
  190.1540  172.4100  142.6840 C   0  0  0  0  0  3  0  0  0  0  0  0
  186.1200  177.6480  145.4190 C   0  0  2  0  0  3  0  0  0  0  0  0
  190.7840  176.4990  143.8830 C   0  0  0  0  0  2  0  0  0  0  0  0
  188.3210  175.2400  140.4650 C   0  0  0  0  0  1  0  0  0  0  0  0
  187.6810  176.3000  141.3410 C   0  0  1  0  0  0  0  0  0  0  0  0
  185.7030  177.8400  141.0990 C   0  0  0  0  0  0  0  0  0  0  0  0
  186.9640  175.6270  142.5440 C   0  0  2  0  0  3  0  0  0  0  0  0
  190.2290  178.2290  146.6240 O   0  0  0  0  0  0  0  0  0  0  0  0
  187.9790  176.5210  144.5450 C   0  0  1  0  0  3  0  0  0  0  0  0
  185.1080  177.4470  142.4090 C   0  0  0  0  0  2  0  0  0  0  0  0
  186.7370  177.0460  140.5240 N   0  0  0  0  0  2  0  0  0  0  0  0
  190.2500  177.0280  146.2470 C   0  0  0  0  0  0  0  0  0  0  0  0
  189.1870  174.5340  143.3830 C   0  0  0  0  0  0  0  0  0  0  0  0
  187.0080  177.2550  146.5850 C   0  0  2  0  0  3  0  0  0  0  0  0
  185.0670  178.6810  140.3540 N   0  0  0  0  0  2  0  0  0  0  0  0
  189.1990  176.1370  146.6310 N   0  0  0  0  0  2  0  0  0  0  0  0
  189.0420  173.1940  142.9980 C   0  0  0  0  0  3  0  0  0  0  0  0
  191.6020  174.2870  143.1400 C   0  0  0  0  0  3  0  0  0  0  0  0
  191.4330  172.9580  142.7520 C   0  0  0  0  0  3  0  0  0  0  0  0
  191.3140  176.5560  145.3140 C   0  0  0  0  0  2  0  0  0  0  0  0
  186.8630  177.4000  144.1840 N   0  0  1  0  0  0  0  0  0  0  0  0
  187.8770  176.1710  146.0120 C   0  0  2  0  0  3  0  0  0  0  0  0
  186.0390  176.5990  143.2810 C   0  0  2  0  0  3  0  0  0  0  0  0
  185.7630  179.1200  145.5170 C   0  0  0  0  0  1  0  0  0  0  0  0
  187.9000  175.2720  143.6920 C   0  0  2  0  0  3  0  0  0  0  0  0
  1  6  1  0  0  0  0
  4 22  2  0  0  0  0
  4 20  1  0  0  0  0
  5 27  1  1  0  0  0
  5 17  1  0  0  0  0
  6 23  1  0  0  0  0
  8  7  1  6  0  0  0
  8  2  1  0  0  0  0
  8 10  1  0  0  0  0
  9 13  1  0  0  0  0
 10 26  1  0  0  0  0
 10 28  1  0  0  0  0
 12 25  1  0  0  0  0
 13 26  1  0  0  0  0
 14  9  1  0  0  0  0
 14  8  1  0  0  0  0
 15 11  2  0  0  0  0
 15 19  1  0  0  0  0
 16  1  1  0  0  0  0
 16 28  1  0  0  0  0
 17  3  1  0  0  0  0
 18  9  2  0  0  0  0
 20 16  2  0  0  0  0
 21  1  2  0  0  0  0
 22 21  1  0  0  0  0
 23 15  1  0  0  0  0
 24 12  1  0  0  0  0
 24  5  1  0  0  0  0
 25 17  1  0  0  0  0
 25 19  1  0  0  0  0
 26 24  1  0  0  0  0
 28 12  1  0  0  0  0
M  END
>  <MODEL>
5

>  <REMARK>
 VINA RESULT:      -7.8      2.139      6.297
  Name = 
  0 active torsions:
  status: ('A' for Active; 'I' for Inactive)
                            x       y       z     vdW  Elec       q    Type
                         _______ _______ _______ _____ _____    ______ ____

>  <TORSDO>
F 0

$$$$
=
 OpenBabel11112417423D

 28 32  0  0  1  0  0  0  0  0999 V2000
  188.8650  175.9430  144.7080 C   0  0  0  0  0  0  0  0  0  0  0  0
  191.7920  176.9020  143.6700 F   0  0  0  0  0  0  0  0  0  0  0  0
  190.1950  171.5290  140.4400 C   0  0  0  0  0  1  0  0  0  0  0  0
  188.9000  174.8450  147.2940 C   0  0  0  0  0  3  0  0  0  0  0  0
  191.7960  173.3730  140.9200 C   0  0  2  0  0  3  0  0  0  0  0  0
  188.7590  176.5810  143.3540 C   0  0  0  0  0  2  0  0  0  0  0  0
  192.3200  176.5000  145.9330 C   0  0  0  0  0  1  0  0  0  0  0  0
  192.5840  176.1160  144.4900 C   0  0  1  0  0  0  0  0  0  0  0  0
  194.6530  175.8310  143.0820 C   0  0  0  0  0  0  0  0  0  0  0  0
  192.2790  174.6060  144.2830 C   0  0  2  0  0  3  0  0  0  0  0  0
  188.0560  175.4580  140.3450 O   0  0  0  0  0  0  0  0  0  0  0  0
  190.5660  174.4710  142.5850 C   0  0  1  0  0  3  0  0  0  0  0  0
  194.2630  174.4730  142.6020 C   0  0  0  0  0  2  0  0  0  0  0  0
  193.9780  176.4100  144.1950 N   0  0  0  0  0  2  0  0  0  0  0  0
  187.9500  175.0900  141.5430 C   0  0  0  0  0  0  0  0  0  0  0  0
  189.7900  174.9070  145.0270 C   0  0  0  0  0  0  0  0  0  0  0  0
  190.3360  173.0120  140.7230 C   0  0  2  0  0  3  0  0  0  0  0  0
  195.7890  176.3180  142.7120 N   0  0  0  0  0  2  0  0  0  0  0  0
  188.3210  173.7610  141.9200 N   0  0  0  0  0  2  0  0  0  0  0  0
  189.7830  174.3710  146.3220 C   0  0  0  0  0  3  0  0  0  0  0  0
  187.9880  176.4090  145.6970 C   0  0  0  0  0  3  0  0  0  0  0  0
  188.0050  175.8650  146.9820 C   0  0  0  0  0  3  0  0  0  0  0  0
  187.5400  176.0680  142.5920 C   0  0  0  0  0  2  0  0  0  0  0  0
  191.8650  174.4510  141.9060 N   0  0  1  0  0  0  0  0  0  0  0  0
  189.7130  173.3430  142.0510 C   0  0  2  0  0  3  0  0  0  0  0  0
  192.8210  174.0860  142.9490 C   0  0  2  0  0  3  0  0  0  0  0  0
  192.3920  173.8420  139.6050 C   0  0  0  0  0  1  0  0  0  0  0  0
  190.8010  174.3050  144.0710 C   0  0  2  0  0  3  0  0  0  0  0  0
  1 16  2  0  0  0  0
  1 21  1  0  0  0  0
  2  8  1  0  0  0  0
  3 17  1  0  0  0  0
  5 27  1  6  0  0  0
  5 24  1  0  0  0  0
  6  1  1  0  0  0  0
  8  7  1  1  0  0  0
  9 14  1  0  0  0  0
 10  8  1  0  0  0  0
 11 15  2  0  0  0  0
 12 28  1  0  0  0  0
 13 26  1  0  0  0  0
 13  9  1  0  0  0  0
 14  8  1  0  0  0  0
 15 19  1  0  0  0  0
 15 23  1  0  0  0  0
 16 20  1  0  0  0  0
 17  5  1  0  0  0  0
 17 25  1  0  0  0  0
 18  9  2  0  0  0  0
 19 25  1  0  0  0  0
 20  4  2  0  0  0  0
 21 22  2  0  0  0  0
 22  4  1  0  0  0  0
 23  6  1  0  0  0  0
 24 12  1  0  0  0  0
 24 26  1  0  0  0  0
 25 12  1  0  0  0  0
 26 10  1  0  0  0  0
 28 10  1  0  0  0  0
 28 16  1  0  0  0  0
M  END
>  <MODEL>
6

>  <REMARK>
 VINA RESULT:      -7.8      2.488      3.866
  Name = 
  0 active torsions:
  status: ('A' for Active; 'I' for Inactive)
                            x       y       z     vdW  Elec       q    Type
                         _______ _______ _______ _____ _____    ______ ____

>  <TORSDO>
F 0

$$$$
=
 OpenBabel11112417423D

 28 32  0  0  1  0  0  0  0  0999 V2000
  188.0550  176.9710  145.0390 C   0  0  0  0  0  0  0  0  0  0  0  0
  191.2040  177.4850  144.4200 F   0  0  0  0  0  0  0  0  0  0  0  0
  189.3700  172.2020  141.1670 C   0  0  0  0  0  1  0  0  0  0  0  0
  187.5680  176.0160  147.6370 C   0  0  0  0  0  3  0  0  0  0  0  0
  191.1220  173.8450  141.8190 C   0  0  2  0  0  3  0  0  0  0  0  0
  188.2330  177.5450  143.6640 C   0  0  0  0  0  2  0  0  0  0  0  0
  191.3420  177.1390  146.7490 C   0  0  0  0  0  1  0  0  0  0  0  0
  191.7550  176.6470  145.3740 C   0  0  1  0  0  0  0  0  0  0  0  0
  193.9460  176.0210  144.3020 C   0  0  0  0  0  0  0  0  0  0  0  0
  191.2800  175.1810  145.1740 C   0  0  2  0  0  3  0  0  0  0  0  0
  187.8220  176.3660  140.6230 O   0  0  0  0  0  0  0  0  0  0  0  0
  189.8260  175.1800  143.2440 C   0  0  1  0  0  3  0  0  0  0  0  0
  193.4470  174.7020  143.8150 C   0  0  0  0  0  2  0  0  0  0  0  0
  193.2040  176.7420  145.2810 N   0  0  0  0  0  2  0  0  0  0  0  0
  187.4970  176.0780  141.8040 C   0  0  0  0  0  0  0  0  0  0  0  0
  188.7740  175.8420  145.5270 C   0  0  0  0  0  0  0  0  0  0  0  0
  189.6690  173.6670  141.4190 C   0  0  2  0  0  3  0  0  0  0  0  0
  195.1800  176.3370  144.0900 N   0  0  0  0  0  2  0  0  0  0  0  0
  187.6250  174.7340  142.2760 N   0  0  0  0  0  2  0  0  0  0  0  0
  188.5080  175.3810  146.8240 C   0  0  0  0  0  3  0  0  0  0  0  0
  187.1170  177.5990  145.8700 C   0  0  0  0  0  3  0  0  0  0  0  0
  186.8750  177.1270  147.1600 C   0  0  0  0  0  3  0  0  0  0  0  0
  187.0770  177.1550  142.7460 C   0  0  0  0  0  2  0  0  0  0  0  0
  191.1940  174.9560  142.7680 N   0  0  1  0  0  0  0  0  0  0  0  0
  188.9130  174.1460  142.6270 C   0  0  2  0  0  3  0  0  0  0  0  0
  191.9320  174.5250  143.9550 C   0  0  2  0  0  3  0  0  0  0  0  0
  191.9590  174.1620  140.5930 C   0  0  0  0  0  1  0  0  0  0  0  0
  189.8200  175.0640  144.7540 C   0  0  2  0  0  3  0  0  0  0  0  0
  1 16  2  0  0  0  0
  1 21  1  0  0  0  0
  2  8  1  0  0  0  0
  3 17  1  0  0  0  0
  5 27  1  6  0  0  0
  5 24  1  0  0  0  0
  6  1  1  0  0  0  0
  8  7  1  1  0  0  0
  9 14  1  0  0  0  0
 10  8  1  0  0  0  0
 11 15  2  0  0  0  0
 12 28  1  0  0  0  0
 13 26  1  0  0  0  0
 13  9  1  0  0  0  0
 14  8  1  0  0  0  0
 15 19  1  0  0  0  0
 15 23  1  0  0  0  0
 16 20  1  0  0  0  0
 17  5  1  0  0  0  0
 17 25  1  0  0  0  0
 18  9  2  0  0  0  0
 19 25  1  0  0  0  0
 20  4  2  0  0  0  0
 21 22  2  0  0  0  0
 22  4  1  0  0  0  0
 23  6  1  0  0  0  0
 24 12  1  0  0  0  0
 24 26  1  0  0  0  0
 25 12  1  0  0  0  0
 26 10  1  0  0  0  0
 28 10  1  0  0  0  0
 28 16  1  0  0  0  0
M  END
>  <MODEL>
7

>  <REMARK>
 VINA RESULT:      -7.6      1.749      2.604
  Name = 
  0 active torsions:
  status: ('A' for Active; 'I' for Inactive)
                            x       y       z     vdW  Elec       q    Type
                         _______ _______ _______ _____ _____    ______ ____

>  <TORSDO>
F 0

$$$$
=
 OpenBabel11112417423D

 28 32  0  0  1  0  0  0  0  0999 V2000
  190.8280  175.0590  142.1730 C   0  0  0  0  0  0  0  0  0  0  0  0
  188.8710  177.5650  142.8460 F   0  0  0  0  0  0  0  0  0  0  0  0
  191.1910  175.2910  148.4400 C   0  0  0  0  0  1  0  0  0  0  0  0
  189.4480  172.7510  141.3580 C   0  0  0  0  0  3  0  0  0  0  0  0
  189.7730  176.9000  147.1770 C   0  0  2  0  0  3  0  0  0  0  0  0
  191.6340  176.2730  142.5320 C   0  0  0  0  0  2  0  0  0  0  0  0
  187.2920  176.1280  141.8440 C   0  0  0  0  0  1  0  0  0  0  0  0
  187.7030  176.8680  143.1030 C   0  0  1  0  0  0  0  0  0  0  0  0
  186.5300  178.4110  144.7120 C   0  0  0  0  0  0  0  0  0  0  0  0
  187.8970  175.8590  144.2690 C   0  0  2  0  0  3  0  0  0  0  0  0
  193.5480  177.0770  145.0810 O   0  0  0  0  0  0  0  0  0  0  0  0
  190.1830  176.0940  145.0150 C   0  0  1  0  0  3  0  0  0  0  0  0
  186.9460  177.6350  145.9170 C   0  0  0  0  0  2  0  0  0  0  0  0
  186.6580  177.8310  143.4170 N   0  0  0  0  0  2  0  0  0  0  0  0
  193.0300  176.0500  144.5700 C   0  0  0  0  0  0  0  0  0  0  0  0
  189.7520  174.5590  142.9620 C   0  0  0  0  0  0  0  0  0  0  0  0
  191.1010  176.1660  147.2050 C   0  0  2  0  0  3  0  0  0  0  0  0
  185.7680  179.4410  144.8680 N   0  0  0  0  0  2  0  0  0  0  0  0
  192.3780  175.0860  145.4010 N   0  0  0  0  0  2  0  0  0  0  0  0
  189.0850  173.4020  142.5380 C   0  0  0  0  0  3  0  0  0  0  0  0
  191.1780  174.3940  140.9890 C   0  0  0  0  0  3  0  0  0  0  0  0
  190.4930  173.2490  140.5830 C   0  0  0  0  0  3  0  0  0  0  0  0
  193.0020  175.8870  143.0880 C   0  0  0  0  0  2  0  0  0  0  0  0
  189.3680  177.0420  145.7790 N   0  0  1  0  0  0  0  0  0  0  0  0
  191.0530  175.3100  145.9710 C   0  0  2  0  0  3  0  0  0  0  0  0
  187.9960  176.5590  145.6260 C   0  0  2  0  0  3  0  0  0  0  0  0
  189.9290  178.2710  147.8090 C   0  0  0  0  0  1  0  0  0  0  0  0
  189.2540  175.1670  144.2580 C   0  0  2  0  0  3  0  0  0  0  0  0
  1  6  1  0  0  0  0
  1 16  1  0  0  0  0
  2  8  1  0  0  0  0
  4 20  1  0  0  0  0
  5 17  1  0  0  0  0
  5 27  1  6  0  0  0
  6 23  1  0  0  0  0
  8  7  1  6  0  0  0
  8 14  1  0  0  0  0
  8 10  1  0  0  0  0
  9 18  2  0  0  0  0
  9 13  1  0  0  0  0
 10 26  1  0  0  0  0
 12 24  1  0  0  0  0
 12 25  1  0  0  0  0
 14  9  1  0  0  0  0
 15 11  2  0  0  0  0
 15 19  1  0  0  0  0
 16 28  1  0  0  0  0
 17  3  1  0  0  0  0
 19 25  1  0  0  0  0
 20 16  2  0  0  0  0
 21  1  2  0  0  0  0
 22 21  1  0  0  0  0
 22  4  2  0  0  0  0
 23 15  1  0  0  0  0
 24  5  1  0  0  0  0
 25 17  1  0  0  0  0
 26 24  1  0  0  0  0
 26 13  1  0  0  0  0
 28 10  1  0  0  0  0
 28 12  1  0  0  0  0
M  END
>  <MODEL>
8

>  <REMARK>
 VINA RESULT:      -7.3      2.216      6.020
  Name = 
  0 active torsions:
  status: ('A' for Active; 'I' for Inactive)
                            x       y       z     vdW  Elec       q    Type
                         _______ _______ _______ _____ _____    ______ ____

>  <TORSDO>
F 0

$$$$
=
 OpenBabel11112417423D

 28 32  0  0  1  0  0  0  0  0999 V2000
  191.0180  175.8340  145.2300 C   0  0  0  0  0  0  0  0  0  0  0  0
  193.7880  176.2730  143.5860 F   0  0  0  0  0  0  0  0  0  0  0  0
  192.7620  169.9060  144.0990 C   0  0  0  0  0  1  0  0  0  0  0  0
  191.2410  176.4140  147.9700 C   0  0  0  0  0  3  0  0  0  0  0  0
  194.1450  171.8210  143.3160 C   0  0  2  0  0  3  0  0  0  0  0  0
  190.8080  175.5750  143.7670 C   0  0  0  0  0  2  0  0  0  0  0  0
  194.4110  177.2790  145.6270 C   0  0  0  0  0  1  0  0  0  0  0  0
  194.6850  176.1640  144.6350 C   0  0  1  0  0  0  0  0  0  0  0  0
  196.7400  175.3020  143.4620 C   0  0  0  0  0  0  0  0  0  0  0  0
  194.5560  174.7860  145.3420 C   0  0  2  0  0  3  0  0  0  0  0  0
  190.1730  172.8840  141.9880 O   0  0  0  0  0  0  0  0  0  0  0  0
  192.8320  173.5640  144.1700 C   0  0  1  0  0  3  0  0  0  0  0  0
  196.5020  173.8860  143.8670 C   0  0  0  0  0  2  0  0  0  0  0  0
  196.0270  176.3530  144.1070 N   0  0  0  0  0  2  0  0  0  0  0  0
  190.1390  173.2570  143.1900 C   0  0  0  0  0  0  0  0  0  0  0  0
  192.0660  175.2470  145.9970 C   0  0  0  0  0  0  0  0  0  0  0  0
  192.7330  171.2920  143.4830 C   0  0  2  0  0  3  0  0  0  0  0  0
  197.8030  175.5850  142.7860 N   0  0  0  0  0  2  0  0  0  0  0  0
  190.6720  172.4170  144.2170 N   0  0  0  0  0  2  0  0  0  0  0  0
  192.1510  175.5460  147.3640 C   0  0  0  0  0  3  0  0  0  0  0  0
  190.1150  176.7050  145.8550 C   0  0  0  0  0  3  0  0  0  0  0  0
  190.2250  176.9950  147.2150 C   0  0  0  0  0  3  0  0  0  0  0  0
  189.6400  174.6200  143.5350 C   0  0  0  0  0  2  0  0  0  0  0  0
  194.1080  173.2700  143.5120 N   0  0  1  0  0  0  0  0  0  0  0  0
  192.1060  172.2660  144.4410 C   0  0  2  0  0  3  0  0  0  0  0  0
  195.1250  173.6470  144.4940 C   0  0  2  0  0  3  0  0  0  0  0  0
  194.6520  171.5050  141.9210 C   0  0  0  0  0  1  0  0  0  0  0  0
  193.1180  174.2950  145.4650 C   0  0  2  0  0  3  0  0  0  0  0  0
  1 21  2  0  0  0  0
  1 16  1  0  0  0  0
  2  8  1  0  0  0  0
  5 27  1  6  0  0  0
  5 17  1  0  0  0  0
  5 24  1  0  0  0  0
  6  1  1  0  0  0  0
  8 10  1  0  0  0  0
  8  7  1  1  0  0  0
  9 13  1  0  0  0  0
  9 14  1  0  0  0  0
 10 28  1  0  0  0  0
 11 15  2  0  0  0  0
 12 25  1  0  0  0  0
 12 28  1  0  0  0  0
 13 26  1  0  0  0  0
 14  8  1  0  0  0  0
 15 23  1  0  0  0  0
 15 19  1  0  0  0  0
 16 20  2  0  0  0  0
 17  3  1  0  0  0  0
 17 25  1  0  0  0  0
 18  9  2  0  0  0  0
 19 25  1  0  0  0  0
 20  4  1  0  0  0  0
 21 22  1  0  0  0  0
 22  4  2  0  0  0  0
 23  6  1  0  0  0  0
 24 12  1  0  0  0  0
 24 26  1  0  0  0  0
 26 10  1  0  0  0  0
 28 16  1  0  0  0  0
M  END
>  <MODEL>
9

>  <REMARK>
 VINA RESULT:      -7.2      3.956      5.907
  Name = 
  0 active torsions:
  status: ('A' for Active; 'I' for Inactive)
                            x       y       z     vdW  Elec       q    Type
                         _______ _______ _______ _____ _____    ______ ____

>  <TORSDO>
F 0

$$$$
