=
 OpenBabel11112417333D

 37 41  0  0  1  0  0  0  0  0999 V2000
  189.2820  176.5030  145.0880 C   0  0  1  0  0  3  0  0  0  0  0  0
  190.6210  174.4560  142.2980 O   0  0  0  0  0  0  0  0  0  0  0  0
  187.2130  177.9210  145.4670 C   0  0  2  0  0  3  0  0  0  0  0  0
  189.1530  175.7470  143.8200 C   0  0  2  0  0  3  0  0  0  0  0  0
  188.5690  177.7880  144.7490 C   0  0  2  0  0  3  0  0  0  0  0  0
  190.4600  174.9600  143.6080 C   0  0  1  0  0  3  0  0  0  0  0  0
  187.3270  177.5490  146.9570 C   0  0  0  0  0  2  0  0  0  0  0  0
  188.4100  177.8770  143.3490 O   0  0  0  0  0  0  0  0  0  0  0  0
  189.5590  174.7350  146.6560 C   0  0  0  0  0  2  0  0  0  0  0  0
  188.4670  176.6700  147.2480 N   0  0  0  0  0  2  0  0  0  0  0  0
  188.3630  173.8960  141.9620 O   0  0  0  0  0  0  0  0  0  0  0  0
  189.6880  173.4210  142.0510 C   0  0  0  0  0  2  0  0  0  0  0  0
  188.6360  175.7660  146.1820 N   0  0  1  0  0  0  0  0  0  0  0  0
  188.9280  176.7430  142.7700 N   0  0  2  0  0  0  0  0  0  0  0  0
  190.7200  173.9350  144.6410 N   0  0  0  0  0  0  0  0  0  0  0  0
  188.3660  174.9860  141.0820 C   0  0  0  0  0  2  0  0  0  0  0  0
  187.9120  176.2530  141.8140 C   0  0  2  0  0  3  0  0  0  0  0  0
  189.6930  173.6040  145.6370 C   0  0  0  0  0  2  0  0  0  0  0  0
  192.2750  172.0200  144.4180 C   0  0  0  0  0  3  0  0  0  0  0  0
  192.0370  173.3600  144.7710 C   0  0  0  0  0  0  0  0  0  0  0  0
  193.1100  174.1310  145.2510 C   0  0  0  0  0  3  0  0  0  0  0  0
  195.7080  174.5540  145.9770 Cl  0  0  0  0  0  0  0  0  0  0  0  0
  194.6080  172.2440  145.0230 C   0  0  0  0  0  3  0  0  0  0  0  0
  194.3870  173.5770  145.3770 C   0  0  0  0  0  0  0  0  0  0  0  0
  193.5520  171.4660  144.5440 C   0  0  0  0  0  3  0  0  0  0  0  0
  187.6250  177.3440  140.7620 C   0  0  0  0  0  2  0  0  0  0  0  0
  186.3020  177.2580  140.1230 N   0  0  0  0  0  0  0  0  0  0  0  0
  184.0460  178.0070  140.2470 N   0  0  0  0  0  1  0  0  0  0  0  0
  185.4150  178.2920  140.6420 C   0  0  0  0  0  2  0  0  0  0  0  0
  186.4210  177.4340  138.6820 C   0  0  0  0  0  2  0  0  0  0  0  0
  186.6170  176.0900  138.0050 C   0  0  0  0  0  2  0  0  0  0  0  0
  187.0380  176.2760  136.6880 O   0  0  0  0  0  1  0  0  0  0  0  0
  186.2470  177.1000  144.8560 O   0  0  0  0  0  0  0  0  0  0  0  0
  185.0740  177.8600  144.6800 C   0  0  0  0  0  0  0  0  0  0  0  0
  184.1910  177.6580  145.7300 F   0  0  0  0  0  0  0  0  0  0  0  0
  185.3720  179.2100  144.5720 F   0  0  0  0  0  0  0  0  0  0  0  0
  184.4560  177.4520  143.5130 F   0  0  0  0  0  0  0  0  0  0  0  0
  1 13  1  0  0  0  0
  2  6  1  0  0  0  0
  3  7  1  0  0  0  0
  4  1  1  0  0  0  0
  5  1  1  0  0  0  0
  5  3  1  0  0  0  0
  6  4  1  0  0  0  0
  6 15  1  0  0  0  0
  7 10  1  0  0  0  0
  8  5  1  0  0  0  0
 11 12  1  0  0  0  0
 12  2  1  0  0  0  0
 13  9  1  0  0  0  0
 13 10  1  0  0  0  0
 14  8  1  0  0  0  0
 14  4  1  0  0  0  0
 15 20  1  0  0  0  0
 15 18  1  0  0  0  0
 16 17  1  0  0  0  0
 16 11  1  0  0  0  0
 17 14  1  0  0  0  0
 18  9  1  0  0  0  0
 19 25  2  0  0  0  0
 19 20  1  0  0  0  0
 20 21  2  0  0  0  0
 21 24  1  0  0  0  0
 23 24  2  0  0  0  0
 24 22  1  0  0  0  0
 25 23  1  0  0  0  0
 26 17  1  0  0  0  0
 27 29  1  0  0  0  0
 27 26  1  0  0  0  0
 28 29  1  0  0  0  0
 30 27  1  0  0  0  0
 31 30  1  0  0  0  0
 32 31  1  0  0  0  0
 33  3  1  0  0  0  0
 34 33  1  0  0  0  0
 34 35  1  0  0  0  0
 36 34  1  0  0  0  0
 37 34  1  0  0  0  0
M  END
>  <MODEL>
1

>  <REMARK>
 VINA RESULT:      -7.1      0.000      0.000
  Name = 
  8 active torsions:
  status: ('A' for Active; 'I' for Inactive)
    1  A    between atoms: C_1  and  N_4
    2  A    between atoms: C_1  and  C_27
    3  A    between atoms: C_2  and  O_22
    4  A    between atoms: N_4  and  C_12
    5  A    between atoms: N_4  and  C_37
    6  A    between atoms: C_6  and  O_22
    7  A    between atoms: C_8  and  C_12
    8  A    between atoms: N_23  and  C_30
                            x       y       z     vdW  Elec       q    Type
                         _______ _______ _______ _____ _____    ______ ____

>  <TORSDO>
F 8

$$$$
=
 OpenBabel11112417333D

 37 41  0  0  1  0  0  0  0  0999 V2000
  190.8490  173.9260  143.2070 C   0  0  1  0  0  3  0  0  0  0  0  0
  192.2420  175.0350  146.4620 O   0  0  0  0  0  0  0  0  0  0  0  0
  188.8480  174.5570  141.7810 C   0  0  2  0  0  3  0  0  0  0  0  0
  190.9970  174.8870  144.3250 C   0  0  2  0  0  3  0  0  0  0  0  0
  189.3490  173.8610  143.0600 C   0  0  2  0  0  3  0  0  0  0  0  0
  192.1810  174.4180  145.1930 C   0  0  1  0  0  3  0  0  0  0  0  0
  189.6950  174.1600  140.5570 C   0  0  0  0  0  2  0  0  0  0  0  0
  188.7440  174.4180  144.2080 O   0  0  0  0  0  0  0  0  0  0  0  0
  192.9470  174.1610  142.1110 C   0  0  0  0  0  2  0  0  0  0  0  0
  191.0410  173.6940  140.9120 N   0  0  0  0  0  2  0  0  0  0  0  0
  191.5520  177.1630  145.7450 O   0  0  0  0  0  0  0  0  0  0  0  0
  192.5830  176.4010  146.3290 C   0  0  0  0  0  2  0  0  0  0  0  0
  191.5160  174.4430  142.0050 N   0  0  1  0  0  0  0  0  0  0  0  0
  189.7290  174.8640  145.0570 N   0  0  2  0  0  0  0  0  0  0  0  0
  193.4840  174.4360  144.4940 N   0  0  0  0  0  0  0  0  0  0  0  0
  190.3660  176.8570  146.4260 C   0  0  0  0  0  2  0  0  0  0  0  0
  189.3510  176.2350  145.4610 C   0  0  2  0  0  3  0  0  0  0  0  0
  193.6080  175.0470  143.1650 C   0  0  0  0  0  2  0  0  0  0  0  0
  195.7800  174.4030  145.4230 C   0  0  0  0  0  3  0  0  0  0  0  0
  194.6090  173.7220  145.0490 C   0  0  0  0  0  0  0  0  0  0  0  0
  194.5540  172.3290  145.2270 C   0  0  0  0  0  3  0  0  0  0  0  0
  195.5520  169.9000  145.9770 Cl  0  0  0  0  0  0  0  0  0  0  0  0
  196.7980  172.3250  146.1310 C   0  0  0  0  0  3  0  0  0  0  0  0
  195.6410  171.6340  145.7640 C   0  0  0  0  0  0  0  0  0  0  0  0
  196.8680  173.7090  145.9610 C   0  0  0  0  0  3  0  0  0  0  0  0
  187.9750  176.2070  146.1570 C   0  0  0  0  0  2  0  0  0  0  0  0
  186.8610  176.7350  145.3530 N   0  0  0  0  0  0  0  0  0  0  0  0
  185.9540  177.1850  147.5070 N   0  0  0  0  0  1  0  0  0  0  0  0
  185.6390  176.7890  146.1450 C   0  0  0  0  0  2  0  0  0  0  0  0
  187.1650  178.0800  144.8850 C   0  0  0  0  0  2  0  0  0  0  0  0
  185.9640  178.6660  144.1630 C   0  0  0  0  0  2  0  0  0  0  0  0
  185.7100  179.9560  144.6290 O   0  0  0  0  0  1  0  0  0  0  0  0
  188.8790  175.9550  141.9340 O   0  0  0  0  0  0  0  0  0  0  0  0
  187.6520  176.4740  141.4740 C   0  0  0  0  0  0  0  0  0  0  0  0
  187.4380  176.1360  140.1470 F   0  0  0  0  0  0  0  0  0  0  0  0
  186.6000  176.0130  142.2510 F   0  0  0  0  0  0  0  0  0  0  0  0
  187.6950  177.8520  141.5670 F   0  0  0  0  0  0  0  0  0  0  0  0
  1  4  1  0  0  0  0
  3 33  1  0  0  0  0
  3  5  1  0  0  0  0
  4 14  1  0  0  0  0
  4  6  1  0  0  0  0
  5  1  1  0  0  0  0
  5  8  1  0  0  0  0
  6  2  1  0  0  0  0
  7 10  1  0  0  0  0
  7  3  1  0  0  0  0
  8 14  1  0  0  0  0
  9 18  1  0  0  0  0
 10 13  1  0  0  0  0
 11 12  1  0  0  0  0
 11 16  1  0  0  0  0
 12  2  1  0  0  0  0
 13  9  1  0  0  0  0
 13  1  1  0  0  0  0
 14 17  1  0  0  0  0
 15 20  1  0  0  0  0
 15  6  1  0  0  0  0
 17 26  1  0  0  0  0
 17 16  1  0  0  0  0
 18 15  1  0  0  0  0
 19 25  1  0  0  0  0
 20 21  1  0  0  0  0
 20 19  2  0  0  0  0
 21 24  2  0  0  0  0
 24 22  1  0  0  0  0
 24 23  1  0  0  0  0
 25 23  2  0  0  0  0
 27 29  1  0  0  0  0
 27 26  1  0  0  0  0
 29 28  1  0  0  0  0
 30 27  1  0  0  0  0
 31 32  1  0  0  0  0
 31 30  1  0  0  0  0
 34 37  1  0  0  0  0
 34 33  1  0  0  0  0
 34 36  1  0  0  0  0
 35 34  1  0  0  0  0
M  END
>  <MODEL>
2

>  <REMARK>
 VINA RESULT:      -7.1      2.718      5.050
  Name = 
  8 active torsions:
  status: ('A' for Active; 'I' for Inactive)
    1  A    between atoms: C_1  and  N_4
    2  A    between atoms: C_1  and  C_27
    3  A    between atoms: C_2  and  O_22
    4  A    between atoms: N_4  and  C_12
    5  A    between atoms: N_4  and  C_37
    6  A    between atoms: C_6  and  O_22
    7  A    between atoms: C_8  and  C_12
    8  A    between atoms: N_23  and  C_30
                            x       y       z     vdW  Elec       q    Type
                         _______ _______ _______ _____ _____    ______ ____

>  <TORSDO>
F 8

$$$$
=
 OpenBabel11112417333D

 37 41  0  0  1  0  0  0  0  0999 V2000
  190.5780  176.5860  144.8290 C   0  0  1  0  0  3  0  0  0  0  0  0
  190.3650  174.7810  141.5940 O   0  0  0  0  0  0  0  0  0  0  0  0
  188.9190  177.3850  146.5720 C   0  0  2  0  0  3  0  0  0  0  0  0
  189.8950  175.7230  143.8370 C   0  0  2  0  0  3  0  0  0  0  0  0
  189.4960  177.5840  145.1590 C   0  0  2  0  0  3  0  0  0  0  0  0
  190.9310  175.3240  142.7690 C   0  0  1  0  0  3  0  0  0  0  0  0
  190.0360  177.1850  147.6140 C   0  0  0  0  0  2  0  0  0  0  0  0
  188.4800  177.5090  144.1830 O   0  0  0  0  0  0  0  0  0  0  0  0
  192.2410  175.1050  145.6650 C   0  0  0  0  0  2  0  0  0  0  0  0
  191.2890  176.6920  147.0280 N   0  0  0  0  0  2  0  0  0  0  0  0
  188.6560  173.5770  142.6680 O   0  0  0  0  0  0  0  0  0  0  0  0
  189.8090  173.5070  141.8600 C   0  0  0  0  0  2  0  0  0  0  0  0
  190.9910  175.7890  145.9910 N   0  0  1  0  0  0  0  0  0  0  0  0
  188.8030  176.5240  143.2790 N   0  0  2  0  0  0  0  0  0  0  0  0
  192.0460  174.5040  143.2880 N   0  0  0  0  0  0  0  0  0  0  0  0
  187.8120  174.5480  142.1130 C   0  0  0  0  0  2  0  0  0  0  0  0
  187.5950  175.6900  143.1110 C   0  0  2  0  0  3  0  0  0  0  0  0
  192.0090  173.9790  144.6580 C   0  0  0  0  0  2  0  0  0  0  0  0
  193.5780  173.0900  141.9510 C   0  0  0  0  0  3  0  0  0  0  0  0
  193.2460  174.3390  142.5030 C   0  0  0  0  0  0  0  0  0  0  0  0
  194.1060  175.4270  142.2750 C   0  0  0  0  0  3  0  0  0  0  0  0
  196.3250  176.6380  141.2410 Cl  0  0  0  0  0  0  0  0  0  0  0  0
  195.5850  174.0230  140.9720 C   0  0  0  0  0  3  0  0  0  0  0  0
  195.2680  175.2710  141.5140 C   0  0  0  0  0  0  0  0  0  0  0  0
  194.7410  172.9330  141.1910 C   0  0  0  0  0  3  0  0  0  0  0  0
  186.4300  176.5630  142.6020 C   0  0  0  0  0  2  0  0  0  0  0  0
  186.8310  177.7160  141.7800 N   0  0  0  0  0  0  0  0  0  0  0  0
  185.1900  177.8330  140.0600 N   0  0  0  0  0  1  0  0  0  0  0  0
  186.5590  177.4600  140.3710 C   0  0  0  0  0  2  0  0  0  0  0  0
  186.0940  178.9070  142.1810 C   0  0  0  0  0  2  0  0  0  0  0  0
  185.4230  178.6800  143.5230 C   0  0  0  0  0  2  0  0  0  0  0  0
  185.7130  179.7360  144.3870 O   0  0  0  0  0  1  0  0  0  0  0  0
  188.0530  176.2760  146.6020 O   0  0  0  0  0  0  0  0  0  0  0  0
  186.7520  176.7430  146.8780 C   0  0  0  0  0  0  0  0  0  0  0  0
  185.8590  176.3300  145.9010 F   0  0  0  0  0  0  0  0  0  0  0  0
  186.3230  176.3030  148.1210 F   0  0  0  0  0  0  0  0  0  0  0  0
  186.7730  178.1250  146.8860 F   0  0  0  0  0  0  0  0  0  0  0  0
  1  5  1  0  0  0  0
  1 13  1  0  0  0  0
  2 12  1  0  0  0  0
  2  6  1  0  0  0  0
  3 33  1  0  0  0  0
  3  7  1  0  0  0  0
  4  1  1  0  0  0  0
  5  3  1  0  0  0  0
  6 15  1  0  0  0  0
  6  4  1  0  0  0  0
  8  5  1  0  0  0  0
  9 13  1  0  0  0  0
 10  7  1  0  0  0  0
 12 11  1  0  0  0  0
 13 10  1  0  0  0  0
 14  4  1  0  0  0  0
 14  8  1  0  0  0  0
 15 18  1  0  0  0  0
 16 11  1  0  0  0  0
 16 17  1  0  0  0  0
 17 14  1  0  0  0  0
 18  9  1  0  0  0  0
 19 20  1  0  0  0  0
 20 15  1  0  0  0  0
 21 20  2  0  0  0  0
 22 24  1  0  0  0  0
 23 25  1  0  0  0  0
 23 24  2  0  0  0  0
 24 21  1  0  0  0  0
 25 19  2  0  0  0  0
 26 17  1  0  0  0  0
 27 30  1  0  0  0  0
 27 26  1  0  0  0  0
 28 29  1  0  0  0  0
 29 27  1  0  0  0  0
 30 31  1  0  0  0  0
 31 32  1  0  0  0  0
 33 34  1  0  0  0  0
 34 37  1  0  0  0  0
 34 36  1  0  0  0  0
 35 34  1  0  0  0  0
M  END
>  <MODEL>
3

>  <REMARK>
 VINA RESULT:      -7.0      2.346      3.129
  Name = 
  8 active torsions:
  status: ('A' for Active; 'I' for Inactive)
    1  A    between atoms: C_1  and  N_4
    2  A    between atoms: C_1  and  C_27
    3  A    between atoms: C_2  and  O_22
    4  A    between atoms: N_4  and  C_12
    5  A    between atoms: N_4  and  C_37
    6  A    between atoms: C_6  and  O_22
    7  A    between atoms: C_8  and  C_12
    8  A    between atoms: N_23  and  C_30
                            x       y       z     vdW  Elec       q    Type
                         _______ _______ _______ _____ _____    ______ ____

>  <TORSDO>
F 8

$$$$
=
 OpenBabel11112417333D

 37 41  0  0  1  0  0  0  0  0999 V2000
  189.6170  174.4300  142.7260 C   0  0  1  0  0  3  0  0  0  0  0  0
  191.2790  175.3690  145.9080 O   0  0  0  0  0  0  0  0  0  0  0  0
  187.7630  175.4010  141.2930 C   0  0  2  0  0  3  0  0  0  0  0  0
  189.9860  175.3880  143.7940 C   0  0  2  0  0  3  0  0  0  0  0  0
  188.1330  174.6750  142.5990 C   0  0  2  0  0  3  0  0  0  0  0  0
  191.0640  174.7220  144.6710 C   0  0  1  0  0  3  0  0  0  0  0  0
  188.4820  174.7800  140.0810 C   0  0  0  0  0  2  0  0  0  0  0  0
  187.6830  175.3980  143.7250 O   0  0  0  0  0  0  0  0  0  0  0  0
  191.6940  174.1700  141.5970 C   0  0  0  0  0  2  0  0  0  0  0  0
  189.7080  174.0590  140.4440 N   0  0  0  0  0  2  0  0  0  0  0  0
  191.0340  177.5600  145.0950 O   0  0  0  0  0  0  0  0  0  0  0  0
  191.8950  176.6260  145.7040 C   0  0  0  0  0  2  0  0  0  0  0  0
  190.3520  174.7400  141.4930 N   0  0  1  0  0  0  0  0  0  0  0  0
  188.7570  175.6660  144.5400 N   0  0  2  0  0  0  0  0  0  0  0  0
  192.3270  174.4340  143.9580 N   0  0  0  0  0  0  0  0  0  0  0  0
  189.8250  177.5410  145.8030 C   0  0  0  0  0  2  0  0  0  0  0  0
  188.6820  177.1020  144.8810 C   0  0  2  0  0  3  0  0  0  0  0  0
  192.5480  174.9440  142.6000 C   0  0  0  0  0  2  0  0  0  0  0  0
  193.0070  172.1520  144.6380 C   0  0  0  0  0  3  0  0  0  0  0  0
  193.2880  173.5250  144.5350 C   0  0  0  0  0  0  0  0  0  0  0  0
  194.5270  173.9960  145.0030 C   0  0  0  0  0  3  0  0  0  0  0  0
  196.9960  173.7260  146.1380 Cl  0  0  0  0  0  0  0  0  0  0  0  0
  195.1660  171.7560  145.6570 C   0  0  0  0  0  3  0  0  0  0  0  0
  195.4600  173.1180  145.5610 C   0  0  0  0  0  0  0  0  0  0  0  0
  193.9400  171.2730  145.1960 C   0  0  0  0  0  3  0  0  0  0  0  0
  187.3460  177.3950  145.5930 C   0  0  0  0  0  2  0  0  0  0  0  0
  186.4330  178.2860  144.8580 N   0  0  0  0  0  0  0  0  0  0  0  0
  184.3350  178.4560  143.7480 N   0  0  0  0  0  1  0  0  0  0  0  0
  185.2860  177.5410  144.3550 C   0  0  0  0  0  2  0  0  0  0  0  0
  185.9450  179.3460  145.7310 C   0  0  0  0  0  2  0  0  0  0  0  0
  185.9410  178.8740  147.1740 C   0  0  0  0  0  2  0  0  0  0  0  0
  184.6320  178.6490  147.5990 O   0  0  0  0  0  1  0  0  0  0  0  0
  188.0890  176.7670  141.3770 O   0  0  0  0  0  0  0  0  0  0  0  0
  186.9550  177.5130  140.9970 C   0  0  0  0  0  0  0  0  0  0  0  0
  186.9070  178.7220  141.6730 F   0  0  0  0  0  0  0  0  0  0  0  0
  186.9500  177.7410  139.6290 F   0  0  0  0  0  0  0  0  0  0  0  0
  185.8230  176.7910  141.3240 F   0  0  0  0  0  0  0  0  0  0  0  0
  1  4  1  0  0  0  0
  3 33  1  0  0  0  0
  3  5  1  0  0  0  0
  4 14  1  0  0  0  0
  4  6  1  0  0  0  0
  5  1  1  0  0  0  0
  5  8  1  0  0  0  0
  6  2  1  0  0  0  0
  7 10  1  0  0  0  0
  7  3  1  0  0  0  0
  8 14  1  0  0  0  0
  9 18  1  0  0  0  0
 10 13  1  0  0  0  0
 11 12  1  0  0  0  0
 11 16  1  0  0  0  0
 12  2  1  0  0  0  0
 13  9  1  0  0  0  0
 13  1  1  0  0  0  0
 14 17  1  0  0  0  0
 15 20  1  0  0  0  0
 15  6  1  0  0  0  0
 17 26  1  0  0  0  0
 17 16  1  0  0  0  0
 18 15  1  0  0  0  0
 19 25  1  0  0  0  0
 20 19  2  0  0  0  0
 20 21  1  0  0  0  0
 21 24  2  0  0  0  0
 24 23  1  0  0  0  0
 24 22  1  0  0  0  0
 25 23  2  0  0  0  0
 27 26  1  0  0  0  0
 27 30  1  0  0  0  0
 28 29  1  0  0  0  0
 29 27  1  0  0  0  0
 30 31  1  0  0  0  0
 31 32  1  0  0  0  0
 34 37  1  0  0  0  0
 34 33  1  0  0  0  0
 34 35  1  0  0  0  0
 36 34  1  0  0  0  0
M  END
>  <MODEL>
4

>  <REMARK>
 VINA RESULT:      -7.0      2.251      4.709
  Name = 
  8 active torsions:
  status: ('A' for Active; 'I' for Inactive)
    1  A    between atoms: C_1  and  N_4
    2  A    between atoms: C_1  and  C_27
    3  A    between atoms: C_2  and  O_22
    4  A    between atoms: N_4  and  C_12
    5  A    between atoms: N_4  and  C_37
    6  A    between atoms: C_6  and  O_22
    7  A    between atoms: C_8  and  C_12
    8  A    between atoms: N_23  and  C_30
                            x       y       z     vdW  Elec       q    Type
                         _______ _______ _______ _____ _____    ______ ____

>  <TORSDO>
F 8

$$$$
=
 OpenBabel11112417333D

 37 41  0  0  1  0  0  0  0  0999 V2000
  190.9230  175.7810  143.0150 C   0  0  1  0  0  3  0  0  0  0  0  0
  190.7440  177.2470  146.4190 O   0  0  0  0  0  0  0  0  0  0  0  0
  192.6510  174.4830  141.6870 C   0  0  2  0  0  3  0  0  0  0  0  0
  191.3600  175.9110  144.4240 C   0  0  2  0  0  3  0  0  0  0  0  0
  192.2400  175.8420  142.2820 C   0  0  2  0  0  3  0  0  0  0  0  0
  190.3100  176.7620  145.1640 C   0  0  1  0  0  3  0  0  0  0  0  0
  191.4720  173.8060  140.9640 C   0  0  0  0  0  2  0  0  0  0  0  0
  193.2350  176.3340  143.1540 O   0  0  0  0  0  0  0  0  0  0  0  0
  188.8420  174.6590  143.2750 C   0  0  0  0  0  2  0  0  0  0  0  0
  190.1610  174.2730  141.4320 N   0  0  0  0  0  2  0  0  0  0  0  0
  191.9380  175.3190  147.0360 O   0  0  0  0  0  0  0  0  0  0  0  0
  190.8660  176.1810  147.3410 C   0  0  0  0  0  2  0  0  0  0  0  0
  190.2220  174.5050  142.8190 N   0  0  1  0  0  0  0  0  0  0  0  0
  192.6730  176.5570  144.3890 N   0  0  2  0  0  0  0  0  0  0  0  0
  188.9700  176.1410  145.2330 N   0  0  0  0  0  0  0  0  0  0  0  0
  193.0690  176.1170  146.8180 C   0  0  0  0  0  2  0  0  0  0  0  0
  193.5730  175.9340  145.3830 C   0  0  2  0  0  3  0  0  0  0  0  0
  188.7700  174.7530  144.7990 C   0  0  0  0  0  2  0  0  0  0  0  0
  187.1990  176.7910  146.8370 C   0  0  0  0  0  3  0  0  0  0  0  0
  187.8220  176.9410  145.5860 C   0  0  0  0  0  0  0  0  0  0  0  0
  187.3060  177.8880  144.6850 C   0  0  0  0  0  3  0  0  0  0  0  0
  185.5680  179.8380  143.8880 Cl  0  0  0  0  0  0  0  0  0  0  0  0
  185.5860  178.5040  146.2710 C   0  0  0  0  0  3  0  0  0  0  0  0
  186.1950  178.6650  145.0250 C   0  0  0  0  0  0  0  0  0  0  0  0
  186.0870  177.5680  147.1770 C   0  0  0  0  0  3  0  0  0  0  0  0
  194.9760  176.5660  145.2770 C   0  0  0  0  0  2  0  0  0  0  0  0
  196.0840  175.6050  145.1660 N   0  0  0  0  0  0  0  0  0  0  0  0
  196.8690  173.5790  146.1370 N   0  0  0  0  0  1  0  0  0  0  0  0
  195.6910  174.3060  145.6970 C   0  0  0  0  0  2  0  0  0  0  0  0
  196.4710  175.4340  143.7720 C   0  0  0  0  0  2  0  0  0  0  0  0
  196.7550  176.7840  143.1380 C   0  0  0  0  0  2  0  0  0  0  0  0
  196.3190  176.7910  141.8130 O   0  0  0  0  0  1  0  0  0  0  0  0
  193.1300  173.6260  142.6960 O   0  0  0  0  0  0  0  0  0  0  0  0
  194.2160  172.8970  142.1710 C   0  0  0  0  0  0  0  0  0  0  0  0
  193.7740  171.7710  141.4920 F   0  0  0  0  0  0  0  0  0  0  0  0
  194.9780  173.6860  141.3240 F   0  0  0  0  0  0  0  0  0  0  0  0
  195.0140  172.4820  143.2200 F   0  0  0  0  0  0  0  0  0  0  0  0
  1  4  1  0  0  0  0
  2 12  1  0  0  0  0
  3  5  1  0  0  0  0
  3 33  1  0  0  0  0
  4  6  1  0  0  0  0
  5  1  1  0  0  0  0
  5  8  1  0  0  0  0
  6 15  1  0  0  0  0
  6  2  1  0  0  0  0
  7 10  1  0  0  0  0
  7  3  1  0  0  0  0
  8 14  1  0  0  0  0
  9 18  1  0  0  0  0
 10 13  1  0  0  0  0
 11 12  1  0  0  0  0
 13  1  1  0  0  0  0
 13  9  1  0  0  0  0
 14  4  1  0  0  0  0
 14 17  1  0  0  0  0
 15 20  1  0  0  0  0
 16 11  1  0  0  0  0
 17 16  1  0  0  0  0
 18 15  1  0  0  0  0
 19 25  1  0  0  0  0
 20 19  2  0  0  0  0
 21 24  2  0  0  0  0
 21 20  1  0  0  0  0
 22 24  1  0  0  0  0
 23 25  2  0  0  0  0
 24 23  1  0  0  0  0
 26 17  1  0  0  0  0
 27 26  1  0  0  0  0
 27 29  1  0  0  0  0
 29 28  1  0  0  0  0
 30 27  1  0  0  0  0
 31 30  1  0  0  0  0
 32 31  1  0  0  0  0
 34 33  1  0  0  0  0
 34 37  1  0  0  0  0
 35 34  1  0  0  0  0
 36 34  1  0  0  0  0
M  END
>  <MODEL>
5

>  <REMARK>
 VINA RESULT:      -6.9      5.067      8.392
  Name = 
  8 active torsions:
  status: ('A' for Active; 'I' for Inactive)
    1  A    between atoms: C_1  and  N_4
    2  A    between atoms: C_1  and  C_27
    3  A    between atoms: C_2  and  O_22
    4  A    between atoms: N_4  and  C_12
    5  A    between atoms: N_4  and  C_37
    6  A    between atoms: C_6  and  O_22
    7  A    between atoms: C_8  and  C_12
    8  A    between atoms: N_23  and  C_30
                            x       y       z     vdW  Elec       q    Type
                         _______ _______ _______ _____ _____    ______ ____

>  <TORSDO>
F 8

$$$$
=
 OpenBabel11112417333D

 37 41  0  0  1  0  0  0  0  0999 V2000
  190.7860  175.5100  144.6410 C   0  0  1  0  0  3  0  0  0  0  0  0
  187.5840  175.1070  142.8090 O   0  0  0  0  0  0  0  0  0  0  0  0
  193.0710  174.4130  144.5610 C   0  0  2  0  0  3  0  0  0  0  0  0
  189.9650  175.0530  143.4950 C   0  0  2  0  0  3  0  0  0  0  0  0
  191.5890  174.2710  144.9510 C   0  0  2  0  0  3  0  0  0  0  0  0
  188.5710  175.6950  143.6310 C   0  0  1  0  0  3  0  0  0  0  0  0
  193.6490  175.7630  145.0260 C   0  0  0  0  0  2  0  0  0  0  0  0
  191.0010  173.1610  144.3070 O   0  0  0  0  0  0  0  0  0  0  0  0
  190.8150  177.8610  144.2830 C   0  0  0  0  0  2  0  0  0  0  0  0
  192.6220  176.7930  145.2220 N   0  0  0  0  0  2  0  0  0  0  0  0
  188.9830  174.7390  140.9570 O   0  0  0  0  0  0  0  0  0  0  0  0
  187.8400  175.4000  141.4490 C   0  0  0  0  0  2  0  0  0  0  0  0
  191.6260  176.6450  144.2380 N   0  0  1  0  0  0  0  0  0  0  0  0
  189.9140  173.5920  143.5830 N   0  0  2  0  0  0  0  0  0  0  0  0
  188.5760  177.1710  143.5370 N   0  0  0  0  0  0  0  0  0  0  0  0
  188.8760  173.3890  141.3180 C   0  0  0  0  0  2  0  0  0  0  0  0
  190.0380  172.9970  142.2360 C   0  0  2  0  0  3  0  0  0  0  0  0
  189.7950  177.8880  143.1450 C   0  0  0  0  0  2  0  0  0  0  0  0
  186.6750  178.6850  143.0600 C   0  0  0  0  0  3  0  0  0  0  0  0
  187.4260  177.9250  143.9740 C   0  0  0  0  0  0  0  0  0  0  0  0
  187.0320  177.9120  145.3230 C   0  0  0  0  0  3  0  0  0  0  0  0
  185.4450  178.6110  147.4330 Cl  0  0  0  0  0  0  0  0  0  0  0  0
  185.1820  179.3910  144.8290 C   0  0  0  0  0  3  0  0  0  0  0  0
  185.9180  178.6400  145.7480 C   0  0  0  0  0  0  0  0  0  0  0  0
  185.5600  179.4140  143.4850 C   0  0  0  0  0  3  0  0  0  0  0  0
  190.0670  171.4590  142.3510 C   0  0  0  0  0  2  0  0  0  0  0  0
  191.2390  170.8120  141.7400 N   0  0  0  0  0  0  0  0  0  0  0  0
  193.2060  169.5370  142.1530 N   0  0  0  0  0  1  0  0  0  0  0  0
  191.9730  170.0390  142.7340 C   0  0  0  0  0  2  0  0  0  0  0  0
  190.8230  169.9110  140.6730 C   0  0  0  0  0  2  0  0  0  0  0  0
  190.8200  170.6420  139.3430 C   0  0  0  0  0  2  0  0  0  0  0  0
  191.8440  171.5890  139.3160 O   0  0  0  0  0  1  0  0  0  0  0  0
  193.2300  174.2950  143.1680 O   0  0  0  0  0  0  0  0  0  0  0  0
  194.1920  173.2960  142.9190 C   0  0  0  0  0  0  0  0  0  0  0  0
  195.4670  173.8390  142.8620 F   0  0  0  0  0  0  0  0  0  0  0  0
  194.1460  172.3120  143.8950 F   0  0  0  0  0  0  0  0  0  0  0  0
  193.9170  172.7140  141.6960 F   0  0  0  0  0  0  0  0  0  0  0  0
  1  5  1  0  0  0  0
  2  6  1  0  0  0  0
  3  5  1  0  0  0  0
  3  7  1  0  0  0  0
  4 14  1  0  0  0  0
  4  6  1  0  0  0  0
  4  1  1  0  0  0  0
  7 10  1  0  0  0  0
  8  5  1  0  0  0  0
 11 16  1  0  0  0  0
 11 12  1  0  0  0  0
 12  2  1  0  0  0  0
 13  9  1  0  0  0  0
 13  1  1  0  0  0  0
 13 10  1  0  0  0  0
 14  8  1  0  0  0  0
 15  6  1  0  0  0  0
 15 20  1  0  0  0  0
 16 17  1  0  0  0  0
 17 26  1  0  0  0  0
 17 14  1  0  0  0  0
 18 15  1  0  0  0  0
 18  9  1  0  0  0  0
 19 25  2  0  0  0  0
 19 20  1  0  0  0  0
 20 21  2  0  0  0  0
 21 24  1  0  0  0  0
 23 24  2  0  0  0  0
 24 22  1  0  0  0  0
 25 23  1  0  0  0  0
 27 26  1  0  0  0  0
 27 29  1  0  0  0  0
 28 29  1  0  0  0  0
 30 27  1  0  0  0  0
 31 30  1  0  0  0  0
 32 31  1  0  0  0  0
 33  3  1  0  0  0  0
 34 33  1  0  0  0  0
 34 36  1  0  0  0  0
 35 34  1  0  0  0  0
 37 34  1  0  0  0  0
M  END
>  <MODEL>
6

>  <REMARK>
 VINA RESULT:      -6.8      4.361      7.502
  Name = 
  8 active torsions:
  status: ('A' for Active; 'I' for Inactive)
    1  A    between atoms: C_1  and  N_4
    2  A    between atoms: C_1  and  C_27
    3  A    between atoms: C_2  and  O_22
    4  A    between atoms: N_4  and  C_12
    5  A    between atoms: N_4  and  C_37
    6  A    between atoms: C_6  and  O_22
    7  A    between atoms: C_8  and  C_12
    8  A    between atoms: N_23  and  C_30
                            x       y       z     vdW  Elec       q    Type
                         _______ _______ _______ _____ _____    ______ ____

>  <TORSDO>
F 8

$$$$
=
 OpenBabel11112417333D

 37 41  0  0  1  0  0  0  0  0999 V2000
  186.1030  177.0470  144.2850 C   0  0  1  0  0  3  0  0  0  0  0  0
  189.3230  176.4410  142.5440 O   0  0  0  0  0  0  0  0  0  0  0  0
  185.4080  177.9740  146.5410 C   0  0  2  0  0  3  0  0  0  0  0  0
  187.5550  177.2540  144.0780 C   0  0  2  0  0  3  0  0  0  0  0  0
  186.0410  176.8000  145.7720 C   0  0  2  0  0  3  0  0  0  0  0  0
  187.9330  176.6150  142.7280 C   0  0  1  0  0  3  0  0  0  0  0  0
  184.1210  178.4680  145.8540 C   0  0  0  0  0  2  0  0  0  0  0  0
  187.3390  176.5230  146.2530 O   0  0  0  0  0  0  0  0  0  0  0  0
  185.1960  178.2180  142.4230 C   0  0  0  0  0  2  0  0  0  0  0  0
  184.0670  178.1390  144.4240 N   0  0  0  0  0  2  0  0  0  0  0  0
  189.9690  178.4490  143.5790 O   0  0  0  0  0  0  0  0  0  0  0  0
  189.9580  177.6960  142.3880 C   0  0  0  0  0  2  0  0  0  0  0  0
  185.3590  178.2450  143.8760 N   0  0  1  0  0  0  0  0  0  0  0  0
  188.2270  176.6070  145.2060 N   0  0  2  0  0  0  0  0  0  0  0  0
  187.2840  177.2460  141.5600 N   0  0  0  0  0  0  0  0  0  0  0  0
  190.4350  177.6120  144.6010 C   0  0  0  0  0  2  0  0  0  0  0  0
  189.3540  177.4420  145.6740 C   0  0  2  0  0  3  0  0  0  0  0  0
  186.5220  178.4910  141.7140 C   0  0  0  0  0  2  0  0  0  0  0  0
  186.6920  177.1660  139.1560 C   0  0  0  0  0  3  0  0  0  0  0  0
  187.2690  176.5640  140.2880 C   0  0  0  0  0  0  0  0  0  0  0  0
  187.8330  175.2840  140.1560 C   0  0  0  0  0  3  0  0  0  0  0  0
  188.5280  173.0280  138.7830 Cl  0  0  0  0  0  0  0  0  0  0  0  0
  187.2430  175.2320  137.8100 C   0  0  0  0  0  3  0  0  0  0  0  0
  187.8200  174.6220  138.9250 C   0  0  0  0  0  0  0  0  0  0  0  0
  186.6780  176.5040  137.9250 C   0  0  0  0  0  3  0  0  0  0  0  0
  190.0010  176.7900  146.9130 C   0  0  0  0  0  2  0  0  0  0  0  0
  191.2690  176.0900  146.6570 N   0  0  0  0  0  0  0  0  0  0  0  0
  193.5450  176.7240  146.9480 N   0  0  0  0  0  1  0  0  0  0  0  0
  192.2810  176.4920  147.6260 C   0  0  0  0  0  2  0  0  0  0  0  0
  191.0840  174.6480  146.7570 C   0  0  0  0  0  2  0  0  0  0  0  0
  190.9300  174.0430  145.3730 C   0  0  0  0  0  2  0  0  0  0  0  0
  189.6950  173.4030  145.2670 O   0  0  0  0  0  1  0  0  0  0  0  0
  186.3170  179.0430  146.6490 O   0  0  0  0  0  0  0  0  0  0  0  0
  186.5880  179.2510  148.0160 C   0  0  0  0  0  0  0  0  0  0  0  0
  187.9220  178.9990  148.3010 F   0  0  0  0  0  0  0  0  0  0  0  0
  186.2670  180.5460  148.3920 F   0  0  0  0  0  0  0  0  0  0  0  0
  185.8170  178.3760  148.7560 F   0  0  0  0  0  0  0  0  0  0  0  0
  1  5  1  0  0  0  0
  2  6  1  0  0  0  0
  3 33  1  0  0  0  0
  4  1  1  0  0  0  0
  4 14  1  0  0  0  0
  5  8  1  0  0  0  0
  5  3  1  0  0  0  0
  6  4  1  0  0  0  0
  7  3  1  0  0  0  0
  9 13  1  0  0  0  0
 10  7  1  0  0  0  0
 11 16  1  0  0  0  0
 12  2  1  0  0  0  0
 12 11  1  0  0  0  0
 13  1  1  0  0  0  0
 13 10  1  0  0  0  0
 14 17  1  0  0  0  0
 14  8  1  0  0  0  0
 15 18  1  0  0  0  0
 15  6  1  0  0  0  0
 16 17  1  0  0  0  0
 17 26  1  0  0  0  0
 18  9  1  0  0  0  0
 19 20  1  0  0  0  0
 20 15  1  0  0  0  0
 21 20  2  0  0  0  0
 22 24  1  0  0  0  0
 23 25  1  0  0  0  0
 23 24  2  0  0  0  0
 24 21  1  0  0  0  0
 25 19  2  0  0  0  0
 27 30  1  0  0  0  0
 27 26  1  0  0  0  0
 27 29  1  0  0  0  0
 28 29  1  0  0  0  0
 31 30  1  0  0  0  0
 32 31  1  0  0  0  0
 33 34  1  0  0  0  0
 34 35  1  0  0  0  0
 34 36  1  0  0  0  0
 34 37  1  0  0  0  0
M  END
>  <MODEL>
7

>  <REMARK>
 VINA RESULT:      -6.7      3.102      6.700
  Name = 
  8 active torsions:
  status: ('A' for Active; 'I' for Inactive)
    1  A    between atoms: C_1  and  N_4
    2  A    between atoms: C_1  and  C_27
    3  A    between atoms: C_2  and  O_22
    4  A    between atoms: N_4  and  C_12
    5  A    between atoms: N_4  and  C_37
    6  A    between atoms: C_6  and  O_22
    7  A    between atoms: C_8  and  C_12
    8  A    between atoms: N_23  and  C_30
                            x       y       z     vdW  Elec       q    Type
                         _______ _______ _______ _____ _____    ______ ____

>  <TORSDO>
F 8

$$$$
=
 OpenBabel11112417333D

 37 41  0  0  1  0  0  0  0  0999 V2000
  186.1100  177.2570  145.3480 C   0  0  1  0  0  3  0  0  0  0  0  0
  186.3190  176.8430  141.6670 O   0  0  0  0  0  0  0  0  0  0  0  0
  187.7610  177.2300  147.2730 C   0  0  2  0  0  3  0  0  0  0  0  0
  186.8360  177.2420  144.0570 C   0  0  2  0  0  3  0  0  0  0  0  0
  187.0090  176.4070  146.2120 C   0  0  2  0  0  3  0  0  0  0  0  0
  185.7880  177.1900  142.9290 C   0  0  1  0  0  3  0  0  0  0  0  0
  186.8210  178.2170  147.9900 C   0  0  0  0  0  2  0  0  0  0  0  0
  187.9100  175.6980  145.3890 O   0  0  0  0  0  0  0  0  0  0  0  0
  184.8620  179.2730  145.1560 C   0  0  0  0  0  2  0  0  0  0  0  0
  185.6310  178.5580  147.2010 N   0  0  0  0  0  2  0  0  0  0  0  0
  188.3330  178.0320  141.9030 O   0  0  0  0  0  0  0  0  0  0  0  0
  187.1350  177.8880  141.1730 C   0  0  0  0  0  2  0  0  0  0  0  0
  185.9850  178.6350  145.8410 N   0  0  1  0  0  0  0  0  0  0  0  0
  187.6870  176.0500  144.0790 N   0  0  2  0  0  0  0  0  0  0  0  0
  184.9140  178.3810  142.8640 N   0  0  0  0  0  0  0  0  0  0  0  0
  188.9100  176.7600  142.0170 C   0  0  0  0  0  2  0  0  0  0  0  0
  189.0090  176.3580  143.4920 C   0  0  2  0  0  3  0  0  0  0  0  0
  185.1980  179.5590  143.6920 C   0  0  0  0  0  2  0  0  0  0  0  0
  183.7040  177.9590  140.7450 C   0  0  0  0  0  3  0  0  0  0  0  0
  183.6910  178.3360  142.0990 C   0  0  0  0  0  0  0  0  0  0  0  0
  182.4620  178.6680  142.6950 C   0  0  0  0  0  3  0  0  0  0  0  0
  179.7570  179.0420  142.7170 Cl  0  0  0  0  0  0  0  0  0  0  0  0
  181.3050  178.2480  140.6110 C   0  0  0  0  0  3  0  0  0  0  0  0
  181.2770  178.6250  141.9560 C   0  0  0  0  0  0  0  0  0  0  0  0
  182.5180  177.9160  140.0060 C   0  0  0  0  0  3  0  0  0  0  0  0
  189.9220  175.1200  143.5970 C   0  0  0  0  0  2  0  0  0  0  0  0
  189.9210  174.2450  142.4140 N   0  0  0  0  0  0  0  0  0  0  0  0
  192.1440  174.9940  142.0130 N   0  0  0  0  0  1  0  0  0  0  0  0
  191.2780  173.8300  142.0820 C   0  0  0  0  0  2  0  0  0  0  0  0
  189.1240  173.0520  142.6650 C   0  0  0  0  0  2  0  0  0  0  0  0
  187.9130  173.0290  141.7490 C   0  0  0  0  0  2  0  0  0  0  0  0
  188.1920  173.7240  140.5710 O   0  0  0  0  0  1  0  0  0  0  0  0
  188.8230  177.9430  146.6850 O   0  0  0  0  0  0  0  0  0  0  0  0
  190.0310  177.4480  147.2170 C   0  0  0  0  0  0  0  0  0  0  0  0
  191.0250  177.4270  146.2510 F   0  0  0  0  0  0  0  0  0  0  0  0
  190.4440  178.2120  148.2970 F   0  0  0  0  0  0  0  0  0  0  0  0
  189.8230  176.1530  147.6490 F   0  0  0  0  0  0  0  0  0  0  0  0
  1 13  1  0  0  0  0
  1  5  1  0  0  0  0
  2  6  1  0  0  0  0
  3  7  1  0  0  0  0
  4 14  1  0  0  0  0
  4  1  1  0  0  0  0
  5  3  1  0  0  0  0
  6  4  1  0  0  0  0
  8  5  1  0  0  0  0
  9 13  1  0  0  0  0
 10  7  1  0  0  0  0
 11 16  1  0  0  0  0
 12  2  1  0  0  0  0
 12 11  1  0  0  0  0
 13 10  1  0  0  0  0
 14  8  1  0  0  0  0
 15  6  1  0  0  0  0
 15 18  1  0  0  0  0
 16 17  1  0  0  0  0
 17 26  1  0  0  0  0
 17 14  1  0  0  0  0
 18  9  1  0  0  0  0
 19 20  1  0  0  0  0
 20 21  2  0  0  0  0
 20 15  1  0  0  0  0
 23 24  2  0  0  0  0
 24 21  1  0  0  0  0
 24 22  1  0  0  0  0
 25 23  1  0  0  0  0
 25 19  2  0  0  0  0
 27 30  1  0  0  0  0
 27 26  1  0  0  0  0
 28 29  1  0  0  0  0
 29 27  1  0  0  0  0
 31 30  1  0  0  0  0
 32 31  1  0  0  0  0
 33 34  1  0  0  0  0
 33  3  1  0  0  0  0
 34 37  1  0  0  0  0
 34 36  1  0  0  0  0
 35 34  1  0  0  0  0
M  END
>  <MODEL>
8

>  <REMARK>
 VINA RESULT:      -6.6      4.163      7.458
  Name = 
  8 active torsions:
  status: ('A' for Active; 'I' for Inactive)
    1  A    between atoms: C_1  and  N_4
    2  A    between atoms: C_1  and  C_27
    3  A    between atoms: C_2  and  O_22
    4  A    between atoms: N_4  and  C_12
    5  A    between atoms: N_4  and  C_37
    6  A    between atoms: C_6  and  O_22
    7  A    between atoms: C_8  and  C_12
    8  A    between atoms: N_23  and  C_30
                            x       y       z     vdW  Elec       q    Type
                         _______ _______ _______ _____ _____    ______ ____

>  <TORSDO>
F 8

$$$$
=
 OpenBabel11112417333D

 37 41  0  0  1  0  0  0  0  0999 V2000
  191.2660  176.4470  145.0560 C   0  0  1  0  0  3  0  0  0  0  0  0
  191.6830  175.0500  141.6450 O   0  0  0  0  0  0  0  0  0  0  0  0
  189.3170  177.2800  146.4500 C   0  0  2  0  0  3  0  0  0  0  0  0
  190.7660  175.8020  143.8200 C   0  0  2  0  0  3  0  0  0  0  0  0
  190.2520  177.5470  145.2560 C   0  0  2  0  0  3  0  0  0  0  0  0
  191.9890  175.3780  142.9840 C   0  0  1  0  0  3  0  0  0  0  0  0
  190.1050  176.8130  147.6880 C   0  0  0  0  0  2  0  0  0  0  0  0
  189.5150  177.7210  144.0660 O   0  0  0  0  0  0  0  0  0  0  0  0
  192.4900  174.6650  146.0490 C   0  0  0  0  0  2  0  0  0  0  0  0
  191.4040  176.2150  147.3550 N   0  0  0  0  0  2  0  0  0  0  0  0
  189.6360  173.9910  142.1030 O   0  0  0  0  0  0  0  0  0  0  0  0
  190.9410  173.8470  141.5910 C   0  0  0  0  0  2  0  0  0  0  0  0
  191.2810  175.4800  146.1610 N   0  0  1  0  0  0  0  0  0  0  0  0
  189.9470  176.8040  143.1370 N   0  0  2  0  0  0  0  0  0  0  0  0
  192.8390  174.3580  143.6340 N   0  0  0  0  0  0  0  0  0  0  0  0
  189.0720  175.1250  141.5040 C   0  0  0  0  0  2  0  0  0  0  0  0
  188.7360  176.1720  142.5710 C   0  0  2  0  0  3  0  0  0  0  0  0
  192.3980  173.6980  144.8690 C   0  0  0  0  0  2  0  0  0  0  0  0
  195.1620  175.1080  143.2160 C   0  0  0  0  0  3  0  0  0  0  0  0
  194.1730  174.1110  143.1420 C   0  0  0  0  0  0  0  0  0  0  0  0
  194.5100  172.8680  142.5800 C   0  0  0  0  0  3  0  0  0  0  0  0
  196.2000  171.0720  141.4070 Cl  0  0  0  0  0  0  0  0  0  0  0  0
  196.7730  173.6270  142.1840 C   0  0  0  0  0  3  0  0  0  0  0  0
  195.8010  172.6270  142.1040 C   0  0  0  0  0  0  0  0  0  0  0  0
  196.4540  174.8670  142.7390 C   0  0  0  0  0  3  0  0  0  0  0  0
  187.8420  177.2510  141.9270 C   0  0  0  0  0  2  0  0  0  0  0  0
  186.6300  177.5910  142.6890 N   0  0  0  0  0  0  0  0  0  0  0  0
  185.4550  179.3100  143.8420 N   0  0  0  0  0  1  0  0  0  0  0  0
  186.6130  179.0110  143.0170 C   0  0  0  0  0  2  0  0  0  0  0  0
  185.4370  177.2850  141.9110 C   0  0  0  0  0  2  0  0  0  0  0  0
  185.5360  177.9140  140.5330 C   0  0  0  0  0  2  0  0  0  0  0  0
  184.3840  178.6550  140.2630 O   0  0  0  0  0  1  0  0  0  0  0  0
  188.3560  176.3080  146.1170 O   0  0  0  0  0  0  0  0  0  0  0  0
  187.0830  176.8220  146.4390 C   0  0  0  0  0  0  0  0  0  0  0  0
  186.1380  176.4220  145.5070 F   0  0  0  0  0  0  0  0  0  0  0  0
  186.6930  176.4170  147.7050 F   0  0  0  0  0  0  0  0  0  0  0  0
  187.1490  178.2020  146.4200 F   0  0  0  0  0  0  0  0  0  0  0  0
  1  5  1  0  0  0  0
  1 13  1  0  0  0  0
  2  6  1  0  0  0  0
  3  7  1  0  0  0  0
  4  1  1  0  0  0  0
  5  3  1  0  0  0  0
  6 15  1  0  0  0  0
  6  4  1  0  0  0  0
  8  5  1  0  0  0  0
  9 13  1  0  0  0  0
 10  7  1  0  0  0  0
 12  2  1  0  0  0  0
 12 11  1  0  0  0  0
 13 10  1  0  0  0  0
 14  4  1  0  0  0  0
 14  8  1  0  0  0  0
 15 18  1  0  0  0  0
 16 11  1  0  0  0  0
 16 17  1  0  0  0  0
 17 14  1  0  0  0  0
 18  9  1  0  0  0  0
 20 19  1  0  0  0  0
 20 15  1  0  0  0  0
 21 20  2  0  0  0  0
 22 24  1  0  0  0  0
 23 25  1  0  0  0  0
 24 23  2  0  0  0  0
 24 21  1  0  0  0  0
 25 19  2  0  0  0  0
 26 17  1  0  0  0  0
 26 27  1  0  0  0  0
 27 29  1  0  0  0  0
 29 28  1  0  0  0  0
 30 27  1  0  0  0  0
 31 30  1  0  0  0  0
 32 31  1  0  0  0  0
 33 34  1  0  0  0  0
 33  3  1  0  0  0  0
 34 36  1  0  0  0  0
 35 34  1  0  0  0  0
 37 34  1  0  0  0  0
M  END
>  <MODEL>
9

>  <REMARK>
 VINA RESULT:      -6.6      2.492      3.008
  Name = 
  8 active torsions:
  status: ('A' for Active; 'I' for Inactive)
    1  A    between atoms: C_1  and  N_4
    2  A    between atoms: C_1  and  C_27
    3  A    between atoms: C_2  and  O_22
    4  A    between atoms: N_4  and  C_12
    5  A    between atoms: N_4  and  C_37
    6  A    between atoms: C_6  and  O_22
    7  A    between atoms: C_8  and  C_12
    8  A    between atoms: N_23  and  C_30
                            x       y       z     vdW  Elec       q    Type
                         _______ _______ _______ _____ _____    ______ ____

>  <TORSDO>
F 8

$$$$
