=
 OpenBabel11112418013D

 34 41  0  0  1  0  0  0  0  0999 V2000
  188.9450  175.2700  142.8500 C   0  0  0  0  0  0  0  0  0  0  0  0
  191.0420  173.8620  142.7410 C   0  0  0  0  0  3  0  0  0  0  0  0
  184.6400  178.7340  146.2120 C   0  0  0  0  0  0  0  0  0  0  0  0
  187.2240  176.9350  143.1060 C   0  0  0  0  0  0  0  0  0  0  0  0
  186.7800  178.0260  145.2620 C   0  0  0  0  0  0  0  0  0  0  0  0
  186.1440  178.7250  147.5460 C   0  0  0  0  0  2  0  0  0  0  0  0
  184.7430  178.5430  147.6380 O   0  0  0  0  0  0  0  0  0  0  0  0
  184.0360  178.7980  143.8760 C   0  0  0  0  0  3  0  0  0  0  0  0
  190.1300  174.2870  144.8610 C   0  0  2  0  0  3  0  0  0  0  0  0
  192.3410  175.0660  147.0620 C   0  0  0  0  0  3  0  0  0  0  0  0
  188.1030  177.4720  145.7460 C   0  0  0  0  0  2  0  0  0  0  0  0
  185.2070  178.4470  143.3200 C   0  0  0  0  0  3  0  0  0  0  0  0
  189.7750  175.5910  145.5980 C   0  0  1  0  0  3  0  0  0  0  0  0
  191.9680  173.4620  143.5940 C   0  0  0  0  0  3  0  0  0  0  0  0
  186.4020  177.8240  143.9670 C   0  0  0  0  0  0  0  0  0  0  0  0
  183.6910  178.6660  145.2970 C   0  0  0  0  0  3  0  0  0  0  0  0
  192.5200  174.8740  145.5800 C   0  0  2  0  0  3  0  0  0  0  0  0
  188.1980  176.1070  143.6830 C   0  0  0  0  0  0  0  0  0  0  0  0
  186.0890  179.0310  146.1450 C   0  0  2  0  0  3  0  0  0  0  0  0
  188.3740  176.0760  145.1830 C   0  0  2  0  0  3  0  0  0  0  0  0
  187.7950  176.1010  140.9600 C   0  0  0  0  0  3  0  0  0  0  0  0
  191.1810  175.2920  147.7000 C   0  0  0  0  0  3  0  0  0  0  0  0
  187.0450  176.9090  141.7560 N   0  0  0  0  0  0  0  0  0  0  0  0
  189.8010  175.3160  147.0960 C   0  0  0  0  0  2  0  0  0  0  0  0
  191.5850  173.7910  145.0130 C   0  0  1  0  0  3  0  0  0  0  0  0
  188.7400  175.2900  141.5060 N   0  0  0  0  0  0  0  0  0  0  0  0
  189.9460  174.4310  143.4280 N   0  0  0  0  0  0  0  0  0  0  0  0
  193.8570  174.5540  145.3300 O   0  0  0  0  0  0  0  0  0  0  0  0
  194.4930  175.7870  145.1350 C   0  0  0  0  0  2  0  0  0  0  0  0
  197.3700  175.9670  143.4380 O   0  0  0  0  0  0  0  0  0  0  0  0
  195.4670  174.5970  143.1730 C   0  0  0  0  0  2  0  0  0  0  0  0
  195.0160  175.9230  143.7090 C   0  0  2  0  0  3  0  0  0  0  0  0
  196.8840  174.8610  142.7270 C   0  0  0  0  0  2  0  0  0  0  0  0
  196.2550  176.7910  143.6560 C   0  0  0  0  0  2  0  0  0  0  0  0
  1 27  1  0  0  0  0
  1 18  1  0  0  0  0
  2 27  1  0  0  0  0
  2 14  2  0  0  0  0
  3  7  1  0  0  0  0
  4 18  2  0  0  0  0
  4 15  1  0  0  0  0
  5 11  1  0  0  0  0
  5 19  1  0  0  0  0
  6  7  1  0  0  0  0
  8 16  1  0  0  0  0
  9 27  1  6  0  0  0
  9 25  1  0  0  0  0
  9 13  1  0  0  0  0
 10 22  2  0  0  0  0
 12  8  2  0  0  0  0
 12 15  1  0  0  0  0
 13 24  1  1  0  0  0
 15  5  2  0  0  0  0
 16  3  2  0  0  0  0
 17 28  1  1  0  0  0
 17 10  1  0  0  0  0
 18 20  1  0  0  0  0
 19  3  1  0  0  0  0
 19  6  1  1  0  0  0
 20 13  1  0  0  0  0
 20 11  1  6  0  0  0
 21 26  1  0  0  0  0
 21 23  2  0  0  0  0
 23  4  1  0  0  0  0
 24 22  1  0  0  0  0
 25 14  1  6  0  0  0
 25 17  1  0  0  0  0
 26  1  2  0  0  0  0
 29 28  1  0  0  0  0
 30 34  1  0  0  0  0
 31 32  1  0  0  0  0
 32 29  1  1  0  0  0
 33 31  1  0  0  0  0
 33 30  1  0  0  0  0
 34 32  1  0  0  0  0
M  END
>  <MODEL>
1

>  <REMARK>
 VINA RESULT:      -9.7      0.000      0.000
  Name = 
  3 active torsions:
  status: ('A' for Active; 'I' for Inactive)
    1  A    between atoms: C_17  and  O_28
    2  A    between atoms: O_28  and  C_29
    3  A    between atoms: C_29  and  C_32
                            x       y       z     vdW  Elec       q    Type
                         _______ _______ _______ _____ _____    ______ ____

>  <TORSDO>
F 3

$$$$
=
 OpenBabel11112418013D

 34 41  0  0  1  0  0  0  0  0999 V2000
  188.7680  175.4910  142.5930 C   0  0  0  0  0  0  0  0  0  0  0  0
  190.8440  174.0960  142.2250 C   0  0  0  0  0  3  0  0  0  0  0  0
  184.7620  178.7240  146.5080 C   0  0  0  0  0  0  0  0  0  0  0  0
  187.0810  177.1350  143.0950 C   0  0  0  0  0  0  0  0  0  0  0  0
  186.8160  178.0830  145.3460 C   0  0  0  0  0  0  0  0  0  0  0  0
  186.3680  178.6300  147.7150 C   0  0  0  0  0  2  0  0  0  0  0  0
  184.9770  178.4410  147.9060 O   0  0  0  0  0  0  0  0  0  0  0  0
  183.9720  178.9410  144.2380 C   0  0  0  0  0  3  0  0  0  0  0  0
  190.1060  174.3800  144.4350 C   0  0  2  0  0  3  0  0  0  0  0  0
  192.4900  175.0160  146.4980 C   0  0  0  0  0  3  0  0  0  0  0  0
  188.1700  177.4980  145.6850 C   0  0  0  0  0  2  0  0  0  0  0  0
  185.0940  178.6280  143.5680 C   0  0  0  0  0  3  0  0  0  0  0  0
  189.8170  175.6330  145.2810 C   0  0  1  0  0  3  0  0  0  0  0  0
  191.8340  173.6420  142.9730 C   0  0  0  0  0  3  0  0  0  0  0  0
  186.3340  177.9650  144.0750 C   0  0  0  0  0  0  0  0  0  0  0  0
  183.7430  178.7160  145.6700 C   0  0  0  0  0  3  0  0  0  0  0  0
  192.5490  174.9220  144.9960 C   0  0  2  0  0  3  0  0  0  0  0  0
  188.0940  176.2720  143.5370 C   0  0  0  0  0  0  0  0  0  0  0  0
  186.2020  179.0270  146.3450 C   0  0  2  0  0  3  0  0  0  0  0  0
  188.3900  176.1430  145.0120 C   0  0  2  0  0  3  0  0  0  0  0  0
  187.4740  176.4440  140.8600 C   0  0  0  0  0  3  0  0  0  0  0  0
  191.3860  175.1990  147.2400 C   0  0  0  0  0  3  0  0  0  0  0  0
  186.7940  177.1970  141.7650 N   0  0  0  0  0  0  0  0  0  0  0  0
  189.9620  175.2610  146.7510 C   0  0  0  0  0  2  0  0  0  0  0  0
  191.5670  173.8770  144.4360 C   0  0  1  0  0  3  0  0  0  0  0  0
  188.4560  175.6000  141.2740 N   0  0  0  0  0  0  0  0  0  0  0  0
  189.8090  174.6180  143.0340 N   0  0  0  0  0  0  0  0  0  0  0  0
  193.8600  174.6200  144.6190 O   0  0  0  0  0  0  0  0  0  0  0  0
  194.4190  173.9850  145.7350 C   0  0  0  0  0  2  0  0  0  0  0  0
  193.7840  170.9800  144.4070 O   0  0  0  0  0  0  0  0  0  0  0  0
  195.3690  172.6430  143.8610 C   0  0  0  0  0  2  0  0  0  0  0  0
  195.1300  172.6940  145.3410 C   0  0  2  0  0  3  0  0  0  0  0  0
  194.7470  171.3300  143.4490 C   0  0  0  0  0  2  0  0  0  0  0  0
  194.2700  171.4810  145.6250 C   0  0  0  0  0  2  0  0  0  0  0  0
  1 27  1  0  0  0  0
  1 18  1  0  0  0  0
  2 14  2  0  0  0  0
  2 27  1  0  0  0  0
  3  7  1  0  0  0  0
  4 18  2  0  0  0  0
  4 15  1  0  0  0  0
  5 11  1  0  0  0  0
  5 19  1  0  0  0  0
  6  7  1  0  0  0  0
  8 16  1  0  0  0  0
  9 27  1  6  0  0  0
  9 25  1  0  0  0  0
  9 13  1  0  0  0  0
 10 22  2  0  0  0  0
 12 15  1  0  0  0  0
 12  8  2  0  0  0  0
 13 24  1  1  0  0  0
 15  5  2  0  0  0  0
 16  3  2  0  0  0  0
 17 28  1  1  0  0  0
 17 10  1  0  0  0  0
 18 20  1  0  0  0  0
 19  3  1  0  0  0  0
 19  6  1  1  0  0  0
 20 13  1  0  0  0  0
 20 11  1  1  0  0  0
 21 26  1  0  0  0  0
 21 23  2  0  0  0  0
 23  4  1  0  0  0  0
 24 22  1  0  0  0  0
 25 14  1  6  0  0  0
 25 17  1  0  0  0  0
 26  1  2  0  0  0  0
 28 29  1  0  0  0  0
 30 34  1  0  0  0  0
 31 32  1  0  0  0  0
 32 34  1  0  0  0  0
 32 29  1  6  0  0  0
 33 31  1  0  0  0  0
 33 30  1  0  0  0  0
M  END
>  <MODEL>
2

>  <REMARK>
 VINA RESULT:      -9.4      1.337      1.865
  Name = 
  3 active torsions:
  status: ('A' for Active; 'I' for Inactive)
    1  A    between atoms: C_17  and  O_28
    2  A    between atoms: O_28  and  C_29
    3  A    between atoms: C_29  and  C_32
                            x       y       z     vdW  Elec       q    Type
                         _______ _______ _______ _____ _____    ______ ____

>  <TORSDO>
F 3

$$$$
=
 OpenBabel11112418013D

 34 41  0  0  1  0  0  0  0  0999 V2000
  188.2010  175.7170  141.8960 C   0  0  0  0  0  0  0  0  0  0  0  0
  190.1160  174.2280  141.1840 C   0  0  0  0  0  3  0  0  0  0  0  0
  184.7600  178.6660  146.5110 C   0  0  0  0  0  0  0  0  0  0  0  0
  186.7040  177.4010  142.7460 C   0  0  0  0  0  0  0  0  0  0  0  0
  186.6690  178.0360  145.1190 C   0  0  0  0  0  0  0  0  0  0  0  0
  186.4250  178.2730  147.5680 C   0  0  0  0  0  2  0  0  0  0  0  0
  185.0380  178.1690  147.8360 O   0  0  0  0  0  0  0  0  0  0  0  0
  183.8490  179.2670  144.3580 C   0  0  0  0  0  3  0  0  0  0  0  0
  189.5500  174.2510  143.4610 C   0  0  2  0  0  3  0  0  0  0  0  0
  192.1080  174.3940  145.4040 C   0  0  0  0  0  3  0  0  0  0  0  0
  187.9850  177.3030  145.2710 C   0  0  0  0  0  2  0  0  0  0  0  0
  184.8930  178.9650  143.5690 C   0  0  0  0  0  3  0  0  0  0  0  0
  189.4290  175.3890  144.4900 C   0  0  1  0  0  3  0  0  0  0  0  0
  191.1070  173.5940  141.7850 C   0  0  0  0  0  3  0  0  0  0  0  0
  186.0990  178.1400  143.8840 C   0  0  0  0  0  0  0  0  0  0  0  0
  183.6920  178.8580  145.7590 C   0  0  0  0  0  3  0  0  0  0  0  0
  192.0620  174.5110  143.9040 C   0  0  2  0  0  3  0  0  0  0  0  0
  187.6620  176.4060  142.9860 C   0  0  0  0  0  0  0  0  0  0  0  0
  186.2080  178.8730  146.2820 C   0  0  2  0  0  3  0  0  0  0  0  0
  188.0380  176.0450  144.4030 C   0  0  2  0  0  3  0  0  0  0  0  0
  186.8890  177.0080  140.4140 C   0  0  0  0  0  3  0  0  0  0  0  0
  191.0750  174.5560  146.2470 C   0  0  0  0  0  3  0  0  0  0  0  0
  186.3390  177.6760  141.4630 N   0  0  0  0  0  0  0  0  0  0  0  0
  189.6330  174.8000  145.8800 C   0  0  0  0  0  2  0  0  0  0  0  0
  190.9560  173.6380  143.2830 C   0  0  1  0  0  3  0  0  0  0  0  0
  187.8160  176.0380  140.6330 N   0  0  0  0  0  0  0  0  0  0  0  0
  189.1860  174.7100  142.1330 N   0  0  0  0  0  0  0  0  0  0  0  0
  193.3140  174.1630  143.3910 O   0  0  0  0  0  0  0  0  0  0  0  0
  193.9280  175.3830  143.0800 C   0  0  0  0  0  2  0  0  0  0  0  0
  195.2760  175.5480  146.1380 O   0  0  0  0  0  0  0  0  0  0  0  0
  195.7590  174.1830  144.2730 C   0  0  0  0  0  2  0  0  0  0  0  0
  195.2840  175.5120  143.7670 C   0  0  2  0  0  3  0  0  0  0  0  0
  196.0370  174.4410  145.7340 C   0  0  0  0  0  2  0  0  0  0  0  0
  195.1930  176.3760  145.0070 C   0  0  0  0  0  2  0  0  0  0  0  0
  1 27  1  0  0  0  0
  1 18  1  0  0  0  0
  2 14  2  0  0  0  0
  2 27  1  0  0  0  0
  3  7  1  0  0  0  0
  4 18  2  0  0  0  0
  4 15  1  0  0  0  0
  5 11  1  0  0  0  0
  5 19  1  0  0  0  0
  6  7  1  0  0  0  0
  8 16  1  0  0  0  0
  9 27  1  6  0  0  0
  9 13  1  0  0  0  0
 10 22  2  0  0  0  0
 12 15  1  0  0  0  0
 12  8  2  0  0  0  0
 13 24  1  1  0  0  0
 15  5  2  0  0  0  0
 16  3  2  0  0  0  0
 17 28  1  6  0  0  0
 17 10  1  0  0  0  0
 18 20  1  0  0  0  0
 19  3  1  0  0  0  0
 19  6  1  1  0  0  0
 20 13  1  0  0  0  0
 20 11  1  1  0  0  0
 21 26  1  0  0  0  0
 21 23  2  0  0  0  0
 23  4  1  0  0  0  0
 24 22  1  0  0  0  0
 25 14  1  6  0  0  0
 25  9  1  0  0  0  0
 25 17  1  0  0  0  0
 26  1  2  0  0  0  0
 29 28  1  0  0  0  0
 31 33  1  0  0  0  0
 32 29  1  1  0  0  0
 32 31  1  0  0  0  0
 32 34  1  0  0  0  0
 33 30  1  0  0  0  0
 34 30  1  0  0  0  0
M  END
>  <MODEL>
3

>  <REMARK>
 VINA RESULT:      -9.1      1.187      1.483
  Name = 
  3 active torsions:
  status: ('A' for Active; 'I' for Inactive)
    1  A    between atoms: C_17  and  O_28
    2  A    between atoms: O_28  and  C_29
    3  A    between atoms: C_29  and  C_32
                            x       y       z     vdW  Elec       q    Type
                         _______ _______ _______ _____ _____    ______ ____

>  <TORSDO>
F 3

$$$$
=
 OpenBabel11112418013D

 34 41  0  0  1  0  0  0  0  0999 V2000
  192.3530  176.0320  145.7760 C   0  0  0  0  0  0  0  0  0  0  0  0
  190.0050  175.9510  146.7130 C   0  0  0  0  0  3  0  0  0  0  0  0
  196.5150  175.1800  140.8990 C   0  0  0  0  0  0  0  0  0  0  0  0
  194.4150  176.4090  144.5920 C   0  0  0  0  0  0  0  0  0  0  0  0
  194.6120  176.0430  142.1700 C   0  0  0  0  0  0  0  0  0  0  0  0
  194.8040  175.2310  139.8430 C   0  0  0  0  0  2  0  0  0  0  0  0
  195.9640  174.4190  139.8040 O   0  0  0  0  0  0  0  0  0  0  0  0
  197.7180  176.0400  142.8060 C   0  0  0  0  0  3  0  0  0  0  0  0
  190.3910  174.8820  144.6600 C   0  0  2  0  0  3  0  0  0  0  0  0
  188.0950  175.4510  142.4810 C   0  0  0  0  0  3  0  0  0  0  0  0
  193.1010  175.9900  142.1170 C   0  0  0  0  0  2  0  0  0  0  0  0
  196.6990  176.5570  143.5130 C   0  0  0  0  0  3  0  0  0  0  0  0
  190.9740  175.3760  143.3240 C   0  0  1  0  0  3  0  0  0  0  0  0
  188.8020  175.6670  146.2480 C   0  0  0  0  0  3  0  0  0  0  0  0
  195.2320  176.3200  143.3540 C   0  0  0  0  0  0  0  0  0  0  0  0
  197.5880  175.1250  141.6660 C   0  0  0  0  0  3  0  0  0  0  0  0
  188.2730  176.0730  143.8410 C   0  0  2  0  0  3  0  0  0  0  0  0
  193.0910  175.9480  144.5920 C   0  0  0  0  0  0  0  0  0  0  0  0
  195.3470  176.0900  140.8570 C   0  0  2  0  0  3  0  0  0  0  0  0
  192.5120  175.3090  143.3530 C   0  0  2  0  0  3  0  0  0  0  0  0
  194.1950  177.0250  146.8720 C   0  0  0  0  0  3  0  0  0  0  0  0
  189.0360  174.8050  141.7730 C   0  0  0  0  0  3  0  0  0  0  0  0
  194.9360  176.9350  145.7350 N   0  0  0  0  0  0  0  0  0  0  0  0
  190.4410  174.4830  142.2100 C   0  0  0  0  0  2  0  0  0  0  0  0
  188.8730  175.0880  144.8600 C   0  0  1  0  0  3  0  0  0  0  0  0
  192.9110  176.5780  146.8880 N   0  0  0  0  0  0  0  0  0  0  0  0
  191.0000  175.5740  145.7810 N   0  0  0  0  0  0  0  0  0  0  0  0
  187.0330  176.5460  144.2800 O   0  0  0  0  0  0  0  0  0  0  0  0
  186.9920  177.8840  143.8680 C   0  0  0  0  0  2  0  0  0  0  0  0
  184.0650  179.3870  144.4770 O   0  0  0  0  0  0  0  0  0  0  0  0
  185.4050  177.9550  145.7900 C   0  0  0  0  0  2  0  0  0  0  0  0
  186.3110  178.7650  144.9120 C   0  0  2  0  0  3  0  0  0  0  0  0
  184.0790  178.6660  145.6790 C   0  0  0  0  0  2  0  0  0  0  0  0
  185.3950  179.7800  144.2630 C   0  0  0  0  0  2  0  0  0  0  0  0
  1 27  1  0  0  0  0
  1 26  1  0  0  0  0
  3 16  2  0  0  0  0
  4 23  2  0  0  0  0
  5 15  2  0  0  0  0
  7  6  1  0  0  0  0
  7  3  1  0  0  0  0
  8 12  2  0  0  0  0
  9 25  1  0  0  0  0
  9 27  1  1  0  0  0
 10 17  1  0  0  0  0
 11  5  1  0  0  0  0
 13 24  1  6  0  0  0
 13 20  1  0  0  0  0
 13  9  1  0  0  0  0
 14  2  2  0  0  0  0
 15 12  1  0  0  0  0
 15  4  1  0  0  0  0
 16  8  1  0  0  0  0
 17 28  1  1  0  0  0
 17 25  1  0  0  0  0
 18  4  1  0  0  0  0
 18  1  2  0  0  0  0
 19  6  1  6  0  0  0
 19  3  1  0  0  0  0
 19  5  1  0  0  0  0
 20 11  1  6  0  0  0
 20 18  1  0  0  0  0
 21 26  2  0  0  0  0
 22 24  1  0  0  0  0
 22 10  2  0  0  0  0
 23 21  1  0  0  0  0
 25 14  1  1  0  0  0
 27  2  1  0  0  0  0
 29 28  1  0  0  0  0
 30 33  1  0  0  0  0
 32 29  1  6  0  0  0
 32 31  1  0  0  0  0
 33 31  1  0  0  0  0
 34 30  1  0  0  0  0
 34 32  1  0  0  0  0
M  END
>  <MODEL>
4

>  <REMARK>
 VINA RESULT:      -8.6      2.321      8.980
  Name = 
  3 active torsions:
  status: ('A' for Active; 'I' for Inactive)
    1  A    between atoms: C_17  and  O_28
    2  A    between atoms: O_28  and  C_29
    3  A    between atoms: C_29  and  C_32
                            x       y       z     vdW  Elec       q    Type
                         _______ _______ _______ _____ _____    ______ ____

>  <TORSDO>
F 3

$$$$
=
 OpenBabel11112418013D

 34 41  0  0  1  0  0  0  0  0999 V2000
  192.2540  175.8000  145.7860 C   0  0  0  0  0  0  0  0  0  0  0  0
  190.2010  177.2510  145.5110 C   0  0  0  0  0  3  0  0  0  0  0  0
  195.3880  170.2200  144.8510 C   0  0  0  0  0  0  0  0  0  0  0  0
  194.2180  174.4190  145.5960 C   0  0  0  0  0  0  0  0  0  0  0  0
  194.2030  172.3010  144.3510 C   0  0  0  0  0  0  0  0  0  0  0  0
  193.9540  170.0100  143.4570 C   0  0  0  0  0  2  0  0  0  0  0  0
  194.5260  169.1460  144.4230 O   0  0  0  0  0  0  0  0  0  0  0  0
  196.8570  171.7540  145.9970 C   0  0  0  0  0  3  0  0  0  0  0  0
  189.9830  174.9630  145.0380 C   0  0  2  0  0  3  0  0  0  0  0  0
  188.3200  174.3740  142.3500 C   0  0  0  0  0  3  0  0  0  0  0  0
  192.8830  172.7330  143.7510 C   0  0  0  0  0  2  0  0  0  0  0  0
  196.2510  172.9190  145.7110 C   0  0  0  0  0  3  0  0  0  0  0  0
  190.7420  174.0210  144.0860 C   0  0  1  0  0  3  0  0  0  0  0  0
  189.0260  177.1380  144.9190 C   0  0  0  0  0  3  0  0  0  0  0  0
  194.8740  173.1530  145.1800 C   0  0  0  0  0  0  0  0  0  0  0  0
  196.2760  170.4200  145.8070 C   0  0  0  0  0  3  0  0  0  0  0  0
  188.7900  175.6980  142.8910 C   0  0  2  0  0  3  0  0  0  0  0  0
  192.8460  174.6040  145.3710 C   0  0  0  0  0  0  0  0  0  0  0  0
  194.8600  171.0790  143.7670 C   0  0  2  0  0  3  0  0  0  0  0  0
  192.0230  173.4960  144.7590 C   0  0  2  0  0  3  0  0  0  0  0  0
  194.3410  176.5750  146.5770 C   0  0  0  0  0  3  0  0  0  0  0  0
  188.7930  173.1640  142.6880 C   0  0  0  0  0  3  0  0  0  0  0  0
  194.9320  175.4110  146.1970 N   0  0  0  0  0  0  0  0  0  0  0  0
  189.8270  172.8540  143.7390 C   0  0  0  0  0  2  0  0  0  0  0  0
  188.7910  175.7340  144.4300 C   0  0  1  0  0  3  0  0  0  0  0  0
  193.0120  176.7670  146.3690 N   0  0  0  0  0  0  0  0  0  0  0  0
  190.8590  176.0000  145.5520 N   0  0  0  0  0  0  0  0  0  0  0  0
  187.9730  176.7080  142.3730 O   0  0  0  0  0  0  0  0  0  0  0  0
  186.6760  176.1830  142.4240 C   0  0  0  0  0  2  0  0  0  0  0  0
  185.8150  178.4710  144.7070 O   0  0  0  0  0  0  0  0  0  0  0  0
  186.2230  178.6340  142.3880 C   0  0  0  0  0  2  0  0  0  0  0  0
  185.6430  177.2800  142.6660 C   0  0  2  0  0  3  0  0  0  0  0  0
  185.9620  179.3970  143.6640 C   0  0  0  0  0  2  0  0  0  0  0  0
  185.2310  177.3380  144.1210 C   0  0  0  0  0  2  0  0  0  0  0  0
  1 26  1  0  0  0  0
  2 27  1  0  0  0  0
  3 16  2  0  0  0  0
  4 23  2  0  0  0  0
  5 15  2  0  0  0  0
  6  7  1  0  0  0  0
  7  3  1  0  0  0  0
  9 27  1  6  0  0  0
 10 22  2  0  0  0  0
 10 17  1  0  0  0  0
 11  5  1  0  0  0  0
 12  8  2  0  0  0  0
 13 24  1  1  0  0  0
 13 20  1  0  0  0  0
 13  9  1  0  0  0  0
 14  2  2  0  0  0  0
 15  4  1  0  0  0  0
 15 12  1  0  0  0  0
 16  8  1  0  0  0  0
 17 28  1  6  0  0  0
 17 25  1  0  0  0  0
 18  4  1  0  0  0  0
 18  1  2  0  0  0  0
 19  6  1  1  0  0  0
 19  5  1  0  0  0  0
 19  3  1  0  0  0  0
 20 11  1  6  0  0  0
 20 18  1  0  0  0  0
 22 24  1  0  0  0  0
 23 21  1  0  0  0  0
 25 14  1  6  0  0  0
 25  9  1  0  0  0  0
 26 21  2  0  0  0  0
 27  1  1  0  0  0  0
 28 29  1  0  0  0  0
 31 32  1  0  0  0  0
 31 33  1  0  0  0  0
 32 29  1  1  0  0  0
 32 34  1  0  0  0  0
 33 30  1  0  0  0  0
 34 30  1  0  0  0  0
M  END
>  <MODEL>
5

>  <REMARK>
 VINA RESULT:      -8.4      2.954      8.990
  Name = 
  3 active torsions:
  status: ('A' for Active; 'I' for Inactive)
    1  A    between atoms: C_17  and  O_28
    2  A    between atoms: O_28  and  C_29
    3  A    between atoms: C_29  and  C_32
                            x       y       z     vdW  Elec       q    Type
                         _______ _______ _______ _____ _____    ______ ____

>  <TORSDO>
F 3

$$$$
=
 OpenBabel11112418013D

 34 41  0  0  1  0  0  0  0  0999 V2000
  189.4880  175.0300  142.0360 C   0  0  0  0  0  0  0  0  0  0  0  0
  187.1600  175.8300  142.6150 C   0  0  0  0  0  3  0  0  0  0  0  0
  195.8300  174.7480  143.2750 C   0  0  0  0  0  0  0  0  0  0  0  0
  191.6870  174.0610  141.8880 C   0  0  0  0  0  0  0  0  0  0  0  0
  193.4170  174.4910  143.5790 C   0  0  0  0  0  0  0  0  0  0  0  0
  195.1840  175.3370  145.0870 C   0  0  0  0  0  2  0  0  0  0  0  0
  196.2640  175.7170  144.2530 O   0  0  0  0  0  0  0  0  0  0  0  0
  195.3610  173.4180  141.3160 C   0  0  0  0  0  3  0  0  0  0  0  0
  188.9620  176.8360  143.7330 C   0  0  2  0  0  3  0  0  0  0  0  0
  188.4540  177.2020  146.8870 C   0  0  0  0  0  3  0  0  0  0  0  0
  192.3240  175.0480  144.4660 C   0  0  0  0  0  2  0  0  0  0  0  0
  194.0400  173.2280  141.4730 C   0  0  0  0  0  3  0  0  0  0  0  0
  190.1150  176.2600  144.5730 C   0  0  1  0  0  3  0  0  0  0  0  0
  186.6060  176.5280  143.5910 C   0  0  0  0  0  3  0  0  0  0  0  0
  193.0880  173.9500  142.3700 C   0  0  0  0  0  0  0  0  0  0  0  0
  196.1750  174.3940  142.0520 C   0  0  0  0  0  3  0  0  0  0  0  0
  187.6060  176.4730  145.8790 C   0  0  2  0  0  3  0  0  0  0  0  0
  190.7950  174.9360  142.5230 C   0  0  0  0  0  0  0  0  0  0  0  0
  194.7720  174.2850  144.2010 C   0  0  2  0  0  3  0  0  0  0  0  0
  191.2700  175.8090  143.6600 C   0  0  2  0  0  3  0  0  0  0  0  0
  189.9720  173.4130  140.3830 C   0  0  0  0  0  3  0  0  0  0  0  0
  189.7460  177.5400  146.7440 C   0  0  0  0  0  3  0  0  0  0  0  0
  191.2530  173.3210  140.8300 N   0  0  0  0  0  0  0  0  0  0  0  0
  190.6050  177.3470  145.5210 C   0  0  0  0  0  2  0  0  0  0  0  0
  187.6490  177.1360  144.4900 C   0  0  1  0  0  3  0  0  0  0  0  0
  189.0970  174.2600  140.9870 N   0  0  0  0  0  0  0  0  0  0  0  0
  188.5700  175.9120  142.6840 N   0  0  0  0  0  0  0  0  0  0  0  0
  186.2950  176.4140  146.3590 O   0  0  0  0  0  0  0  0  0  0  0  0
  186.2790  177.2630  147.4720 C   0  0  0  0  0  2  0  0  0  0  0  0
  185.3220  179.6350  145.3160 O   0  0  0  0  0  0  0  0  0  0  0  0
  184.1210  177.9240  146.4130 C   0  0  0  0  0  2  0  0  0  0  0  0
  185.2350  178.3640  147.3150 C   0  0  2  0  0  3  0  0  0  0  0  0
  184.0680  179.0080  145.3640 C   0  0  0  0  0  2  0  0  0  0  0  0
  185.8170  179.5810  146.6280 C   0  0  0  0  0  2  0  0  0  0  0  0
  1 18  1  0  0  0  0
  1 27  1  0  0  0  0
  2 27  1  0  0  0  0
  2 14  2  0  0  0  0
  3 19  1  0  0  0  0
  3  7  1  0  0  0  0
  4 15  1  0  0  0  0
  4 18  2  0  0  0  0
  5 19  1  0  0  0  0
  5 11  1  0  0  0  0
  7  6  1  0  0  0  0
  8 12  2  0  0  0  0
  8 16  1  0  0  0  0
  9 27  1  6  0  0  0
  9 25  1  0  0  0  0
  9 13  1  0  0  0  0
 12 15  1  0  0  0  0
 13 24  1  1  0  0  0
 15  5  2  0  0  0  0
 16  3  2  0  0  0  0
 17 28  1  1  0  0  0
 17 10  1  0  0  0  0
 18 20  1  0  0  0  0
 19  6  1  1  0  0  0
 20 11  1  1  0  0  0
 20 13  1  0  0  0  0
 21 23  2  0  0  0  0
 21 26  1  0  0  0  0
 22 10  2  0  0  0  0
 23  4  1  0  0  0  0
 24 22  1  0  0  0  0
 25 14  1  6  0  0  0
 25 17  1  0  0  0  0
 26  1  2  0  0  0  0
 28 29  1  0  0  0  0
 30 33  1  0  0  0  0
 30 34  1  0  0  0  0
 31 32  1  0  0  0  0
 32 29  1  6  0  0  0
 33 31  1  0  0  0  0
 34 32  1  0  0  0  0
M  END
>  <MODEL>
6

>  <REMARK>
 VINA RESULT:      -8.3      1.654      8.121
  Name = 
  3 active torsions:
  status: ('A' for Active; 'I' for Inactive)
    1  A    between atoms: C_17  and  O_28
    2  A    between atoms: O_28  and  C_29
    3  A    between atoms: C_29  and  C_32
                            x       y       z     vdW  Elec       q    Type
                         _______ _______ _______ _____ _____    ______ ____

>  <TORSDO>
F 3

$$$$
=
 OpenBabel11112418013D

 34 41  0  0  1  0  0  0  0  0999 V2000
  190.1220  174.8750  144.8230 C   0  0  0  0  0  0  0  0  0  0  0  0
  191.6040  173.4070  143.3940 C   0  0  0  0  0  3  0  0  0  0  0  0
  185.1180  178.9230  145.4600 C   0  0  0  0  0  0  0  0  0  0  0  0
  188.3780  175.9950  146.0500 C   0  0  0  0  0  0  0  0  0  0  0  0
  186.3760  176.8910  144.9430 C   0  0  0  0  0  0  0  0  0  0  0  0
  184.6430  178.1200  143.6790 C   0  0  0  0  0  2  0  0  0  0  0  0
  184.6340  179.4360  144.2020 O   0  0  0  0  0  0  0  0  0  0  0  0
  186.0880  178.5380  147.6370 C   0  0  0  0  0  3  0  0  0  0  0  0
  190.1640  174.8960  142.2900 C   0  0  2  0  0  3  0  0  0  0  0  0
  188.6580  173.5750  139.7740 C   0  0  0  0  0  3  0  0  0  0  0  0
  186.7620  176.0800  143.7250 C   0  0  0  0  0  2  0  0  0  0  0  0
  186.7620  177.4020  147.3950 C   0  0  0  0  0  3  0  0  0  0  0  0
  188.6410  175.1080  142.3530 C   0  0  1  0  0  3  0  0  0  0  0  0
  191.6450  173.0400  142.1250 C   0  0  0  0  0  3  0  0  0  0  0  0
  187.1200  176.7840  146.0820 C   0  0  0  0  0  0  0  0  0  0  0  0
  185.5150  179.4230  146.6150 C   0  0  0  0  0  3  0  0  0  0  0  0
  189.5300  172.9060  140.8020 C   0  0  2  0  0  3  0  0  0  0  0  0
  188.9290  175.6040  144.8210 C   0  0  0  0  0  0  0  0  0  0  0  0
  185.0190  177.5410  144.9380 C   0  0  2  0  0  3  0  0  0  0  0  0
  188.2770  176.0340  143.5290 C   0  0  2  0  0  3  0  0  0  0  0  0
  190.1600  174.9150  147.1850 C   0  0  0  0  0  3  0  0  0  0  0  0
  188.0570  174.7700  139.8970 C   0  0  0  0  0  3  0  0  0  0  0  0
  189.0100  175.6420  147.2040 N   0  0  0  0  0  0  0  0  0  0  0  0
  188.1910  175.7400  141.0430 C   0  0  0  0  0  2  0  0  0  0  0  0
  190.6630  173.8240  141.2960 C   0  0  1  0  0  3  0  0  0  0  0  0
  190.7070  174.5340  146.0010 N   0  0  0  0  0  0  0  0  0  0  0  0
  190.6840  174.4650  143.5750 N   0  0  0  0  0  0  0  0  0  0  0  0
  190.0510  171.7310  140.2500 O   0  0  0  0  0  0  0  0  0  0  0  0
  189.6040  171.7290  138.9230 C   0  0  0  0  0  2  0  0  0  0  0  0
  191.3200  168.8590  139.0450 O   0  0  0  0  0  0  0  0  0  0  0  0
  189.7000  169.6640  137.5280 C   0  0  0  0  0  2  0  0  0  0  0  0
  190.4780  170.8370  138.0460 C   0  0  2  0  0  3  0  0  0  0  0  0
  190.5310  168.4770  137.9500 C   0  0  0  0  0  2  0  0  0  0  0  0
  191.6070  170.2180  138.8410 C   0  0  0  0  0  2  0  0  0  0  0  0
  1 26  1  0  0  0  0
  2 27  1  0  0  0  0
  3 16  2  0  0  0  0
  4 15  1  0  0  0  0
  4 23  2  0  0  0  0
  5 15  2  0  0  0  0
  6  7  1  0  0  0  0
  7  3  1  0  0  0  0
  9 13  1  0  0  0  0
  9 27  1  1  0  0  0
 10 22  2  0  0  0  0
 10 17  1  0  0  0  0
 11  5  1  0  0  0  0
 12  8  2  0  0  0  0
 13 24  1  6  0  0  0
 13 20  1  0  0  0  0
 14  2  2  0  0  0  0
 15 12  1  0  0  0  0
 16  8  1  0  0  0  0
 17 28  1  6  0  0  0
 17 25  1  0  0  0  0
 18  1  2  0  0  0  0
 18  4  1  0  0  0  0
 19  6  1  6  0  0  0
 19  5  1  0  0  0  0
 19  3  1  0  0  0  0
 20 11  1  1  0  0  0
 20 18  1  0  0  0  0
 21 23  1  0  0  0  0
 22 24  1  0  0  0  0
 25 14  1  1  0  0  0
 25  9  1  0  0  0  0
 26 21  2  0  0  0  0
 27  1  1  0  0  0  0
 29 28  1  0  0  0  0
 31 33  1  0  0  0  0
 31 32  1  0  0  0  0
 32 34  1  0  0  0  0
 32 29  1  1  0  0  0
 33 30  1  0  0  0  0
 34 30  1  0  0  0  0
M  END
>  <MODEL>
7

>  <REMARK>
 VINA RESULT:      -8.3      3.354      5.605
  Name = 
  3 active torsions:
  status: ('A' for Active; 'I' for Inactive)
    1  A    between atoms: C_17  and  O_28
    2  A    between atoms: O_28  and  C_29
    3  A    between atoms: C_29  and  C_32
                            x       y       z     vdW  Elec       q    Type
                         _______ _______ _______ _____ _____    ______ ____

>  <TORSDO>
F 3

$$$$
=
 OpenBabel11112418013D

 34 41  0  0  1  0  0  0  0  0999 V2000
  192.3390  176.3560  145.6710 C   0  0  0  0  0  0  0  0  0  0  0  0
  190.1540  177.0270  146.7530 C   0  0  0  0  0  3  0  0  0  0  0  0
  195.6580  173.9950  140.6470 C   0  0  0  0  0  0  0  0  0  0  0  0
  194.3160  176.0350  144.3340 C   0  0  0  0  0  0  0  0  0  0  0  0
  194.1950  175.4610  141.9480 C   0  0  0  0  0  0  0  0  0  0  0  0
  193.9500  174.4680  139.6970 C   0  0  0  0  0  2  0  0  0  0  0  0
  194.8230  173.3530  139.6620 O   0  0  0  0  0  0  0  0  0  0  0  0
  197.2130  174.5990  142.3910 C   0  0  0  0  0  3  0  0  0  0  0  0
  190.0440  175.7520  144.7860 C   0  0  2  0  0  3  0  0  0  0  0  0
  187.8290  176.8110  142.7090 C   0  0  0  0  0  3  0  0  0  0  0  0
  192.7320  175.8460  141.9930 C   0  0  0  0  0  2  0  0  0  0  0  0
  196.4470  175.4370  143.1090 C   0  0  0  0  0  3  0  0  0  0  0  0
  190.6280  175.9610  143.3780 C   0  0  1  0  0  3  0  0  0  0  0  0
  188.8840  177.0730  146.3910 C   0  0  0  0  0  3  0  0  0  0  0  0
  194.9650  175.6260  143.0620 C   0  0  0  0  0  0  0  0  0  0  0  0
  196.7320  173.6850  141.3490 C   0  0  0  0  0  3  0  0  0  0  0  0
  188.2910  177.4470  143.9930 C   0  0  2  0  0  3  0  0  0  0  0  0
  192.9200  175.9800  144.4570 C   0  0  0  0  0  0  0  0  0  0  0  0
  194.7990  175.2000  140.5940 C   0  0  2  0  0  3  0  0  0  0  0  0
  192.0800  175.4520  143.3190 C   0  0  2  0  0  3  0  0  0  0  0  0
  194.4740  176.8450  146.5580 C   0  0  0  0  0  3  0  0  0  0  0  0
  188.4840  175.8720  142.0060 C   0  0  0  0  0  3  0  0  0  0  0  0
  195.0600  176.4650  145.3910 N   0  0  0  0  0  0  0  0  0  0  0  0
  189.7710  175.1870  142.3850 C   0  0  0  0  0  2  0  0  0  0  0  0
  188.6700  176.4030  145.0600 C   0  0  1  0  0  3  0  0  0  0  0  0
  193.1220  176.7930  146.6930 N   0  0  0  0  0  0  0  0  0  0  0  0
  190.9170  176.3130  145.8010 N   0  0  0  0  0  0  0  0  0  0  0  0
  187.2790  178.2890  144.4630 O   0  0  0  0  0  0  0  0  0  0  0  0
  186.0880  177.7090  144.0110 C   0  0  0  0  0  2  0  0  0  0  0  0
  185.6570  177.4090  147.3150 O   0  0  0  0  0  0  0  0  0  0  0  0
  185.0420  179.1040  145.7920 C   0  0  0  0  0  2  0  0  0  0  0  0
  184.9940  177.7900  145.0720 C   0  0  2  0  0  3  0  0  0  0  0  0
  185.1280  178.7050  147.2460 C   0  0  0  0  0  2  0  0  0  0  0  0
  185.2020  176.7570  146.1580 C   0  0  0  0  0  2  0  0  0  0  0  0
  1 27  1  0  0  0  0
  1 26  1  0  0  0  0
  3 16  2  0  0  0  0
  4 18  1  0  0  0  0
  4 23  2  0  0  0  0
  5 11  1  0  0  0  0
  5 15  2  0  0  0  0
  7  6  1  0  0  0  0
  7  3  1  0  0  0  0
  8 12  2  0  0  0  0
  9 25  1  0  0  0  0
  9 27  1  1  0  0  0
 10 17  1  0  0  0  0
 13 24  1  6  0  0  0
 13  9  1  0  0  0  0
 14  2  2  0  0  0  0
 15 12  1  0  0  0  0
 15  4  1  0  0  0  0
 16  8  1  0  0  0  0
 17 28  1  1  0  0  0
 17 25  1  0  0  0  0
 18  1  2  0  0  0  0
 19  6  1  6  0  0  0
 19  3  1  0  0  0  0
 19  5  1  0  0  0  0
 20 11  1  6  0  0  0
 20 13  1  0  0  0  0
 20 18  1  0  0  0  0
 21 26  2  0  0  0  0
 22 24  1  0  0  0  0
 22 10  2  0  0  0  0
 23 21  1  0  0  0  0
 25 14  1  1  0  0  0
 27  2  1  0  0  0  0
 29 28  1  0  0  0  0
 31 33  1  0  0  0  0
 32 29  1  6  0  0  0
 32 31  1  0  0  0  0
 32 34  1  0  0  0  0
 33 30  1  0  0  0  0
 34 30  1  0  0  0  0
M  END
>  <MODEL>
8

>  <REMARK>
 VINA RESULT:      -8.2      2.400      8.957
  Name = 
  3 active torsions:
  status: ('A' for Active; 'I' for Inactive)
    1  A    between atoms: C_17  and  O_28
    2  A    between atoms: O_28  and  C_29
    3  A    between atoms: C_29  and  C_32
                            x       y       z     vdW  Elec       q    Type
                         _______ _______ _______ _____ _____    ______ ____

>  <TORSDO>
F 3

$$$$
=
 OpenBabel11112418013D

 34 41  0  0  1  0  0  0  0  0999 V2000
  188.8740  177.2760  146.2790 C   0  0  0  0  0  0  0  0  0  0  0  0
  190.9820  176.7950  147.5890 C   0  0  0  0  0  3  0  0  0  0  0  0
  185.7180  177.7920  140.6570 C   0  0  0  0  0  0  0  0  0  0  0  0
  186.9080  177.3050  144.8880 C   0  0  0  0  0  0  0  0  0  0  0  0
  187.0060  176.8020  142.4850 C   0  0  0  0  0  0  0  0  0  0  0  0
  187.2940  176.7100  140.0310 C   0  0  0  0  0  2  0  0  0  0  0  0
  186.5940  177.8270  139.5110 O   0  0  0  0  0  0  0  0  0  0  0  0
  184.1700  178.2190  142.4590 C   0  0  0  0  0  3  0  0  0  0  0  0
  191.1910  177.0960  145.2710 C   0  0  2  0  0  3  0  0  0  0  0  0
  193.1300  174.9400  143.8810 C   0  0  0  0  0  3  0  0  0  0  0  0
  188.3970  176.2530  142.7190 C   0  0  0  0  0  2  0  0  0  0  0  0
  184.8360  177.6530  143.4790 C   0  0  0  0  0  3  0  0  0  0  0  0
  190.5200  176.4080  144.0690 C   0  0  1  0  0  3  0  0  0  0  0  0
  192.2140  176.4080  147.3080 C   0  0  0  0  0  3  0  0  0  0  0  0
  186.2700  177.2380  143.5480 C   0  0  0  0  0  0  0  0  0  0  0  0
  184.7340  178.5280  141.1390 C   0  0  0  0  0  3  0  0  0  0  0  0
  192.6380  174.9790  145.3030 C   0  0  2  0  0  3  0  0  0  0  0  0
  188.3010  177.1930  145.0060 C   0  0  0  0  0  0  0  0  0  0  0  0
  186.3870  176.5610  141.1340 C   0  0  2  0  0  3  0  0  0  0  0  0
  189.1580  177.0610  143.7700 C   0  0  2  0  0  3  0  0  0  0  0  0
  186.7320  177.5360  147.2420 C   0  0  0  0  0  3  0  0  0  0  0  0
  192.5910  175.5860  142.8340 C   0  0  0  0  0  3  0  0  0  0  0  0
  186.1570  177.4770  146.0110 N   0  0  0  0  0  0  0  0  0  0  0  0
  191.4370  176.5550  142.8610 C   0  0  0  0  0  2  0  0  0  0  0  0
  192.4650  176.4180  145.8230 C   0  0  1  0  0  3  0  0  0  0  0  0
  188.0810  177.4330  147.3720 N   0  0  0  0  0  0  0  0  0  0  0  0
  190.2910  177.1520  146.4090 N   0  0  0  0  0  0  0  0  0  0  0  0
  193.5340  174.2670  146.1060 O   0  0  0  0  0  0  0  0  0  0  0  0
  193.8920  173.1490  145.3410 C   0  0  0  0  0  2  0  0  0  0  0  0
  196.8060  173.5630  143.7500 O   0  0  0  0  0  0  0  0  0  0  0  0
  196.1400  174.0270  145.9660 C   0  0  0  0  0  2  0  0  0  0  0  0
  195.3760  172.8280  145.4920 C   0  0  2  0  0  3  0  0  0  0  0  0
  197.2310  174.1800  144.9340 C   0  0  0  0  0  2  0  0  0  0  0  0
  196.0040  172.4860  144.1570 C   0  0  0  0  0  2  0  0  0  0  0  0
  1 27  1  0  0  0  0
  1 26  1  0  0  0  0
  3 19  1  0  0  0  0
  3 16  2  0  0  0  0
  4 18  1  0  0  0  0
  4 23  2  0  0  0  0
  5 11  1  0  0  0  0
  5 15  2  0  0  0  0
  7  6  1  0  0  0  0
  7  3  1  0  0  0  0
  8 12  2  0  0  0  0
  9 25  1  0  0  0  0
  9 27  1  1  0  0  0
 10 17  1  0  0  0  0
 12 15  1  0  0  0  0
 13 24  1  6  0  0  0
 13  9  1  0  0  0  0
 14  2  2  0  0  0  0
 15  4  1  0  0  0  0
 16  8  1  0  0  0  0
 17 25  1  0  0  0  0
 17 28  1  1  0  0  0
 18  1  2  0  0  0  0
 19  6  1  6  0  0  0
 19  5  1  0  0  0  0
 20 11  1  6  0  0  0
 20 13  1  0  0  0  0
 20 18  1  0  0  0  0
 21 26  2  0  0  0  0
 22 24  1  0  0  0  0
 22 10  2  0  0  0  0
 23 21  1  0  0  0  0
 25 14  1  1  0  0  0
 27  2  1  0  0  0  0
 29 28  1  0  0  0  0
 30 34  1  0  0  0  0
 30 33  1  0  0  0  0
 32 29  1  6  0  0  0
 32 31  1  0  0  0  0
 33 31  1  0  0  0  0
 34 32  1  0  0  0  0
M  END
>  <MODEL>
9

>  <REMARK>
 VINA RESULT:      -8.1      2.595      4.116
  Name = 
  3 active torsions:
  status: ('A' for Active; 'I' for Inactive)
    1  A    between atoms: C_17  and  O_28
    2  A    between atoms: O_28  and  C_29
    3  A    between atoms: C_29  and  C_32
                            x       y       z     vdW  Elec       q    Type
                         _______ _______ _______ _____ _____    ______ ____

>  <TORSDO>
F 3

$$$$
