=
 OpenBabel11112417423D

 28 32  0  0  1  0  0  0  0  0999 V2000
  191.1550  174.8600  144.6410 C   0  0  0  0  0  0  0  0  0  0  0  0
  188.1760  175.6400  146.3660 O   0  0  0  0  0  1  0  0  0  0  0  0
  187.4610  176.3760  139.9990 O   0  0  0  0  0  0  0  0  0  0  0  0
  193.1340  176.8410  144.4480 C   0  0  0  0  0  3  0  0  0  0  0  0
  186.6750  176.9760  142.1380 N   0  0  0  0  0  0  0  0  0  0  0  0
  189.9900  173.5030  144.7620 S   0  0  0  0  0  0  0  0  0  0  0  0
  189.9630  177.0130  147.1110 C   0  0  0  0  0  1  0  0  0  0  0  0
  188.6160  176.9650  146.4150 C   0  0  1  0  0  0  0  0  0  0  0  0
  186.4560  178.1910  146.6170 C   0  0  0  0  0  0  0  0  0  0  0  0
  188.7260  177.5680  144.9900 C   0  0  2  0  0  3  0  0  0  0  0  0
  188.1170  172.5460  142.0770 O   0  0  0  0  0  0  0  0  0  0  0  0
  188.3360  175.7600  143.3610 C   0  0  1  0  0  3  0  0  0  0  0  0
  186.2910  178.1300  145.2350 O   0  0  0  0  0  0  0  0  0  0  0  0
  187.6720  177.7410  147.2040 N   0  0  0  0  0  2  0  0  0  0  0  0
  189.1720  173.2330  142.0510 C   0  0  0  0  0  0  0  0  0  0  0  0
  190.8020  176.1730  144.2340 C   0  0  0  0  0  0  0  0  0  0  0  0
  187.5750  176.3460  141.2530 C   0  0  0  0  0  0  0  0  0  0  0  0
  185.2670  178.7910  147.5580 S   0  0  0  0  0  0  0  0  0  0  0  0
  189.1870  174.4850  141.3680 N   0  0  0  0  0  2  0  0  0  0  0  0
  191.8080  177.1440  144.1390 C   0  0  0  0  0  3  0  0  0  0  0  0
  192.4880  174.5750  144.9660 C   0  0  0  0  0  3  0  0  0  0  0  0
  193.4730  175.5570  144.8680 C   0  0  0  0  0  3  0  0  0  0  0  0
  190.6250  172.6510  142.9080 S   0  0  0  0  0  0  0  0  0  0  0  0
  187.0230  176.5740  143.4970 C   0  0  1  0  0  3  0  0  0  0  0  0
  188.5690  175.6110  141.9290 N   0  0  0  0  0  0  0  0  0  0  0  0
  187.3560  177.8060  144.3360 C   0  0  2  0  0  3  0  0  0  0  0  0
  185.3930  177.5400  141.7550 C   0  0  0  0  0  1  0  0  0  0  0  0
  189.3990  176.6600  143.9660 C   0  0  2  0  0  3  0  0  0  0  0  0
  1  6  1  0  0  0  0
  1 21  1  0  0  0  0
  2  8  1  0  0  0  0
  3 17  2  0  0  0  0
  4 22  1  0  0  0  0
  5 24  1  0  0  0  0
  8  7  1  1  0  0  0
  8 14  1  0  0  0  0
  9 14  1  0  0  0  0
  9 18  2  0  0  0  0
 10  8  1  0  0  0  0
 12 24  1  0  0  0  0
 12 28  1  0  0  0  0
 13  9  1  0  0  0  0
 15 11  2  0  0  0  0
 15 23  1  0  0  0  0
 16  1  2  0  0  0  0
 17 25  1  0  0  0  0
 17  5  1  0  0  0  0
 19 25  1  0  0  0  0
 19 15  1  0  0  0  0
 20 16  1  0  0  0  0
 20  4  2  0  0  0  0
 22 21  2  0  0  0  0
 23  6  1  0  0  0  0
 24 26  1  0  0  0  0
 25 12  1  0  0  0  0
 26 10  1  0  0  0  0
 26 13  1  0  0  0  0
 27  5  1  0  0  0  0
 28 16  1  0  0  0  0
 28 10  1  0  0  0  0
M  END
>  <MODEL>
1

>  <REMARK>
 VINA RESULT:      -8.4      0.000      0.000
  Name = 
  0 active torsions:
  status: ('A' for Active; 'I' for Inactive)
                            x       y       z     vdW  Elec       q    Type
                         _______ _______ _______ _____ _____    ______ ____

>  <TORSDO>
F 0

$$$$
=
 OpenBabel11112417423D

 28 32  0  0  1  0  0  0  0  0999 V2000
  188.9040  176.2330  145.0590 C   0  0  0  0  0  0  0  0  0  0  0  0
  191.9610  177.2330  143.6060 O   0  0  0  0  0  1  0  0  0  0  0  0
  189.4070  172.2090  140.4700 O   0  0  0  0  0  0  0  0  0  0  0  0
  188.9890  174.5390  147.2960 C   0  0  0  0  0  3  0  0  0  0  0  0
  191.3710  173.4170  140.9610 N   0  0  0  0  0  0  0  0  0  0  0  0
  188.7350  177.3650  143.6800 S   0  0  0  0  0  0  0  0  0  0  0  0
  192.2650  176.6520  145.8880 C   0  0  0  0  0  1  0  0  0  0  0  0
  192.5980  176.3150  144.4470 C   0  0  1  0  0  0  0  0  0  0  0  0
  194.6750  175.8320  143.1600 C   0  0  0  0  0  0  0  0  0  0  0  0
  192.1590  174.8640  144.1190 C   0  0  2  0  0  3  0  0  0  0  0  0
  187.7050  176.2710  140.6190 O   0  0  0  0  0  0  0  0  0  0  0  0
  190.3370  174.9700  142.4620 C   0  0  1  0  0  3  0  0  0  0  0  0
  193.9850  174.8930  142.3950 O   0  0  0  0  0  0  0  0  0  0  0  0
  194.0360  176.4440  144.2740 N   0  0  0  0  0  2  0  0  0  0  0  0
  187.5540  175.6780  141.7180 C   0  0  0  0  0  0  0  0  0  0  0  0
  189.7210  175.0730  145.0350 C   0  0  0  0  0  0  0  0  0  0  0  0
  189.9990  173.1230  141.1050 C   0  0  0  0  0  0  0  0  0  0  0  0
  196.2170  176.2160  142.7890 S   0  0  0  0  0  0  0  0  0  0  0  0
  187.9830  174.3250  141.8590 N   0  0  0  0  0  2  0  0  0  0  0  0
  189.7440  174.2380  146.1620 C   0  0  0  0  0  3  0  0  0  0  0  0
  188.1660  176.5320  146.2120 C   0  0  0  0  0  3  0  0  0  0  0  0
  188.2040  175.6900  147.3240 C   0  0  0  0  0  3  0  0  0  0  0  0
  186.8460  176.5510  143.1030 S   0  0  0  0  0  0  0  0  0  0  0  0
  191.6520  174.6370  141.7090 C   0  0  1  0  0  3  0  0  0  0  0  0
  189.3460  174.0170  141.9770 N   0  0  0  0  0  0  0  0  0  0  0  0
  192.7110  174.3640  142.7740 C   0  0  2  0  0  3  0  0  0  0  0  0
  192.2290  172.8790  139.9200 C   0  0  0  0  0  1  0  0  0  0  0  0
  190.6590  174.6840  143.9180 C   0  0  2  0  0  3  0  0  0  0  0  0
  1 21  1  0  0  0  0
  2  8  1  0  0  0  0
  3 17  2  0  0  0  0
  4 22  1  0  0  0  0
  5 17  1  0  0  0  0
  5 24  1  0  0  0  0
  6  1  1  0  0  0  0
  8  7  1  1  0  0  0
  9 14  1  0  0  0  0
 10  8  1  0  0  0  0
 11 15  2  0  0  0  0
 12 28  1  0  0  0  0
 13 26  1  0  0  0  0
 13  9  1  0  0  0  0
 14  8  1  0  0  0  0
 15 19  1  0  0  0  0
 15 23  1  0  0  0  0
 16  1  2  0  0  0  0
 16 20  1  0  0  0  0
 17 25  1  0  0  0  0
 18  9  2  0  0  0  0
 19 25  1  0  0  0  0
 20  4  2  0  0  0  0
 21 22  2  0  0  0  0
 23  6  1  0  0  0  0
 24 12  1  0  0  0  0
 24 26  1  0  0  0  0
 25 12  1  0  0  0  0
 26 10  1  0  0  0  0
 27  5  1  0  0  0  0
 28 10  1  0  0  0  0
 28 16  1  0  0  0  0
M  END
>  <MODEL>
2

>  <REMARK>
 VINA RESULT:      -7.8      3.042      5.524
  Name = 
  0 active torsions:
  status: ('A' for Active; 'I' for Inactive)
                            x       y       z     vdW  Elec       q    Type
                         _______ _______ _______ _____ _____    ______ ____

>  <TORSDO>
F 0

$$$$
=
 OpenBabel11112417423D

 28 32  0  0  1  0  0  0  0  0999 V2000
  189.0370  175.9590  144.6350 C   0  0  0  0  0  0  0  0  0  0  0  0
  192.3140  176.5530  143.4650 O   0  0  0  0  0  1  0  0  0  0  0  0
  190.1790  170.7560  141.6150 O   0  0  0  0  0  0  0  0  0  0  0  0
  188.7150  175.0200  147.2600 C   0  0  0  0  0  3  0  0  0  0  0  0
  192.0660  172.1040  142.0320 N   0  0  0  0  0  0  0  0  0  0  0  0
  189.1240  176.6190  142.9700 S   0  0  0  0  0  0  0  0  0  0  0  0
  192.2280  176.6930  145.8330 C   0  0  0  0  0  1  0  0  0  0  0  0
  192.7830  175.9470  144.6340 C   0  0  1  0  0  0  0  0  0  0  0  0
  195.0290  175.1520  143.9080 C   0  0  0  0  0  0  0  0  0  0  0  0
  192.3670  174.4540  144.6920 C   0  0  2  0  0  3  0  0  0  0  0  0
  188.5770  174.6290  140.2560 O   0  0  0  0  0  0  0  0  0  0  0  0
  190.8420  174.0100  142.8070 C   0  0  1  0  0  3  0  0  0  0  0  0
  194.4480  174.0090  143.3590 O   0  0  0  0  0  0  0  0  0  0  0  0
  194.2320  176.0550  144.6670 N   0  0  0  0  0  2  0  0  0  0  0  0
  188.2350  174.3900  141.4430 C   0  0  0  0  0  0  0  0  0  0  0  0
  189.8180  174.8670  145.0940 C   0  0  0  0  0  0  0  0  0  0  0  0
  190.6820  171.8330  142.0330 C   0  0  0  0  0  0  0  0  0  0  0  0
  196.6190  175.4450  143.6950 S   0  0  0  0  0  0  0  0  0  0  0  0
  188.6010  173.1540  142.0520 N   0  0  0  0  0  2  0  0  0  0  0  0
  189.6370  174.4110  146.4080 C   0  0  0  0  0  3  0  0  0  0  0  0
  188.1300  176.5720  145.5080 C   0  0  0  0  0  3  0  0  0  0  0  0
  187.9660  176.1060  146.8130 C   0  0  0  0  0  3  0  0  0  0  0  0
  187.3330  175.6220  142.3670 S   0  0  0  0  0  0  0  0  0  0  0  0
  192.2520  173.4990  142.4130 C   0  0  1  0  0  3  0  0  0  0  0  0
  189.9180  172.9300  142.4770 N   0  0  0  0  0  0  0  0  0  0  0  0
  193.1170  173.5870  143.6690 C   0  0  2  0  0  3  0  0  0  0  0  0
  193.0690  171.2990  141.3550 C   0  0  0  0  0  1  0  0  0  0  0  0
  190.9150  174.1840  144.3140 C   0  0  2  0  0  3  0  0  0  0  0  0
  1 16  2  0  0  0  0
  1 21  1  0  0  0  0
  2  8  1  0  0  0  0
  3 17  2  0  0  0  0
  5 17  1  0  0  0  0
  5 24  1  0  0  0  0
  6  1  1  0  0  0  0
  8 14  1  0  0  0  0
  8 10  1  0  0  0  0
  8  7  1  1  0  0  0
  9 14  1  0  0  0  0
 11 15  2  0  0  0  0
 12 28  1  0  0  0  0
 13 26  1  0  0  0  0
 13  9  1  0  0  0  0
 15 19  1  0  0  0  0
 15 23  1  0  0  0  0
 16 20  1  0  0  0  0
 17 25  1  0  0  0  0
 18  9  2  0  0  0  0
 19 25  1  0  0  0  0
 20  4  2  0  0  0  0
 21 22  2  0  0  0  0
 22  4  1  0  0  0  0
 23  6  1  0  0  0  0
 24 12  1  0  0  0  0
 24 26  1  0  0  0  0
 25 12  1  0  0  0  0
 26 10  1  0  0  0  0
 27  5  1  0  0  0  0
 28 10  1  0  0  0  0
 28 16  1  0  0  0  0
M  END
>  <MODEL>
3

>  <REMARK>
 VINA RESULT:      -7.4      3.205      5.867
  Name = 
  0 active torsions:
  status: ('A' for Active; 'I' for Inactive)
                            x       y       z     vdW  Elec       q    Type
                         _______ _______ _______ _____ _____    ______ ____

>  <TORSDO>
F 0

$$$$
=
 OpenBabel11112417423D

 28 32  0  0  1  0  0  0  0  0999 V2000
  186.9620  178.0470  144.8440 C   0  0  0  0  0  0  0  0  0  0  0  0
  190.4820  177.8000  144.7560 O   0  0  0  0  0  1  0  0  0  0  0  0
  187.7060  172.7800  141.8100 O   0  0  0  0  0  0  0  0  0  0  0  0
  185.6280  177.1750  147.1540 C   0  0  0  0  0  3  0  0  0  0  0  0
  189.6360  173.5910  142.8930 N   0  0  0  0  0  0  0  0  0  0  0  0
  187.7150  178.6930  143.3500 S   0  0  0  0  0  0  0  0  0  0  0  0
  189.7030  177.9160  146.9950 C   0  0  0  0  0  1  0  0  0  0  0  0
  190.4070  177.0740  145.9470 C   0  0  1  0  0  0  0  0  0  0  0  0
  192.5090  175.7420  145.8430 C   0  0  0  0  0  0  0  0  0  0  0  0
  189.6500  175.7370  145.7360 C   0  0  2  0  0  3  0  0  0  0  0  0
  187.5770  176.9590  140.4170 O   0  0  0  0  0  0  0  0  0  0  0  0
  188.7240  175.7330  143.4520 C   0  0  1  0  0  3  0  0  0  0  0  0
  191.8720  174.7970  145.0410 O   0  0  0  0  0  0  0  0  0  0  0  0
  191.7560  176.8050  146.4160 N   0  0  0  0  0  2  0  0  0  0  0  0
  186.8380  176.7950  141.4220 C   0  0  0  0  0  0  0  0  0  0  0  0
  187.2780  176.7830  145.4060 C   0  0  0  0  0  0  0  0  0  0  0  0
  188.2970  173.6840  142.4590 C   0  0  0  0  0  0  0  0  0  0  0  0
  194.1080  175.6210  146.1380 S   0  0  0  0  0  0  0  0  0  0  0  0
  186.6910  175.4950  141.9900 N   0  0  0  0  0  2  0  0  0  0  0  0
  186.5950  176.3660  146.5570 C   0  0  0  0  0  3  0  0  0  0  0  0
  186.0030  178.8570  145.4650 C   0  0  0  0  0  3  0  0  0  0  0  0
  185.3360  178.4250  146.6120 C   0  0  0  0  0  3  0  0  0  0  0  0
  186.0160  178.2000  142.1520 S   0  0  0  0  0  0  0  0  0  0  0  0
  190.0220  174.8850  143.4440 C   0  0  1  0  0  3  0  0  0  0  0  0
  187.7180  174.9330  142.7610 N   0  0  0  0  0  0  0  0  0  0  0  0
  190.4500  174.7250  144.9010 C   0  0  2  0  0  3  0  0  0  0  0  0
  190.5760  172.5680  142.4670 C   0  0  0  0  0  1  0  0  0  0  0  0
  188.3660  175.8550  144.9220 C   0  0  2  0  0  3  0  0  0  0  0  0
  1 16  2  0  0  0  0
  1 21  1  0  0  0  0
  2  8  1  0  0  0  0
  3 17  2  0  0  0  0
  5 24  1  0  0  0  0
  6  1  1  0  0  0  0
  8 14  1  0  0  0  0
  8  7  1  1  0  0  0
  9 18  2  0  0  0  0
  9 14  1  0  0  0  0
 10  8  1  0  0  0  0
 11 15  2  0  0  0  0
 12 28  1  0  0  0  0
 13  9  1  0  0  0  0
 15 19  1  0  0  0  0
 15 23  1  0  0  0  0
 16 20  1  0  0  0  0
 17 25  1  0  0  0  0
 17  5  1  0  0  0  0
 19 25  1  0  0  0  0
 20  4  2  0  0  0  0
 21 22  2  0  0  0  0
 22  4  1  0  0  0  0
 23  6  1  0  0  0  0
 24 12  1  0  0  0  0
 24 26  1  0  0  0  0
 25 12  1  0  0  0  0
 26 13  1  0  0  0  0
 26 10  1  0  0  0  0
 27  5  1  0  0  0  0
 28 16  1  0  0  0  0
 28 10  1  0  0  0  0
M  END
>  <MODEL>
4

>  <REMARK>
 VINA RESULT:      -7.4      2.460      5.219
  Name = 
  0 active torsions:
  status: ('A' for Active; 'I' for Inactive)
                            x       y       z     vdW  Elec       q    Type
                         _______ _______ _______ _____ _____    ______ ____

>  <TORSDO>
F 0

$$$$
=
 OpenBabel11112417423D

 28 32  0  0  1  0  0  0  0  0999 V2000
  191.1960  174.1040  142.6860 C   0  0  0  0  0  0  0  0  0  0  0  0
  189.3510  177.0990  142.3850 O   0  0  0  0  0  1  0  0  0  0  0  0
  191.4200  176.2170  148.4290 O   0  0  0  0  0  0  0  0  0  0  0  0
  189.7830  171.7040  143.0300 C   0  0  0  0  0  3  0  0  0  0  0  0
  189.8380  177.2730  147.0360 N   0  0  0  0  0  0  0  0  0  0  0  0
  192.1940  175.5670  142.4030 S   0  0  0  0  0  0  0  0  0  0  0  0
  188.0380  175.2330  141.7320 C   0  0  0  0  0  1  0  0  0  0  0  0
  188.2110  176.3660  142.7250 C   0  0  1  0  0  0  0  0  0  0  0  0
  186.7510  178.1470  143.6760 C   0  0  0  0  0  0  0  0  0  0  0  0
  188.3210  175.8050  144.1670 C   0  0  2  0  0  3  0  0  0  0  0  0
  193.9850  176.9920  144.9310 O   0  0  0  0  0  0  0  0  0  0  0  0
  190.5950  176.2690  144.9990 C   0  0  1  0  0  3  0  0  0  0  0  0
  187.3950  178.0190  144.9060 O   0  0  0  0  0  0  0  0  0  0  0  0
  187.0510  177.2360  142.6240 N   0  0  0  0  0  2  0  0  0  0  0  0
  193.5260  175.8210  144.9040 C   0  0  0  0  0  0  0  0  0  0  0  0
  190.1650  174.0260  143.6580 C   0  0  0  0  0  0  0  0  0  0  0  0
  190.9070  176.3880  147.2910 C   0  0  0  0  0  0  0  0  0  0  0  0
  185.6470  179.3250  143.4480 S   0  0  0  0  0  0  0  0  0  0  0  0
  192.7190  175.3500  145.9810 N   0  0  0  0  0  2  0  0  0  0  0  0
  189.4770  172.8150  143.8160 C   0  0  0  0  0  3  0  0  0  0  0  0
  191.4800  172.9860  141.8910 C   0  0  0  0  0  3  0  0  0  0  0  0
  190.7810  171.7920  142.0620 C   0  0  0  0  0  3  0  0  0  0  0  0
  193.8530  174.7770  143.4940 S   0  0  0  0  0  0  0  0  0  0  0  0
  189.6400  177.3370  145.5930 C   0  0  1  0  0  3  0  0  0  0  0  0
  191.3900  175.7760  146.1170 N   0  0  0  0  0  0  0  0  0  0  0  0
  188.2190  176.9000  145.2420 C   0  0  2  0  0  3  0  0  0  0  0  0
  189.3390  178.2620  147.9760 C   0  0  0  0  0  1  0  0  0  0  0  0
  189.6680  175.1730  144.5030 C   0  0  2  0  0  3  0  0  0  0  0  0
  1 16  1  0  0  0  0
  2  8  1  0  0  0  0
  4 20  1  0  0  0  0
  5 17  1  0  0  0  0
  5 27  1  0  0  0  0
  6  1  1  0  0  0  0
  6 23  1  0  0  0  0
  8  7  1  6  0  0  0
  8 10  1  0  0  0  0
  9 13  1  0  0  0  0
 10 28  1  0  0  0  0
 10 26  1  0  0  0  0
 12 24  1  0  0  0  0
 12 25  1  0  0  0  0
 13 26  1  0  0  0  0
 14  8  1  0  0  0  0
 14  9  1  0  0  0  0
 15 11  2  0  0  0  0
 15 19  1  0  0  0  0
 16 20  2  0  0  0  0
 16 28  1  0  0  0  0
 17  3  2  0  0  0  0
 18  9  2  0  0  0  0
 19 25  1  0  0  0  0
 21 22  1  0  0  0  0
 21  1  2  0  0  0  0
 22  4  2  0  0  0  0
 23 15  1  0  0  0  0
 24  5  1  0  0  0  0
 25 17  1  0  0  0  0
 26 24  1  0  0  0  0
 28 12  1  0  0  0  0
M  END
>  <MODEL>
5

>  <REMARK>
 VINA RESULT:      -7.2      2.685      4.900
  Name = 
  0 active torsions:
  status: ('A' for Active; 'I' for Inactive)
                            x       y       z     vdW  Elec       q    Type
                         _______ _______ _______ _____ _____    ______ ____

>  <TORSDO>
F 0

$$$$
=
 OpenBabel11112417423D

 28 32  0  0  1  0  0  0  0  0999 V2000
  188.7260  176.2640  144.5540 C   0  0  0  0  0  0  0  0  0  0  0  0
  189.4410  172.9760  143.4890 O   0  0  0  0  0  1  0  0  0  0  0  0
  194.8010  176.5450  143.8380 O   0  0  0  0  0  0  0  0  0  0  0  0
  187.8530  178.1200  142.6380 C   0  0  0  0  0  3  0  0  0  0  0  0
  193.7690  174.6540  142.8840 N   0  0  0  0  0  0  0  0  0  0  0  0
  189.2110  175.1460  145.8690 S   0  0  0  0  0  0  0  0  0  0  0  0
  187.9050  174.0230  142.0130 C   0  0  0  0  0  1  0  0  0  0  0  0
  189.2910  173.4270  142.1750 C   0  0  1  0  0  0  0  0  0  0  0  0
  190.6850  171.7810  140.9290 C   0  0  0  0  0  0  0  0  0  0  0  0
  190.3730  174.4820  141.8220 C   0  0  2  0  0  3  0  0  0  0  0  0
  192.3190  175.3090  147.2630 O   0  0  0  0  0  0  0  0  0  0  0  0
  191.6210  175.0160  143.8790 C   0  0  1  0  0  3  0  0  0  0  0  0
  191.8270  172.5240  141.2220 O   0  0  0  0  0  0  0  0  0  0  0  0
  189.4020  172.2910  141.2760 N   0  0  0  0  0  2  0  0  0  0  0  0
  191.7480  176.2080  146.5930 C   0  0  0  0  0  0  0  0  0  0  0  0
  189.4290  176.3960  143.3290 C   0  0  0  0  0  0  0  0  0  0  0  0
  193.7770  175.8340  143.6560 C   0  0  0  0  0  0  0  0  0  0  0  0
  190.8160  170.3400  140.1760 S   0  0  0  0  0  0  0  0  0  0  0  0
  192.4150  176.7910  145.4740 N   0  0  0  0  0  2  0  0  0  0  0  0
  188.9780  177.3340  142.3890 C   0  0  0  0  0  3  0  0  0  0  0  0
  187.5870  177.0470  144.7830 C   0  0  0  0  0  3  0  0  0  0  0  0
  187.1530  177.9720  143.8330 C   0  0  0  0  0  3  0  0  0  0  0  0
  190.0920  176.7130  147.0230 S   0  0  0  0  0  0  0  0  0  0  0  0
  192.4680  174.0150  143.0510 C   0  0  1  0  0  3  0  0  0  0  0  0
  192.5330  176.0860  144.2680 N   0  0  0  0  0  0  0  0  0  0  0  0
  191.7780  173.8730  141.6950 C   0  0  2  0  0  3  0  0  0  0  0  0
  194.9560  173.9780  142.3900 C   0  0  0  0  0  1  0  0  0  0  0  0
  190.5960  175.5450  142.8910 C   0  0  2  0  0  3  0  0  0  0  0  0
  1 21  1  0  0  0  0
  1  6  1  0  0  0  0
  4 22  1  0  0  0  0
  5 24  1  0  0  0  0
  5 17  1  0  0  0  0
  6 23  1  0  0  0  0
  8  7  1  6  0  0  0
  8  2  1  0  0  0  0
  9 13  1  0  0  0  0
  9 14  1  0  0  0  0
 10  8  1  0  0  0  0
 10 28  1  0  0  0  0
 12 25  1  0  0  0  0
 13 26  1  0  0  0  0
 14  8  1  0  0  0  0
 15 23  1  0  0  0  0
 15 11  2  0  0  0  0
 16  1  2  0  0  0  0
 17  3  2  0  0  0  0
 17 25  1  0  0  0  0
 18  9  2  0  0  0  0
 19 15  1  0  0  0  0
 20  4  2  0  0  0  0
 20 16  1  0  0  0  0
 22 21  2  0  0  0  0
 24 12  1  0  0  0  0
 25 19  1  0  0  0  0
 26 10  1  0  0  0  0
 26 24  1  0  0  0  0
 27  5  1  0  0  0  0
 28 16  1  0  0  0  0
 28 12  1  0  0  0  0
M  END
>  <MODEL>
6

>  <REMARK>
 VINA RESULT:      -7.0      2.998      6.501
  Name = 
  0 active torsions:
  status: ('A' for Active; 'I' for Inactive)
                            x       y       z     vdW  Elec       q    Type
                         _______ _______ _______ _____ _____    ______ ____

>  <TORSDO>
F 0

$$$$
=
 OpenBabel11112417423D

 28 32  0  0  1  0  0  0  0  0999 V2000
  191.1950  174.8370  144.7160 C   0  0  0  0  0  0  0  0  0  0  0  0
  187.7730  175.5180  144.1800 O   0  0  0  0  0  1  0  0  0  0  0  0
  190.5710  173.2260  138.8410 O   0  0  0  0  0  0  0  0  0  0  0  0
  193.0170  176.9620  144.5200 C   0  0  0  0  0  3  0  0  0  0  0  0
  188.7810  174.4760  139.7300 N   0  0  0  0  0  0  0  0  0  0  0  0
  190.1130  173.4230  144.9310 S   0  0  0  0  0  0  0  0  0  0  0  0
  188.9200  177.4740  144.8810 C   0  0  0  0  0  1  0  0  0  0  0  0
  188.1490  176.7980  143.7630 C   0  0  1  0  0  0  0  0  0  0  0  0
  186.2410  177.4110  142.2830 C   0  0  0  0  0  0  0  0  0  0  0  0
  189.0140  176.7310  142.4770 C   0  0  2  0  0  3  0  0  0  0  0  0
  189.9350  170.9680  142.5700 O   0  0  0  0  0  0  0  0  0  0  0  0
  189.5090  174.3630  142.0080 C   0  0  1  0  0  3  0  0  0  0  0  0
  186.8350  176.7190  141.2290 O   0  0  0  0  0  0  0  0  0  0  0  0
  186.9480  177.5760  143.5070 N   0  0  0  0  0  2  0  0  0  0  0  0
  190.8570  171.8130  142.7060 C   0  0  0  0  0  0  0  0  0  0  0  0
  191.1420  175.7100  143.5990 C   0  0  0  0  0  0  0  0  0  0  0  0
  190.0000  173.7700  139.8230 C   0  0  0  0  0  0  0  0  0  0  0  0
  184.7470  178.0420  142.1100 S   0  0  0  0  0  0  0  0  0  0  0  0
  191.2610  172.6070  141.5920 N   0  0  0  0  0  2  0  0  0  0  0  0
  192.0660  176.7620  143.5190 C   0  0  0  0  0  3  0  0  0  0  0  0
  192.1430  175.0610  145.7220 C   0  0  0  0  0  3  0  0  0  0  0  0
  193.0520  176.1150  145.6250 C   0  0  0  0  0  3  0  0  0  0  0  0
  191.6180  172.0410  144.3040 S   0  0  0  0  0  0  0  0  0  0  0  0
  188.3450  174.8010  141.0830 C   0  0  1  0  0  3  0  0  0  0  0  0
  190.4650  173.6730  141.1490 N   0  0  0  0  0  0  0  0  0  0  0  0
  188.2070  176.3140  141.2370 C   0  0  2  0  0  3  0  0  0  0  0  0
  187.9130  174.4800  138.5650 C   0  0  0  0  0  1  0  0  0  0  0  0
  190.1070  175.6680  142.5010 C   0  0  2  0  0  3  0  0  0  0  0  0
  1  6  1  0  0  0  0
  1 21  1  0  0  0  0
  3 17  2  0  0  0  0
  4 22  1  0  0  0  0
  5 17  1  0  0  0  0
  5 24  1  0  0  0  0
  8  2  1  0  0  0  0
  8  7  1  1  0  0  0
  9 14  1  0  0  0  0
 10 28  1  0  0  0  0
 10  8  1  0  0  0  0
 11 15  2  0  0  0  0
 12 28  1  0  0  0  0
 13 26  1  0  0  0  0
 13  9  1  0  0  0  0
 14  8  1  0  0  0  0
 15 23  1  0  0  0  0
 16  1  2  0  0  0  0
 17 25  1  0  0  0  0
 18  9  2  0  0  0  0
 19 15  1  0  0  0  0
 20 16  1  0  0  0  0
 20  4  2  0  0  0  0
 22 21  2  0  0  0  0
 23  6  1  0  0  0  0
 24 26  1  0  0  0  0
 24 12  1  0  0  0  0
 25 19  1  0  0  0  0
 25 12  1  0  0  0  0
 26 10  1  0  0  0  0
 27  5  1  0  0  0  0
 28 16  1  0  0  0  0
M  END
>  <MODEL>
7

>  <REMARK>
 VINA RESULT:      -7.0      2.049      2.999
  Name = 
  0 active torsions:
  status: ('A' for Active; 'I' for Inactive)
                            x       y       z     vdW  Elec       q    Type
                         _______ _______ _______ _____ _____    ______ ____

>  <TORSDO>
F 0

$$$$
=
 OpenBabel11112417423D

 28 32  0  0  1  0  0  0  0  0999 V2000
  190.3500  175.2420  143.3790 C   0  0  0  0  0  0  0  0  0  0  0  0
  188.2130  177.6660  141.9590 O   0  0  0  0  0  1  0  0  0  0  0  0
  186.4440  176.2290  147.9920 O   0  0  0  0  0  0  0  0  0  0  0  0
  189.8590  172.5400  142.8030 C   0  0  0  0  0  3  0  0  0  0  0  0
  185.7630  177.0860  145.9050 N   0  0  0  0  0  0  0  0  0  0  0  0
  190.7930  176.9380  143.7590 S   0  0  0  0  0  0  0  0  0  0  0  0
  188.2170  175.6820  140.6560 C   0  0  0  0  0  1  0  0  0  0  0  0
  187.3980  176.6160  141.5270 C   0  0  1  0  0  0  0  0  0  0  0  0
  185.1900  177.7540  141.3430 C   0  0  0  0  0  0  0  0  0  0  0  0
  186.8030  175.8430  142.7330 C   0  0  2  0  0  3  0  0  0  0  0  0
  190.1710  178.2740  146.8340 O   0  0  0  0  0  0  0  0  0  0  0  0
  187.8490  176.7090  144.7900 C   0  0  1  0  0  3  0  0  0  0  0  0
  184.9780  177.5680  142.7080 O   0  0  0  0  0  0  0  0  0  0  0  0
  186.3230  177.1630  140.7160 N   0  0  0  0  0  2  0  0  0  0  0  0
  190.2180  177.0510  146.5420 C   0  0  0  0  0  0  0  0  0  0  0  0
  189.0350  174.7220  143.5020 C   0  0  0  0  0  0  0  0  0  0  0  0
  186.6850  176.4730  146.7790 C   0  0  0  0  0  0  0  0  0  0  0  0
  184.1340  178.6320  140.4630 S   0  0  0  0  0  0  0  0  0  0  0  0
  189.1310  176.1970  146.8920 N   0  0  0  0  0  2  0  0  0  0  0  0
  188.8140  173.3680  143.2140 C   0  0  0  0  0  3  0  0  0  0  0  0
  191.3850  174.4030  142.9470 C   0  0  0  0  0  3  0  0  0  0  0  0
  191.1440  173.0590  142.6630 C   0  0  0  0  0  3  0  0  0  0  0  0
  191.6260  176.4090  145.6540 S   0  0  0  0  0  0  0  0  0  0  0  0
  186.4510  177.3660  144.6490 C   0  0  1  0  0  3  0  0  0  0  0  0
  187.9310  176.2350  146.1670 N   0  0  0  0  0  0  0  0  0  0  0  0
  185.7450  176.6540  143.4970 C   0  0  2  0  0  3  0  0  0  0  0  0
  184.5240  177.7210  146.3180 C   0  0  0  0  0  1  0  0  0  0  0  0
  187.8020  175.5250  143.8400 C   0  0  2  0  0  3  0  0  0  0  0  0
  1 16  1  0  0  0  0
  1  6  1  0  0  0  0
  4 20  1  0  0  0  0
  5 27  1  0  0  0  0
  5 17  1  0  0  0  0
  6 23  1  0  0  0  0
  8  7  1  6  0  0  0
  8  2  1  0  0  0  0
  8 10  1  0  0  0  0
  9 13  1  0  0  0  0
 10 26  1  0  0  0  0
 10 28  1  0  0  0  0
 12 25  1  0  0  0  0
 13 26  1  0  0  0  0
 14  9  1  0  0  0  0
 14  8  1  0  0  0  0
 15 11  2  0  0  0  0
 15 19  1  0  0  0  0
 16 28  1  0  0  0  0
 17  3  2  0  0  0  0
 18  9  2  0  0  0  0
 20 16  2  0  0  0  0
 21  1  2  0  0  0  0
 22  4  2  0  0  0  0
 22 21  1  0  0  0  0
 23 15  1  0  0  0  0
 24 12  1  0  0  0  0
 24  5  1  0  0  0  0
 25 17  1  0  0  0  0
 25 19  1  0  0  0  0
 26 24  1  0  0  0  0
 28 12  1  0  0  0  0
M  END
>  <MODEL>
8

>  <REMARK>
 VINA RESULT:      -7.0      2.728      4.847
  Name = 
  0 active torsions:
  status: ('A' for Active; 'I' for Inactive)
                            x       y       z     vdW  Elec       q    Type
                         _______ _______ _______ _____ _____    ______ ____

>  <TORSDO>
F 0

$$$$
=
 OpenBabel11112417423D

 28 32  0  0  1  0  0  0  0  0999 V2000
  192.6600  174.1080  143.4330 C   0  0  0  0  0  0  0  0  0  0  0  0
  190.4900  176.7390  142.5200 O   0  0  0  0  0  1  0  0  0  0  0  0
  191.5660  176.6870  148.8790 O   0  0  0  0  0  0  0  0  0  0  0  0
  191.5640  171.5510  143.7980 C   0  0  0  0  0  3  0  0  0  0  0  0
  190.1210  177.3630  147.1440 N   0  0  0  0  0  0  0  0  0  0  0  0
  193.4740  175.6830  143.1610 S   0  0  0  0  0  0  0  0  0  0  0  0
  189.5900  174.6420  141.8670 C   0  0  0  0  0  1  0  0  0  0  0  0
  189.4230  175.8650  142.7480 C   0  0  1  0  0  0  0  0  0  0  0  0
  187.5810  177.4630  143.2560 C   0  0  0  0  0  0  0  0  0  0  0  0
  189.3560  175.4470  144.2410 C   0  0  2  0  0  3  0  0  0  0  0  0
  194.5710  177.5730  145.7800 O   0  0  0  0  0  0  0  0  0  0  0  0
  191.3590  176.3300  145.3740 C   0  0  1  0  0  3  0  0  0  0  0  0
  188.0090  177.5390  144.5790 O   0  0  0  0  0  0  0  0  0  0  0  0
  188.1870  176.5290  142.3690 N   0  0  0  0  0  2  0  0  0  0  0  0
  194.2950  176.3450  145.8030 C   0  0  0  0  0  0  0  0  0  0  0  0
  191.4960  173.9470  144.2280 C   0  0  0  0  0  0  0  0  0  0  0  0
  191.2430  176.6810  147.6610 C   0  0  0  0  0  0  0  0  0  0  0  0
  186.3780  178.4300  142.7280 S   0  0  0  0  0  0  0  0  0  0  0  0
  193.3860  175.8410  146.7800 N   0  0  0  0  0  2  0  0  0  0  0  0
  190.9690  172.6590  144.4010 C   0  0  0  0  0  3  0  0  0  0  0  0
  193.2350  172.9890  142.8180 C   0  0  0  0  0  3  0  0  0  0  0  0
  192.6940  171.7160  143.0000 C   0  0  0  0  0  3  0  0  0  0  0  0
  195.0100  175.2560  144.5840 S   0  0  0  0  0  0  0  0  0  0  0  0
  190.1730  177.2780  145.6890 C   0  0  1  0  0  3  0  0  0  0  0  0
  192.0070  176.0610  146.6530 N   0  0  0  0  0  0  0  0  0  0  0  0
  188.9130  176.5940  145.1610 C   0  0  2  0  0  3  0  0  0  0  0  0
  189.3290  178.3330  147.8800 C   0  0  0  0  0  1  0  0  0  0  0  0
  190.6990  175.0650  144.8540 C   0  0  2  0  0  3  0  0  0  0  0  0
  1 16  1  0  0  0  0
  2  8  1  0  0  0  0
  4 20  1  0  0  0  0
  5 17  1  0  0  0  0
  5 27  1  0  0  0  0
  6  1  1  0  0  0  0
  6 23  1  0  0  0  0
  8  7  1  6  0  0  0
  8 10  1  0  0  0  0
  9 13  1  0  0  0  0
 10 28  1  0  0  0  0
 10 26  1  0  0  0  0
 11 15  2  0  0  0  0
 12 24  1  0  0  0  0
 12 25  1  0  0  0  0
 13 26  1  0  0  0  0
 14  8  1  0  0  0  0
 14  9  1  0  0  0  0
 15 19  1  0  0  0  0
 16 20  2  0  0  0  0
 16 28  1  0  0  0  0
 17  3  2  0  0  0  0
 18  9  2  0  0  0  0
 21 22  1  0  0  0  0
 21  1  2  0  0  0  0
 22  4  2  0  0  0  0
 23 15  1  0  0  0  0
 24  5  1  0  0  0  0
 25 19  1  0  0  0  0
 25 17  1  0  0  0  0
 26 24  1  0  0  0  0
 28 12  1  0  0  0  0
M  END
>  <MODEL>
9

>  <REMARK>
 VINA RESULT:      -6.9      3.149      5.249
  Name = 
  0 active torsions:
  status: ('A' for Active; 'I' for Inactive)
                            x       y       z     vdW  Elec       q    Type
                         _______ _______ _______ _____ _____    ______ ____

>  <TORSDO>
F 0

$$$$
