=
 OpenBabel11112416373D

 32 37  0  0  1  0  0  0  0  0999 V2000
  185.1900  177.7990  145.0390 C   0  0  0  0  0  2  0  0  0  0  0  0
  190.0800  175.0440  143.9630 C   0  0  0  0  0  0  0  0  0  0  0  0
  189.8770  171.9510  140.2630 C   0  0  0  0  0  3  0  0  0  0  0  0
  191.3110  171.6390  140.4100 C   0  0  0  0  0  3  0  0  0  0  0  0
  192.2190  175.1080  145.4510 C   0  0  0  0  0  0  0  0  0  0  0  0
  193.5360  174.9050  145.3740 C   0  0  0  0  0  0  0  0  0  0  0  0
  188.0540  176.1930  144.7000 N   0  0  2  0  0  0  0  0  0  0  0  0
  188.0580  175.0400  142.5100 C   0  0  0  0  0  2  0  0  0  0  0  0
  195.5240  173.9480  144.6820 N   0  0  0  0  0  0  0  0  0  0  0  0
  186.0490  176.2590  143.2230 C   0  0  0  0  0  2  0  0  0  0  0  0
  189.2720  172.7970  141.1020 C   0  0  0  0  0  3  0  0  0  0  0  0
  189.4200  174.5180  142.9110 C   0  0  0  0  0  0  0  0  0  0  0  0
  190.0000  173.4180  142.1780 N   0  0  0  0  0  0  0  0  0  0  0  0
  192.0600  173.5620  143.4190 C   0  0  0  0  0  0  0  0  0  0  0  0
  195.8200  174.7920  145.8450 C   0  0  0  0  0  3  0  0  0  0  0  0
  186.2590  177.2430  145.9830 C   0  0  0  0  0  2  0  0  0  0  0  0
  187.5750  176.2600  143.3070 C   0  0  1  0  0  3  0  0  0  0  0  0
  194.5390  175.3950  146.2550 N   0  0  0  0  0  0  0  0  0  0  0  0
  187.6660  177.4010  145.4230 C   0  0  0  0  0  2  0  0  0  0  0  0
  185.4940  177.6400  143.5480 C   0  0  1  0  0  3  0  0  0  0  0  0
  192.0300  172.1600  141.4060 C   0  0  0  0  0  3  0  0  0  0  0  0
  191.3820  173.0540  142.3830 C   0  0  0  0  0  0  0  0  0  0  0  0
  193.4830  173.3700  143.5250 N   0  0  0  0  0  2  0  0  0  0  0  0
  189.5110  176.2500  144.6520 C   0  0  0  0  0  2  0  0  0  0  0  0
  191.6680  175.8620  146.6180 C   0  0  0  0  0  1  0  0  0  0  0  0
  196.4440  172.9930  144.0890 C   0  0  0  0  0  1  0  0  0  0  0  0
  191.3030  174.3240  144.5090 C   0  0  0  0  0  0  0  0  0  0  0  0
  194.1370  174.0220  144.4340 C   0  0  0  0  0  0  0  0  0  0  0  0
  184.2800  177.8810  142.7820 N   0  0  0  0  0  2  0  0  0  0  0  0
  184.2980  178.2200  141.3950 C   0  0  0  0  0  0  0  0  0  0  0  0
  185.3890  178.3460  140.7780 O   0  0  0  0  0  0  0  0  0  0  0  0
  183.0160  178.4290  140.6730 C   0  0  0  0  0  1  0  0  0  0  0  0
  1 16  1  0  0  0  0
  2 27  1  0  0  0  0
  2 24  1  0  0  0  0
  3  4  1  0  0  0  0
  3 11  2  0  0  0  0
  4 21  2  0  0  0  0
  5 25  1  0  0  0  0
  6  5  1  0  0  0  0
  6 18  1  0  0  0  0
  7 24  1  6  0  0  0
  7 19  1  0  0  0  0
  8 12  1  0  0  0  0
  9 15  1  0  0  0  0
 10 17  1  0  0  0  0
 10 20  1  0  0  0  0
 11 13  1  0  0  0  0
 12  2  2  0  0  0  0
 13 22  1  0  0  0  0
 13 12  1  0  0  0  0
 14 23  1  0  0  0  0
 14 27  1  0  0  0  0
 15 18  2  0  0  0  0
 17  8  1  6  0  0  0
 17  7  1  0  0  0  0
 19 16  1  0  0  0  0
 20 29  1  6  0  0  0
 20  1  1  0  0  0  0
 21 22  1  0  0  0  0
 22 14  2  0  0  0  0
 23 28  1  0  0  0  0
 26  9  1  0  0  0  0
 27  5  2  0  0  0  0
 28  9  1  0  0  0  0
 28  6  2  0  0  0  0
 30 29  1  0  0  0  0
 31 30  2  0  0  0  0
 32 30  1  0  0  0  0
M  END
>  <MODEL>
1

>  <REMARK>
 VINA RESULT:      -8.5      0.000      0.000
  Name = 
  1 active torsions:
  status: ('A' for Active; 'I' for Inactive)
    1  A    between atoms: C_20  and  N_29
                            x       y       z     vdW  Elec       q    Type
                         _______ _______ _______ _____ _____    ______ ____

>  <TORSDO>
F 1

$$$$
=
 OpenBabel11112416373D

 32 37  0  0  1  0  0  0  0  0999 V2000
  185.4340  178.0170  144.6820 C   0  0  0  0  0  2  0  0  0  0  0  0
  190.2870  175.5950  142.8810 C   0  0  0  0  0  0  0  0  0  0  0  0
  189.7260  172.3190  139.3810 C   0  0  0  0  0  3  0  0  0  0  0  0
  191.1850  172.1250  139.2910 C   0  0  0  0  0  3  0  0  0  0  0  0
  192.6330  175.8960  143.9770 C   0  0  0  0  0  0  0  0  0  0  0  0
  193.9300  175.7910  143.6820 C   0  0  0  0  0  0  0  0  0  0  0  0
  188.3250  176.6200  143.9130 N   0  0  2  0  0  0  0  0  0  0  0  0
  188.0570  175.3660  141.7970 C   0  0  0  0  0  2  0  0  0  0  0  0
  195.8470  174.9560  142.6940 N   0  0  0  0  0  0  0  0  0  0  0  0
  186.1020  176.4610  142.8010 C   0  0  0  0  0  2  0  0  0  0  0  0
  189.2010  173.1560  140.2820 C   0  0  0  0  0  3  0  0  0  0  0  0
  189.5060  174.9700  141.9770 C   0  0  0  0  0  0  0  0  0  0  0  0
  190.0450  173.8830  141.1950 N   0  0  0  0  0  0  0  0  0  0  0  0
  192.2650  174.2440  142.0580 C   0  0  0  0  0  0  0  0  0  0  0  0
  196.2620  175.8760  143.7590 C   0  0  0  0  0  3  0  0  0  0  0  0
  186.6890  177.5920  145.4470 C   0  0  0  0  0  2  0  0  0  0  0  0
  187.6150  176.5830  142.6210 C   0  0  1  0  0  3  0  0  0  0  0  0
  195.0220  176.3990  144.3610 N   0  0  0  0  0  0  0  0  0  0  0  0
  187.9640  177.8290  144.6490 C   0  0  0  0  0  2  0  0  0  0  0  0
  185.4960  177.8090  143.1680 C   0  0  1  0  0  3  0  0  0  0  0  0
  192.0150  172.7480  140.1300 C   0  0  0  0  0  3  0  0  0  0  0  0
  191.4680  173.6370  141.1720 C   0  0  0  0  0  0  0  0  0  0  0  0
  193.6960  174.1680  141.9250 N   0  0  0  0  0  2  0  0  0  0  0  0
  189.7430  176.7870  143.6150 C   0  0  0  0  0  2  0  0  0  0  0  0
  192.2250  176.6620  145.1940 C   0  0  0  0  0  1  0  0  0  0  0  0
  196.7320  174.0470  141.9860 C   0  0  0  0  0  1  0  0  0  0  0  0
  191.6400  174.9990  143.2340 C   0  0  0  0  0  0  0  0  0  0  0  0
  194.4370  174.9110  142.6850 C   0  0  0  0  0  0  0  0  0  0  0  0
  184.1540  177.9190  142.6130 N   0  0  0  0  0  2  0  0  0  0  0  0
  183.9110  178.2350  141.2420 C   0  0  0  0  0  0  0  0  0  0  0  0
  184.8670  178.4560  140.4520 O   0  0  0  0  0  0  0  0  0  0  0  0
  182.5130  178.3080  140.7420 C   0  0  0  0  0  1  0  0  0  0  0  0
  1 16  1  0  0  0  0
  2 27  1  0  0  0  0
  2 24  1  0  0  0  0
  3 11  2  0  0  0  0
  4  3  1  0  0  0  0
  4 21  2  0  0  0  0
  5 25  1  0  0  0  0
  6  5  1  0  0  0  0
  6 18  1  0  0  0  0
  7 24  1  6  0  0  0
  7 19  1  0  0  0  0
  8 12  1  0  0  0  0
  9 15  1  0  0  0  0
 10 20  1  0  0  0  0
 11 13  1  0  0  0  0
 12  2  2  0  0  0  0
 13 12  1  0  0  0  0
 14 27  1  0  0  0  0
 15 18  2  0  0  0  0
 17  8  1  6  0  0  0
 17 10  1  0  0  0  0
 17  7  1  0  0  0  0
 19 16  1  0  0  0  0
 20 29  1  1  0  0  0
 20  1  1  0  0  0  0
 21 22  1  0  0  0  0
 22 13  1  0  0  0  0
 22 14  2  0  0  0  0
 23 14  1  0  0  0  0
 23 28  1  0  0  0  0
 26  9  1  0  0  0  0
 27  5  2  0  0  0  0
 28  9  1  0  0  0  0
 28  6  2  0  0  0  0
 30 29  1  0  0  0  0
 31 30  2  0  0  0  0
 32 30  1  0  0  0  0
M  END
>  <MODEL>
2

>  <REMARK>
 VINA RESULT:      -8.4      1.360      1.369
  Name = 
  1 active torsions:
  status: ('A' for Active; 'I' for Inactive)
    1  A    between atoms: C_20  and  N_29
                            x       y       z     vdW  Elec       q    Type
                         _______ _______ _______ _____ _____    ______ ____

>  <TORSDO>
F 1

$$$$
=
 OpenBabel11112416373D

 32 37  0  0  1  0  0  0  0  0999 V2000
  186.1130  178.8350  142.9140 C   0  0  0  0  0  2  0  0  0  0  0  0
  189.5010  174.3240  141.9990 C   0  0  0  0  0  0  0  0  0  0  0  0
  192.9540  173.6930  145.3110 C   0  0  0  0  0  3  0  0  0  0  0  0
  193.4050  172.4570  144.6450 C   0  0  0  0  0  3  0  0  0  0  0  0
  189.5060  172.8380  139.8570 C   0  0  0  0  0  0  0  0  0  0  0  0
  189.8620  171.6180  139.4490 C   0  0  0  0  0  0  0  0  0  0  0  0
  188.0570  176.2910  142.1070 N   0  0  2  0  0  0  0  0  0  0  0  0
  189.4450  175.7050  144.0700 C   0  0  0  0  0  2  0  0  0  0  0  0
  191.1070  169.6730  139.3260 N   0  0  0  0  0  0  0  0  0  0  0  0
  187.9360  177.6380  144.1990 C   0  0  0  0  0  2  0  0  0  0  0  0
  191.9560  174.4200  144.8000 C   0  0  0  0  0  3  0  0  0  0  0  0
  190.0660  174.6530  143.1780 C   0  0  0  0  0  0  0  0  0  0  0  0
  191.3010  174.0220  143.5810 N   0  0  0  0  0  0  0  0  0  0  0  0
  191.2470  172.5130  141.7040 C   0  0  0  0  0  0  0  0  0  0  0  0
  190.1750  169.6750  138.1930 C   0  0  0  0  0  3  0  0  0  0  0  0
  186.6730  178.2440  141.6180 C   0  0  0  0  0  2  0  0  0  0  0  0
  188.0960  176.2490  143.5810 C   0  0  1  0  0  3  0  0  0  0  0  0
  189.3900  170.9170  138.3050 N   0  0  0  0  0  0  0  0  0  0  0  0
  186.7380  176.7240  141.6520 C   0  0  0  0  0  2  0  0  0  0  0  0
  186.4740  178.0640  144.1860 C   0  0  1  0  0  3  0  0  0  0  0  0
  192.8570  172.0550  143.4970 C   0  0  0  0  0  3  0  0  0  0  0  0
  191.7900  172.8610  142.8760 C   0  0  0  0  0  0  0  0  0  0  0  0
  191.5830  171.2560  141.0880 N   0  0  0  0  0  0  0  0  0  0  0  0
  188.1680  174.9140  141.6390 C   0  0  0  0  0  2  0  0  0  0  0  0
  188.5670  173.6390  139.0150 C   0  0  0  0  0  1  0  0  0  0  0  0
  192.2200  168.7540  139.4870 C   0  0  0  0  0  1  0  0  0  0  0  0
  190.2850  173.4790  141.0070 C   0  0  2  0  0  3  0  0  0  0  0  0
  190.9080  170.8660  140.0530 C   0  0  0  0  0  0  0  0  0  0  0  0
  186.1880  178.8950  145.3470 N   0  0  0  0  0  2  0  0  0  0  0  0
  185.9130  178.3480  146.6370 C   0  0  0  0  0  0  0  0  0  0  0  0
  185.8860  177.1010  146.8150 O   0  0  0  0  0  0  0  0  0  0  0  0
  185.6520  179.2600  147.7810 C   0  0  0  0  0  1  0  0  0  0  0  0
  1 20  1  0  0  0  0
  2 12  2  0  0  0  0
  4  3  1  0  0  0  0
  6  5  2  0  0  0  0
  6 28  1  0  0  0  0
  7 24  1  6  0  0  0
  7 17  1  0  0  0  0
  9 26  1  0  0  0  0
  9 28  1  0  0  0  0
 11  3  2  0  0  0  0
 12 13  1  0  0  0  0
 12  8  1  0  0  0  0
 13 11  1  0  0  0  0
 14 22  2  0  0  0  0
 15 18  2  0  0  0  0
 15  9  1  0  0  0  0
 16 19  1  0  0  0  0
 16  1  1  0  0  0  0
 17  8  1  6  0  0  0
 17 10  1  0  0  0  0
 18  6  1  0  0  0  0
 19  7  1  0  0  0  0
 20 10  1  0  0  0  0
 20 29  1  1  0  0  0
 21  4  2  0  0  0  0
 22 21  1  0  0  0  0
 22 13  1  0  0  0  0
 23 14  1  0  0  0  0
 24  2  1  0  0  0  0
 25  5  1  0  0  0  0
 27  5  1  1  0  0  0
 27 14  1  0  0  0  0
 27  2  1  0  0  0  0
 28 23  2  0  0  0  0
 29 30  1  0  0  0  0
 30 31  2  0  0  0  0
 30 32  1  0  0  0  0
M  END
>  <MODEL>
3

>  <REMARK>
 VINA RESULT:      -7.9      2.366      5.331
  Name = 
  1 active torsions:
  status: ('A' for Active; 'I' for Inactive)
    1  A    between atoms: C_20  and  N_29
                            x       y       z     vdW  Elec       q    Type
                         _______ _______ _______ _____ _____    ______ ____

>  <TORSDO>
F 1

$$$$
=
 OpenBabel11112416373D

 32 37  0  0  1  0  0  0  0  0999 V2000
  195.6930  174.3910  146.1380 C   0  0  0  0  0  2  0  0  0  0  0  0
  190.6840  175.4370  143.5910 C   0  0  0  0  0  0  0  0  0  0  0  0
  190.0190  173.1030  139.4190 C   0  0  0  0  0  3  0  0  0  0  0  0
  188.6590  173.6580  139.2930 C   0  0  0  0  0  3  0  0  0  0  0  0
  188.9500  177.2360  144.3320 C   0  0  0  0  0  0  0  0  0  0  0  0
  187.6500  177.5220  144.2230 C   0  0  0  0  0  0  0  0  0  0  0  0
  192.8260  175.2660  144.7520 N   0  0  2  0  0  0  0  0  0  0  0  0
  192.3140  173.6750  142.9280 C   0  0  0  0  0  2  0  0  0  0  0  0
  185.5550  177.6590  143.2540 N   0  0  0  0  0  0  0  0  0  0  0  0
  194.4340  173.4610  144.1480 C   0  0  0  0  0  2  0  0  0  0  0  0
  190.8040  173.4400  140.4470 C   0  0  0  0  0  3  0  0  0  0  0  0
  191.0810  174.5190  142.6870 C   0  0  0  0  0  0  0  0  0  0  0  0
  190.3460  174.3620  141.4540 N   0  0  0  0  0  0  0  0  0  0  0  0
  188.6310  175.8900  142.1790 C   0  0  0  0  0  0  0  0  0  0  0  0
  185.5380  178.4880  144.4640 C   0  0  0  0  0  3  0  0  0  0  0  0
  194.8710  175.6780  146.0250 C   0  0  0  0  0  2  0  0  0  0  0  0
  192.9690  173.8690  144.3020 C   0  0  1  0  0  3  0  0  0  0  0  0
  186.8800  178.3730  145.0640 N   0  0  0  0  0  0  0  0  0  0  0  0
  193.3730  175.4180  146.0970 C   0  0  0  0  0  2  0  0  0  0  0  0
  195.0500  173.1540  145.5060 C   0  0  1  0  0  3  0  0  0  0  0  0
  188.1910  174.5390  140.1790 C   0  0  0  0  0  3  0  0  0  0  0  0
  189.0490  174.9760  141.2960 C   0  0  0  0  0  0  0  0  0  0  0  0
  187.2710  176.3640  142.1520 N   0  0  0  0  0  2  0  0  0  0  0  0
  191.3990  175.5200  144.9090 C   0  0  0  0  0  2  0  0  0  0  0  0
  189.7570  177.9160  145.3900 C   0  0  0  0  0  1  0  0  0  0  0  0
  184.5220  177.6530  142.2340 C   0  0  0  0  0  1  0  0  0  0  0  0
  189.6210  176.4520  143.2020 C   0  0  0  0  0  0  0  0  0  0  0  0
  186.8470  177.1060  143.1260 C   0  0  0  0  0  0  0  0  0  0  0  0
  196.0530  172.1080  145.3730 N   0  0  0  0  0  2  0  0  0  0  0  0
  195.7900  170.7420  145.6960 C   0  0  0  0  0  0  0  0  0  0  0  0
  194.6630  170.3900  146.1380 O   0  0  0  0  0  0  0  0  0  0  0  0
  196.8570  169.7250  145.5120 C   0  0  0  0  0  1  0  0  0  0  0  0
  2 24  1  0  0  0  0
  3 11  2  0  0  0  0
  4  3  1  0  0  0  0
  4 21  2  0  0  0  0
  5 25  1  0  0  0  0
  6  5  1  0  0  0  0
  6 18  1  0  0  0  0
  7 24  1  1  0  0  0
  7 19  1  0  0  0  0
  9 15  1  0  0  0  0
 10 17  1  0  0  0  0
 10 20  1  0  0  0  0
 11 13  1  0  0  0  0
 12  8  1  0  0  0  0
 12  2  2  0  0  0  0
 13 12  1  0  0  0  0
 14 27  1  0  0  0  0
 15 18  2  0  0  0  0
 16 19  1  0  0  0  0
 16  1  1  0  0  0  0
 17  8  1  6  0  0  0
 17  7  1  0  0  0  0
 20 29  1  6  0  0  0
 20  1  1  0  0  0  0
 21 22  1  0  0  0  0
 22 13  1  0  0  0  0
 22 14  2  0  0  0  0
 23 14  1  0  0  0  0
 23 28  1  0  0  0  0
 26  9  1  0  0  0  0
 27  2  1  0  0  0  0
 27  5  2  0  0  0  0
 28  9  1  0  0  0  0
 28  6  2  0  0  0  0
 29 30  1  0  0  0  0
 30 31  2  0  0  0  0
 32 30  1  0  0  0  0
M  END
>  <MODEL>
4

>  <REMARK>
 VINA RESULT:      -7.9      2.888      8.113
  Name = 
  1 active torsions:
  status: ('A' for Active; 'I' for Inactive)
    1  A    between atoms: C_20  and  N_29
                            x       y       z     vdW  Elec       q    Type
                         _______ _______ _______ _____ _____    ______ ____

>  <TORSDO>
F 1

$$$$
=
 OpenBabel11112416373D

 32 37  0  0  1  0  0  0  0  0999 V2000
  187.4250  177.5580  146.5200 C   0  0  0  0  0  2  0  0  0  0  0  0
  191.7180  175.7100  143.2300 C   0  0  0  0  0  0  0  0  0  0  0  0
  190.3440  173.1550  139.3720 C   0  0  0  0  0  3  0  0  0  0  0  0
  191.7420  173.0360  138.9190 C   0  0  0  0  0  3  0  0  0  0  0  0
  194.2540  175.8780  143.8070 C   0  0  0  0  0  0  0  0  0  0  0  0
  195.4490  175.8790  143.2120 C   0  0  0  0  0  0  0  0  0  0  0  0
  190.0520  176.4430  144.8590 N   0  0  2  0  0  0  0  0  0  0  0  0
  189.2970  175.6130  142.6540 C   0  0  0  0  0  2  0  0  0  0  0  0
  197.0820  175.3230  141.6720 N   0  0  0  0  0  0  0  0  0  0  0  0
  187.6320  176.4210  144.2680 C   0  0  0  0  0  2  0  0  0  0  0  0
  190.0460  173.7820  140.5150 C   0  0  0  0  0  3  0  0  0  0  0  0
  190.7460  175.2430  142.4200 C   0  0  0  0  0  0  0  0  0  0  0  0
  191.0820  174.3490  141.3380 N   0  0  0  0  0  0  0  0  0  0  0  0
  193.4440  174.6170  141.7330 C   0  0  0  0  0  0  0  0  0  0  0  0
  197.7380  176.0330  142.7750 C   0  0  0  0  0  3  0  0  0  0  0  0
  188.8190  177.0380  146.8830 C   0  0  0  0  0  2  0  0  0  0  0  0
  189.0660  176.6300  143.7790 C   0  0  1  0  0  3  0  0  0  0  0  0
  196.6730  176.3840  143.7330 N   0  0  0  0  0  0  0  0  0  0  0  0
  189.8790  177.4720  145.8810 C   0  0  0  0  0  2  0  0  0  0  0  0
  187.1380  177.6490  145.0200 C   0  0  1  0  0  3  0  0  0  0  0  0
  192.7470  173.5140  139.6550 C   0  0  0  0  0  3  0  0  0  0  0  0
  192.4600  174.1640  140.9470 C   0  0  0  0  0  0  0  0  0  0  0  0
  194.8060  174.6200  141.2680 N   0  0  0  0  0  2  0  0  0  0  0  0
  191.3660  176.7160  144.2880 C   0  0  0  0  0  2  0  0  0  0  0  0
  194.1420  176.3780  145.2100 C   0  0  0  0  0  1  0  0  0  0  0  0
  197.7740  174.6010  140.6180 C   0  0  0  0  0  1  0  0  0  0  0  0
  193.1100  175.1060  143.1450 C   0  0  0  0  0  0  0  0  0  0  0  0
  195.7070  175.2290  141.9730 C   0  0  0  0  0  0  0  0  0  0  0  0
  185.7060  177.8150  144.8150 N   0  0  0  0  0  2  0  0  0  0  0  0
  185.1650  178.5580  143.7220 C   0  0  0  0  0  0  0  0  0  0  0  0
  185.9240  179.1260  142.8910 O   0  0  0  0  0  0  0  0  0  0  0  0
  183.6920  178.6650  143.5650 C   0  0  0  0  0  1  0  0  0  0  0  0
  1 16  1  0  0  0  0
  2 24  1  0  0  0  0
  3 11  2  0  0  0  0
  4  3  1  0  0  0  0
  4 21  2  0  0  0  0
  5 25  1  0  0  0  0
  6 18  1  0  0  0  0
  6  5  1  0  0  0  0
  7 24  1  6  0  0  0
  7 19  1  0  0  0  0
  9 28  1  0  0  0  0
  9 15  1  0  0  0  0
 10 20  1  0  0  0  0
 11 13  1  0  0  0  0
 12  8  1  0  0  0  0
 12  2  2  0  0  0  0
 13 12  1  0  0  0  0
 14 27  1  0  0  0  0
 15 18  2  0  0  0  0
 17  8  1  6  0  0  0
 17 10  1  0  0  0  0
 17  7  1  0  0  0  0
 19 16  1  0  0  0  0
 20 29  1  1  0  0  0
 20  1  1  0  0  0  0
 21 22  1  0  0  0  0
 22 13  1  0  0  0  0
 22 14  2  0  0  0  0
 23 14  1  0  0  0  0
 23 28  1  0  0  0  0
 26  9  1  0  0  0  0
 27  2  1  0  0  0  0
 27  5  2  0  0  0  0
 28  6  2  0  0  0  0
 30 29  1  0  0  0  0
 31 30  2  0  0  0  0
 32 30  1  0  0  0  0
M  END
>  <MODEL>
5

>  <REMARK>
 VINA RESULT:      -7.9      2.205      2.539
  Name = 
  1 active torsions:
  status: ('A' for Active; 'I' for Inactive)
    1  A    between atoms: C_20  and  N_29
                            x       y       z     vdW  Elec       q    Type
                         _______ _______ _______ _____ _____    ______ ____

>  <TORSDO>
F 1

$$$$
=
 OpenBabel11112416373D

 32 37  0  0  1  0  0  0  0  0999 V2000
  188.5150  177.4140  146.9280 C   0  0  0  0  0  2  0  0  0  0  0  0
  191.1040  175.2650  142.3080 C   0  0  0  0  0  0  0  0  0  0  0  0
  188.2690  172.5730  139.4790 C   0  0  0  0  0  3  0  0  0  0  0  0
  189.3660  172.3850  138.5110 C   0  0  0  0  0  3  0  0  0  0  0  0
  193.6610  175.3770  141.8100 C   0  0  0  0  0  0  0  0  0  0  0  0
  194.5160  175.3100  140.7880 C   0  0  0  0  0  0  0  0  0  0  0  0
  190.2410  176.1330  144.4220 N   0  0  2  0  0  0  0  0  0  0  0  0
  188.6550  175.2220  142.7560 C   0  0  0  0  0  2  0  0  0  0  0  0
  195.3870  174.6240  138.7580 N   0  0  0  0  0  0  0  0  0  0  0  0
  187.7880  176.1620  144.8510 C   0  0  0  0  0  2  0  0  0  0  0  0
  188.4620  173.2640  140.6060 C   0  0  0  0  0  3  0  0  0  0  0  0
  189.8840  174.7930  141.9840 C   0  0  0  0  0  0  0  0  0  0  0  0
  189.7480  173.8350  140.9120 N   0  0  0  0  0  0  0  0  0  0  0  0
  192.0720  174.0440  140.3120 C   0  0  0  0  0  0  0  0  0  0  0  0
  196.4380  175.3660  139.4640 C   0  0  0  0  0  3  0  0  0  0  0  0
  189.9310  176.8670  146.7320 C   0  0  0  0  0  2  0  0  0  0  0  0
  188.9060  176.2990  143.8190 C   0  0  1  0  0  3  0  0  0  0  0  0
  195.8510  175.7980  140.7450 N   0  0  0  0  0  0  0  0  0  0  0  0
  190.5050  177.2160  145.3660 C   0  0  0  0  0  2  0  0  0  0  0  0
  187.6500  177.4420  145.6650 C   0  0  1  0  0  3  0  0  0  0  0  0
  190.5870  172.8650  138.7550 C   0  0  0  0  0  3  0  0  0  0  0  0
  190.8510  173.5860  140.0130 C   0  0  0  0  0  0  0  0  0  0  0  0
  193.1330  173.9790  139.3410 N   0  0  0  0  0  2  0  0  0  0  0  0
  191.2180  176.3330  143.3580 C   0  0  0  0  0  2  0  0  0  0  0  0
  194.1270  175.9480  143.1100 C   0  0  0  0  0  1  0  0  0  0  0  0
  195.5900  173.8290  137.5600 C   0  0  0  0  0  1  0  0  0  0  0  0
  192.3390  174.6130  141.7080 C   0  0  0  0  0  0  0  0  0  0  0  0
  194.2480  174.5910  139.5890 C   0  0  0  0  0  0  0  0  0  0  0  0
  186.2590  177.6460  146.0420 N   0  0  0  0  0  2  0  0  0  0  0  0
  185.4380  178.6500  145.4440 C   0  0  0  0  0  0  0  0  0  0  0  0
  185.9050  179.4260  144.5680 O   0  0  0  0  0  0  0  0  0  0  0  0
  184.0190  178.7840  145.8630 C   0  0  0  0  0  1  0  0  0  0  0  0
  2 24  1  0  0  0  0
  3 11  2  0  0  0  0
  4 21  2  0  0  0  0
  4  3  1  0  0  0  0
  5 25  1  0  0  0  0
  6  5  1  0  0  0  0
  7 24  1  6  0  0  0
  7 19  1  0  0  0  0
  9 15  1  0  0  0  0
  9 28  1  0  0  0  0
 10 20  1  0  0  0  0
 11 13  1  0  0  0  0
 12  2  2  0  0  0  0
 12  8  1  0  0  0  0
 13 12  1  0  0  0  0
 14 27  1  0  0  0  0
 15 18  2  0  0  0  0
 16  1  1  0  0  0  0
 17  8  1  6  0  0  0
 17  7  1  0  0  0  0
 17 10  1  0  0  0  0
 18  6  1  0  0  0  0
 19 16  1  0  0  0  0
 20 29  1  1  0  0  0
 20  1  1  0  0  0  0
 21 22  1  0  0  0  0
 22 14  2  0  0  0  0
 22 13  1  0  0  0  0
 23 28  1  0  0  0  0
 23 14  1  0  0  0  0
 26  9  1  0  0  0  0
 27  5  2  0  0  0  0
 27  2  1  0  0  0  0
 28  6  2  0  0  0  0
 30 32  1  0  0  0  0
 30 29  1  0  0  0  0
 31 30  2  0  0  0  0
M  END
>  <MODEL>
6

>  <REMARK>
 VINA RESULT:      -7.9      2.762      3.731
  Name = 
  1 active torsions:
  status: ('A' for Active; 'I' for Inactive)
    1  A    between atoms: C_20  and  N_29
                            x       y       z     vdW  Elec       q    Type
                         _______ _______ _______ _____ _____    ______ ____

>  <TORSDO>
F 1

$$$$
=
 OpenBabel11112416373D

 32 37  0  0  1  0  0  0  0  0999 V2000
  186.1760  177.6630  142.2250 C   0  0  0  0  0  2  0  0  0  0  0  0
  191.1880  174.9690  142.7620 C   0  0  0  0  0  0  0  0  0  0  0  0
  193.8840  176.4510  146.4820 C   0  0  0  0  0  3  0  0  0  0  0  0
  194.9110  175.4380  146.1770 C   0  0  0  0  0  3  0  0  0  0  0  0
  192.2050  173.2950  141.0430 C   0  0  0  0  0  0  0  0  0  0  0  0
  193.0900  172.2980  140.9730 C   0  0  0  0  0  0  0  0  0  0  0  0
  189.0900  176.1090  142.2510 N   0  0  2  0  0  0  0  0  0  0  0  0
  190.1820  176.5160  144.4330 C   0  0  0  0  0  2  0  0  0  0  0  0
  195.0040  171.0890  141.4430 N   0  0  0  0  0  0  0  0  0  0  0  0
  188.0350  177.6020  143.9430 C   0  0  0  0  0  2  0  0  0  0  0  0
  192.8000  176.5810  145.7100 C   0  0  0  0  0  3  0  0  0  0  0  0
  191.3330  175.7010  143.8850 C   0  0  0  0  0  0  0  0  0  0  0  0
  192.6110  175.7420  144.5550 N   0  0  0  0  0  0  0  0  0  0  0  0
  193.5320  174.0660  143.0900 C   0  0  0  0  0  0  0  0  0  0  0  0
  194.3900  170.4990  140.2490 C   0  0  0  0  0  3  0  0  0  0  0  0
  187.1680  177.1640  141.1710 C   0  0  0  0  0  2  0  0  0  0  0  0
  188.8520  176.3360  143.6880 C   0  0  1  0  0  3  0  0  0  0  0  0
  193.1700  171.2820  139.9810 N   0  0  0  0  0  0  0  0  0  0  0  0
  187.8250  175.8500  141.5680 C   0  0  0  0  0  2  0  0  0  0  0  0
  186.5570  177.3490  143.6730 C   0  0  1  0  0  3  0  0  0  0  0  0
  194.8050  174.6530  145.1030 C   0  0  0  0  0  3  0  0  0  0  0  0
  193.6500  174.8050  144.1990 C   0  0  0  0  0  0  0  0  0  0  0  0
  194.4540  172.9930  142.8260 N   0  0  0  0  0  0  0  0  0  0  0  0
  189.8290  174.8580  142.1340 C   0  0  0  0  0  2  0  0  0  0  0  0
  191.2100  173.4600  139.9400 C   0  0  0  0  0  1  0  0  0  0  0  0
  196.3360  170.7800  141.9350 C   0  0  0  0  0  1  0  0  0  0  0  0
  192.4220  174.3920  142.0870 C   0  0  2  0  0  3  0  0  0  0  0  0
  194.2080  172.1820  141.8450 C   0  0  0  0  0  0  0  0  0  0  0  0
  185.7420  178.1570  144.5690 N   0  0  0  0  0  2  0  0  0  0  0  0
  185.1830  177.6400  145.7780 C   0  0  0  0  0  0  0  0  0  0  0  0
  185.3610  176.4370  146.1070 O   0  0  0  0  0  0  0  0  0  0  0  0
  184.3800  178.5320  146.6540 C   0  0  0  0  0  1  0  0  0  0  0  0
  1 20  1  0  0  0  0
  2 12  2  0  0  0  0
  4  3  1  0  0  0  0
  6  5  2  0  0  0  0
  6 28  1  0  0  0  0
  7 19  1  6  0  0  0
  7 17  1  0  0  0  0
  9 28  1  0  0  0  0
  9 26  1  0  0  0  0
 11  3  2  0  0  0  0
 12  8  1  0  0  0  0
 12 13  1  0  0  0  0
 13 11  1  0  0  0  0
 14 22  2  0  0  0  0
 15  9  1  0  0  0  0
 16 19  1  0  0  0  0
 16  1  1  0  0  0  0
 17 10  1  6  0  0  0
 17  8  1  0  0  0  0
 18 15  2  0  0  0  0
 18  6  1  0  0  0  0
 20 10  1  0  0  0  0
 20 29  1  1  0  0  0
 21  4  2  0  0  0  0
 22 13  1  0  0  0  0
 22 21  1  0  0  0  0
 23 14  1  0  0  0  0
 24  7  1  0  0  0  0
 24  2  1  0  0  0  0
 25  5  1  0  0  0  0
 27  5  1  1  0  0  0
 27  2  1  0  0  0  0
 27 14  1  0  0  0  0
 28 23  2  0  0  0  0
 29 30  1  0  0  0  0
 30 31  2  0  0  0  0
 30 32  1  0  0  0  0
M  END
>  <MODEL>
7

>  <REMARK>
 VINA RESULT:      -7.8      2.177      4.642
  Name = 
  1 active torsions:
  status: ('A' for Active; 'I' for Inactive)
    1  A    between atoms: C_20  and  N_29
                            x       y       z     vdW  Elec       q    Type
                         _______ _______ _______ _____ _____    ______ ____

>  <TORSDO>
F 1

$$$$
=
 OpenBabel11112416373D

 32 37  0  0  1  0  0  0  0  0999 V2000
  190.3460  172.6290  138.7270 C   0  0  0  0  0  2  0  0  0  0  0  0
  189.0500  175.5330  143.4760 C   0  0  0  0  0  0  0  0  0  0  0  0
  192.4640  175.4420  146.8870 C   0  0  0  0  0  3  0  0  0  0  0  0
  191.6670  176.3380  147.7470 C   0  0  0  0  0  3  0  0  0  0  0  0
  186.7320  176.5920  144.0230 C   0  0  0  0  0  0  0  0  0  0  0  0
  186.1870  177.5430  144.7850 C   0  0  0  0  0  0  0  0  0  0  0  0
  189.3300  174.2120  141.4400 N   0  0  2  0  0  0  0  0  0  0  0  0
  191.2810  174.5780  142.9170 C   0  0  0  0  0  2  0  0  0  0  0  0
  185.8820  178.9090  146.6260 N   0  0  0  0  0  0  0  0  0  0  0  0
  191.5730  173.3140  140.8330 C   0  0  0  0  0  2  0  0  0  0  0  0
  191.9920  175.0290  145.7070 C   0  0  0  0  0  3  0  0  0  0  0  0
  190.2970  175.2120  143.8760 C   0  0  0  0  0  0  0  0  0  0  0  0
  190.6900  175.4380  145.2470 N   0  0  0  0  0  0  0  0  0  0  0  0
  188.6270  176.5780  145.7430 C   0  0  0  0  0  0  0  0  0  0  0  0
  184.7030  179.0550  145.7660 C   0  0  0  0  0  3  0  0  0  0  0  0
  189.0210  172.7930  139.4750 C   0  0  0  0  0  2  0  0  0  0  0  0
  190.7840  174.4570  141.4710 C   0  0  1  0  0  3  0  0  0  0  0  0
  184.9300  178.1830  144.5990 N   0  0  0  0  0  0  0  0  0  0  0  0
  188.8540  174.1890  140.0600 C   0  0  0  0  0  2  0  0  0  0  0  0
  191.5230  173.4110  139.3140 C   0  0  1  0  0  3  0  0  0  0  0  0
  190.4420  176.7260  147.3870 C   0  0  0  0  0  3  0  0  0  0  0  0
  189.8680  176.2460  146.1170 C   0  0  0  0  0  0  0  0  0  0  0  0
  187.8690  177.5400  146.5010 N   0  0  0  0  0  0  0  0  0  0  0  0
  188.6880  175.3830  142.0260 C   0  0  0  0  0  2  0  0  0  0  0  0
  185.9470  176.0400  142.8780 C   0  0  0  0  0  1  0  0  0  0  0  0
  185.9900  179.4090  147.9850 C   0  0  0  0  0  1  0  0  0  0  0  0
  188.0070  175.9030  144.5170 C   0  0  2  0  0  3  0  0  0  0  0  0
  186.7500  177.9770  146.0170 C   0  0  0  0  0  0  0  0  0  0  0  0
  192.7650  172.9100  138.7420 N   0  0  0  0  0  2  0  0  0  0  0  0
  193.8900  173.7520  138.4860 C   0  0  0  0  0  0  0  0  0  0  0  0
  193.8400  174.9860  138.7310 O   0  0  0  0  0  0  0  0  0  0  0  0
  195.1330  173.1640  137.9220 C   0  0  0  0  0  1  0  0  0  0  0  0
  1 20  1  0  0  0  0
  1 16  1  0  0  0  0
  2 12  2  0  0  0  0
  3  4  1  0  0  0  0
  5 27  1  0  0  0  0
  5  6  2  0  0  0  0
  6 28  1  0  0  0  0
  7 19  1  6  0  0  0
  7 17  1  0  0  0  0
  7 24  1  0  0  0  0
  8 12  1  0  0  0  0
  9 26  1  0  0  0  0
 11  3  2  0  0  0  0
 12 13  1  0  0  0  0
 13 11  1  0  0  0  0
 13 22  1  0  0  0  0
 14 22  2  0  0  0  0
 14 23  1  0  0  0  0
 15  9  1  0  0  0  0
 16 19  1  0  0  0  0
 17 10  1  1  0  0  0
 17  8  1  0  0  0  0
 18  6  1  0  0  0  0
 18 15  2  0  0  0  0
 20 29  1  6  0  0  0
 20 10  1  0  0  0  0
 21  4  2  0  0  0  0
 22 21  1  0  0  0  0
 24  2  1  0  0  0  0
 25  5  1  0  0  0  0
 27  2  1  6  0  0  0
 27 14  1  0  0  0  0
 28 23  2  0  0  0  0
 28  9  1  0  0  0  0
 30 31  2  0  0  0  0
 30 29  1  0  0  0  0
 32 30  1  0  0  0  0
M  END
>  <MODEL>
8

>  <REMARK>
 VINA RESULT:      -7.8      2.855      7.896
  Name = 
  1 active torsions:
  status: ('A' for Active; 'I' for Inactive)
    1  A    between atoms: C_20  and  N_29
                            x       y       z     vdW  Elec       q    Type
                         _______ _______ _______ _____ _____    ______ ____

>  <TORSDO>
F 1

$$$$
=
 OpenBabel11112416373D

 32 37  0  0  1  0  0  0  0  0999 V2000
  193.4080  170.3840  142.9650 C   0  0  0  0  0  2  0  0  0  0  0  0
  190.1240  174.8790  144.2580 C   0  0  0  0  0  0  0  0  0  0  0  0
  191.1910  177.0140  148.4530 C   0  0  0  0  0  3  0  0  0  0  0  0
  190.1630  178.0460  148.2210 C   0  0  0  0  0  3  0  0  0  0  0  0
  187.9960  175.6300  142.9530 C   0  0  0  0  0  0  0  0  0  0  0  0
  187.2370  176.7100  142.7520 C   0  0  0  0  0  0  0  0  0  0  0  0
  191.2910  172.8370  143.6010 N   0  0  2  0  0  0  0  0  0  0  0  0
  192.1960  174.1980  145.4590 C   0  0  0  0  0  2  0  0  0  0  0  0
  186.1560  178.6960  143.2360 N   0  0  0  0  0  0  0  0  0  0  0  0
  193.4050  172.1830  144.7460 C   0  0  0  0  0  2  0  0  0  0  0  0
  191.3720  176.0200  147.5780 C   0  0  0  0  0  3  0  0  0  0  0  0
  190.9290  175.0150  145.3310 C   0  0  0  0  0  0  0  0  0  0  0  0
  190.5620  175.9230  146.3920 N   0  0  0  0  0  0  0  0  0  0  0  0
  188.6840  176.7660  145.1410 C   0  0  0  0  0  0  0  0  0  0  0  0
  185.6310  178.2070  141.9570 C   0  0  0  0  0  3  0  0  0  0  0  0
  191.9150  170.6350  142.7440 C   0  0  0  0  0  2  0  0  0  0  0  0
  192.5270  173.3270  144.2390 C   0  0  1  0  0  3  0  0  0  0  0  0
  186.3450  176.9490  141.6700 N   0  0  0  0  0  0  0  0  0  0  0  0
  191.6150  172.0850  142.3910 C   0  0  0  0  0  2  0  0  0  0  0  0
  194.1750  171.5490  143.5950 C   0  0  1  0  0  3  0  0  0  0  0  0
  189.3620  177.9910  147.1550 C   0  0  0  0  0  3  0  0  0  0  0  0
  189.4970  176.8780  146.1970 C   0  0  0  0  0  0  0  0  0  0  0  0
  187.7490  177.8140  144.8240 N   0  0  0  0  0  0  0  0  0  0  0  0
  190.5670  174.0070  143.1180 C   0  0  0  0  0  2  0  0  0  0  0  0
  187.8790  174.4750  142.0130 C   0  0  0  0  0  1  0  0  0  0  0  0
  185.5830  179.7830  144.0100 C   0  0  0  0  0  1  0  0  0  0  0  0
  188.7350  175.4970  144.2870 C   0  0  2  0  0  3  0  0  0  0  0  0
  187.1080  177.7630  143.6990 C   0  0  0  0  0  0  0  0  0  0  0  0
  195.4690  171.0740  144.0630 N   0  0  0  0  0  2  0  0  0  0  0  0
  196.6330  171.9010  144.0820 C   0  0  0  0  0  0  0  0  0  0  0  0
  196.5850  173.0890  143.6640 O   0  0  0  0  0  0  0  0  0  0  0  0
  197.9140  171.3530  144.5960 C   0  0  0  0  0  1  0  0  0  0  0  0
  1 20  1  0  0  0  0
  2 27  1  0  0  0  0
  2 12  2  0  0  0  0
  4  3  1  0  0  0  0
  6  5  2  0  0  0  0
  6 28  1  0  0  0  0
  7 19  1  6  0  0  0
  7 17  1  0  0  0  0
  9 28  1  0  0  0  0
  9 26  1  0  0  0  0
 11  3  2  0  0  0  0
 12  8  1  0  0  0  0
 12 13  1  0  0  0  0
 13 11  1  0  0  0  0
 14 22  2  0  0  0  0
 15  9  1  0  0  0  0
 16  1  1  0  0  0  0
 17 10  1  1  0  0  0
 17  8  1  0  0  0  0
 18 15  2  0  0  0  0
 18  6  1  0  0  0  0
 19 16  1  0  0  0  0
 20 29  1  1  0  0  0
 20 10  1  0  0  0  0
 21  4  2  0  0  0  0
 22 13  1  0  0  0  0
 22 21  1  0  0  0  0
 23 14  1  0  0  0  0
 24  7  1  0  0  0  0
 24  2  1  0  0  0  0
 25  5  1  0  0  0  0
 27  5  1  6  0  0  0
 27 14  1  0  0  0  0
 28 23  2  0  0  0  0
 29 30  1  0  0  0  0
 30 32  1  0  0  0  0
 31 30  2  0  0  0  0
M  END
>  <MODEL>
9

>  <REMARK>
 VINA RESULT:      -7.6      2.941      8.873
  Name = 
  1 active torsions:
  status: ('A' for Active; 'I' for Inactive)
    1  A    between atoms: C_20  and  N_29
                            x       y       z     vdW  Elec       q    Type
                         _______ _______ _______ _____ _____    ______ ____

>  <TORSDO>
F 1

$$$$
