=
 OpenBabel11112416223D

 30 35  0  0  1  0  0  0  0  0999 V2000
  188.0410  176.2940  143.3790 C   0  0  0  0  0  0  0  0  0  0  0  0
  185.7820  177.3920  143.4450 C   0  0  0  0  0  0  0  0  0  0  0  0
  188.8620  177.5810  147.2100 N   0  0  0  0  0  2  0  0  0  0  0  0
  189.2480  175.9520  144.0640 C   0  0  0  0  0  0  0  0  0  0  0  0
  187.9260  175.9820  141.9000 C   0  0  0  0  0  2  0  0  0  0  0  0
  190.9420  174.3930  141.3800 O   0  0  0  0  0  0  0  0  0  0  0  0
  192.2770  175.7900  144.4010 C   0  0  1  0  0  3  0  0  0  0  0  0
  189.9560  174.5980  142.0730 C   0  0  0  0  0  0  0  0  0  0  0  0
  191.9710  176.3700  145.7670 C   0  0  2  0  0  3  0  0  0  0  0  0
  190.1390  177.1430  147.2550 C   0  0  0  0  0  0  0  0  0  0  0  0
  188.5780  174.6620  141.4880 C   0  0  2  0  0  3  0  0  0  0  0  0
  190.0530  174.7700  143.5580 C   0  0  1  0  0  3  0  0  0  0  0  0
  184.8370  178.1210  144.1700 C   0  0  0  0  0  3  0  0  0  0  0  0
  192.7880  175.5580  146.7510 C   0  0  0  0  0  2  0  0  0  0  0  0
  193.7460  175.4020  144.5010 C   0  0  0  0  0  2  0  0  0  0  0  0
  185.4550  177.0150  142.1480 O   0  0  0  0  0  1  0  0  0  0  0  0
  188.4560  177.1810  145.9920 C   0  0  0  0  0  0  0  0  0  0  0  0
  185.0880  178.5050  145.4480 N   0  0  0  0  0  0  0  0  0  0  0  0
  187.0210  177.0490  144.0460 C   0  0  0  0  0  0  0  0  0  0  0  0
  189.4500  176.4960  145.3490 C   0  0  0  0  0  0  0  0  0  0  0  0
  190.8990  177.3920  148.2280 O   0  0  0  0  0  0  0  0  0  0  0  0
  190.5500  176.4770  146.1430 N   0  0  0  0  0  0  0  0  0  0  0  0
  194.0380  175.1660  145.9810 C   0  0  0  0  0  2  0  0  0  0  0  0
  191.8040  173.4600  144.3980 O   0  0  0  0  0  0  0  0  0  0  0  0
  186.2560  178.1980  146.0640 C   0  0  0  0  0  3  0  0  0  0  0  0
  187.2370  177.4670  145.3870 C   0  0  0  0  0  0  0  0  0  0  0  0
  191.4210  174.5880  144.1250 C   0  0  0  0  0  0  0  0  0  0  0  0
  188.6160  174.5550  140.0500 N   0  0  0  0  0  0  0  0  0  0  0  0
  188.3630  173.3580  137.9820 C   0  0  0  0  0  1  0  0  0  0  0  0
  188.3190  173.4500  139.4670 C   0  0  0  0  0  3  0  0  0  0  0  0
  1 19  2  0  0  0  0
  1  4  1  0  0  0  0
  2 19  1  0  0  0  0
  2 13  2  0  0  0  0
  3 10  1  0  0  0  0
  4 20  2  0  0  0  0
  5  1  1  0  0  0  0
  6  8  2  0  0  0  0
  7 15  1  1  0  0  0
  7  9  1  0  0  0  0
  9 22  1  0  0  0  0
  9 14  1  1  0  0  0
 10 21  2  0  0  0  0
 11 28  1  6  0  0  0
 11  5  1  0  0  0  0
 11  8  1  0  0  0  0
 12  8  1  6  0  0  0
 12  4  1  0  0  0  0
 12 27  1  0  0  0  0
 13 18  1  0  0  0  0
 15 23  1  0  0  0  0
 16  2  1  0  0  0  0
 17  3  1  0  0  0  0
 18 25  2  0  0  0  0
 19 26  1  0  0  0  0
 20 17  1  0  0  0  0
 20 22  1  0  0  0  0
 22 10  1  0  0  0  0
 23 14  1  0  0  0  0
 26 17  2  0  0  0  0
 26 25  1  0  0  0  0
 27 24  2  0  0  0  0
 27  7  1  0  0  0  0
 29 30  1  0  0  0  0
 30 28  2  0  0  0  0
M  END
>  <MODEL>
1

>  <REMARK>
 VINA RESULT:      -8.6      0.000      0.000
  Name = 
  1 active torsions:
  status: ('A' for Active; 'I' for Inactive)
    1  A    between atoms: C_11  and  N_28
                            x       y       z     vdW  Elec       q    Type
                         _______ _______ _______ _____ _____    ______ ____

>  <TORSDO>
F 1

$$$$
=
 OpenBabel11112416223D

 30 35  0  0  1  0  0  0  0  0999 V2000
  188.1330  175.6840  141.6370 C   0  0  0  0  0  0  0  0  0  0  0  0
  189.8440  173.9510  141.0200 C   0  0  0  0  0  0  0  0  0  0  0  0
  189.0970  175.3270  145.6300 N   0  0  0  0  0  2  0  0  0  0  0  0
  187.5280  176.4920  142.6490 C   0  0  0  0  0  0  0  0  0  0  0  0
  187.5520  175.7130  140.2370 C   0  0  0  0  0  2  0  0  0  0  0  0
  185.0770  178.0770  140.6540 O   0  0  0  0  0  0  0  0  0  0  0  0
  185.1810  177.6550  144.2140 C   0  0  1  0  0  3  0  0  0  0  0  0
  186.2120  177.6780  140.8720 C   0  0  0  0  0  0  0  0  0  0  0  0
  186.0030  177.2240  145.4110 C   0  0  2  0  0  3  0  0  0  0  0  0
  188.1330  176.1490  146.1000 C   0  0  0  0  0  0  0  0  0  0  0  0
  187.0660  177.0920  139.7900 C   0  0  2  0  0  3  0  0  0  0  0  0
  186.8380  177.7760  142.2300 C   0  0  1  0  0  3  0  0  0  0  0  0
  190.8540  173.0800  141.4350 C   0  0  0  0  0  3  0  0  0  0  0  0
  185.9730  178.3940  146.3730 C   0  0  0  0  0  2  0  0  0  0  0  0
  184.0730  178.4990  144.8300 C   0  0  0  0  0  2  0  0  0  0  0  0
  189.5460  174.0010  139.6640 O   0  0  0  0  0  1  0  0  0  0  0  0
  188.9100  175.3860  144.3000 C   0  0  0  0  0  0  0  0  0  0  0  0
  191.2040  172.9960  142.7450 N   0  0  0  0  0  0  0  0  0  0  0  0
  189.1710  174.7560  141.9760 C   0  0  0  0  0  0  0  0  0  0  0  0
  187.8910  176.2430  143.9890 C   0  0  0  0  0  0  0  0  0  0  0  0
  187.9290  176.3060  147.3340 O   0  0  0  0  0  0  0  0  0  0  0  0
  187.3660  176.7320  145.1410 N   0  0  0  0  0  0  0  0  0  0  0  0
  184.6150  179.0390  146.1510 C   0  0  0  0  0  2  0  0  0  0  0  0
  186.0500  179.6850  143.3350 O   0  0  0  0  0  0  0  0  0  0  0  0
  190.5910  173.7480  143.6920 C   0  0  0  0  0  3  0  0  0  0  0  0
  189.5750  174.6390  143.3340 C   0  0  0  0  0  0  0  0  0  0  0  0
  186.0070  178.4660  143.2590 C   0  0  0  0  0  0  0  0  0  0  0  0
  186.3360  176.9850  138.5500 N   0  0  0  0  0  0  0  0  0  0  0  0
  185.9240  176.0400  136.3800 C   0  0  0  0  0  1  0  0  0  0  0  0
  186.6900  176.1380  137.6530 C   0  0  0  0  0  3  0  0  0  0  0  0
  1 19  2  0  0  0  0
  1  4  1  0  0  0  0
  2 13  2  0  0  0  0
  2 19  1  0  0  0  0
  3 10  1  0  0  0  0
  4 20  2  0  0  0  0
  5  1  1  0  0  0  0
  6  8  2  0  0  0  0
  7 15  1  1  0  0  0
  7  9  1  0  0  0  0
  9 14  1  1  0  0  0
 10 21  2  0  0  0  0
 11 28  1  6  0  0  0
 11  5  1  0  0  0  0
 11  8  1  0  0  0  0
 12  8  1  6  0  0  0
 12  4  1  0  0  0  0
 12 27  1  0  0  0  0
 13 18  1  0  0  0  0
 15 23  1  0  0  0  0
 16  2  1  0  0  0  0
 17  3  1  0  0  0  0
 18 25  2  0  0  0  0
 19 26  1  0  0  0  0
 20 17  1  0  0  0  0
 20 22  1  0  0  0  0
 22  9  1  0  0  0  0
 22 10  1  0  0  0  0
 23 14  1  0  0  0  0
 26 25  1  0  0  0  0
 26 17  2  0  0  0  0
 27 24  2  0  0  0  0
 27  7  1  0  0  0  0
 29 30  1  0  0  0  0
 30 28  2  0  0  0  0
M  END
>  <MODEL>
2

>  <REMARK>
 VINA RESULT:      -8.6      2.478      5.665
  Name = 
  1 active torsions:
  status: ('A' for Active; 'I' for Inactive)
    1  A    between atoms: C_11  and  N_28
                            x       y       z     vdW  Elec       q    Type
                         _______ _______ _______ _____ _____    ______ ____

>  <TORSDO>
F 1

$$$$
=
 OpenBabel11112416223D

 30 35  0  0  1  0  0  0  0  0999 V2000
  190.6870  174.5060  143.2710 C   0  0  0  0  0  0  0  0  0  0  0  0
  191.3490  173.6360  141.0100 C   0  0  0  0  0  0  0  0  0  0  0  0
  186.9900  175.6390  141.8390 N   0  0  0  0  0  2  0  0  0  0  0  0
  189.6780  175.0750  144.1100 C   0  0  0  0  0  0  0  0  0  0  0  0
  192.0880  174.3410  143.8250 C   0  0  0  0  0  2  0  0  0  0  0  0
  191.6030  175.4550  147.0520 O   0  0  0  0  0  0  0  0  0  0  0  0
  188.5660  177.1060  146.0960 C   0  0  1  0  0  3  0  0  0  0  0  0
  191.2180  174.8270  146.0760 C   0  0  0  0  0  0  0  0  0  0  0  0
  187.4160  177.1650  145.1110 C   0  0  2  0  0  3  0  0  0  0  0  0
  186.5630  176.2500  142.9660 C   0  0  0  0  0  0  0  0  0  0  0  0
  192.1350  173.9350  145.2980 C   0  0  2  0  0  3  0  0  0  0  0  0
  189.7950  174.8820  145.6090 C   0  0  1  0  0  3  0  0  0  0  0  0
  190.9950  173.3950  139.6800 C   0  0  0  0  0  3  0  0  0  0  0  0
  186.1550  177.1020  145.9470 C   0  0  0  0  0  2  0  0  0  0  0  0
  188.0440  177.8850  147.2960 C   0  0  0  0  0  2  0  0  0  0  0  0
  192.6210  173.2580  141.4210 O   0  0  0  0  0  1  0  0  0  0  0  0
  188.2040  175.1810  142.1940 C   0  0  0  0  0  0  0  0  0  0  0  0
  189.7610  173.7260  139.2190 N   0  0  0  0  0  0  0  0  0  0  0  0
  190.4110  174.2350  141.8910 C   0  0  0  0  0  0  0  0  0  0  0  0
  188.4730  175.4800  143.5010 C   0  0  0  0  0  0  0  0  0  0  0  0
  185.4730  176.8800  143.0150 O   0  0  0  0  0  0  0  0  0  0  0  0
  187.4310  176.1840  144.0100 N   0  0  0  0  0  0  0  0  0  0  0  0
  186.5200  177.7990  147.2470 C   0  0  0  0  0  2  0  0  0  0  0  0
  188.3650  175.1600  147.4440 O   0  0  0  0  0  0  0  0  0  0  0  0
  188.8330  174.2970  140.0260 C   0  0  0  0  0  3  0  0  0  0  0  0
  189.1310  174.5580  141.3670 C   0  0  0  0  0  0  0  0  0  0  0  0
  188.8800  175.6880  146.4700 C   0  0  0  0  0  0  0  0  0  0  0  0
  193.4880  174.0170  145.7940 N   0  0  0  0  0  0  0  0  0  0  0  0
  195.7850  174.7060  145.6530 C   0  0  0  0  0  1  0  0  0  0  0  0
  194.3950  174.6300  145.1250 C   0  0  0  0  0  3  0  0  0  0  0  0
  1  5  1  0  0  0  0
  1  4  1  0  0  0  0
  2 16  1  0  0  0  0
  2 19  1  0  0  0  0
  3 17  1  0  0  0  0
  3 10  1  0  0  0  0
  5 11  1  0  0  0  0
  7 27  1  0  0  0  0
  7 15  1  1  0  0  0
  8  6  2  0  0  0  0
  9 14  1  1  0  0  0
  9  7  1  0  0  0  0
 10 21  2  0  0  0  0
 10 22  1  0  0  0  0
 11 28  1  1  0  0  0
 11  8  1  0  0  0  0
 12  4  1  6  0  0  0
 12  8  1  0  0  0  0
 12 27  1  0  0  0  0
 13  2  2  0  0  0  0
 14 23  1  0  0  0  0
 17 20  1  0  0  0  0
 18 13  1  0  0  0  0
 18 25  2  0  0  0  0
 19  1  2  0  0  0  0
 20 22  1  0  0  0  0
 20  4  2  0  0  0  0
 22  9  1  0  0  0  0
 23 15  1  0  0  0  0
 25 26  1  0  0  0  0
 26 19  1  0  0  0  0
 26 17  2  0  0  0  0
 27 24  2  0  0  0  0
 30 29  1  0  0  0  0
 30 28  2  0  0  0  0
M  END
>  <MODEL>
3

>  <REMARK>
 VINA RESULT:      -8.2      1.855      6.197
  Name = 
  1 active torsions:
  status: ('A' for Active; 'I' for Inactive)
    1  A    between atoms: C_11  and  N_28
                            x       y       z     vdW  Elec       q    Type
                         _______ _______ _______ _____ _____    ______ ____

>  <TORSDO>
F 1

$$$$
=
 OpenBabel11112416223D

 30 35  0  0  1  0  0  0  0  0999 V2000
  187.4420  176.5030  142.8330 C   0  0  0  0  0  0  0  0  0  0  0  0
  185.2360  177.6340  142.4220 C   0  0  0  0  0  0  0  0  0  0  0  0
  187.6100  178.0470  146.6530 N   0  0  0  0  0  2  0  0  0  0  0  0
  188.5010  176.1940  143.7420 C   0  0  0  0  0  0  0  0  0  0  0  0
  187.5810  176.0890  141.3820 C   0  0  0  0  0  2  0  0  0  0  0  0
  190.5990  174.4250  141.5120 O   0  0  0  0  0  0  0  0  0  0  0  0
  191.4170  176.0150  144.6210 C   0  0  1  0  0  3  0  0  0  0  0  0
  189.5120  174.6930  142.0040 C   0  0  0  0  0  0  0  0  0  0  0  0
  190.8920  176.6950  145.8690 C   0  0  2  0  0  3  0  0  0  0  0  0
  188.8480  177.5960  146.9530 C   0  0  0  0  0  0  0  0  0  0  0  0
  188.2610  174.7340  141.1810 C   0  0  2  0  0  3  0  0  0  0  0  0
  189.3510  174.9690  143.4680 C   0  0  1  0  0  3  0  0  0  0  0  0
  184.1970  178.4250  142.9180 C   0  0  0  0  0  3  0  0  0  0  0  0
  191.5010  175.9430  147.0340 C   0  0  0  0  0  2  0  0  0  0  0  0
  192.8350  175.6150  145.0060 C   0  0  0  0  0  2  0  0  0  0  0  0
  185.1330  177.1710  141.1160 O   0  0  0  0  0  1  0  0  0  0  0  0
  187.4140  177.5680  145.4120 C   0  0  0  0  0  0  0  0  0  0  0  0
  184.2300  178.8960  144.1920 N   0  0  0  0  0  0  0  0  0  0  0  0
  186.3410  177.3180  143.2560 C   0  0  0  0  0  0  0  0  0  0  0  0
  188.4870  176.8260  145.0020 C   0  0  0  0  0  0  0  0  0  0  0  0
  189.4310  177.9040  148.0260 O   0  0  0  0  0  0  0  0  0  0  0  0
  189.4300  176.8470  145.9790 N   0  0  0  0  0  0  0  0  0  0  0  0
  192.8570  175.4810  146.5270 C   0  0  0  0  0  2  0  0  0  0  0  0
  190.8920  173.6980  144.6910 O   0  0  0  0  0  0  0  0  0  0  0  0
  185.2640  178.6170  145.0240 C   0  0  0  0  0  3  0  0  0  0  0  0
  186.3290  177.8270  144.5830 C   0  0  0  0  0  0  0  0  0  0  0  0
  190.5930  174.8090  144.2790 C   0  0  0  0  0  0  0  0  0  0  0  0
  188.5480  174.5240  139.7830 N   0  0  0  0  0  0  0  0  0  0  0  0
  188.5120  173.2320  137.7580 C   0  0  0  0  0  1  0  0  0  0  0  0
  188.2090  173.4310  139.2020 C   0  0  0  0  0  3  0  0  0  0  0  0
  1 19  2  0  0  0  0
  1  4  1  0  0  0  0
  2 13  2  0  0  0  0
  2 19  1  0  0  0  0
  3 10  1  0  0  0  0
  4 20  2  0  0  0  0
  5  1  1  0  0  0  0
  6  8  2  0  0  0  0
  7 15  1  1  0  0  0
  7  9  1  0  0  0  0
  9 22  1  0  0  0  0
  9 14  1  1  0  0  0
 10 21  2  0  0  0  0
 11 28  1  6  0  0  0
 11  5  1  0  0  0  0
 11  8  1  0  0  0  0
 12  8  1  6  0  0  0
 12  4  1  0  0  0  0
 12 27  1  0  0  0  0
 13 18  1  0  0  0  0
 15 23  1  0  0  0  0
 16  2  1  0  0  0  0
 17  3  1  0  0  0  0
 18 25  2  0  0  0  0
 19 26  1  0  0  0  0
 20 17  1  0  0  0  0
 20 22  1  0  0  0  0
 22 10  1  0  0  0  0
 23 14  1  0  0  0  0
 26 25  1  0  0  0  0
 26 17  2  0  0  0  0
 27  7  1  0  0  0  0
 27 24  2  0  0  0  0
 29 30  1  0  0  0  0
 30 28  2  0  0  0  0
M  END
>  <MODEL>
4

>  <REMARK>
 VINA RESULT:      -8.0      0.970      1.074
  Name = 
  1 active torsions:
  status: ('A' for Active; 'I' for Inactive)
    1  A    between atoms: C_11  and  N_28
                            x       y       z     vdW  Elec       q    Type
                         _______ _______ _______ _____ _____    ______ ____

>  <TORSDO>
F 1

$$$$
=
 OpenBabel11112416223D

 30 35  0  0  1  0  0  0  0  0999 V2000
  188.6840  175.2890  141.2880 C   0  0  0  0  0  0  0  0  0  0  0  0
  188.5600  174.1300  139.0630 C   0  0  0  0  0  0  0  0  0  0  0  0
  191.5640  172.6410  142.5930 N   0  0  0  0  0  2  0  0  0  0  0  0
  189.3080  175.4000  142.5700 C   0  0  0  0  0  0  0  0  0  0  0  0
  187.4760  176.1530  140.9870 C   0  0  0  0  0  2  0  0  0  0  0  0
  187.2970  177.9860  143.9020 O   0  0  0  0  0  0  0  0  0  0  0  0
  189.3380  175.5860  145.6160 C   0  0  1  0  0  3  0  0  0  0  0  0
  187.9570  177.4680  143.0120 C   0  0  0  0  0  0  0  0  0  0  0  0
  190.3840  174.4960  145.4880 C   0  0  2  0  0  3  0  0  0  0  0  0
  191.6360  173.0970  143.8630 C   0  0  0  0  0  0  0  0  0  0  0  0
  187.5540  177.5630  141.5730 C   0  0  2  0  0  3  0  0  0  0  0  0
  189.2290  176.7290  143.2970 C   0  0  1  0  0  3  0  0  0  0  0  0
  189.0360  173.1210  138.2220 C   0  0  0  0  0  3  0  0  0  0  0  0
  191.5110  174.8990  146.4170 C   0  0  0  0  0  2  0  0  0  0  0  0
  189.4190  175.9840  147.0830 C   0  0  0  0  0  2  0  0  0  0  0  0
  187.5670  174.9690  138.5740 O   0  0  0  0  0  1  0  0  0  0  0  0
  190.6610  173.4670  142.0350 C   0  0  0  0  0  0  0  0  0  0  0  0
  190.0170  172.2770  138.6340 N   0  0  0  0  0  0  0  0  0  0  0  0
  189.1050  174.2750  140.3660 C   0  0  0  0  0  0  0  0  0  0  0  0
  190.2370  174.4040  142.9350 C   0  0  0  0  0  0  0  0  0  0  0  0
  192.3360  172.5270  144.7420 O   0  0  0  0  0  0  0  0  0  0  0  0
  190.8440  174.1700  144.1260 N   0  0  0  0  0  0  0  0  0  0  0  0
  190.8260  175.6320  147.5580 C   0  0  0  0  0  2  0  0  0  0  0  0
  190.3180  177.6960  145.1310 O   0  0  0  0  0  0  0  0  0  0  0  0
  190.5680  172.3820  139.8690 C   0  0  0  0  0  3  0  0  0  0  0  0
  190.1340  173.3740  140.7520 C   0  0  0  0  0  0  0  0  0  0  0  0
  189.6630  176.7480  144.7240 C   0  0  0  0  0  0  0  0  0  0  0  0
  186.2840  178.2320  141.4290 N   0  0  0  0  0  0  0  0  0  0  0  0
  184.1220  178.5360  140.4260 C   0  0  0  0  0  1  0  0  0  0  0  0
  185.4280  177.8330  140.5600 C   0  0  0  0  0  3  0  0  0  0  0  0
  1  4  1  0  0  0  0
  2 19  1  0  0  0  0
  3 10  1  0  0  0  0
  4 20  2  0  0  0  0
  5  1  1  0  0  0  0
  5 11  1  0  0  0  0
  7 15  1  1  0  0  0
  8 12  1  0  0  0  0
  8  6  2  0  0  0  0
  9  7  1  0  0  0  0
  9 14  1  1  0  0  0
 10 22  1  0  0  0  0
 10 21  2  0  0  0  0
 11 28  1  1  0  0  0
 11  8  1  0  0  0  0
 12  4  1  1  0  0  0
 12 27  1  0  0  0  0
 13 18  1  0  0  0  0
 13  2  2  0  0  0  0
 14 23  1  0  0  0  0
 15 23  1  0  0  0  0
 16  2  1  0  0  0  0
 17  3  1  0  0  0  0
 17 20  1  0  0  0  0
 18 25  2  0  0  0  0
 19 26  1  0  0  0  0
 19  1  2  0  0  0  0
 20 22  1  0  0  0  0
 22  9  1  0  0  0  0
 25 26  1  0  0  0  0
 26 17  2  0  0  0  0
 27 24  2  0  0  0  0
 27  7  1  0  0  0  0
 29 30  1  0  0  0  0
 30 28  2  0  0  0  0
M  END
>  <MODEL>
5

>  <REMARK>
 VINA RESULT:      -7.9      2.416      5.294
  Name = 
  1 active torsions:
  status: ('A' for Active; 'I' for Inactive)
    1  A    between atoms: C_11  and  N_28
                            x       y       z     vdW  Elec       q    Type
                         _______ _______ _______ _____ _____    ______ ____

>  <TORSDO>
F 1

$$$$
=
 OpenBabel11112416223D

 30 35  0  0  1  0  0  0  0  0999 V2000
  189.5260  175.5790  144.2020 C   0  0  0  0  0  0  0  0  0  0  0  0
  191.3610  174.6240  145.6270 C   0  0  0  0  0  0  0  0  0  0  0  0
  188.1110  177.7990  147.3760 N   0  0  0  0  0  2  0  0  0  0  0  0
  188.4260  176.4830  144.0780 C   0  0  0  0  0  0  0  0  0  0  0  0
  189.8260  174.6330  143.0560 C   0  0  0  0  0  2  0  0  0  0  0  0
  187.4410  175.6570  140.7850 O   0  0  0  0  0  0  0  0  0  0  0  0
  185.5590  177.2600  143.3820 C   0  0  1  0  0  3  0  0  0  0  0  0
  188.2770  175.9190  141.6380 C   0  0  0  0  0  0  0  0  0  0  0  0
  185.5900  177.8920  144.7590 C   0  0  2  0  0  3  0  0  0  0  0  0
  187.0160  178.2850  146.7540 C   0  0  0  0  0  0  0  0  0  0  0  0
  189.6130  175.2430  141.6700 C   0  0  2  0  0  3  0  0  0  0  0  0
  188.0340  176.9560  142.6920 C   0  0  1  0  0  3  0  0  0  0  0  0
  192.0040  174.5860  146.8670 C   0  0  0  0  0  3  0  0  0  0  0  0
  184.9790  179.2680  144.5930 C   0  0  0  0  0  2  0  0  0  0  0  0
  184.2610  177.7840  142.7810 C   0  0  0  0  0  2  0  0  0  0  0  0
  191.8700  173.8280  144.6080 O   0  0  0  0  0  1  0  0  0  0  0  0
  188.6970  177.0670  146.4110 C   0  0  0  0  0  0  0  0  0  0  0  0
  191.5660  175.3510  147.9000 N   0  0  0  0  0  0  0  0  0  0  0  0
  190.2370  175.4690  145.4420 C   0  0  0  0  0  0  0  0  0  0  0  0
  187.9890  177.1460  145.2440 C   0  0  0  0  0  0  0  0  0  0  0  0
  186.1520  178.9750  147.3590 O   0  0  0  0  0  0  0  0  0  0  0  0
  186.8910  177.9160  145.4510 N   0  0  0  0  0  0  0  0  0  0  0  0
  183.9500  179.1010  143.4880 C   0  0  0  0  0  2  0  0  0  0  0  0
  186.6840  178.6660  141.8310 O   0  0  0  0  0  0  0  0  0  0  0  0
  190.4980  176.1760  147.7670 C   0  0  0  0  0  3  0  0  0  0  0  0
  189.8180  176.2570  146.5490 C   0  0  0  0  0  0  0  0  0  0  0  0
  186.7420  177.6910  142.5660 C   0  0  0  0  0  0  0  0  0  0  0  0
  189.7050  174.2200  140.6570 N   0  0  0  0  0  0  0  0  0  0  0  0
  189.9810  171.9500  139.9210 C   0  0  0  0  0  1  0  0  0  0  0  0
  189.8900  172.9920  140.9800 C   0  0  0  0  0  3  0  0  0  0  0  0
  1 19  1  0  0  0  0
  2 13  1  0  0  0  0
  4  1  2  0  0  0  0
  4 20  1  0  0  0  0
  5  1  1  0  0  0  0
  6  8  2  0  0  0  0
  7 15  1  6  0  0  0
  7  9  1  0  0  0  0
  8 11  1  0  0  0  0
  9 14  1  6  0  0  0
  9 22  1  0  0  0  0
 10 21  2  0  0  0  0
 10  3  1  0  0  0  0
 11 28  1  6  0  0  0
 11  5  1  0  0  0  0
 12  8  1  6  0  0  0
 12  4  1  0  0  0  0
 13 18  2  0  0  0  0
 15 23  1  0  0  0  0
 16  2  1  0  0  0  0
 17 26  1  0  0  0  0
 17  3  1  0  0  0  0
 19  2  2  0  0  0  0
 19 26  1  0  0  0  0
 20 22  1  0  0  0  0
 20 17  2  0  0  0  0
 22 10  1  0  0  0  0
 23 14  1  0  0  0  0
 24 27  2  0  0  0  0
 25 18  1  0  0  0  0
 26 25  2  0  0  0  0
 27 12  1  0  0  0  0
 27  7  1  0  0  0  0
 28 30  2  0  0  0  0
 29 30  1  0  0  0  0
M  END
>  <MODEL>
6

>  <REMARK>
 VINA RESULT:      -7.9      1.846      5.415
  Name = 
  1 active torsions:
  status: ('A' for Active; 'I' for Inactive)
    1  A    between atoms: C_11  and  N_28
                            x       y       z     vdW  Elec       q    Type
                         _______ _______ _______ _____ _____    ______ ____

>  <TORSDO>
F 1

$$$$
=
 OpenBabel11112416223D

 30 35  0  0  1  0  0  0  0  0999 V2000
  188.7460  176.7640  145.4860 C   0  0  0  0  0  0  0  0  0  0  0  0
  186.5560  177.8620  146.0420 C   0  0  0  0  0  0  0  0  0  0  0  0
  187.3620  175.7230  141.7430 N   0  0  0  0  0  2  0  0  0  0  0  0
  189.5650  176.1000  144.5200 C   0  0  0  0  0  0  0  0  0  0  0  0
  189.2540  176.8940  146.9080 C   0  0  0  0  0  2  0  0  0  0  0  0
  192.3720  175.4600  146.5710 O   0  0  0  0  0  0  0  0  0  0  0  0
  191.3840  173.8670  143.5140 C   0  0  1  0  0  3  0  0  0  0  0  0
  191.4810  176.1760  146.1380 C   0  0  0  0  0  0  0  0  0  0  0  0
  190.4460  173.8890  142.3240 C   0  0  2  0  0  3  0  0  0  0  0  0
  188.4400  174.9980  141.3710 C   0  0  0  0  0  0  0  0  0  0  0  0
  190.7570  177.1540  147.0130 C   0  0  2  0  0  3  0  0  0  0  0  0
  191.0700  176.1460  144.6980 C   0  0  1  0  0  3  0  0  0  0  0  0
  185.2720  178.2260  145.6290 C   0  0  0  0  0  3  0  0  0  0  0  0
  191.3360  173.8510  141.0990 C   0  0  0  0  0  2  0  0  0  0  0  0
  192.5220  172.9670  143.0520 C   0  0  0  0  0  2  0  0  0  0  0  0
  186.9500  178.2160  147.3260 O   0  0  0  0  0  1  0  0  0  0  0  0
  187.7100  176.1610  142.9660 C   0  0  0  0  0  0  0  0  0  0  0  0
  184.8320  177.9240  144.3800 N   0  0  0  0  0  0  0  0  0  0  0  0
  187.4110  177.1650  145.1490 C   0  0  0  0  0  0  0  0  0  0  0  0
  188.9690  175.7400  143.2940 C   0  0  0  0  0  0  0  0  0  0  0  0
  188.4710  174.3500  140.2910 O   0  0  0  0  0  0  0  0  0  0  0  0
  189.4490  174.9730  142.2820 N   0  0  0  0  0  0  0  0  0  0  0  0
  192.5450  173.0350  141.5270 C   0  0  0  0  0  2  0  0  0  0  0  0
  192.9260  175.6690  143.3510 O   0  0  0  0  0  0  0  0  0  0  0  0
  185.6160  177.2630  143.4930 C   0  0  0  0  0  3  0  0  0  0  0  0
  186.9110  176.8760  143.8510 C   0  0  0  0  0  0  0  0  0  0  0  0
  191.8830  175.2470  143.8290 C   0  0  0  0  0  0  0  0  0  0  0  0
  191.1860  177.0430  148.3860 N   0  0  0  0  0  0  0  0  0  0  0  0
  191.5660  177.9190  150.5900 C   0  0  0  0  0  1  0  0  0  0  0  0
  191.1200  178.0520  149.1760 C   0  0  0  0  0  3  0  0  0  0  0  0
  1  5  1  0  0  0  0
  2 16  1  0  0  0  0
  3 17  1  0  0  0  0
  4 12  1  0  0  0  0
  4  1  2  0  0  0  0
  5 11  1  0  0  0  0
  7 15  1  6  0  0  0
  7 27  1  0  0  0  0
  8  6  2  0  0  0  0
  8 11  1  0  0  0  0
  9 14  1  6  0  0  0
  9  7  1  0  0  0  0
 10  3  1  0  0  0  0
 10 22  1  0  0  0  0
 11 28  1  1  0  0  0
 12 27  1  1  0  0  0
 12  8  1  0  0  0  0
 13  2  1  0  0  0  0
 14 23  1  0  0  0  0
 17 20  2  0  0  0  0
 17 26  1  0  0  0  0
 18 13  2  0  0  0  0
 19  1  1  0  0  0  0
 19  2  2  0  0  0  0
 20  4  1  0  0  0  0
 21 10  2  0  0  0  0
 22  9  1  0  0  0  0
 22 20  1  0  0  0  0
 23 15  1  0  0  0  0
 24 27  2  0  0  0  0
 25 26  2  0  0  0  0
 25 18  1  0  0  0  0
 26 19  1  0  0  0  0
 28 30  2  0  0  0  0
 30 29  1  0  0  0  0
M  END
>  <MODEL>
7

>  <REMARK>
 VINA RESULT:      -7.8      1.897      5.406
  Name = 
  1 active torsions:
  status: ('A' for Active; 'I' for Inactive)
    1  A    between atoms: C_11  and  N_28
                            x       y       z     vdW  Elec       q    Type
                         _______ _______ _______ _____ _____    ______ ____

>  <TORSDO>
F 1

$$$$
=
 OpenBabel11112416223D

 30 35  0  0  1  0  0  0  0  0999 V2000
  189.3640  175.2440  143.8510 C   0  0  0  0  0  0  0  0  0  0  0  0
  191.0450  173.7730  142.7030 C   0  0  0  0  0  0  0  0  0  0  0  0
  187.4540  175.9870  140.2730 N   0  0  0  0  0  2  0  0  0  0  0  0
  188.1770  176.0370  143.7630 C   0  0  0  0  0  0  0  0  0  0  0  0
  190.1290  175.2200  145.1600 C   0  0  0  0  0  2  0  0  0  0  0  0
  188.0720  177.1900  147.1030 O   0  0  0  0  0  0  0  0  0  0  0  0
  186.5040  178.5530  144.1810 C   0  0  1  0  0  3  0  0  0  0  0  0
  188.2190  176.3220  146.2560 C   0  0  0  0  0  0  0  0  0  0  0  0
  186.1700  178.3530  142.7160 C   0  0  2  0  0  3  0  0  0  0  0  0
  186.5700  176.8910  140.7490 C   0  0  0  0  0  0  0  0  0  0  0  0
  189.2410  175.2370  146.4040 C   0  0  2  0  0  3  0  0  0  0  0  0
  187.3670  176.2650  145.0240 C   0  0  1  0  0  3  0  0  0  0  0  0
  191.4900  173.1790  141.5190 C   0  0  0  0  0  3  0  0  0  0  0  0
  184.6710  178.5410  142.6070 C   0  0  0  0  0  2  0  0  0  0  0  0
  185.5320  179.6410  144.6200 C   0  0  0  0  0  2  0  0  0  0  0  0
  191.7520  173.5070  143.8690 O   0  0  0  0  0  1  0  0  0  0  0  0
  188.1320  175.6280  141.3780 C   0  0  0  0  0  0  0  0  0  0  0  0
  190.8350  173.3860  140.3480 N   0  0  0  0  0  0  0  0  0  0  0  0
  189.8960  174.6050  142.6830 C   0  0  0  0  0  0  0  0  0  0  0  0
  187.6430  176.2740  142.4800 C   0  0  0  0  0  0  0  0  0  0  0  0
  185.7870  177.5250  139.9930 O   0  0  0  0  0  0  0  0  0  0  0  0
  186.6440  177.1060  142.0900 N   0  0  0  0  0  0  0  0  0  0  0  0
  184.3330  179.5660  143.6770 C   0  0  0  0  0  2  0  0  0  0  0  0
  185.2170  177.0590  145.5070 O   0  0  0  0  0  0  0  0  0  0  0  0
  189.7310  174.1710  140.2840 C   0  0  0  0  0  3  0  0  0  0  0  0
  189.2380  174.7880  141.4370 C   0  0  0  0  0  0  0  0  0  0  0  0
  186.2850  177.2900  144.9590 C   0  0  0  0  0  0  0  0  0  0  0  0
  190.0440  175.4340  147.5860 N   0  0  0  0  0  0  0  0  0  0  0  0
  191.8440  176.4510  148.8090 C   0  0  0  0  0  1  0  0  0  0  0  0
  191.0270  176.2590  147.5800 C   0  0  0  0  0  3  0  0  0  0  0  0
  1  5  1  0  0  0  0
  2 16  1  0  0  0  0
  3 10  1  0  0  0  0
  3 17  1  0  0  0  0
  4  1  1  0  0  0  0
  5 11  1  0  0  0  0
  7 15  1  1  0  0  0
  7 27  1  0  0  0  0
  8 11  1  0  0  0  0
  8  6  2  0  0  0  0
  9 14  1  1  0  0  0
  9  7  1  0  0  0  0
 10 22  1  0  0  0  0
 11 28  1  1  0  0  0
 12  4  1  6  0  0  0
 12  8  1  0  0  0  0
 13  2  2  0  0  0  0
 14 23  1  0  0  0  0
 17 26  2  0  0  0  0
 17 20  1  0  0  0  0
 18 13  1  0  0  0  0
 19  2  1  0  0  0  0
 19  1  2  0  0  0  0
 20  4  2  0  0  0  0
 21 10  2  0  0  0  0
 22 20  1  0  0  0  0
 22  9  1  0  0  0  0
 23 15  1  0  0  0  0
 25 18  2  0  0  0  0
 25 26  1  0  0  0  0
 26 19  1  0  0  0  0
 27 12  1  0  0  0  0
 27 24  2  0  0  0  0
 30 28  2  0  0  0  0
 30 29  1  0  0  0  0
M  END
>  <MODEL>
8

>  <REMARK>
 VINA RESULT:      -7.8      2.009      7.108
  Name = 
  1 active torsions:
  status: ('A' for Active; 'I' for Inactive)
    1  A    between atoms: C_11  and  N_28
                            x       y       z     vdW  Elec       q    Type
                         _______ _______ _______ _____ _____    ______ ____

>  <TORSDO>
F 1

$$$$
=
 OpenBabel11112416223D

 30 35  0  0  1  0  0  0  0  0999 V2000
  190.3420  175.3410  144.1160 C   0  0  0  0  0  0  0  0  0  0  0  0
  192.7060  174.4980  144.2330 C   0  0  0  0  0  0  0  0  0  0  0  0
  190.8560  177.4960  147.5940 N   0  0  0  0  0  2  0  0  0  0  0  0
  189.3210  176.1810  144.6580 C   0  0  0  0  0  0  0  0  0  0  0  0
  189.9900  174.4070  142.9750 C   0  0  0  0  0  2  0  0  0  0  0  0
  186.6920  175.2810  142.4710 O   0  0  0  0  0  0  0  0  0  0  0  0
  186.5260  176.7910  145.7200 C   0  0  1  0  0  3  0  0  0  0  0  0
  187.8490  175.5950  142.7120 C   0  0  0  0  0  0  0  0  0  0  0  0
  187.2970  177.4320  146.8560 C   0  0  2  0  0  3  0  0  0  0  0  0
  189.5770  177.9160  147.7110 C   0  0  0  0  0  0  0  0  0  0  0  0
  189.0020  174.9960  141.9680 C   0  0  2  0  0  3  0  0  0  0  0  0
  188.1920  176.6230  143.7470 C   0  0  1  0  0  3  0  0  0  0  0  0
  193.9370  174.5040  144.8940 C   0  0  0  0  0  3  0  0  0  0  0  0
  186.6310  178.7700  147.1010 C   0  0  0  0  0  2  0  0  0  0  0  0
  185.0910  177.2370  145.9690 C   0  0  0  0  0  2  0  0  0  0  0  0
  192.5900  173.7270  143.0830 O   0  0  0  0  0  1  0  0  0  0  0  0
  190.8310  176.7930  146.4480 C   0  0  0  0  0  0  0  0  0  0  0  0
  194.1210  175.2500  146.0140 N   0  0  0  0  0  0  0  0  0  0  0  0
  191.6330  175.2790  144.7370 C   0  0  0  0  0  0  0  0  0  0  0  0
  189.5850  176.8250  145.8840 C   0  0  0  0  0  0  0  0  0  0  0  0
  189.1730  178.5590  148.7160 O   0  0  0  0  0  0  0  0  0  0  0  0
  188.7590  177.5320  146.6950 N   0  0  0  0  0  0  0  0  0  0  0  0
  185.1680  178.5390  146.7630 C   0  0  0  0  0  2  0  0  0  0  0  0
  186.5080  178.2490  143.8430 O   0  0  0  0  0  0  0  0  0  0  0  0
  193.1250  176.0120  146.5280 C   0  0  0  0  0  3  0  0  0  0  0  0
  191.8730  176.0480  145.9070 C   0  0  0  0  0  0  0  0  0  0  0  0
  187.0190  177.2830  144.3910 C   0  0  0  0  0  0  0  0  0  0  0  0
  188.5580  173.9740  141.0510 N   0  0  0  0  0  0  0  0  0  0  0  0
  188.1920  173.0770  138.8530 C   0  0  0  0  0  1  0  0  0  0  0  0
  188.6550  174.1430  139.7830 C   0  0  0  0  0  3  0  0  0  0  0  0
  1  4  2  0  0  0  0
  1 19  1  0  0  0  0
  2 19  2  0  0  0  0
  2 13  1  0  0  0  0
  3 10  1  0  0  0  0
  4 20  1  0  0  0  0
  5  1  1  0  0  0  0
  6  8  2  0  0  0  0
  7 15  1  1  0  0  0
  7  9  1  0  0  0  0
  9 14  1  6  0  0  0
 10 21  2  0  0  0  0
 11 28  1  6  0  0  0
 11  8  1  0  0  0  0
 11  5  1  0  0  0  0
 12  8  1  1  0  0  0
 12 27  1  0  0  0  0
 12  4  1  0  0  0  0
 13 18  2  0  0  0  0
 15 23  1  0  0  0  0
 16  2  1  0  0  0  0
 17  3  1  0  0  0  0
 18 25  1  0  0  0  0
 19 26  1  0  0  0  0
 20 17  2  0  0  0  0
 20 22  1  0  0  0  0
 22  9  1  0  0  0  0
 22 10  1  0  0  0  0
 23 14  1  0  0  0  0
 24 27  2  0  0  0  0
 26 17  1  0  0  0  0
 26 25  2  0  0  0  0
 27  7  1  0  0  0  0
 29 30  1  0  0  0  0
 30 28  2  0  0  0  0
M  END
>  <MODEL>
9

>  <REMARK>
 VINA RESULT:      -7.7      1.418      5.288
  Name = 
  1 active torsions:
  status: ('A' for Active; 'I' for Inactive)
    1  A    between atoms: C_11  and  N_28
                            x       y       z     vdW  Elec       q    Type
                         _______ _______ _______ _____ _____    ______ ____

>  <TORSDO>
F 1

$$$$
