=
 OpenBabel11112416293D

 32 38  0  0  1  0  0  0  0  0999 V2000
  186.5090  178.0090  143.9630 C   0  0  2  0  0  3  0  0  0  0  0  0
  190.5310  174.3060  143.6850 C   0  0  1  0  0  3  0  0  0  0  0  0
  194.7250  176.5440  145.2980 C   0  0  0  0  0  2  0  0  0  0  0  0
  194.9390  175.2910  146.1380 C   0  0  0  0  0  2  0  0  0  0  0  0
  190.9400  172.0820  142.3580 C   0  0  2  0  0  3  0  0  0  0  0  0
  192.0120  171.1790  141.7020 C   0  0  2  0  0  3  0  0  0  0  0  0
  188.3830  175.6320  143.6820 C   0  0  1  0  0  3  0  0  0  0  0  0
  190.3920  176.3670  144.8860 O   0  0  0  0  0  0  0  0  0  0  0  0
  193.1790  169.9780  143.3600 C   0  0  1  0  0  3  0  0  0  0  0  0
  188.5830  177.9160  145.0390 C   0  0  0  0  0  2  0  0  0  0  0  0
  193.3180  176.6090  144.7720 C   0  0  0  0  0  3  0  0  0  0  0  0
  191.1960  175.6560  143.9800 C   0  0  1  0  0  3  0  0  0  0  0  0
  192.5910  175.5060  144.5220 C   0  0  0  0  0  0  0  0  0  0  0  0
  192.6700  173.0160  143.8830 C   0  0  2  0  0  3  0  0  0  0  0  0
  192.0450  169.1890  142.8840 N   0  0  0  0  0  2  0  0  0  0  0  0
  186.0340  176.6760  143.4380 C   0  0  0  0  0  2  0  0  0  0  0  0
  189.2760  176.8370  144.1670 C   0  0  2  0  0  3  0  0  0  0  0  0
  191.5350  169.8030  141.7180 N   0  0  0  0  0  2  0  0  0  0  0  0
  187.2300  176.0250  142.7330 C   0  0  0  0  0  2  0  0  0  0  0  0
  187.1310  177.5810  145.2730 C   0  0  1  0  0  3  0  0  0  0  0  0
  194.5840  174.0720  145.2970 C   0  0  0  0  0  2  0  0  0  0  0  0
  193.1080  174.1230  144.8740 C   0  0  1  0  0  3  0  0  0  0  0  0
  193.8030  172.4170  143.0670 C   0  0  0  0  0  2  0  0  0  0  0  0
  189.2460  174.6200  142.9260 C   0  0  0  0  0  2  0  0  0  0  0  0
  189.8850  172.3400  141.2940 C   0  0  0  0  0  1  0  0  0  0  0  0
  194.4300  169.1210  143.3740 C   0  0  0  0  0  1  0  0  0  0  0  0
  191.5250  173.3950  142.9270 C   0  0  2  0  0  3  0  0  0  0  0  0
  193.3510  171.1190  142.4010 C   0  0  2  0  0  3  0  0  0  0  0  0
  186.0690  178.6560  145.2740 C   0  0  2  0  0  3  0  0  0  0  0  0
  184.7570  178.1140  145.7450 C   0  0  0  0  0  0  0  0  0  0  0  0
  184.7120  176.9570  146.5130 O   0  0  0  0  0  1  0  0  0  0  0  0
  183.6910  178.7290  145.4810 O   0  0  0  0  0  0  0  0  0  0  0  0
  1 16  1  1  0  0  0
  1 20  1  0  0  0  0
  1 29  1  0  0  0  0
  2 24  1  6  0  0  0
  2 12  1  0  0  0  0
  3  4  1  0  0  0  0
  5 25  1  6  0  0  0
  5 27  1  0  0  0  0
  6 18  1  1  0  0  0
  6  5  1  0  0  0  0
  6 28  1  0  0  0  0
  7 19  1  6  0  0  0
  7 17  1  0  0  0  0
  9 26  1  6  0  0  0
 11  3  1  0  0  0  0
 12 13  1  1  0  0  0
 12  8  1  0  0  0  0
 13 11  2  0  0  0  0
 13 22  1  0  0  0  0
 14 23  1  6  0  0  0
 14 22  1  0  0  0  0
 15  9  1  0  0  0  0
 17  8  1  0  0  0  0
 17 10  1  1  0  0  0
 18 15  1  0  0  0  0
 19 16  1  0  0  0  0
 20 10  1  6  0  0  0
 20 29  1  0  0  0  0
 21  4  1  0  0  0  0
 22 21  1  6  0  0  0
 24  7  1  0  0  0  0
 27  2  1  0  0  0  0
 27 14  1  0  0  0  0
 28 23  1  0  0  0  0
 28  9  1  0  0  0  0
 29 30  1  0  0  0  0
 30 31  1  0  0  0  0
 32 30  2  0  0  0  0
M  END
>  <MODEL>
1

>  <REMARK>
 VINA RESULT:      -8.5      0.000      0.000
  Name = 
  1 active torsions:
  status: ('A' for Active; 'I' for Inactive)
    1  A    between atoms: C_29  and  C_30
                            x       y       z     vdW  Elec       q    Type
                         _______ _______ _______ _____ _____    ______ ____

>  <TORSDO>
F 1

$$$$
=
 OpenBabel11112416293D

 32 38  0  0  1  0  0  0  0  0999 V2000
  194.9540  173.1820  141.0820 C   0  0  2  0  0  3  0  0  0  0  0  0
  190.6110  175.7360  143.2250 C   0  0  1  0  0  3  0  0  0  0  0  0
  191.2770  175.8780  148.1990 C   0  0  0  0  0  2  0  0  0  0  0  0
  190.8770  177.3450  148.0990 C   0  0  0  0  0  2  0  0  0  0  0  0
  188.1510  176.2130  142.4540 C   0  0  2  0  0  3  0  0  0  0  0  0
  186.6900  176.4000  142.9280 C   0  0  2  0  0  3  0  0  0  0  0  0
  192.4080  174.6810  141.7990 C   0  0  1  0  0  3  0  0  0  0  0  0
  192.7710  175.2930  144.1480 O   0  0  0  0  0  0  0  0  0  0  0  0
  186.4210  178.5370  143.8860 C   0  0  1  0  0  3  0  0  0  0  0  0
  194.6640  174.2420  143.1460 C   0  0  0  0  0  2  0  0  0  0  0  0
  191.6000  175.3120  146.8430 C   0  0  0  0  0  3  0  0  0  0  0  0
  191.3970  175.1420  144.4010 C   0  0  1  0  0  3  0  0  0  0  0  0
  191.0330  175.7740  145.7160 C   0  0  0  0  0  0  0  0  0  0  0  0
  188.9640  176.9140  144.7000 C   0  0  2  0  0  3  0  0  0  0  0  0
  186.0950  178.5880  142.4620 N   0  0  0  0  0  2  0  0  0  0  0  0
  193.9560  173.6080  140.0320 C   0  0  0  0  0  2  0  0  0  0  0  0
  193.1170  174.3440  143.1670 C   0  0  2  0  0  3  0  0  0  0  0  0
  186.0000  177.2630  141.9810 N   0  0  0  0  0  2  0  0  0  0  0  0
  192.5780  173.6050  140.7040 C   0  0  0  0  0  2  0  0  0  0  0  0
  195.2120  174.5060  141.7660 C   0  0  1  0  0  3  0  0  0  0  0  0
  189.7090  177.4690  147.1310 C   0  0  0  0  0  2  0  0  0  0  0  0
  190.1160  176.9830  145.7320 C   0  0  1  0  0  3  0  0  0  0  0  0
  187.5780  176.7880  145.3090 C   0  0  0  0  0  2  0  0  0  0  0  0
  190.9030  174.8440  142.0230 C   0  0  0  0  0  2  0  0  0  0  0  0
  188.1190  175.1470  141.3700 C   0  0  0  0  0  1  0  0  0  0  0  0
  185.3270  179.2150  144.6860 C   0  0  0  0  0  1  0  0  0  0  0  0
  189.1160  175.8440  143.6050 C   0  0  2  0  0  3  0  0  0  0  0  0
  186.5060  177.0870  144.2630 C   0  0  2  0  0  3  0  0  0  0  0  0
  196.3780  173.7130  141.2210 C   0  0  2  0  0  3  0  0  0  0  0  0
  196.8760  174.3030  139.9410 C   0  0  0  0  0  0  0  0  0  0  0  0
  196.7840  175.6720  139.7170 O   0  0  0  0  0  1  0  0  0  0  0  0
  197.4190  173.5660  139.0780 O   0  0  0  0  0  0  0  0  0  0  0  0
  1 16  1  6  0  0  0
  1 29  1  0  0  0  0
  1 20  1  0  0  0  0
  2 24  1  6  0  0  0
  2 27  1  0  0  0  0
  2 12  1  0  0  0  0
  4  3  1  0  0  0  0
  5 25  1  6  0  0  0
  5  6  1  0  0  0  0
  5 27  1  0  0  0  0
  6 18  1  6  0  0  0
  6 28  1  0  0  0  0
  7 19  1  6  0  0  0
  7 24  1  0  0  0  0
  7 17  1  0  0  0  0
  9 28  1  0  0  0  0
  9 26  1  1  0  0  0
 11  3  1  0  0  0  0
 12  8  1  6  0  0  0
 12 13  1  0  0  0  0
 13 22  1  0  0  0  0
 13 11  2  0  0  0  0
 14 23  1  1  0  0  0
 14 22  1  0  0  0  0
 15  9  1  0  0  0  0
 16 19  1  0  0  0  0
 17 10  1  6  0  0  0
 17  8  1  0  0  0  0
 18 15  1  0  0  0  0
 20 10  1  1  0  0  0
 21  4  1  0  0  0  0
 22 21  1  1  0  0  0
 27 14  1  0  0  0  0
 28 23  1  0  0  0  0
 29 20  1  0  0  0  0
 30 29  1  0  0  0  0
 31 30  1  0  0  0  0
 32 30  2  0  0  0  0
M  END
>  <MODEL>
2

>  <REMARK>
 VINA RESULT:      -8.4      3.945      8.156
  Name = 
  1 active torsions:
  status: ('A' for Active; 'I' for Inactive)
    1  A    between atoms: C_29  and  C_30
                            x       y       z     vdW  Elec       q    Type
                         _______ _______ _______ _____ _____    ______ ____

>  <TORSDO>
F 1

$$$$
=
 OpenBabel11112416293D

 32 38  0  0  1  0  0  0  0  0999 V2000
  185.9130  176.7910  145.1850 C   0  0  2  0  0  3  0  0  0  0  0  0
  190.9690  175.3540  143.6540 C   0  0  1  0  0  3  0  0  0  0  0  0
  190.5250  172.5490  139.5140 C   0  0  0  0  0  2  0  0  0  0  0  0
  191.6400  173.4160  138.9410 C   0  0  0  0  0  2  0  0  0  0  0  0
  193.3010  175.1670  144.8370 C   0  0  2  0  0  3  0  0  0  0  0  0
  194.6440  174.3990  144.8720 C   0  0  2  0  0  3  0  0  0  0  0  0
  188.8720  176.2930  144.7030 C   0  0  1  0  0  3  0  0  0  0  0  0
  188.9110  175.3460  142.4390 O   0  0  0  0  0  0  0  0  0  0  0  0
  196.0120  175.0850  143.0800 C   0  0  1  0  0  3  0  0  0  0  0  0
  186.7390  176.0560  143.1250 C   0  0  0  0  0  2  0  0  0  0  0  0
  189.9390  173.1710  140.7520 C   0  0  0  0  0  3  0  0  0  0  0  0
  189.9980  174.5320  142.7960 C   0  0  1  0  0  3  0  0  0  0  0  0
  190.6540  173.9630  141.5680 C   0  0  0  0  0  0  0  0  0  0  0  0
  193.0040  174.5260  142.4500 C   0  0  2  0  0  3  0  0  0  0  0  0
  196.3020  175.8940  144.2630 N   0  0  0  0  0  2  0  0  0  0  0  0
  186.9750  177.3370  146.1090 C   0  0  0  0  0  2  0  0  0  0  0  0
  188.1060  175.4870  143.5850 C   0  0  2  0  0  3  0  0  0  0  0  0
  195.6770  175.2910  145.3770 N   0  0  0  0  0  2  0  0  0  0  0  0
  188.1490  176.3510  146.0660 C   0  0  0  0  0  2  0  0  0  0  0  0
  186.4010  177.3290  143.8600 C   0  0  1  0  0  3  0  0  0  0  0  0
  192.6880  173.6420  140.0220 C   0  0  0  0  0  2  0  0  0  0  0  0
  192.0720  174.3790  141.2220 C   0  0  1  0  0  3  0  0  0  0  0  0
  194.1190  173.4950  142.5230 C   0  0  0  0  0  2  0  0  0  0  0  0
  190.2370  175.6510  144.9590 C   0  0  0  0  0  2  0  0  0  0  0  0
  192.7540  175.1430  146.2550 C   0  0  0  0  0  1  0  0  0  0  0  0
  197.3070  174.5800  142.4750 C   0  0  0  0  0  1  0  0  0  0  0  0
  192.2970  174.5800  143.8160 C   0  0  2  0  0  3  0  0  0  0  0  0
  195.1760  173.9260  143.5380 C   0  0  2  0  0  3  0  0  0  0  0  0
  184.9870  177.6250  144.3040 C   0  0  2  0  0  3  0  0  0  0  0  0
  184.8650  179.0290  144.8050 C   0  0  0  0  0  0  0  0  0  0  0  0
  185.5660  180.0570  144.1870 O   0  0  0  0  0  0  0  0  0  0  0  0
  184.0920  179.2910  145.7630 O   0  0  0  0  0  1  0  0  0  0  0  0
  1 16  1  1  0  0  0
  2 27  1  0  0  0  0
  2 24  1  1  0  0  0
  3 11  1  0  0  0  0
  4  3  1  0  0  0  0
  4 21  1  0  0  0  0
  5  6  1  0  0  0  0
  5 25  1  1  0  0  0
  6 18  1  6  0  0  0
  7 24  1  1  0  0  0
  7 19  1  0  0  0  0
  8 12  1  0  0  0  0
  8 17  1  0  0  0  0
  9 26  1  1  0  0  0
  9 28  1  0  0  0  0
  9 15  1  0  0  0  0
 11 13  2  0  0  0  0
 12 13  1  6  0  0  0
 12  2  1  0  0  0  0
 14 23  1  1  0  0  0
 14 27  1  0  0  0  0
 15 18  1  0  0  0  0
 17 10  1  6  0  0  0
 17  7  1  0  0  0  0
 19 16  1  0  0  0  0
 20 10  1  6  0  0  0
 20 29  1  0  0  0  0
 20  1  1  0  0  0  0
 22 21  1  6  0  0  0
 22 13  1  0  0  0  0
 22 14  1  0  0  0  0
 23 28  1  0  0  0  0
 27  5  1  0  0  0  0
 28  6  1  0  0  0  0
 29 30  1  0  0  0  0
 29  1  1  0  0  0  0
 30 32  1  0  0  0  0
 31 30  2  0  0  0  0
M  END
>  <MODEL>
3

>  <REMARK>
 VINA RESULT:      -8.4      2.632      4.427
  Name = 
  1 active torsions:
  status: ('A' for Active; 'I' for Inactive)
    1  A    between atoms: C_29  and  C_30
                            x       y       z     vdW  Elec       q    Type
                         _______ _______ _______ _____ _____    ______ ____

>  <TORSDO>
F 1

$$$$
=
 OpenBabel11112416293D

 32 38  0  0  1  0  0  0  0  0999 V2000
  186.3430  178.2530  144.0010 C   0  0  2  0  0  3  0  0  0  0  0  0
  189.7540  174.4940  141.9540 C   0  0  1  0  0  3  0  0  0  0  0  0
  194.3850  175.7120  143.4630 C   0  0  0  0  0  2  0  0  0  0  0  0
  194.5310  174.2410  143.8330 C   0  0  0  0  0  2  0  0  0  0  0  0
  189.6840  172.7870  139.9640 C   0  0  2  0  0  3  0  0  0  0  0  0
  190.5300  172.0510  138.8980 C   0  0  2  0  0  3  0  0  0  0  0  0
  187.8230  175.9360  142.7070 C   0  0  1  0  0  3  0  0  0  0  0  0
  190.0500  176.0630  143.7310 O   0  0  0  0  0  0  0  0  0  0  0  0
  191.7250  170.2830  139.8980 C   0  0  1  0  0  3  0  0  0  0  0  0
  188.5040  177.6350  144.6430 C   0  0  0  0  0  2  0  0  0  0  0  0
  192.9430  176.0670  143.2180 C   0  0  0  0  0  3  0  0  0  0  0  0
  190.6290  175.6120  142.5330 C   0  0  1  0  0  3  0  0  0  0  0  0
  192.0480  175.1730  142.7670 C   0  0  0  0  0  0  0  0  0  0  0  0
  191.7050  173.0240  141.3970 C   0  0  2  0  0  3  0  0  0  0  0  0
  190.4420  169.7930  139.3970 N   0  0  0  0  0  2  0  0  0  0  0  0
  185.6270  177.2080  143.1810 C   0  0  0  0  0  2  0  0  0  0  0  0
  188.9270  176.8370  143.3820 C   0  0  2  0  0  3  0  0  0  0  0  0
  189.8760  170.7920  138.5730 N   0  0  0  0  0  2  0  0  0  0  0  0
  186.6240  176.7150  142.1250 C   0  0  0  0  0  2  0  0  0  0  0  0
  187.0620  177.3730  144.9980 C   0  0  1  0  0  3  0  0  0  0  0  0
  193.9090  173.3940  142.7320 C   0  0  0  0  0  2  0  0  0  0  0  0
  192.4120  173.7100  142.5920 C   0  0  1  0  0  3  0  0  0  0  0  0
  192.6330  172.6200  140.2630 C   0  0  0  0  0  2  0  0  0  0  0  0
  188.4380  175.1480  141.5480 C   0  0  0  0  0  2  0  0  0  0  0  0
  188.5470  173.4670  139.2170 C   0  0  0  0  0  1  0  0  0  0  0  0
  192.8380  169.3590  139.4450 C   0  0  0  0  0  1  0  0  0  0  0  0
  190.5100  173.7910  140.8030 C   0  0  2  0  0  3  0  0  0  0  0  0
  191.9270  171.6520  139.3170 C   0  0  2  0  0  3  0  0  0  0  0  0
  186.1650  178.4810  145.5000 C   0  0  2  0  0  3  0  0  0  0  0  0
  184.8620  177.9360  145.9920 C   0  0  0  0  0  0  0  0  0  0  0  0
  183.6920  178.6680  145.8360 O   0  0  0  0  0  0  0  0  0  0  0  0
  184.8160  176.7910  146.5130 O   0  0  0  0  0  1  0  0  0  0  0  0
  1 16  1  1  0  0  0
  1 20  1  0  0  0  0
  1 29  1  0  0  0  0
  2 24  1  6  0  0  0
  2 12  1  0  0  0  0
  3  4  1  0  0  0  0
  5 25  1  6  0  0  0
  5 27  1  0  0  0  0
  6 18  1  1  0  0  0
  6 28  1  0  0  0  0
  6  5  1  0  0  0  0
  7 24  1  6  0  0  0
  7 17  1  0  0  0  0
  9 26  1  6  0  0  0
 11  3  1  0  0  0  0
 12 13  1  1  0  0  0
 12  8  1  0  0  0  0
 13 11  2  0  0  0  0
 14 23  1  6  0  0  0
 14 22  1  0  0  0  0
 15  9  1  0  0  0  0
 17  8  1  0  0  0  0
 17 10  1  1  0  0  0
 18 15  1  0  0  0  0
 19  7  1  0  0  0  0
 19 16  1  0  0  0  0
 20 10  1  6  0  0  0
 20 29  1  0  0  0  0
 21  4  1  0  0  0  0
 22 21  1  6  0  0  0
 22 13  1  0  0  0  0
 27 14  1  0  0  0  0
 27  2  1  0  0  0  0
 28  9  1  0  0  0  0
 28 23  1  0  0  0  0
 29 30  1  0  0  0  0
 30 32  1  0  0  0  0
 31 30  2  0  0  0  0
M  END
>  <MODEL>
4

>  <REMARK>
 VINA RESULT:      -8.3      1.796      2.350
  Name = 
  1 active torsions:
  status: ('A' for Active; 'I' for Inactive)
    1  A    between atoms: C_29  and  C_30
                            x       y       z     vdW  Elec       q    Type
                         _______ _______ _______ _____ _____    ______ ____

>  <TORSDO>
F 1

$$$$
=
 OpenBabel11112416293D

 32 38  0  0  1  0  0  0  0  0999 V2000
  190.6610  172.5530  137.8980 C   0  0  2  0  0  3  0  0  0  0  0  0
  188.4680  175.2060  142.1550 C   0  0  1  0  0  3  0  0  0  0  0  0
  185.0850  178.4260  140.3140 C   0  0  0  0  0  2  0  0  0  0  0  0
  184.1560  177.9000  141.4010 C   0  0  0  0  0  2  0  0  0  0  0  0
  189.1880  175.6980  144.6270 C   0  0  2  0  0  3  0  0  0  0  0  0
  189.1030  176.7130  145.7920 C   0  0  2  0  0  3  0  0  0  0  0  0
  189.7130  173.7140  140.5420 C   0  0  1  0  0  3  0  0  0  0  0  0
  187.6990  174.9650  139.9050 O   0  0  0  0  0  0  0  0  0  0  0  0
  186.9840  176.5900  146.8160 C   0  0  1  0  0  3  0  0  0  0  0  0
  188.6520  173.7310  138.0980 C   0  0  0  0  0  2  0  0  0  0  0  0
  186.2770  177.5250  140.1380 C   0  0  0  0  0  3  0  0  0  0  0  0
  187.9820  175.9250  140.8900 C   0  0  1  0  0  3  0  0  0  0  0  0
  186.7770  176.7890  141.1440 C   0  0  0  0  0  0  0  0  0  0  0  0
  187.0660  176.6010  143.6930 C   0  0  2  0  0  3  0  0  0  0  0  0
  187.9180  175.6960  147.4990 N   0  0  0  0  0  2  0  0  0  0  0  0
  191.2430  172.1100  139.2190 C   0  0  0  0  0  2  0  0  0  0  0  0
  188.9340  174.4970  139.4160 C   0  0  2  0  0  3  0  0  0  0  0  0
  189.2240  175.9900  147.0490 N   0  0  0  0  0  2  0  0  0  0  0  0
  191.1560  173.3120  140.1670 C   0  0  0  0  0  2  0  0  0  0  0  0
  189.1900  172.3230  138.1580 C   0  0  1  0  0  3  0  0  0  0  0  0
  184.9520  177.7410  142.6900 C   0  0  0  0  0  2  0  0  0  0  0  0
  186.0910  176.7280  142.4960 C   0  0  1  0  0  3  0  0  0  0  0  0
  187.1100  177.8180  144.6030 C   0  0  0  0  0  2  0  0  0  0  0  0
  189.8130  174.5800  141.7990 C   0  0  0  0  0  2  0  0  0  0  0  0
  190.6660  175.4040  144.4200 C   0  0  0  0  0  1  0  0  0  0  0  0
  186.2430  177.4320  147.8350 C   0  0  0  0  0  1  0  0  0  0  0  0
  188.5090  176.2060  143.3340 C   0  0  2  0  0  3  0  0  0  0  0  0
  187.8020  177.4730  145.9190 C   0  0  2  0  0  3  0  0  0  0  0  0
  189.8380  171.6810  136.9530 C   0  0  2  0  0  3  0  0  0  0  0  0
  190.0840  170.2250  137.1890 C   0  0  0  0  0  0  0  0  0  0  0  0
  191.1580  169.5880  136.5780 O   0  0  0  0  0  0  0  0  0  0  0  0
  189.3420  169.5800  137.9740 O   0  0  0  0  0  1  0  0  0  0  0  0
  1 20  1  0  0  0  0
  1 16  1  1  0  0  0
  2 24  1  6  0  0  0
  2 27  1  0  0  0  0
  3  4  1  0  0  0  0
  4 21  1  0  0  0  0
  5 25  1  6  0  0  0
  5  6  1  0  0  0  0
  6 28  1  0  0  0  0
  6 18  1  1  0  0  0
  7 19  1  6  0  0  0
  7 24  1  0  0  0  0
  9 15  1  0  0  0  0
  9 26  1  1  0  0  0
 11  3  1  0  0  0  0
 11 13  2  0  0  0  0
 12  8  1  6  0  0  0
 12 13  1  0  0  0  0
 12  2  1  0  0  0  0
 13 22  1  0  0  0  0
 14 23  1  6  0  0  0
 16 19  1  0  0  0  0
 17 10  1  6  0  0  0
 17  8  1  0  0  0  0
 17  7  1  0  0  0  0
 18 15  1  0  0  0  0
 20 10  1  6  0  0  0
 22 21  1  1  0  0  0
 22 14  1  0  0  0  0
 23 28  1  0  0  0  0
 27 14  1  0  0  0  0
 27  5  1  0  0  0  0
 28  9  1  0  0  0  0
 29 30  1  0  0  0  0
 29  1  1  0  0  0  0
 29 20  1  0  0  0  0
 30 32  1  0  0  0  0
 31 30  2  0  0  0  0
M  END
>  <MODEL>
5

>  <REMARK>
 VINA RESULT:      -8.1      4.183      8.619
  Name = 
  1 active torsions:
  status: ('A' for Active; 'I' for Inactive)
    1  A    between atoms: C_29  and  C_30
                            x       y       z     vdW  Elec       q    Type
                         _______ _______ _______ _____ _____    ______ ____

>  <TORSDO>
F 1

$$$$
=
 OpenBabel11112416293D

 32 38  0  0  1  0  0  0  0  0999 V2000
  191.5420  172.1830  140.1580 C   0  0  2  0  0  3  0  0  0  0  0  0
  188.2340  175.4530  143.0450 C   0  0  1  0  0  3  0  0  0  0  0  0
  185.6960  178.2730  139.7570 C   0  0  0  0  0  2  0  0  0  0  0  0
  184.4590  177.9140  140.5730 C   0  0  0  0  0  2  0  0  0  0  0  0
  188.1730  176.3510  145.5070 C   0  0  2  0  0  3  0  0  0  0  0  0
  187.7670  177.5400  146.4100 C   0  0  2  0  0  3  0  0  0  0  0  0
  189.8640  173.7410  142.1570 C   0  0  1  0  0  3  0  0  0  0  0  0
  188.1900  174.8370  140.7360 O   0  0  0  0  0  0  0  0  0  0  0  0
  185.4320  177.5480  146.7330 C   0  0  1  0  0  3  0  0  0  0  0  0
  189.6110  173.3430  139.5350 C   0  0  0  0  0  2  0  0  0  0  0  0
  186.8530  177.3760  140.1050 C   0  0  0  0  0  3  0  0  0  0  0  0
  188.1870  175.9490  141.5940 C   0  0  1  0  0  3  0  0  0  0  0  0
  186.9930  176.8210  141.3210 C   0  0  0  0  0  0  0  0  0  0  0  0
  186.4740  177.0540  143.8290 C   0  0  2  0  0  3  0  0  0  0  0  0
  186.0780  176.7930  147.8050 N   0  0  0  0  0  2  0  0  0  0  0  0
  191.6730  171.9700  141.6470 C   0  0  0  0  0  2  0  0  0  0  0  0
  189.4980  174.3180  140.7360 C   0  0  2  0  0  3  0  0  0  0  0  0
  187.4690  177.0330  147.7420 N   0  0  0  0  0  2  0  0  0  0  0  0
  191.3380  173.3090  142.3170 C   0  0  0  0  0  2  0  0  0  0  0  0
  190.0560  171.9730  139.9820 C   0  0  1  0  0  3  0  0  0  0  0  0
  184.8130  177.9790  142.0520 C   0  0  0  0  0  2  0  0  0  0  0  0
  185.9210  176.9690  142.3850 C   0  0  1  0  0  3  0  0  0  0  0  0
  186.2770  178.4020  144.5020 C   0  0  0  0  0  2  0  0  0  0  0  0
  189.6010  174.8010  143.2280 C   0  0  0  0  0  2  0  0  0  0  0  0
  189.6310  176.0530  145.8180 C   0  0  0  0  0  1  0  0  0  0  0  0
  184.4410  178.5310  147.3240 C   0  0  0  0  0  1  0  0  0  0  0  0
  187.9430  176.6310  144.0030 C   0  0  2  0  0  3  0  0  0  0  0  0
  186.5160  178.2880  146.0060 C   0  0  2  0  0  3  0  0  0  0  0  0
  191.0220  171.1560  139.1560 C   0  0  2  0  0  3  0  0  0  0  0  0
  191.1340  169.7610  139.6850 C   0  0  0  0  0  0  0  0  0  0  0  0
  192.3660  169.1200  139.7170 O   0  0  0  0  0  0  0  0  0  0  0  0
  190.1170  169.1780  140.1430 O   0  0  0  0  0  1  0  0  0  0  0  0
  1 16  1  1  0  0  0
  2 24  1  1  0  0  0
  2 27  1  0  0  0  0
  3 11  1  0  0  0  0
  3  4  1  0  0  0  0
  4 21  1  0  0  0  0
  5 25  1  6  0  0  0
  5  6  1  0  0  0  0
  6 18  1  1  0  0  0
  7 19  1  6  0  0  0
  7 24  1  0  0  0  0
  9 26  1  1  0  0  0
  9 15  1  0  0  0  0
 11 13  2  0  0  0  0
 12  8  1  6  0  0  0
 12  2  1  0  0  0  0
 13 12  1  0  0  0  0
 13 22  1  0  0  0  0
 14 27  1  0  0  0  0
 14 23  1  6  0  0  0
 16 19  1  0  0  0  0
 17 10  1  6  0  0  0
 17  8  1  0  0  0  0
 17  7  1  0  0  0  0
 18 15  1  0  0  0  0
 20 10  1  6  0  0  0
 20  1  1  0  0  0  0
 22 21  1  6  0  0  0
 22 14  1  0  0  0  0
 23 28  1  0  0  0  0
 27  5  1  0  0  0  0
 28  6  1  0  0  0  0
 28  9  1  0  0  0  0
 29 30  1  0  0  0  0
 29 20  1  0  0  0  0
 29  1  1  0  0  0  0
 30 31  2  0  0  0  0
 30 32  1  0  0  0  0
M  END
>  <MODEL>
6

>  <REMARK>
 VINA RESULT:      -7.9      4.026      8.820
  Name = 
  1 active torsions:
  status: ('A' for Active; 'I' for Inactive)
    1  A    between atoms: C_29  and  C_30
                            x       y       z     vdW  Elec       q    Type
                         _______ _______ _______ _____ _____    ______ ____

>  <TORSDO>
F 1

$$$$
=
 OpenBabel11112416293D

 32 38  0  0  1  0  0  0  0  0999 V2000
  187.3180  177.8360  145.1610 C   0  0  2  0  0  3  0  0  0  0  0  0
  190.0060  173.7320  142.7330 C   0  0  1  0  0  3  0  0  0  0  0  0
  194.1900  172.9220  145.3870 C   0  0  0  0  0  2  0  0  0  0  0  0
  193.8230  171.4450  145.3070 C   0  0  0  0  0  2  0  0  0  0  0  0
  190.0270  172.6640  140.3380 C   0  0  2  0  0  3  0  0  0  0  0  0
  190.9010  171.9550  139.2770 C   0  0  2  0  0  3  0  0  0  0  0  0
  188.4110  175.5250  143.5170 C   0  0  1  0  0  3  0  0  0  0  0  0
  190.2160  174.6470  144.9310 O   0  0  0  0  0  0  0  0  0  0  0  0
  191.2460  169.7050  139.8880 C   0  0  1  0  0  3  0  0  0  0  0  0
  188.9650  176.3910  145.9750 C   0  0  0  0  0  2  0  0  0  0  0  0
  193.0260  173.7910  144.9980 C   0  0  0  0  0  3  0  0  0  0  0  0
  190.9570  174.3200  143.7830 C   0  0  1  0  0  3  0  0  0  0  0  0
  192.0810  173.3840  144.1330 C   0  0  0  0  0  0  0  0  0  0  0  0
  191.5590  171.8610  142.1280 C   0  0  2  0  0  3  0  0  0  0  0  0
  190.0680  169.8100  139.0280 N   0  0  0  0  0  2  0  0  0  0  0  0
  186.6010  177.3170  143.9380 C   0  0  0  0  0  2  0  0  0  0  0  0
  189.4870  175.8150  144.6330 C   0  0  2  0  0  3  0  0  0  0  0  0
  190.0460  171.1050  138.4620 N   0  0  0  0  0  2  0  0  0  0  0  0
  187.6770  176.7760  142.9890 C   0  0  0  0  0  2  0  0  0  0  0  0
  187.4670  176.5580  145.9530 C   0  0  1  0  0  3  0  0  0  0  0  0
  193.3230  171.1410  143.9010 C   0  0  0  0  0  2  0  0  0  0  0  0
  192.0670  171.9690  143.5870 C   0  0  1  0  0  3  0  0  0  0  0  0
  192.6180  171.4440  141.1200 C   0  0  0  0  0  2  0  0  0  0  0  0
  189.0830  174.8690  142.3090 C   0  0  0  0  0  2  0  0  0  0  0  0
  189.3700  173.8430  139.6380 C   0  0  0  0  0  1  0  0  0  0  0  0
  192.1460  168.5920  139.3900 C   0  0  0  0  0  1  0  0  0  0  0  0
  190.8300  173.1030  141.5860 C   0  0  2  0  0  3  0  0  0  0  0  0
  191.9650  171.0200  139.8060 C   0  0  2  0  0  3  0  0  0  0  0  0
  186.8030  177.7540  146.5950 C   0  0  2  0  0  3  0  0  0  0  0  0
  185.3180  177.5840  146.6400 C   0  0  0  0  0  0  0  0  0  0  0  0
  184.4880  178.6930  146.7480 O   0  0  0  0  0  1  0  0  0  0  0  0
  184.8130  176.4350  146.5390 O   0  0  0  0  0  0  0  0  0  0  0  0
  1 16  1  6  0  0  0
  1 20  1  0  0  0  0
  1 29  1  0  0  0  0
  2 24  1  6  0  0  0
  2 12  1  0  0  0  0
  4  3  1  0  0  0  0
  5 25  1  6  0  0  0
  5 27  1  0  0  0  0
  6 18  1  6  0  0  0
  6 28  1  0  0  0  0
  6  5  1  0  0  0  0
  7 24  1  6  0  0  0
  7 17  1  0  0  0  0
  9 26  1  6  0  0  0
 11  3  1  0  0  0  0
 12 13  1  1  0  0  0
 12  8  1  0  0  0  0
 13 11  2  0  0  0  0
 14 23  1  6  0  0  0
 14 22  1  0  0  0  0
 15  9  1  0  0  0  0
 17  8  1  0  0  0  0
 17 10  1  1  0  0  0
 18 15  1  0  0  0  0
 19  7  1  0  0  0  0
 19 16  1  0  0  0  0
 20 10  1  1  0  0  0
 20 29  1  0  0  0  0
 21  4  1  0  0  0  0
 22 21  1  6  0  0  0
 22 13  1  0  0  0  0
 27 14  1  0  0  0  0
 27  2  1  0  0  0  0
 28  9  1  0  0  0  0
 28 23  1  0  0  0  0
 29 30  1  0  0  0  0
 30 31  1  0  0  0  0
 32 30  2  0  0  0  0
M  END
>  <MODEL>
7

>  <REMARK>
 VINA RESULT:      -7.6      1.701      2.543
  Name = 
  1 active torsions:
  status: ('A' for Active; 'I' for Inactive)
    1  A    between atoms: C_29  and  C_30
                            x       y       z     vdW  Elec       q    Type
                         _______ _______ _______ _____ _____    ______ ____

>  <TORSDO>
F 1

$$$$
=
 OpenBabel11112416293D

 32 38  0  0  1  0  0  0  0  0999 V2000
  190.7870  172.9220  138.9730 C   0  0  2  0  0  3  0  0  0  0  0  0
  188.9680  175.7250  143.3090 C   0  0  1  0  0  3  0  0  0  0  0  0
  192.1670  174.8670  147.0810 C   0  0  0  0  0  2  0  0  0  0  0  0
  192.1320  176.3730  147.3070 C   0  0  0  0  0  2  0  0  0  0  0  0
  186.6630  176.7260  144.0590 C   0  0  2  0  0  3  0  0  0  0  0  0
  185.7640  177.0610  145.2720 C   0  0  2  0  0  3  0  0  0  0  0  0
  189.4360  174.6620  141.0660 C   0  0  1  0  0  3  0  0  0  0  0  0
  191.1140  174.7790  142.8540 O   0  0  0  0  0  0  0  0  0  0  0  0
  186.5490  179.0070  146.3450 C   0  0  1  0  0  3  0  0  0  0  0  0
  191.8870  173.6290  140.9110 C   0  0  0  0  0  2  0  0  0  0  0  0
  191.5840  174.5070  145.7420 C   0  0  0  0  0  3  0  0  0  0  0  0
  190.0910  174.8110  143.8150 C   0  0  1  0  0  3  0  0  0  0  0  0
  190.6340  175.2490  145.1470 C   0  0  0  0  0  0  0  0  0  0  0  0
  188.6750  176.8740  145.5160 C   0  0  2  0  0  3  0  0  0  0  0  0
  185.5440  179.3640  145.3450 N   0  0  0  0  0  2  0  0  0  0  0  0
  189.5180  173.6850  138.6780 C   0  0  0  0  0  2  0  0  0  0  0  0
  190.6580  173.9770  141.7910 C   0  0  2  0  0  3  0  0  0  0  0  0
  184.9020  178.1790  144.9180 N   0  0  0  0  0  2  0  0  0  0  0  0
  188.7460  173.7860  139.9990 C   0  0  0  0  0  2  0  0  0  0  0  0
  191.6680  174.0420  139.4770 C   0  0  1  0  0  3  0  0  0  0  0  0
  190.6960  176.8570  147.1570 C   0  0  0  0  0  2  0  0  0  0  0  0
  190.1770  176.5690  145.7400 C   0  0  1  0  0  3  0  0  0  0  0  0
  187.8350  176.8680  146.7820 C   0  0  0  0  0  2  0  0  0  0  0  0
  188.3640  175.0260  142.0950 C   0  0  0  0  0  2  0  0  0  0  0  0
  185.8160  175.8910  143.1120 C   0  0  0  0  0  1  0  0  0  0  0  0
  186.2360  179.7010  147.6560 C   0  0  0  0  0  1  0  0  0  0  0  0
  187.9720  176.0050  144.4580 C   0  0  2  0  0  3  0  0  0  0  0  0
  186.4780  177.5190  146.5240 C   0  0  2  0  0  3  0  0  0  0  0  0
  192.1480  173.1800  138.3320 C   0  0  2  0  0  3  0  0  0  0  0  0
  192.0180  173.9000  137.0280 C   0  0  0  0  0  0  0  0  0  0  0  0
  192.3150  175.2550  136.9420 O   0  0  0  0  0  1  0  0  0  0  0  0
  191.6770  173.2700  135.9930 O   0  0  0  0  0  0  0  0  0  0  0  0
  1 16  1  6  0  0  0
  1 20  1  0  0  0  0
  2 24  1  6  0  0  0
  2 12  1  0  0  0  0
  2 27  1  0  0  0  0
  3  4  1  0  0  0  0
  5 25  1  6  0  0  0
  5 27  1  0  0  0  0
  5  6  1  0  0  0  0
  6 18  1  6  0  0  0
  6 28  1  0  0  0  0
  7 19  1  6  0  0  0
  7 17  1  0  0  0  0
  7 24  1  0  0  0  0
  9 28  1  0  0  0  0
  9 26  1  1  0  0  0
 11  3  1  0  0  0  0
 12  8  1  6  0  0  0
 12 13  1  0  0  0  0
 13 22  1  0  0  0  0
 13 11  2  0  0  0  0
 14 22  1  0  0  0  0
 14 23  1  1  0  0  0
 15  9  1  0  0  0  0
 16 19  1  0  0  0  0
 17 10  1  6  0  0  0
 17  8  1  0  0  0  0
 18 15  1  0  0  0  0
 20 10  1  1  0  0  0
 21  4  1  0  0  0  0
 22 21  1  1  0  0  0
 27 14  1  0  0  0  0
 28 23  1  0  0  0  0
 29  1  1  0  0  0  0
 29 20  1  0  0  0  0
 30 29  1  0  0  0  0
 31 30  1  0  0  0  0
 32 30  2  0  0  0  0
M  END
>  <MODEL>
8

>  <REMARK>
 VINA RESULT:      -7.4      4.201      7.816
  Name = 
  1 active torsions:
  status: ('A' for Active; 'I' for Inactive)
    1  A    between atoms: C_29  and  C_30
                            x       y       z     vdW  Elec       q    Type
                         _______ _______ _______ _____ _____    ______ ____

>  <TORSDO>
F 1

$$$$
=
 OpenBabel11112416293D

 32 38  0  0  1  0  0  0  0  0999 V2000
  190.6840  171.7560  137.6270 C   0  0  2  0  0  3  0  0  0  0  0  0
  190.5020  174.5660  142.3210 C   0  0  1  0  0  3  0  0  0  0  0  0
  186.0780  176.9340  142.4630 C   0  0  0  0  0  2  0  0  0  0  0  0
  185.9710  176.4160  143.8920 C   0  0  0  0  0  2  0  0  0  0  0  0
  192.2720  175.4890  144.0200 C   0  0  2  0  0  3  0  0  0  0  0  0
  192.5920  176.6230  145.0230 C   0  0  2  0  0  3  0  0  0  0  0  0
  191.0150  173.0910  140.3370 C   0  0  1  0  0  3  0  0  0  0  0  0
  188.7540  173.9100  140.8290 O   0  0  0  0  0  0  0  0  0  0  0  0
  191.3790  176.3010  147.0180 C   0  0  1  0  0  3  0  0  0  0  0  0
  188.8720  172.6150  138.8280 C   0  0  0  0  0  2  0  0  0  0  0  0
  187.1640  176.2190  141.7070 C   0  0  0  0  0  3  0  0  0  0  0  0
  189.2990  175.0250  141.4860 C   0  0  1  0  0  3  0  0  0  0  0  0
  188.2500  175.7110  142.3160 C   0  0  0  0  0  0  0  0  0  0  0  0
  189.8390  175.9110  144.3280 C   0  0  2  0  0  3  0  0  0  0  0  0
  192.6910  175.6660  147.1280 N   0  0  0  0  0  2  0  0  0  0  0  0
  191.9390  171.5900  138.4500 C   0  0  0  0  0  2  0  0  0  0  0  0
  189.6280  173.5840  139.7730 C   0  0  2  0  0  3  0  0  0  0  0  0
  193.4880  176.1020  146.0450 N   0  0  0  0  0  2  0  0  0  0  0  0
  192.1060  172.8780  139.2650 C   0  0  0  0  0  2  0  0  0  0  0  0
  189.6390  171.3310  138.6330 C   0  0  1  0  0  3  0  0  0  0  0  0
  187.3290  176.5570  144.5660 C   0  0  0  0  0  2  0  0  0  0  0  0
  188.3860  175.7220  143.8270 C   0  0  1  0  0  3  0  0  0  0  0  0
  190.0940  177.2290  145.0410 C   0  0  0  0  0  2  0  0  0  0  0  0
  191.5670  174.1210  141.3240 C   0  0  0  0  0  2  0  0  0  0  0  0
  193.4560  175.4090  143.0690 C   0  0  0  0  0  1  0  0  0  0  0  0
  191.1130  177.1420  148.2510 C   0  0  0  0  0  1  0  0  0  0  0  0
  190.9370  175.7070  143.2690 C   0  0  2  0  0  3  0  0  0  0  0  0
  191.4180  177.1760  145.7990 C   0  0  2  0  0  3  0  0  0  0  0  0
  189.6910  170.6470  137.2870 C   0  0  2  0  0  3  0  0  0  0  0  0
  190.3160  169.2920  137.3980 C   0  0  0  0  0  0  0  0  0  0  0  0
  191.1760  168.8340  136.4070 O   0  0  0  0  0  0  0  0  0  0  0  0
  190.0970  168.5790  138.4110 O   0  0  0  0  0  1  0  0  0  0  0  0
  1 16  1  1  0  0  0
  1 20  1  0  0  0  0
  2 24  1  6  0  0  0
  2 27  1  0  0  0  0
  3  4  1  0  0  0  0
  4 21  1  0  0  0  0
  5 25  1  6  0  0  0
  5  6  1  0  0  0  0
  6 28  1  0  0  0  0
  6 18  1  1  0  0  0
  7 19  1  6  0  0  0
  7 24  1  0  0  0  0
  9 15  1  0  0  0  0
  9 26  1  1  0  0  0
 11 13  2  0  0  0  0
 11  3  1  0  0  0  0
 12  8  1  1  0  0  0
 12 13  1  0  0  0  0
 12  2  1  0  0  0  0
 13 22  1  0  0  0  0
 14 23  1  6  0  0  0
 16 19  1  0  0  0  0
 17 10  1  1  0  0  0
 17  7  1  0  0  0  0
 17  8  1  0  0  0  0
 18 15  1  0  0  0  0
 20 10  1  6  0  0  0
 22 14  1  0  0  0  0
 22 21  1  1  0  0  0
 23 28  1  0  0  0  0
 27  5  1  0  0  0  0
 27 14  1  0  0  0  0
 28  9  1  0  0  0  0
 29 30  1  0  0  0  0
 29  1  1  0  0  0  0
 29 20  1  0  0  0  0
 30 32  1  0  0  0  0
 31 30  2  0  0  0  0
M  END
>  <MODEL>
9

>  <REMARK>
 VINA RESULT:      -7.4      4.059      7.925
  Name = 
  1 active torsions:
  status: ('A' for Active; 'I' for Inactive)
    1  A    between atoms: C_29  and  C_30
                            x       y       z     vdW  Elec       q    Type
                         _______ _______ _______ _____ _____    ______ ____

>  <TORSDO>
F 1

$$$$
