=
 OpenBabel11112416473D

 31 35  0  0  1  0  0  0  0  0999 V2000
  184.8500  178.0720  146.0660 C   0  0  0  0  0  0  0  0  0  0  0  0
  187.4500  176.4010  143.9120 C   0  0  0  0  0  0  0  0  0  0  0  0
  187.0960  176.6680  142.5520 C   0  0  0  0  0  0  0  0  0  0  0  0
  185.6650  177.6800  140.8490 C   0  0  0  0  0  0  0  0  0  0  0  0
  186.7160  176.8670  145.0450 C   0  0  0  0  0  0  0  0  0  0  0  0
  185.3200  177.7470  147.3370 C   0  0  0  0  0  3  0  0  0  0  0  0
  185.9770  177.4380  142.1880 C   0  0  0  0  0  3  0  0  0  0  0  0
  189.0280  175.3500  145.4700 C   0  0  0  0  0  0  0  0  0  0  0  0
  183.3950  179.0260  145.8850 Cl  0  0  0  0  0  0  0  0  0  0  0  0
  188.9950  175.3940  141.7990 N   0  0  0  0  0  0  0  0  0  0  0  0
  184.2630  178.6430  140.4390 Cl  0  0  0  0  0  0  0  0  0  0  0  0
  188.3030  175.8150  146.5150 N   0  0  0  0  0  0  0  0  0  0  0  0
  188.6160  175.6210  144.1520 C   0  0  0  0  0  0  0  0  0  0  0  0
  185.5420  177.6350  144.9340 C   0  0  0  0  0  3  0  0  0  0  0  0
  186.4700  177.1540  139.8390 C   0  0  0  0  0  3  0  0  0  0  0  0
  187.1760  176.5460  146.3460 C   0  0  0  0  0  0  0  0  0  0  0  0
  186.4800  176.9870  147.4760 C   0  0  0  0  0  3  0  0  0  0  0  0
  189.3590  175.1290  143.0740 C   0  0  0  0  0  3  0  0  0  0  0  0
  187.9040  176.1420  141.5100 C   0  0  0  0  0  0  0  0  0  0  0  0
  187.5860  176.3870  140.1710 C   0  0  0  0  0  3  0  0  0  0  0  0
  190.2990  174.6070  145.7580 C   0  0  0  0  0  2  0  0  0  0  0  0
  191.7530  175.4960  147.5910 C   0  0  0  0  0  1  0  0  0  0  0  0
  191.4200  175.5800  146.1120 C   0  0  1  0  0  3  0  0  0  0  0  0
  195.2710  175.5210  144.3930 C   0  0  0  0  0  0  0  0  0  0  0  0
  193.5260  174.2830  145.6680 C   0  0  0  0  0  2  0  0  0  0  0  0
  192.1720  176.9990  143.6730 O   0  0  0  0  0  0  0  0  0  0  0  0
  196.6670  175.5240  143.8860 C   0  0  0  0  0  1  0  0  0  0  0  0
  194.9590  174.8120  145.6840 C   0  0  0  0  0  2  0  0  0  0  0  0
  192.9980  176.2160  144.2080 C   0  0  0  0  0  0  0  0  0  0  0  0
  192.6080  175.3520  145.2910 N   0  0  0  0  0  0  0  0  0  0  0  0
  194.3560  176.1920  143.7550 N   0  0  0  0  0  0  0  0  0  0  0  0
  1  6  1  0  0  0  0
  2 13  2  0  0  0  0
  2  5  1  0  0  0  0
  3  2  1  0  0  0  0
  4  7  1  0  0  0  0
  5 16  2  0  0  0  0
  6 17  2  0  0  0  0
  7  3  2  0  0  0  0
  8 21  1  0  0  0  0
  8 12  2  0  0  0  0
  9  1  1  0  0  0  0
 10 18  2  0  0  0  0
 11  4  1  0  0  0  0
 13  8  1  0  0  0  0
 14  5  1  0  0  0  0
 14  1  2  0  0  0  0
 15 20  1  0  0  0  0
 15  4  2  0  0  0  0
 16 12  1  0  0  0  0
 16 17  1  0  0  0  0
 18 13  1  0  0  0  0
 19 10  1  0  0  0  0
 19  3  1  0  0  0  0
 20 19  2  0  0  0  0
 21 23  1  0  0  0  0
 23 22  1  1  0  0  0
 24 28  1  0  0  0  0
 25 28  1  0  0  0  0
 26 29  2  0  0  0  0
 27 24  1  0  0  0  0
 29 30  1  0  0  0  0
 30 25  1  0  0  0  0
 30 23  1  0  0  0  0
 31 29  1  0  0  0  0
 31 24  2  0  0  0  0
M  END
>  <MODEL>
1

>  <REMARK>
 VINA RESULT:      -8.8      0.000      0.000
  Name = 
  3 active torsions:
  status: ('A' for Active; 'I' for Inactive)
    1  A    between atoms: C_5  and  C_16
    2  A    between atoms: C_5  and  N_30
    3  A    between atoms: C_10  and  C_16
                            x       y       z     vdW  Elec       q    Type
                         _______ _______ _______ _____ _____    ______ ____

>  <TORSDO>
F 3

$$$$
=
 OpenBabel11112416473D

 31 35  0  0  1  0  0  0  0  0999 V2000
  188.2180  174.9170  140.4600 C   0  0  0  0  0  0  0  0  0  0  0  0
  187.4960  176.4000  143.8470 C   0  0  0  0  0  0  0  0  0  0  0  0
  186.3080  177.1860  143.7110 C   0  0  0  0  0  0  0  0  0  0  0  0
  184.4430  178.0770  142.4070 C   0  0  0  0  0  0  0  0  0  0  0  0
  188.1040  175.6640  142.7850 C   0  0  0  0  0  0  0  0  0  0  0  0
  189.3690  174.1820  140.7400 C   0  0  0  0  0  3  0  0  0  0  0  0
  185.6020  177.3040  142.5010 C   0  0  0  0  0  3  0  0  0  0  0  0
  189.2660  175.5690  145.3270 C   0  0  0  0  0  0  0  0  0  0  0  0
  187.5520  174.9240  138.8420 Cl  0  0  0  0  0  0  0  0  0  0  0  0
  186.4400  177.8030  146.0330 N   0  0  0  0  0  0  0  0  0  0  0  0
  183.5940  178.1980  140.8830 Cl  0  0  0  0  0  0  0  0  0  0  0  0
  189.8080  174.8830  144.2920 N   0  0  0  0  0  0  0  0  0  0  0  0
  188.1120  176.3470  145.1280 C   0  0  0  0  0  0  0  0  0  0  0  0
  187.5950  175.6490  141.4730 C   0  0  0  0  0  3  0  0  0  0  0  0
  183.9630  178.7530  143.5290 C   0  0  0  0  0  3  0  0  0  0  0  0
  189.2760  174.9120  143.0480 C   0  0  0  0  0  0  0  0  0  0  0  0
  189.8950  174.1790  142.0300 C   0  0  0  0  0  3  0  0  0  0  0  0
  187.5620  177.0650  146.1960 C   0  0  0  0  0  3  0  0  0  0  0  0
  185.8040  177.8800  144.8420 C   0  0  0  0  0  0  0  0  0  0  0  0
  184.6430  178.6540  144.7420 C   0  0  0  0  0  3  0  0  0  0  0  0
  189.8890  175.4210  146.6850 C   0  0  0  0  0  2  0  0  0  0  0  0
  191.5160  176.4420  148.2890 C   0  0  0  0  0  1  0  0  0  0  0  0
  191.0680  176.3770  146.8410 C   0  0  1  0  0  3  0  0  0  0  0  0
  194.7870  175.8800  144.9150 C   0  0  0  0  0  0  0  0  0  0  0  0
  192.9980  174.8580  146.3150 C   0  0  0  0  0  2  0  0  0  0  0  0
  191.8220  177.6610  144.3280 O   0  0  0  0  0  0  0  0  0  0  0  0
  196.1450  175.7260  144.3320 C   0  0  0  0  0  1  0  0  0  0  0  0
  194.4770  175.2330  146.2390 C   0  0  0  0  0  2  0  0  0  0  0  0
  192.5920  176.8060  144.8370 C   0  0  0  0  0  0  0  0  0  0  0  0
  192.1770  176.0100  145.9620 N   0  0  0  0  0  0  0  0  0  0  0  0
  193.9120  176.6300  144.3110 N   0  0  0  0  0  0  0  0  0  0  0  0
  1  6  2  0  0  0  0
  1 14  1  0  0  0  0
  2 13  1  0  0  0  0
  3  2  2  0  0  0  0
  3 19  1  0  0  0  0
  4  7  2  0  0  0  0
  4 15  1  0  0  0  0
  5 16  1  0  0  0  0
  5  2  1  0  0  0  0
  6 17  1  0  0  0  0
  7  3  1  0  0  0  0
  8 21  1  0  0  0  0
  9  1  1  0  0  0  0
 10 18  1  0  0  0  0
 11  4  1  0  0  0  0
 12  8  2  0  0  0  0
 13  8  1  0  0  0  0
 13 18  2  0  0  0  0
 14  5  2  0  0  0  0
 15 20  2  0  0  0  0
 16 12  1  0  0  0  0
 17 16  2  0  0  0  0
 19 10  2  0  0  0  0
 20 19  1  0  0  0  0
 21 23  1  0  0  0  0
 23 22  1  1  0  0  0
 24 28  1  0  0  0  0
 26 29  2  0  0  0  0
 27 24  1  0  0  0  0
 28 25  1  0  0  0  0
 29 30  1  0  0  0  0
 30 25  1  0  0  0  0
 30 23  1  0  0  0  0
 31 29  1  0  0  0  0
 31 24  2  0  0  0  0
M  END
>  <MODEL>
2

>  <REMARK>
 VINA RESULT:      -8.3      1.631      3.835
  Name = 
  3 active torsions:
  status: ('A' for Active; 'I' for Inactive)
    1  A    between atoms: C_5  and  C_16
    2  A    between atoms: C_5  and  N_30
    3  A    between atoms: C_10  and  C_16
                            x       y       z     vdW  Elec       q    Type
                         _______ _______ _______ _____ _____    ______ ____

>  <TORSDO>
F 3

$$$$
=
 OpenBabel11112416473D

 31 35  0  0  1  0  0  0  0  0999 V2000
  186.0810  177.8950  141.9320 C   0  0  0  0  0  0  0  0  0  0  0  0
  188.5840  175.2720  142.9560 C   0  0  0  0  0  0  0  0  0  0  0  0
  188.8690  174.4930  141.7910 C   0  0  0  0  0  0  0  0  0  0  0  0
  188.5920  173.9690  139.4200 C   0  0  0  0  0  0  0  0  0  0  0  0
  187.6800  176.3770  142.9890 C   0  0  0  0  0  0  0  0  0  0  0  0
  185.9100  178.5740  143.1380 C   0  0  0  0  0  3  0  0  0  0  0  0
  188.2870  174.7490  140.5370 C   0  0  0  0  0  3  0  0  0  0  0  0
  189.0280  175.6710  145.3360 C   0  0  0  0  0  0  0  0  0  0  0  0
  185.2000  178.4000  140.5080 Cl  0  0  0  0  0  0  0  0  0  0  0  0
  190.3750  173.1170  143.0690 N   0  0  0  0  0  0  0  0  0  0  0  0
  187.8460  174.3210  137.8780 Cl  0  0  0  0  0  0  0  0  0  0  0  0
  188.1650  176.7150  145.3210 N   0  0  0  0  0  0  0  0  0  0  0  0
  189.2490  174.9240  144.1650 C   0  0  0  0  0  0  0  0  0  0  0  0
  186.9570  176.8090  141.8620 C   0  0  0  0  0  3  0  0  0  0  0  0
  189.4920  172.9090  139.5350 C   0  0  0  0  0  3  0  0  0  0  0  0
  187.4910  177.0800  144.2050 C   0  0  0  0  0  0  0  0  0  0  0  0
  186.6140  178.1670  144.2700 C   0  0  0  0  0  3  0  0  0  0  0  0
  190.1310  173.8380  144.1870 C   0  0  0  0  0  3  0  0  0  0  0  0
  189.7830  173.4110  141.8880 C   0  0  0  0  0  0  0  0  0  0  0  0
  190.0840  172.6320  140.7660 C   0  0  0  0  0  3  0  0  0  0  0  0
  189.7790  175.3850  146.6040 C   0  0  0  0  0  2  0  0  0  0  0  0
  191.3440  176.4480  148.2420 C   0  0  0  0  0  1  0  0  0  0  0  0
  190.9210  176.3820  146.7870 C   0  0  1  0  0  3  0  0  0  0  0  0
  194.6700  176.0840  144.8790 C   0  0  0  0  0  0  0  0  0  0  0  0
  192.9590  174.9900  146.3210 C   0  0  0  0  0  2  0  0  0  0  0  0
  191.5830  177.6160  144.2230 O   0  0  0  0  0  0  0  0  0  0  0  0
  196.0370  176.0080  144.3010 C   0  0  0  0  0  1  0  0  0  0  0  0
  194.4060  175.4700  146.2280 C   0  0  0  0  0  2  0  0  0  0  0  0
  192.4130  176.8410  144.7660 C   0  0  0  0  0  0  0  0  0  0  0  0
  192.0560  176.0630  145.9220 N   0  0  0  0  0  0  0  0  0  0  0  0
  193.7430  176.7430  144.2460 N   0  0  0  0  0  0  0  0  0  0  0  0
  1  6  1  0  0  0  0
  2  5  2  0  0  0  0
  2 13  1  0  0  0  0
  3 19  1  0  0  0  0
  3  2  1  0  0  0  0
  4 15  2  0  0  0  0
  4  7  1  0  0  0  0
  5 16  1  0  0  0  0
  6 17  2  0  0  0  0
  7  3  2  0  0  0  0
  8 21  1  0  0  0  0
  9  1  1  0  0  0  0
 10 18  2  0  0  0  0
 11  4  1  0  0  0  0
 12  8  1  0  0  0  0
 13 18  1  0  0  0  0
 13  8  2  0  0  0  0
 14  1  2  0  0  0  0
 14  5  1  0  0  0  0
 15 20  1  0  0  0  0
 16 17  1  0  0  0  0
 16 12  2  0  0  0  0
 19 10  1  0  0  0  0
 20 19  2  0  0  0  0
 21 23  1  0  0  0  0
 23 22  1  1  0  0  0
 24 28  1  0  0  0  0
 26 29  2  0  0  0  0
 27 24  1  0  0  0  0
 28 25  1  0  0  0  0
 29 30  1  0  0  0  0
 30 25  1  0  0  0  0
 30 23  1  0  0  0  0
 31 29  1  0  0  0  0
 31 24  2  0  0  0  0
M  END
>  <MODEL>
3

>  <REMARK>
 VINA RESULT:      -8.3      1.958      3.010
  Name = 
  3 active torsions:
  status: ('A' for Active; 'I' for Inactive)
    1  A    between atoms: C_5  and  C_16
    2  A    between atoms: C_5  and  N_30
    3  A    between atoms: C_10  and  C_16
                            x       y       z     vdW  Elec       q    Type
                         _______ _______ _______ _____ _____    ______ ____

>  <TORSDO>
F 3

$$$$
=
 OpenBabel11112416473D

 31 35  0  0  1  0  0  0  0  0999 V2000
  187.0550  176.5390  140.8080 C   0  0  0  0  0  0  0  0  0  0  0  0
  187.2150  176.5910  144.5710 C   0  0  0  0  0  0  0  0  0  0  0  0
  186.0940  177.3560  145.0230 C   0  0  0  0  0  0  0  0  0  0  0  0
  184.0680  178.6630  144.6280 C   0  0  0  0  0  0  0  0  0  0  0  0
  187.5140  176.3290  143.1990 C   0  0  0  0  0  0  0  0  0  0  0  0
  188.1760  175.7650  140.5110 C   0  0  0  0  0  3  0  0  0  0  0  0
  185.1520  177.9260  144.1490 C   0  0  0  0  0  3  0  0  0  0  0  0
  189.1940  175.2690  145.1700 C   0  0  0  0  0  0  0  0  0  0  0  0
  186.0550  177.1650  139.5160 Cl  0  0  0  0  0  0  0  0  0  0  0  0
  186.7820  177.0280  147.3070 N   0  0  0  0  0  0  0  0  0  0  0  0
  182.9180  179.3560  143.5060 Cl  0  0  0  0  0  0  0  0  0  0  0  0
  189.4380  175.0420  143.8560 N   0  0  0  0  0  0  0  0  0  0  0  0
  188.0910  176.0520  145.5550 C   0  0  0  0  0  0  0  0  0  0  0  0
  186.7310  176.8170  142.1370 C   0  0  0  0  0  3  0  0  0  0  0  0
  183.9020  178.8480  146.0000 C   0  0  0  0  0  3  0  0  0  0  0  0
  188.6500  175.5440  142.8770 C   0  0  0  0  0  0  0  0  0  0  0  0
  188.9700  175.2690  141.5440 C   0  0  0  0  0  3  0  0  0  0  0  0
  187.8490  176.2960  146.9110 C   0  0  0  0  0  3  0  0  0  0  0  0
  185.9080  177.5530  146.4170 C   0  0  0  0  0  0  0  0  0  0  0  0
  184.8210  178.2940  146.8910 C   0  0  0  0  0  3  0  0  0  0  0  0
  190.0840  174.6140  146.1840 C   0  0  0  0  0  2  0  0  0  0  0  0
  191.6750  175.2910  147.9940 C   0  0  0  0  0  1  0  0  0  0  0  0
  191.2370  175.5400  146.5630 C   0  0  1  0  0  3  0  0  0  0  0  0
  194.9730  175.6010  144.6070 C   0  0  0  0  0  0  0  0  0  0  0  0
  193.2340  174.2430  145.7620 C   0  0  0  0  0  2  0  0  0  0  0  0
  191.9300  177.3300  144.3610 O   0  0  0  0  0  0  0  0  0  0  0  0
  196.3360  175.6260  144.0160 C   0  0  0  0  0  1  0  0  0  0  0  0
  194.6940  174.6910  145.7740 C   0  0  0  0  0  2  0  0  0  0  0  0
  192.7380  176.4250  144.6970 C   0  0  0  0  0  0  0  0  0  0  0  0
  192.3610  175.4040  145.6380 N   0  0  0  0  0  0  0  0  0  0  0  0
  194.0650  176.4160  144.1570 N   0  0  0  0  0  0  0  0  0  0  0  0
  1 14  1  0  0  0  0
  2  3  2  0  0  0  0
  2 13  1  0  0  0  0
  3 19  1  0  0  0  0
  4 15  1  0  0  0  0
  5  2  1  0  0  0  0
  6  1  2  0  0  0  0
  6 17  1  0  0  0  0
  7  4  2  0  0  0  0
  7  3  1  0  0  0  0
  8 13  1  0  0  0  0
  8 21  1  0  0  0  0
  9  1  1  0  0  0  0
 11  4  1  0  0  0  0
 12  8  2  0  0  0  0
 13 18  2  0  0  0  0
 14  5  2  0  0  0  0
 15 20  2  0  0  0  0
 16  5  1  0  0  0  0
 16 12  1  0  0  0  0
 17 16  2  0  0  0  0
 18 10  1  0  0  0  0
 19 20  1  0  0  0  0
 19 10  2  0  0  0  0
 21 23  1  0  0  0  0
 23 22  1  1  0  0  0
 24 28  1  0  0  0  0
 25 28  1  0  0  0  0
 26 29  2  0  0  0  0
 27 24  1  0  0  0  0
 29 30  1  0  0  0  0
 30 25  1  0  0  0  0
 30 23  1  0  0  0  0
 31 24  2  0  0  0  0
 31 29  1  0  0  0  0
M  END
>  <MODEL>
4

>  <REMARK>
 VINA RESULT:      -8.2      1.133      3.874
  Name = 
  3 active torsions:
  status: ('A' for Active; 'I' for Inactive)
    1  A    between atoms: C_5  and  C_16
    2  A    between atoms: C_5  and  N_30
    3  A    between atoms: C_10  and  C_16
                            x       y       z     vdW  Elec       q    Type
                         _______ _______ _______ _____ _____    ______ ____

>  <TORSDO>
F 3

$$$$
=
 OpenBabel11112416473D

 31 35  0  0  1  0  0  0  0  0999 V2000
  185.5330  178.0220  146.7700 C   0  0  0  0  0  0  0  0  0  0  0  0
  186.8810  177.6360  143.2740 C   0  0  0  0  0  0  0  0  0  0  0  0
  185.7840  177.8490  142.3800 C   0  0  0  0  0  0  0  0  0  0  0  0
  183.4400  178.3640  141.9190 C   0  0  0  0  0  0  0  0  0  0  0  0
  186.7880  177.7000  144.6970 C   0  0  0  0  0  0  0  0  0  0  0  0
  186.6890  177.8060  147.5180 C   0  0  0  0  0  3  0  0  0  0  0  0
  184.4860  178.1590  142.8210 C   0  0  0  0  0  3  0  0  0  0  0  0
  189.2720  177.1520  143.5330 C   0  0  0  0  0  0  0  0  0  0  0  0
  184.0170  178.3600  147.5750 Cl  0  0  0  0  0  0  0  0  0  0  0  0
  187.2310  177.4560  140.4970 N   0  0  0  0  0  0  0  0  0  0  0  0
  181.8390  178.7470  142.5090 Cl  0  0  0  0  0  0  0  0  0  0  0  0
  189.1400  177.2260  144.8790 N   0  0  0  0  0  0  0  0  0  0  0  0
  188.1520  177.3440  142.7040 C   0  0  0  0  0  0  0  0  0  0  0  0
  185.5850  177.9680  145.3760 C   0  0  0  0  0  3  0  0  0  0  0  0
  183.6730  178.2620  140.5480 C   0  0  0  0  0  3  0  0  0  0  0  0
  187.9520  177.4820  145.4760 C   0  0  0  0  0  0  0  0  0  0  0  0
  187.8950  177.5380  146.8720 C   0  0  0  0  0  3  0  0  0  0  0  0
  188.2890  177.2540  141.3150 C   0  0  0  0  0  3  0  0  0  0  0  0
  186.0020  177.7510  140.9810 C   0  0  0  0  0  0  0  0  0  0  0  0
  184.9510  177.9560  140.0820 C   0  0  0  0  0  3  0  0  0  0  0  0
  190.6420  176.9300  142.9620 C   0  0  0  0  0  2  0  0  0  0  0  0
  191.3100  174.7130  142.0130 C   0  0  0  0  0  1  0  0  0  0  0  0
  191.1350  175.5220  143.2850 C   0  0  1  0  0  3  0  0  0  0  0  0
  194.7750  174.6760  145.2400 C   0  0  0  0  0  0  0  0  0  0  0  0
  193.6210  175.8690  143.3820 C   0  0  0  0  0  2  0  0  0  0  0  0
  191.4150  175.0890  146.1600 O   0  0  0  0  0  0  0  0  0  0  0  0
  196.0750  174.3010  145.8530 C   0  0  0  0  0  1  0  0  0  0  0  0
  194.6860  174.8360  143.7450 C   0  0  0  0  0  2  0  0  0  0  0  0
  192.4480  175.1480  145.4430 C   0  0  0  0  0  0  0  0  0  0  0  0
  192.3720  175.5520  144.0640 N   0  0  0  0  0  0  0  0  0  0  0  0
  193.7200  174.7880  145.9920 N   0  0  0  0  0  0  0  0  0  0  0  0
  1  6  1  0  0  0  0
  1  9  1  0  0  0  0
  2  5  1  0  0  0  0
  3  7  2  0  0  0  0
  3  2  1  0  0  0  0
  4 11  1  0  0  0  0
  4  7  1  0  0  0  0
  5 14  1  0  0  0  0
  5 16  2  0  0  0  0
  8 12  2  0  0  0  0
 10 19  1  0  0  0  0
 10 18  2  0  0  0  0
 12 16  1  0  0  0  0
 13  2  2  0  0  0  0
 13  8  1  0  0  0  0
 14  1  2  0  0  0  0
 15  4  2  0  0  0  0
 16 17  1  0  0  0  0
 17  6  2  0  0  0  0
 18 13  1  0  0  0  0
 19  3  1  0  0  0  0
 20 15  1  0  0  0  0
 20 19  2  0  0  0  0
 21 23  1  0  0  0  0
 21  8  1  0  0  0  0
 23 22  1  6  0  0  0
 23 30  1  0  0  0  0
 24 27  1  0  0  0  0
 24 31  2  0  0  0  0
 25 28  1  0  0  0  0
 25 30  1  0  0  0  0
 28 24  1  0  0  0  0
 29 31  1  0  0  0  0
 29 26  2  0  0  0  0
 30 29  1  0  0  0  0
M  END
>  <MODEL>
5

>  <REMARK>
 VINA RESULT:      -8.1      1.731      2.498
  Name = 
  3 active torsions:
  status: ('A' for Active; 'I' for Inactive)
    1  A    between atoms: C_5  and  C_16
    2  A    between atoms: C_5  and  N_30
    3  A    between atoms: C_10  and  C_16
                            x       y       z     vdW  Elec       q    Type
                         _______ _______ _______ _____ _____    ______ ____

>  <TORSDO>
F 3

$$$$
=
 OpenBabel11112416473D

 31 35  0  0  1  0  0  0  0  0999 V2000
  190.8510  176.8350  147.0940 C   0  0  0  0  0  0  0  0  0  0  0  0
  188.0930  176.7280  144.5300 C   0  0  0  0  0  0  0  0  0  0  0  0
  186.9930  177.4630  145.0730 C   0  0  0  0  0  0  0  0  0  0  0  0
  185.9440  178.8030  146.8270 C   0  0  0  0  0  0  0  0  0  0  0  0
  189.3430  176.5340  145.1940 C   0  0  0  0  0  0  0  0  0  0  0  0
  191.8420  176.1060  146.4380 C   0  0  0  0  0  3  0  0  0  0  0  0
  187.0370  178.0900  146.3310 C   0  0  0  0  0  3  0  0  0  0  0  0
  188.9890  175.4400  142.6430 C   0  0  0  0  0  0  0  0  0  0  0  0
  191.1520  177.4870  148.6890 Cl  0  0  0  0  0  0  0  0  0  0  0  0
  185.6960  176.9970  143.1000 N   0  0  0  0  0  0  0  0  0  0  0  0
  186.0390  179.5690  148.3970 Cl  0  0  0  0  0  0  0  0  0  0  0  0
  190.1600  175.2850  143.3070 N   0  0  0  0  0  0  0  0  0  0  0  0
  187.9320  176.1510  143.2390 C   0  0  0  0  0  0  0  0  0  0  0  0
  189.6160  177.0450  146.4760 C   0  0  0  0  0  3  0  0  0  0  0  0
  184.7760  178.9050  146.0710 C   0  0  0  0  0  3  0  0  0  0  0  0
  190.3630  175.7950  144.5450 C   0  0  0  0  0  0  0  0  0  0  0  0
  191.5980  175.5880  145.1670 C   0  0  0  0  0  3  0  0  0  0  0  0
  186.7190  176.2990  142.5560 C   0  0  0  0  0  3  0  0  0  0  0  0
  185.7970  177.5780  144.3180 C   0  0  0  0  0  0  0  0  0  0  0  0
  184.7050  178.2930  144.8200 C   0  0  0  0  0  3  0  0  0  0  0  0
  188.8830  174.8970  141.2490 C   0  0  0  0  0  2  0  0  0  0  0  0
  187.8140  172.6650  141.6290 C   0  0  0  0  0  1  0  0  0  0  0  0
  189.0940  173.3850  141.2450 C   0  0  1  0  0  3  0  0  0  0  0  0
  189.6170  171.7310  137.4010 C   0  0  0  0  0  0  0  0  0  0  0  0
  189.4680  173.7900  138.7950 C   0  0  0  0  0  2  0  0  0  0  0  0
  190.4440  170.8540  140.6960 O   0  0  0  0  0  0  0  0  0  0  0  0
  189.6950  171.1650  136.0300 C   0  0  0  0  0  1  0  0  0  0  0  0
  188.8630  173.0150  137.6260 C   0  0  0  0  0  2  0  0  0  0  0  0
  190.0840  171.5810  139.7340 C   0  0  0  0  0  0  0  0  0  0  0  0
  189.5950  172.9160  139.9550 N   0  0  0  0  0  0  0  0  0  0  0  0
  190.1350  171.0720  138.3960 N   0  0  0  0  0  0  0  0  0  0  0  0
  1  9  1  0  0  0  0
  2  3  1  0  0  0  0
  2  5  1  0  0  0  0
  3  7  1  0  0  0  0
  4 11  1  0  0  0  0
  5 14  2  0  0  0  0
  6  1  2  0  0  0  0
  7  4  2  0  0  0  0
  8 13  1  0  0  0  0
  8 12  2  0  0  0  0
 10 19  1  0  0  0  0
 12 16  1  0  0  0  0
 13  2  2  0  0  0  0
 14  1  1  0  0  0  0
 15  4  1  0  0  0  0
 16 17  2  0  0  0  0
 16  5  1  0  0  0  0
 17  6  1  0  0  0  0
 18 10  2  0  0  0  0
 18 13  1  0  0  0  0
 19 20  1  0  0  0  0
 19  3  2  0  0  0  0
 20 15  2  0  0  0  0
 21  8  1  0  0  0  0
 23 21  1  0  0  0  0
 23 22  1  6  0  0  0
 24 28  1  0  0  0  0
 24 31  2  0  0  0  0
 25 30  1  0  0  0  0
 27 24  1  0  0  0  0
 28 25  1  0  0  0  0
 29 30  1  0  0  0  0
 29 26  2  0  0  0  0
 30 23  1  0  0  0  0
 31 29  1  0  0  0  0
M  END
>  <MODEL>
6

>  <REMARK>
 VINA RESULT:      -7.9      3.473      6.286
  Name = 
  3 active torsions:
  status: ('A' for Active; 'I' for Inactive)
    1  A    between atoms: C_5  and  C_16
    2  A    between atoms: C_5  and  N_30
    3  A    between atoms: C_10  and  C_16
                            x       y       z     vdW  Elec       q    Type
                         _______ _______ _______ _____ _____    ______ ____

>  <TORSDO>
F 3

$$$$
=
 OpenBabel11112416473D

 31 35  0  0  1  0  0  0  0  0999 V2000
  191.0040  176.5270  146.8690 C   0  0  0  0  0  0  0  0  0  0  0  0
  188.3520  176.4090  144.1960 C   0  0  0  0  0  0  0  0  0  0  0  0
  187.2190  177.1190  144.7050 C   0  0  0  0  0  0  0  0  0  0  0  0
  186.0780  178.4190  146.4320 C   0  0  0  0  0  0  0  0  0  0  0  0
  189.5770  176.2270  144.9070 C   0  0  0  0  0  0  0  0  0  0  0  0
  192.0320  175.8230  146.2450 C   0  0  0  0  0  3  0  0  0  0  0  0
  187.2020  177.7300  145.9710 C   0  0  0  0  0  3  0  0  0  0  0  0
  189.3440  175.1620  142.3310 C   0  0  0  0  0  0  0  0  0  0  0  0
  191.2290  177.1620  148.4840 Cl  0  0  0  0  0  0  0  0  0  0  0  0
  186.0090  176.6590  142.6750 N   0  0  0  0  0  0  0  0  0  0  0  0
  186.0980  179.1640  148.0140 Cl  0  0  0  0  0  0  0  0  0  0  0  0
  190.4900  175.0170  143.0390 N   0  0  0  0  0  0  0  0  0  0  0  0
  188.2520  175.8480  142.8930 C   0  0  0  0  0  0  0  0  0  0  0  0
  189.7910  176.7250  146.2060 C   0  0  0  0  0  3  0  0  0  0  0  0
  184.9400  178.5110  145.6310 C   0  0  0  0  0  3  0  0  0  0  0  0
  190.6350  175.5130  144.2900 C   0  0  0  0  0  0  0  0  0  0  0  0
  191.8470  175.3180  144.9590 C   0  0  0  0  0  3  0  0  0  0  0  0
  187.0650  175.9850  142.1640 C   0  0  0  0  0  3  0  0  0  0  0  0
  186.0520  177.2250  143.9030 C   0  0  0  0  0  0  0  0  0  0  0  0
  184.9290  177.9150  144.3700 C   0  0  0  0  0  3  0  0  0  0  0  0
  189.3020  174.6360  140.9260 C   0  0  0  0  0  2  0  0  0  0  0  0
  188.1670  172.8450  139.5960 C   0  0  0  0  0  1  0  0  0  0  0  0
  188.8420  173.1810  140.9130 C   0  0  1  0  0  3  0  0  0  0  0  0
  191.4410  169.8810  141.2850 C   0  0  0  0  0  0  0  0  0  0  0  0
  190.9410  172.0370  140.1420 C   0  0  0  0  0  2  0  0  0  0  0  0
  189.3780  171.7610  143.4090 O   0  0  0  0  0  0  0  0  0  0  0  0
  192.3060  168.6730  141.3300 C   0  0  0  0  0  1  0  0  0  0  0  0
  191.1640  170.5370  139.9580 C   0  0  0  0  0  2  0  0  0  0  0  0
  190.0380  171.4670  142.3790 C   0  0  0  0  0  0  0  0  0  0  0  0
  189.9480  172.2650  141.1860 N   0  0  0  0  0  0  0  0  0  0  0  0
  190.8780  170.3070  142.3770 N   0  0  0  0  0  0  0  0  0  0  0  0
  1  9  1  0  0  0  0
  2  3  1  0  0  0  0
  2  5  1  0  0  0  0
  3  7  2  0  0  0  0
  4 11  1  0  0  0  0
  5 14  1  0  0  0  0
  6  1  1  0  0  0  0
  7  4  1  0  0  0  0
  8 13  1  0  0  0  0
  8 12  2  0  0  0  0
 10 19  1  0  0  0  0
 12 16  1  0  0  0  0
 13  2  2  0  0  0  0
 14  1  2  0  0  0  0
 15  4  2  0  0  0  0
 16  5  2  0  0  0  0
 16 17  1  0  0  0  0
 17  6  2  0  0  0  0
 18 10  2  0  0  0  0
 18 13  1  0  0  0  0
 19 20  2  0  0  0  0
 19  3  1  0  0  0  0
 20 15  1  0  0  0  0
 21  8  1  0  0  0  0
 23 22  1  6  0  0  0
 23 21  1  0  0  0  0
 23 30  1  0  0  0  0
 24 27  1  0  0  0  0
 24 31  2  0  0  0  0
 25 30  1  0  0  0  0
 28 25  1  0  0  0  0
 28 24  1  0  0  0  0
 29 26  2  0  0  0  0
 30 29  1  0  0  0  0
 31 29  1  0  0  0  0
M  END
>  <MODEL>
7

>  <REMARK>
 VINA RESULT:      -7.8      3.494      5.735
  Name = 
  3 active torsions:
  status: ('A' for Active; 'I' for Inactive)
    1  A    between atoms: C_5  and  C_16
    2  A    between atoms: C_5  and  N_30
    3  A    between atoms: C_10  and  C_16
                            x       y       z     vdW  Elec       q    Type
                         _______ _______ _______ _____ _____    ______ ____

>  <TORSDO>
F 3

$$$$
=
 OpenBabel11112416473D

 31 35  0  0  1  0  0  0  0  0999 V2000
  185.2740  177.9830  141.5250 C   0  0  0  0  0  0  0  0  0  0  0  0
  187.8160  177.6680  144.2880 C   0  0  0  0  0  0  0  0  0  0  0  0
  187.1060  177.8020  145.5220 C   0  0  0  0  0  0  0  0  0  0  0  0
  185.0540  178.1150  146.8130 C   0  0  0  0  0  0  0  0  0  0  0  0
  187.2090  177.7240  142.9960 C   0  0  0  0  0  0  0  0  0  0  0  0
  186.0880  177.8230  140.4050 C   0  0  0  0  0  3  0  0  0  0  0  0
  185.7140  177.9930  145.5890 C   0  0  0  0  0  3  0  0  0  0  0  0
  189.9690  177.2980  143.1700 C   0  0  0  0  0  0  0  0  0  0  0  0
  183.5550  178.2460  141.3310 Cl  0  0  0  0  0  0  0  0  0  0  0  0
  189.1650  177.5520  146.7430 N   0  0  0  0  0  0  0  0  0  0  0  0
  183.3220  178.3520  146.8520 Cl  0  0  0  0  0  0  0  0  0  0  0  0
  189.3510  177.3540  141.9650 N   0  0  0  0  0  0  0  0  0  0  0  0
  189.2220  177.4630  144.3510 C   0  0  0  0  0  0  0  0  0  0  0  0
  185.8310  177.9340  142.8050 C   0  0  0  0  0  3  0  0  0  0  0  0
  185.7770  178.0490  148.0040 C   0  0  0  0  0  3  0  0  0  0  0  0
  188.0200  177.5650  141.8440 C   0  0  0  0  0  0  0  0  0  0  0  0
  187.4570  177.6140  140.5650 C   0  0  0  0  0  3  0  0  0  0  0  0
  189.8640  177.4180  145.5940 C   0  0  0  0  0  3  0  0  0  0  0  0
  187.8240  177.7360  146.7440 C   0  0  0  0  0  0  0  0  0  0  0  0
  187.1580  177.8600  147.9680 C   0  0  0  0  0  3  0  0  0  0  0  0
  191.4370  176.9920  143.2060 C   0  0  0  0  0  2  0  0  0  0  0  0
  192.0110  174.8830  141.9860 C   0  0  0  0  0  1  0  0  0  0  0  0
  191.6690  175.4890  143.3340 C   0  0  1  0  0  3  0  0  0  0  0  0
  195.1440  174.3030  145.4090 C   0  0  0  0  0  0  0  0  0  0  0  0
  193.7340  176.1840  144.5850 C   0  0  0  0  0  2  0  0  0  0  0  0
  191.8830  173.0830  144.9770 O   0  0  0  0  0  0  0  0  0  0  0  0
  196.4240  173.9010  146.0470 C   0  0  0  0  0  1  0  0  0  0  0  0
  195.1120  175.5270  144.5330 C   0  0  0  0  0  2  0  0  0  0  0  0
  192.8380  173.9030  144.9590 C   0  0  0  0  0  0  0  0  0  0  0  0
  192.7010  175.1870  144.3250 N   0  0  0  0  0  0  0  0  0  0  0  0
  194.0910  173.5530  145.5560 N   0  0  0  0  0  0  0  0  0  0  0  0
  1 14  1  0  0  0  0
  2 13  2  0  0  0  0
  2  3  1  0  0  0  0
  3  7  2  0  0  0  0
  3 19  1  0  0  0  0
  4 11  1  0  0  0  0
  4 15  2  0  0  0  0
  5  2  1  0  0  0  0
  6 17  1  0  0  0  0
  6  1  2  0  0  0  0
  7  4  1  0  0  0  0
  8 21  1  0  0  0  0
  8 13  1  0  0  0  0
  9  1  1  0  0  0  0
 10 19  1  0  0  0  0
 12  8  2  0  0  0  0
 13 18  1  0  0  0  0
 14  5  2  0  0  0  0
 16 12  1  0  0  0  0
 16  5  1  0  0  0  0
 17 16  2  0  0  0  0
 18 10  2  0  0  0  0
 19 20  2  0  0  0  0
 20 15  1  0  0  0  0
 21 23  1  0  0  0  0
 23 22  1  6  0  0  0
 23 30  1  0  0  0  0
 24 31  2  0  0  0  0
 24 27  1  0  0  0  0
 28 25  1  0  0  0  0
 28 24  1  0  0  0  0
 29 26  2  0  0  0  0
 29 31  1  0  0  0  0
 30 25  1  0  0  0  0
 30 29  1  0  0  0  0
M  END
>  <MODEL>
8

>  <REMARK>
 VINA RESULT:      -7.8      1.717      4.465
  Name = 
  3 active torsions:
  status: ('A' for Active; 'I' for Inactive)
    1  A    between atoms: C_5  and  C_16
    2  A    between atoms: C_5  and  N_30
    3  A    between atoms: C_10  and  C_16
                            x       y       z     vdW  Elec       q    Type
                         _______ _______ _______ _____ _____    ______ ____

>  <TORSDO>
F 3

$$$$
=
 OpenBabel11112416473D

 31 35  0  0  1  0  0  0  0  0999 V2000
  186.4090  178.1320  144.0900 C   0  0  0  0  0  0  0  0  0  0  0  0
  189.1270  175.5510  144.4700 C   0  0  0  0  0  0  0  0  0  0  0  0
  189.8650  175.8960  145.6450 C   0  0  0  0  0  0  0  0  0  0  0  0
  190.2890  177.3060  147.5960 C   0  0  0  0  0  0  0  0  0  0  0  0
  188.0030  176.2820  143.9770 C   0  0  0  0  0  0  0  0  0  0  0  0
  185.7740  177.6720  142.9370 C   0  0  0  0  0  3  0  0  0  0  0  0
  189.5470  177.0020  146.4530 C   0  0  0  0  0  3  0  0  0  0  0  0
  188.8320  173.9950  142.5950 C   0  0  0  0  0  0  0  0  0  0  0  0
  185.8280  179.5710  144.8960 Cl  0  0  0  0  0  0  0  0  0  0  0  0
  191.3250  174.0150  145.2900 N   0  0  0  0  0  0  0  0  0  0  0  0
  189.8590  178.6900  148.5740 Cl  0  0  0  0  0  0  0  0  0  0  0  0
  187.7690  174.7170  142.1660 N   0  0  0  0  0  0  0  0  0  0  0  0
  189.5380  174.3980  143.7430 C   0  0  0  0  0  0  0  0  0  0  0  0
  187.5110  177.4430  144.6020 C   0  0  0  0  0  3  0  0  0  0  0  0
  191.3730  176.5050  147.9570 C   0  0  0  0  0  3  0  0  0  0  0  0
  187.3450  175.8310  142.8060 C   0  0  0  0  0  0  0  0  0  0  0  0
  186.2410  176.5240  142.2980 C   0  0  0  0  0  3  0  0  0  0  0  0
  190.6440  173.6590  144.1770 C   0  0  0  0  0  3  0  0  0  0  0  0
  190.9710  175.0930  146.0290 C   0  0  0  0  0  0  0  0  0  0  0  0
  191.7110  175.4030  147.1740 C   0  0  0  0  0  3  0  0  0  0  0  0
  189.1850  172.7370  141.8580 C   0  0  0  0  0  2  0  0  0  0  0  0
  191.5230  172.4600  141.0070 C   0  0  0  0  0  1  0  0  0  0  0  0
  190.1500  173.0390  140.7150 C   0  0  1  0  0  3  0  0  0  0  0  0
  189.5200  171.9720  136.6840 C   0  0  0  0  0  0  0  0  0  0  0  0
  189.9850  171.2040  139.0070 C   0  0  0  0  0  2  0  0  0  0  0  0
  188.3770  174.4580  138.8790 O   0  0  0  0  0  0  0  0  0  0  0  0
  189.4060  171.5930  135.2520 C   0  0  0  0  0  1  0  0  0  0  0  0
  190.4900  171.2330  137.5660 C   0  0  0  0  0  2  0  0  0  0  0  0
  188.9160  173.3840  138.5070 C   0  0  0  0  0  0  0  0  0  0  0  0
  189.6360  172.5540  139.4350 N   0  0  0  0  0  0  0  0  0  0  0  0
  188.8370  172.9840  137.1340 N   0  0  0  0  0  0  0  0  0  0  0  0
  1 14  1  0  0  0  0
  1  9  1  0  0  0  0
  2  3  1  0  0  0  0
  3 19  2  0  0  0  0
  3  7  1  0  0  0  0
  4 15  1  0  0  0  0
  4 11  1  0  0  0  0
  5  2  1  0  0  0  0
  5 14  2  0  0  0  0
  6  1  2  0  0  0  0
  7  4  2  0  0  0  0
  8 13  1  0  0  0  0
 10 19  1  0  0  0  0
 12  8  2  0  0  0  0
 12 16  1  0  0  0  0
 13 18  1  0  0  0  0
 13  2  2  0  0  0  0
 16  5  1  0  0  0  0
 17 16  2  0  0  0  0
 17  6  1  0  0  0  0
 18 10  2  0  0  0  0
 19 20  1  0  0  0  0
 20 15  2  0  0  0  0
 21  8  1  0  0  0  0
 23 22  1  1  0  0  0
 23 21  1  0  0  0  0
 24 31  2  0  0  0  0
 24 28  1  0  0  0  0
 25 30  1  0  0  0  0
 27 24  1  0  0  0  0
 28 25  1  0  0  0  0
 29 26  2  0  0  0  0
 29 30  1  0  0  0  0
 30 23  1  0  0  0  0
 31 29  1  0  0  0  0
M  END
>  <MODEL>
9

>  <REMARK>
 VINA RESULT:      -7.6      3.498      6.483
  Name = 
  3 active torsions:
  status: ('A' for Active; 'I' for Inactive)
    1  A    between atoms: C_5  and  C_16
    2  A    between atoms: C_5  and  N_30
    3  A    between atoms: C_10  and  C_16
                            x       y       z     vdW  Elec       q    Type
                         _______ _______ _______ _____ _____    ______ ____

>  <TORSDO>
F 3

$$$$
