=
 OpenBabel11112417383D

 28 32  0  0  1  0  0  0  0  0999 V2000
  189.8660  175.1770  146.9000 C   0  0  0  0  0  0  0  0  0  0  0  0
  185.1210  175.9860  145.7900 F   0  0  0  0  0  0  0  0  0  0  0  0
  190.6380  177.9160  143.1120 C   0  0  0  0  0  1  0  0  0  0  0  0
  190.8660  177.6210  147.8380 C   0  0  0  0  0  3  0  0  0  0  0  0
  188.2180  177.7280  142.7440 C   0  0  0  0  0  0  0  0  0  0  0  0
  189.3720  173.8660  146.3640 C   0  0  0  0  0  2  0  0  0  0  0  0
  185.4020  176.8680  147.8540 O   0  0  0  0  0  1  0  0  0  0  0  0
  185.4900  177.1280  146.4860 C   0  0  1  0  0  0  0  0  0  0  0  0
  184.7600  178.6550  144.6900 C   0  0  1  0  0  3  0  0  0  0  0  0
  186.9350  177.5490  146.1460 C   0  0  2  0  0  3  0  0  0  0  0  0
  191.7520  174.9420  144.4630 O   0  0  0  0  0  1  0  0  0  0  0  0
  187.9320  176.1060  144.4010 C   0  0  1  0  0  3  0  0  0  0  0  0
  186.0240  179.2610  144.5750 O   0  0  0  0  0  0  0  0  0  0  0  0
  184.5150  178.2400  146.1330 C   0  0  0  0  0  2  0  0  0  0  0  0
  190.7380  174.0300  144.1580 C   0  0  2  0  0  3  0  0  0  0  0  0
  189.1350  176.3630  146.6780 C   0  0  0  0  0  0  0  0  0  0  0  0
  189.4840  176.9720  142.8250 C   0  0  2  0  0  3  0  0  0  0  0  0
  183.6910  179.6380  144.2620 C   0  0  0  0  0  1  0  0  0  0  0  0
  189.5660  174.6980  143.4330 C   0  0  0  0  0  2  0  0  0  0  0  0
  189.6580  177.5830  147.1380 C   0  0  0  0  0  3  0  0  0  0  0  0
  191.0690  175.2220  147.6160 C   0  0  0  0  0  3  0  0  0  0  0  0
  191.5670  176.4400  148.0840 C   0  0  0  0  0  3  0  0  0  0  0  0
  190.3470  173.2010  145.3880 C   0  0  0  0  0  2  0  0  0  0  0  0
  187.2230  177.2740  143.7250 C   0  0  1  0  0  3  0  0  0  0  0  0
  189.3310  176.0430  143.9430 N   0  0  2  0  0  0  0  0  0  0  0  0
  187.0440  178.3070  144.8210 C   0  0  2  0  0  3  0  0  0  0  0  0
  188.0000  178.6020  141.9170 O   0  0  0  0  0  0  0  0  0  0  0  0
  187.8160  176.3180  145.9280 C   0  0  1  0  0  3  0  0  0  0  0  0
  1 21  1  0  0  0  0
  4 22  1  0  0  0  0
  5 17  1  0  0  0  0
  5 24  1  0  0  0  0
  6  1  1  0  0  0  0
  8  2  1  6  0  0  0
  8  7  1  0  0  0  0
  9 18  1  1  0  0  0
  9 14  1  0  0  0  0
 10  8  1  0  0  0  0
 12 28  1  0  0  0  0
 13  9  1  0  0  0  0
 13 26  1  0  0  0  0
 14  8  1  0  0  0  0
 15 11  1  0  0  0  0
 15 23  1  0  0  0  0
 16  1  2  0  0  0  0
 16 20  1  0  0  0  0
 17  3  1  0  0  0  0
 17 25  1  0  0  0  0
 19 25  1  0  0  0  0
 19 15  1  0  0  0  0
 20  4  2  0  0  0  0
 21 22  2  0  0  0  0
 23  6  1  0  0  0  0
 24 12  1  0  0  0  0
 24 26  1  0  0  0  0
 25 12  1  0  0  0  0
 26 10  1  0  0  0  0
 27  5  2  0  0  0  0
 28 10  1  0  0  0  0
 28 16  1  0  0  0  0
M  END
>  <MODEL>
1

>  <REMARK>
 VINA RESULT:      -8.8      0.000      0.000
  Name = 
  0 active torsions:
  status: ('A' for Active; 'I' for Inactive)
                            x       y       z     vdW  Elec       q    Type
                         _______ _______ _______ _____ _____    ______ ____

>  <TORSDO>
F 0

$$$$
=
 OpenBabel11112417383D

 28 32  0  0  1  0  0  0  0  0999 V2000
  190.9510  175.1320  142.6980 C   0  0  0  0  0  0  0  0  0  0  0  0
  187.7520  178.8580  142.1600 F   0  0  0  0  0  0  0  0  0  0  0  0
  188.9710  174.7910  146.9890 C   0  0  0  0  0  1  0  0  0  0  0  0
  189.4120  172.7910  142.7130 C   0  0  0  0  0  3  0  0  0  0  0  0
  187.8530  176.8990  146.4100 C   0  0  0  0  0  0  0  0  0  0  0  0
  191.7980  176.3690  142.7340 C   0  0  0  0  0  2  0  0  0  0  0  0
  187.1800  177.3560  140.5690 O   0  0  0  0  0  1  0  0  0  0  0  0
  186.9850  177.7330  141.8970 C   0  0  1  0  0  0  0  0  0  0  0  0
  185.2760  178.3050  143.5830 C   0  0  1  0  0  3  0  0  0  0  0  0
  187.3810  176.5570  142.8160 C   0  0  2  0  0  3  0  0  0  0  0  0
  192.1060  174.8070  145.5460 O   0  0  0  0  0  1  0  0  0  0  0  0
  189.1080  177.2130  144.4630 C   0  0  1  0  0  3  0  0  0  0  0  0
  185.4240  177.0860  144.2700 O   0  0  0  0  0  0  0  0  0  0  0  0
  185.5210  178.0930  142.0970 C   0  0  0  0  0  2  0  0  0  0  0  0
  192.3440  176.1570  145.2680 C   0  0  2  0  0  3  0  0  0  0  0  0
  189.5540  175.2150  142.8810 C   0  0  0  0  0  0  0  0  0  0  0  0
  189.1620  176.2560  146.6370 C   0  0  2  0  0  3  0  0  0  0  0  0
  183.8720  178.8310  143.7900 C   0  0  0  0  0  1  0  0  0  0  0  0
  191.1500  177.0380  145.6420 C   0  0  0  0  0  2  0  0  0  0  0  0
  188.7990  174.0310  142.9050 C   0  0  0  0  0  3  0  0  0  0  0  0
  191.5550  173.8860  142.4910 C   0  0  0  0  0  3  0  0  0  0  0  0
  190.7880  172.7190  142.4980 C   0  0  0  0  0  3  0  0  0  0  0  0
  192.8620  176.3460  143.8370 C   0  0  0  0  0  2  0  0  0  0  0  0
  187.7310  177.4770  145.0650 C   0  0  1  0  0  3  0  0  0  0  0  0
  189.8890  176.3570  145.3720 N   0  0  2  0  0  0  0  0  0  0  0  0
  186.7740  176.6590  144.2180 C   0  0  2  0  0  3  0  0  0  0  0  0
  186.9830  176.9900  147.2640 O   0  0  0  0  0  0  0  0  0  0  0  0
  188.8890  176.5650  143.0770 C   0  0  1  0  0  3  0  0  0  0  0  0
  1  6  1  0  0  0  0
  1 16  1  0  0  0  0
  4 20  1  0  0  0  0
  5 17  1  0  0  0  0
  5 27  2  0  0  0  0
  6 23  1  0  0  0  0
  8  7  1  6  0  0  0
  8 14  1  0  0  0  0
  8  2  1  0  0  0  0
  8 10  1  0  0  0  0
  9 18  1  6  0  0  0
  9 13  1  0  0  0  0
 10 28  1  0  0  0  0
 10 26  1  0  0  0  0
 12 24  1  0  0  0  0
 12 25  1  0  0  0  0
 14  9  1  0  0  0  0
 15 11  1  0  0  0  0
 15 19  1  0  0  0  0
 16 20  2  0  0  0  0
 16 28  1  0  0  0  0
 17  3  1  0  0  0  0
 21 22  1  0  0  0  0
 21  1  2  0  0  0  0
 22  4  2  0  0  0  0
 23 15  1  0  0  0  0
 24  5  1  0  0  0  0
 25 19  1  0  0  0  0
 25 17  1  0  0  0  0
 26 13  1  0  0  0  0
 26 24  1  0  0  0  0
 28 12  1  0  0  0  0
M  END
>  <MODEL>
2

>  <REMARK>
 VINA RESULT:      -8.6      1.932      4.279
  Name = 
  0 active torsions:
  status: ('A' for Active; 'I' for Inactive)
                            x       y       z     vdW  Elec       q    Type
                         _______ _______ _______ _____ _____    ______ ____

>  <TORSDO>
F 0

$$$$
=
 OpenBabel11112417383D

 28 32  0  0  1  0  0  0  0  0999 V2000
  189.4680  176.7860  145.1830 C   0  0  0  0  0  0  0  0  0  0  0  0
  194.3660  176.4610  144.6290 F   0  0  0  0  0  0  0  0  0  0  0  0
  189.5480  172.3520  143.5140 C   0  0  0  0  0  1  0  0  0  0  0  0
  188.8190  175.0890  147.3160 C   0  0  0  0  0  3  0  0  0  0  0  0
  191.9240  172.7850  143.0700 C   0  0  0  0  0  0  0  0  0  0  0  0
  189.7780  177.6700  144.0120 C   0  0  0  0  0  2  0  0  0  0  0  0
  194.0440  176.7910  146.8430 O   0  0  0  0  0  1  0  0  0  0  0  0
  194.1350  175.8270  145.8400 C   0  0  1  0  0  0  0  0  0  0  0  0
  195.2870  173.7530  145.1590 C   0  0  1  0  0  3  0  0  0  0  0  0
  192.8230  175.0130  145.8050 C   0  0  2  0  0  3  0  0  0  0  0  0
  187.8130  175.2970  143.0390 O   0  0  0  0  0  1  0  0  0  0  0  0
  191.7640  175.0630  143.5690 C   0  0  1  0  0  3  0  0  0  0  0  0
  194.1620  172.9450  145.4100 O   0  0  0  0  0  0  0  0  0  0  0  0
  195.3160  174.9170  146.1380 C   0  0  0  0  0  2  0  0  0  0  0  0
  188.6790  176.0810  142.2720 C   0  0  2  0  0  3  0  0  0  0  0  0
  190.4110  175.8380  145.6340 C   0  0  0  0  0  0  0  0  0  0  0  0
  190.5440  173.1990  142.7430 C   0  0  2  0  0  3  0  0  0  0  0  0
  196.5450  172.9270  145.3220 C   0  0  0  0  0  1  0  0  0  0  0  0
  190.0120  175.3750  142.0130 C   0  0  0  0  0  2  0  0  0  0  0  0
  190.0640  174.9820  146.6930 C   0  0  0  0  0  3  0  0  0  0  0  0
  188.2280  176.8960  145.8240 C   0  0  0  0  0  3  0  0  0  0  0  0
  187.9050  176.0510  146.8880 C   0  0  0  0  0  3  0  0  0  0  0  0
  188.8000  177.4980  142.8440 C   0  0  0  0  0  2  0  0  0  0  0  0
  192.7260  173.8810  143.6300 C   0  0  1  0  0  3  0  0  0  0  0  0
  190.4260  174.5920  143.1710 N   0  0  2  0  0  0  0  0  0  0  0  0
  192.9750  173.6580  145.1100 C   0  0  2  0  0  3  0  0  0  0  0  0
  192.3680  171.6680  142.8510 O   0  0  0  0  0  0  0  0  0  0  0  0
  191.7680  175.7320  144.9630 C   0  0  1  0  0  3  0  0  0  0  0  0
  1 16  2  0  0  0  0
  1 21  1  0  0  0  0
  5 24  1  0  0  0  0
  6  1  1  0  0  0  0
  8  2  1  6  0  0  0
  8 14  1  0  0  0  0
  8  7  1  0  0  0  0
  9 18  1  1  0  0  0
  9 13  1  0  0  0  0
  9 14  1  0  0  0  0
 10  8  1  0  0  0  0
 12 24  1  0  0  0  0
 12 28  1  0  0  0  0
 15 23  1  0  0  0  0
 15 11  1  0  0  0  0
 16 20  1  0  0  0  0
 17  5  1  0  0  0  0
 17 25  1  0  0  0  0
 17  3  1  0  0  0  0
 19 15  1  0  0  0  0
 19 25  1  0  0  0  0
 20  4  2  0  0  0  0
 21 22  2  0  0  0  0
 22  4  1  0  0  0  0
 23  6  1  0  0  0  0
 24 26  1  0  0  0  0
 25 12  1  0  0  0  0
 26 13  1  0  0  0  0
 26 10  1  0  0  0  0
 27  5  2  0  0  0  0
 28 16  1  0  0  0  0
 28 10  1  0  0  0  0
M  END
>  <MODEL>
3

>  <REMARK>
 VINA RESULT:      -8.3      3.199      6.781
  Name = 
  0 active torsions:
  status: ('A' for Active; 'I' for Inactive)
                            x       y       z     vdW  Elec       q    Type
                         _______ _______ _______ _____ _____    ______ ____

>  <TORSDO>
F 0

$$$$
=
 OpenBabel11112417383D

 28 32  0  0  1  0  0  0  0  0999 V2000
  191.8030  174.0340  143.1060 C   0  0  0  0  0  0  0  0  0  0  0  0
  189.0570  177.9870  141.9930 F   0  0  0  0  0  0  0  0  0  0  0  0
  190.8710  175.3390  147.5640 C   0  0  0  0  0  1  0  0  0  0  0  0
  190.0330  172.1390  144.1670 C   0  0  0  0  0  3  0  0  0  0  0  0
  189.9180  177.3630  146.5510 C   0  0  0  0  0  0  0  0  0  0  0  0
  192.7820  175.0420  142.5800 C   0  0  0  0  0  2  0  0  0  0  0  0
  187.9410  176.2270  141.1120 O   0  0  0  0  0  1  0  0  0  0  0  0
  188.1150  177.0030  142.2570 C   0  0  1  0  0  0  0  0  0  0  0  0
  186.9390  178.3570  143.9530 C   0  0  1  0  0  3  0  0  0  0  0  0
  188.5690  176.0910  143.4180 C   0  0  2  0  0  3  0  0  0  0  0  0
  193.5510  174.3330  145.6370 O   0  0  0  0  0  1  0  0  0  0  0  0
  190.7040  176.8520  144.4100 C   0  0  1  0  0  3  0  0  0  0  0  0
  187.0930  177.3850  144.9590 O   0  0  0  0  0  0  0  0  0  0  0  0
  186.7970  177.6800  142.5980 C   0  0  0  0  0  2  0  0  0  0  0  0
  193.8820  175.4720  144.8960 C   0  0  2  0  0  3  0  0  0  0  0  0
  190.5110  174.4330  143.5090 C   0  0  0  0  0  0  0  0  0  0  0  0
  191.1530  176.5730  146.7260 C   0  0  2  0  0  3  0  0  0  0  0  0
  185.7010  179.1800  144.2360 C   0  0  0  0  0  1  0  0  0  0  0  0
  192.9290  176.6360  145.1790 C   0  0  0  0  0  2  0  0  0  0  0  0
  189.6420  173.4760  144.0570 C   0  0  0  0  0  3  0  0  0  0  0  0
  192.1810  172.6900  143.2060 C   0  0  0  0  0  3  0  0  0  0  0  0
  191.2990  171.7450  143.7340 C   0  0  0  0  0  3  0  0  0  0  0  0
  194.0660  175.1350  143.4110 C   0  0  0  0  0  2  0  0  0  0  0  0
  189.5540  177.5370  145.1390 C   0  0  1  0  0  3  0  0  0  0  0  0
  191.5660  176.1620  145.3850 N   0  0  2  0  0  0  0  0  0  0  0  0
  188.3290  176.7100  144.7970 C   0  0  2  0  0  3  0  0  0  0  0  0
  189.2940  177.8620  147.4750 O   0  0  0  0  0  0  0  0  0  0  0  0
  190.0840  175.8840  143.3760 C   0  0  1  0  0  3  0  0  0  0  0  0
  1 21  2  0  0  0  0
  1 16  1  0  0  0  0
  2  8  1  0  0  0  0
  5 17  1  0  0  0  0
  5 27  2  0  0  0  0
  6  1  1  0  0  0  0
  6 23  1  0  0  0  0
  8  7  1  6  0  0  0
  8 14  1  0  0  0  0
  8 10  1  0  0  0  0
  9 18  1  1  0  0  0
  9 13  1  0  0  0  0
 10 26  1  0  0  0  0
 12 24  1  0  0  0  0
 12 25  1  0  0  0  0
 14  9  1  0  0  0  0
 15 19  1  0  0  0  0
 15 11  1  0  0  0  0
 16 20  2  0  0  0  0
 17  3  1  0  0  0  0
 19 25  1  0  0  0  0
 20  4  1  0  0  0  0
 21 22  1  0  0  0  0
 22  4  2  0  0  0  0
 23 15  1  0  0  0  0
 24  5  1  0  0  0  0
 25 17  1  0  0  0  0
 26 13  1  0  0  0  0
 26 24  1  0  0  0  0
 28 10  1  0  0  0  0
 28 16  1  0  0  0  0
 28 12  1  0  0  0  0
M  END
>  <MODEL>
4

>  <REMARK>
 VINA RESULT:      -8.3      2.329      4.424
  Name = 
  0 active torsions:
  status: ('A' for Active; 'I' for Inactive)
                            x       y       z     vdW  Elec       q    Type
                         _______ _______ _______ _____ _____    ______ ____

>  <TORSDO>
F 0

$$$$
=
 OpenBabel11112417383D

 28 32  0  0  1  0  0  0  0  0999 V2000
  190.3320  175.6450  145.3560 C   0  0  0  0  0  0  0  0  0  0  0  0
  185.7290  176.7340  143.9320 F   0  0  0  0  0  0  0  0  0  0  0  0
  190.8260  174.3410  140.8280 C   0  0  0  0  0  1  0  0  0  0  0  0
  191.9880  177.5420  144.1270 C   0  0  0  0  0  3  0  0  0  0  0  0
  188.3970  174.6710  140.6870 C   0  0  0  0  0  0  0  0  0  0  0  0
  189.4770  174.5920  145.9950 C   0  0  0  0  0  2  0  0  0  0  0  0
  186.6170  178.7010  144.6070 O   0  0  0  0  0  1  0  0  0  0  0  0
  186.4630  177.8370  143.5240 C   0  0  1  0  0  0  0  0  0  0  0  0
  185.6970  177.6830  141.1830 C   0  0  1  0  0  3  0  0  0  0  0  0
  187.8580  177.4220  143.0090 C   0  0  2  0  0  3  0  0  0  0  0  0
  191.5680  173.1660  143.9870 O   0  0  0  0  0  1  0  0  0  0  0  0
  188.1440  174.9640  142.9920 C   0  0  1  0  0  3  0  0  0  0  0  0
  187.0050  177.5990  140.6710 O   0  0  0  0  0  0  0  0  0  0  0  0
  185.6850  178.5530  142.4300 C   0  0  0  0  0  2  0  0  0  0  0  0
  190.3460  172.6800  144.4630 C   0  0  2  0  0  3  0  0  0  0  0  0
  189.8300  176.4310  144.2970 C   0  0  0  0  0  0  0  0  0  0  0  0
  189.4680  173.8910  141.3380 C   0  0  2  0  0  3  0  0  0  0  0  0
  184.7870  178.2910  140.1370 C   0  0  0  0  0  1  0  0  0  0  0  0
  189.2100  172.9080  143.4640 C   0  0  0  0  0  2  0  0  0  0  0  0
  190.6780  177.3640  143.6780 C   0  0  0  0  0  3  0  0  0  0  0  0
  191.6430  175.8420  145.8090 C   0  0  0  0  0  3  0  0  0  0  0  0
  192.4680  176.7870  145.1970 C   0  0  0  0  0  3  0  0  0  0  0  0
  190.0650  173.1810  145.8850 C   0  0  0  0  0  2  0  0  0  0  0  0
  187.5620  175.4000  141.6510 C   0  0  1  0  0  3  0  0  0  0  0  0
  189.3690  174.1790  142.7670 N   0  0  2  0  0  0  0  0  0  0  0  0
  187.8350  176.8900  141.5740 C   0  0  2  0  0  3  0  0  0  0  0  0
  188.1910  174.6700  139.4820 O   0  0  0  0  0  0  0  0  0  0  0  0
  188.4010  176.2440  143.8200 C   0  0  1  0  0  3  0  0  0  0  0  0
  1 21  1  0  0  0  0
  1  6  1  0  0  0  0
  3 17  1  0  0  0  0
  4 22  1  0  0  0  0
  5 17  1  0  0  0  0
  5 24  1  0  0  0  0
  8  2  1  1  0  0  0
  8  7  1  0  0  0  0
  9 18  1  6  0  0  0
  9 14  1  0  0  0  0
 10  8  1  0  0  0  0
 10 28  1  0  0  0  0
 11 15  1  0  0  0  0
 12 28  1  0  0  0  0
 13  9  1  0  0  0  0
 13 26  1  0  0  0  0
 14  8  1  0  0  0  0
 15 23  1  0  0  0  0
 16  1  2  0  0  0  0
 17 25  1  0  0  0  0
 19 15  1  0  0  0  0
 20  4  2  0  0  0  0
 20 16  1  0  0  0  0
 22 21  2  0  0  0  0
 23  6  1  0  0  0  0
 24 12  1  0  0  0  0
 25 12  1  0  0  0  0
 25 19  1  0  0  0  0
 26 24  1  0  0  0  0
 26 10  1  0  0  0  0
 27  5  2  0  0  0  0
 28 16  1  0  0  0  0
M  END
>  <MODEL>
5

>  <REMARK>
 VINA RESULT:      -7.7      2.195      3.094
  Name = 
  0 active torsions:
  status: ('A' for Active; 'I' for Inactive)
                            x       y       z     vdW  Elec       q    Type
                         _______ _______ _______ _____ _____    ______ ____

>  <TORSDO>
F 0

$$$$
=
 OpenBabel11112417383D

 28 32  0  0  1  0  0  0  0  0999 V2000
  188.7960  176.9680  144.8150 C   0  0  0  0  0  0  0  0  0  0  0  0
  193.2910  176.7900  142.7730 F   0  0  0  0  0  0  0  0  0  0  0  0
  188.3130  172.7210  142.7700 C   0  0  0  0  0  1  0  0  0  0  0  0
  188.8060  175.0580  146.8660 C   0  0  0  0  0  3  0  0  0  0  0  0
  190.4470  173.2400  141.6720 C   0  0  0  0  0  0  0  0  0  0  0  0
  188.7470  177.9680  143.6990 C   0  0  0  0  0  2  0  0  0  0  0  0
  193.6610  176.8960  145.0020 O   0  0  0  0  0  1  0  0  0  0  0  0
  193.4310  176.0360  143.9280 C   0  0  1  0  0  0  0  0  0  0  0  0
  194.2970  174.0610  142.7280 C   0  0  1  0  0  3  0  0  0  0  0  0
  192.1610  175.2060  144.2120 C   0  0  2  0  0  3  0  0  0  0  0  0
  186.5510  175.6660  143.1380 O   0  0  0  0  0  1  0  0  0  0  0  0
  190.4740  175.4540  142.4190 C   0  0  1  0  0  3  0  0  0  0  0  0
  193.2920  173.2120  143.2270 O   0  0  0  0  0  0  0  0  0  0  0  0
  194.6360  175.1230  143.7620 C   0  0  0  0  0  2  0  0  0  0  0  0
  187.1530  176.5370  142.2250 C   0  0  2  0  0  3  0  0  0  0  0  0
  189.8210  175.9980  144.8630 C   0  0  0  0  0  0  0  0  0  0  0  0
  189.0390  173.6580  141.8210 C   0  0  2  0  0  3  0  0  0  0  0  0
  195.5350  173.2470  142.4190 C   0  0  0  0  0  1  0  0  0  0  0  0
  188.3360  175.8850  141.5060 C   0  0  0  0  0  2  0  0  0  0  0  0
  189.8010  175.0360  145.8870 C   0  0  0  0  0  3  0  0  0  0  0  0
  187.8110  176.9920  145.8100 C   0  0  0  0  0  3  0  0  0  0  0  0
  187.8160  176.0410  146.8320 C   0  0  0  0  0  3  0  0  0  0  0  0
  187.4600  177.8940  142.8720 C   0  0  0  0  0  2  0  0  0  0  0  0
  191.3940  174.2910  142.0680 C   0  0  1  0  0  3  0  0  0  0  0  0
  189.0730  175.0000  142.4010 N   0  0  2  0  0  0  0  0  0  0  0  0
  192.0780  173.9280  143.3730 C   0  0  2  0  0  3  0  0  0  0  0  0
  190.7900  172.1580  141.2190 O   0  0  0  0  0  0  0  0  0  0  0  0
  190.9090  175.9840  143.8050 C   0  0  1  0  0  3  0  0  0  0  0  0
  1 16  2  0  0  0  0
  1 21  1  0  0  0  0
  5 17  1  0  0  0  0
  5 24  1  0  0  0  0
  6  1  1  0  0  0  0
  8  2  1  6  0  0  0
  8 10  1  0  0  0  0
  8  7  1  0  0  0  0
  9 18  1  1  0  0  0
  9 13  1  0  0  0  0
  9 14  1  0  0  0  0
 12 28  1  0  0  0  0
 13 26  1  0  0  0  0
 14  8  1  0  0  0  0
 15 23  1  0  0  0  0
 15 11  1  0  0  0  0
 16 20  1  0  0  0  0
 17 25  1  0  0  0  0
 17  3  1  0  0  0  0
 19 15  1  0  0  0  0
 19 25  1  0  0  0  0
 20  4  2  0  0  0  0
 21 22  2  0  0  0  0
 22  4  1  0  0  0  0
 23  6  1  0  0  0  0
 24 12  1  0  0  0  0
 24 26  1  0  0  0  0
 25 12  1  0  0  0  0
 26 10  1  0  0  0  0
 27  5  2  0  0  0  0
 28 10  1  0  0  0  0
 28 16  1  0  0  0  0
M  END
>  <MODEL>
6

>  <REMARK>
 VINA RESULT:      -7.5      2.976      6.491
  Name = 
  0 active torsions:
  status: ('A' for Active; 'I' for Inactive)
                            x       y       z     vdW  Elec       q    Type
                         _______ _______ _______ _____ _____    ______ ____

>  <TORSDO>
F 0

$$$$
=
 OpenBabel11112417383D

 28 32  0  0  1  0  0  0  0  0999 V2000
  188.7260  175.5320  145.8610 C   0  0  0  0  0  0  0  0  0  0  0  0
  189.7910  171.6690  142.9720 F   0  0  0  0  0  0  0  0  0  0  0  0
  192.6170  177.3720  143.8800 C   0  0  0  0  0  1  0  0  0  0  0  0
  187.8870  177.5760  144.1370 C   0  0  0  0  0  3  0  0  0  0  0  0
  192.9410  175.1300  142.9340 C   0  0  0  0  0  0  0  0  0  0  0  0
  189.2090  174.4720  146.8050 C   0  0  0  0  0  2  0  0  0  0  0  0
  187.7630  172.3870  142.2720 O   0  0  0  0  0  1  0  0  0  0  0  0
  189.1390  172.5440  142.1150 C   0  0  1  0  0  0  0  0  0  0  0  0
  190.9750  172.5510  140.4660 C   0  0  1  0  0  3  0  0  0  0  0  0
  189.5160  174.0100  142.4190 C   0  0  2  0  0  3  0  0  0  0  0  0
  191.1820  177.0240  146.9990 O   0  0  0  0  0  1  0  0  0  0  0  0
  191.2250  174.1750  144.2000 C   0  0  1  0  0  3  0  0  0  0  0  0
  191.1300  173.9490  140.5170 O   0  0  0  0  0  0  0  0  0  0  0  0
  189.5150  172.1850  140.6860 C   0  0  0  0  0  2  0  0  0  0  0  0
  191.4400  175.6940  147.3450 C   0  0  2  0  0  3  0  0  0  0  0  0
  188.9770  175.4260  144.4760 C   0  0  0  0  0  0  0  0  0  0  0  0
  192.8530  175.9050  144.1880 C   0  0  2  0  0  3  0  0  0  0  0  0
  191.4210  172.0470  139.1090 C   0  0  0  0  0  1  0  0  0  0  0  0
  192.1690  174.9430  146.2270 C   0  0  0  0  0  2  0  0  0  0  0  0
  188.5670  176.4680  143.6270 C   0  0  0  0  0  3  0  0  0  0  0  0
  188.0300  176.6400  146.3610 C   0  0  0  0  0  3  0  0  0  0  0  0
  187.6120  177.6580  145.5020 C   0  0  0  0  0  3  0  0  0  0  0  0
  190.1770  175.0000  147.8700 C   0  0  0  0  0  2  0  0  0  0  0  0
  191.9310  174.0670  142.8530 C   0  0  1  0  0  3  0  0  0  0  0  0
  191.7020  175.3720  144.9140 N   0  0  2  0  0  0  0  0  0  0  0  0
  190.8680  174.4180  141.8280 C   0  0  2  0  0  3  0  0  0  0  0  0
  193.7940  175.3160  142.0780 O   0  0  0  0  0  0  0  0  0  0  0  0
  189.7050  174.2150  143.9230 C   0  0  1  0  0  3  0  0  0  0  0  0
  1 21  1  0  0  0  0
  1  6  1  0  0  0  0
  3 17  1  0  0  0  0
  4 22  1  0  0  0  0
  5 17  1  0  0  0  0
  6 23  1  0  0  0  0
  8  7  1  1  0  0  0
  8 10  1  0  0  0  0
  8  2  1  0  0  0  0
  9 18  1  6  0  0  0
  9 13  1  0  0  0  0
  9 14  1  0  0  0  0
 10 28  1  0  0  0  0
 11 15  1  0  0  0  0
 12 25  1  0  0  0  0
 13 26  1  0  0  0  0
 14  8  1  0  0  0  0
 15 23  1  0  0  0  0
 16  1  2  0  0  0  0
 17 25  1  0  0  0  0
 19 15  1  0  0  0  0
 20  4  2  0  0  0  0
 20 16  1  0  0  0  0
 22 21  2  0  0  0  0
 24  5  1  0  0  0  0
 24 12  1  0  0  0  0
 25 19  1  0  0  0  0
 26 10  1  0  0  0  0
 26 24  1  0  0  0  0
 27  5  2  0  0  0  0
 28 12  1  0  0  0  0
 28 16  1  0  0  0  0
M  END
>  <MODEL>
7

>  <REMARK>
 VINA RESULT:      -7.3      2.969      5.735
  Name = 
  0 active torsions:
  status: ('A' for Active; 'I' for Inactive)
                            x       y       z     vdW  Elec       q    Type
                         _______ _______ _______ _____ _____    ______ ____

>  <TORSDO>
F 0

$$$$
=
 OpenBabel11112417383D

 28 32  0  0  1  0  0  0  0  0999 V2000
  194.2590  173.8540  144.9580 C   0  0  0  0  0  0  0  0  0  0  0  0
  190.3210  175.0770  147.6780 F   0  0  0  0  0  0  0  0  0  0  0  0
  191.1120  173.8500  141.4170 C   0  0  0  0  0  1  0  0  0  0  0  0
  194.8140  176.0870  143.3590 C   0  0  0  0  0  3  0  0  0  0  0  0
  189.4310  174.0950  143.1890 C   0  0  0  0  0  0  0  0  0  0  0  0
  193.9630  172.6290  145.7720 C   0  0  0  0  0  2  0  0  0  0  0  0
  191.7410  176.8260  147.8790 O   0  0  0  0  0  1  0  0  0  0  0  0
  190.7100  176.2820  147.1130 C   0  0  1  0  0  0  0  0  0  0  0  0
  188.4840  176.7330  146.1470 C   0  0  1  0  0  3  0  0  0  0  0  0
  191.2080  176.0860  145.6650 C   0  0  2  0  0  3  0  0  0  0  0  0
  193.6830  171.8970  142.6370 O   0  0  0  0  0  1  0  0  0  0  0  0
  190.9680  173.7410  144.9140 C   0  0  1  0  0  3  0  0  0  0  0  0
  188.9820  176.8510  144.8370 O   0  0  0  0  0  0  0  0  0  0  0  0
  189.5220  177.2310  147.1420 C   0  0  0  0  0  2  0  0  0  0  0  0
  193.1200  171.2450  143.7380 C   0  0  2  0  0  3  0  0  0  0  0  0
  193.2930  174.8740  144.8210 C   0  0  0  0  0  0  0  0  0  0  0  0
  190.4880  173.2170  142.6470 C   0  0  2  0  0  3  0  0  0  0  0  0
  187.2230  177.5600  146.2810 C   0  0  0  0  0  1  0  0  0  0  0  0
  191.6740  171.6840  143.9860 C   0  0  0  0  0  2  0  0  0  0  0  0
  193.5780  175.9770  144.0000 C   0  0  0  0  0  3  0  0  0  0  0  0
  195.5010  173.9800  144.3240 C   0  0  0  0  0  3  0  0  0  0  0  0
  195.7780  175.0920  143.5270 C   0  0  0  0  0  3  0  0  0  0  0  0
  194.0380  171.3300  144.9630 C   0  0  0  0  0  2  0  0  0  0  0  0
  189.6870  174.4960  144.5790 C   0  0  1  0  0  3  0  0  0  0  0  0
  191.4980  173.1030  143.6970 N   0  0  2  0  0  0  0  0  0  0  0  0
  190.0700  175.9630  144.6490 C   0  0  2  0  0  3  0  0  0  0  0  0
  188.4260  174.4110  142.5700 O   0  0  0  0  0  0  0  0  0  0  0  0
  191.9560  174.7580  145.5300 C   0  0  1  0  0  3  0  0  0  0  0  0
  1  6  1  0  0  0  0
  3 17  1  0  0  0  0
  4 22  2  0  0  0  0
  4 20  1  0  0  0  0
  5 24  1  0  0  0  0
  8 14  1  0  0  0  0
  8  2  1  1  0  0  0
  8  7  1  0  0  0  0
  9 18  1  6  0  0  0
  9 14  1  0  0  0  0
 10  8  1  0  0  0  0
 11 15  1  0  0  0  0
 12 28  1  0  0  0  0
 13  9  1  0  0  0  0
 15 19  1  0  0  0  0
 15 23  1  0  0  0  0
 16  1  1  0  0  0  0
 16 28  1  0  0  0  0
 17  5  1  0  0  0  0
 17 25  1  0  0  0  0
 20 16  2  0  0  0  0
 21  1  2  0  0  0  0
 22 21  1  0  0  0  0
 23  6  1  0  0  0  0
 24 26  1  0  0  0  0
 24 12  1  0  0  0  0
 25 19  1  0  0  0  0
 25 12  1  0  0  0  0
 26 13  1  0  0  0  0
 26 10  1  0  0  0  0
 27  5  2  0  0  0  0
 28 10  1  0  0  0  0
M  END
>  <MODEL>
8

>  <REMARK>
 VINA RESULT:      -7.2      3.178      4.698
  Name = 
  0 active torsions:
  status: ('A' for Active; 'I' for Inactive)
                            x       y       z     vdW  Elec       q    Type
                         _______ _______ _______ _____ _____    ______ ____

>  <TORSDO>
F 0

$$$$
=
 OpenBabel11112417383D

 28 32  0  0  1  0  0  0  0  0999 V2000
  193.6090  175.4060  141.4100 C   0  0  0  0  0  0  0  0  0  0  0  0
  190.6910  178.6410  143.7380 F   0  0  0  0  0  0  0  0  0  0  0  0
  193.6520  173.2580  145.6330 C   0  0  0  0  0  1  0  0  0  0  0  0
  192.1060  173.0550  141.1560 C   0  0  0  0  0  3  0  0  0  0  0  0
  192.5060  175.2750  146.4370 C   0  0  0  0  0  0  0  0  0  0  0  0
  194.4530  176.6360  141.5680 C   0  0  0  0  0  2  0  0  0  0  0  0
  189.4120  177.7780  142.0840 O   0  0  0  0  0  1  0  0  0  0  0  0
  189.8270  177.6090  143.4050 C   0  0  1  0  0  0  0  0  0  0  0  0
  189.0410  177.3000  145.7240 C   0  0  1  0  0  3  0  0  0  0  0  0
  190.5180  176.2350  143.5420 C   0  0  2  0  0  3  0  0  0  0  0  0
  195.8580  174.1940  143.1500 O   0  0  0  0  0  1  0  0  0  0  0  0
  192.8160  176.4410  144.4350 C   0  0  1  0  0  3  0  0  0  0  0  0
  189.4060  175.9410  145.7560 O   0  0  0  0  0  0  0  0  0  0  0  0
  188.6120  177.6860  144.3160 C   0  0  0  0  0  2  0  0  0  0  0  0
  196.0240  175.5680  143.3440 C   0  0  2  0  0  3  0  0  0  0  0  0
  192.4340  175.2420  142.1730 C   0  0  0  0  0  0  0  0  0  0  0  0
  193.7500  174.7600  145.8310 C   0  0  2  0  0  3  0  0  0  0  0  0
  187.8920  177.5340  146.6810 C   0  0  0  0  0  1  0  0  0  0  0  0
  195.1540  176.0940  144.4890 C   0  0  0  0  0  2  0  0  0  0  0  0
  191.7000  174.0500  142.0490 C   0  0  0  0  0  3  0  0  0  0  0  0
  193.9990  174.4100  140.5070 C   0  0  0  0  0  3  0  0  0  0  0  0
  193.2500  173.2390  140.3790 C   0  0  0  0  0  3  0  0  0  0  0  0
  195.8850  176.3370  142.0240 C   0  0  0  0  0  2  0  0  0  0  0  0
  191.8480  176.2910  145.6030 C   0  0  1  0  0  3  0  0  0  0  0  0
  193.8660  175.4120  144.5270 N   0  0  2  0  0  0  0  0  0  0  0  0
  190.5780  175.7340  144.9870 C   0  0  2  0  0  3  0  0  0  0  0  0
  192.0930  174.9350  147.5360 O   0  0  0  0  0  0  0  0  0  0  0  0
  191.9890  176.3300  143.1340 C   0  0  1  0  0  3  0  0  0  0  0  0
  1  6  1  0  0  0  0
  1 16  1  0  0  0  0
  3 17  1  0  0  0  0
  4 20  1  0  0  0  0
  5 27  2  0  0  0  0
  6 23  1  0  0  0  0
  8  7  1  6  0  0  0
  8 10  1  0  0  0  0
  8  2  1  0  0  0  0
  8 14  1  0  0  0  0
  9 13  1  0  0  0  0
  9 18  1  1  0  0  0
 10 26  1  0  0  0  0
 11 15  1  0  0  0  0
 12 25  1  0  0  0  0
 12 24  1  0  0  0  0
 14  9  1  0  0  0  0
 15 19  1  0  0  0  0
 16 28  1  0  0  0  0
 17  5  1  0  0  0  0
 19 25  1  0  0  0  0
 20 16  2  0  0  0  0
 21  1  2  0  0  0  0
 22 21  1  0  0  0  0
 22  4  2  0  0  0  0
 23 15  1  0  0  0  0
 24  5  1  0  0  0  0
 25 17  1  0  0  0  0
 26 24  1  0  0  0  0
 26 13  1  0  0  0  0
 28 10  1  0  0  0  0
 28 12  1  0  0  0  0
M  END
>  <MODEL>
9

>  <REMARK>
 VINA RESULT:      -7.2      3.546      6.070
  Name = 
  0 active torsions:
  status: ('A' for Active; 'I' for Inactive)
                            x       y       z     vdW  Elec       q    Type
                         _______ _______ _______ _____ _____    ______ ____

>  <TORSDO>
F 0

$$$$
