=
 OpenBabel11112416343D

 32 38  0  0  1  0  0  0  0  0999 V2000
  185.1650  177.3790  146.6830 C   0  0  1  0  0  3  0  0  0  0  0  0
  189.8420  176.0160  144.8480 C   0  0  0  0  0  0  0  0  0  0  0  0
  188.8980  174.0380  140.4800 C   0  0  0  0  0  3  0  0  0  0  0  0
  190.2210  173.5940  140.4050 O   0  0  0  0  0  0  0  0  0  0  0  0
  192.1700  175.9390  145.7720 C   0  0  0  0  0  0  0  0  0  0  0  0
  193.4940  175.5660  145.5640 C   0  0  0  0  0  0  0  0  0  0  0  0
  187.9930  177.3410  145.9350 C   0  0  1  0  0  3  0  0  0  0  0  0
  187.4920  176.1510  143.8310 C   0  0  0  0  0  2  0  0  0  0  0  0
  195.2220  174.7300  144.5010 N   0  0  0  0  0  0  0  0  0  0  0  0
  185.5430  176.8480  145.2960 C   0  0  2  0  0  3  0  0  0  0  0  0
  188.4910  174.7700  141.5120 C   0  0  0  0  0  3  0  0  0  0  0  0
  188.9480  175.7230  143.7800 C   0  0  0  0  0  0  0  0  0  0  0  0
  189.4210  175.1010  142.6120 C   0  0  0  0  0  0  0  0  0  0  0  0
  191.6750  175.0340  143.5290 C   0  0  0  0  0  0  0  0  0  0  0  0
  195.6610  175.1660  145.6750 N   0  0  0  0  0  0  0  0  0  0  0  0
  186.2330  177.2230  147.6250 O   0  0  0  0  0  0  0  0  0  0  0  0
  187.0140  176.3960  145.2490 C   0  0  2  0  0  3  0  0  0  0  0  0
  194.6160  175.6930  146.3640 C   0  0  0  0  0  3  0  0  0  0  0  0
  187.4290  177.8820  147.2510 C   0  0  0  0  0  2  0  0  0  0  0  0
  185.3740  178.3480  145.5120 C   0  0  1  0  0  3  0  0  0  0  0  0
  191.2710  174.1800  141.1780 C   0  0  0  0  0  2  0  0  0  0  0  0
  190.7750  174.7510  142.4890 C   0  0  0  0  0  0  0  0  0  0  0  0
  193.0360  174.6830  143.3790 C   0  0  0  0  0  3  0  0  0  0  0  0
  189.2970  176.5960  146.1400 C   0  0  0  0  0  2  0  0  0  0  0  0
  191.8310  176.5620  146.9680 O   0  0  0  0  0  1  0  0  0  0  0  0
  196.0640  174.1050  143.4960 C   0  0  0  0  0  1  0  0  0  0  0  0
  191.2180  175.6690  144.7350 C   0  0  0  0  0  0  0  0  0  0  0  0
  193.9060  174.9660  144.4190 C   0  0  0  0  0  0  0  0  0  0  0  0
  184.0820  178.7660  144.9970 N   0  0  0  0  0  2  0  0  0  0  0  0
  183.8300  178.8440  143.5950 C   0  0  0  0  0  0  0  0  0  0  0  0
  184.8210  178.5140  142.6780 O   0  0  0  0  0  0  0  0  0  0  0  0
  182.6990  179.2130  143.1850 O   0  0  0  0  0  1  0  0  0  0  0  0
  1 16  1  1  0  0  0
  2 24  1  0  0  0  0
  3 11  2  0  0  0  0
  4  3  1  0  0  0  0
  4 21  1  0  0  0  0
  5 25  1  0  0  0  0
  6  5  1  0  0  0  0
  6 18  1  0  0  0  0
  7 24  1  1  0  0  0
  7 19  1  0  0  0  0
  8 17  1  0  0  0  0
  9 15  1  0  0  0  0
 10 20  1  0  0  0  0
 10  1  1  0  0  0  0
 11 13  1  0  0  0  0
 12  8  1  0  0  0  0
 12  2  2  0  0  0  0
 13 12  1  0  0  0  0
 14 27  1  0  0  0  0
 15 18  2  0  0  0  0
 17 10  1  0  0  0  0
 17  7  1  0  0  0  0
 19 16  1  0  0  0  0
 20  1  1  0  0  0  0
 21 22  1  0  0  0  0
 22 13  2  0  0  0  0
 22 14  1  0  0  0  0
 23 14  2  0  0  0  0
 23 28  1  0  0  0  0
 26  9  1  0  0  0  0
 27  2  1  0  0  0  0
 27  5  2  0  0  0  0
 28  9  1  0  0  0  0
 28  6  2  0  0  0  0
 29 20  1  0  0  0  0
 30 29  1  0  0  0  0
 31 30  2  0  0  0  0
 32 30  1  0  0  0  0
M  END
>  <MODEL>
1

>  <REMARK>
 VINA RESULT:      -9.0      0.000      0.000
  Name = 
  1 active torsions:
  status: ('A' for Active; 'I' for Inactive)
    1  A    between atoms: C_20  and  N_29
                            x       y       z     vdW  Elec       q    Type
                         _______ _______ _______ _____ _____    ______ ____

>  <TORSDO>
F 1

$$$$
=
 OpenBabel11112416343D

 32 38  0  0  1  0  0  0  0  0999 V2000
  191.8700  174.7080  143.8860 C   0  0  1  0  0  3  0  0  0  0  0  0
  187.2160  177.0210  143.5880 C   0  0  0  0  0  0  0  0  0  0  0  0
  186.0620  178.0190  148.2310 C   0  0  0  0  0  3  0  0  0  0  0  0
  184.7690  178.3610  147.8260 O   0  0  0  0  0  0  0  0  0  0  0  0
  185.5370  177.4280  141.7730 C   0  0  0  0  0  0  0  0  0  0  0  0
  184.2700  177.8990  141.4420 C   0  0  0  0  0  0  0  0  0  0  0  0
  189.6110  176.3940  143.1070 C   0  0  1  0  0  3  0  0  0  0  0  0
  188.9370  176.7000  145.4620 C   0  0  0  0  0  2  0  0  0  0  0  0
  182.2850  178.7760  141.7650 N   0  0  0  0  0  0  0  0  0  0  0  0
  191.0540  175.3870  144.9920 C   0  0  2  0  0  3  0  0  0  0  0  0
  186.9800  177.6770  147.3320 C   0  0  0  0  0  3  0  0  0  0  0  0
  187.5570  177.0960  144.9680 C   0  0  0  0  0  0  0  0  0  0  0  0
  186.6410  177.6230  145.8950 C   0  0  0  0  0  0  0  0  0  0  0  0
  185.0220  178.0080  144.1170 C   0  0  0  0  0  0  0  0  0  0  0  0
  182.3940  178.5280  140.4650 N   0  0  0  0  0  0  0  0  0  0  0  0
  191.0930  174.4950  142.7010 O   0  0  0  0  0  0  0  0  0  0  0  0
  189.6480  175.7710  144.4970 C   0  0  2  0  0  3  0  0  0  0  0  0
  183.6150  177.9830  140.2260 C   0  0  0  0  0  3  0  0  0  0  0  0
  190.5640  175.6830  142.1420 C   0  0  0  0  0  2  0  0  0  0  0  0
  192.1750  176.1530  144.2980 C   0  0  1  0  0  3  0  0  0  0  0  0
  184.4580  178.7270  146.4800 C   0  0  0  0  0  2  0  0  0  0  0  0
  185.3780  178.0700  145.4740 C   0  0  0  0  0  0  0  0  0  0  0  0
  183.7500  178.4740  143.7150 C   0  0  0  0  0  3  0  0  0  0  0  0
  188.1760  176.3590  142.6170 C   0  0  0  0  0  2  0  0  0  0  0  0
  186.3560  176.9440  140.7590 O   0  0  0  0  0  1  0  0  0  0  0  0
  181.1110  179.3630  142.3880 C   0  0  0  0  0  1  0  0  0  0  0  0
  185.9410  177.4730  143.1480 C   0  0  0  0  0  0  0  0  0  0  0  0
  183.4180  178.3990  142.3720 C   0  0  0  0  0  0  0  0  0  0  0  0
  193.3470  176.1730  145.1550 N   0  0  0  0  0  2  0  0  0  0  0  0
  194.6620  176.2960  144.6150 C   0  0  0  0  0  0  0  0  0  0  0  0
  194.8560  176.4070  143.2430 O   0  0  0  0  0  0  0  0  0  0  0  0
  195.6540  176.3070  145.3880 O   0  0  0  0  0  1  0  0  0  0  0  0
  1 16  1  6  0  0  0
  1 20  1  0  0  0  0
  1 10  1  0  0  0  0
  2 12  1  0  0  0  0
  4  3  1  0  0  0  0
  5 27  1  0  0  0  0
  6  5  2  0  0  0  0
  6 28  1  0  0  0  0
  7 19  1  6  0  0  0
  7 17  1  0  0  0  0
  9 28  1  0  0  0  0
  9 26  1  0  0  0  0
 11  3  2  0  0  0  0
 12  8  1  0  0  0  0
 12 13  2  0  0  0  0
 13 11  1  0  0  0  0
 14 22  2  0  0  0  0
 15  9  1  0  0  0  0
 17 10  1  0  0  0  0
 17  8  1  0  0  0  0
 18 15  2  0  0  0  0
 18  6  1  0  0  0  0
 19 16  1  0  0  0  0
 20 10  1  0  0  0  0
 20 29  1  0  0  0  0
 21  4  1  0  0  0  0
 22 13  1  0  0  0  0
 22 21  1  0  0  0  0
 23 14  1  0  0  0  0
 24  7  1  0  0  0  0
 24  2  1  0  0  0  0
 25  5  1  0  0  0  0
 27  2  2  0  0  0  0
 27 14  1  0  0  0  0
 28 23  2  0  0  0  0
 30 29  1  0  0  0  0
 30 32  1  0  0  0  0
 31 30  2  0  0  0  0
M  END
>  <MODEL>
2

>  <REMARK>
 VINA RESULT:      -8.7      2.266      8.975
  Name = 
  1 active torsions:
  status: ('A' for Active; 'I' for Inactive)
    1  A    between atoms: C_20  and  N_29
                            x       y       z     vdW  Elec       q    Type
                         _______ _______ _______ _____ _____    ______ ____

>  <TORSDO>
F 1

$$$$
=
 OpenBabel11112416343D

 32 38  0  0  1  0  0  0  0  0999 V2000
  195.4300  175.3080  145.2270 C   0  0  1  0  0  3  0  0  0  0  0  0
  190.3190  176.2960  145.2250 C   0  0  0  0  0  0  0  0  0  0  0  0
  188.7720  174.6570  140.8880 C   0  0  0  0  0  3  0  0  0  0  0  0
  187.5340  175.2650  141.1100 O   0  0  0  0  0  0  0  0  0  0  0  0
  188.7400  177.5410  146.7200 C   0  0  0  0  0  0  0  0  0  0  0  0
  187.4450  178.0120  146.9120 C   0  0  0  0  0  0  0  0  0  0  0  0
  192.6150  175.5720  145.9760 C   0  0  1  0  0  3  0  0  0  0  0  0
  191.8790  174.9420  143.7040 C   0  0  0  0  0  2  0  0  0  0  0  0
  185.3290  178.3670  146.4570 N   0  0  0  0  0  0  0  0  0  0  0  0
  194.3640  174.8910  144.2070 C   0  0  2  0  0  3  0  0  0  0  0  0
  189.7170  174.6930  141.8230 C   0  0  0  0  0  3  0  0  0  0  0  0
  190.5400  175.5890  144.0090 C   0  0  0  0  0  0  0  0  0  0  0  0
  189.4850  175.4020  143.0980 C   0  0  0  0  0  0  0  0  0  0  0  0
  187.9680  176.6180  144.5640 C   0  0  0  0  0  0  0  0  0  0  0  0
  185.5710  178.9230  147.6380 N   0  0  0  0  0  0  0  0  0  0  0  0
  194.9410  176.3010  146.1360 O   0  0  0  0  0  0  0  0  0  0  0  0
  193.0110  175.5610  144.5040 C   0  0  2  0  0  3  0  0  0  0  0  0
  186.8770  178.7230  147.9550 C   0  0  0  0  0  3  0  0  0  0  0  0
  193.8090  175.8900  146.8800 C   0  0  0  0  0  2  0  0  0  0  0  0
  194.8070  173.9080  145.2860 C   0  0  1  0  0  3  0  0  0  0  0  0
  187.0730  175.6110  142.4190 C   0  0  0  0  0  2  0  0  0  0  0  0
  188.2090  175.9190  143.3700 C   0  0  0  0  0  0  0  0  0  0  0  0
  186.6730  177.1190  144.8210 C   0  0  0  0  0  3  0  0  0  0  0  0
  191.4900  176.5740  146.1490 C   0  0  0  0  0  2  0  0  0  0  0  0
  189.6910  177.7780  147.7060 O   0  0  0  0  0  1  0  0  0  0  0  0
  184.0330  178.3820  145.7990 C   0  0  0  0  0  1  0  0  0  0  0  0
  189.0290  176.8220  145.5130 C   0  0  0  0  0  0  0  0  0  0  0  0
  186.4580  177.8090  146.0040 C   0  0  0  0  0  0  0  0  0  0  0  0
  195.7300  172.9450  144.7110 N   0  0  0  0  0  2  0  0  0  0  0  0
  195.5980  171.5470  144.9600 C   0  0  0  0  0  0  0  0  0  0  0  0
  194.5710  171.0650  145.7630 O   0  0  0  0  0  1  0  0  0  0  0  0
  196.4180  170.7430  144.4470 O   0  0  0  0  0  0  0  0  0  0  0  0
  1 20  1  0  0  0  0
  1 16  1  1  0  0  0
  2 27  1  0  0  0  0
  2 24  1  0  0  0  0
  3  4  1  0  0  0  0
  3 11  2  0  0  0  0
  4 21  1  0  0  0  0
  5  6  1  0  0  0  0
  5 25  1  0  0  0  0
  6 18  1  0  0  0  0
  7 24  1  6  0  0  0
  7 19  1  0  0  0  0
  8 12  1  0  0  0  0
  8 17  1  0  0  0  0
  9 15  1  0  0  0  0
 10 17  1  0  0  0  0
 10  1  1  0  0  0  0
 10 20  1  0  0  0  0
 11 13  1  0  0  0  0
 12  2  2  0  0  0  0
 13 22  2  0  0  0  0
 13 12  1  0  0  0  0
 14 23  2  0  0  0  0
 14 27  1  0  0  0  0
 15 18  2  0  0  0  0
 16 19  1  0  0  0  0
 17  7  1  0  0  0  0
 21 22  1  0  0  0  0
 22 14  1  0  0  0  0
 23 28  1  0  0  0  0
 26  9  1  0  0  0  0
 27  5  2  0  0  0  0
 28  9  1  0  0  0  0
 28  6  2  0  0  0  0
 29 30  1  0  0  0  0
 29 20  1  0  0  0  0
 30 31  1  0  0  0  0
 32 30  2  0  0  0  0
M  END
>  <MODEL>
3

>  <REMARK>
 VINA RESULT:      -8.6      2.353      7.954
  Name = 
  1 active torsions:
  status: ('A' for Active; 'I' for Inactive)
    1  A    between atoms: C_20  and  N_29
                            x       y       z     vdW  Elec       q    Type
                         _______ _______ _______ _____ _____    ______ ____

>  <TORSDO>
F 1

$$$$
=
 OpenBabel11112416343D

 32 38  0  0  1  0  0  0  0  0999 V2000
  189.7920  172.2050  139.4230 C   0  0  1  0  0  3  0  0  0  0  0  0
  188.4910  175.4620  143.2700 C   0  0  0  0  0  0  0  0  0  0  0  0
  192.0690  174.9400  146.5580 C   0  0  0  0  0  3  0  0  0  0  0  0
  191.3250  175.6910  147.4730 O   0  0  0  0  0  0  0  0  0  0  0  0
  186.4930  176.8710  143.8180 C   0  0  0  0  0  0  0  0  0  0  0  0
  185.8740  177.7050  144.7440 C   0  0  0  0  0  0  0  0  0  0  0  0
  188.9010  174.5260  140.9650 C   0  0  1  0  0  3  0  0  0  0  0  0
  190.5920  174.1000  142.7140 C   0  0  0  0  0  2  0  0  0  0  0  0
  185.6270  178.8310  146.6100 N   0  0  0  0  0  0  0  0  0  0  0  0
  190.5940  172.6030  140.6670 C   0  0  2  0  0  3  0  0  0  0  0  0
  191.6200  174.7490  145.3210 C   0  0  0  0  0  3  0  0  0  0  0  0
  189.7620  174.9510  143.6580 C   0  0  0  0  0  0  0  0  0  0  0  0
  190.3140  175.3000  144.9030 C   0  0  0  0  0  0  0  0  0  0  0  0
  188.3610  176.6610  145.4170 C   0  0  0  0  0  0  0  0  0  0  0  0
  184.5440  179.0540  145.8750 N   0  0  0  0  0  0  0  0  0  0  0  0
  188.4230  172.6200  139.5130 O   0  0  0  0  0  0  0  0  0  0  0  0
  189.7470  173.4490  141.6350 C   0  0  2  0  0  3  0  0  0  0  0  0
  184.6620  178.3710  144.7070 C   0  0  0  0  0  3  0  0  0  0  0  0
  188.2570  174.0170  139.6720 C   0  0  0  0  0  2  0  0  0  0  0  0
  190.8700  173.2920  139.3360 C   0  0  1  0  0  3  0  0  0  0  0  0
  190.2830  176.5810  147.0670 C   0  0  0  0  0  2  0  0  0  0  0  0
  189.6150  176.1430  145.7820 C   0  0  0  0  0  0  0  0  0  0  0  0
  187.6820  177.5170  146.3130 C   0  0  0  0  0  3  0  0  0  0  0  0
  187.8660  174.9980  141.9670 C   0  0  0  0  0  2  0  0  0  0  0  0
  185.8480  176.6160  142.6130 O   0  0  0  0  0  1  0  0  0  0  0  0
  185.8510  179.4030  147.9270 C   0  0  0  0  0  1  0  0  0  0  0  0
  187.7740  176.3210  144.1500 C   0  0  0  0  0  0  0  0  0  0  0  0
  186.4450  178.0130  145.9360 C   0  0  0  0  0  0  0  0  0  0  0  0
  192.0720  172.7320  138.7430 N   0  0  0  0  0  2  0  0  0  0  0  0
  193.3500  173.3350  138.9420 C   0  0  0  0  0  0  0  0  0  0  0  0
  193.4790  174.4800  139.7180 O   0  0  0  0  0  1  0  0  0  0  0  0
  194.3690  172.8230  138.4110 O   0  0  0  0  0  0  0  0  0  0  0  0
  1 16  1  1  0  0  0
  1 10  1  0  0  0  0
  2 12  2  0  0  0  0
  2 27  1  0  0  0  0
  3  4  1  0  0  0  0
  5 27  2  0  0  0  0
  5  6  1  0  0  0  0
  6 28  2  0  0  0  0
  7 19  1  6  0  0  0
  7 17  1  0  0  0  0
  7 24  1  0  0  0  0
  8 12  1  0  0  0  0
  9 26  1  0  0  0  0
 10 17  1  0  0  0  0
 11  3  2  0  0  0  0
 12 13  1  0  0  0  0
 13 11  1  0  0  0  0
 13 22  2  0  0  0  0
 14 22  1  0  0  0  0
 14 23  2  0  0  0  0
 15  9  1  0  0  0  0
 16 19  1  0  0  0  0
 17  8  1  0  0  0  0
 18  6  1  0  0  0  0
 18 15  2  0  0  0  0
 20  1  1  0  0  0  0
 20 10  1  0  0  0  0
 21  4  1  0  0  0  0
 22 21  1  0  0  0  0
 24  2  1  0  0  0  0
 25  5  1  0  0  0  0
 27 14  1  0  0  0  0
 28 23  1  0  0  0  0
 28  9  1  0  0  0  0
 29 30  1  0  0  0  0
 29 20  1  0  0  0  0
 30 31  1  0  0  0  0
 32 30  2  0  0  0  0
M  END
>  <MODEL>
4

>  <REMARK>
 VINA RESULT:      -8.6      2.724      8.124
  Name = 
  1 active torsions:
  status: ('A' for Active; 'I' for Inactive)
    1  A    between atoms: C_20  and  N_29
                            x       y       z     vdW  Elec       q    Type
                         _______ _______ _______ _____ _____    ______ ____

>  <TORSDO>
F 1

$$$$
=
 OpenBabel11112416343D

 32 38  0  0  1  0  0  0  0  0999 V2000
  185.7960  179.1110  143.1520 C   0  0  1  0  0  3  0  0  0  0  0  0
  188.8590  175.0990  141.8790 C   0  0  0  0  0  0  0  0  0  0  0  0
  191.7370  174.4870  145.7820 C   0  0  0  0  0  3  0  0  0  0  0  0
  192.5220  173.5910  145.0510 O   0  0  0  0  0  0  0  0  0  0  0  0
  189.2770  173.7590  139.8030 C   0  0  0  0  0  0  0  0  0  0  0  0
  190.0380  172.7700  139.1880 C   0  0  0  0  0  0  0  0  0  0  0  0
  186.8200  176.5530  142.1690 C   0  0  1  0  0  3  0  0  0  0  0  0
  188.4110  176.3870  144.0500 C   0  0  0  0  0  2  0  0  0  0  0  0
  191.5900  171.2310  138.9990 N   0  0  0  0  0  0  0  0  0  0  0  0
  186.8040  178.3490  144.0200 C   0  0  2  0  0  3  0  0  0  0  0  0
  190.6450  175.0210  145.2420 C   0  0  0  0  0  3  0  0  0  0  0  0
  189.2100  175.3930  143.2270 C   0  0  0  0  0  0  0  0  0  0  0  0
  190.2600  174.6980  143.8520 C   0  0  0  0  0  0  0  0  0  0  0  0
  190.6510  173.4100  141.8240 C   0  0  0  0  0  0  0  0  0  0  0  0
  190.9540  171.2870  137.8350 N   0  0  0  0  0  0  0  0  0  0  0  0
  185.9420  178.7950  141.7620 O   0  0  0  0  0  0  0  0  0  0  0  0
  187.6280  177.3540  143.1830 C   0  0  2  0  0  3  0  0  0  0  0  0
  189.9820  172.2320  137.9140 C   0  0  0  0  0  3  0  0  0  0  0  0
  185.7740  177.4210  141.4650 C   0  0  0  0  0  2  0  0  0  0  0  0
  185.3220  177.9990  144.0970 C   0  0  1  0  0  3  0  0  0  0  0  0
  192.0350  172.9170  143.8880 C   0  0  0  0  0  2  0  0  0  0  0  0
  190.9820  173.7180  143.1540 C   0  0  0  0  0  0  0  0  0  0  0  0
  191.3840  172.4110  141.1440 C   0  0  0  0  0  3  0  0  0  0  0  0
  187.7910  175.9260  141.1880 C   0  0  0  0  0  2  0  0  0  0  0  0
  188.2540  174.3610  139.0790 O   0  0  0  0  0  1  0  0  0  0  0  0
  192.6930  170.3280  139.2820 C   0  0  0  0  0  1  0  0  0  0  0  0
  189.5810  174.1050  141.1600 C   0  0  0  0  0  0  0  0  0  0  0  0
  191.0450  172.1260  139.8320 C   0  0  0  0  0  0  0  0  0  0  0  0
  184.7480  178.5940  145.2910 N   0  0  0  0  0  2  0  0  0  0  0  0
  184.7770  177.9180  146.5470 C   0  0  0  0  0  0  0  0  0  0  0  0
  185.3650  176.6640  146.6620 O   0  0  0  0  0  0  0  0  0  0  0  0
  184.2670  178.4640  147.5590 O   0  0  0  0  0  1  0  0  0  0  0  0
  1 16  1  6  0  0  0
  1 10  1  0  0  0  0
  1 20  1  0  0  0  0
  2 12  1  0  0  0  0
  4  3  1  0  0  0  0
  5 27  1  0  0  0  0
  6  5  2  0  0  0  0
  6 28  1  0  0  0  0
  7 24  1  6  0  0  0
  7 17  1  0  0  0  0
  9 26  1  0  0  0  0
  9 28  1  0  0  0  0
 10 20  1  0  0  0  0
 11  3  2  0  0  0  0
 12 13  2  0  0  0  0
 12  8  1  0  0  0  0
 13 11  1  0  0  0  0
 14 22  2  0  0  0  0
 15 18  2  0  0  0  0
 15  9  1  0  0  0  0
 17 10  1  0  0  0  0
 17  8  1  0  0  0  0
 18  6  1  0  0  0  0
 19 16  1  0  0  0  0
 19  7  1  0  0  0  0
 20 29  1  0  0  0  0
 21  4  1  0  0  0  0
 22 13  1  0  0  0  0
 22 21  1  0  0  0  0
 23 14  1  0  0  0  0
 24  2  1  0  0  0  0
 25  5  1  0  0  0  0
 27 14  1  0  0  0  0
 27  2  2  0  0  0  0
 28 23  2  0  0  0  0
 29 30  1  0  0  0  0
 30 31  2  0  0  0  0
 30 32  1  0  0  0  0
M  END
>  <MODEL>
5

>  <REMARK>
 VINA RESULT:      -8.4      2.819      5.221
  Name = 
  1 active torsions:
  status: ('A' for Active; 'I' for Inactive)
    1  A    between atoms: C_20  and  N_29
                            x       y       z     vdW  Elec       q    Type
                         _______ _______ _______ _____ _____    ______ ____

>  <TORSDO>
F 1

$$$$
=
 OpenBabel11112416343D

 32 38  0  0  1  0  0  0  0  0999 V2000
  195.2780  175.2900  145.6230 C   0  0  1  0  0  3  0  0  0  0  0  0
  190.4020  176.0360  143.9600 C   0  0  0  0  0  0  0  0  0  0  0  0
  190.1700  173.5690  139.7470 C   0  0  0  0  0  3  0  0  0  0  0  0
  188.9270  174.1530  139.4850 O   0  0  0  0  0  0  0  0  0  0  0  0
  188.4690  177.4620  144.6750 C   0  0  0  0  0  0  0  0  0  0  0  0
  187.1800  177.9040  144.3930 C   0  0  0  0  0  0  0  0  0  0  0  0
  192.3700  175.5630  145.4640 C   0  0  1  0  0  3  0  0  0  0  0  0
  192.3220  174.4980  143.2360 C   0  0  0  0  0  2  0  0  0  0  0  0
  185.2930  178.0770  143.2880 N   0  0  0  0  0  0  0  0  0  0  0  0
  194.5510  174.6480  144.4360 C   0  0  2  0  0  3  0  0  0  0  0  0
  190.8010  173.8170  140.8910 C   0  0  0  0  0  3  0  0  0  0  0  0
  190.9590  175.1300  143.0140 C   0  0  0  0  0  0  0  0  0  0  0  0
  190.2150  174.7350  141.8890 C   0  0  0  0  0  0  0  0  0  0  0  0
  188.3500  176.1300  142.6000 C   0  0  0  0  0  0  0  0  0  0  0  0
  185.1870  178.8490  144.3630 N   0  0  0  0  0  0  0  0  0  0  0  0
  194.5560  176.4100  146.1500 O   0  0  0  0  0  0  0  0  0  0  0  0
  193.1780  175.3000  144.1980 C   0  0  2  0  0  3  0  0  0  0  0  0
  186.3400  178.7670  145.0750 C   0  0  0  0  0  3  0  0  0  0  0  0
  193.2510  176.0910  146.5980 C   0  0  0  0  0  2  0  0  0  0  0  0
  194.6480  173.8980  145.7600 C   0  0  1  0  0  3  0  0  0  0  0  0
  188.1090  174.7110  140.5150 C   0  0  0  0  0  2  0  0  0  0  0  0
  188.9210  175.2360  141.6790 C   0  0  0  0  0  0  0  0  0  0  0  0
  187.0420  176.6120  142.3740 C   0  0  0  0  0  3  0  0  0  0  0  0
  191.2550  176.5290  145.1140 C   0  0  0  0  0  2  0  0  0  0  0  0
  189.0940  177.9170  145.8310 O   0  0  0  0  0  1  0  0  0  0  0  0
  184.2460  177.9160  142.2930 C   0  0  0  0  0  1  0  0  0  0  0  0
  189.0890  176.5500  143.7600 C   0  0  0  0  0  0  0  0  0  0  0  0
  186.4990  177.4960  143.2930 C   0  0  0  0  0  0  0  0  0  0  0  0
  195.6870  172.8880  145.6660 N   0  0  0  0  0  2  0  0  0  0  0  0
  195.3740  171.5190  145.4140 C   0  0  0  0  0  0  0  0  0  0  0  0
  194.0560  171.1140  145.2440 O   0  0  0  0  0  0  0  0  0  0  0  0
  196.3010  170.6720  145.3420 O   0  0  0  0  0  1  0  0  0  0  0  0
  1 20  1  0  0  0  0
  1 16  1  1  0  0  0
  2 24  1  0  0  0  0
  3 11  2  0  0  0  0
  4  3  1  0  0  0  0
  4 21  1  0  0  0  0
  5 25  1  0  0  0  0
  6  5  1  0  0  0  0
  6 18  1  0  0  0  0
  7 24  1  6  0  0  0
  7 19  1  0  0  0  0
  8 17  1  0  0  0  0
  9 28  1  0  0  0  0
  9 15  1  0  0  0  0
 10  1  1  0  0  0  0
 10 20  1  0  0  0  0
 11 13  1  0  0  0  0
 12  8  1  0  0  0  0
 12  2  2  0  0  0  0
 13 12  1  0  0  0  0
 14 27  1  0  0  0  0
 15 18  2  0  0  0  0
 16 19  1  0  0  0  0
 17 10  1  0  0  0  0
 17  7  1  0  0  0  0
 21 22  1  0  0  0  0
 22 13  2  0  0  0  0
 22 14  1  0  0  0  0
 23 14  2  0  0  0  0
 23 28  1  0  0  0  0
 26  9  1  0  0  0  0
 27  2  1  0  0  0  0
 27  5  2  0  0  0  0
 28  6  2  0  0  0  0
 29 20  1  0  0  0  0
 30 29  1  0  0  0  0
 31 30  2  0  0  0  0
 32 30  1  0  0  0  0
M  END
>  <MODEL>
6

>  <REMARK>
 VINA RESULT:      -8.2      2.315      7.858
  Name = 
  1 active torsions:
  status: ('A' for Active; 'I' for Inactive)
    1  A    between atoms: C_20  and  N_29
                            x       y       z     vdW  Elec       q    Type
                         _______ _______ _______ _____ _____    ______ ____

>  <TORSDO>
F 1

$$$$
=
 OpenBabel11112416343D

 32 38  0  0  1  0  0  0  0  0999 V2000
  191.9430  170.0870  142.7580 C   0  0  1  0  0  3  0  0  0  0  0  0
  189.4950  174.5880  143.6790 C   0  0  0  0  0  0  0  0  0  0  0  0
  191.3550  176.1280  147.9290 C   0  0  0  0  0  3  0  0  0  0  0  0
  190.3750  177.1240  147.9860 O   0  0  0  0  0  0  0  0  0  0  0  0
  187.5870  175.8310  142.6320 C   0  0  0  0  0  0  0  0  0  0  0  0
  186.7250  176.9200  142.7080 C   0  0  0  0  0  0  0  0  0  0  0  0
  190.7210  172.7320  142.4920 C   0  0  1  0  0  3  0  0  0  0  0  0
  191.5030  173.3960  144.7380 C   0  0  0  0  0  2  0  0  0  0  0  0
  185.8440  178.7550  143.5270 N   0  0  0  0  0  0  0  0  0  0  0  0
  192.2010  171.1220  143.8600 C   0  0  2  0  0  3  0  0  0  0  0  0
  191.4330  175.3210  146.8750 C   0  0  0  0  0  3  0  0  0  0  0  0
  190.4430  174.4830  144.7360 C   0  0  0  0  0  0  0  0  0  0  0  0
  190.4690  175.4430  145.7620 C   0  0  0  0  0  0  0  0  0  0  0  0
  188.6120  176.6340  144.7300 C   0  0  0  0  0  0  0  0  0  0  0  0
  185.1810  178.4690  142.4120 N   0  0  0  0  0  0  0  0  0  0  0  0
  190.7020  170.3240  142.0820 O   0  0  0  0  0  0  0  0  0  0  0  0
  191.1160  172.2140  143.8700 C   0  0  2  0  0  3  0  0  0  0  0  0
  185.7010  177.3350  141.8750 C   0  0  0  0  0  3  0  0  0  0  0  0
  190.6160  171.5970  141.4700 C   0  0  0  0  0  2  0  0  0  0  0  0
  193.0590  171.1280  142.5990 C   0  0  1  0  0  3  0  0  0  0  0  0
  189.6770  177.5810  146.8250 C   0  0  0  0  0  2  0  0  0  0  0  0
  189.5550  176.5090  145.7640 C   0  0  0  0  0  0  0  0  0  0  0  0
  187.7100  177.7210  144.7470 C   0  0  0  0  0  3  0  0  0  0  0  0
  189.4160  173.4900  142.6350 C   0  0  0  0  0  2  0  0  0  0  0  0
  187.4700  174.9590  141.5550 O   0  0  0  0  0  1  0  0  0  0  0  0
  185.5630  179.9040  144.3700 C   0  0  0  0  0  1  0  0  0  0  0  0
  188.5650  175.6650  143.6680 C   0  0  0  0  0  0  0  0  0  0  0  0
  186.7860  177.8230  143.7190 C   0  0  0  0  0  0  0  0  0  0  0  0
  194.3400  170.5070  142.8860 N   0  0  0  0  0  2  0  0  0  0  0  0
  195.4570  171.2760  143.3290 C   0  0  0  0  0  0  0  0  0  0  0  0
  195.3450  172.6490  143.5050 O   0  0  0  0  0  0  0  0  0  0  0  0
  196.5520  170.7040  143.5650 O   0  0  0  0  0  1  0  0  0  0  0  0
  1 16  1  6  0  0  0
  1 10  1  0  0  0  0
  2 12  1  0  0  0  0
  3  4  1  0  0  0  0
  5  6  2  0  0  0  0
  5 27  1  0  0  0  0
  6 28  1  0  0  0  0
  7 19  1  6  0  0  0
  7 24  1  0  0  0  0
  7 17  1  0  0  0  0
  9 28  1  0  0  0  0
  9 26  1  0  0  0  0
 10 17  1  0  0  0  0
 11  3  2  0  0  0  0
 12  8  1  0  0  0  0
 12 13  2  0  0  0  0
 13 22  1  0  0  0  0
 13 11  1  0  0  0  0
 14 23  1  0  0  0  0
 14 22  2  0  0  0  0
 15  9  1  0  0  0  0
 17  8  1  0  0  0  0
 18 15  2  0  0  0  0
 18  6  1  0  0  0  0
 19 16  1  0  0  0  0
 20  1  1  0  0  0  0
 20 29  1  0  0  0  0
 20 10  1  0  0  0  0
 21  4  1  0  0  0  0
 22 21  1  0  0  0  0
 24  2  1  0  0  0  0
 25  5  1  0  0  0  0
 27  2  2  0  0  0  0
 27 14  1  0  0  0  0
 28 23  2  0  0  0  0
 29 30  1  0  0  0  0
 30 31  2  0  0  0  0
 30 32  1  0  0  0  0
M  END
>  <MODEL>
7

>  <REMARK>
 VINA RESULT:      -8.0      2.939      8.650
  Name = 
  1 active torsions:
  status: ('A' for Active; 'I' for Inactive)
    1  A    between atoms: C_20  and  N_29
                            x       y       z     vdW  Elec       q    Type
                         _______ _______ _______ _____ _____    ______ ____

>  <TORSDO>
F 1

$$$$
=
 OpenBabel11112416343D

 32 38  0  0  1  0  0  0  0  0999 V2000
  178.9740  178.8310  140.8990 C   0  0  1  0  0  3  0  0  0  0  0  0
  183.6920  178.4040  143.0570 C   0  0  0  0  0  0  0  0  0  0  0  0
  186.6140  177.1660  139.3390 C   0  0  0  0  0  3  0  0  0  0  0  0
  187.6440  176.9070  140.2480 O   0  0  0  0  0  0  0  0  0  0  0  0
  184.5970  178.4400  145.3930 C   0  0  0  0  0  0  0  0  0  0  0  0
  185.7080  178.2740  146.2140 C   0  0  0  0  0  0  0  0  0  0  0  0
  181.3970  179.2730  142.4760 C   0  0  1  0  0  3  0  0  0  0  0  0
  182.8260  178.4390  140.6430 C   0  0  0  0  0  2  0  0  0  0  0  0
  187.7980  177.8630  146.7390 N   0  0  0  0  0  0  0  0  0  0  0  0
  180.3320  178.6140  140.2220 C   0  0  2  0  0  3  0  0  0  0  0  0
  185.4460  177.6410  139.7630 C   0  0  0  0  0  3  0  0  0  0  0  0
  183.9240  178.2070  141.6660 C   0  0  0  0  0  0  0  0  0  0  0  0
  185.2080  177.8730  141.2030 C   0  0  0  0  0  0  0  0  0  0  0  0
  186.0670  177.9100  143.4810 C   0  0  0  0  0  0  0  0  0  0  0  0
  187.1570  178.1260  147.8720 N   0  0  0  0  0  0  0  0  0  0  0  0
  179.0450  178.6340  142.3170 O   0  0  0  0  0  0  0  0  0  0  0  0
  181.4420  178.3590  141.2570 C   0  0  2  0  0  3  0  0  0  0  0  0
  185.8550  178.3860  147.5860 C   0  0  0  0  0  3  0  0  0  0  0  0
  179.9640  179.4900  142.9690 C   0  0  0  0  0  2  0  0  0  0  0  0
  179.7380  180.0170  140.2970 C   0  0  1  0  0  3  0  0  0  0  0  0
  187.6630  177.4620  141.5650 C   0  0  0  0  0  2  0  0  0  0  0  0
  186.2730  177.7180  142.1050 C   0  0  0  0  0  0  0  0  0  0  0  0
  187.1560  177.7600  144.3690 C   0  0  0  0  0  3  0  0  0  0  0  0
  182.2800  178.6660  143.5480 C   0  0  0  0  0  2  0  0  0  0  0  0
  183.3820  178.7860  145.9730 O   0  0  0  0  0  1  0  0  0  0  0  0
  189.2130  177.5410  146.6580 C   0  0  0  0  0  1  0  0  0  0  0  0
  184.7630  178.2530  143.9810 C   0  0  0  0  0  0  0  0  0  0  0  0
  186.9310  177.9500  145.7230 C   0  0  0  0  0  0  0  0  0  0  0  0
  179.1560  180.3630  139.0130 N   0  0  0  0  0  2  0  0  0  0  0  0
  178.8910  181.7190  138.6570 C   0  0  0  0  0  0  0  0  0  0  0  0
  179.1910  182.7530  139.5360 O   0  0  0  0  0  1  0  0  0  0  0  0
  178.3840  181.9810  137.5360 O   0  0  0  0  0  0  0  0  0  0  0  0
  1 16  1  1  0  0  0
  2 24  1  0  0  0  0
  2 27  1  0  0  0  0
  3 11  2  0  0  0  0
  3  4  1  0  0  0  0
  4 21  1  0  0  0  0
  5 25  1  0  0  0  0
  5  6  1  0  0  0  0
  6 18  1  0  0  0  0
  7 19  1  1  0  0  0
  7 24  1  0  0  0  0
  8 17  1  0  0  0  0
  8 12  1  0  0  0  0
  9 15  1  0  0  0  0
 10 20  1  0  0  0  0
 10  1  1  0  0  0  0
 10 17  1  0  0  0  0
 11 13  1  0  0  0  0
 12  2  2  0  0  0  0
 13 12  1  0  0  0  0
 13 22  2  0  0  0  0
 14 27  1  0  0  0  0
 14 23  2  0  0  0  0
 16 19  1  0  0  0  0
 17  7  1  0  0  0  0
 18 15  2  0  0  0  0
 20  1  1  0  0  0  0
 21 22  1  0  0  0  0
 22 14  1  0  0  0  0
 23 28  1  0  0  0  0
 26  9  1  0  0  0  0
 27  5  2  0  0  0  0
 28  6  2  0  0  0  0
 28  9  1  0  0  0  0
 29 20  1  0  0  0  0
 30 29  1  0  0  0  0
 30 31  1  0  0  0  0
 32 30  2  0  0  0  0
M  END
>  <MODEL>
8

>  <REMARK>
 VINA RESULT:      -8.0      4.382      7.342
  Name = 
  1 active torsions:
  status: ('A' for Active; 'I' for Inactive)
    1  A    between atoms: C_20  and  N_29
                            x       y       z     vdW  Elec       q    Type
                         _______ _______ _______ _____ _____    ______ ____

>  <TORSDO>
F 1

$$$$
=
 OpenBabel11112416343D

 32 38  0  0  1  0  0  0  0  0999 V2000
  187.6540  177.0950  141.3820 C   0  0  1  0  0  3  0  0  0  0  0  0
  191.2590  174.1830  143.7530 C   0  0  0  0  0  0  0  0  0  0  0  0
  194.3110  177.4310  145.7590 C   0  0  0  0  0  3  0  0  0  0  0  0
  195.2030  176.3960  146.0550 O   0  0  0  0  0  0  0  0  0  0  0  0
  191.8160  171.7410  143.8270 C   0  0  0  0  0  0  0  0  0  0  0  0
  192.7020  170.7610  144.2640 C   0  0  0  0  0  0  0  0  0  0  0  0
  189.0300  175.0430  142.9480 C   0  0  1  0  0  3  0  0  0  0  0  0
  190.6830  176.6810  143.7740 C   0  0  0  0  0  2  0  0  0  0  0  0
  194.4660  169.9230  145.2630 N   0  0  0  0  0  0  0  0  0  0  0  0
  188.7930  177.5310  142.3120 C   0  0  2  0  0  3  0  0  0  0  0  0
  193.1350  177.1660  145.1990 C   0  0  0  0  0  3  0  0  0  0  0  0
  191.6000  175.5190  144.1070 C   0  0  0  0  0  0  0  0  0  0  0  0
  192.7630  175.7780  144.8530 C   0  0  0  0  0  0  0  0  0  0  0  0
  193.2870  173.4010  144.9110 C   0  0  0  0  0  0  0  0  0  0  0  0
  193.7950  168.9040  144.7410 N   0  0  0  0  0  0  0  0  0  0  0  0
  187.8050  175.7370  140.9520 O   0  0  0  0  0  0  0  0  0  0  0  0
  189.7350  176.3570  142.6340 C   0  0  2  0  0  3  0  0  0  0  0  0
  192.6910  169.3850  144.1120 C   0  0  0  0  0  3  0  0  0  0  0  0
  187.8420  174.8000  142.0130 C   0  0  0  0  0  2  0  0  0  0  0  0
  187.3850  177.3540  142.8700 C   0  0  1  0  0  3  0  0  0  0  0  0
  194.7920  175.0300  146.1380 C   0  0  0  0  0  2  0  0  0  0  0  0
  193.6060  174.7270  145.2480 C   0  0  0  0  0  0  0  0  0  0  0  0
  194.1450  172.3580  145.3290 C   0  0  0  0  0  3  0  0  0  0  0  0
  190.0560  173.9300  142.8630 C   0  0  0  0  0  2  0  0  0  0  0  0
  190.6910  171.3520  143.1080 O   0  0  0  0  0  1  0  0  0  0  0  0
  195.7030  169.7850  146.0140 C   0  0  0  0  0  1  0  0  0  0  0  0
  192.1040  173.1080  144.1490 C   0  0  0  0  0  0  0  0  0  0  0  0
  193.8150  171.0580  144.9830 C   0  0  0  0  0  0  0  0  0  0  0  0
  186.7620  178.6560  143.0270 N   0  0  0  0  0  2  0  0  0  0  0  0
  185.9520  178.9620  144.1620 C   0  0  0  0  0  0  0  0  0  0  0  0
  185.7420  178.0140  145.1560 O   0  0  0  0  0  1  0  0  0  0  0  0
  185.4270  180.1000  144.2630 O   0  0  0  0  0  0  0  0  0  0  0  0
  1 16  1  1  0  0  0
  1 10  1  0  0  0  0
  1 20  1  0  0  0  0
  2 12  2  0  0  0  0
  2 27  1  0  0  0  0
  3  4  1  0  0  0  0
  4 21  1  0  0  0  0
  5 27  2  0  0  0  0
  5  6  1  0  0  0  0
  6 28  2  0  0  0  0
  7 19  1  6  0  0  0
  8 12  1  0  0  0  0
  9 26  1  0  0  0  0
 10 17  1  0  0  0  0
 10 20  1  0  0  0  0
 11  3  2  0  0  0  0
 12 13  1  0  0  0  0
 13 11  1  0  0  0  0
 13 22  2  0  0  0  0
 14 22  1  0  0  0  0
 14 23  2  0  0  0  0
 15  9  1  0  0  0  0
 16 19  1  0  0  0  0
 17  7  1  0  0  0  0
 17  8  1  0  0  0  0
 18  6  1  0  0  0  0
 18 15  2  0  0  0  0
 20 29  1  0  0  0  0
 22 21  1  0  0  0  0
 24  7  1  0  0  0  0
 24  2  1  0  0  0  0
 25  5  1  0  0  0  0
 27 14  1  0  0  0  0
 28  9  1  0  0  0  0
 28 23  1  0  0  0  0
 29 30  1  0  0  0  0
 30 32  2  0  0  0  0
 30 31  1  0  0  0  0
M  END
>  <MODEL>
9

>  <REMARK>
 VINA RESULT:      -7.9      2.866      4.919
  Name = 
  1 active torsions:
  status: ('A' for Active; 'I' for Inactive)
    1  A    between atoms: C_20  and  N_29
                            x       y       z     vdW  Elec       q    Type
                         _______ _______ _______ _____ _____    ______ ____

>  <TORSDO>
F 1

$$$$
