=
 OpenBabel11112416333D

 32 38  0  0  1  0  0  0  0  0999 V2000
  192.3740  175.2950  144.2490 C   0  0  1  0  0  3  0  0  0  0  0  0
  187.6210  177.2240  143.5830 C   0  0  0  0  0  0  0  0  0  0  0  0
  186.0980  178.2710  148.0460 C   0  0  0  0  0  3  0  0  0  0  0  0
  184.8300  178.5660  147.5540 C   0  0  0  0  0  3  0  0  0  0  0  0
  186.0330  177.4540  141.6590 C   0  0  0  0  0  0  0  0  0  0  0  0
  184.7460  177.7700  141.2510 C   0  0  0  0  0  0  0  0  0  0  0  0
  190.0770  176.7760  143.2510 C   0  0  1  0  0  3  0  0  0  0  0  0
  189.2100  177.1290  145.5100 C   0  0  0  0  0  2  0  0  0  0  0  0
  182.6740  178.3810  141.3820 C   0  0  0  0  0  0  0  0  0  0  0  0
  191.4430  175.9490  145.2690 C   0  0  2  0  0  3  0  0  0  0  0  0
  187.1050  177.8640  147.1730 C   0  0  0  0  0  3  0  0  0  0  0  0
  187.8610  177.3370  144.9390 N   0  0  0  0  0  0  0  0  0  0  0  0
  186.8670  177.7440  145.7880 C   0  0  0  0  0  0  0  0  0  0  0  0
  185.3300  177.9430  143.9420 N   0  0  0  0  0  0  0  0  0  0  0  0
  182.9680  178.1380  140.0850 N   0  0  0  0  0  0  0  0  0  0  0  0
  191.6870  175.0980  142.8770 C   0  0  0  0  0  2  0  0  0  0  0  0
  190.0520  176.2000  144.6640 C   0  0  2  0  0  3  0  0  0  0  0  0
  184.2420  177.7610  140.0020 N   0  0  0  0  0  0  0  0  0  0  0  0
  191.0730  176.2690  142.3710 O   0  0  0  0  0  0  0  0  0  0  0  0
  192.5650  176.7580  144.6300 C   0  0  1  0  0  3  0  0  0  0  0  0
  184.5750  178.4540  146.1880 C   0  0  0  0  0  3  0  0  0  0  0  0
  185.5810  178.0440  145.2850 C   0  0  0  0  0  0  0  0  0  0  0  0
  184.0680  178.2470  143.4840 C   0  0  0  0  0  3  0  0  0  0  0  0
  188.6890  176.6490  142.6660 C   0  0  0  0  0  2  0  0  0  0  0  0
  186.8860  177.1200  140.7940 O   0  0  0  0  0  0  0  0  0  0  0  0
  181.3430  178.8280  141.8750 C   0  0  0  0  0  1  0  0  0  0  0  0
  186.3320  177.5380  143.0620 C   0  0  0  0  0  0  0  0  0  0  0  0
  183.7980  178.1510  142.1340 C   0  0  0  0  0  0  0  0  0  0  0  0
  193.6430  176.8690  145.5460 O   0  0  0  0  0  0  0  0  0  0  0  0
  194.8740  176.2440  145.3310 C   0  0  0  0  0  0  0  0  0  0  0  0
  195.7030  176.5440  144.1270 C   0  0  0  0  0  1  0  0  0  0  0  0
  195.2940  175.4070  146.1700 O   0  0  0  0  0  0  0  0  0  0  0  0
  1 16  1  6  0  0  0
  1 20  1  0  0  0  0
  1 10  1  0  0  0  0
  2 12  1  0  0  0  0
  4  3  1  0  0  0  0
  5 27  1  0  0  0  0
  6  5  1  0  0  0  0
  6 28  1  0  0  0  0
  7 24  1  6  0  0  0
  7 17  1  0  0  0  0
  9 26  1  0  0  0  0
  9 28  1  0  0  0  0
 11  3  2  0  0  0  0
 12  8  1  0  0  0  0
 12 13  1  0  0  0  0
 13 11  1  0  0  0  0
 14 22  1  0  0  0  0
 15  9  2  0  0  0  0
 17 10  1  0  0  0  0
 17  8  1  0  0  0  0
 18 15  1  0  0  0  0
 18  6  2  0  0  0  0
 19 16  1  0  0  0  0
 19  7  1  0  0  0  0
 20 10  1  0  0  0  0
 20 29  1  0  0  0  0
 21  4  2  0  0  0  0
 22 13  2  0  0  0  0
 22 21  1  0  0  0  0
 23 14  1  0  0  0  0
 24  2  1  0  0  0  0
 25  5  2  0  0  0  0
 27  2  2  0  0  0  0
 27 14  1  0  0  0  0
 28 23  2  0  0  0  0
 30 29  1  0  0  0  0
 30 32  2  0  0  0  0
 31 30  1  0  0  0  0
M  END
>  <MODEL>
1

>  <REMARK>
 VINA RESULT:      -9.3      0.000      0.000
  Name = 
  2 active torsions:
  status: ('A' for Active; 'I' for Inactive)
    1  A    between atoms: C_20  and  O_29
    2  A    between atoms: O_29  and  C_30
                            x       y       z     vdW  Elec       q    Type
                         _______ _______ _______ _____ _____    ______ ____

>  <TORSDO>
F 2

$$$$
=
 OpenBabel11112416333D

 32 38  0  0  1  0  0  0  0  0999 V2000
  185.1530  177.3720  146.6300 C   0  0  1  0  0  3  0  0  0  0  0  0
  189.8350  176.0370  144.8840 C   0  0  0  0  0  0  0  0  0  0  0  0
  189.0110  174.1630  140.5080 C   0  0  0  0  0  3  0  0  0  0  0  0
  190.3440  173.7720  140.4150 C   0  0  0  0  0  3  0  0  0  0  0  0
  192.1460  175.9360  145.8460 C   0  0  0  0  0  0  0  0  0  0  0  0
  193.4560  175.5160  145.6730 C   0  0  0  0  0  0  0  0  0  0  0  0
  187.9860  177.3600  145.9660 C   0  0  1  0  0  3  0  0  0  0  0  0
  187.5740  176.2300  143.8380 C   0  0  0  0  0  2  0  0  0  0  0  0
  195.1850  174.6170  144.7300 C   0  0  0  0  0  0  0  0  0  0  0  0
  185.5640  176.8740  145.2450 C   0  0  2  0  0  3  0  0  0  0  0  0
  188.5600  174.8260  141.6480 C   0  0  0  0  0  3  0  0  0  0  0  0
  188.9760  175.7580  143.8390 N   0  0  0  0  0  0  0  0  0  0  0  0
  189.4300  175.1120  142.7200 C   0  0  0  0  0  0  0  0  0  0  0  0
  191.6500  174.9920  143.6530 N   0  0  0  0  0  0  0  0  0  0  0  0
  195.5600  175.1120  145.9320 N   0  0  0  0  0  0  0  0  0  0  0  0
  186.3260  177.3240  147.6370 C   0  0  0  0  0  2  0  0  0  0  0  0
  187.0320  176.4170  145.2370 C   0  0  2  0  0  3  0  0  0  0  0  0
  194.4970  175.6660  146.5130 N   0  0  0  0  0  2  0  0  0  0  0  0
  187.5080  177.9480  147.1700 O   0  0  0  0  0  0  0  0  0  0  0  0
  185.3670  178.3640  145.4940 C   0  0  1  0  0  3  0  0  0  0  0  0
  191.2200  174.0460  141.4630 C   0  0  0  0  0  3  0  0  0  0  0  0
  190.7840  174.7170  142.6280 C   0  0  0  0  0  0  0  0  0  0  0  0
  192.9620  174.5980  143.5300 C   0  0  0  0  0  2  0  0  0  0  0  0
  189.2960  176.6360  146.1730 C   0  0  0  0  0  2  0  0  0  0  0  0
  191.8350  176.5510  146.9010 O   0  0  0  0  0  0  0  0  0  0  0  0
  196.0990  173.9250  143.7820 C   0  0  0  0  0  1  0  0  0  0  0  0
  191.2060  175.6560  144.7960 C   0  0  0  0  0  0  0  0  0  0  0  0
  193.8480  174.8680  144.5540 C   0  0  0  0  0  0  0  0  0  0  0  0
  184.1080  178.7630  144.9740 O   0  0  0  0  0  0  0  0  0  0  0  0
  183.8540  178.8320  143.6020 C   0  0  0  0  0  0  0  0  0  0  0  0
  184.9450  178.6660  142.5960 C   0  0  0  0  0  1  0  0  0  0  0  0
  182.6810  179.0410  143.2020 O   0  0  0  0  0  0  0  0  0  0  0  0
  1 16  1  1  0  0  0
  2 24  1  0  0  0  0
  3 11  1  0  0  0  0
  4  3  2  0  0  0  0
  4 21  1  0  0  0  0
  5 25  2  0  0  0  0
  6  5  1  0  0  0  0
  6 18  1  0  0  0  0
  7 24  1  1  0  0  0
  7 19  1  0  0  0  0
  8 12  1  0  0  0  0
  8 17  1  0  0  0  0
  9 15  2  0  0  0  0
 10 20  1  0  0  0  0
 10  1  1  0  0  0  0
 11 13  2  0  0  0  0
 12  2  1  0  0  0  0
 13 12  1  0  0  0  0
 14 27  1  0  0  0  0
 15 18  1  0  0  0  0
 17 10  1  0  0  0  0
 17  7  1  0  0  0  0
 19 16  1  0  0  0  0
 20  1  1  0  0  0  0
 21 22  2  0  0  0  0
 22 13  1  0  0  0  0
 22 14  1  0  0  0  0
 23 14  1  0  0  0  0
 23 28  1  0  0  0  0
 26  9  1  0  0  0  0
 27  2  2  0  0  0  0
 27  5  1  0  0  0  0
 28  9  1  0  0  0  0
 28  6  2  0  0  0  0
 29 20  1  0  0  0  0
 30 29  1  0  0  0  0
 31 30  1  0  0  0  0
 32 30  2  0  0  0  0
M  END
>  <MODEL>
2

>  <REMARK>
 VINA RESULT:      -8.4      3.071      8.845
  Name = 
  2 active torsions:
  status: ('A' for Active; 'I' for Inactive)
    1  A    between atoms: C_20  and  O_29
    2  A    between atoms: O_29  and  C_30
                            x       y       z     vdW  Elec       q    Type
                         _______ _______ _______ _____ _____    ______ ____

>  <TORSDO>
F 2

$$$$
=
 OpenBabel11112416333D

 32 38  0  0  1  0  0  0  0  0999 V2000
  189.6500  172.0760  139.3930 C   0  0  1  0  0  3  0  0  0  0  0  0
  188.5410  175.4010  143.1960 C   0  0  0  0  0  0  0  0  0  0  0  0
  192.1860  174.9220  146.3310 C   0  0  0  0  0  3  0  0  0  0  0  0
  191.5270  175.7480  147.2370 C   0  0  0  0  0  3  0  0  0  0  0  0
  186.5880  176.8500  143.7980 C   0  0  0  0  0  0  0  0  0  0  0  0
  186.0020  177.6660  144.7540 C   0  0  0  0  0  0  0  0  0  0  0  0
  188.8360  174.4350  140.8890 C   0  0  1  0  0  3  0  0  0  0  0  0
  190.5630  174.0670  142.5810 C   0  0  0  0  0  2  0  0  0  0  0  0
  185.7470  178.7450  146.6130 C   0  0  0  0  0  0  0  0  0  0  0  0
  190.5010  172.4950  140.5910 C   0  0  2  0  0  3  0  0  0  0  0  0
  191.6000  174.6350  145.1000 C   0  0  0  0  0  3  0  0  0  0  0  0
  189.7720  174.8740  143.5360 N   0  0  0  0  0  0  0  0  0  0  0  0
  190.3430  175.1670  144.7460 C   0  0  0  0  0  0  0  0  0  0  0  0
  188.4540  176.5430  145.3380 N   0  0  0  0  0  0  0  0  0  0  0  0
  184.6700  178.9790  145.8300 N   0  0  0  0  0  0  0  0  0  0  0  0
  188.2220  172.6680  139.4580 C   0  0  0  0  0  2  0  0  0  0  0  0
  189.6900  173.3650  141.5650 C   0  0  2  0  0  3  0  0  0  0  0  0
  184.8250  178.3170  144.6860 N   0  0  0  0  0  0  0  0  0  0  0  0
  188.1910  174.0660  139.6770 O   0  0  0  0  0  0  0  0  0  0  0  0
  190.7380  173.1290  139.2260 C   0  0  1  0  0  3  0  0  0  0  0  0
  190.2840  176.2850  146.9060 C   0  0  0  0  0  3  0  0  0  0  0  0
  189.6720  176.0080  145.6630 C   0  0  0  0  0  0  0  0  0  0  0  0
  187.8300  177.3610  146.2520 C   0  0  0  0  0  3  0  0  0  0  0  0
  187.8570  174.9690  141.9100 C   0  0  0  0  0  2  0  0  0  0  0  0
  185.9950  176.6680  142.7020 O   0  0  0  0  0  0  0  0  0  0  0  0
  185.9410  179.3160  147.9730 C   0  0  0  0  0  1  0  0  0  0  0  0
  187.8620  176.2620  144.1080 C   0  0  0  0  0  0  0  0  0  0  0  0
  186.6020  177.9100  145.9400 C   0  0  0  0  0  0  0  0  0  0  0  0
  191.8800  172.5360  138.6260 O   0  0  0  0  0  0  0  0  0  0  0  0
  191.8320  171.9270  137.3700 C   0  0  0  0  0  0  0  0  0  0  0  0
  192.2030  170.4940  137.1820 C   0  0  0  0  0  1  0  0  0  0  0  0
  191.4690  172.6010  136.3720 O   0  0  0  0  0  0  0  0  0  0  0  0
  1 16  1  1  0  0  0
  1 10  1  0  0  0  0
  2 12  1  0  0  0  0
  2 27  2  0  0  0  0
  3  4  1  0  0  0  0
  5 27  1  0  0  0  0
  5  6  1  0  0  0  0
  6 28  1  0  0  0  0
  7 17  1  0  0  0  0
  7 24  1  1  0  0  0
  8 12  1  0  0  0  0
  9 26  1  0  0  0  0
 10 17  1  0  0  0  0
 11  3  2  0  0  0  0
 12 13  1  0  0  0  0
 13 11  1  0  0  0  0
 13 22  2  0  0  0  0
 14 22  1  0  0  0  0
 14 23  1  0  0  0  0
 15  9  2  0  0  0  0
 16 19  1  0  0  0  0
 17  8  1  0  0  0  0
 18  6  2  0  0  0  0
 18 15  1  0  0  0  0
 19  7  1  0  0  0  0
 20  1  1  0  0  0  0
 20 10  1  0  0  0  0
 21  4  2  0  0  0  0
 22 21  1  0  0  0  0
 24  2  1  0  0  0  0
 25  5  2  0  0  0  0
 27 14  1  0  0  0  0
 28 23  2  0  0  0  0
 28  9  1  0  0  0  0
 29 20  1  0  0  0  0
 30 29  1  0  0  0  0
 31 30  1  0  0  0  0
 32 30  2  0  0  0  0
M  END
>  <MODEL>
3

>  <REMARK>
 VINA RESULT:      -8.2      3.378      5.805
  Name = 
  2 active torsions:
  status: ('A' for Active; 'I' for Inactive)
    1  A    between atoms: C_20  and  O_29
    2  A    between atoms: O_29  and  C_30
                            x       y       z     vdW  Elec       q    Type
                         _______ _______ _______ _____ _____    ______ ____

>  <TORSDO>
F 2

$$$$
=
 OpenBabel11112416333D

 32 38  0  0  1  0  0  0  0  0999 V2000
  185.7120  178.8720  143.7820 C   0  0  1  0  0  3  0  0  0  0  0  0
  188.9280  174.9400  142.8090 C   0  0  0  0  0  0  0  0  0  0  0  0
  192.1690  175.1070  146.3870 C   0  0  0  0  0  3  0  0  0  0  0  0
  192.9220  174.1160  145.7620 C   0  0  0  0  0  3  0  0  0  0  0  0
  189.2580  173.3160  140.9300 C   0  0  0  0  0  0  0  0  0  0  0  0
  190.0630  172.3330  140.3760 C   0  0  0  0  0  0  0  0  0  0  0  0
  186.8060  176.2700  143.0780 C   0  0  1  0  0  3  0  0  0  0  0  0
  188.5680  176.4550  144.7630 C   0  0  0  0  0  2  0  0  0  0  0  0
  191.7260  170.9640  140.1580 C   0  0  0  0  0  0  0  0  0  0  0  0
  186.8470  178.3140  144.6410 C   0  0  2  0  0  3  0  0  0  0  0  0
  190.9870  175.5530  145.8000 C   0  0  0  0  0  3  0  0  0  0  0  0
  189.3700  175.4690  144.0060 N   0  0  0  0  0  0  0  0  0  0  0  0
  190.5300  175.0200  144.5770 C   0  0  0  0  0  0  0  0  0  0  0  0
  190.8630  173.4730  142.7580 N   0  0  0  0  0  0  0  0  0  0  0  0
  190.8940  170.8000  139.1040 N   0  0  0  0  0  0  0  0  0  0  0  0
  185.6560  178.2050  142.3880 C   0  0  0  0  0  2  0  0  0  0  0  0
  187.6570  177.2630  143.8660 C   0  0  2  0  0  3  0  0  0  0  0  0
  189.8710  171.6410  139.2370 N   0  0  0  0  0  0  0  0  0  0  0  0
  185.6530  176.7910  142.4290 O   0  0  0  0  0  0  0  0  0  0  0  0
  185.4050  177.9150  144.9270 C   0  0  1  0  0  3  0  0  0  0  0  0
  192.4880  173.5750  144.5540 C   0  0  0  0  0  3  0  0  0  0  0  0
  191.2920  174.0130  143.9420 C   0  0  0  0  0  0  0  0  0  0  0  0
  191.6250  172.4910  142.1680 C   0  0  0  0  0  3  0  0  0  0  0  0
  187.7110  175.5330  142.1170 C   0  0  0  0  0  2  0  0  0  0  0  0
  188.1910  173.6380  140.3400 O   0  0  0  0  0  0  0  0  0  0  0  0
  192.9840  170.1970  140.3670 C   0  0  0  0  0  1  0  0  0  0  0  0
  189.6800  173.9140  142.1660 C   0  0  0  0  0  0  0  0  0  0  0  0
  191.2070  171.9360  140.9750 C   0  0  0  0  0  0  0  0  0  0  0  0
  184.9270  178.6520  146.0420 O   0  0  0  0  0  0  0  0  0  0  0  0
  185.6060  178.6840  147.2630 C   0  0  0  0  0  0  0  0  0  0  0  0
  185.9410  177.4310  148.0020 C   0  0  0  0  0  1  0  0  0  0  0  0
  185.9410  179.7920  147.7530 O   0  0  0  0  0  0  0  0  0  0  0  0
  1 16  1  6  0  0  0
  1 10  1  0  0  0  0
  1 20  1  0  0  0  0
  2 12  1  0  0  0  0
  4  3  2  0  0  0  0
  5 27  1  0  0  0  0
  6  5  1  0  0  0  0
  6 28  1  0  0  0  0
  7 24  1  6  0  0  0
  7 17  1  0  0  0  0
  9 26  1  0  0  0  0
  9 28  1  0  0  0  0
 10 20  1  0  0  0  0
 11  3  1  0  0  0  0
 12 13  1  0  0  0  0
 12  8  1  0  0  0  0
 13 11  2  0  0  0  0
 14 22  1  0  0  0  0
 15 18  1  0  0  0  0
 15  9  2  0  0  0  0
 16 19  1  0  0  0  0
 17 10  1  0  0  0  0
 17  8  1  0  0  0  0
 18  6  2  0  0  0  0
 19  7  1  0  0  0  0
 20 29  1  0  0  0  0
 21  4  1  0  0  0  0
 22 21  2  0  0  0  0
 22 13  1  0  0  0  0
 23 14  1  0  0  0  0
 24  2  1  0  0  0  0
 25  5  2  0  0  0  0
 27 14  1  0  0  0  0
 27  2  2  0  0  0  0
 28 23  2  0  0  0  0
 29 30  1  0  0  0  0
 30 32  2  0  0  0  0
 30 31  1  0  0  0  0
M  END
>  <MODEL>
4

>  <REMARK>
 VINA RESULT:      -8.2      3.717      7.645
  Name = 
  2 active torsions:
  status: ('A' for Active; 'I' for Inactive)
    1  A    between atoms: C_20  and  O_29
    2  A    between atoms: O_29  and  C_30
                            x       y       z     vdW  Elec       q    Type
                         _______ _______ _______ _____ _____    ______ ____

>  <TORSDO>
F 2

$$$$
=
 OpenBabel11112416333D

 32 38  0  0  1  0  0  0  0  0999 V2000
  186.6210  178.1940  142.7080 C   0  0  1  0  0  3  0  0  0  0  0  0
  190.0030  174.3860  143.6050 C   0  0  0  0  0  0  0  0  0  0  0  0
  193.3450  176.3790  146.4680 C   0  0  0  0  0  3  0  0  0  0  0  0
  194.1280  175.2320  146.3670 C   0  0  0  0  0  3  0  0  0  0  0  0
  190.3560  172.0610  142.7410 C   0  0  0  0  0  0  0  0  0  0  0  0
  191.1940  170.9570  142.6960 C   0  0  0  0  0  0  0  0  0  0  0  0
  187.8250  175.6140  143.3050 C   0  0  1  0  0  3  0  0  0  0  0  0
  189.6280  176.6520  144.5880 C   0  0  0  0  0  2  0  0  0  0  0  0
  192.9170  169.7060  143.0840 C   0  0  0  0  0  0  0  0  0  0  0  0
  187.8100  178.1620  143.6670 C   0  0  2  0  0  3  0  0  0  0  0  0
  192.1230  176.4450  145.8030 C   0  0  0  0  0  3  0  0  0  0  0  0
  190.4560  175.4460  144.3660 N   0  0  0  0  0  0  0  0  0  0  0  0
  191.6560  175.3680  145.0220 C   0  0  0  0  0  0  0  0  0  0  0  0
  192.0090  173.1400  144.1730 N   0  0  0  0  0  0  0  0  0  0  0  0
  192.0620  169.0230  142.2900 N   0  0  0  0  0  0  0  0  0  0  0  0
  186.5540  176.9290  141.8200 C   0  0  0  0  0  2  0  0  0  0  0  0
  188.6480  176.8900  143.4610 C   0  0  2  0  0  3  0  0  0  0  0  0
  191.0010  169.7910  142.0500 N   0  0  0  0  0  0  0  0  0  0  0  0
  186.6260  175.7160  142.5460 O   0  0  0  0  0  0  0  0  0  0  0  0
  186.4000  177.9110  144.1880 C   0  0  1  0  0  3  0  0  0  0  0  0
  193.6830  174.1560  145.6010 C   0  0  0  0  0  3  0  0  0  0  0  0
  192.4470  174.2020  144.9180 C   0  0  0  0  0  0  0  0  0  0  0  0
  192.8020  172.0180  144.0960 C   0  0  0  0  0  3  0  0  0  0  0  0
  188.7360  174.5290  142.7780 C   0  0  0  0  0  2  0  0  0  0  0  0
  189.2560  172.0210  142.1270 O   0  0  0  0  0  0  0  0  0  0  0  0
  194.2190  169.1770  143.5730 C   0  0  0  0  0  1  0  0  0  0  0  0
  190.7870  173.1990  143.5050 C   0  0  0  0  0  0  0  0  0  0  0  0
  192.3760  170.9380  143.3490 C   0  0  0  0  0  0  0  0  0  0  0  0
  185.9210  179.0850  144.8260 O   0  0  0  0  0  0  0  0  0  0  0  0
  185.1380  179.0410  145.9820 C   0  0  0  0  0  0  0  0  0  0  0  0
  185.7460  179.1390  147.3420 C   0  0  0  0  0  1  0  0  0  0  0  0
  183.8920  178.9140  145.8780 O   0  0  0  0  0  0  0  0  0  0  0  0
  1 16  1  6  0  0  0
  1 10  1  0  0  0  0
  1 20  1  0  0  0  0
  2 12  1  0  0  0  0
  4  3  1  0  0  0  0
  5 27  1  0  0  0  0
  6  5  1  0  0  0  0
  6 28  1  0  0  0  0
  7 24  1  6  0  0  0
  7 17  1  0  0  0  0
  9 28  1  0  0  0  0
  9 26  1  0  0  0  0
 10 20  1  0  0  0  0
 11  3  2  0  0  0  0
 12  8  1  0  0  0  0
 12 13  1  0  0  0  0
 13 11  1  0  0  0  0
 14 22  1  0  0  0  0
 15  9  2  0  0  0  0
 16 19  1  0  0  0  0
 17 10  1  0  0  0  0
 17  8  1  0  0  0  0
 18 15  1  0  0  0  0
 18  6  2  0  0  0  0
 19  7  1  0  0  0  0
 20 29  1  0  0  0  0
 21  4  2  0  0  0  0
 22 13  2  0  0  0  0
 22 21  1  0  0  0  0
 23 14  1  0  0  0  0
 24  2  1  0  0  0  0
 25  5  2  0  0  0  0
 27  2  2  0  0  0  0
 27 14  1  0  0  0  0
 28 23  2  0  0  0  0
 29 30  1  0  0  0  0
 30 31  1  0  0  0  0
 32 30  2  0  0  0  0
M  END
>  <MODEL>
5

>  <REMARK>
 VINA RESULT:      -8.1      3.816      8.390
  Name = 
  2 active torsions:
  status: ('A' for Active; 'I' for Inactive)
    1  A    between atoms: C_20  and  O_29
    2  A    between atoms: O_29  and  C_30
                            x       y       z     vdW  Elec       q    Type
                         _______ _______ _______ _____ _____    ______ ____

>  <TORSDO>
F 2

$$$$
=
 OpenBabel11112416333D

 32 38  0  0  1  0  0  0  0  0999 V2000
  184.8140  177.9190  144.6230 C   0  0  1  0  0  3  0  0  0  0  0  0
  189.5610  175.9370  144.0850 C   0  0  0  0  0  0  0  0  0  0  0  0
  189.1180  172.6660  140.5570 C   0  0  0  0  0  3  0  0  0  0  0  0
  190.4210  172.2330  140.7830 C   0  0  0  0  0  3  0  0  0  0  0  0
  191.7320  176.1220  145.3200 C   0  0  0  0  0  0  0  0  0  0  0  0
  193.0200  175.6340  145.4780 C   0  0  0  0  0  0  0  0  0  0  0  0
  187.6970  177.6030  144.3870 C   0  0  1  0  0  3  0  0  0  0  0  0
  187.4540  175.8070  142.7460 C   0  0  0  0  0  2  0  0  0  0  0  0
  194.7790  174.4180  145.1430 C   0  0  0  0  0  0  0  0  0  0  0  0
  185.3460  176.9560  143.5630 C   0  0  2  0  0  3  0  0  0  0  0  0
  188.5860  173.6980  141.3270 C   0  0  0  0  0  3  0  0  0  0  0  0
  188.8100  175.3300  143.0960 N   0  0  0  0  0  0  0  0  0  0  0  0
  189.3440  174.3210  142.3400 C   0  0  0  0  0  0  0  0  0  0  0  0
  191.4270  174.4800  143.5430 N   0  0  0  0  0  0  0  0  0  0  0  0
  195.0460  175.2940  146.1380 N   0  0  0  0  0  0  0  0  0  0  0  0
  185.8570  178.1990  145.7310 C   0  0  0  0  0  2  0  0  0  0  0  0
  186.7690  176.4890  143.9090 C   0  0  2  0  0  3  0  0  0  0  0  0
  193.9660  176.0430  146.3450 N   0  0  0  0  0  2  0  0  0  0  0  0
  187.1250  178.5880  145.2390 O   0  0  0  0  0  0  0  0  0  0  0  0
  185.2270  178.4430  143.2530 C   0  0  1  0  0  3  0  0  0  0  0  0
  191.1880  172.8360  141.7780 C   0  0  0  0  0  3  0  0  0  0  0  0
  190.6680  173.8840  142.5710 C   0  0  0  0  0  0  0  0  0  0  0  0
  192.7140  174.0350  143.7390 C   0  0  0  0  0  2  0  0  0  0  0  0
  188.9200  176.9640  145.0030 C   0  0  0  0  0  2  0  0  0  0  0  0
  191.3450  177.0760  146.0470 O   0  0  0  0  0  0  0  0  0  0  0  0
  195.7450  173.4130  144.6230 C   0  0  0  0  0  1  0  0  0  0  0  0
  190.9020  175.5140  144.3170 C   0  0  0  0  0  0  0  0  0  0  0  0
  193.4930  174.6250  144.7150 C   0  0  0  0  0  0  0  0  0  0  0  0
  184.0680  178.6660  142.4650 O   0  0  0  0  0  0  0  0  0  0  0  0
  183.9940  178.2910  141.1210 C   0  0  0  0  0  0  0  0  0  0  0  0
  185.2190  178.1680  140.2770 C   0  0  0  0  0  1  0  0  0  0  0  0
  182.8720  178.0520  140.6080 O   0  0  0  0  0  0  0  0  0  0  0  0
  1 16  1  1  0  0  0
  2 27  2  0  0  0  0
  2 24  1  0  0  0  0
  3  4  2  0  0  0  0
  3 11  1  0  0  0  0
  4 21  1  0  0  0  0
  5  6  1  0  0  0  0
  5 25  2  0  0  0  0
  6 18  1  0  0  0  0
  7 24  1  1  0  0  0
  7 19  1  0  0  0  0
  8 12  1  0  0  0  0
  8 17  1  0  0  0  0
  9 15  2  0  0  0  0
 10 17  1  0  0  0  0
 10  1  1  0  0  0  0
 11 13  2  0  0  0  0
 12  2  1  0  0  0  0
 13 22  1  0  0  0  0
 13 12  1  0  0  0  0
 14 23  1  0  0  0  0
 14 27  1  0  0  0  0
 15 18  1  0  0  0  0
 17  7  1  0  0  0  0
 19 16  1  0  0  0  0
 20 10  1  0  0  0  0
 20  1  1  0  0  0  0
 21 22  2  0  0  0  0
 22 14  1  0  0  0  0
 23 28  1  0  0  0  0
 26  9  1  0  0  0  0
 27  5  1  0  0  0  0
 28  9  1  0  0  0  0
 28  6  2  0  0  0  0
 29 20  1  0  0  0  0
 30 29  1  0  0  0  0
 31 30  1  0  0  0  0
 32 30  2  0  0  0  0
M  END
>  <MODEL>
6

>  <REMARK>
 VINA RESULT:      -8.1      2.941      8.873
  Name = 
  2 active torsions:
  status: ('A' for Active; 'I' for Inactive)
    1  A    between atoms: C_20  and  O_29
    2  A    between atoms: O_29  and  C_30
                            x       y       z     vdW  Elec       q    Type
                         _______ _______ _______ _____ _____    ______ ____

>  <TORSDO>
F 2

$$$$
=
 OpenBabel11112416333D

 32 38  0  0  1  0  0  0  0  0999 V2000
  195.3320  175.1540  145.0210 C   0  0  1  0  0  3  0  0  0  0  0  0
  190.2730  176.2280  145.1250 C   0  0  0  0  0  0  0  0  0  0  0  0
  188.6470  174.8370  140.7930 C   0  0  0  0  0  3  0  0  0  0  0  0
  187.4030  175.3940  141.0720 C   0  0  0  0  0  3  0  0  0  0  0  0
  188.7270  177.4270  146.6880 C   0  0  0  0  0  0  0  0  0  0  0  0
  187.4590  177.9530  146.8870 C   0  0  0  0  0  0  0  0  0  0  0  0
  192.5530  175.4310  145.8390 C   0  0  1  0  0  3  0  0  0  0  0  0
  191.7470  174.9200  143.5880 C   0  0  0  0  0  2  0  0  0  0  0  0
  185.4000  178.4800  146.4790 C   0  0  0  0  0  0  0  0  0  0  0  0
  194.2460  174.7990  144.0060 C   0  0  2  0  0  3  0  0  0  0  0  0
  189.6680  174.9090  141.7390 C   0  0  0  0  0  3  0  0  0  0  0  0
  190.4780  175.6110  143.9050 N   0  0  0  0  0  0  0  0  0  0  0  0
  189.4670  175.5400  142.9850 C   0  0  0  0  0  0  0  0  0  0  0  0
  187.9830  176.7140  144.4780 N   0  0  0  0  0  0  0  0  0  0  0  0
  185.7160  178.9120  147.7220 N   0  0  0  0  0  0  0  0  0  0  0  0
  194.7990  176.0720  146.1470 C   0  0  0  0  0  2  0  0  0  0  0  0
  192.9180  175.4890  144.3570 C   0  0  2  0  0  3  0  0  0  0  0  0
  186.9820  178.5880  147.9740 N   0  0  0  0  0  2  0  0  0  0  0  0
  193.6200  175.5930  146.7660 O   0  0  0  0  0  0  0  0  0  0  0  0
  194.7080  173.7640  145.0230 C   0  0  1  0  0  3  0  0  0  0  0  0
  187.1840  176.0200  142.2980 C   0  0  0  0  0  3  0  0  0  0  0  0
  188.2040  176.1050  143.2710 C   0  0  0  0  0  0  0  0  0  0  0  0
  186.7410  177.2510  144.7270 C   0  0  0  0  0  2  0  0  0  0  0  0
  191.4350  176.4180  146.0860 C   0  0  0  0  0  2  0  0  0  0  0  0
  189.5790  177.5180  147.6120 O   0  0  0  0  0  0  0  0  0  0  0  0
  184.0680  178.6550  145.8390 C   0  0  0  0  0  1  0  0  0  0  0  0
  188.9990  176.7890  145.4300 C   0  0  0  0  0  0  0  0  0  0  0  0
  186.5010  177.8680  145.9380 C   0  0  0  0  0  0  0  0  0  0  0  0
  195.5930  172.8500  144.3930 O   0  0  0  0  0  0  0  0  0  0  0  0
  196.7880  172.4370  144.9860 C   0  0  0  0  0  0  0  0  0  0  0  0
  196.8010  171.4860  146.1370 C   0  0  0  0  0  1  0  0  0  0  0  0
  197.8800  172.8760  144.5430 O   0  0  0  0  0  0  0  0  0  0  0  0
  1 20  1  0  0  0  0
  1 16  1  1  0  0  0
  2 27  2  0  0  0  0
  2 24  1  0  0  0  0
  3  4  2  0  0  0  0
  3 11  1  0  0  0  0
  4 21  1  0  0  0  0
  5  6  1  0  0  0  0
  5 25  2  0  0  0  0
  6 18  1  0  0  0  0
  7 24  1  1  0  0  0
  7 19  1  0  0  0  0
  8 12  1  0  0  0  0
  8 17  1  0  0  0  0
  9 15  2  0  0  0  0
 10 17  1  0  0  0  0
 10  1  1  0  0  0  0
 10 20  1  0  0  0  0
 11 13  2  0  0  0  0
 12  2  1  0  0  0  0
 13 22  1  0  0  0  0
 13 12  1  0  0  0  0
 14 23  1  0  0  0  0
 14 27  1  0  0  0  0
 15 18  1  0  0  0  0
 16 19  1  0  0  0  0
 17  7  1  0  0  0  0
 21 22  2  0  0  0  0
 22 14  1  0  0  0  0
 23 28  1  0  0  0  0
 26  9  1  0  0  0  0
 27  5  1  0  0  0  0
 28  9  1  0  0  0  0
 28  6  2  0  0  0  0
 29 30  1  0  0  0  0
 29 20  1  0  0  0  0
 30 31  1  0  0  0  0
 32 30  2  0  0  0  0
M  END
>  <MODEL>
7

>  <REMARK>
 VINA RESULT:      -8.1      2.947      5.176
  Name = 
  2 active torsions:
  status: ('A' for Active; 'I' for Inactive)
    1  A    between atoms: C_20  and  O_29
    2  A    between atoms: O_29  and  C_30
                            x       y       z     vdW  Elec       q    Type
                         _______ _______ _______ _____ _____    ______ ____

>  <TORSDO>
F 2

$$$$
=
 OpenBabel11112416333D

 32 38  0  0  1  0  0  0  0  0999 V2000
  185.2530  177.4820  144.8040 C   0  0  1  0  0  3  0  0  0  0  0  0
  189.9170  176.0090  143.1250 C   0  0  0  0  0  0  0  0  0  0  0  0
  188.9920  172.8840  139.5580 C   0  0  0  0  0  3  0  0  0  0  0  0
  190.3460  172.5720  139.4690 C   0  0  0  0  0  3  0  0  0  0  0  0
  192.2830  176.3480  143.8750 C   0  0  0  0  0  0  0  0  0  0  0  0
  193.6120  175.9840  143.7190 C   0  0  0  0  0  0  0  0  0  0  0  0
  188.0290  177.4650  143.9340 C   0  0  1  0  0  3  0  0  0  0  0  0
  187.5870  175.7350  142.2630 C   0  0  0  0  0  2  0  0  0  0  0  0
  195.3520  174.9660  142.9310 C   0  0  0  0  0  0  0  0  0  0  0  0
  185.6190  176.6280  143.5910 C   0  0  2  0  0  3  0  0  0  0  0  0
  188.5560  173.8190  140.4940 C   0  0  0  0  0  3  0  0  0  0  0  0
  189.0230  175.3790  142.2810 N   0  0  0  0  0  0  0  0  0  0  0  0
  189.4620  174.4650  141.3600 C   0  0  0  0  0  0  0  0  0  0  0  0
  191.7370  174.7720  142.0960 N   0  0  0  0  0  0  0  0  0  0  0  0
  195.7550  175.8150  143.9030 N   0  0  0  0  0  0  0  0  0  0  0  0
  186.4860  177.8110  145.6790 C   0  0  0  0  0  2  0  0  0  0  0  0
  187.1190  176.2890  143.5900 C   0  0  2  0  0  3  0  0  0  0  0  0
  194.6860  176.4430  144.3880 N   0  0  0  0  0  2  0  0  0  0  0  0
  187.5760  178.3470  144.9540 O   0  0  0  0  0  0  0  0  0  0  0  0
  185.3070  178.1100  143.4170 C   0  0  1  0  0  3  0  0  0  0  0  0
  191.2580  173.1990  140.3160 C   0  0  0  0  0  3  0  0  0  0  0  0
  190.8370  174.1510  141.2710 C   0  0  0  0  0  0  0  0  0  0  0  0
  193.0690  174.4470  141.9800 C   0  0  0  0  0  2  0  0  0  0  0  0
  189.4080  176.9220  144.2280 C   0  0  0  0  0  2  0  0  0  0  0  0
  191.9850  177.2240  144.7310 O   0  0  0  0  0  0  0  0  0  0  0  0
  196.2630  174.0880  142.1480 C   0  0  0  0  0  1  0  0  0  0  0  0
  191.3080  175.7110  143.0340 C   0  0  0  0  0  0  0  0  0  0  0  0
  193.9900  175.0640  142.8040 C   0  0  0  0  0  0  0  0  0  0  0  0
  183.9880  178.2540  142.9130 O   0  0  0  0  0  0  0  0  0  0  0  0
  183.6960  178.1740  141.5490 C   0  0  0  0  0  0  0  0  0  0  0  0
  184.7690  178.2630  140.5150 C   0  0  0  0  0  1  0  0  0  0  0  0
  182.5030  178.0260  141.1820 O   0  0  0  0  0  0  0  0  0  0  0  0
  1 16  1  1  0  0  0
  2 24  1  0  0  0  0
  3 11  1  0  0  0  0
  4  3  2  0  0  0  0
  4 21  1  0  0  0  0
  5 25  2  0  0  0  0
  6  5  1  0  0  0  0
  6 18  1  0  0  0  0
  7 24  1  1  0  0  0
  7 19  1  0  0  0  0
  8 12  1  0  0  0  0
  8 17  1  0  0  0  0
  9 15  2  0  0  0  0
 10  1  1  0  0  0  0
 11 13  2  0  0  0  0
 12  2  1  0  0  0  0
 13 12  1  0  0  0  0
 14 27  1  0  0  0  0
 15 18  1  0  0  0  0
 17 10  1  0  0  0  0
 17  7  1  0  0  0  0
 19 16  1  0  0  0  0
 20 10  1  0  0  0  0
 20  1  1  0  0  0  0
 21 22  2  0  0  0  0
 22 13  1  0  0  0  0
 22 14  1  0  0  0  0
 23 14  1  0  0  0  0
 23 28  1  0  0  0  0
 26  9  1  0  0  0  0
 27  2  2  0  0  0  0
 27  5  1  0  0  0  0
 28  9  1  0  0  0  0
 28  6  2  0  0  0  0
 29 20  1  0  0  0  0
 30 29  1  0  0  0  0
 31 30  1  0  0  0  0
 32 30  2  0  0  0  0
M  END
>  <MODEL>
8

>  <REMARK>
 VINA RESULT:      -8.0      3.193      8.930
  Name = 
  2 active torsions:
  status: ('A' for Active; 'I' for Inactive)
    1  A    between atoms: C_20  and  O_29
    2  A    between atoms: O_29  and  C_30
                            x       y       z     vdW  Elec       q    Type
                         _______ _______ _______ _____ _____    ______ ____

>  <TORSDO>
F 2

$$$$
=
 OpenBabel11112416333D

 32 38  0  0  1  0  0  0  0  0999 V2000
  195.2580  175.5960  145.5230 C   0  0  1  0  0  3  0  0  0  0  0  0
  190.3460  176.0910  143.9800 C   0  0  0  0  0  0  0  0  0  0  0  0
  190.0570  173.4150  139.9680 C   0  0  0  0  0  3  0  0  0  0  0  0
  188.7680  173.8850  139.7370 C   0  0  0  0  0  3  0  0  0  0  0  0
  188.3820  177.4860  144.6680 C   0  0  0  0  0  0  0  0  0  0  0  0
  187.0940  177.9020  144.3670 C   0  0  0  0  0  0  0  0  0  0  0  0
  192.3540  175.7730  145.4660 C   0  0  1  0  0  3  0  0  0  0  0  0
  192.2350  174.5890  143.3300 C   0  0  0  0  0  2  0  0  0  0  0  0
  185.2190  178.0690  143.2980 C   0  0  0  0  0  0  0  0  0  0  0  0
  194.5160  174.8640  144.4060 C   0  0  2  0  0  3  0  0  0  0  0  0
  190.7650  173.8520  141.0860 C   0  0  0  0  0  3  0  0  0  0  0  0
  190.9070  175.1950  143.0900 N   0  0  0  0  0  0  0  0  0  0  0  0
  190.2010  174.7670  141.9980 C   0  0  0  0  0  0  0  0  0  0  0  0
  188.3180  176.1280  142.6440 N   0  0  0  0  0  0  0  0  0  0  0  0
  185.1560  178.8500  144.4000 N   0  0  0  0  0  0  0  0  0  0  0  0
  194.3990  176.7180  146.1540 C   0  0  0  0  0  2  0  0  0  0  0  0
  193.1210  175.4710  144.1810 C   0  0  2  0  0  3  0  0  0  0  0  0
  186.3090  178.7490  145.0590 N   0  0  0  0  0  2  0  0  0  0  0  0
  193.1090  176.2950  146.5530 O   0  0  0  0  0  0  0  0  0  0  0  0
  194.7030  174.1980  145.7630 C   0  0  1  0  0  3  0  0  0  0  0  0
  188.1910  174.7890  140.6270 C   0  0  0  0  0  3  0  0  0  0  0  0
  188.8910  175.2450  141.7670 C   0  0  0  0  0  0  0  0  0  0  0  0
  187.0400  176.5700  142.3920 C   0  0  0  0  0  2  0  0  0  0  0  0
  191.1810  176.6590  145.1160 C   0  0  0  0  0  2  0  0  0  0  0  0
  188.9350  177.9160  145.7160 O   0  0  0  0  0  0  0  0  0  0  0  0
  184.1180  177.9160  142.3090 C   0  0  0  0  0  1  0  0  0  0  0  0
  189.0200  176.5680  143.7650 C   0  0  0  0  0  0  0  0  0  0  0  0
  186.4480  177.4590  143.2660 C   0  0  0  0  0  0  0  0  0  0  0  0
  195.7590  173.2520  145.6790 O   0  0  0  0  0  0  0  0  0  0  0  0
  195.5350  171.8750  145.7490 C   0  0  0  0  0  0  0  0  0  0  0  0
  196.6650  170.9020  145.8180 C   0  0  0  0  0  1  0  0  0  0  0  0
  194.3550  171.4420  145.7530 O   0  0  0  0  0  0  0  0  0  0  0  0
  1 20  1  0  0  0  0
  1 16  1  1  0  0  0
  2 24  1  0  0  0  0
  3 11  1  0  0  0  0
  4  3  2  0  0  0  0
  4 21  1  0  0  0  0
  5 25  2  0  0  0  0
  6  5  1  0  0  0  0
  6 18  1  0  0  0  0
  7 24  1  6  0  0  0
  7 19  1  0  0  0  0
  8 17  1  0  0  0  0
  9 15  2  0  0  0  0
 10  1  1  0  0  0  0
 10 20  1  0  0  0  0
 11 13  2  0  0  0  0
 12  8  1  0  0  0  0
 12  2  1  0  0  0  0
 13 12  1  0  0  0  0
 14 27  1  0  0  0  0
 15 18  1  0  0  0  0
 16 19  1  0  0  0  0
 17 10  1  0  0  0  0
 17  7  1  0  0  0  0
 21 22  2  0  0  0  0
 22 13  1  0  0  0  0
 22 14  1  0  0  0  0
 23 14  1  0  0  0  0
 23 28  1  0  0  0  0
 26  9  1  0  0  0  0
 27  2  2  0  0  0  0
 27  5  1  0  0  0  0
 28  9  1  0  0  0  0
 28  6  2  0  0  0  0
 29 30  1  0  0  0  0
 29 20  1  0  0  0  0
 30 32  2  0  0  0  0
 30 31  1  0  0  0  0
M  END
>  <MODEL>
9

>  <REMARK>
 VINA RESULT:      -8.0      2.447      5.047
  Name = 
  2 active torsions:
  status: ('A' for Active; 'I' for Inactive)
    1  A    between atoms: C_20  and  O_29
    2  A    between atoms: O_29  and  C_30
                            x       y       z     vdW  Elec       q    Type
                         _______ _______ _______ _____ _____    ______ ____

>  <TORSDO>
F 2

$$$$
