=
 OpenBabel11112416463D

 31 35  0  0  1  0  0  0  0  0999 V2000
  186.0930  178.1830  140.9400 C   0  0  0  0  0  0  0  0  0  0  0  0
  188.3300  177.8890  143.9980 C   0  0  2  0  0  3  0  0  0  0  0  0
  187.3970  177.6230  145.1700 C   0  0  0  0  0  0  0  0  0  0  0  0
  185.2300  178.1520  146.2020 C   0  0  0  0  0  0  0  0  0  0  0  0
  187.7010  177.6020  142.6510 C   0  0  0  0  0  0  0  0  0  0  0  0
  186.4730  177.0960  140.2180 N   0  0  0  0  0  0  0  0  0  0  0  0
  185.9900  178.0880  145.1070 C   0  0  0  0  0  3  0  0  0  0  0  0
  189.6210  175.7170  143.7230 C   0  0  2  0  0  3  0  0  0  0  0  0
  185.1210  179.0010  140.4720 F   0  0  0  0  0  0  0  0  0  0  0  0
  189.2820  176.6410  146.4670 C   0  0  0  0  0  2  0  0  0  0  0  0
  183.8220  178.6170  146.0960 C   0  0  0  0  0  1  0  0  0  0  0  0
  189.2560  175.6240  142.2440 C   0  0  0  0  0  2  0  0  0  0  0  0
  189.6930  177.1890  144.1590 C   0  0  2  0  0  3  0  0  0  0  0  0
  186.7050  178.4560  142.1650 C   0  0  0  0  0  3  0  0  0  0  0  0
  185.8200  177.8690  147.5540 C   0  0  0  0  0  2  0  0  0  0  0  0
  188.0840  176.4850  141.8770 C   0  0  0  0  0  0  0  0  0  0  0  0
  187.4510  176.2590  140.6520 C   0  0  0  0  0  3  0  0  0  0  0  0
  190.1760  177.3340  145.5360 N   0  0  0  0  0  2  0  0  0  0  0  0
  187.8630  177.1090  146.3300 C   0  0  0  0  0  0  0  0  0  0  0  0
  186.9120  176.8020  147.4550 C   0  0  0  0  0  2  0  0  0  0  0  0
  190.0040  173.2790  145.1540 O   0  0  0  0  0  0  0  0  0  0  0  0
  191.0240  173.8370  144.6660 C   0  0  0  0  0  0  0  0  0  0  0  0
  190.9040  175.0640  143.9460 N   0  0  0  0  0  2  0  0  0  0  0  0
  194.5440  174.9790  143.8040 C   0  0  0  0  0  0  0  0  0  0  0  0
  193.2530  174.1000  145.7550 C   0  0  0  0  0  2  0  0  0  0  0  0
  192.4000  172.4800  142.5790 O   0  0  0  0  0  0  0  0  0  0  0  0
  194.7990  175.9530  142.9970 N   0  0  0  0  0  2  0  0  0  0  0  0
  193.8210  175.2230  145.0130 N   0  0  0  0  0  2  0  0  0  0  0  0
  193.0460  172.9370  143.5090 C   0  0  0  0  0  0  0  0  0  0  0  0
  192.3800  173.2230  144.8420 C   0  0  2  0  0  3  0  0  0  0  0  0
  194.7960  173.2850  143.2800 S   0  0  0  0  0  0  0  0  0  0  0  0
  1 14  1  0  0  0  0
  2  5  1  6  0  0  0
  2 13  1  0  0  0  0
  2  3  1  0  0  0  0
  3 19  2  0  0  0  0
  4 15  1  0  0  0  0
  6 17  1  0  0  0  0
  6  1  2  0  0  0  0
  7  3  1  0  0  0  0
  7  4  2  0  0  0  0
  8 23  1  6  0  0  0
  8 13  1  0  0  0  0
  9  1  1  0  0  0  0
 11  4  1  0  0  0  0
 12  8  1  0  0  0  0
 13 18  1  1  0  0  0
 14  5  2  0  0  0  0
 16 12  1  0  0  0  0
 16  5  1  0  0  0  0
 17 16  2  0  0  0  0
 18 10  1  0  0  0  0
 19 10  1  0  0  0  0
 19 20  1  0  0  0  0
 20 15  1  0  0  0  0
 22 21  2  0  0  0  0
 23 22  1  0  0  0  0
 24 28  1  0  0  0  0
 26 29  2  0  0  0  0
 27 24  2  0  0  0  0
 28 25  1  0  0  0  0
 29 30  1  0  0  0  0
 30 22  1  6  0  0  0
 30 25  1  0  0  0  0
 31 29  1  0  0  0  0
 31 24  1  0  0  0  0
M  END
>  <MODEL>
1

>  <REMARK>
 VINA RESULT:      -8.9      0.000      0.000
  Name = 
  2 active torsions:
  status: ('A' for Active; 'I' for Inactive)
    1  A    between atoms: C_5  and  C_30
    2  A    between atoms: C_10  and  N_16
                            x       y       z     vdW  Elec       q    Type
                         _______ _______ _______ _____ _____    ______ ____

>  <TORSDO>
F 2

$$$$
=
 OpenBabel11112416463D

 31 35  0  0  1  0  0  0  0  0999 V2000
  184.6410  178.3380  146.7070 C   0  0  0  0  0  0  0  0  0  0  0  0
  187.2100  176.0830  145.0460 C   0  0  2  0  0  3  0  0  0  0  0  0
  187.3270  176.5760  143.6120 C   0  0  0  0  0  0  0  0  0  0  0  0
  186.1190  177.4560  141.6600 C   0  0  0  0  0  0  0  0  0  0  0  0
  186.5870  177.0980  145.9810 C   0  0  0  0  0  0  0  0  0  0  0  0
  185.4010  178.9880  147.6270 N   0  0  0  0  0  0  0  0  0  0  0  0
  186.1830  177.2780  142.9810 C   0  0  0  0  0  3  0  0  0  0  0  0
  189.4490  176.6720  146.0940 C   0  0  2  0  0  3  0  0  0  0  0  0
  183.3220  178.6220  146.5970 F   0  0  0  0  0  0  0  0  0  0  0  0
  189.5750  175.5210  143.4190 C   0  0  0  0  0  2  0  0  0  0  0  0
  184.9590  178.1710  141.0680 C   0  0  0  0  0  1  0  0  0  0  0  0
  188.7770  177.4130  147.2460 C   0  0  0  0  0  2  0  0  0  0  0  0
  188.5420  175.5370  145.5930 C   0  0  2  0  0  3  0  0  0  0  0  0
  185.2200  177.3800  145.8730 C   0  0  0  0  0  3  0  0  0  0  0  0
  187.1510  176.8390  140.7600 C   0  0  0  0  0  2  0  0  0  0  0  0
  187.3520  177.7790  146.9520 C   0  0  0  0  0  0  0  0  0  0  0  0
  186.7260  178.7220  147.7720 C   0  0  0  0  0  3  0  0  0  0  0  0
  189.2030  174.7080  144.5790 N   0  0  0  0  0  2  0  0  0  0  0  0
  188.3950  176.2510  142.8480 C   0  0  0  0  0  0  0  0  0  0  0  0
  188.5160  176.7960  141.4510 C   0  0  0  0  0  2  0  0  0  0  0  0
  191.9860  177.2350  144.9150 O   0  0  0  0  0  0  0  0  0  0  0  0
  191.9630  176.4630  145.9130 C   0  0  0  0  0  0  0  0  0  0  0  0
  190.7250  176.1330  146.5450 N   0  0  0  0  0  2  0  0  0  0  0  0
  195.4940  176.1840  144.5370 C   0  0  0  0  0  0  0  0  0  0  0  0
  194.3090  176.9660  146.5950 C   0  0  0  0  0  2  0  0  0  0  0  0
  192.9140  173.8870  145.1770 O   0  0  0  0  0  0  0  0  0  0  0  0
  195.7900  176.3720  143.2960 N   0  0  0  0  0  2  0  0  0  0  0  0
  194.9420  177.2530  145.3100 N   0  0  0  0  0  2  0  0  0  0  0  0
  193.7100  174.7070  145.6050 C   0  0  0  0  0  0  0  0  0  0  0  0
  193.2340  175.8760  146.4460 C   0  0  2  0  0  3  0  0  0  0  0  0
  195.4570  174.5270  145.2140 S   0  0  0  0  0  0  0  0  0  0  0  0
  1  6  1  0  0  0  0
  2  3  1  6  0  0  0
  2 13  1  0  0  0  0
  2  5  1  0  0  0  0
  4  7  2  0  0  0  0
  5 16  2  0  0  0  0
  6 17  2  0  0  0  0
  7  3  1  0  0  0  0
  8 23  1  1  0  0  0
  8 12  1  0  0  0  0
  9  1  1  0  0  0  0
 10 18  1  0  0  0  0
 11  4  1  0  0  0  0
 13 18  1  6  0  0  0
 13  8  1  0  0  0  0
 14  5  1  0  0  0  0
 14  1  2  0  0  0  0
 15 20  1  0  0  0  0
 15  4  1  0  0  0  0
 16 12  1  0  0  0  0
 16 17  1  0  0  0  0
 19 10  1  0  0  0  0
 19  3  2  0  0  0  0
 20 19  1  0  0  0  0
 21 22  2  0  0  0  0
 22 23  1  0  0  0  0
 24 31  1  0  0  0  0
 24 28  1  0  0  0  0
 26 29  2  0  0  0  0
 27 24  2  0  0  0  0
 28 25  1  0  0  0  0
 29 30  1  0  0  0  0
 30 22  1  6  0  0  0
 30 25  1  0  0  0  0
 31 29  1  0  0  0  0
M  END
>  <MODEL>
2

>  <REMARK>
 VINA RESULT:      -8.7      2.296      4.268
  Name = 
  2 active torsions:
  status: ('A' for Active; 'I' for Inactive)
    1  A    between atoms: C_5  and  C_30
    2  A    between atoms: C_10  and  N_16
                            x       y       z     vdW  Elec       q    Type
                         _______ _______ _______ _____ _____    ______ ____

>  <TORSDO>
F 2

$$$$
=
 OpenBabel11112416463D

 31 35  0  0  1  0  0  0  0  0999 V2000
  184.7620  177.8000  146.8220 C   0  0  0  0  0  0  0  0  0  0  0  0
  187.0280  176.1990  144.2250 C   0  0  2  0  0  3  0  0  0  0  0  0
  186.7280  176.9150  142.9160 C   0  0  0  0  0  0  0  0  0  0  0  0
  184.9830  177.9040  141.4950 C   0  0  0  0  0  0  0  0  0  0  0  0
  186.5690  176.9650  145.4480 C   0  0  0  0  0  0  0  0  0  0  0  0
  185.6660  178.4020  147.6400 N   0  0  0  0  0  0  0  0  0  0  0  0
  185.3980  177.5380  142.7100 C   0  0  0  0  0  3  0  0  0  0  0  0
  189.3930  176.9260  144.8060 C   0  0  2  0  0  3  0  0  0  0  0  0
  183.4380  177.9110  147.0780 F   0  0  0  0  0  0  0  0  0  0  0  0
  188.9430  176.2220  142.0130 C   0  0  0  0  0  2  0  0  0  0  0  0
  183.6470  178.5330  141.3320 C   0  0  0  0  0  1  0  0  0  0  0  0
  188.9680  177.3850  146.1980 C   0  0  0  0  0  2  0  0  0  0  0  0
  188.5020  175.7650  144.3360 C   0  0  2  0  0  3  0  0  0  0  0  0
  185.1990  177.0680  145.7170 C   0  0  0  0  0  3  0  0  0  0  0  0
  185.8060  177.5790  140.2820 C   0  0  0  0  0  2  0  0  0  0  0  0
  187.4870  177.5910  146.3180 C   0  0  0  0  0  0  0  0  0  0  0  0
  187.0030  178.3030  147.4180 C   0  0  0  0  0  3  0  0  0  0  0  0
  188.9600  175.1990  143.0620 N   0  0  0  0  0  2  0  0  0  0  0  0
  187.5910  176.8590  141.8780 C   0  0  0  0  0  0  0  0  0  0  0  0
  187.2990  177.6210  140.6130 C   0  0  0  0  0  2  0  0  0  0  0  0
  191.5770  178.3750  143.6790 O   0  0  0  0  0  0  0  0  0  0  0  0
  191.8360  177.2860  144.2620 C   0  0  0  0  0  0  0  0  0  0  0  0
  190.7880  176.5080  144.8390 N   0  0  0  0  0  2  0  0  0  0  0  0
  193.3780  173.8310  144.6050 C   0  0  0  0  0  0  0  0  0  0  0  0
  193.5660  175.8640  143.1640 C   0  0  0  0  0  2  0  0  0  0  0  0
  193.1020  176.6230  146.7200 O   0  0  0  0  0  0  0  0  0  0  0  0
  192.7090  172.7850  144.9570 N   0  0  0  0  0  2  0  0  0  0  0  0
  193.0450  174.5190  143.3980 N   0  0  0  0  0  2  0  0  0  0  0  0
  193.5320  176.1350  145.6870 C   0  0  0  0  0  0  0  0  0  0  0  0
  193.2470  176.7910  144.3490 C   0  0  2  0  0  3  0  0  0  0  0  0
  194.4950  174.6180  145.7630 S   0  0  0  0  0  0  0  0  0  0  0  0
  1  9  1  0  0  0  0
  1  6  1  0  0  0  0
  2  3  1  6  0  0  0
  2 13  1  0  0  0  0
  2  5  1  0  0  0  0
  4  7  2  0  0  0  0
  5 14  1  0  0  0  0
  5 16  2  0  0  0  0
  7  3  1  0  0  0  0
  8 23  1  1  0  0  0
  8 12  1  0  0  0  0
 10 18  1  0  0  0  0
 11  4  1  0  0  0  0
 12 16  1  0  0  0  0
 13 18  1  6  0  0  0
 13  8  1  0  0  0  0
 14  1  2  0  0  0  0
 15 20  1  0  0  0  0
 15  4  1  0  0  0  0
 16 17  1  0  0  0  0
 17  6  2  0  0  0  0
 19 10  1  0  0  0  0
 19  3  2  0  0  0  0
 20 19  1  0  0  0  0
 21 22  2  0  0  0  0
 22 23  1  0  0  0  0
 24 27  2  0  0  0  0
 24 31  1  0  0  0  0
 25 28  1  0  0  0  0
 25 30  1  0  0  0  0
 28 24  1  0  0  0  0
 29 31  1  0  0  0  0
 29 26  2  0  0  0  0
 30 22  1  1  0  0  0
 30 29  1  0  0  0  0
M  END
>  <MODEL>
3

>  <REMARK>
 VINA RESULT:      -8.6      2.523      4.517
  Name = 
  2 active torsions:
  status: ('A' for Active; 'I' for Inactive)
    1  A    between atoms: C_5  and  C_30
    2  A    between atoms: C_10  and  N_16
                            x       y       z     vdW  Elec       q    Type
                         _______ _______ _______ _____ _____    ______ ____

>  <TORSDO>
F 2

$$$$
=
 OpenBabel11112416463D

 31 35  0  0  1  0  0  0  0  0999 V2000
  186.0380  178.2480  140.9980 C   0  0  0  0  0  0  0  0  0  0  0  0
  188.2410  178.0230  144.0860 C   0  0  2  0  0  3  0  0  0  0  0  0
  187.2980  177.7440  145.2480 C   0  0  0  0  0  0  0  0  0  0  0  0
  185.1070  178.2330  146.2490 C   0  0  0  0  0  0  0  0  0  0  0  0
  187.6360  177.7130  142.7340 C   0  0  0  0  0  0  0  0  0  0  0  0
  186.4500  177.1640  140.2880 N   0  0  0  0  0  0  0  0  0  0  0  0
  185.8830  178.1780  145.1640 C   0  0  0  0  0  3  0  0  0  0  0  0
  189.5830  175.8780  143.8430 C   0  0  2  0  0  3  0  0  0  0  0  0
  185.0540  179.0410  140.5120 F   0  0  0  0  0  0  0  0  0  0  0  0
  189.1880  176.8120  146.5760 C   0  0  0  0  0  2  0  0  0  0  0  0
  183.6910  178.6660  146.1210 C   0  0  0  0  0  1  0  0  0  0  0  0
  189.2380  175.7670  142.3600 C   0  0  0  0  0  2  0  0  0  0  0  0
  189.6170  177.3540  144.2690 C   0  0  2  0  0  3  0  0  0  0  0  0
  186.6270  178.5420  142.2290 C   0  0  0  0  0  3  0  0  0  0  0  0
  185.6860  177.9710  147.6090 C   0  0  0  0  0  2  0  0  0  0  0  0
  188.0530  176.6000  141.9720 C   0  0  0  0  0  0  0  0  0  0  0  0
  187.4410  176.3520  140.7410 C   0  0  0  0  0  3  0  0  0  0  0  0
  190.0790  177.5180  145.6520 N   0  0  0  0  0  2  0  0  0  0  0  0
  187.7610  177.2480  146.4170 C   0  0  0  0  0  0  0  0  0  0  0  0
  186.8020  176.9280  147.5320 C   0  0  0  0  0  2  0  0  0  0  0  0
  192.0750  176.7800  142.7870 O   0  0  0  0  0  0  0  0  0  0  0  0
  192.0900  175.7640  143.5330 C   0  0  0  0  0  0  0  0  0  0  0  0
  190.8760  175.2540  144.0870 N   0  0  0  0  0  2  0  0  0  0  0  0
  193.0460  172.1220  144.0470 C   0  0  0  0  0  0  0  0  0  0  0  0
  193.7600  174.1060  142.7050 C   0  0  0  0  0  2  0  0  0  0  0  0
  192.8170  174.9260  146.1510 O   0  0  0  0  0  0  0  0  0  0  0  0
  192.1860  171.1840  144.2580 N   0  0  0  0  0  2  0  0  0  0  0  0
  193.0210  172.8510  142.8180 N   0  0  0  0  0  2  0  0  0  0  0  0
  193.3420  174.3810  145.1930 C   0  0  0  0  0  0  0  0  0  0  0  0
  193.3810  175.0700  143.8420 C   0  0  2  0  0  3  0  0  0  0  0  0
  194.0530  172.7410  145.3930 S   0  0  0  0  0  0  0  0  0  0  0  0
  1 14  1  0  0  0  0
  2  5  1  6  0  0  0
  2 13  1  0  0  0  0
  2  3  1  0  0  0  0
  3 19  2  0  0  0  0
  4 15  1  0  0  0  0
  6 17  1  0  0  0  0
  6  1  2  0  0  0  0
  7  3  1  0  0  0  0
  7  4  2  0  0  0  0
  8 23  1  6  0  0  0
  8 13  1  0  0  0  0
  9  1  1  0  0  0  0
 11  4  1  0  0  0  0
 12  8  1  0  0  0  0
 13 18  1  1  0  0  0
 14  5  2  0  0  0  0
 16 12  1  0  0  0  0
 16  5  1  0  0  0  0
 17 16  2  0  0  0  0
 18 10  1  0  0  0  0
 19 10  1  0  0  0  0
 19 20  1  0  0  0  0
 20 15  1  0  0  0  0
 21 22  2  0  0  0  0
 22 23  1  0  0  0  0
 24 27  2  0  0  0  0
 24 31  1  0  0  0  0
 25 28  1  0  0  0  0
 25 30  1  0  0  0  0
 28 24  1  0  0  0  0
 29 31  1  0  0  0  0
 29 26  2  0  0  0  0
 30 22  1  6  0  0  0
 30 29  1  0  0  0  0
M  END
>  <MODEL>
4

>  <REMARK>
 VINA RESULT:      -8.1      1.556      2.015
  Name = 
  2 active torsions:
  status: ('A' for Active; 'I' for Inactive)
    1  A    between atoms: C_5  and  C_30
    2  A    between atoms: C_10  and  N_16
                            x       y       z     vdW  Elec       q    Type
                         _______ _______ _______ _____ _____    ______ ____

>  <TORSDO>
F 2

$$$$
=
 OpenBabel11112416463D

 31 35  0  0  1  0  0  0  0  0999 V2000
  194.8640  176.2910  144.7210 C   0  0  0  0  0  0  0  0  0  0  0  0
  191.3860  176.5930  143.2200 C   0  0  2  0  0  3  0  0  0  0  0  0
  191.1640  175.3130  142.4280 C   0  0  0  0  0  0  0  0  0  0  0  0
  192.1860  173.6350  140.9510 C   0  0  0  0  0  0  0  0  0  0  0  0
  192.5020  176.4850  144.2370 C   0  0  0  0  0  0  0  0  0  0  0  0
  194.5850  176.2280  146.0490 N   0  0  0  0  0  0  0  0  0  0  0  0
  192.3310  174.5720  141.8900 C   0  0  0  0  0  3  0  0  0  0  0  0
  189.7590  176.4130  145.1650 C   0  0  2  0  0  3  0  0  0  0  0  0
  196.1470  176.2210  144.2950 F   0  0  0  0  0  0  0  0  0  0  0  0
  188.6990  175.6420  142.5610 C   0  0  0  0  0  2  0  0  0  0  0  0
  193.3800  172.9100  140.4440 C   0  0  0  0  0  1  0  0  0  0  0  0
  190.8680  176.6570  146.1850 C   0  0  0  0  0  2  0  0  0  0  0  0
  190.0860  177.1320  143.8460 C   0  0  2  0  0  3  0  0  0  0  0  0
  193.8290  176.4250  143.7950 C   0  0  0  0  0  3  0  0  0  0  0  0
  190.8440  173.3910  140.3230 C   0  0  0  0  0  2  0  0  0  0  0  0
  192.2390  176.4280  145.6230 C   0  0  0  0  0  0  0  0  0  0  0  0
  193.3100  176.3050  146.5130 C   0  0  0  0  0  3  0  0  0  0  0  0
  188.9840  177.0420  142.8810 N   0  0  0  0  0  2  0  0  0  0  0  0
  189.9210  174.9210  142.0710 C   0  0  0  0  0  0  0  0  0  0  0  0
  189.7220  173.6230  141.3360 C   0  0  0  0  0  2  0  0  0  0  0  0
  188.2710  175.1680  147.2560 O   0  0  0  0  0  0  0  0  0  0  0  0
  187.8030  176.2280  146.7570 C   0  0  0  0  0  0  0  0  0  0  0  0
  188.4940  176.8960  145.7010 N   0  0  0  0  0  2  0  0  0  0  0  0
  185.4430  178.9080  145.4580 C   0  0  0  0  0  0  0  0  0  0  0  0
  185.3800  176.5380  146.2490 C   0  0  0  0  0  2  0  0  0  0  0  0
  187.6360  178.6770  148.1930 O   0  0  0  0  0  0  0  0  0  0  0  0
  185.7670  179.7580  144.5430 N   0  0  0  0  0  2  0  0  0  0  0  0
  185.4220  177.5100  145.1590 N   0  0  0  0  0  2  0  0  0  0  0  0
  186.6430  178.2650  147.6150 C   0  0  0  0  0  0  0  0  0  0  0  0
  186.5120  176.7970  147.2590 C   0  0  2  0  0  3  0  0  0  0  0  0
  185.3400  179.4230  147.1700 S   0  0  0  0  0  0  0  0  0  0  0  0
  1  6  1  0  0  0  0
  2  3  1  1  0  0  0
  2 13  1  0  0  0  0
  2  5  1  0  0  0  0
  4  7  2  0  0  0  0
  5 16  2  0  0  0  0
  6 17  2  0  0  0  0
  7  3  1  0  0  0  0
  8 23  1  1  0  0  0
  8 12  1  0  0  0  0
  9  1  1  0  0  0  0
 10 18  1  0  0  0  0
 11  4  1  0  0  0  0
 13 18  1  6  0  0  0
 13  8  1  0  0  0  0
 14  5  1  0  0  0  0
 14  1  2  0  0  0  0
 15  4  1  0  0  0  0
 15 20  1  0  0  0  0
 16 12  1  0  0  0  0
 16 17  1  0  0  0  0
 19  3  2  0  0  0  0
 19 10  1  0  0  0  0
 20 19  1  0  0  0  0
 22 21  2  0  0  0  0
 23 22  1  0  0  0  0
 24 31  1  0  0  0  0
 25 30  1  0  0  0  0
 27 24  2  0  0  0  0
 28 24  1  0  0  0  0
 28 25  1  0  0  0  0
 29 26  2  0  0  0  0
 30 22  1  6  0  0  0
 30 29  1  0  0  0  0
 31 29  1  0  0  0  0
M  END
>  <MODEL>
5

>  <REMARK>
 VINA RESULT:      -7.6      3.964      7.758
  Name = 
  2 active torsions:
  status: ('A' for Active; 'I' for Inactive)
    1  A    between atoms: C_5  and  C_30
    2  A    between atoms: C_10  and  N_16
                            x       y       z     vdW  Elec       q    Type
                         _______ _______ _______ _____ _____    ______ ____

>  <TORSDO>
F 2

$$$$
=
 OpenBabel11112416463D

 31 35  0  0  1  0  0  0  0  0999 V2000
  186.7490  178.1570  144.7050 C   0  0  0  0  0  0  0  0  0  0  0  0
  189.9750  176.5720  143.4720 C   0  0  2  0  0  3  0  0  0  0  0  0
  190.6870  176.0610  144.7160 C   0  0  0  0  0  0  0  0  0  0  0  0
  191.2340  176.5050  147.0710 C   0  0  0  0  0  0  0  0  0  0  0  0
  188.5000  176.8330  143.6890 C   0  0  0  0  0  0  0  0  0  0  0  0
  185.8150  177.3300  144.1680 N   0  0  0  0  0  0  0  0  0  0  0  0
  190.4280  176.7050  146.0260 C   0  0  0  0  0  3  0  0  0  0  0  0
  189.2950  174.4610  142.2310 C   0  0  2  0  0  3  0  0  0  0  0  0
  186.3650  179.2060  145.4700 F   0  0  0  0  0  0  0  0  0  0  0  0
  191.9970  174.4620  143.3260 C   0  0  0  0  0  2  0  0  0  0  0  0
  190.9340  177.1630  148.3690 C   0  0  0  0  0  1  0  0  0  0  0  0
  187.8400  174.9120  142.1510 C   0  0  0  0  0  2  0  0  0  0  0  0
  190.2280  175.6830  142.2400 C   0  0  2  0  0  3  0  0  0  0  0  0
  188.1050  177.9260  144.4700 C   0  0  0  0  0  3  0  0  0  0  0  0
  192.5000  175.7140  146.9120 C   0  0  0  0  0  2  0  0  0  0  0  0
  187.5090  175.9950  143.1340 C   0  0  0  0  0  0  0  0  0  0  0  0
  186.1630  176.2740  143.3880 C   0  0  0  0  0  3  0  0  0  0  0  0
  191.6420  175.2980  142.1760 N   0  0  0  0  0  2  0  0  0  0  0  0
  191.6680  175.1350  144.6260 C   0  0  0  0  0  0  0  0  0  0  0  0
  192.3190  174.6040  145.8750 C   0  0  0  0  0  2  0  0  0  0  0  0
  189.6910  171.6380  142.3480 O   0  0  0  0  0  0  0  0  0  0  0  0
  189.7780  172.1940  141.2200 C   0  0  0  0  0  0  0  0  0  0  0  0
  189.6000  173.6050  141.0920 N   0  0  0  0  0  2  0  0  0  0  0  0
  191.5090  172.9670  137.9260 C   0  0  0  0  0  0  0  0  0  0  0  0
  191.5970  171.2860  139.7740 C   0  0  0  0  0  2  0  0  0  0  0  0
  188.1910  172.2900  138.8620 O   0  0  0  0  0  0  0  0  0  0  0  0
  191.7470  174.1650  137.5120 N   0  0  0  0  0  2  0  0  0  0  0  0
  192.1080  172.4960  139.1360 N   0  0  0  0  0  2  0  0  0  0  0  0
  189.3480  171.9120  138.7760 C   0  0  0  0  0  0  0  0  0  0  0  0
  190.0780  171.3830  139.9970 C   0  0  2  0  0  3  0  0  0  0  0  0
  190.1910  172.0050  137.1890 S   0  0  0  0  0  0  0  0  0  0  0  0
  1  9  1  0  0  0  0
  2  5  1  1  0  0  0
  2  3  1  0  0  0  0
  3  7  1  0  0  0  0
  4 11  1  0  0  0  0
  5 14  2  0  0  0  0
  6  1  2  0  0  0  0
  7  4  2  0  0  0  0
  8 23  1  6  0  0  0
  8 13  1  0  0  0  0
 10 19  1  0  0  0  0
 12  8  1  0  0  0  0
 12 16  1  0  0  0  0
 13 18  1  1  0  0  0
 13  2  1  0  0  0  0
 14  1  1  0  0  0  0
 15  4  1  0  0  0  0
 16 17  2  0  0  0  0
 16  5  1  0  0  0  0
 17  6  1  0  0  0  0
 18 10  1  0  0  0  0
 19  3  2  0  0  0  0
 19 20  1  0  0  0  0
 20 15  1  0  0  0  0
 22 21  2  0  0  0  0
 23 22  1  0  0  0  0
 24 28  1  0  0  0  0
 25 30  1  0  0  0  0
 27 24  2  0  0  0  0
 28 25  1  0  0  0  0
 29 26  2  0  0  0  0
 29 30  1  0  0  0  0
 30 22  1  1  0  0  0
 31 24  1  0  0  0  0
 31 29  1  0  0  0  0
M  END
>  <MODEL>
6

>  <REMARK>
 VINA RESULT:      -7.4      3.520      4.943
  Name = 
  2 active torsions:
  status: ('A' for Active; 'I' for Inactive)
    1  A    between atoms: C_5  and  C_30
    2  A    between atoms: C_10  and  N_16
                            x       y       z     vdW  Elec       q    Type
                         _______ _______ _______ _____ _____    ______ ____

>  <TORSDO>
F 2

$$$$
=
 OpenBabel11112416463D

 31 35  0  0  1  0  0  0  0  0999 V2000
  190.6780  171.2490  142.6910 C   0  0  0  0  0  0  0  0  0  0  0  0
  189.8340  174.2210  144.9030 C   0  0  2  0  0  3  0  0  0  0  0  0
  191.1540  174.9310  145.1640 C   0  0  0  0  0  0  0  0  0  0  0  0
  193.5550  174.6550  145.6170 C   0  0  0  0  0  0  0  0  0  0  0  0
  189.8780  173.2920  143.7090 C   0  0  0  0  0  0  0  0  0  0  0  0
  190.0410  171.5770  141.5360 N   0  0  0  0  0  0  0  0  0  0  0  0
  192.4230  174.1650  145.1070 C   0  0  0  0  0  3  0  0  0  0  0  0
  188.5330  175.8430  143.4410 C   0  0  2  0  0  3  0  0  0  0  0  0
  191.3890  170.0990  142.7680 F   0  0  0  0  0  0  0  0  0  0  0  0
  189.9330  177.0340  145.7040 C   0  0  0  0  0  2  0  0  0  0  0  0
  194.8070  173.8590  145.5320 C   0  0  0  0  0  1  0  0  0  0  0  0
  188.2830  174.7730  142.3830 C   0  0  0  0  0  2  0  0  0  0  0  0
  188.6440  175.1970  144.8320 C   0  0  2  0  0  3  0  0  0  0  0  0
  190.6030  172.0980  143.7960 C   0  0  0  0  0  3  0  0  0  0  0  0
  193.5470  175.9520  146.3740 C   0  0  0  0  0  2  0  0  0  0  0  0
  189.2160  173.6050  142.5020 C   0  0  0  0  0  0  0  0  0  0  0  0
  189.3110  172.7180  141.4260 C   0  0  0  0  0  3  0  0  0  0  0  0
  188.7460  176.1980  145.8990 N   0  0  0  0  0  2  0  0  0  0  0  0
  191.1840  176.2100  145.6000 C   0  0  0  0  0  0  0  0  0  0  0  0
  192.5020  176.9090  145.7980 C   0  0  0  0  0  2  0  0  0  0  0  0
  188.5000  178.2660  141.9360 O   0  0  0  0  0  0  0  0  0  0  0  0
  187.4860  178.0000  142.6370 C   0  0  0  0  0  0  0  0  0  0  0  0
  187.4410  176.8080  143.4220 N   0  0  0  0  0  2  0  0  0  0  0  0
  184.6290  178.5490  145.0820 C   0  0  0  0  0  0  0  0  0  0  0  0
  186.3920  179.8590  143.8900 C   0  0  0  0  0  2  0  0  0  0  0  0
  184.8670  177.2380  141.8310 O   0  0  0  0  0  0  0  0  0  0  0  0
  184.3160  177.7090  146.0100 N   0  0  0  0  0  2  0  0  0  0  0  0
  185.9140  179.1750  145.0890 N   0  0  0  0  0  2  0  0  0  0  0  0
  184.9970  178.1900  142.5840 C   0  0  0  0  0  0  0  0  0  0  0  0
  186.3160  178.9350  142.6630 C   0  0  2  0  0  3  0  0  0  0  0  0
  183.6110  178.6920  143.6150 S   0  0  0  0  0  0  0  0  0  0  0  0
  1  9  1  0  0  0  0
  1 14  1  0  0  0  0
  2  5  1  6  0  0  0
  2  3  1  0  0  0  0
  3 19  2  0  0  0  0
  4 15  1  0  0  0  0
  5 14  2  0  0  0  0
  6  1  2  0  0  0  0
  7  3  1  0  0  0  0
  7  4  2  0  0  0  0
  8 23  1  1  0  0  0
  8 13  1  0  0  0  0
 10 18  1  0  0  0  0
 11  4  1  0  0  0  0
 12 16  1  0  0  0  0
 12  8  1  0  0  0  0
 13  2  1  0  0  0  0
 13 18  1  1  0  0  0
 16  5  1  0  0  0  0
 17  6  1  0  0  0  0
 17 16  2  0  0  0  0
 19 10  1  0  0  0  0
 19 20  1  0  0  0  0
 20 15  1  0  0  0  0
 21 22  2  0  0  0  0
 22 23  1  0  0  0  0
 24 28  1  0  0  0  0
 24 27  2  0  0  0  0
 25 28  1  0  0  0  0
 26 29  2  0  0  0  0
 29 30  1  0  0  0  0
 29 31  1  0  0  0  0
 30 22  1  1  0  0  0
 30 25  1  0  0  0  0
 31 24  1  0  0  0  0
M  END
>  <MODEL>
7

>  <REMARK>
 VINA RESULT:      -7.2      4.142      7.361
  Name = 
  2 active torsions:
  status: ('A' for Active; 'I' for Inactive)
    1  A    between atoms: C_5  and  C_30
    2  A    between atoms: C_10  and  N_16
                            x       y       z     vdW  Elec       q    Type
                         _______ _______ _______ _____ _____    ______ ____

>  <TORSDO>
F 2

$$$$
=
 OpenBabel11112416463D

 31 35  0  0  1  0  0  0  0  0999 V2000
  186.1130  177.2290  142.5650 C   0  0  0  0  0  0  0  0  0  0  0  0
  188.5670  174.3350  142.7550 C   0  0  2  0  0  3  0  0  0  0  0  0
  189.1000  174.1500  141.3420 C   0  0  0  0  0  0  0  0  0  0  0  0
  188.5540  174.1670  138.9450 C   0  0  0  0  0  0  0  0  0  0  0  0
  187.9290  175.6880  142.9840 C   0  0  0  0  0  0  0  0  0  0  0  0
  186.7380  178.1680  143.3230 N   0  0  0  0  0  0  0  0  0  0  0  0
  188.2750  174.5750  140.1850 C   0  0  0  0  0  3  0  0  0  0  0  0
  190.5670  175.1880  144.0700 C   0  0  2  0  0  3  0  0  0  0  0  0
  184.9260  177.5130  141.9790 F   0  0  0  0  0  0  0  0  0  0  0  0
  191.1130  172.9880  142.2380 C   0  0  0  0  0  2  0  0  0  0  0  0
  187.7060  174.6210  137.8120 C   0  0  0  0  0  1  0  0  0  0  0  0
  189.7830  176.3930  144.5840 C   0  0  0  0  0  2  0  0  0  0  0  0
  189.6190  174.0030  143.8300 C   0  0  2  0  0  3  0  0  0  0  0  0
  186.6950  175.9730  142.3880 C   0  0  0  0  0  3  0  0  0  0  0  0
  189.6440  173.1630  138.7030 C   0  0  0  0  0  2  0  0  0  0  0  0
  188.5520  176.6770  143.7750 C   0  0  0  0  0  0  0  0  0  0  0  0
  187.9250  177.9150  143.9330 C   0  0  0  0  0  3  0  0  0  0  0  0
  190.3450  172.7810  143.4680 N   0  0  0  0  0  2  0  0  0  0  0  0
  190.2430  173.4660  141.1120 C   0  0  0  0  0  0  0  0  0  0  0  0
  190.7810  173.3450  139.7110 C   0  0  0  0  0  2  0  0  0  0  0  0
  193.3800  175.2310  143.5990 O   0  0  0  0  0  0  0  0  0  0  0  0
  192.9840  174.8770  144.7440 C   0  0  0  0  0  0  0  0  0  0  0  0
  191.5890  174.8260  145.0430 N   0  0  0  0  0  2  0  0  0  0  0  0
  196.7690  174.5420  144.7920 C   0  0  0  0  0  0  0  0  0  0  0  0
  194.9410  175.6620  146.0770 C   0  0  0  0  0  2  0  0  0  0  0  0
  194.0950  172.2700  144.9750 O   0  0  0  0  0  0  0  0  0  0  0  0
  197.4910  174.4820  143.7250 N   0  0  0  0  0  2  0  0  0  0  0  0
  195.9950  175.7120  145.0660 N   0  0  0  0  0  2  0  0  0  0  0  0
  194.6990  173.2120  145.4640 C   0  0  0  0  0  0  0  0  0  0  0  0
  193.9730  174.4990  145.8040 C   0  0  2  0  0  3  0  0  0  0  0  0
  196.4680  173.0660  145.7610 S   0  0  0  0  0  0  0  0  0  0  0  0
  1  6  1  0  0  0  0
  2  3  1  6  0  0  0
  2  5  1  0  0  0  0
  2 13  1  0  0  0  0
  4  7  2  0  0  0  0
  5 16  2  0  0  0  0
  6 17  2  0  0  0  0
  7  3  1  0  0  0  0
  8 12  1  0  0  0  0
  8 23  1  1  0  0  0
  9  1  1  0  0  0  0
 10 18  1  0  0  0  0
 11  4  1  0  0  0  0
 13 18  1  6  0  0  0
 13  8  1  0  0  0  0
 14  1  2  0  0  0  0
 14  5  1  0  0  0  0
 15  4  1  0  0  0  0
 15 20  1  0  0  0  0
 16 17  1  0  0  0  0
 16 12  1  0  0  0  0
 19  3  2  0  0  0  0
 19 10  1  0  0  0  0
 20 19  1  0  0  0  0
 21 22  2  0  0  0  0
 22 23  1  0  0  0  0
 24 28  1  0  0  0  0
 24 31  1  0  0  0  0
 26 29  2  0  0  0  0
 27 24  2  0  0  0  0
 28 25  1  0  0  0  0
 29 31  1  0  0  0  0
 29 30  1  0  0  0  0
 30 22  1  6  0  0  0
 30 25  1  0  0  0  0
M  END
>  <MODEL>
8

>  <REMARK>
 VINA RESULT:      -7.1      2.446      4.810
  Name = 
  2 active torsions:
  status: ('A' for Active; 'I' for Inactive)
    1  A    between atoms: C_5  and  C_30
    2  A    between atoms: C_10  and  N_16
                            x       y       z     vdW  Elec       q    Type
                         _______ _______ _______ _____ _____    ______ ____

>  <TORSDO>
F 2

$$$$
=
 OpenBabel11112416463D

 31 35  0  0  1  0  0  0  0  0999 V2000
  193.3650  172.6570  140.7670 C   0  0  0  0  0  0  0  0  0  0  0  0
  191.4200  173.5190  143.9150 C   0  0  2  0  0  3  0  0  0  0  0  0
  192.2650  174.5450  144.6560 C   0  0  0  0  0  0  0  0  0  0  0  0
  194.5400  175.2270  145.2890 C   0  0  0  0  0  0  0  0  0  0  0  0
  191.7900  173.3790  142.4530 C   0  0  0  0  0  0  0  0  0  0  0  0
  192.5470  173.1440  139.7970 N   0  0  0  0  0  0  0  0  0  0  0  0
  193.7340  174.5690  144.4530 C   0  0  0  0  0  3  0  0  0  0  0  0
  189.3800  174.8270  143.1490 C   0  0  2  0  0  3  0  0  0  0  0  0
  194.5390  172.0710  140.4310 F   0  0  0  0  0  0  0  0  0  0  0  0
  190.2490  175.3390  145.8840 C   0  0  0  0  0  2  0  0  0  0  0  0
  196.0060  175.2330  145.0460 C   0  0  0  0  0  1  0  0  0  0  0  0
  189.5710  174.3830  141.7010 C   0  0  0  0  0  2  0  0  0  0  0  0
  189.9090  173.7490  144.1080 C   0  0  2  0  0  3  0  0  0  0  0  0
  192.9980  172.7620  142.1090 C   0  0  0  0  0  3  0  0  0  0  0  0
  193.9880  175.8640  146.5320 C   0  0  0  0  0  2  0  0  0  0  0  0
  190.9530  173.8670  141.4270 C   0  0  0  0  0  0  0  0  0  0  0  0
  191.3580  173.7290  140.0970 C   0  0  0  0  0  3  0  0  0  0  0  0
  189.6210  174.0690  145.5100 N   0  0  0  0  0  2  0  0  0  0  0  0
  191.7250  175.3320  145.6120 C   0  0  0  0  0  0  0  0  0  0  0  0
  192.5670  176.3780  146.2920 C   0  0  0  0  0  2  0  0  0  0  0  0
  188.2180  177.3710  143.7160 O   0  0  0  0  0  0  0  0  0  0  0  0
  187.4470  176.3740  143.6670 C   0  0  0  0  0  0  0  0  0  0  0  0
  187.9650  175.0710  143.3970 N   0  0  0  0  0  2  0  0  0  0  0  0
  185.1830  179.4040  144.0220 C   0  0  0  0  0  0  0  0  0  0  0  0
  185.3250  177.2770  142.7170 C   0  0  0  0  0  2  0  0  0  0  0  0
  186.3300  176.9190  146.2250 O   0  0  0  0  0  0  0  0  0  0  0  0
  185.6220  180.5980  144.2370 N   0  0  0  0  0  2  0  0  0  0  0  0
  185.5380  178.7190  142.8190 N   0  0  0  0  0  2  0  0  0  0  0  0
  185.6900  177.2150  145.2280 C   0  0  0  0  0  0  0  0  0  0  0  0
  185.9770  176.5410  143.9000 C   0  0  2  0  0  3  0  0  0  0  0  0
  184.4110  178.4750  145.3450 S   0  0  0  0  0  0  0  0  0  0  0  0
  1 14  1  0  0  0  0
  2  5  1  6  0  0  0
  2 13  1  0  0  0  0
  2  3  1  0  0  0  0
  3 19  2  0  0  0  0
  4 15  1  0  0  0  0
  6 17  1  0  0  0  0
  6  1  2  0  0  0  0
  7  3  1  0  0  0  0
  7  4  2  0  0  0  0
  8 23  1  1  0  0  0
  8 13  1  0  0  0  0
  9  1  1  0  0  0  0
 11  4  1  0  0  0  0
 12  8  1  0  0  0  0
 13 18  1  1  0  0  0
 14  5  2  0  0  0  0
 16 12  1  0  0  0  0
 16  5  1  0  0  0  0
 17 16  2  0  0  0  0
 18 10  1  0  0  0  0
 19 10  1  0  0  0  0
 19 20  1  0  0  0  0
 20 15  1  0  0  0  0
 22 21  2  0  0  0  0
 23 22  1  0  0  0  0
 24 27  2  0  0  0  0
 24 31  1  0  0  0  0
 25 28  1  0  0  0  0
 25 30  1  0  0  0  0
 28 24  1  0  0  0  0
 29 31  1  0  0  0  0
 29 26  2  0  0  0  0
 30 22  1  6  0  0  0
 30 29  1  0  0  0  0
M  END
>  <MODEL>
9

>  <REMARK>
 VINA RESULT:      -7.1      3.960      7.475
  Name = 
  2 active torsions:
  status: ('A' for Active; 'I' for Inactive)
    1  A    between atoms: C_5  and  C_30
    2  A    between atoms: C_10  and  N_16
                            x       y       z     vdW  Elec       q    Type
                         _______ _______ _______ _____ _____    ______ ____

>  <TORSDO>
F 2

$$$$
