=
 OpenBabel11112416323D

 32 37  0  0  1  0  0  0  0  0999 V2000
  187.6040  176.0280  147.2570 C   0  0  0  0  0  2  0  0  0  0  0  0
  192.3400  176.4770  144.5520 C   0  0  1  0  0  3  0  0  0  0  0  0
  189.9390  173.7940  142.2270 C   0  0  0  0  0  3  0  0  0  0  0  0
  190.6330  173.5140  140.9250 C   0  0  0  0  0  2  0  0  0  0  0  0
  194.4840  175.3470  145.3040 C   0  0  1  0  0  3  0  0  0  0  0  0
  195.7690  174.6350  144.8700 C   0  0  1  0  0  3  0  0  0  0  0  0
  190.6280  176.4850  146.0100 C   0  0  1  0  0  3  0  0  0  0  0  0
  190.2420  177.6700  143.8370 C   0  0  0  0  0  2  0  0  0  0  0  0
  195.8030  172.4330  144.2720 C   0  0  0  0  0  0  0  0  0  0  0  0
  188.4470  177.7240  145.5840 C   0  0  0  0  0  2  0  0  0  0  0  0
  190.2170  174.8690  142.8790 N   0  0  0  0  0  0  0  0  0  0  0  0
  191.5030  176.9440  143.3500 C   0  0  2  0  0  3  0  0  0  0  0  0
  191.1960  175.8060  142.3630 C   0  0  1  0  0  3  0  0  0  0  0  0
  193.3110  174.6000  143.1380 C   0  0  1  0  0  3  0  0  0  0  0  0
  196.3730  172.5480  145.5560 N   0  0  0  0  0  0  0  0  0  0  0  0
  188.7760  175.0700  147.0860 C   0  0  0  0  0  2  0  0  0  0  0  0
  189.5660  176.9000  144.9730 C   0  0  2  0  0  3  0  0  0  0  0  0
  196.3550  173.8830  145.9950 N   0  0  0  0  0  0  0  0  0  0  0  0
  190.0860  175.8230  147.2830 C   0  0  0  0  0  2  0  0  0  0  0  0
  187.2980  176.8050  145.9760 C   0  0  2  0  0  3  0  0  0  0  0  0
  192.1320  173.8350  141.0330 C   0  0  0  0  0  2  0  0  0  0  0  0
  192.4740  175.0540  141.9260 C   0  0  1  0  0  3  0  0  0  0  0  0
  194.6020  173.9260  142.6570 C   0  0  0  0  0  2  0  0  0  0  0  0
  191.5800  175.6480  145.4020 O   0  0  0  0  0  0  0  0  0  0  0  0
  194.8570  176.5500  146.1570 C   0  0  0  0  0  1  0  0  0  0  0  0
  195.5430  171.1360  143.5890 C   0  0  0  0  0  1  0  0  0  0  0  0
  193.6270  175.7840  144.0900 C   0  0  1  0  0  3  0  0  0  0  0  0
  195.4460  173.6150  143.8420 C   0  0  0  0  0  0  0  0  0  0  0  0
  186.0940  177.6000  146.1610 N   0  0  0  0  0  2  0  0  0  0  0  0
  185.1920  177.8910  145.0930 C   0  0  0  0  0  0  0  0  0  0  0  0
  185.4240  177.4810  143.9240 O   0  0  0  0  0  0  0  0  0  0  0  0
  183.9680  178.6890  145.3630 C   0  0  0  0  0  1  0  0  0  0  0  0
  2 24  1  6  0  0  0
  3 11  2  0  0  0  0
  4 21  1  0  0  0  0
  4  3  1  0  0  0  0
  5 25  1  6  0  0  0
  6 28  1  6  0  0  0
  6  5  1  0  0  0  0
  6 18  1  0  0  0  0
  7 19  1  1  0  0  0
  9 15  1  0  0  0  0
 10 20  1  0  0  0  0
 12  8  1  1  0  0  0
 12  2  1  0  0  0  0
 13 11  1  1  0  0  0
 13 12  1  0  0  0  0
 14 23  1  6  0  0  0
 14 27  1  0  0  0  0
 15 18  2  0  0  0  0
 16  1  1  0  0  0  0
 16 19  1  0  0  0  0
 17  8  1  6  0  0  0
 17 10  1  0  0  0  0
 17  7  1  0  0  0  0
 20 29  1  1  0  0  0
 20  1  1  0  0  0  0
 22 21  1  1  0  0  0
 22 13  1  0  0  0  0
 22 14  1  0  0  0  0
 23 28  1  0  0  0  0
 24  7  1  0  0  0  0
 26  9  1  0  0  0  0
 27  2  1  0  0  0  0
 27  5  1  0  0  0  0
 28  9  2  0  0  0  0
 30 32  1  0  0  0  0
 30 29  1  0  0  0  0
 31 30  2  0  0  0  0
M  END
>  <MODEL>
1

>  <REMARK>
 VINA RESULT:      -8.4      0.000      0.000
  Name = 
  1 active torsions:
  status: ('A' for Active; 'I' for Inactive)
    1  A    between atoms: C_20  and  N_29
                            x       y       z     vdW  Elec       q    Type
                         _______ _______ _______ _____ _____    ______ ____

>  <TORSDO>
F 1

$$$$
=
 OpenBabel11112416323D

 32 37  0  0  1  0  0  0  0  0999 V2000
  190.1680  171.1050  141.9970 C   0  0  0  0  0  2  0  0  0  0  0  0
  189.2490  176.4810  142.4370 C   0  0  1  0  0  3  0  0  0  0  0  0
  189.8180  175.0820  146.4470 C   0  0  0  0  0  3  0  0  0  0  0  0
  189.8850  176.2610  147.3750 C   0  0  0  0  0  2  0  0  0  0  0  0
  186.9530  177.5270  142.1630 C   0  0  1  0  0  3  0  0  0  0  0  0
  185.9830  178.6140  142.6380 C   0  0  1  0  0  3  0  0  0  0  0  0
  189.4650  174.3280  141.8290 C   0  0  1  0  0  3  0  0  0  0  0  0
  191.5450  175.4700  142.6300 C   0  0  0  0  0  2  0  0  0  0  0  0
  184.7380  178.3920  144.5380 C   0  0  0  0  0  0  0  0  0  0  0  0
  191.6980  173.1070  141.8090 C   0  0  0  0  0  2  0  0  0  0  0  0
  190.0930  175.2380  145.1990 N   0  0  0  0  0  0  0  0  0  0  0  0
  190.6050  176.5620  143.1570 C   0  0  2  0  0  3  0  0  0  0  0  0
  190.4640  176.5430  144.6880 C   0  0  1  0  0  3  0  0  0  0  0  0
  188.1200  177.5340  144.4580 C   0  0  1  0  0  3  0  0  0  0  0  0
  183.8860  178.2030  143.4300 N   0  0  0  0  0  0  0  0  0  0  0  0
  188.9610  171.8970  142.4840 C   0  0  0  0  0  2  0  0  0  0  0  0
  190.8260  174.1240  142.5240 C   0  0  2  0  0  3  0  0  0  0  0  0
  184.6030  178.2990  142.2240 N   0  0  0  0  0  0  0  0  0  0  0  0
  188.6810  173.0450  141.5220 C   0  0  0  0  0  2  0  0  0  0  0  0
  191.4900  171.7350  142.4360 C   0  0  2  0  0  3  0  0  0  0  0  0
  189.2490  177.4980  146.7220 C   0  0  0  0  0  2  0  0  0  0  0  0
  189.4710  177.6150  145.1940 C   0  0  1  0  0  3  0  0  0  0  0  0
  187.1960  178.6590  144.9380 C   0  0  0  0  0  2  0  0  0  0  0  0
  188.6730  175.2050  142.5890 O   0  0  0  0  0  0  0  0  0  0  0  0
  187.1680  177.6860  140.6660 C   0  0  0  0  0  1  0  0  0  0  0  0
  184.3140  178.2110  145.9530 C   0  0  0  0  0  1  0  0  0  0  0  0
  188.3050  177.5890  142.9180 C   0  0  1  0  0  3  0  0  0  0  0  0
  185.9530  178.6340  144.1220 C   0  0  0  0  0  0  0  0  0  0  0  0
  192.5950  170.8670  142.0580 N   0  0  0  0  0  2  0  0  0  0  0  0
  193.1750  169.9220  142.9580 C   0  0  0  0  0  0  0  0  0  0  0  0
  192.7570  169.8210  144.1430 O   0  0  0  0  0  0  0  0  0  0  0  0
  194.2850  169.0510  142.4940 C   0  0  0  0  0  1  0  0  0  0  0  0
  1 20  1  0  0  0  0
  1 16  1  0  0  0  0
  2 24  1  1  0  0  0
  2 27  1  0  0  0  0
  2 12  1  0  0  0  0
  3  4  1  0  0  0  0
  5 25  1  6  0  0  0
  5  6  1  0  0  0  0
  5 27  1  0  0  0  0
  6 18  1  6  0  0  0
  6 28  1  0  0  0  0
  7 19  1  1  0  0  0
  7 17  1  0  0  0  0
  7 24  1  0  0  0  0
  9 26  1  0  0  0  0
 10 20  1  0  0  0  0
 11  3  2  0  0  0  0
 12  8  1  6  0  0  0
 12 13  1  0  0  0  0
 13 22  1  0  0  0  0
 13 11  1  6  0  0  0
 14 23  1  1  0  0  0
 14 22  1  0  0  0  0
 15  9  1  0  0  0  0
 17 10  1  6  0  0  0
 17  8  1  0  0  0  0
 18 15  2  0  0  0  0
 19 16  1  0  0  0  0
 20 29  1  6  0  0  0
 21  4  1  0  0  0  0
 22 21  1  1  0  0  0
 27 14  1  0  0  0  0
 28  9  2  0  0  0  0
 28 23  1  0  0  0  0
 29 30  1  0  0  0  0
 30 31  2  0  0  0  0
 32 30  1  0  0  0  0
M  END
>  <MODEL>
2

>  <REMARK>
 VINA RESULT:      -8.4      2.904      8.444
  Name = 
  1 active torsions:
  status: ('A' for Active; 'I' for Inactive)
    1  A    between atoms: C_20  and  N_29
                            x       y       z     vdW  Elec       q    Type
                         _______ _______ _______ _____ _____    ______ ____

>  <TORSDO>
F 1

$$$$
=
 OpenBabel11112416323D

 32 37  0  0  1  0  0  0  0  0999 V2000
  188.1840  177.2790  146.8880 C   0  0  0  0  0  2  0  0  0  0  0  0
  192.4090  175.8250  143.7290 C   0  0  1  0  0  3  0  0  0  0  0  0
  189.7200  172.4890  143.6580 C   0  0  0  0  0  3  0  0  0  0  0  0
  190.2010  171.4910  142.6430 C   0  0  0  0  0  2  0  0  0  0  0  0
  194.6700  175.1410  144.6590 C   0  0  1  0  0  3  0  0  0  0  0  0
  195.8830  174.2170  144.5090 C   0  0  1  0  0  3  0  0  0  0  0  0
  190.9560  176.7560  145.1710 C   0  0  1  0  0  3  0  0  0  0  0  0
  190.2000  176.5780  142.7900 C   0  0  0  0  0  2  0  0  0  0  0  0
  195.8640  172.0530  145.2310 C   0  0  0  0  0  0  0  0  0  0  0  0
  188.7100  177.7120  144.4550 C   0  0  0  0  0  2  0  0  0  0  0  0
  190.0780  173.7220  143.5570 N   0  0  0  0  0  0  0  0  0  0  0  0
  191.3800  175.6150  142.6070 C   0  0  2  0  0  3  0  0  0  0  0  0
  190.9410  174.1470  142.4730 C   0  0  1  0  0  3  0  0  0  0  0  0
  193.1780  173.4150  143.4660 C   0  0  1  0  0  3  0  0  0  0  0  0
  196.6320  172.8110  146.1380 N   0  0  0  0  0  0  0  0  0  0  0  0
  189.3320  176.3020  147.1060 C   0  0  0  0  0  2  0  0  0  0  0  0
  189.7320  176.6090  144.2460 C   0  0  2  0  0  3  0  0  0  0  0  0
  196.6580  174.1660  145.7620 N   0  0  0  0  0  0  0  0  0  0  0  0
  190.6410  176.9420  146.6600 C   0  0  0  0  0  2  0  0  0  0  0  0
  187.6590  177.2450  145.4530 C   0  0  2  0  0  3  0  0  0  0  0  0
  191.6900  171.7090  142.3350 C   0  0  0  0  0  2  0  0  0  0  0  0
  192.1470  173.1890  142.3440 C   0  0  1  0  0  3  0  0  0  0  0  0
  194.3880  172.4970  143.2570 C   0  0  0  0  0  2  0  0  0  0  0  0
  191.8140  175.6560  144.9960 O   0  0  0  0  0  0  0  0  0  0  0  0
  195.1510  176.5840  144.6380 C   0  0  0  0  0  1  0  0  0  0  0  0
  195.5250  170.6160  145.4270 C   0  0  0  0  0  1  0  0  0  0  0  0
  193.6190  174.9010  143.5460 C   0  0  1  0  0  3  0  0  0  0  0  0
  195.4180  172.8270  144.2770 C   0  0  0  0  0  0  0  0  0  0  0  0
  186.4840  178.0950  145.3400 N   0  0  0  0  0  2  0  0  0  0  0  0
  185.2160  177.7340  145.8880 C   0  0  0  0  0  0  0  0  0  0  0  0
  185.0600  176.6320  146.4800 O   0  0  0  0  0  0  0  0  0  0  0  0
  184.0660  178.6660  145.7560 C   0  0  0  0  0  1  0  0  0  0  0  0
  1 16  1  0  0  0  0
  2 24  1  1  0  0  0
  4  3  1  0  0  0  0
  5 25  1  6  0  0  0
  6 28  1  1  0  0  0
  6  5  1  0  0  0  0
  6 18  1  0  0  0  0
  7 19  1  1  0  0  0
  9 26  1  0  0  0  0
  9 15  1  0  0  0  0
 10 20  1  0  0  0  0
 11  3  2  0  0  0  0
 12  8  1  1  0  0  0
 12  2  1  0  0  0  0
 13 12  1  0  0  0  0
 13 11  1  1  0  0  0
 14 23  1  6  0  0  0
 14 27  1  0  0  0  0
 17  8  1  6  0  0  0
 17 10  1  0  0  0  0
 17  7  1  0  0  0  0
 18 15  2  0  0  0  0
 19 16  1  0  0  0  0
 20 29  1  1  0  0  0
 20  1  1  0  0  0  0
 21  4  1  0  0  0  0
 22 21  1  1  0  0  0
 22 13  1  0  0  0  0
 22 14  1  0  0  0  0
 23 28  1  0  0  0  0
 24  7  1  0  0  0  0
 27  2  1  0  0  0  0
 27  5  1  0  0  0  0
 28  9  2  0  0  0  0
 29 30  1  0  0  0  0
 30 31  2  0  0  0  0
 32 30  1  0  0  0  0
M  END
>  <MODEL>
3

>  <REMARK>
 VINA RESULT:      -8.4      1.291      1.423
  Name = 
  1 active torsions:
  status: ('A' for Active; 'I' for Inactive)
    1  A    between atoms: C_20  and  N_29
                            x       y       z     vdW  Elec       q    Type
                         _______ _______ _______ _____ _____    ______ ____

>  <TORSDO>
F 1

$$$$
=
 OpenBabel11112416323D

 32 37  0  0  1  0  0  0  0  0999 V2000
  195.1240  175.8470  144.7060 C   0  0  0  0  0  2  0  0  0  0  0  0
  189.7490  174.8420  144.9070 C   0  0  1  0  0  3  0  0  0  0  0  0
  190.9060  174.0930  140.8500 C   0  0  0  0  0  3  0  0  0  0  0  0
  189.7490  173.4810  140.1130 C   0  0  0  0  0  2  0  0  0  0  0  0
  187.9950  176.6740  145.0210 C   0  0  1  0  0  3  0  0  0  0  0  0
  186.6010  177.1330  144.5800 C   0  0  1  0  0  3  0  0  0  0  0  0
  191.8860  175.4600  145.2310 C   0  0  1  0  0  3  0  0  0  0  0  0
  191.4780  173.0140  144.8770 C   0  0  0  0  0  2  0  0  0  0  0  0
  186.2080  178.0360  142.5220 C   0  0  0  0  0  0  0  0  0  0  0  0
  193.8060  173.7960  145.3710 C   0  0  0  0  0  2  0  0  0  0  0  0
  190.9640  173.9990  142.1330 N   0  0  0  0  0  0  0  0  0  0  0  0
  190.0850  173.4350  144.3890 C   0  0  2  0  0  3  0  0  0  0  0  0
  189.9200  173.3100  142.8650 C   0  0  1  0  0  3  0  0  0  0  0  0
  188.1970  175.1960  142.9230 C   0  0  1  0  0  3  0  0  0  0  0  0
  186.1830  179.0780  143.4710 N   0  0  0  0  0  0  0  0  0  0  0  0
  193.9210  176.6210  144.1820 C   0  0  0  0  0  2  0  0  0  0  0  0
  192.4910  174.1460  144.6980 C   0  0  2  0  0  3  0  0  0  0  0  0
  186.4490  178.5880  144.7620 N   0  0  0  0  0  0  0  0  0  0  0  0
  192.8350  176.6650  145.2490 C   0  0  0  0  0  2  0  0  0  0  0  0
  194.9600  174.3370  144.5370 C   0  0  2  0  0  3  0  0  0  0  0  0
  188.4290  173.7730  140.8430 C   0  0  0  0  0  2  0  0  0  0  0  0
  188.5300  173.7890  142.3890 C   0  0  1  0  0  3  0  0  0  0  0  0
  186.7830  175.5980  142.4890 C   0  0  0  0  0  2  0  0  0  0  0  0
  190.7250  175.7750  144.5030 O   0  0  0  0  0  0  0  0  0  0  0  0
  188.0510  176.6770  146.5410 C   0  0  0  0  0  1  0  0  0  0  0  0
  186.1070  178.2470  141.0520 C   0  0  0  0  0  1  0  0  0  0  0  0
  188.3430  175.2690  144.4660 C   0  0  1  0  0  3  0  0  0  0  0  0
  186.4430  176.8990  143.1230 C   0  0  0  0  0  0  0  0  0  0  0  0
  196.1880  173.6630  144.9310 N   0  0  0  0  0  2  0  0  0  0  0  0
  196.6640  172.4860  144.2780 C   0  0  0  0  0  0  0  0  0  0  0  0
  196.0120  171.9630  143.3350 O   0  0  0  0  0  0  0  0  0  0  0  0
  197.9410  171.8670  144.7200 C   0  0  0  0  0  1  0  0  0  0  0  0
  2 24  1  6  0  0  0
  3 11  2  0  0  0  0
  4 21  1  0  0  0  0
  4  3  1  0  0  0  0
  5 25  1  1  0  0  0
  6 28  1  6  0  0  0
  6 18  1  0  0  0  0
  6  5  1  0  0  0  0
  7 19  1  6  0  0  0
  9 28  2  0  0  0  0
  9 15  1  0  0  0  0
 12  8  1  6  0  0  0
 12  2  1  0  0  0  0
 13 11  1  6  0  0  0
 13 12  1  0  0  0  0
 14 23  1  1  0  0  0
 14 27  1  0  0  0  0
 15 18  2  0  0  0  0
 16  1  1  0  0  0  0
 16 19  1  0  0  0  0
 17  8  1  1  0  0  0
 17  7  1  0  0  0  0
 17 10  1  0  0  0  0
 20  1  1  0  0  0  0
 20 29  1  1  0  0  0
 20 10  1  0  0  0  0
 22 21  1  6  0  0  0
 22 13  1  0  0  0  0
 22 14  1  0  0  0  0
 23 28  1  0  0  0  0
 24  7  1  0  0  0  0
 26  9  1  0  0  0  0
 27  2  1  0  0  0  0
 27  5  1  0  0  0  0
 30 32  1  0  0  0  0
 30 29  1  0  0  0  0
 31 30  2  0  0  0  0
M  END
>  <MODEL>
4

>  <REMARK>
 VINA RESULT:      -7.9      2.221      7.791
  Name = 
  1 active torsions:
  status: ('A' for Active; 'I' for Inactive)
    1  A    between atoms: C_20  and  N_29
                            x       y       z     vdW  Elec       q    Type
                         _______ _______ _______ _____ _____    ______ ____

>  <TORSDO>
F 1

$$$$
=
 OpenBabel11112416323D

 32 37  0  0  1  0  0  0  0  0999 V2000
  188.2990  176.0960  146.5960 C   0  0  0  0  0  2  0  0  0  0  0  0
  193.2280  175.4250  144.3140 C   0  0  1  0  0  3  0  0  0  0  0  0
  190.4850  173.3530  141.7540 C   0  0  0  0  0  3  0  0  0  0  0  0
  191.2070  172.9130  140.5130 C   0  0  0  0  0  2  0  0  0  0  0  0
  194.9810  173.8350  145.2320 C   0  0  1  0  0  3  0  0  0  0  0  0
  196.1010  172.8430  144.9000 C   0  0  1  0  0  3  0  0  0  0  0  0
  191.4440  175.8360  145.6200 C   0  0  1  0  0  3  0  0  0  0  0  0
  191.5310  177.0640  143.4390 C   0  0  0  0  0  2  0  0  0  0  0  0
  195.6780  170.6900  144.2760 C   0  0  0  0  0  0  0  0  0  0  0  0
  189.6520  177.5420  145.0260 C   0  0  0  0  0  2  0  0  0  0  0  0
  190.9460  174.3390  142.4430 N   0  0  0  0  0  0  0  0  0  0  0  0
  192.6290  176.0650  143.0510 C   0  0  2  0  0  3  0  0  0  0  0  0
  192.1550  175.0220  142.0260 C   0  0  1  0  0  3  0  0  0  0  0  0
  193.8600  173.3650  142.9630 C   0  0  1  0  0  3  0  0  0  0  0  0
  196.1460  170.6770  145.6060 N   0  0  0  0  0  0  0  0  0  0  0  0
  189.2300  174.8920  146.5120 C   0  0  0  0  0  2  0  0  0  0  0  0
  190.6000  176.4780  144.5010 C   0  0  2  0  0  3  0  0  0  0  0  0
  196.3980  171.9840  146.0600 N   0  0  0  0  0  0  0  0  0  0  0  0
  190.6560  175.3240  146.8320 C   0  0  0  0  0  2  0  0  0  0  0  0
  188.2930  176.9140  145.3040 C   0  0  2  0  0  3  0  0  0  0  0  0
  192.7240  172.8800  140.7540 C   0  0  0  0  0  2  0  0  0  0  0  0
  193.2590  173.9920  141.6900 C   0  0  1  0  0  3  0  0  0  0  0  0
  194.9980  172.4090  142.5850 C   0  0  0  0  0  2  0  0  0  0  0  0
  192.2270  174.7980  145.0840 O   0  0  0  0  0  0  0  0  0  0  0  0
  195.5450  174.9250  146.1300 C   0  0  0  0  0  1  0  0  0  0  0  0
  195.1870  169.4830  143.5550 C   0  0  0  0  0  1  0  0  0  0  0  0
  194.3560  174.4500  143.9550 C   0  0  1  0  0  3  0  0  0  0  0  0
  195.6410  171.9190  143.8330 C   0  0  0  0  0  0  0  0  0  0  0  0
  187.2930  177.9660  145.3960 N   0  0  0  0  0  2  0  0  0  0  0  0
  186.4200  178.2960  144.3150 C   0  0  0  0  0  0  0  0  0  0  0  0
  186.5030  177.6910  143.2130 O   0  0  0  0  0  0  0  0  0  0  0  0
  185.4050  179.3670  144.4910 C   0  0  0  0  0  1  0  0  0  0  0  0
  2 24  1  6  0  0  0
  3 11  2  0  0  0  0
  4 21  1  0  0  0  0
  4  3  1  0  0  0  0
  5 25  1  1  0  0  0
  6 28  1  6  0  0  0
  6  5  1  0  0  0  0
  6 18  1  0  0  0  0
  7 19  1  1  0  0  0
  9 15  1  0  0  0  0
 10 20  1  0  0  0  0
 12  8  1  1  0  0  0
 12  2  1  0  0  0  0
 13 11  1  1  0  0  0
 13 12  1  0  0  0  0
 14 23  1  6  0  0  0
 14 27  1  0  0  0  0
 15 18  2  0  0  0  0
 16  1  1  0  0  0  0
 16 19  1  0  0  0  0
 17  8  1  6  0  0  0
 17 10  1  0  0  0  0
 17  7  1  0  0  0  0
 20 29  1  1  0  0  0
 20  1  1  0  0  0  0
 22 21  1  6  0  0  0
 22 13  1  0  0  0  0
 22 14  1  0  0  0  0
 23 28  1  0  0  0  0
 24  7  1  0  0  0  0
 26  9  1  0  0  0  0
 27  2  1  0  0  0  0
 27  5  1  0  0  0  0
 28  9  2  0  0  0  0
 30 32  1  0  0  0  0
 30 29  1  0  0  0  0
 31 30  2  0  0  0  0
M  END
>  <MODEL>
5

>  <REMARK>
 VINA RESULT:      -7.9      1.159      1.416
  Name = 
  1 active torsions:
  status: ('A' for Active; 'I' for Inactive)
    1  A    between atoms: C_20  and  N_29
                            x       y       z     vdW  Elec       q    Type
                         _______ _______ _______ _____ _____    ______ ____

>  <TORSDO>
F 1

$$$$
=
 OpenBabel11112416323D

 32 37  0  0  1  0  0  0  0  0999 V2000
  192.5310  172.0110  141.6150 C   0  0  0  0  0  2  0  0  0  0  0  0
  190.4650  176.8890  142.9860 C   0  0  1  0  0  3  0  0  0  0  0  0
  191.2260  174.8810  146.6950 C   0  0  0  0  0  3  0  0  0  0  0  0
  191.0150  175.8430  147.8280 C   0  0  0  0  0  2  0  0  0  0  0  0
  188.0040  177.4700  142.7630 C   0  0  1  0  0  3  0  0  0  0  0  0
  186.8120  178.2180  143.3680 C   0  0  1  0  0  3  0  0  0  0  0  0
  191.1550  174.9880  142.0030 C   0  0  1  0  0  3  0  0  0  0  0  0
  192.9200  176.3560  143.1370 C   0  0  0  0  0  2  0  0  0  0  0  0
  185.5990  177.3770  145.1080 C   0  0  0  0  0  0  0  0  0  0  0  0
  193.5980  174.2840  141.9030 C   0  0  0  0  0  2  0  0  0  0  0  0
  191.4910  175.3310  145.5180 N   0  0  0  0  0  0  0  0  0  0  0  0
  191.7540  177.1050  143.7960 C   0  0  2  0  0  3  0  0  0  0  0  0
  191.5840  176.7590  145.2840 C   0  0  1  0  0  3  0  0  0  0  0  0
  189.0880  177.2690  145.0900 C   0  0  1  0  0  3  0  0  0  0  0  0
  184.8340  177.2350  143.9310 N   0  0  0  0  0  0  0  0  0  0  0  0
  191.1710  172.4260  142.1610 C   0  0  0  0  0  2  0  0  0  0  0  0
  192.5100  174.9380  142.7360 C   0  0  2  0  0  3  0  0  0  0  0  0
  185.5430  177.7120  142.8140 N   0  0  0  0  0  0  0  0  0  0  0  0
  190.6730  173.6560  141.4130 C   0  0  0  0  0  2  0  0  0  0  0  0
  193.6750  172.8020  142.2480 C   0  0  2  0  0  3  0  0  0  0  0  0
  190.1430  177.0250  147.3770 C   0  0  0  0  0  2  0  0  0  0  0  0
  190.3720  177.4820  145.9150 C   0  0  1  0  0  3  0  0  0  0  0  0
  187.9310  178.0630  145.7100 C   0  0  0  0  0  2  0  0  0  0  0  0
  190.1740  175.5160  142.8610 O   0  0  0  0  0  0  0  0  0  0  0  0
  188.2160  177.9600  141.3390 C   0  0  0  0  0  1  0  0  0  0  0  0
  185.1900  176.8380  146.4340 C   0  0  0  0  0  1  0  0  0  0  0  0
  189.2930  177.6610  143.6030 C   0  0  1  0  0  3  0  0  0  0  0  0
  186.7430  177.9410  144.8250 C   0  0  0  0  0  0  0  0  0  0  0  0
  194.9500  172.2730  141.7890 N   0  0  0  0  0  2  0  0  0  0  0  0
  196.0950  172.1760  142.6370 C   0  0  0  0  0  0  0  0  0  0  0  0
  196.0480  172.5760  143.8310 O   0  0  0  0  0  0  0  0  0  0  0  0
  197.3570  171.6010  142.1040 C   0  0  0  0  0  1  0  0  0  0  0  0
  1 16  1  0  0  0  0
  1 20  1  0  0  0  0
  2 24  1  1  0  0  0
  2 27  1  0  0  0  0
  2 12  1  0  0  0  0
  3  4  1  0  0  0  0
  5 25  1  6  0  0  0
  5  6  1  0  0  0  0
  5 27  1  0  0  0  0
  6 18  1  6  0  0  0
  6 28  1  0  0  0  0
  7 19  1  1  0  0  0
  7 17  1  0  0  0  0
  7 24  1  0  0  0  0
  9 26  1  0  0  0  0
 10 20  1  0  0  0  0
 11  3  2  0  0  0  0
 12  8  1  6  0  0  0
 12 13  1  0  0  0  0
 13 11  1  6  0  0  0
 13 22  1  0  0  0  0
 14 23  1  1  0  0  0
 14 22  1  0  0  0  0
 15  9  1  0  0  0  0
 17 10  1  6  0  0  0
 17  8  1  0  0  0  0
 18 15  2  0  0  0  0
 19 16  1  0  0  0  0
 20 29  1  6  0  0  0
 21  4  1  0  0  0  0
 22 21  1  1  0  0  0
 27 14  1  0  0  0  0
 28  9  2  0  0  0  0
 28 23  1  0  0  0  0
 29 30  1  0  0  0  0
 30 31  2  0  0  0  0
 32 30  1  0  0  0  0
M  END
>  <MODEL>
6

>  <REMARK>
 VINA RESULT:      -7.8      2.266      8.252
  Name = 
  1 active torsions:
  status: ('A' for Active; 'I' for Inactive)
    1  A    between atoms: C_20  and  N_29
                            x       y       z     vdW  Elec       q    Type
                         _______ _______ _______ _____ _____    ______ ____

>  <TORSDO>
F 1

$$$$
=
 OpenBabel11112416323D

 32 37  0  0  1  0  0  0  0  0999 V2000
  187.6460  177.8920  143.2390 C   0  0  0  0  0  2  0  0  0  0  0  0
  191.1990  173.7790  143.8760 C   0  0  1  0  0  3  0  0  0  0  0  0
  193.0090  177.1660  145.7790 C   0  0  0  0  0  3  0  0  0  0  0  0
  194.2410  176.7180  146.5130 C   0  0  0  0  0  2  0  0  0  0  0  0
  192.6690  172.9070  141.9990 C   0  0  1  0  0  3  0  0  0  0  0  0
  194.0400  172.3440  141.6110 C   0  0  1  0  0  3  0  0  0  0  0  0
  189.5470  175.1910  143.3010 C   0  0  1  0  0  3  0  0  0  0  0  0
  189.6910  174.5780  145.7250 C   0  0  0  0  0  2  0  0  0  0  0  0
  195.8630  173.6780  141.2960 C   0  0  0  0  0  0  0  0  0  0  0  0
  187.8120  176.0450  144.9560 C   0  0  0  0  0  2  0  0  0  0  0  0
  192.0800  176.3130  145.5160 N   0  0  0  0  0  0  0  0  0  0  0  0
  191.0870  174.0370  145.3870 C   0  0  2  0  0  3  0  0  0  0  0  0
  192.2200  174.9290  145.9220 C   0  0  1  0  0  3  0  0  0  0  0  0
  193.7150  174.1290  144.0100 C   0  0  1  0  0  3  0  0  0  0  0  0
  195.4020  173.2590  140.0310 N   0  0  0  0  0  0  0  0  0  0  0  0
  188.9870  177.5910  142.5810 C   0  0  0  0  0  2  0  0  0  0  0  0
  189.2670  175.6680  144.7410 C   0  0  2  0  0  3  0  0  0  0  0  0
  194.2570  172.4530  140.1570 N   0  0  0  0  0  0  0  0  0  0  0  0
  189.0460  176.1200  142.1880 C   0  0  0  0  0  2  0  0  0  0  0  0
  187.6380  177.5400  144.7270 C   0  0  2  0  0  3  0  0  0  0  0  0
  194.7360  175.3710  145.9640 C   0  0  0  0  0  2  0  0  0  0  0  0
  193.6160  174.3960  145.5240 C   0  0  1  0  0  3  0  0  0  0  0  0
  195.0870  173.5340  143.6730 C   0  0  0  0  0  2  0  0  0  0  0  0
  190.9230  174.9510  143.1430 O   0  0  0  0  0  0  0  0  0  0  0  0
  191.5960  171.9150  141.5770 C   0  0  0  0  0  1  0  0  0  0  0  0
  196.9680  174.6560  141.4960 C   0  0  0  0  0  1  0  0  0  0  0  0
  192.5730  173.2000  143.5180 C   0  0  1  0  0  3  0  0  0  0  0  0
  195.1070  173.1690  142.2310 C   0  0  0  0  0  0  0  0  0  0  0  0
  186.3840  177.9710  145.3250 N   0  0  0  0  0  2  0  0  0  0  0  0
  186.2390  178.2020  146.7270 C   0  0  0  0  0  0  0  0  0  0  0  0
  187.2050  178.0150  147.5140 O   0  0  0  0  0  0  0  0  0  0  0  0
  184.9330  178.6660  147.2630 C   0  0  0  0  0  1  0  0  0  0  0  0
  1 20  1  0  0  0  0
  2 24  1  6  0  0  0
  2 12  1  0  0  0  0
  3  4  1  0  0  0  0
  5 25  1  1  0  0  0
  5 27  1  0  0  0  0
  6 18  1  6  0  0  0
  6  5  1  0  0  0  0
  6 28  1  0  0  0  0
  7 19  1  6  0  0  0
  7 17  1  0  0  0  0
  9 26  1  0  0  0  0
  9 28  2  0  0  0  0
 11  3  2  0  0  0  0
 12  8  1  6  0  0  0
 12 13  1  0  0  0  0
 13 11  1  6  0  0  0
 14 23  1  1  0  0  0
 14 22  1  0  0  0  0
 15 18  2  0  0  0  0
 15  9  1  0  0  0  0
 16  1  1  0  0  0  0
 17 10  1  6  0  0  0
 17  8  1  0  0  0  0
 19 16  1  0  0  0  0
 20 10  1  0  0  0  0
 20 29  1  6  0  0  0
 21  4  1  0  0  0  0
 22 13  1  0  0  0  0
 22 21  1  6  0  0  0
 24  7  1  0  0  0  0
 27  2  1  0  0  0  0
 27 14  1  0  0  0  0
 28 23  1  0  0  0  0
 29 30  1  0  0  0  0
 30 32  1  0  0  0  0
 30 31  2  0  0  0  0
M  END
>  <MODEL>
7

>  <REMARK>
 VINA RESULT:      -7.6      2.352      4.064
  Name = 
  1 active torsions:
  status: ('A' for Active; 'I' for Inactive)
    1  A    between atoms: C_20  and  N_29
                            x       y       z     vdW  Elec       q    Type
                         _______ _______ _______ _____ _____    ______ ____

>  <TORSDO>
F 1

$$$$
=
 OpenBabel11112416323D

 32 37  0  0  1  0  0  0  0  0999 V2000
  184.2700  178.2920  144.7490 C   0  0  0  0  0  2  0  0  0  0  0  0
  189.2450  177.4860  142.6180 C   0  0  1  0  0  3  0  0  0  0  0  0
  187.2610  173.6960  142.3680 C   0  0  0  0  0  3  0  0  0  0  0  0
  188.1090  172.7480  141.5690 C   0  0  0  0  0  2  0  0  0  0  0  0
  191.3500  177.3110  144.0260 C   0  0  1  0  0  3  0  0  0  0  0  0
  192.7110  176.6310  144.2040 C   0  0  1  0  0  3  0  0  0  0  0  0
  187.3850  178.2070  143.6550 C   0  0  1  0  0  3  0  0  0  0  0  0
  187.1800  177.7380  141.2030 C   0  0  0  0  0  2  0  0  0  0  0  0
  192.9270  174.5540  145.1220 C   0  0  0  0  0  0  0  0  0  0  0  0
  185.2020  178.6660  142.4310 C   0  0  0  0  0  2  0  0  0  0  0  0
  187.4090  174.9660  142.2150 N   0  0  0  0  0  0  0  0  0  0  0  0
  188.5240  177.0120  141.3470 C   0  0  2  0  0  3  0  0  0  0  0  0
  188.3880  175.4820  141.2780 C   0  0  1  0  0  3  0  0  0  0  0  0
  190.4650  175.2590  142.7500 C   0  0  1  0  0  3  0  0  0  0  0  0
  193.3440  175.5010  146.0790 N   0  0  0  0  0  0  0  0  0  0  0  0
  185.5030  177.5710  145.2800 C   0  0  0  0  0  2  0  0  0  0  0  0
  186.4230  177.7690  142.5320 C   0  0  2  0  0  3  0  0  0  0  0  0
  193.2080  176.8090  145.5810 N   0  0  0  0  0  0  0  0  0  0  0  0
  186.7410  178.4220  145.0310 C   0  0  0  0  0  2  0  0  0  0  0  0
  184.0670  178.0670  143.2510 C   0  0  2  0  0  3  0  0  0  0  0  0
  189.5680  173.2300  141.5310 C   0  0  0  0  0  2  0  0  0  0  0  0
  189.7450  174.7680  141.4790 C   0  0  1  0  0  3  0  0  0  0  0  0
  191.8350  174.5800  142.8680 C   0  0  0  0  0  2  0  0  0  0  0  0
  188.4410  177.2850  143.7580 O   0  0  0  0  0  0  0  0  0  0  0  0
  191.5620  178.8160  143.9530 C   0  0  0  0  0  1  0  0  0  0  0  0
  192.8130  173.0940  145.3930 C   0  0  0  0  0  1  0  0  0  0  0  0
  190.6110  176.8040  142.7630 C   0  0  1  0  0  3  0  0  0  0  0  0
  192.5570  175.1660  144.0280 C   0  0  0  0  0  0  0  0  0  0  0  0
  182.8100  178.6660  142.8320 N   0  0  0  0  0  2  0  0  0  0  0  0
  182.2180  178.4050  141.5580 C   0  0  0  0  0  0  0  0  0  0  0  0
  182.7880  177.6500  140.7260 O   0  0  0  0  0  0  0  0  0  0  0  0
  180.9180  179.0340  141.2090 C   0  0  0  0  0  1  0  0  0  0  0  0
  1 16  1  0  0  0  0
  2 27  1  0  0  0  0
  2 24  1  1  0  0  0
  4  3  1  0  0  0  0
  5 25  1  6  0  0  0
  5  6  1  0  0  0  0
  6 28  1  1  0  0  0
  6 18  1  0  0  0  0
  7 24  1  0  0  0  0
  7 19  1  1  0  0  0
  9 26  1  0  0  0  0
  9 15  1  0  0  0  0
 10 17  1  0  0  0  0
 10 20  1  0  0  0  0
 11  3  2  0  0  0  0
 12  8  1  1  0  0  0
 12  2  1  0  0  0  0
 13 12  1  0  0  0  0
 13 22  1  0  0  0  0
 13 11  1  1  0  0  0
 14 27  1  0  0  0  0
 14 23  1  6  0  0  0
 17  8  1  6  0  0  0
 17  7  1  0  0  0  0
 18 15  2  0  0  0  0
 19 16  1  0  0  0  0
 20 29  1  6  0  0  0
 20  1  1  0  0  0  0
 21  4  1  0  0  0  0
 22 21  1  1  0  0  0
 22 14  1  0  0  0  0
 23 28  1  0  0  0  0
 27  5  1  0  0  0  0
 28  9  2  0  0  0  0
 30 29  1  0  0  0  0
 31 30  2  0  0  0  0
 32 30  1  0  0  0  0
M  END
>  <MODEL>
8

>  <REMARK>
 VINA RESULT:      -7.5      2.683      3.916
  Name = 
  1 active torsions:
  status: ('A' for Active; 'I' for Inactive)
    1  A    between atoms: C_20  and  N_29
                            x       y       z     vdW  Elec       q    Type
                         _______ _______ _______ _____ _____    ______ ____

>  <TORSDO>
F 1

$$$$
=
 OpenBabel11112416323D

 32 37  0  0  1  0  0  0  0  0999 V2000
  186.3180  178.6040  142.8530 C   0  0  0  0  0  2  0  0  0  0  0  0
  189.2470  174.1270  141.7040 C   0  0  1  0  0  3  0  0  0  0  0  0
  192.0530  176.9670  143.2610 C   0  0  0  0  0  3  0  0  0  0  0  0
  193.3800  176.2910  143.4590 C   0  0  0  0  0  2  0  0  0  0  0  0
  189.8740  173.4430  139.3410 C   0  0  1  0  0  3  0  0  0  0  0  0
  190.9430  172.8240  138.4350 C   0  0  1  0  0  3  0  0  0  0  0  0
  187.7210  175.7640  141.9180 C   0  0  1  0  0  3  0  0  0  0  0  0
  188.5660  174.7470  144.0460 C   0  0  0  0  0  2  0  0  0  0  0  0
  192.7330  174.0150  137.6720 C   0  0  0  0  0  0  0  0  0  0  0  0
  186.7710  176.4920  144.1640 C   0  0  0  0  0  2  0  0  0  0  0  0
  190.9770  176.2610  143.2340 N   0  0  0  0  0  0  0  0  0  0  0  0
  189.6780  174.1410  143.1790 C   0  0  2  0  0  3  0  0  0  0  0  0
  191.0410  174.8220  143.3920 C   0  0  1  0  0  3  0  0  0  0  0  0
  191.6890  174.2120  140.9970 C   0  0  1  0  0  3  0  0  0  0  0  0
  191.8250  173.8560  136.6050 N   0  0  0  0  0  0  0  0  0  0  0  0
  187.3080  178.2910  141.7380 C   0  0  0  0  0  2  0  0  0  0  0  0
  188.0030  176.0210  143.4120 C   0  0  2  0  0  3  0  0  0  0  0  0
  190.6820  173.1510  137.0210 N   0  0  0  0  0  0  0  0  0  0  0  0
  187.0210  176.9060  141.1720 C   0  0  0  0  0  2  0  0  0  0  0  0
  186.7500  178.0140  144.1950 C   0  0  2  0  0  3  0  0  0  0  0  0
  193.4660  175.0130  142.6110 C   0  0  0  0  0  2  0  0  0  0  0  0
  192.1350  174.2330  142.4720 C   0  0  1  0  0  3  0  0  0  0  0  0
  192.7720  173.5540  140.1330 C   0  0  0  0  0  2  0  0  0  0  0  0
  188.9170  175.4240  141.2630 O   0  0  0  0  0  0  0  0  0  0  0  0
  188.5900  172.6390  139.2000 C   0  0  0  0  0  1  0  0  0  0  0  0
  193.9720  174.8380  137.5940 C   0  0  0  0  0  1  0  0  0  0  0  0
  190.3270  173.4880  140.8220 C   0  0  1  0  0  3  0  0  0  0  0  0
  192.2620  173.4320  138.7420 C   0  0  0  0  0  0  0  0  0  0  0  0
  185.8400  178.4560  145.2400 N   0  0  0  0  0  2  0  0  0  0  0  0
  186.1640  178.3750  146.6290 C   0  0  0  0  0  0  0  0  0  0  0  0
  187.2620  177.8860  147.0070 O   0  0  0  0  0  0  0  0  0  0  0  0
  185.1930  178.8700  147.6390 C   0  0  0  0  0  1  0  0  0  0  0  0
  1 20  1  0  0  0  0
  2 24  1  6  0  0  0
  2 12  1  0  0  0  0
  3  4  1  0  0  0  0
  5 25  1  1  0  0  0
  5 27  1  0  0  0  0
  6 18  1  6  0  0  0
  6 28  1  0  0  0  0
  6  5  1  0  0  0  0
  7 19  1  6  0  0  0
  7 17  1  0  0  0  0
  9 28  2  0  0  0  0
 10 20  1  0  0  0  0
 11  3  2  0  0  0  0
 12 13  1  0  0  0  0
 12  8  1  1  0  0  0
 13 11  1  6  0  0  0
 14 23  1  6  0  0  0
 14 22  1  0  0  0  0
 15 18  2  0  0  0  0
 15  9  1  0  0  0  0
 16  1  1  0  0  0  0
 17  8  1  1  0  0  0
 17 10  1  0  0  0  0
 19 16  1  0  0  0  0
 20 29  1  1  0  0  0
 21  4  1  0  0  0  0
 22 21  1  6  0  0  0
 22 13  1  0  0  0  0
 24  7  1  0  0  0  0
 26  9  1  0  0  0  0
 27 14  1  0  0  0  0
 27  2  1  0  0  0  0
 28 23  1  0  0  0  0
 29 30  1  0  0  0  0
 30 31  2  0  0  0  0
 30 32  1  0  0  0  0
M  END
>  <MODEL>
9

>  <REMARK>
 VINA RESULT:      -7.1      2.957      5.415
  Name = 
  1 active torsions:
  status: ('A' for Active; 'I' for Inactive)
    1  A    between atoms: C_20  and  N_29
                            x       y       z     vdW  Elec       q    Type
                         _______ _______ _______ _____ _____    ______ ____

>  <TORSDO>
F 1

$$$$
