=
 OpenBabel11112417493D

 34 40  0  0  1  0  0  0  0  0999 V2000
  189.9750  175.3940  142.7770 C   0  0  0  0  0  0  0  0  0  0  0  0
  192.2070  174.2760  142.1700 C   0  0  0  0  0  2  0  0  0  0  0  0
  186.3660  178.9350  146.8560 C   0  0  2  0  0  3  0  0  0  0  0  0
  187.8440  176.1700  143.6810 C   0  0  0  0  0  0  0  0  0  0  0  0
  187.7670  176.9230  146.0380 C   0  0  2  0  0  3  0  0  0  0  0  0
  186.1180  176.7040  147.7900 O   0  0  0  0  0  1  0  0  0  0  0  0
  186.3210  179.8180  148.0850 C   0  0  0  0  0  1  0  0  0  0  0  0
  184.8390  177.6730  145.2490 C   0  0  0  0  0  2  0  0  0  0  0  0
  191.8420  175.1510  144.3310 C   0  0  2  0  0  3  0  0  0  0  0  0
  194.1360  176.6460  145.9340 C   0  0  0  0  0  2  0  0  0  0  0  0
  189.1900  177.4390  145.8790 C   0  0  0  0  0  2  0  0  0  0  0  0
  186.0090  177.7170  144.2860 C   0  0  0  0  0  2  0  0  0  0  0  0
  191.3730  176.3480  145.1650 C   0  0  1  0  0  3  0  0  0  0  0  0
  193.5370  174.1800  142.9120 C   0  0  0  0  0  2  0  0  0  0  0  0
  187.1030  176.8420  144.7180 N   0  0  0  0  0  0  0  0  0  0  0  0
  184.9530  178.7910  146.2800 C   0  0  0  0  0  2  0  0  0  0  0  0
  194.2620  175.9900  144.5430 C   0  0  2  0  0  3  0  0  0  0  0  0
  189.2430  176.0360  143.8000 C   0  0  0  0  0  0  0  0  0  0  0  0
  187.0180  177.5940  147.1970 C   0  0  2  0  0  3  0  0  0  0  0  0
  189.9220  176.5460  144.9790 N   0  0  0  0  0  0  0  0  0  0  0  0
  187.9310  175.0650  141.5170 C   0  0  0  0  0  3  0  0  0  0  0  0
  193.2170  175.8980  146.9040 C   0  0  0  0  0  2  0  0  0  0  0  0
  187.1980  175.6820  142.5330 C   0  0  0  0  0  3  0  0  0  0  0  0
  191.7320  176.1820  146.6500 C   0  0  0  0  0  2  0  0  0  0  0  0
  193.3250  174.7860  144.3050 C   0  0  1  0  0  3  0  0  0  0  0  0
  189.3170  174.9300  141.6320 C   0  0  0  0  0  3  0  0  0  0  0  0
  191.4690  175.3730  142.8950 C   0  0  2  0  0  3  0  0  0  0  0  0
  195.6460  175.5910  144.3380 N   0  0  0  0  0  2  0  0  0  0  0  0
  196.3290  176.7260  143.7300 C   0  0  0  0  0  2  0  0  0  0  0  0
  195.7880  175.5440  140.4130 N   0  0  0  0  0  2  0  0  0  0  0  0
  197.1480  174.8650  142.2580 C   0  0  0  0  0  2  0  0  0  0  0  0
  196.9320  176.3510  142.3800 C   0  0  1  0  0  3  0  0  0  0  0  0
  196.7780  174.5600  140.8290 C   0  0  0  0  0  2  0  0  0  0  0  0
  196.0170  176.7310  141.2300 C   0  0  0  0  0  2  0  0  0  0  0  0
  1 27  1  0  0  0  0
  1 18  1  0  0  0  0
  2 27  1  0  0  0  0
  2 14  1  0  0  0  0
  3 19  1  0  0  0  0
  3  7  1  1  0  0  0
  4 18  2  0  0  0  0
  4 15  1  0  0  0  0
  5 11  1  6  0  0  0
  5 19  1  0  0  0  0
  8 16  1  0  0  0  0
  9 13  1  0  0  0  0
 10 22  1  0  0  0  0
 12 15  1  0  0  0  0
 12  8  1  0  0  0  0
 13 24  1  0  0  0  0
 14 25  1  0  0  0  0
 15  5  1  0  0  0  0
 16  3  1  0  0  0  0
 17 10  1  0  0  0  0
 18 20  1  0  0  0  0
 19  6  1  0  0  0  0
 20 13  1  0  0  0  0
 20 11  1  0  0  0  0
 21 26  1  0  0  0  0
 21 23  2  0  0  0  0
 23  4  1  0  0  0  0
 24 22  1  0  0  0  0
 25  9  1  0  0  0  0
 25 17  1  0  0  0  0
 26  1  2  0  0  0  0
 27  9  1  0  0  0  0
 28 17  1  0  0  0  0
 29 28  1  0  0  0  0
 30 33  1  0  0  0  0
 30 34  1  0  0  0  0
 31 32  1  0  0  0  0
 32 29  1  0  0  0  0
 33 31  1  0  0  0  0
 34 32  1  0  0  0  0
M  END
>  <MODEL>
1

>  <REMARK>
 VINA RESULT:      -8.7      0.000      0.000
  Name = 
  3 active torsions:
  status: ('A' for Active; 'I' for Inactive)
    1  A    between atoms: C_17  and  N_28
    2  A    between atoms: N_28  and  C_29
    3  A    between atoms: C_29  and  C_32
                            x       y       z     vdW  Elec       q    Type
                         _______ _______ _______ _____ _____    ______ ____

>  <TORSDO>
F 3

$$$$
=
 OpenBabel11112417493D

 34 40  0  0  1  0  0  0  0  0999 V2000
  190.3380  176.5520  145.8910 C   0  0  0  0  0  0  0  0  0  0  0  0
  187.7880  176.5890  146.2010 C   0  0  0  0  0  2  0  0  0  0  0  0
  195.5450  176.0060  142.0450 C   0  0  2  0  0  3  0  0  0  0  0  0
  192.7030  176.1010  145.4830 C   0  0  0  0  0  0  0  0  0  0  0  0
  193.3770  175.2770  143.2480 C   0  0  2  0  0  3  0  0  0  0  0  0
  195.0280  173.6760  142.5050 O   0  0  0  0  0  1  0  0  0  0  0  0
  196.0920  175.9530  140.6330 C   0  0  0  0  0  1  0  0  0  0  0  0
  196.2350  175.6060  144.4670 C   0  0  0  0  0  2  0  0  0  0  0  0
  188.7470  175.9040  144.1560 C   0  0  2  0  0  3  0  0  0  0  0  0
  187.4480  176.6720  141.3650 C   0  0  0  0  0  2  0  0  0  0  0  0
  192.2590  176.1140  142.6440 C   0  0  0  0  0  2  0  0  0  0  0  0
  195.0580  176.4920  144.8270 C   0  0  0  0  0  2  0  0  0  0  0  0
  189.7500  176.2230  143.0420 C   0  0  1  0  0  3  0  0  0  0  0  0
  186.6360  176.4030  145.2170 C   0  0  0  0  0  2  0  0  0  0  0  0
  193.7770  175.8290  144.5620 N   0  0  0  0  0  0  0  0  0  0  0  0
  196.7010  175.8900  143.0430 C   0  0  0  0  0  2  0  0  0  0  0  0
  186.8940  177.0150  142.7640 C   0  0  2  0  0  3  0  0  0  0  0  0
  191.3910  176.2670  144.9930 C   0  0  0  0  0  0  0  0  0  0  0  0
  194.4740  174.9300  142.2330 C   0  0  2  0  0  3  0  0  0  0  0  0
  191.1260  176.1320  143.5700 N   0  0  0  0  0  0  0  0  0  0  0  0
  191.9070  176.5420  147.7370 C   0  0  0  0  0  3  0  0  0  0  0  0
  188.1240  175.3020  141.2720 C   0  0  0  0  0  2  0  0  0  0  0  0
  192.9500  176.2420  146.8580 C   0  0  0  0  0  3  0  0  0  0  0  0
  189.5550  175.3090  141.8230 C   0  0  0  0  0  2  0  0  0  0  0  0
  187.2500  175.9990  143.8700 C   0  0  1  0  0  3  0  0  0  0  0  0
  190.6070  176.7070  147.2560 C   0  0  0  0  0  3  0  0  0  0  0  0
  188.9830  176.8300  145.3130 C   0  0  2  0  0  3  0  0  0  0  0  0
  185.4510  177.1650  142.6710 N   0  0  0  0  0  2  0  0  0  0  0  0
  185.1900  178.5470  142.2910 C   0  0  0  0  0  2  0  0  0  0  0  0
  185.6030  179.5190  145.6950 N   0  0  0  0  0  2  0  0  0  0  0  0
  183.8530  178.5110  144.4150 C   0  0  0  0  0  2  0  0  0  0  0  0
  184.6690  179.3580  143.4740 C   0  0  1  0  0  3  0  0  0  0  0  0
  184.2410  179.0110  145.7830 C   0  0  0  0  0  2  0  0  0  0  0  0
  185.8010  179.9290  144.3080 C   0  0  0  0  0  2  0  0  0  0  0  0
  1 26  1  0  0  0  0
  3  7  1  6  0  0  0
  3 19  1  0  0  0  0
  3 16  1  0  0  0  0
  4 23  2  0  0  0  0
  5 11  1  6  0  0  0
  5 15  1  0  0  0  0
  8 12  1  0  0  0  0
  9 27  1  0  0  0  0
 10 17  1  0  0  0  0
 11 20  1  0  0  0  0
 13 20  1  0  0  0  0
 13  9  1  0  0  0  0
 14  2  1  0  0  0  0
 15 12  1  0  0  0  0
 15  4  1  0  0  0  0
 16  8  1  0  0  0  0
 17 25  1  0  0  0  0
 18  4  1  0  0  0  0
 18  1  2  0  0  0  0
 19  6  1  0  0  0  0
 19  5  1  0  0  0  0
 20 18  1  0  0  0  0
 22 10  1  0  0  0  0
 22 24  1  0  0  0  0
 23 21  1  0  0  0  0
 24 13  1  0  0  0  0
 25  9  1  0  0  0  0
 25 14  1  0  0  0  0
 26 21  2  0  0  0  0
 27  1  1  0  0  0  0
 27  2  1  0  0  0  0
 28 17  1  0  0  0  0
 29 28  1  0  0  0  0
 29 32  1  0  0  0  0
 30 33  1  0  0  0  0
 31 33  1  0  0  0  0
 32 34  1  0  0  0  0
 32 31  1  0  0  0  0
 34 30  1  0  0  0  0
M  END
>  <MODEL>
2

>  <REMARK>
 VINA RESULT:      -8.5      2.442      8.762
  Name = 
  3 active torsions:
  status: ('A' for Active; 'I' for Inactive)
    1  A    between atoms: C_17  and  N_28
    2  A    between atoms: N_28  and  C_29
    3  A    between atoms: C_29  and  C_32
                            x       y       z     vdW  Elec       q    Type
                         _______ _______ _______ _____ _____    ______ ____

>  <TORSDO>
F 3

$$$$
=
 OpenBabel11112417493D

 34 40  0  0  1  0  0  0  0  0999 V2000
  189.9680  175.3650  142.8210 C   0  0  0  0  0  0  0  0  0  0  0  0
  192.1910  174.1830  142.3080 C   0  0  0  0  0  2  0  0  0  0  0  0
  186.2740  178.9660  146.7700 C   0  0  2  0  0  3  0  0  0  0  0  0
  187.8200  176.1980  143.6300 C   0  0  0  0  0  0  0  0  0  0  0  0
  187.6500  176.9210  145.9910 C   0  0  2  0  0  3  0  0  0  0  0  0
  185.9090  176.7320  147.6570 O   0  0  0  0  0  1  0  0  0  0  0  0
  186.1960  179.8330  148.0090 C   0  0  0  0  0  1  0  0  0  0  0  0
  184.7900  177.7770  145.0710 C   0  0  0  0  0  2  0  0  0  0  0  0
  191.7460  175.0400  144.4610 C   0  0  2  0  0  3  0  0  0  0  0  0
  194.0040  176.4370  146.2000 C   0  0  0  0  0  2  0  0  0  0  0  0
  189.0950  177.3920  145.9120 C   0  0  0  0  0  2  0  0  0  0  0  0
  186.0070  177.7960  144.1670 C   0  0  0  0  0  2  0  0  0  0  0  0
  191.2750  176.2400  145.2900 C   0  0  1  0  0  3  0  0  0  0  0  0
  193.4780  174.0340  143.1130 C   0  0  0  0  0  2  0  0  0  0  0  0
  187.0500  176.8800  144.6390 N   0  0  0  0  0  0  0  0  0  0  0  0
  184.8880  178.8770  146.1230 C   0  0  0  0  0  2  0  0  0  0  0  0
  194.1780  175.7960  144.8060 C   0  0  2  0  0  3  0  0  0  0  0  0
  189.2060  176.0170  143.8160 C   0  0  0  0  0  0  0  0  0  0  0  0
  186.8660  177.6000  147.1230 C   0  0  2  0  0  3  0  0  0  0  0  0
  189.8420  176.4880  145.0360 N   0  0  0  0  0  0  0  0  0  0  0  0
  187.9800  175.1210  141.4570 C   0  0  0  0  0  3  0  0  0  0  0  0
  193.0140  175.7060  147.1110 C   0  0  0  0  0  2  0  0  0  0  0  0
  187.2170  175.7480  142.4450 C   0  0  0  0  0  3  0  0  0  0  0  0
  191.5530  176.0420  146.7880 C   0  0  0  0  0  2  0  0  0  0  0  0
  193.2160  174.6270  144.5040 C   0  0  1  0  0  3  0  0  0  0  0  0
  189.3530  174.9390  141.6380 C   0  0  0  0  0  3  0  0  0  0  0  0
  191.4530  175.2940  143.0120 C   0  0  2  0  0  3  0  0  0  0  0  0
  195.5570  175.3550  144.6640 N   0  0  0  0  0  2  0  0  0  0  0  0
  195.8860  174.5960  145.8630 C   0  0  0  0  0  2  0  0  0  0  0  0
  197.8950  172.6490  143.6550 N   0  0  0  0  0  2  0  0  0  0  0  0
  196.8740  172.2900  145.7870 C   0  0  0  0  0  2  0  0  0  0  0  0
  197.1500  173.7650  145.6630 C   0  0  1  0  0  3  0  0  0  0  0  0
  197.7370  171.6670  144.7190 C   0  0  0  0  0  2  0  0  0  0  0  0
  197.7390  173.9600  144.2780 C   0  0  0  0  0  2  0  0  0  0  0  0
  1 27  1  0  0  0  0
  1 18  1  0  0  0  0
  2 27  1  0  0  0  0
  2 14  1  0  0  0  0
  3 19  1  0  0  0  0
  3  7  1  1  0  0  0
  4 18  2  0  0  0  0
  4 15  1  0  0  0  0
  5 11  1  6  0  0  0
  5 19  1  0  0  0  0
  8 16  1  0  0  0  0
  9 25  1  0  0  0  0
  9 13  1  0  0  0  0
 10 22  1  0  0  0  0
 12 15  1  0  0  0  0
 12  8  1  0  0  0  0
 13 24  1  0  0  0  0
 14 25  1  0  0  0  0
 15  5  1  0  0  0  0
 16  3  1  0  0  0  0
 17 10  1  0  0  0  0
 18 20  1  0  0  0  0
 19  6  1  0  0  0  0
 20 13  1  0  0  0  0
 20 11  1  0  0  0  0
 21 26  1  0  0  0  0
 21 23  2  0  0  0  0
 23  4  1  0  0  0  0
 24 22  1  0  0  0  0
 25 17  1  0  0  0  0
 26  1  2  0  0  0  0
 27  9  1  0  0  0  0
 28 17  1  0  0  0  0
 28 29  1  0  0  0  0
 30 34  1  0  0  0  0
 30 33  1  0  0  0  0
 32 31  1  0  0  0  0
 32 29  1  0  0  0  0
 33 31  1  0  0  0  0
 34 32  1  0  0  0  0
M  END
>  <MODEL>
3

>  <REMARK>
 VINA RESULT:      -8.5      1.490      1.838
  Name = 
  3 active torsions:
  status: ('A' for Active; 'I' for Inactive)
    1  A    between atoms: C_17  and  N_28
    2  A    between atoms: N_28  and  C_29
    3  A    between atoms: C_29  and  C_32
                            x       y       z     vdW  Elec       q    Type
                         _______ _______ _______ _____ _____    ______ ____

>  <TORSDO>
F 3

$$$$
=
 OpenBabel11112417493D

 34 40  0  0  1  0  0  0  0  0999 V2000
  190.0540  174.4020  142.1940 C   0  0  0  0  0  0  0  0  0  0  0  0
  187.6740  175.3680  142.2760 C   0  0  0  0  0  2  0  0  0  0  0  0
  195.8980  173.5670  144.9030 C   0  0  2  0  0  3  0  0  0  0  0  0
  192.4410  173.9010  142.1020 C   0  0  0  0  0  0  0  0  0  0  0  0
  193.9120  174.8460  143.8540 C   0  0  2  0  0  3  0  0  0  0  0  0
  196.1610  175.7300  143.8250 O   0  0  0  0  0  1  0  0  0  0  0  0
  196.7670  173.7020  146.1360 C   0  0  0  0  0  1  0  0  0  0  0  0
  196.0460  173.0840  142.4030 C   0  0  0  0  0  2  0  0  0  0  0  0
  189.3020  176.0290  143.8520 C   0  0  2  0  0  3  0  0  0  0  0  0
  188.5680  176.5250  146.8990 C   0  0  0  0  0  2  0  0  0  0  0  0
  192.7600  174.7140  144.8400 C   0  0  0  0  0  2  0  0  0  0  0  0
  194.5780  172.7180  142.5050 C   0  0  0  0  0  2  0  0  0  0  0  0
  190.3690  175.5790  144.8560 C   0  0  1  0  0  3  0  0  0  0  0  0
  186.9580  176.2360  143.3080 C   0  0  0  0  0  2  0  0  0  0  0  0
  193.7370  173.8970  142.7320 N   0  0  0  0  0  0  0  0  0  0  0  0
  196.7230  172.9600  143.7640 C   0  0  0  0  0  2  0  0  0  0  0  0
  187.5920  176.1410  145.7670 C   0  0  2  0  0  3  0  0  0  0  0  0
  191.3290  174.4140  142.8010 C   0  0  0  0  0  0  0  0  0  0  0  0
  195.2800  174.9200  144.5460 C   0  0  2  0  0  3  0  0  0  0  0  0
  191.5010  174.9640  144.1350 N   0  0  0  0  0  0  0  0  0  0  0  0
  190.9950  173.3390  140.2310 C   0  0  0  0  0  3  0  0  0  0  0  0
  189.6940  177.4680  146.4680 C   0  0  0  0  0  2  0  0  0  0  0  0
  192.2620  173.3630  140.8170 C   0  0  0  0  0  3  0  0  0  0  0  0
  190.8350  176.7390  145.7490 C   0  0  0  0  0  2  0  0  0  0  0  0
  187.9970  176.6370  144.3630 C   0  0  1  0  0  3  0  0  0  0  0  0
  189.8910  173.8460  140.9200 C   0  0  0  0  0  3  0  0  0  0  0  0
  188.8840  174.8550  143.0160 C   0  0  2  0  0  3  0  0  0  0  0  0
  186.2660  176.6350  146.1060 N   0  0  0  0  0  2  0  0  0  0  0  0
  186.4530  177.8650  146.8640 C   0  0  0  0  0  2  0  0  0  0  0  0
  183.7390  178.8230  144.7620 N   0  0  0  0  0  2  0  0  0  0  0  0
  186.0410  179.4400  144.9520 C   0  0  0  0  0  2  0  0  0  0  0  0
  185.5800  178.9910  146.3140 C   0  0  1  0  0  3  0  0  0  0  0  0
  184.7590  179.7000  144.2030 C   0  0  0  0  0  2  0  0  0  0  0  0
  184.1380  178.5510  146.1390 C   0  0  0  0  0  2  0  0  0  0  0  0
  1 18  1  0  0  0  0
  1 27  1  0  0  0  0
  2 27  1  0  0  0  0
  2 14  1  0  0  0  0
  3  7  1  1  0  0  0
  4 15  1  0  0  0  0
  4 18  2  0  0  0  0
  5 19  1  0  0  0  0
  5 11  1  1  0  0  0
  6 19  1  0  0  0  0
  8 12  1  0  0  0  0
  8 16  1  0  0  0  0
  9 25  1  0  0  0  0
  9 13  1  0  0  0  0
 12 15  1  0  0  0  0
 13 24  1  0  0  0  0
 14 25  1  0  0  0  0
 15  5  1  0  0  0  0
 16  3  1  0  0  0  0
 17 28  1  0  0  0  0
 17 10  1  0  0  0  0
 18 20  1  0  0  0  0
 19  3  1  0  0  0  0
 20 11  1  0  0  0  0
 20 13  1  0  0  0  0
 21 23  2  0  0  0  0
 21 26  1  0  0  0  0
 22 10  1  0  0  0  0
 23  4  1  0  0  0  0
 24 22  1  0  0  0  0
 25 17  1  0  0  0  0
 26  1  2  0  0  0  0
 27  9  1  0  0  0  0
 28 29  1  0  0  0  0
 30 34  1  0  0  0  0
 31 32  1  0  0  0  0
 32 29  1  0  0  0  0
 33 30  1  0  0  0  0
 33 31  1  0  0  0  0
 34 32  1  0  0  0  0
M  END
>  <MODEL>
4

>  <REMARK>
 VINA RESULT:      -8.3      2.570      8.348
  Name = 
  3 active torsions:
  status: ('A' for Active; 'I' for Inactive)
    1  A    between atoms: C_17  and  N_28
    2  A    between atoms: N_28  and  C_29
    3  A    between atoms: C_29  and  C_32
                            x       y       z     vdW  Elec       q    Type
                         _______ _______ _______ _____ _____    ______ ____

>  <TORSDO>
F 3

$$$$
=
 OpenBabel11112417493D

 34 40  0  0  1  0  0  0  0  0999 V2000
  189.6780  174.5080  144.6170 C   0  0  0  0  0  0  0  0  0  0  0  0
  191.3960  172.8980  143.5880 C   0  0  0  0  0  2  0  0  0  0  0  0
  184.4020  178.2530  144.0350 C   0  0  2  0  0  3  0  0  0  0  0  0
  188.2170  176.3310  145.3250 C   0  0  0  0  0  0  0  0  0  0  0  0
  186.8250  177.4580  143.6150 C   0  0  2  0  0  3  0  0  0  0  0  0
  186.1570  179.7560  143.2790 O   0  0  0  0  0  1  0  0  0  0  0  0
  183.2190  178.6710  143.1870 C   0  0  0  0  0  1  0  0  0  0  0  0
  185.6920  178.9250  146.1300 C   0  0  0  0  0  2  0  0  0  0  0  0
  189.8820  174.0850  142.2220 C   0  0  2  0  0  3  0  0  0  0  0  0
  188.5480  172.7580  139.6660 C   0  0  0  0  0  2  0  0  0  0  0  0
  186.7100  176.1270  142.8860 C   0  0  0  0  0  2  0  0  0  0  0  0
  186.1900  177.4930  146.1430 C   0  0  0  0  0  2  0  0  0  0  0  0
  188.4230  174.4830  141.9730 C   0  0  1  0  0  3  0  0  0  0  0  0
  191.5730  172.3620  142.1700 C   0  0  0  0  0  2  0  0  0  0  0  0
  187.1280  177.2330  145.0460 N   0  0  0  0  0  0  0  0  0  0  0  0
  184.3820  179.0290  145.3560 C   0  0  0  0  0  2  0  0  0  0  0  0
  189.5850  172.1080  140.6070 C   0  0  2  0  0  3  0  0  0  0  0  0
  188.6230  175.4050  144.3420 C   0  0  0  0  0  0  0  0  0  0  0  0
  185.7010  178.4350  143.2470 C   0  0  2  0  0  3  0  0  0  0  0  0
  187.9650  175.3880  143.0460 N   0  0  0  0  0  0  0  0  0  0  0  0
  189.8840  175.4310  146.8480 C   0  0  0  0  0  3  0  0  0  0  0  0
  188.7610  174.2560  139.4320 C   0  0  0  0  0  2  0  0  0  0  0  0
  188.8540  176.3340  146.5760 C   0  0  0  0  0  3  0  0  0  0  0  0
  188.2340  175.1160  140.5860 C   0  0  0  0  0  2  0  0  0  0  0  0
  190.5630  173.0960  141.2780 C   0  0  1  0  0  3  0  0  0  0  0  0
  190.2890  174.5130  145.8770 C   0  0  0  0  0  3  0  0  0  0  0  0
  190.0000  173.4700  143.5850 C   0  0  2  0  0  3  0  0  0  0  0  0
  190.3260  171.1030  139.8610 N   0  0  0  0  0  2  0  0  0  0  0  0
  189.5610  170.8190  138.6540 C   0  0  0  0  0  2  0  0  0  0  0  0
  191.6060  172.5310  136.2920 N   0  0  0  0  0  2  0  0  0  0  0  0
  189.7270  171.0590  136.1620 C   0  0  0  0  0  2  0  0  0  0  0  0
  190.4690  170.7320  137.4310 C   0  0  1  0  0  3  0  0  0  0  0  0
  190.7220  171.8540  135.3540 C   0  0  0  0  0  2  0  0  0  0  0  0
  191.6140  171.7250  137.5080 C   0  0  0  0  0  2  0  0  0  0  0  0
  1 26  1  0  0  0  0
  3  7  1  6  0  0  0
  3 16  1  0  0  0  0
  4 23  2  0  0  0  0
  5 11  1  1  0  0  0
  5 15  1  0  0  0  0
  8 12  1  0  0  0  0
  9 27  1  0  0  0  0
 10 17  1  0  0  0  0
 11 20  1  0  0  0  0
 13  9  1  0  0  0  0
 13 20  1  0  0  0  0
 14  2  1  0  0  0  0
 15  4  1  0  0  0  0
 15 12  1  0  0  0  0
 16  8  1  0  0  0  0
 17 25  1  0  0  0  0
 18  1  2  0  0  0  0
 18  4  1  0  0  0  0
 19  6  1  0  0  0  0
 19  5  1  0  0  0  0
 19  3  1  0  0  0  0
 20 18  1  0  0  0  0
 22 10  1  0  0  0  0
 22 24  1  0  0  0  0
 23 21  1  0  0  0  0
 24 13  1  0  0  0  0
 25 14  1  0  0  0  0
 25  9  1  0  0  0  0
 26 21  2  0  0  0  0
 27  2  1  0  0  0  0
 27  1  1  0  0  0  0
 28 17  1  0  0  0  0
 29 28  1  0  0  0  0
 30 34  1  0  0  0  0
 31 32  1  0  0  0  0
 32 34  1  0  0  0  0
 32 29  1  0  0  0  0
 33 31  1  0  0  0  0
 33 30  1  0  0  0  0
M  END
>  <MODEL>
5

>  <REMARK>
 VINA RESULT:      -7.8      3.617      5.706
  Name = 
  3 active torsions:
  status: ('A' for Active; 'I' for Inactive)
    1  A    between atoms: C_17  and  N_28
    2  A    between atoms: N_28  and  C_29
    3  A    between atoms: C_29  and  C_32
                            x       y       z     vdW  Elec       q    Type
                         _______ _______ _______ _____ _____    ______ ____

>  <TORSDO>
F 3

$$$$
=
 OpenBabel11112417493D

 34 40  0  0  1  0  0  0  0  0999 V2000
  193.8040  175.4120  145.3980 C   0  0  0  0  0  0  0  0  0  0  0  0
  192.3240  175.7570  147.4700 C   0  0  0  0  0  2  0  0  0  0  0  0
  194.4800  175.0450  138.9480 C   0  0  2  0  0  3  0  0  0  0  0  0
  194.9760  174.7240  143.3700 C   0  0  0  0  0  0  0  0  0  0  0  0
  193.6560  174.3790  141.3050 C   0  0  2  0  0  3  0  0  0  0  0  0
  193.7980  172.7780  139.5000 O   0  0  0  0  0  1  0  0  0  0  0  0
  193.8590  175.2570  137.5830 C   0  0  0  0  0  1  0  0  0  0  0  0
  196.4980  173.9670  140.0750 C   0  0  0  0  0  2  0  0  0  0  0  0
  191.3640  175.4560  145.3350 C   0  0  2  0  0  3  0  0  0  0  0  0
  188.7880  177.0690  144.4220 C   0  0  0  0  0  2  0  0  0  0  0  0
  192.7280  175.4970  141.7570 C   0  0  0  0  0  2  0  0  0  0  0  0
  196.2080  174.9040  141.2310 C   0  0  0  0  0  2  0  0  0  0  0  0
  191.3560  175.8820  143.8630 C   0  0  1  0  0  3  0  0  0  0  0  0
  190.8240  175.9920  147.6270 C   0  0  0  0  0  2  0  0  0  0  0  0
  194.9830  174.5270  141.9430 N   0  0  0  0  0  0  0  0  0  0  0  0
  195.9080  174.5160  138.7800 C   0  0  0  0  0  2  0  0  0  0  0  0
  189.4780  177.1390  145.8010 C   0  0  2  0  0  3  0  0  0  0  0  0
  193.8090  175.2010  144.0020 C   0  0  0  0  0  0  0  0  0  0  0  0
  193.5920  174.1290  139.7920 C   0  0  2  0  0  3  0  0  0  0  0  0
  192.6130  175.4590  143.2160 N   0  0  0  0  0  0  0  0  0  0  0  0
  196.1210  174.7150  145.5150 C   0  0  0  0  0  3  0  0  0  0  0  0
  188.7910  175.6770  143.7850 C   0  0  0  0  0  2  0  0  0  0  0  0
  196.1280  174.4860  144.1370 C   0  0  0  0  0  3  0  0  0  0  0  0
  190.1290  175.3340  143.1190 C   0  0  0  0  0  2  0  0  0  0  0  0
  190.1920  175.8420  146.2370 C   0  0  1  0  0  3  0  0  0  0  0  0
  194.9670  175.1870  146.1430 C   0  0  0  0  0  3  0  0  0  0  0  0
  192.5790  176.0240  146.0080 C   0  0  2  0  0  3  0  0  0  0  0  0
  188.4910  177.5230  146.7980 N   0  0  0  0  0  2  0  0  0  0  0  0
  187.5790  176.3960  146.9490 C   0  0  0  0  0  2  0  0  0  0  0  0
  184.7580  178.1110  145.6090 N   0  0  0  0  0  2  0  0  0  0  0  0
  186.0860  178.3100  147.5870 C   0  0  0  0  0  2  0  0  0  0  0  0
  186.1430  176.8700  147.1490 C   0  0  1  0  0  3  0  0  0  0  0  0
  184.8980  178.8690  146.8440 C   0  0  0  0  0  2  0  0  0  0  0  0
  185.3420  176.7970  145.8610 C   0  0  0  0  0  2  0  0  0  0  0  0
  1 27  1  0  0  0  0
  1 26  1  0  0  0  0
  2 14  1  0  0  0  0
  3  7  1  6  0  0  0
  3 19  1  0  0  0  0
  4 18  1  0  0  0  0
  4 23  2  0  0  0  0
  5 11  1  6  0  0  0
  5 15  1  0  0  0  0
  6 19  1  0  0  0  0
  8 12  1  0  0  0  0
  9 27  1  0  0  0  0
  9 25  1  0  0  0  0
 10 17  1  0  0  0  0
 11 20  1  0  0  0  0
 12 15  1  0  0  0  0
 13  9  1  0  0  0  0
 15  4  1  0  0  0  0
 16  3  1  0  0  0  0
 16  8  1  0  0  0  0
 17 25  1  0  0  0  0
 17 28  1  0  0  0  0
 18  1  2  0  0  0  0
 19  5  1  0  0  0  0
 20 13  1  0  0  0  0
 20 18  1  0  0  0  0
 21 26  2  0  0  0  0
 22 10  1  0  0  0  0
 23 21  1  0  0  0  0
 24 22  1  0  0  0  0
 24 13  1  0  0  0  0
 25 14  1  0  0  0  0
 27  2  1  0  0  0  0
 28 29  1  0  0  0  0
 29 32  1  0  0  0  0
 30 34  1  0  0  0  0
 30 33  1  0  0  0  0
 32 31  1  0  0  0  0
 33 31  1  0  0  0  0
 34 32  1  0  0  0  0
M  END
>  <MODEL>
6

>  <REMARK>
 VINA RESULT:      -7.7      2.729      8.923
  Name = 
  3 active torsions:
  status: ('A' for Active; 'I' for Inactive)
    1  A    between atoms: C_17  and  N_28
    2  A    between atoms: N_28  and  C_29
    3  A    between atoms: C_29  and  C_32
                            x       y       z     vdW  Elec       q    Type
                         _______ _______ _______ _____ _____    ______ ____

>  <TORSDO>
F 3

$$$$
=
 OpenBabel11112417493D

 34 40  0  0  1  0  0  0  0  0999 V2000
  190.5090  174.2060  142.0100 C   0  0  0  0  0  0  0  0  0  0  0  0
  192.5670  172.7470  142.4980 C   0  0  0  0  0  2  0  0  0  0  0  0
  186.2320  178.7290  143.8680 C   0  0  2  0  0  3  0  0  0  0  0  0
  188.3630  175.3610  141.8610 C   0  0  0  0  0  0  0  0  0  0  0  0
  187.4750  176.4630  143.8920 C   0  0  2  0  0  3  0  0  0  0  0  0
  185.2480  176.7110  144.7990 O   0  0  0  0  0  1  0  0  0  0  0  0
  185.8490  179.7860  144.8830 C   0  0  0  0  0  1  0  0  0  0  0  0
  185.2890  177.4350  141.8830 C   0  0  0  0  0  2  0  0  0  0  0  0
  191.5190  173.9740  144.2200 C   0  0  2  0  0  3  0  0  0  0  0  0
  193.1930  175.4040  146.5050 C   0  0  0  0  0  2  0  0  0  0  0  0
  188.9060  176.7730  144.3040 C   0  0  0  0  0  2  0  0  0  0  0  0
  186.7360  177.1920  141.5020 C   0  0  0  0  0  2  0  0  0  0  0  0
  190.9680  175.3310  144.6730 C   0  0  1  0  0  3  0  0  0  0  0  0
  193.4470  172.6040  143.7360 C   0  0  0  0  0  2  0  0  0  0  0  0
  187.3950  176.2660  142.4280 N   0  0  0  0  0  0  0  0  0  0  0  0
  185.1700  178.6730  142.7660 C   0  0  0  0  0  2  0  0  0  0  0  0
  193.7540  174.5360  145.3580 C   0  0  2  0  0  3  0  0  0  0  0  0
  189.5490  175.0780  142.5690 C   0  0  0  0  0  0  0  0  0  0  0  0
  186.4500  177.3850  144.5660 C   0  0  2  0  0  3  0  0  0  0  0  0
  189.7730  175.6730  143.8770 N   0  0  0  0  0  0  0  0  0  0  0  0
  189.1220  173.9420  140.0400 C   0  0  0  0  0  3  0  0  0  0  0  0
  191.8480  174.9270  147.0580 C   0  0  0  0  0  2  0  0  0  0  0  0
  188.1610  174.7880  140.5960 C   0  0  0  0  0  3  0  0  0  0  0  0
  190.6640  175.3470  146.1780 C   0  0  0  0  0  2  0  0  0  0  0  0
  192.8000  173.4330  144.8530 C   0  0  1  0  0  3  0  0  0  0  0  0
  190.2980  173.6590  140.7390 C   0  0  0  0  0  3  0  0  0  0  0  0
  191.8010  174.0220  142.7470 C   0  0  2  0  0  3  0  0  0  0  0  0
  195.0110  173.9470  145.7900 N   0  0  0  0  0  2  0  0  0  0  0  0
  196.0700  174.8630  145.3880 C   0  0  0  0  0  2  0  0  0  0  0  0
  197.8320  175.7080  142.4070 N   0  0  0  0  0  2  0  0  0  0  0  0
  195.9910  176.6390  143.6160 C   0  0  0  0  0  2  0  0  0  0  0  0
  196.0080  175.1590  143.8920 C   0  0  1  0  0  3  0  0  0  0  0  0
  196.8580  176.7910  142.3910 C   0  0  0  0  0  2  0  0  0  0  0  0
  197.2220  174.6160  143.1600 C   0  0  0  0  0  2  0  0  0  0  0  0
  1 18  1  0  0  0  0
  1 27  1  0  0  0  0
  2 27  1  0  0  0  0
  2 14  1  0  0  0  0
  3 19  1  0  0  0  0
  3  7  1  1  0  0  0
  4 15  1  0  0  0  0
  4 18  2  0  0  0  0
  5 11  1  6  0  0  0
  5 19  1  0  0  0  0
  8 16  1  0  0  0  0
  9 13  1  0  0  0  0
  9 25  1  0  0  0  0
 10 22  1  0  0  0  0
 12  8  1  0  0  0  0
 12 15  1  0  0  0  0
 13 24  1  0  0  0  0
 14 25  1  0  0  0  0
 15  5  1  0  0  0  0
 16  3  1  0  0  0  0
 17 28  1  0  0  0  0
 17 10  1  0  0  0  0
 18 20  1  0  0  0  0
 19  6  1  0  0  0  0
 20 11  1  0  0  0  0
 20 13  1  0  0  0  0
 21 23  2  0  0  0  0
 21 26  1  0  0  0  0
 23  4  1  0  0  0  0
 24 22  1  0  0  0  0
 25 17  1  0  0  0  0
 26  1  2  0  0  0  0
 27  9  1  0  0  0  0
 29 28  1  0  0  0  0
 30 34  1  0  0  0  0
 31 32  1  0  0  0  0
 32 29  1  0  0  0  0
 33 30  1  0  0  0  0
 33 31  1  0  0  0  0
 34 32  1  0  0  0  0
M  END
>  <MODEL>
7

>  <REMARK>
 VINA RESULT:      -7.7      1.704      2.293
  Name = 
  3 active torsions:
  status: ('A' for Active; 'I' for Inactive)
    1  A    between atoms: C_17  and  N_28
    2  A    between atoms: N_28  and  C_29
    3  A    between atoms: C_29  and  C_32
                            x       y       z     vdW  Elec       q    Type
                         _______ _______ _______ _____ _____    ______ ____

>  <TORSDO>
F 3

$$$$
=
 OpenBabel11112417493D

 34 40  0  0  1  0  0  0  0  0999 V2000
  190.4030  172.5810  142.5930 C   0  0  0  0  0  0  0  0  0  0  0  0
  188.2620  173.7000  141.7180 C   0  0  0  0  0  2  0  0  0  0  0  0
  196.1170  172.9620  145.6600 C   0  0  2  0  0  3  0  0  0  0  0  0
  192.6410  171.7670  143.1300 C   0  0  0  0  0  0  0  0  0  0  0  0
  194.3600  173.4100  143.8180 C   0  0  2  0  0  3  0  0  0  0  0  0
  196.7320  173.5970  143.3950 O   0  0  0  0  0  1  0  0  0  0  0  0
  197.0610  173.7910  146.5060 C   0  0  0  0  0  1  0  0  0  0  0  0
  196.0330  170.8130  144.2880 C   0  0  0  0  0  2  0  0  0  0  0  0
  190.0700  174.9980  142.5030 C   0  0  2  0  0  3  0  0  0  0  0  0
  189.6130  177.6500  144.1840 C   0  0  0  0  0  2  0  0  0  0  0  0
  193.2600  174.2280  144.4780 C   0  0  0  0  0  2  0  0  0  0  0  0
  194.5300  170.8930  144.4710 C   0  0  0  0  0  2  0  0  0  0  0  0
  191.0840  175.2330  143.6280 C   0  0  1  0  0  3  0  0  0  0  0  0
  187.7840  175.1490  141.7400 C   0  0  0  0  0  2  0  0  0  0  0  0
  193.9440  171.9950  143.7010 N   0  0  0  0  0  0  0  0  0  0  0  0
  196.7470  171.5920  145.3890 C   0  0  0  0  0  2  0  0  0  0  0  0
  188.5200  176.7450  143.5760 C   0  0  2  0  0  3  0  0  0  0  0  0
  191.6880  172.8060  143.1350 C   0  0  0  0  0  0  0  0  0  0  0  0
  195.7520  173.7230  144.3840 C   0  0  2  0  0  3  0  0  0  0  0  0
  192.0360  174.1060  143.6830 N   0  0  0  0  0  0  0  0  0  0  0  0
  191.0140  170.2910  142.0890 C   0  0  0  0  0  3  0  0  0  0  0  0
  190.8740  177.7810  143.3260 C   0  0  0  0  0  2  0  0  0  0  0  0
  192.2930  170.5120  142.6060 C   0  0  0  0  0  3  0  0  0  0  0  0
  191.8120  176.5760  143.4650 C   0  0  0  0  0  2  0  0  0  0  0  0
  188.9360  176.0000  142.2900 C   0  0  1  0  0  3  0  0  0  0  0  0
  190.0680  171.3180  142.0910 C   0  0  0  0  0  3  0  0  0  0  0  0
  189.3900  173.6780  142.7200 C   0  0  2  0  0  3  0  0  0  0  0  0
  187.3350  177.5500  143.3230 N   0  0  0  0  0  2  0  0  0  0  0  0
  187.0760  178.3170  144.5340 C   0  0  0  0  0  2  0  0  0  0  0  0
  184.7880  178.2910  147.2670 N   0  0  0  0  0  2  0  0  0  0  0  0
  186.9920  177.4440  146.8860 C   0  0  0  0  0  2  0  0  0  0  0  0
  186.2920  177.4950  145.5540 C   0  0  1  0  0  3  0  0  0  0  0  0
  185.8700  177.5410  147.8890 C   0  0  0  0  0  2  0  0  0  0  0  0
  184.9240  178.0930  145.8270 C   0  0  0  0  0  2  0  0  0  0  0  0
  1 27  1  0  0  0  0
  1 18  1  0  0  0  0
  2 14  1  0  0  0  0
  2 27  1  0  0  0  0
  3  7  1  6  0  0  0
  4 18  2  0  0  0  0
  4 15  1  0  0  0  0
  5 19  1  0  0  0  0
  5 11  1  1  0  0  0
  6 19  1  0  0  0  0
  8 12  1  0  0  0  0
  8 16  1  0  0  0  0
  9 27  1  0  0  0  0
  9 13  1  0  0  0  0
 13 20  1  0  0  0  0
 14 25  1  0  0  0  0
 15  5  1  0  0  0  0
 15 12  1  0  0  0  0
 16  3  1  0  0  0  0
 17 10  1  0  0  0  0
 18 20  1  0  0  0  0
 19  3  1  0  0  0  0
 20 11  1  0  0  0  0
 21 26  1  0  0  0  0
 21 23  2  0  0  0  0
 22 24  1  0  0  0  0
 22 10  1  0  0  0  0
 23  4  1  0  0  0  0
 24 13  1  0  0  0  0
 25  9  1  0  0  0  0
 25 17  1  0  0  0  0
 26  1  2  0  0  0  0
 28 17  1  0  0  0  0
 28 29  1  0  0  0  0
 29 32  1  0  0  0  0
 30 33  1  0  0  0  0
 31 33  1  0  0  0  0
 32 34  1  0  0  0  0
 32 31  1  0  0  0  0
 34 30  1  0  0  0  0
M  END
>  <MODEL>
8

>  <REMARK>
 VINA RESULT:      -7.6      3.279      8.495
  Name = 
  3 active torsions:
  status: ('A' for Active; 'I' for Inactive)
    1  A    between atoms: C_17  and  N_28
    2  A    between atoms: N_28  and  C_29
    3  A    between atoms: C_29  and  C_32
                            x       y       z     vdW  Elec       q    Type
                         _______ _______ _______ _____ _____    ______ ____

>  <TORSDO>
F 3

$$$$
=
 OpenBabel11112417493D

 34 40  0  0  1  0  0  0  0  0999 V2000
  188.7180  174.7160  140.5000 C   0  0  0  0  0  0  0  0  0  0  0  0
  187.1130  176.7210  140.4360 C   0  0  0  0  0  2  0  0  0  0  0  0
  193.3440  171.2870  143.5070 C   0  0  2  0  0  3  0  0  0  0  0  0
  190.5570  173.1100  140.5380 C   0  0  0  0  0  0  0  0  0  0  0  0
  192.2620  173.3120  142.3220 C   0  0  2  0  0  3  0  0  0  0  0  0
  194.6560  172.9850  142.3660 O   0  0  0  0  0  1  0  0  0  0  0  0
  194.1380  171.0480  144.7740 C   0  0  0  0  0  1  0  0  0  0  0  0
  193.2950  170.6590  141.0360 C   0  0  0  0  0  2  0  0  0  0  0  0
  188.8190  176.5890  142.0610 C   0  0  2  0  0  3  0  0  0  0  0  0
  188.3520  177.5440  145.0510 C   0  0  0  0  0  2  0  0  0  0  0  0
  191.1700  173.8120  143.2560 C   0  0  0  0  0  2  0  0  0  0  0  0
  191.8330  171.0600  141.0820 C   0  0  0  0  0  2  0  0  0  0  0  0
  189.5070  175.7320  143.1290 C   0  0  1  0  0  3  0  0  0  0  0  0
  186.8900  177.8820  141.4010 C   0  0  0  0  0  2  0  0  0  0  0  0
  191.6710  172.5100  141.2270 N   0  0  0  0  0  0  0  0  0  0  0  0
  193.7930  170.2940  142.4300 C   0  0  0  0  0  2  0  0  0  0  0  0
  187.3380  177.6240  143.8890 C   0  0  2  0  0  3  0  0  0  0  0  0
  189.8220  174.1370  141.1650 C   0  0  0  0  0  0  0  0  0  0  0  0
  193.4740  172.7480  143.0740 C   0  0  2  0  0  3  0  0  0  0  0  0
  190.2100  174.6050  142.4850 N   0  0  0  0  0  0  0  0  0  0  0  0
  189.0650  173.2230  138.6220 C   0  0  0  0  0  3  0  0  0  0  0  0
  189.8050  177.7950  144.6390 C   0  0  0  0  0  2  0  0  0  0  0  0
  190.1690  172.6590  139.2660 C   0  0  0  0  0  3  0  0  0  0  0  0
  190.4590  176.5640  144.0010 C   0  0  0  0  0  2  0  0  0  0  0  0
  187.9670  177.7830  142.4890 C   0  0  1  0  0  3  0  0  0  0  0  0
  188.3350  174.2410  139.2400 C   0  0  0  0  0  3  0  0  0  0  0  0
  187.9010  175.7240  141.2490 C   0  0  2  0  0  3  0  0  0  0  0  0
  186.4160  178.7180  144.1480 N   0  0  0  0  0  2  0  0  0  0  0  0
  185.1140  178.1220  144.4160 C   0  0  0  0  0  2  0  0  0  0  0  0
  186.2600  178.6970  147.7410 N   0  0  0  0  0  2  0  0  0  0  0  0
  185.2120  176.8790  146.5940 C   0  0  0  0  0  2  0  0  0  0  0  0
  184.7880  178.1500  145.9070 C   0  0  1  0  0  3  0  0  0  0  0  0
  185.7460  177.3470  147.9250 C   0  0  0  0  0  2  0  0  0  0  0  0
  185.5200  179.2710  146.6220 C   0  0  0  0  0  2  0  0  0  0  0  0
  1 18  1  0  0  0  0
  1 27  1  0  0  0  0
  2 27  1  0  0  0  0
  2 14  1  0  0  0  0
  3  7  1  1  0  0  0
  4 18  2  0  0  0  0
  4 15  1  0  0  0  0
  5 19  1  0  0  0  0
  5 11  1  1  0  0  0
  6 19  1  0  0  0  0
  8 12  1  0  0  0  0
  8 16  1  0  0  0  0
  9 25  1  0  0  0  0
  9 13  1  0  0  0  0
 12 15  1  0  0  0  0
 13 24  1  0  0  0  0
 14 25  1  0  0  0  0
 15  5  1  0  0  0  0
 16  3  1  0  0  0  0
 17 28  1  0  0  0  0
 17 10  1  0  0  0  0
 18 20  1  0  0  0  0
 19  3  1  0  0  0  0
 20 13  1  0  0  0  0
 20 11  1  0  0  0  0
 21 26  1  0  0  0  0
 21 23  2  0  0  0  0
 22 10  1  0  0  0  0
 23  4  1  0  0  0  0
 24 22  1  0  0  0  0
 25 17  1  0  0  0  0
 26  1  2  0  0  0  0
 27  9  1  0  0  0  0
 28 29  1  0  0  0  0
 29 32  1  0  0  0  0
 30 33  1  0  0  0  0
 31 33  1  0  0  0  0
 32 31  1  0  0  0  0
 32 34  1  0  0  0  0
 34 30  1  0  0  0  0
M  END
>  <MODEL>
9

>  <REMARK>
 VINA RESULT:      -7.6      3.414      8.414
  Name = 
  3 active torsions:
  status: ('A' for Active; 'I' for Inactive)
    1  A    between atoms: C_17  and  N_28
    2  A    between atoms: N_28  and  C_29
    3  A    between atoms: C_29  and  C_32
                            x       y       z     vdW  Elec       q    Type
                         _______ _______ _______ _____ _____    ______ ____

>  <TORSDO>
F 3

$$$$
