=
 OpenBabel11112416133D

 30 35  0  0  1  0  0  0  0  0999 V2000
  186.8650  177.5220  143.8630 C   0  0  1  0  0  3  0  0  0  0  0  0
  184.9840  178.1650  145.4620 C   0  0  0  0  0  0  0  0  0  0  0  0
  189.3210  177.0010  147.2340 N   0  0  0  0  0  2  0  0  0  0  0  0
  188.1380  176.6690  143.9060 C   0  0  1  0  0  3  0  0  0  0  0  0
  185.8950  176.8120  143.1190 O   0  0  0  0  0  0  0  0  0  0  0  0
  187.8640  175.8590  140.3630 O   0  0  0  0  0  0  0  0  0  0  0  0
  191.1940  175.9850  142.7880 C   0  0  1  0  0  3  0  0  0  0  0  0
  187.6090  176.3360  141.4580 C   0  0  0  0  0  0  0  0  0  0  0  0
  191.4450  176.1450  144.3000 C   0  0  2  0  0  3  0  0  0  0  0  0
  190.4830  176.3450  146.6570 C   0  0  1  0  0  3  0  0  0  0  0  0
  186.2220  176.8510  141.7410 C   0  0  2  0  0  3  0  0  0  0  0  0
  188.6980  176.5440  142.4820 C   0  0  2  0  0  3  0  0  0  0  0  0
  184.5310  178.5070  146.7370 C   0  0  0  0  0  3  0  0  0  0  0  0
  192.4160  175.0390  144.6650 C   0  0  0  0  0  2  0  0  0  0  0  0
  192.2580  175.0340  142.2600 C   0  0  0  0  0  2  0  0  0  0  0  0
  184.0670  178.1590  144.4180 O   0  0  0  0  0  1  0  0  0  0  0  0
  188.7400  177.8000  146.1590 C   0  0  1  0  0  3  0  0  0  0  0  0
  185.4200  178.5790  147.8060 C   0  0  0  0  0  3  0  0  0  0  0  0
  186.3490  177.8480  145.2480 C   0  0  0  0  0  0  0  0  0  0  0  0
  189.2240  177.2410  144.8210 C   0  0  1  0  0  3  0  0  0  0  0  0
  190.7020  175.0170  147.3550 C   0  0  0  0  0  1  0  0  0  0  0  0
  190.1850  176.1250  145.1880 C   0  0  1  0  0  3  0  0  0  0  0  0
  193.2140  174.7810  143.4080 C   0  0  0  0  0  2  0  0  0  0  0  0
  189.5500  174.3390  142.2660 O   0  0  0  0  0  0  0  0  0  0  0  0
  186.7720  178.3190  147.6000 C   0  0  0  0  0  3  0  0  0  0  0  0
  187.2490  177.9530  146.3340 C   0  0  0  0  0  0  0  0  0  0  0  0
  189.8020  175.5250  142.4310 C   0  0  0  0  0  0  0  0  0  0  0  0
  186.0020  178.2350  141.1280 C   0  0  0  0  0  2  0  0  0  0  0  0
  183.5150  178.2490  140.9430 C   0  0  0  0  0  1  0  0  0  0  0  0
  184.8210  178.2300  140.1710 C   0  0  0  0  0  2  0  0  0  0  0  0
  1  5  1  6  0  0  0
  1  4  1  0  0  0  0
  1 19  1  0  0  0  0
  2 13  1  0  0  0  0
  4 20  1  0  0  0  0
  6  8  2  0  0  0  0
  7  9  1  0  0  0  0
  8 11  1  0  0  0  0
  8 12  1  0  0  0  0
  9 14  1  0  0  0  0
  9 22  1  0  0  0  0
 10  3  1  0  0  0  0
 10 21  1  0  0  0  0
 11  5  1  0  0  0  0
 12  4  1  0  0  0  0
 13 18  2  0  0  0  0
 15  7  1  0  0  0  0
 15 23  1  0  0  0  0
 16  2  1  0  0  0  0
 17 26  1  0  0  0  0
 17  3  1  0  0  0  0
 19  2  2  0  0  0  0
 19 26  1  0  0  0  0
 20 22  1  0  0  0  0
 20 17  1  0  0  0  0
 22 10  1  0  0  0  0
 23 14  1  0  0  0  0
 24 27  2  0  0  0  0
 25 18  1  0  0  0  0
 26 25  2  0  0  0  0
 27 12  1  0  0  0  0
 27  7  1  0  0  0  0
 28 11  1  0  0  0  0
 30 29  1  0  0  0  0
 30 28  1  0  0  0  0
M  END
>  <MODEL>
1

>  <REMARK>
 VINA RESULT:      -8.6      0.000      0.000
  Name = 
  2 active torsions:
  status: ('A' for Active; 'I' for Inactive)
    1  A    between atoms: C_11  and  C_28
    2  A    between atoms: C_28  and  C_30
                            x       y       z     vdW  Elec       q    Type
                         _______ _______ _______ _____ _____    ______ ____

>  <TORSDO>
F 2

$$$$
=
 OpenBabel11112416133D

 30 35  0  0  1  0  0  0  0  0999 V2000
  189.1850  175.5070  143.9460 C   0  0  1  0  0  3  0  0  0  0  0  0
  191.3230  175.0010  145.2420 C   0  0  0  0  0  0  0  0  0  0  0  0
  187.6850  177.2770  147.4510 N   0  0  0  0  0  2  0  0  0  0  0  0
  188.0530  176.5390  144.0000 C   0  0  1  0  0  3  0  0  0  0  0  0
  190.0120  175.8310  142.8460 O   0  0  0  0  0  0  0  0  0  0  0  0
  187.5380  176.3490  140.3970 O   0  0  0  0  0  0  0  0  0  0  0  0
  184.9010  177.4020  143.3840 C   0  0  1  0  0  3  0  0  0  0  0  0
  188.0020  176.1360  141.5070 C   0  0  0  0  0  0  0  0  0  0  0  0
  185.0100  177.6810  144.8960 C   0  0  2  0  0  3  0  0  0  0  0  0
  186.4890  177.9430  146.9600 C   0  0  1  0  0  3  0  0  0  0  0  0
  189.3580  175.4910  141.6360 C   0  0  2  0  0  3  0  0  0  0  0  0
  187.1790  176.3820  142.7480 C   0  0  2  0  0  3  0  0  0  0  0  0
  192.0360  174.9310  146.4400 C   0  0  0  0  0  3  0  0  0  0  0  0
  184.2720  178.9880  145.1170 C   0  0  0  0  0  2  0  0  0  0  0  0
  183.8410  178.3440  142.8340 C   0  0  0  0  0  2  0  0  0  0  0  0
  191.9560  174.5860  144.0760 O   0  0  0  0  0  1  0  0  0  0  0  0
  187.9050  176.1430  146.5590 C   0  0  1  0  0  3  0  0  0  0  0  0
  191.4300  175.2840  147.6420 C   0  0  0  0  0  3  0  0  0  0  0  0
  189.9870  175.4700  145.2300 C   0  0  0  0  0  0  0  0  0  0  0  0
  187.1690  176.4090  145.2440 C   0  0  1  0  0  3  0  0  0  0  0  0
  186.5800  179.4230  147.2740 C   0  0  0  0  0  1  0  0  0  0  0  0
  186.4430  177.7230  145.4620 C   0  0  1  0  0  3  0  0  0  0  0  0
  183.2230  179.0390  144.0300 C   0  0  0  0  0  2  0  0  0  0  0  0
  186.5260  178.5650  142.0830 O   0  0  0  0  0  0  0  0  0  0  0  0
  190.1020  175.7000  147.6520 C   0  0  0  0  0  3  0  0  0  0  0  0
  189.3700  175.7990  146.4600 C   0  0  0  0  0  0  0  0  0  0  0  0
  186.2040  177.5190  142.6320 C   0  0  0  0  0  0  0  0  0  0  0  0
  189.2830  173.9800  141.4180 C   0  0  0  0  0  2  0  0  0  0  0  0
  188.3240  172.9580  139.3560 C   0  0  0  0  0  1  0  0  0  0  0  0
  189.5450  173.6210  139.9650 C   0  0  0  0  0  2  0  0  0  0  0  0
  1  5  1  6  0  0  0
  1  4  1  0  0  0  0
  1 19  1  0  0  0  0
  2 13  1  0  0  0  0
  4 20  1  0  0  0  0
  6  8  2  0  0  0  0
  7  9  1  0  0  0  0
  8 11  1  0  0  0  0
  8 12  1  0  0  0  0
  9 14  1  0  0  0  0
  9 22  1  0  0  0  0
 10 21  1  0  0  0  0
 10  3  1  0  0  0  0
 11  5  1  0  0  0  0
 12  4  1  0  0  0  0
 13 18  2  0  0  0  0
 15  7  1  0  0  0  0
 15 23  1  0  0  0  0
 16  2  1  0  0  0  0
 17  3  1  0  0  0  0
 18 25  1  0  0  0  0
 19  2  2  0  0  0  0
 19 26  1  0  0  0  0
 20 22  1  0  0  0  0
 20 17  1  0  0  0  0
 22 10  1  0  0  0  0
 23 14  1  0  0  0  0
 24 27  2  0  0  0  0
 26 17  1  0  0  0  0
 26 25  2  0  0  0  0
 27 12  1  0  0  0  0
 27  7  1  0  0  0  0
 28 11  1  0  0  0  0
 29 30  1  0  0  0  0
 30 28  1  0  0  0  0
M  END
>  <MODEL>
2

>  <REMARK>
 VINA RESULT:      -8.3      1.710      5.632
  Name = 
  2 active torsions:
  status: ('A' for Active; 'I' for Inactive)
    1  A    between atoms: C_11  and  C_28
    2  A    between atoms: C_28  and  C_30
                            x       y       z     vdW  Elec       q    Type
                         _______ _______ _______ _____ _____    ______ ____

>  <TORSDO>
F 2

$$$$
=
 OpenBabel11112416133D

 30 35  0  0  1  0  0  0  0  0999 V2000
  189.9280  175.1470  143.6110 C   0  0  1  0  0  3  0  0  0  0  0  0
  192.4000  174.5360  143.4480 C   0  0  0  0  0  0  0  0  0  0  0  0
  190.6840  176.4420  147.5370 N   0  0  0  0  0  2  0  0  0  0  0  0
  189.0620  176.1370  144.3960 C   0  0  1  0  0  3  0  0  0  0  0  0
  190.0310  175.6210  142.2830 O   0  0  0  0  0  0  0  0  0  0  0  0
  186.6480  176.3750  141.6770 O   0  0  0  0  0  0  0  0  0  0  0  0
  186.1350  176.9960  145.7190 C   0  0  1  0  0  3  0  0  0  0  0  0
  187.6340  176.0400  142.3160 C   0  0  0  0  0  0  0  0  0  0  0  0
  187.0680  177.0910  146.9420 C   0  0  2  0  0  3  0  0  0  0  0  0
  189.4480  177.1350  147.8650 C   0  0  1  0  0  3  0  0  0  0  0  0
  188.8050  175.4160  141.6030 C   0  0  2  0  0  3  0  0  0  0  0  0
  187.6390  176.1140  143.8230 C   0  0  2  0  0  3  0  0  0  0  0  0
  193.6490  174.3370  144.0390 C   0  0  0  0  0  3  0  0  0  0  0  0
  186.6360  178.3440  147.6790 C   0  0  0  0  0  2  0  0  0  0  0  0
  184.9930  177.9730  145.9540 C   0  0  0  0  0  2  0  0  0  0  0  0
  192.2690  174.2810  142.0880 O   0  0  0  0  0  1  0  0  0  0  0  0
  190.3240  175.4300  146.5490 C   0  0  1  0  0  3  0  0  0  0  0  0
  193.8190  174.5280  145.4080 C   0  0  0  0  0  3  0  0  0  0  0  0
  191.3000  174.9720  144.2270 C   0  0  0  0  0  0  0  0  0  0  0  0
  189.0010  175.8370  145.8960 C   0  0  1  0  0  3  0  0  0  0  0  0
  189.7670  178.5680  148.2440 C   0  0  0  0  0  1  0  0  0  0  0  0
  188.5770  177.0980  146.6260 C   0  0  1  0  0  3  0  0  0  0  0  0
  185.1660  178.5030  147.3630 C   0  0  0  0  0  2  0  0  0  0  0  0
  186.8330  178.3450  143.8820 O   0  0  0  0  0  0  0  0  0  0  0  0
  192.7360  174.9080  146.1940 C   0  0  0  0  0  3  0  0  0  0  0  0
  191.4760  175.1340  145.6220 C   0  0  0  0  0  0  0  0  0  0  0  0
  186.8150  177.2340  144.3930 C   0  0  0  0  0  0  0  0  0  0  0  0
  188.5510  173.9410  141.2910 C   0  0  0  0  0  2  0  0  0  0  0  0
  188.3100  174.2020  138.8230 C   0  0  0  0  0  1  0  0  0  0  0  0
  189.1190  173.5600  139.9340 C   0  0  0  0  0  2  0  0  0  0  0  0
  1  5  1  6  0  0  0
  1 19  1  0  0  0  0
  1  4  1  0  0  0  0
  2 13  2  0  0  0  0
  2 19  1  0  0  0  0
  3 10  1  0  0  0  0
  4 20  1  0  0  0  0
  6  8  2  0  0  0  0
  7 15  1  0  0  0  0
  7  9  1  0  0  0  0
  8 12  1  0  0  0  0
  9 14  1  0  0  0  0
 10 21  1  0  0  0  0
 11  5  1  0  0  0  0
 11  8  1  0  0  0  0
 12 27  1  0  0  0  0
 12  4  1  0  0  0  0
 13 18  1  0  0  0  0
 15 23  1  0  0  0  0
 16  2  1  0  0  0  0
 17  3  1  0  0  0  0
 18 25  2  0  0  0  0
 19 26  2  0  0  0  0
 20 17  1  0  0  0  0
 20 22  1  0  0  0  0
 22  9  1  0  0  0  0
 22 10  1  0  0  0  0
 23 14  1  0  0  0  0
 24 27  2  0  0  0  0
 26 25  1  0  0  0  0
 26 17  1  0  0  0  0
 27  7  1  0  0  0  0
 28 11  1  0  0  0  0
 29 30  1  0  0  0  0
 30 28  1  0  0  0  0
M  END
>  <MODEL>
3

>  <REMARK>
 VINA RESULT:      -8.0      1.767      5.757
  Name = 
  2 active torsions:
  status: ('A' for Active; 'I' for Inactive)
    1  A    between atoms: C_11  and  C_28
    2  A    between atoms: C_28  and  C_30
                            x       y       z     vdW  Elec       q    Type
                         _______ _______ _______ _____ _____    ______ ____

>  <TORSDO>
F 2

$$$$
=
 OpenBabel11112416133D

 30 35  0  0  1  0  0  0  0  0999 V2000
  189.3420  174.9140  143.5140 C   0  0  1  0  0  3  0  0  0  0  0  0
  189.4620  173.6540  141.2980 C   0  0  0  0  0  0  0  0  0  0  0  0
  186.3310  177.2930  141.7990 N   0  0  0  0  0  2  0  0  0  0  0  0
  188.2980  175.7180  144.2960 C   0  0  1  0  0  3  0  0  0  0  0  0
  189.4900  173.6610  144.1530 O   0  0  0  0  0  0  0  0  0  0  0  0
  189.7610  174.7460  147.4890 O   0  0  0  0  0  0  0  0  0  0  0  0
  187.5400  178.0770  146.5140 C   0  0  1  0  0  3  0  0  0  0  0  0
  189.5800  174.8320  146.2840 C   0  0  0  0  0  0  0  0  0  0  0  0
  186.7350  178.5370  145.2830 C   0  0  2  0  0  3  0  0  0  0  0  0
  185.8230  178.0100  142.9570 C   0  0  1  0  0  3  0  0  0  0  0  0
  190.2100  173.8210  145.3620 C   0  0  2  0  0  3  0  0  0  0  0  0
  188.8510  176.0160  145.6970 C   0  0  2  0  0  3  0  0  0  0  0  0
  189.1310  173.5250  139.9490 C   0  0  0  0  0  3  0  0  0  0  0  0
  185.3970  179.0010  145.8280 C   0  0  0  0  0  2  0  0  0  0  0  0
  186.8040  178.5900  147.7430 C   0  0  0  0  0  2  0  0  0  0  0  0
  190.3100  172.7060  141.8600 O   0  0  0  0  0  1  0  0  0  0  0  0
  187.7230  176.9780  142.1040 C   0  0  1  0  0  3  0  0  0  0  0  0
  188.3290  174.4770  139.3260 C   0  0  0  0  0  3  0  0  0  0  0  0
  188.9540  174.7340  142.0610 C   0  0  0  0  0  0  0  0  0  0  0  0
  187.9140  177.0370  143.6200 C   0  0  1  0  0  3  0  0  0  0  0  0
  184.3380  177.7390  143.0980 C   0  0  0  0  0  1  0  0  0  0  0  0
  186.5710  177.4870  144.1660 C   0  0  1  0  0  3  0  0  0  0  0  0
  185.6870  179.4770  147.2330 C   0  0  0  0  0  2  0  0  0  0  0  0
  187.0280  175.8540  147.2080 O   0  0  0  0  0  0  0  0  0  0  0  0
  187.8620  175.5700  140.0510 C   0  0  0  0  0  3  0  0  0  0  0  0
  188.1640  175.7120  141.4130 C   0  0  0  0  0  0  0  0  0  0  0  0
  187.7810  176.5890  146.5820 C   0  0  0  0  0  0  0  0  0  0  0  0
  191.6900  174.1240  145.1250 C   0  0  0  0  0  2  0  0  0  0  0  0
  193.7860  172.8030  145.4080 C   0  0  0  0  0  1  0  0  0  0  0  0
  192.4450  172.8750  144.7020 C   0  0  0  0  0  2  0  0  0  0  0  0
  1 19  1  6  0  0  0
  1  5  1  0  0  0  0
  1  4  1  0  0  0  0
  2 16  1  0  0  0  0
  2 19  1  0  0  0  0
  3 17  1  0  0  0  0
  3 10  1  0  0  0  0
  4 12  1  0  0  0  0
  5 11  1  0  0  0  0
  7 27  1  0  0  0  0
  7 15  1  0  0  0  0
  8  6  2  0  0  0  0
  9 14  1  0  0  0  0
  9  7  1  0  0  0  0
 10 21  1  0  0  0  0
 10 22  1  0  0  0  0
 11  8  1  0  0  0  0
 12  8  1  0  0  0  0
 12 27  1  0  0  0  0
 13  2  2  0  0  0  0
 14 23  1  0  0  0  0
 17 20  1  0  0  0  0
 18 13  1  0  0  0  0
 18 25  2  0  0  0  0
 20 22  1  0  0  0  0
 20  4  1  0  0  0  0
 22  9  1  0  0  0  0
 23 15  1  0  0  0  0
 25 26  1  0  0  0  0
 26 19  2  0  0  0  0
 26 17  1  0  0  0  0
 27 24  2  0  0  0  0
 28 11  1  0  0  0  0
 30 28  1  0  0  0  0
 30 29  1  0  0  0  0
M  END
>  <MODEL>
4

>  <REMARK>
 VINA RESULT:      -7.8      2.369      7.006
  Name = 
  2 active torsions:
  status: ('A' for Active; 'I' for Inactive)
    1  A    between atoms: C_11  and  C_28
    2  A    between atoms: C_28  and  C_30
                            x       y       z     vdW  Elec       q    Type
                         _______ _______ _______ _____ _____    ______ ____

>  <TORSDO>
F 2

$$$$
=
 OpenBabel11112416133D

 30 35  0  0  1  0  0  0  0  0999 V2000
  189.9900  176.0190  144.3090 C   0  0  1  0  0  3  0  0  0  0  0  0
  191.3960  176.4900  146.3850 C   0  0  0  0  0  0  0  0  0  0  0  0
  193.0980  173.5210  142.9810 N   0  0  0  0  0  2  0  0  0  0  0  0
  189.8390  174.8910  143.2830 C   0  0  1  0  0  3  0  0  0  0  0  0
  188.8660  175.9760  145.1670 O   0  0  0  0  0  0  0  0  0  0  0  0
  186.3160  175.6660  142.7630 O   0  0  0  0  0  0  0  0  0  0  0  0
  189.0180  173.8540  140.2330 C   0  0  1  0  0  3  0  0  0  0  0  0
  187.4550  175.7220  143.2010 C   0  0  0  0  0  0  0  0  0  0  0  0
  190.4590  173.3230  140.3640 C   0  0  2  0  0  3  0  0  0  0  0  0
  192.4740  172.8420  141.8570 C   0  0  1  0  0  3  0  0  0  0  0  0
  187.7220  176.4600  144.4870 C   0  0  2  0  0  3  0  0  0  0  0  0
  188.6170  175.1830  142.4020 C   0  0  2  0  0  3  0  0  0  0  0  0
  192.6020  176.4150  147.0840 C   0  0  0  0  0  3  0  0  0  0  0  0
  190.4320  171.9330  139.7570 C   0  0  0  0  0  2  0  0  0  0  0  0
  188.2890  172.9260  139.2710 C   0  0  0  0  0  2  0  0  0  0  0  0
  190.3340  177.1630  146.9770 O   0  0  0  0  0  1  0  0  0  0  0  0
  192.4230  174.8110  143.0910 C   0  0  1  0  0  3  0  0  0  0  0  0
  193.7110  175.7980  146.5120 C   0  0  0  0  0  3  0  0  0  0  0  0
  191.2750  175.9050  145.1010 C   0  0  0  0  0  0  0  0  0  0  0  0
  191.0690  174.7140  142.3880 C   0  0  1  0  0  3  0  0  0  0  0  0
  192.5240  171.3450  142.0910 C   0  0  0  0  0  1  0  0  0  0  0  0
  191.0370  173.3180  141.7930 C   0  0  1  0  0  3  0  0  0  0  0  0
  189.3320  171.9750  138.7210 C   0  0  0  0  0  2  0  0  0  0  0  0
  187.5650  173.1000  141.9670 O   0  0  0  0  0  0  0  0  0  0  0  0
  193.6210  175.2620  145.2310 C   0  0  0  0  0  3  0  0  0  0  0  0
  192.4160  175.3060  144.5160 C   0  0  0  0  0  0  0  0  0  0  0  0
  188.2830  173.9960  141.5430 C   0  0  0  0  0  0  0  0  0  0  0  0
  187.7720  177.9720  144.2650 C   0  0  0  0  0  2  0  0  0  0  0  0
  185.8100  179.3140  143.5120 C   0  0  0  0  0  1  0  0  0  0  0  0
  186.4730  178.6330  144.6950 C   0  0  0  0  0  2  0  0  0  0  0  0
  1 19  1  1  0  0  0
  1  5  1  0  0  0  0
  2 16  1  0  0  0  0
  2 13  1  0  0  0  0
  3 17  1  0  0  0  0
  4  1  1  0  0  0  0
  6  8  2  0  0  0  0
  7  9  1  0  0  0  0
  7 27  1  0  0  0  0
  8 11  1  0  0  0  0
  9 22  1  0  0  0  0
 10 21  1  0  0  0  0
 10  3  1  0  0  0  0
 11  5  1  0  0  0  0
 12  8  1  0  0  0  0
 12  4  1  0  0  0  0
 14  9  1  0  0  0  0
 15  7  1  0  0  0  0
 17 26  1  0  0  0  0
 18 13  2  0  0  0  0
 19  2  2  0  0  0  0
 20 17  1  0  0  0  0
 20  4  1  0  0  0  0
 22 10  1  0  0  0  0
 22 20  1  0  0  0  0
 23 15  1  0  0  0  0
 23 14  1  0  0  0  0
 25 18  1  0  0  0  0
 26 19  1  0  0  0  0
 26 25  2  0  0  0  0
 27 24  2  0  0  0  0
 27 12  1  0  0  0  0
 28 11  1  0  0  0  0
 28 30  1  0  0  0  0
 29 30  1  0  0  0  0
M  END
>  <MODEL>
5

>  <REMARK>
 VINA RESULT:      -7.6      2.780      5.261
  Name = 
  2 active torsions:
  status: ('A' for Active; 'I' for Inactive)
    1  A    between atoms: C_11  and  C_28
    2  A    between atoms: C_28  and  C_30
                            x       y       z     vdW  Elec       q    Type
                         _______ _______ _______ _____ _____    ______ ____

>  <TORSDO>
F 2

$$$$
=
 OpenBabel11112416133D

 30 35  0  0  1  0  0  0  0  0999 V2000
  186.8280  177.2140  143.8690 C   0  0  1  0  0  3  0  0  0  0  0  0
  185.8510  177.8480  141.5990 C   0  0  0  0  0  0  0  0  0  0  0  0
  189.8830  175.2000  141.7990 N   0  0  0  0  0  2  0  0  0  0  0  0
  188.2050  176.8660  144.4450 C   0  0  1  0  0  3  0  0  0  0  0  0
  186.4990  178.5210  144.2960 O   0  0  0  0  0  0  0  0  0  0  0  0
  187.3260  178.2380  147.7050 O   0  0  0  0  0  0  0  0  0  0  0  0
  190.0760  175.3310  146.7240 C   0  0  1  0  0  3  0  0  0  0  0  0
  187.2350  177.9050  146.5330 C   0  0  0  0  0  0  0  0  0  0  0  0
  190.6640  174.7730  145.4130 C   0  0  2  0  0  3  0  0  0  0  0  0
  190.8240  174.9100  142.8680 C   0  0  1  0  0  3  0  0  0  0  0  0
  186.1550  178.5050  145.6700 C   0  0  2  0  0  3  0  0  0  0  0  0
  188.1000  176.8010  145.9750 C   0  0  2  0  0  3  0  0  0  0  0  0
  185.8080  177.7160  140.2100 C   0  0  0  0  0  3  0  0  0  0  0  0
  192.1660  174.7540  145.6220 C   0  0  0  0  0  2  0  0  0  0  0  0
  191.1920  175.2990  147.7590 C   0  0  0  0  0  2  0  0  0  0  0  0
  184.9340  178.6960  142.2070 O   0  0  0  0  0  1  0  0  0  0  0  0
  188.5690  175.2710  142.4330 C   0  0  1  0  0  3  0  0  0  0  0  0
  186.6700  176.8390  139.5580 C   0  0  0  0  0  3  0  0  0  0  0  0
  186.7990  177.1190  142.3580 C   0  0  0  0  0  0  0  0  0  0  0  0
  188.7640  175.5380  143.9270 C   0  0  1  0  0  3  0  0  0  0  0  0
  192.1690  175.5210  142.5260 C   0  0  0  0  0  1  0  0  0  0  0  0
  190.2680  175.5330  144.1310 C   0  0  1  0  0  3  0  0  0  0  0  0
  192.3570  174.5790  147.1110 C   0  0  0  0  0  2  0  0  0  0  0  0
  190.1110  177.7110  146.8450 O   0  0  0  0  0  0  0  0  0  0  0  0
  187.5730  176.0790  140.2950 C   0  0  0  0  0  3  0  0  0  0  0  0
  187.6510  176.2080  141.6890 C   0  0  0  0  0  0  0  0  0  0  0  0
  189.4620  176.7030  146.6000 C   0  0  0  0  0  0  0  0  0  0  0  0
  184.8010  177.8420  145.9260 C   0  0  0  0  0  2  0  0  0  0  0  0
  183.1000  179.0410  144.5520 C   0  0  0  0  0  1  0  0  0  0  0  0
  183.6810  178.8690  145.9430 C   0  0  0  0  0  2  0  0  0  0  0  0
  1 19  1  6  0  0  0
  1  5  1  0  0  0  0
  1  4  1  0  0  0  0
  2 16  1  0  0  0  0
  2 19  1  0  0  0  0
  3 17  1  0  0  0  0
  3 10  1  0  0  0  0
  4 12  1  0  0  0  0
  5 11  1  0  0  0  0
  7 15  1  0  0  0  0
  8  6  2  0  0  0  0
  9 14  1  0  0  0  0
  9  7  1  0  0  0  0
 10 22  1  0  0  0  0
 11 28  1  0  0  0  0
 11  8  1  0  0  0  0
 12  8  1  0  0  0  0
 12 27  1  0  0  0  0
 13  2  2  0  0  0  0
 14 23  1  0  0  0  0
 17 20  1  0  0  0  0
 18 13  1  0  0  0  0
 18 25  2  0  0  0  0
 20 22  1  0  0  0  0
 20  4  1  0  0  0  0
 21 10  1  0  0  0  0
 22  9  1  0  0  0  0
 23 15  1  0  0  0  0
 25 26  1  0  0  0  0
 26 19  2  0  0  0  0
 26 17  1  0  0  0  0
 27  7  1  0  0  0  0
 27 24  2  0  0  0  0
 28 30  1  0  0  0  0
 29 30  1  0  0  0  0
M  END
>  <MODEL>
6

>  <REMARK>
 VINA RESULT:      -7.6      2.083      4.655
  Name = 
  2 active torsions:
  status: ('A' for Active; 'I' for Inactive)
    1  A    between atoms: C_11  and  C_28
    2  A    between atoms: C_28  and  C_30
                            x       y       z     vdW  Elec       q    Type
                         _______ _______ _______ _____ _____    ______ ____

>  <TORSDO>
F 2

$$$$
=
 OpenBabel11112416133D

 30 35  0  0  1  0  0  0  0  0999 V2000
  187.6810  175.8100  141.4010 C   0  0  1  0  0  3  0  0  0  0  0  0
  187.8170  175.0110  138.9820 C   0  0  0  0  0  0  0  0  0  0  0  0
  190.6020  172.9350  142.3330 N   0  0  0  0  0  2  0  0  0  0  0  0
  188.5990  175.8490  142.6270 C   0  0  1  0  0  3  0  0  0  0  0  0
  187.5900  177.1240  140.8870 O   0  0  0  0  0  0  0  0  0  0  0  0
  187.0010  178.8740  143.8820 O   0  0  0  0  0  0  0  0  0  0  0  0
  189.0090  175.9120  145.9260 C   0  0  1  0  0  3  0  0  0  0  0  0
  187.2580  177.9210  143.1620 C   0  0  0  0  0  0  0  0  0  0  0  0
  189.8580  174.6880  145.5310 C   0  0  2  0  0  3  0  0  0  0  0  0
  190.9690  173.3130  143.6890 C   0  0  1  0  0  3  0  0  0  0  0  0
  186.7770  177.9160  141.7350 C   0  0  2  0  0  3  0  0  0  0  0  0
  187.9280  176.6900  143.7220 C   0  0  2  0  0  3  0  0  0  0  0  0
  188.2500  174.0940  138.0230 C   0  0  0  0  0  3  0  0  0  0  0  0
  191.1130  174.7790  146.3790 C   0  0  0  0  0  2  0  0  0  0  0  0
  189.6140  176.4780  147.2020 C   0  0  0  0  0  2  0  0  0  0  0  0
  187.0110  176.0640  138.5670 O   0  0  0  0  0  1  0  0  0  0  0  0
  189.2220  173.3760  142.1560 C   0  0  1  0  0  3  0  0  0  0  0  0
  189.0140  172.9920  138.3950 C   0  0  0  0  0  3  0  0  0  0  0  0
  188.1820  174.8520  140.3410 C   0  0  0  0  0  0  0  0  0  0  0  0
  188.9220  174.4620  143.1910 C   0  0  1  0  0  3  0  0  0  0  0  0
  192.4580  173.5960  143.7400 C   0  0  0  0  0  1  0  0  0  0  0  0
  190.1830  174.5620  144.0290 C   0  0  1  0  0  3  0  0  0  0  0  0
  190.6890  175.5030  147.6360 C   0  0  0  0  0  2  0  0  0  0  0  0
  189.6490  177.9160  144.8040 O   0  0  0  0  0  0  0  0  0  0  0  0
  189.3400  172.7960  139.7340 C   0  0  0  0  0  3  0  0  0  0  0  0
  188.9340  173.7130  140.7140 C   0  0  0  0  0  0  0  0  0  0  0  0
  188.8850  176.9600  144.8480 C   0  0  0  0  0  0  0  0  0  0  0  0
  185.2980  177.5410  141.6420 C   0  0  0  0  0  2  0  0  0  0  0  0
  183.1070  178.2910  140.7170 C   0  0  0  0  0  1  0  0  0  0  0  0
  184.6100  178.2900  140.5130 C   0  0  0  0  0  2  0  0  0  0  0  0
  1 19  1  6  0  0  0
  1  4  1  0  0  0  0
  2 19  1  0  0  0  0
  3 10  1  0  0  0  0
  4 20  1  0  0  0  0
  4 12  1  0  0  0  0
  5  1  1  0  0  0  0
  5 11  1  0  0  0  0
  7 15  1  0  0  0  0
  8 12  1  0  0  0  0
  8  6  2  0  0  0  0
  9  7  1  0  0  0  0
  9 14  1  0  0  0  0
 10 21  1  0  0  0  0
 10 22  1  0  0  0  0
 11  8  1  0  0  0  0
 12 27  1  0  0  0  0
 13 18  1  0  0  0  0
 13  2  2  0  0  0  0
 14 23  1  0  0  0  0
 15 23  1  0  0  0  0
 16  2  1  0  0  0  0
 17  3  1  0  0  0  0
 17 20  1  0  0  0  0
 18 25  2  0  0  0  0
 19 26  2  0  0  0  0
 20 22  1  0  0  0  0
 22  9  1  0  0  0  0
 24 27  2  0  0  0  0
 25 26  1  0  0  0  0
 26 17  1  0  0  0  0
 27  7  1  0  0  0  0
 28 11  1  0  0  0  0
 30 29  1  0  0  0  0
 30 28  1  0  0  0  0
M  END
>  <MODEL>
7

>  <REMARK>
 VINA RESULT:      -7.4      2.445      5.262
  Name = 
  2 active torsions:
  status: ('A' for Active; 'I' for Inactive)
    1  A    between atoms: C_11  and  C_28
    2  A    between atoms: C_28  and  C_30
                            x       y       z     vdW  Elec       q    Type
                         _______ _______ _______ _____ _____    ______ ____

>  <TORSDO>
F 2

$$$$
=
 OpenBabel11112416133D

 30 35  0  0  1  0  0  0  0  0999 V2000
  188.0870  176.2250  144.1560 C   0  0  1  0  0  3  0  0  0  0  0  0
  186.8140  178.0800  142.9520 C   0  0  0  0  0  0  0  0  0  0  0  0
  188.8630  174.5450  140.3830 N   0  0  0  0  0  2  0  0  0  0  0  0
  189.2300  175.2550  143.8400 C   0  0  1  0  0  3  0  0  0  0  0  0
  188.5970  177.2280  145.0130 O   0  0  0  0  0  0  0  0  0  0  0  0
  190.3140  175.1990  147.3190 O   0  0  0  0  0  0  0  0  0  0  0  0
  190.7950  172.3680  144.3630 C   0  0  1  0  0  3  0  0  0  0  0  0
  189.6730  175.4770  146.3160 C   0  0  0  0  0  0  0  0  0  0  0  0
  190.5450  172.3150  142.8430 C   0  0  2  0  0  3  0  0  0  0  0  0
  189.8550  173.5310  140.7070 C   0  0  1  0  0  3  0  0  0  0  0  0
  188.7900  176.6980  146.3120 C   0  0  2  0  0  3  0  0  0  0  0  0
  189.6460  174.5410  145.1330 C   0  0  2  0  0  3  0  0  0  0  0  0
  186.2330  178.6110  141.8000 C   0  0  0  0  0  3  0  0  0  0  0  0
  191.8200  171.7490  142.2460 C   0  0  0  0  0  2  0  0  0  0  0  0
  192.0390  171.5350  144.6370 C   0  0  0  0  0  2  0  0  0  0  0  0
  186.6940  178.7950  144.1380 O   0  0  0  0  0  1  0  0  0  0  0  0
  188.0600  174.7160  141.5890 C   0  0  1  0  0  3  0  0  0  0  0  0
  186.2800  177.9080  140.5990 C   0  0  0  0  0  3  0  0  0  0  0  0
  187.4930  176.8370  142.9050 C   0  0  0  0  0  0  0  0  0  0  0  0
  188.8640  174.2060  142.7860 C   0  0  1  0  0  3  0  0  0  0  0  0
  191.1120  173.7910  139.9000 C   0  0  0  0  0  1  0  0  0  0  0  0
  190.1450  173.6520  142.1880 C   0  0  1  0  0  3  0  0  0  0  0  0
  192.4070  170.8700  143.3270 C   0  0  0  0  0  2  0  0  0  0  0  0
  192.0070  174.3000  145.0600 O   0  0  0  0  0  0  0  0  0  0  0  0
  186.9010  176.6630  140.5490 C   0  0  0  0  0  3  0  0  0  0  0  0
  187.5100  176.1170  141.6880 C   0  0  0  0  0  0  0  0  0  0  0  0
  190.9150  173.7620  144.9280 C   0  0  0  0  0  0  0  0  0  0  0  0
  187.4700  176.4380  147.0390 C   0  0  0  0  0  2  0  0  0  0  0  0
  185.2230  177.5120  146.9100 C   0  0  0  0  0  1  0  0  0  0  0  0
  186.6890  177.7260  147.2370 C   0  0  0  0  0  2  0  0  0  0  0  0
  1 19  1  6  0  0  0
  1  5  1  0  0  0  0
  2 16  1  0  0  0  0
  3 10  1  0  0  0  0
  3 17  1  0  0  0  0
  4  1  1  0  0  0  0
  4 12  1  0  0  0  0
  5 11  1  0  0  0  0
  7 15  1  0  0  0  0
  7 27  1  0  0  0  0
  8  6  2  0  0  0  0
  9  7  1  0  0  0  0
 10 22  1  0  0  0  0
 11  8  1  0  0  0  0
 11 28  1  0  0  0  0
 12  8  1  0  0  0  0
 13  2  2  0  0  0  0
 14  9  1  0  0  0  0
 14 23  1  0  0  0  0
 17 26  1  0  0  0  0
 17 20  1  0  0  0  0
 18 13  1  0  0  0  0
 19  2  1  0  0  0  0
 20  4  1  0  0  0  0
 21 10  1  0  0  0  0
 22 20  1  0  0  0  0
 22  9  1  0  0  0  0
 23 15  1  0  0  0  0
 25 18  2  0  0  0  0
 25 26  1  0  0  0  0
 26 19  2  0  0  0  0
 27 24  2  0  0  0  0
 27 12  1  0  0  0  0
 28 30  1  0  0  0  0
 29 30  1  0  0  0  0
M  END
>  <MODEL>
8

>  <REMARK>
 VINA RESULT:      -7.4      2.692      5.094
  Name = 
  2 active torsions:
  status: ('A' for Active; 'I' for Inactive)
    1  A    between atoms: C_11  and  C_28
    2  A    between atoms: C_28  and  C_30
                            x       y       z     vdW  Elec       q    Type
                         _______ _______ _______ _____ _____    ______ ____

>  <TORSDO>
F 2

$$$$
=
 OpenBabel11112416133D

 30 35  0  0  1  0  0  0  0  0999 V2000
  188.2000  176.5580  145.3260 C   0  0  1  0  0  3  0  0  0  0  0  0
  186.8010  178.2680  146.6010 C   0  0  0  0  0  0  0  0  0  0  0  0
  185.6090  177.1230  142.0660 N   0  0  0  0  0  2  0  0  0  0  0  0
  188.5370  176.2430  143.8650 C   0  0  1  0  0  3  0  0  0  0  0  0
  189.3390  177.1570  145.9120 O   0  0  0  0  0  0  0  0  0  0  0  0
  191.8140  174.9320  144.7720 O   0  0  0  0  0  0  0  0  0  0  0  0
  189.4430  174.0730  141.5140 C   0  0  1  0  0  3  0  0  0  0  0  0
  190.7030  175.4280  144.8780 C   0  0  0  0  0  0  0  0  0  0  0  0
  188.1420  174.6490  140.9200 C   0  0  2  0  0  3  0  0  0  0  0  0
  186.3170  176.4320  141.0000 C   0  0  1  0  0  3  0  0  0  0  0  0
  190.3380  176.1780  146.1320 C   0  0  2  0  0  3  0  0  0  0  0  0
  189.6450  175.1810  143.8290 C   0  0  2  0  0  3  0  0  0  0  0  0
  185.6590  179.0620  146.7240 C   0  0  0  0  0  3  0  0  0  0  0  0
  188.4250  174.8400  139.4420 C   0  0  0  0  0  2  0  0  0  0  0  0
  190.3080  173.6320  140.3420 C   0  0  0  0  0  2  0  0  0  0  0  0
  187.7270  178.2840  147.6370 O   0  0  0  0  0  1  0  0  0  0  0  0
  186.0160  176.4670  143.3050 C   0  0  1  0  0  3  0  0  0  0  0  0
  184.6770  179.0410  145.7380 C   0  0  0  0  0  3  0  0  0  0  0  0
  186.9920  177.4600  145.4530 C   0  0  0  0  0  0  0  0  0  0  0  0
  187.3370  175.7390  143.0580 C   0  0  1  0  0  3  0  0  0  0  0  0
  186.5740  177.4030  139.8640 C   0  0  0  0  0  1  0  0  0  0  0  0
  187.6260  175.9420  141.5820 C   0  0  1  0  0  3  0  0  0  0  0  0
  189.4570  173.7910  139.0980 C   0  0  0  0  0  2  0  0  0  0  0  0
  191.0760  175.7350  142.0180 O   0  0  0  0  0  0  0  0  0  0  0  0
  184.8270  178.2150  144.6280 C   0  0  0  0  0  3  0  0  0  0  0  0
  185.9740  177.4230  144.4710 C   0  0  0  0  0  0  0  0  0  0  0  0
  190.1790  175.0130  142.4350 C   0  0  0  0  0  0  0  0  0  0  0  0
  189.9800  175.2240  147.2720 C   0  0  0  0  0  2  0  0  0  0  0  0
  191.6350  176.6710  148.4490 C   0  0  0  0  0  1  0  0  0  0  0  0
  191.0100  175.2910  148.3880 C   0  0  0  0  0  2  0  0  0  0  0  0
  1 19  1  6  0  0  0
  1  5  1  0  0  0  0
  2 13  1  0  0  0  0
  2 16  1  0  0  0  0
  3 17  1  0  0  0  0
  4  1  1  0  0  0  0
  5 11  1  0  0  0  0
  6  8  2  0  0  0  0
  7 27  1  0  0  0  0
  8 11  1  0  0  0  0
  9  7  1  0  0  0  0
  9 22  1  0  0  0  0
 10 22  1  0  0  0  0
 10  3  1  0  0  0  0
 11 28  1  0  0  0  0
 12  4  1  0  0  0  0
 12  8  1  0  0  0  0
 14  9  1  0  0  0  0
 15  7  1  0  0  0  0
 17 26  1  0  0  0  0
 18 13  2  0  0  0  0
 19  2  2  0  0  0  0
 20 17  1  0  0  0  0
 20  4  1  0  0  0  0
 21 10  1  0  0  0  0
 22 20  1  0  0  0  0
 23 14  1  0  0  0  0
 23 15  1  0  0  0  0
 24 27  2  0  0  0  0
 25 18  1  0  0  0  0
 26 25  2  0  0  0  0
 26 19  1  0  0  0  0
 27 12  1  0  0  0  0
 28 30  1  0  0  0  0
 30 29  1  0  0  0  0
M  END
>  <MODEL>
9

>  <REMARK>
 VINA RESULT:      -7.4      2.318      5.223
  Name = 
  2 active torsions:
  status: ('A' for Active; 'I' for Inactive)
    1  A    between atoms: C_11  and  C_28
    2  A    between atoms: C_28  and  C_30
                            x       y       z     vdW  Elec       q    Type
                         _______ _______ _______ _____ _____    ______ ____

>  <TORSDO>
F 2

$$$$
