=
 OpenBabel11112416263D

 30 35  0  0  1  0  0  0  0  0999 V2000
  187.5990  176.5140  144.9070 C   0  0  1  0  0  3  0  0  0  0  0  0
  186.3330  178.2820  146.0850 C   0  0  0  0  0  0  0  0  0  0  0  0
  186.3140  178.0130  141.1810 N   0  0  0  0  0  0  0  0  0  0  0  0
  187.7760  175.6170  143.6670 C   0  0  2  0  0  3  0  0  0  0  0  0
  188.4320  176.2110  146.0860 C   0  0  0  0  0  3  0  0  0  0  0  0
  191.2160  174.6670  144.5350 O   0  0  0  0  0  0  0  0  0  0  0  0
  188.2670  173.7040  141.5220 C   0  0  1  0  0  3  0  0  0  0  0  0
  190.0190  175.0380  144.6820 C   0  0  0  0  0  0  0  0  0  0  0  0
  188.1400  174.8760  140.6770 N   0  0  0  0  0  0  0  0  0  0  0  0
  186.8890  177.1440  140.4090 C   0  0  0  0  0  0  0  0  0  0  0  0
  189.5630  175.5230  145.9920 C   0  0  0  0  0  0  0  0  0  0  0  0
  189.0850  174.9290  143.5910 N   0  0  0  0  0  0  0  0  0  0  0  0
  185.5170  179.3660  146.0030 N   0  0  0  0  0  0  0  0  0  0  0  0
  188.2720  174.5850  139.2650 C   0  0  0  0  0  2  0  0  0  0  0  0
  188.6250  172.5670  140.5760 C   0  0  0  0  0  2  0  0  0  0  0  0
  186.6930  177.8270  147.3880 N   0  0  0  0  0  1  0  0  0  0  0  0
  186.6590  177.5880  142.4980 C   0  0  2  0  0  3  0  0  0  0  0  0
  185.0640  179.8550  144.8240 C   0  0  0  0  0  3  0  0  0  0  0  0
  186.7410  177.5960  144.8990 C   0  0  0  0  0  0  0  0  0  0  0  0
  187.4910  176.4230  142.4450 C   0  0  0  0  0  0  0  0  0  0  0  0
  186.7700  177.1830  138.9920 N   0  0  0  0  0  1  0  0  0  0  0  0
  187.6130  176.1110  141.1700 C   0  0  0  0  0  0  0  0  0  0  0  0
  188.3880  173.0780  139.1630 C   0  0  0  0  0  2  0  0  0  0  0  0
  189.6010  172.6670  143.2130 O   0  0  0  0  0  1  0  0  0  0  0  0
  185.4300  179.2450  143.6330 C   0  0  0  0  0  3  0  0  0  0  0  0
  186.2600  178.1240  143.6550 C   0  0  0  0  0  0  0  0  0  0  0  0
  189.3700  173.8910  142.5750 C   0  0  1  0  0  3  0  0  0  0  0  0
  190.3970  175.3270  147.2130 C   0  0  0  0  0  2  0  0  0  0  0  0
  192.4190  176.4840  147.2250 C   0  0  0  0  0  1  0  0  0  0  0  0
  191.0180  176.5840  147.5910 N   0  0  0  0  0  2  0  0  0  0  0  0
  1  5  1  6  0  0  0
  2 16  1  0  0  0  0
  4 20  1  6  0  0  0
  4  1  1  0  0  0  0
  6  8  2  0  0  0  0
  7 15  1  6  0  0  0
  7 27  1  0  0  0  0
  8 11  1  0  0  0  0
  9 22  1  0  0  0  0
  9  7  1  0  0  0  0
 10 22  1  0  0  0  0
 10  3  2  0  0  0  0
 11  5  2  0  0  0  0
 11 28  1  0  0  0  0
 12  4  1  0  0  0  0
 12  8  1  0  0  0  0
 13  2  1  0  0  0  0
 14  9  1  0  0  0  0
 17  3  1  6  0  0  0
 17 26  1  0  0  0  0
 18 13  2  0  0  0  0
 19  1  1  0  0  0  0
 19  2  2  0  0  0  0
 20 17  1  0  0  0  0
 21 10  1  0  0  0  0
 22 20  2  0  0  0  0
 23 14  1  0  0  0  0
 23 15  1  0  0  0  0
 25 26  2  0  0  0  0
 25 18  1  0  0  0  0
 26 19  1  0  0  0  0
 27 24  1  1  0  0  0
 27 12  1  0  0  0  0
 28 30  1  0  0  0  0
 29 30  1  0  0  0  0
M  END
>  <MODEL>
1

>  <REMARK>
 VINA RESULT:      -8.4      0.000      0.000
  Name = 
  2 active torsions:
  status: ('A' for Active; 'I' for Inactive)
    1  A    between atoms: C_11  and  C_28
    2  A    between atoms: C_28  and  N_30
                            x       y       z     vdW  Elec       q    Type
                         _______ _______ _______ _____ _____    ______ ____

>  <TORSDO>
F 2

$$$$
=
 OpenBabel11112416263D

 30 35  0  0  1  0  0  0  0  0999 V2000
  188.3230  176.3080  143.7440 C   0  0  1  0  0  3  0  0  0  0  0  0
  186.0220  177.1350  144.1200 C   0  0  0  0  0  0  0  0  0  0  0  0
  189.4360  177.5000  147.6330 N   0  0  0  0  0  0  0  0  0  0  0  0
  189.8250  176.3840  144.0750 C   0  0  2  0  0  3  0  0  0  0  0  0
  187.9240  175.4810  142.5890 C   0  0  0  0  0  3  0  0  0  0  0  0
  190.5850  173.1470  142.5140 O   0  0  0  0  0  0  0  0  0  0  0  0
  192.7240  176.4010  144.3950 C   0  0  1  0  0  3  0  0  0  0  0  0
  189.9970  174.2390  142.7460 C   0  0  0  0  0  0  0  0  0  0  0  0
  192.3980  176.3500  145.8070 N   0  0  0  0  0  0  0  0  0  0  0  0
  190.6850  177.1510  147.5970 C   0  0  2  0  0  3  0  0  0  0  0  0
  188.6980  174.5130  142.1170 C   0  0  0  0  0  0  0  0  0  0  0  0
  190.6200  175.2400  143.5730 N   0  0  0  0  0  0  0  0  0  0  0  0
  185.1330  177.7300  144.9590 N   0  0  0  0  0  0  0  0  0  0  0  0
  193.5620  176.3610  146.6680 C   0  0  0  0  0  2  0  0  0  0  0  0
  194.2430  176.3280  144.3330 C   0  0  0  0  0  2  0  0  0  0  0  0
  185.5660  176.7930  142.8130 N   0  0  0  0  0  1  0  0  0  0  0  0
  188.9450  177.1650  146.3360 C   0  0  0  0  0  0  0  0  0  0  0  0
  185.4650  178.1490  146.2030 C   0  0  0  0  0  3  0  0  0  0  0  0
  187.3780  176.9400  144.5290 C   0  0  0  0  0  0  0  0  0  0  0  0
  189.9860  176.5800  145.5440 C   0  0  0  0  0  0  0  0  0  0  0  0
  191.5640  177.3460  148.6980 N   0  0  0  0  0  1  0  0  0  0  0  0
  191.0740  176.5970  146.2890 C   0  0  0  0  0  0  0  0  0  0  0  0
  194.7530  176.5460  145.7500 C   0  0  0  0  0  2  0  0  0  0  0  0
  192.6180  175.1940  142.3340 O   0  0  0  0  0  1  0  0  0  0  0  0
  186.7620  177.9810  146.6690 C   0  0  0  0  0  3  0  0  0  0  0  0
  187.7200  177.3830  145.8500 C   0  0  0  0  0  0  0  0  0  0  0  0
  192.0990  175.2220  143.6340 C   0  0  1  0  0  3  0  0  0  0  0  0
  188.1930  173.6610  141.0010 C   0  0  0  0  0  2  0  0  0  0  0  0
  188.2040  173.2850  138.7020 C   0  0  0  0  0  1  0  0  0  0  0  0
  188.5670  174.2470  139.7260 N   0  0  0  0  0  2  0  0  0  0  0  0
  1  5  1  1  0  0  0
  1  4  1  0  0  0  0
  1 19  1  0  0  0  0
  2 19  2  0  0  0  0
  2 13  1  0  0  0  0
  4 20  1  1  0  0  0
  6  8  2  0  0  0  0
  7 15  1  1  0  0  0
  7  9  1  0  0  0  0
  8 12  1  0  0  0  0
  9 22  1  0  0  0  0
  9 14  1  0  0  0  0
 10  3  1  0  0  0  0
 10 21  1  6  0  0  0
 11  5  2  0  0  0  0
 11  8  1  0  0  0  0
 12 27  1  0  0  0  0
 12  4  1  0  0  0  0
 13 18  2  0  0  0  0
 15 23  1  0  0  0  0
 16  2  1  0  0  0  0
 17  3  2  0  0  0  0
 18 25  1  0  0  0  0
 19 26  1  0  0  0  0
 20 22  2  0  0  0  0
 20 17  1  0  0  0  0
 22 10  1  0  0  0  0
 23 14  1  0  0  0  0
 26 17  1  0  0  0  0
 26 25  2  0  0  0  0
 27 24  1  6  0  0  0
 27  7  1  0  0  0  0
 28 11  1  0  0  0  0
 29 30  1  0  0  0  0
 30 28  1  0  0  0  0
M  END
>  <MODEL>
2

>  <REMARK>
 VINA RESULT:      -8.0      1.702      5.741
  Name = 
  2 active torsions:
  status: ('A' for Active; 'I' for Inactive)
    1  A    between atoms: C_11  and  C_28
    2  A    between atoms: C_28  and  N_30
                            x       y       z     vdW  Elec       q    Type
                         _______ _______ _______ _____ _____    ______ ____

>  <TORSDO>
F 2

$$$$
=
 OpenBabel11112416263D

 30 35  0  0  1  0  0  0  0  0999 V2000
  187.5850  176.2630  141.6980 C   0  0  1  0  0  3  0  0  0  0  0  0
  185.8060  177.4630  140.4670 C   0  0  0  0  0  0  0  0  0  0  0  0
  185.7770  177.2600  145.3750 N   0  0  0  0  0  0  0  0  0  0  0  0
  188.4150  176.0880  142.9840 C   0  0  2  0  0  3  0  0  0  0  0  0
  188.0170  175.5120  140.5040 C   0  0  0  0  0  3  0  0  0  0  0  0
  189.6570  172.7670  142.0250 O   0  0  0  0  0  0  0  0  0  0  0  0
  190.2260  175.6230  145.2220 C   0  0  1  0  0  3  0  0  0  0  0  0
  189.2120  173.9420  141.9080 C   0  0  0  0  0  0  0  0  0  0  0  0
  188.9990  175.6300  145.9950 N   0  0  0  0  0  0  0  0  0  0  0  0
  186.6360  176.7080  146.1740 C   0  0  2  0  0  3  0  0  0  0  0  0
  188.7760  174.4270  140.5920 C   0  0  0  0  0  0  0  0  0  0  0  0
  189.1880  174.8270  143.0450 N   0  0  0  0  0  0  0  0  0  0  0  0
  184.6640  178.1990  140.5170 N   0  0  0  0  0  0  0  0  0  0  0  0
  189.2120  175.4480  147.4160 C   0  0  0  0  0  2  0  0  0  0  0  0
  191.3260  175.2970  146.2220 C   0  0  0  0  0  2  0  0  0  0  0  0
  186.3630  177.2000  139.1820 N   0  0  0  0  0  1  0  0  0  0  0  0
  186.3030  177.0100  144.0730 C   0  0  0  0  0  0  0  0  0  0  0  0
  184.0740  178.5590  141.6810 C   0  0  0  0  0  3  0  0  0  0  0  0
  186.4460  177.0450  141.6750 C   0  0  0  0  0  0  0  0  0  0  0  0
  187.5200  176.2570  144.1630 C   0  0  0  0  0  0  0  0  0  0  0  0
  186.5030  176.7550  147.5900 N   0  0  0  0  0  1  0  0  0  0  0  0
  187.7620  176.0940  145.4490 C   0  0  0  0  0  0  0  0  0  0  0  0
  190.7150  175.4300  147.6080 C   0  0  0  0  0  2  0  0  0  0  0  0
  191.4540  174.4470  143.5420 O   0  0  0  0  0  1  0  0  0  0  0  0
  184.6360  178.1780  142.8910 C   0  0  0  0  0  3  0  0  0  0  0  0
  185.8110  177.4270  142.9030 C   0  0  0  0  0  0  0  0  0  0  0  0
  190.1810  174.5630  144.1110 C   0  0  1  0  0  3  0  0  0  0  0  0
  189.1040  173.6690  139.3500 C   0  0  0  0  0  2  0  0  0  0  0  0
  189.0280  174.0610  137.0540 C   0  0  0  0  0  1  0  0  0  0  0  0
  188.2340  174.0970  138.2690 N   0  0  0  0  0  2  0  0  0  0  0  0
  1  5  1  1  0  0  0
  1  4  1  0  0  0  0
  2 13  2  0  0  0  0
  2 19  1  0  0  0  0
  3 10  1  0  0  0  0
  4 12  1  0  0  0  0
  4 20  1  1  0  0  0
  5 11  2  0  0  0  0
  7  9  1  0  0  0  0
  7 15  1  1  0  0  0
  8  6  2  0  0  0  0
  8 12  1  0  0  0  0
  9 14  1  0  0  0  0
 10 21  1  1  0  0  0
 11  8  1  0  0  0  0
 12 27  1  0  0  0  0
 13 18  1  0  0  0  0
 14 23  1  0  0  0  0
 15 23  1  0  0  0  0
 16  2  1  0  0  0  0
 17 20  1  0  0  0  0
 17  3  2  0  0  0  0
 18 25  2  0  0  0  0
 19  1  1  0  0  0  0
 19 26  2  0  0  0  0
 20 22  2  0  0  0  0
 22  9  1  0  0  0  0
 22 10  1  0  0  0  0
 25 26  1  0  0  0  0
 26 17  1  0  0  0  0
 27 24  1  6  0  0  0
 27  7  1  0  0  0  0
 28 11  1  0  0  0  0
 29 30  1  0  0  0  0
 30 28  1  0  0  0  0
M  END
>  <MODEL>
3

>  <REMARK>
 VINA RESULT:      -7.9      1.391      5.634
  Name = 
  2 active torsions:
  status: ('A' for Active; 'I' for Inactive)
    1  A    between atoms: C_11  and  C_28
    2  A    between atoms: C_28  and  N_30
                            x       y       z     vdW  Elec       q    Type
                         _______ _______ _______ _____ _____    ______ ____

>  <TORSDO>
F 2

$$$$
=
 OpenBabel11112416263D

 30 35  0  0  1  0  0  0  0  0999 V2000
  188.4240  175.5130  142.1000 C   0  0  1  0  0  3  0  0  0  0  0  0
  190.2620  174.0780  141.2720 C   0  0  0  0  0  0  0  0  0  0  0  0
  190.4830  176.1320  145.7290 N   0  0  0  0  0  0  0  0  0  0  0  0
  187.6370  176.0980  143.2880 C   0  0  2  0  0  3  0  0  0  0  0  0
  187.8670  175.7180  140.7500 C   0  0  0  0  0  3  0  0  0  0  0  0
  186.0230  178.6980  141.2570 O   0  0  0  0  0  0  0  0  0  0  0  0
  185.8880  177.2360  145.3250 C   0  0  1  0  0  3  0  0  0  0  0  0
  186.5800  177.6060  141.5540 C   0  0  0  0  0  0  0  0  0  0  0  0
  187.1420  177.6200  145.9450 N   0  0  0  0  0  0  0  0  0  0  0  0
  189.6080  176.8770  146.3280 C   0  0  2  0  0  3  0  0  0  0  0  0
  187.0060  176.6920  140.4860 C   0  0  0  0  0  0  0  0  0  0  0  0
  186.7430  177.2240  142.9340 N   0  0  0  0  0  0  0  0  0  0  0  0
  191.4730  173.5080  141.5040 N   0  0  0  0  0  0  0  0  0  0  0  0
  186.9730  178.3100  147.2070 C   0  0  0  0  0  2  0  0  0  0  0  0
  184.8050  177.8310  146.2140 C   0  0  0  0  0  2  0  0  0  0  0  0
  189.6250  173.7890  140.0290 N   0  0  0  0  0  1  0  0  0  0  0  0
  189.8780  175.8280  144.4740 C   0  0  0  0  0  0  0  0  0  0  0  0
  192.1470  173.6640  142.6670 C   0  0  0  0  0  3  0  0  0  0  0  0
  189.6350  174.8730  142.2820 C   0  0  0  0  0  0  0  0  0  0  0  0
  188.5960  176.4600  144.3710 C   0  0  0  0  0  0  0  0  0  0  0  0
  189.8060  177.3820  147.6430 N   0  0  0  0  0  1  0  0  0  0  0  0
  188.3950  177.0800  145.5170 C   0  0  0  0  0  0  0  0  0  0  0  0
  185.4860  178.2830  147.4960 C   0  0  0  0  0  2  0  0  0  0  0  0
  184.4740  177.5870  143.4290 O   0  0  0  0  0  1  0  0  0  0  0  0
  191.6030  174.4310  143.6870 C   0  0  0  0  0  3  0  0  0  0  0  0
  190.3590  175.0360  143.5100 C   0  0  0  0  0  0  0  0  0  0  0  0
  185.7760  177.7950  143.8980 C   0  0  1  0  0  3  0  0  0  0  0  0
  186.5490  176.8930  139.0800 C   0  0  0  0  0  2  0  0  0  0  0  0
  186.5690  176.0800  136.8970 C   0  0  0  0  0  1  0  0  0  0  0  0
  187.0640  175.8290  138.2380 N   0  0  0  0  0  2  0  0  0  0  0  0
  1  5  1  6  0  0  0
  1 19  1  0  0  0  0
  1  4  1  0  0  0  0
  2 13  2  0  0  0  0
  2 19  1  0  0  0  0
  3 10  1  0  0  0  0
  4 20  1  1  0  0  0
  6  8  2  0  0  0  0
  7  9  1  0  0  0  0
  7 15  1  1  0  0  0
  8 12  1  0  0  0  0
  9 14  1  0  0  0  0
 10 21  1  1  0  0  0
 11  5  2  0  0  0  0
 11  8  1  0  0  0  0
 12  4  1  0  0  0  0
 12 27  1  0  0  0  0
 13 18  1  0  0  0  0
 14 23  1  0  0  0  0
 15 23  1  0  0  0  0
 16  2  1  0  0  0  0
 17  3  2  0  0  0  0
 18 25  2  0  0  0  0
 19 26  2  0  0  0  0
 20 17  1  0  0  0  0
 20 22  2  0  0  0  0
 22  9  1  0  0  0  0
 22 10  1  0  0  0  0
 26 25  1  0  0  0  0
 26 17  1  0  0  0  0
 27 24  1  6  0  0  0
 27  7  1  0  0  0  0
 28 11  1  0  0  0  0
 29 30  1  0  0  0  0
 30 28  1  0  0  0  0
M  END
>  <MODEL>
4

>  <REMARK>
 VINA RESULT:      -7.5      2.497      7.177
  Name = 
  2 active torsions:
  status: ('A' for Active; 'I' for Inactive)
    1  A    between atoms: C_11  and  C_28
    2  A    between atoms: C_28  and  N_30
                            x       y       z     vdW  Elec       q    Type
                         _______ _______ _______ _____ _____    ______ ____

>  <TORSDO>
F 2

$$$$
=
 OpenBabel11112416263D

 30 35  0  0  1  0  0  0  0  0999 V2000
  188.5500  175.7700  144.5450 C   0  0  1  0  0  3  0  0  0  0  0  0
  187.4450  177.2870  146.1560 C   0  0  0  0  0  0  0  0  0  0  0  0
  186.4600  177.5660  141.3530 N   0  0  0  0  0  0  0  0  0  0  0  0
  188.5250  175.0350  143.1910 C   0  0  2  0  0  3  0  0  0  0  0  0
  189.6180  175.4060  145.4950 C   0  0  0  0  0  3  0  0  0  0  0  0
  192.1180  174.2770  143.2570 O   0  0  0  0  0  0  0  0  0  0  0  0
  188.6870  173.4200  140.7680 C   0  0  1  0  0  3  0  0  0  0  0  0
  190.9550  174.5300  143.6760 C   0  0  0  0  0  0  0  0  0  0  0  0
  188.3250  174.6640  140.1180 N   0  0  0  0  0  0  0  0  0  0  0  0
  186.9180  176.8390  140.3820 C   0  0  0  0  0  0  0  0  0  0  0  0
  190.7440  174.8270  145.0990 C   0  0  0  0  0  0  0  0  0  0  0  0
  189.8300  174.4690  142.7790 N   0  0  0  0  0  0  0  0  0  0  0  0
  186.5670  178.3030  146.3690 N   0  0  0  0  0  0  0  0  0  0  0  0
  188.1890  174.5450  138.6820 C   0  0  0  0  0  2  0  0  0  0  0  0
  188.9130  172.4280  139.6360 C   0  0  0  0  0  2  0  0  0  0  0  0
  188.0840  176.7200  147.2980 N   0  0  0  0  0  1  0  0  0  0  0  0
  187.0850  177.0270  142.5150 C   0  0  2  0  0  3  0  0  0  0  0  0
  185.8600  178.8830  145.3700 C   0  0  0  0  0  3  0  0  0  0  0  0
  187.6460  176.7730  144.8370 C   0  0  0  0  0  0  0  0  0  0  0  0
  187.9550  175.9460  142.1580 C   0  0  0  0  0  0  0  0  0  0  0  0
  186.5150  177.0260  139.0300 N   0  0  0  0  0  1  0  0  0  0  0  0
  187.8370  175.7890  140.8540 C   0  0  0  0  0  0  0  0  0  0  0  0
  188.3680  173.0730  138.3710 C   0  0  0  0  0  2  0  0  0  0  0  0
  190.3900  172.3120  142.0290 O   0  0  0  0  0  1  0  0  0  0  0  0
  186.0150  178.4410  144.0640 C   0  0  0  0  0  3  0  0  0  0  0  0
  186.8960  177.3960  143.7850 C   0  0  0  0  0  0  0  0  0  0  0  0
  189.9650  173.5770  141.6050 C   0  0  1  0  0  3  0  0  0  0  0  0
  191.8150  174.5650  146.1030 C   0  0  0  0  0  2  0  0  0  0  0  0
  193.2410  176.4050  146.2030 C   0  0  0  0  0  1  0  0  0  0  0  0
  192.1010  175.7790  146.8470 N   0  0  0  0  0  2  0  0  0  0  0  0
  1 19  1  0  0  0  0
  1  5  1  6  0  0  0
  2 13  1  0  0  0  0
  2 16  1  0  0  0  0
  4 20  1  6  0  0  0
  4  1  1  0  0  0  0
  6  8  2  0  0  0  0
  7 15  1  6  0  0  0
  7 27  1  0  0  0  0
  8 11  1  0  0  0  0
  9  7  1  0  0  0  0
  9 22  1  0  0  0  0
 10 22  1  0  0  0  0
 10  3  2  0  0  0  0
 11  5  2  0  0  0  0
 11 28  1  0  0  0  0
 12  4  1  0  0  0  0
 12  8  1  0  0  0  0
 14  9  1  0  0  0  0
 17  3  1  1  0  0  0
 17 26  1  0  0  0  0
 18 13  2  0  0  0  0
 19  2  2  0  0  0  0
 20 17  1  0  0  0  0
 21 10  1  0  0  0  0
 22 20  2  0  0  0  0
 23 14  1  0  0  0  0
 23 15  1  0  0  0  0
 25 18  1  0  0  0  0
 26 25  2  0  0  0  0
 26 19  1  0  0  0  0
 27 24  1  1  0  0  0
 27 12  1  0  0  0  0
 28 30  1  0  0  0  0
 29 30  1  0  0  0  0
M  END
>  <MODEL>
5

>  <REMARK>
 VINA RESULT:      -7.5      1.080      1.206
  Name = 
  2 active torsions:
  status: ('A' for Active; 'I' for Inactive)
    1  A    between atoms: C_11  and  C_28
    2  A    between atoms: C_28  and  N_30
                            x       y       z     vdW  Elec       q    Type
                         _______ _______ _______ _____ _____    ______ ____

>  <TORSDO>
F 2

$$$$
=
 OpenBabel11112416263D

 30 35  0  0  1  0  0  0  0  0999 V2000
  188.7590  176.8480  144.9460 C   0  0  1  0  0  3  0  0  0  0  0  0
  190.0290  177.0430  147.0600 C   0  0  0  0  0  0  0  0  0  0  0  0
  190.3920  173.0190  144.2670 N   0  0  0  0  0  0  0  0  0  0  0  0
  188.6270  176.2440  143.5350 C   0  0  2  0  0  3  0  0  0  0  0  0
  187.8280  177.9320  145.3100 C   0  0  0  0  0  3  0  0  0  0  0  0
  185.0870  177.1660  143.2050 O   0  0  0  0  0  0  0  0  0  0  0  0
  188.1910  175.3730  140.7860 C   0  0  1  0  0  3  0  0  0  0  0  0
  186.2880  177.2060  143.5880 C   0  0  0  0  0  0  0  0  0  0  0  0
  188.4430  174.0580  141.3430 N   0  0  0  0  0  0  0  0  0  0  0  0
  189.8290  172.7640  143.1270 C   0  0  0  0  0  0  0  0  0  0  0  0
  186.6720  178.1070  144.6830 C   0  0  0  0  0  0  0  0  0  0  0  0
  187.2920  176.4190  142.9180 N   0  0  0  0  0  0  0  0  0  0  0  0
  190.9060  176.4830  147.9340 N   0  0  0  0  0  0  0  0  0  0  0  0
  188.3980  172.9970  140.3580 C   0  0  0  0  0  2  0  0  0  0  0  0
  187.8430  175.1280  139.3250 C   0  0  0  0  0  2  0  0  0  0  0  0
  189.5520  178.3540  147.3550 N   0  0  0  0  0  1  0  0  0  0  0  0
  189.9290  174.3270  144.5960 C   0  0  2  0  0  3  0  0  0  0  0  0
  191.4690  175.2690  147.7320 C   0  0  0  0  0  3  0  0  0  0  0  0
  189.6730  176.3560  145.8580 C   0  0  0  0  0  0  0  0  0  0  0  0
  189.0420  174.8140  143.5810 C   0  0  0  0  0  0  0  0  0  0  0  0
  190.0530  171.5500  142.4190 N   0  0  0  0  0  1  0  0  0  0  0  0
  188.9970  173.8820  142.6490 C   0  0  0  0  0  0  0  0  0  0  0  0
  188.2100  173.6840  139.0210 C   0  0  0  0  0  2  0  0  0  0  0  0
  186.6840  177.2280  140.7960 O   0  0  0  0  0  1  0  0  0  0  0  0
  191.1590  174.5410  146.5920 C   0  0  0  0  0  3  0  0  0  0  0  0
  190.2710  175.0680  145.6550 C   0  0  0  0  0  0  0  0  0  0  0  0
  187.0260  176.0710  141.5040 C   0  0  1  0  0  3  0  0  0  0  0  0
  185.7420  179.1710  145.1600 C   0  0  0  0  0  2  0  0  0  0  0  0
  184.4280  178.2690  146.8600 C   0  0  0  0  0  1  0  0  0  0  0  0
  185.5980  179.0880  146.6030 N   0  0  0  0  0  2  0  0  0  0  0  0
  1  5  1  1  0  0  0
  1 19  1  0  0  0  0
  2 16  1  0  0  0  0
  2 13  1  0  0  0  0
  3 17  1  0  0  0  0
  4 20  1  1  0  0  0
  4  1  1  0  0  0  0
  6  8  2  0  0  0  0
  7 15  1  6  0  0  0
  7  9  1  0  0  0  0
  7 27  1  0  0  0  0
  8 11  1  0  0  0  0
  9 22  1  0  0  0  0
 10  3  2  0  0  0  0
 11 28  1  0  0  0  0
 11  5  2  0  0  0  0
 12  4  1  0  0  0  0
 12  8  1  0  0  0  0
 14  9  1  0  0  0  0
 17 20  1  6  0  0  0
 17 26  1  0  0  0  0
 18 13  2  0  0  0  0
 19  2  2  0  0  0  0
 21 10  1  0  0  0  0
 22 10  1  0  0  0  0
 22 20  2  0  0  0  0
 23 15  1  0  0  0  0
 23 14  1  0  0  0  0
 25 18  1  0  0  0  0
 26 19  1  0  0  0  0
 26 25  2  0  0  0  0
 27 24  1  6  0  0  0
 27 12  1  0  0  0  0
 28 30  1  0  0  0  0
 30 29  1  0  0  0  0
M  END
>  <MODEL>
6

>  <REMARK>
 VINA RESULT:      -7.3      2.120      4.916
  Name = 
  2 active torsions:
  status: ('A' for Active; 'I' for Inactive)
    1  A    between atoms: C_11  and  C_28
    2  A    between atoms: C_28  and  N_30
                            x       y       z     vdW  Elec       q    Type
                         _______ _______ _______ _____ _____    ______ ____

>  <TORSDO>
F 2

$$$$
=
 OpenBabel11112416263D

 30 35  0  0  1  0  0  0  0  0999 V2000
  188.7750  176.2830  145.4590 C   0  0  1  0  0  3  0  0  0  0  0  0
  186.9430  177.8320  146.0610 C   0  0  0  0  0  0  0  0  0  0  0  0
  187.3480  176.0650  141.4960 N   0  0  0  0  0  0  0  0  0  0  0  0
  189.3070  175.1510  144.5590 C   0  0  2  0  0  3  0  0  0  0  0  0
  189.5780  176.6410  146.6440 C   0  0  0  0  0  3  0  0  0  0  0  0
  192.8030  175.6590  145.5630 O   0  0  0  0  0  0  0  0  0  0  0  0
  190.5160  172.9270  143.1110 C   0  0  1  0  0  3  0  0  0  0  0  0
  191.5430  175.6570  145.6270 C   0  0  0  0  0  0  0  0  0  0  0  0
  190.0890  173.6760  141.9450 N   0  0  0  0  0  0  0  0  0  0  0  0
  188.2170  175.2290  141.0190 C   0  0  0  0  0  0  0  0  0  0  0  0
  190.8700  176.3530  146.7320 C   0  0  0  0  0  0  0  0  0  0  0  0
  190.7670  174.9260  144.6580 N   0  0  0  0  0  0  0  0  0  0  0  0
  185.8380  178.5190  145.6690 N   0  0  0  0  0  0  0  0  0  0  0  0
  190.4030  173.0200  140.6930 C   0  0  0  0  0  2  0  0  0  0  0  0
  191.2750  171.7280  142.5610 C   0  0  0  0  0  2  0  0  0  0  0  0
  187.3360  177.9420  147.4280 N   0  0  0  0  0  1  0  0  0  0  0  0
  187.7160  176.2020  142.8670 C   0  0  2  0  0  3  0  0  0  0  0  0
  185.3380  178.4500  144.4130 C   0  0  0  0  0  3  0  0  0  0  0  0
  187.6250  176.9790  145.1390 C   0  0  0  0  0  0  0  0  0  0  0  0
  188.8710  175.4040  143.1560 C   0  0  0  0  0  0  0  0  0  0  0  0
  188.1890  174.7880  139.6660 N   0  0  0  0  0  1  0  0  0  0  0  0
  189.1710  174.7680  142.0410 C   0  0  0  0  0  0  0  0  0  0  0  0
  190.9880  171.6740  141.0680 C   0  0  0  0  0  2  0  0  0  0  0  0
  191.9870  172.9450  144.9970 O   0  0  0  0  0  1  0  0  0  0  0  0
  185.9570  177.6490  143.4630 C   0  0  0  0  0  3  0  0  0  0  0  0
  187.0910  176.9150  143.8090 C   0  0  0  0  0  0  0  0  0  0  0  0
  191.4310  173.7700  144.0130 C   0  0  1  0  0  3  0  0  0  0  0  0
  191.6360  176.8200  147.9230 C   0  0  0  0  0  2  0  0  0  0  0  0
  191.5670  178.0740  149.8850 C   0  0  0  0  0  1  0  0  0  0  0  0
  190.8740  177.8300  148.6340 N   0  0  0  0  0  2  0  0  0  0  0  0
  1  5  1  6  0  0  0
  2 16  1  0  0  0  0
  4 20  1  6  0  0  0
  4 12  1  0  0  0  0
  4  1  1  0  0  0  0
  5 11  2  0  0  0  0
  6  8  2  0  0  0  0
  7 15  1  6  0  0  0
  7 27  1  0  0  0  0
  8 11  1  0  0  0  0
  9 22  1  0  0  0  0
  9  7  1  0  0  0  0
 10  3  2  0  0  0  0
 10 22  1  0  0  0  0
 11 28  1  0  0  0  0
 12  8  1  0  0  0  0
 13  2  1  0  0  0  0
 14 23  1  0  0  0  0
 14  9  1  0  0  0  0
 17  3  1  1  0  0  0
 17 20  1  0  0  0  0
 17 26  1  0  0  0  0
 18 13  2  0  0  0  0
 19  1  1  0  0  0  0
 19  2  2  0  0  0  0
 21 10  1  0  0  0  0
 22 20  2  0  0  0  0
 23 15  1  0  0  0  0
 25 26  2  0  0  0  0
 25 18  1  0  0  0  0
 26 19  1  0  0  0  0
 27 12  1  0  0  0  0
 27 24  1  1  0  0  0
 28 30  1  0  0  0  0
 30 29  1  0  0  0  0
M  END
>  <MODEL>
7

>  <REMARK>
 VINA RESULT:      -7.3      1.610      2.188
  Name = 
  2 active torsions:
  status: ('A' for Active; 'I' for Inactive)
    1  A    between atoms: C_11  and  C_28
    2  A    between atoms: C_28  and  N_30
                            x       y       z     vdW  Elec       q    Type
                         _______ _______ _______ _____ _____    ______ ____

>  <TORSDO>
F 2

$$$$
=
 OpenBabel11112416263D

 30 35  0  0  1  0  0  0  0  0999 V2000
  189.3470  175.7300  142.9080 C   0  0  1  0  0  3  0  0  0  0  0  0
  187.2020  176.4170  143.9310 C   0  0  0  0  0  0  0  0  0  0  0  0
  191.4130  176.7700  146.4340 N   0  0  0  0  0  0  0  0  0  0  0  0
  190.8800  175.8650  142.8350 C   0  0  2  0  0  3  0  0  0  0  0  0
  188.6850  174.9460  141.8480 C   0  0  0  0  0  3  0  0  0  0  0  0
  191.3110  172.7600  140.9220 O   0  0  0  0  0  0  0  0  0  0  0  0
  193.7560  176.0150  142.3800 C   0  0  1  0  0  3  0  0  0  0  0  0
  190.7670  173.8060  141.3720 C   0  0  0  0  0  0  0  0  0  0  0  0
  193.8200  175.8720  143.8220 N   0  0  0  0  0  0  0  0  0  0  0  0
  192.6180  176.4880  146.0470 C   0  0  2  0  0  3  0  0  0  0  0  0
  189.3390  174.0450  141.1260 C   0  0  0  0  0  0  0  0  0  0  0  0
  191.5520  174.7920  142.0680 N   0  0  0  0  0  0  0  0  0  0  0  0
  186.5480  176.9190  145.0120 N   0  0  0  0  0  0  0  0  0  0  0  0
  195.1710  175.8980  144.3430 C   0  0  0  0  0  2  0  0  0  0  0  0
  195.2050  176.0240  141.9140 C   0  0  0  0  0  2  0  0  0  0  0  0
  186.4260  176.1220  142.7710 N   0  0  0  0  0  1  0  0  0  0  0  0
  190.6070  176.4790  145.2940 C   0  0  0  0  0  0  0  0  0  0  0  0
  187.1850  177.2880  146.1480 C   0  0  0  0  0  3  0  0  0  0  0  0
  188.6240  176.2700  143.9540 C   0  0  0  0  0  0  0  0  0  0  0  0
  191.4190  175.9910  144.2190 C   0  0  0  0  0  0  0  0  0  0  0  0
  193.7520  176.6690  146.8880 N   0  0  0  0  0  1  0  0  0  0  0  0
  192.6650  176.0250  144.6500 C   0  0  0  0  0  0  0  0  0  0  0  0
  196.0660  176.1920  143.1570 C   0  0  0  0  0  2  0  0  0  0  0  0
  193.1480  174.9160  140.3460 O   0  0  0  0  0  1  0  0  0  0  0  0
  188.5630  177.1620  146.2430 C   0  0  0  0  0  3  0  0  0  0  0  0
  189.2890  176.6590  145.1640 C   0  0  0  0  0  0  0  0  0  0  0  0
  192.9940  174.8480  141.7360 C   0  0  1  0  0  3  0  0  0  0  0  0
  188.5850  173.2290  140.1310 C   0  0  0  0  0  2  0  0  0  0  0  0
  189.1360  173.7910  137.9380 C   0  0  0  0  0  1  0  0  0  0  0  0
  188.1940  174.0620  139.0070 N   0  0  0  0  0  2  0  0  0  0  0  0
  1  5  1  1  0  0  0
  1 19  1  0  0  0  0
  2 19  2  0  0  0  0
  2 13  1  0  0  0  0
  4  1  1  0  0  0  0
  4 20  1  1  0  0  0
  6  8  2  0  0  0  0
  7 15  1  6  0  0  0
  7  9  1  0  0  0  0
  8 12  1  0  0  0  0
  9 14  1  0  0  0  0
  9 22  1  0  0  0  0
 10  3  1  0  0  0  0
 10 21  1  6  0  0  0
 11  8  1  0  0  0  0
 11  5  2  0  0  0  0
 12  4  1  0  0  0  0
 13 18  2  0  0  0  0
 15 23  1  0  0  0  0
 16  2  1  0  0  0  0
 17  3  2  0  0  0  0
 18 25  1  0  0  0  0
 19 26  1  0  0  0  0
 20 22  2  0  0  0  0
 20 17  1  0  0  0  0
 22 10  1  0  0  0  0
 23 14  1  0  0  0  0
 26 17  1  0  0  0  0
 26 25  2  0  0  0  0
 27 24  1  6  0  0  0
 27 12  1  0  0  0  0
 27  7  1  0  0  0  0
 28 11  1  0  0  0  0
 29 30  1  0  0  0  0
 30 28  1  0  0  0  0
M  END
>  <MODEL>
8

>  <REMARK>
 VINA RESULT:      -7.3      2.835      6.044
  Name = 
  2 active torsions:
  status: ('A' for Active; 'I' for Inactive)
    1  A    between atoms: C_11  and  C_28
    2  A    between atoms: C_28  and  N_30
                            x       y       z     vdW  Elec       q    Type
                         _______ _______ _______ _____ _____    ______ ____

>  <TORSDO>
F 2

$$$$
=
 OpenBabel11112416263D

 30 35  0  0  1  0  0  0  0  0999 V2000
  189.3200  175.3210  144.6130 C   0  0  1  0  0  3  0  0  0  0  0  0
  187.8610  177.2370  145.1800 C   0  0  0  0  0  0  0  0  0  0  0  0
  187.9350  175.3870  140.6300 N   0  0  0  0  0  0  0  0  0  0  0  0
  189.6040  174.0930  143.7270 C   0  0  2  0  0  3  0  0  0  0  0  0
  190.1640  175.5040  145.8090 C   0  0  0  0  0  3  0  0  0  0  0  0
  193.1120  173.8340  144.7840 O   0  0  0  0  0  0  0  0  0  0  0  0
  190.3190  171.6460  142.3100 C   0  0  1  0  0  3  0  0  0  0  0  0
  191.8810  174.1070  144.8280 C   0  0  0  0  0  0  0  0  0  0  0  0
  190.0820  172.4610  141.1340 N   0  0  0  0  0  0  0  0  0  0  0  0
  188.6070  174.3780  140.1700 C   0  0  0  0  0  0  0  0  0  0  0  0
  191.3610  174.9430  145.9180 C   0  0  0  0  0  0  0  0  0  0  0  0
  190.9780  173.5550  143.8510 N   0  0  0  0  0  0  0  0  0  0  0  0
  186.9380  178.1460  144.7670 N   0  0  0  0  0  0  0  0  0  0  0  0
  190.2620  171.7420  139.8900 C   0  0  0  0  0  2  0  0  0  0  0  0
  190.8050  170.3060  141.7770 C   0  0  0  0  0  2  0  0  0  0  0  0
  188.2490  177.2700  146.5510 N   0  0  0  0  0  1  0  0  0  0  0  0
  188.3050  175.4510  142.0060 C   0  0  2  0  0  3  0  0  0  0  0  0
  186.4530  178.1760  143.5030 C   0  0  0  0  0  3  0  0  0  0  0  0
  188.3540  176.2480  144.2720 C   0  0  0  0  0  0  0  0  0  0  0  0
  189.2530  174.4230  142.3170 C   0  0  0  0  0  0  0  0  0  0  0  0
  188.5030  173.9420  138.8200 N   0  0  0  0  0  1  0  0  0  0  0  0
  189.4240  173.7280  141.2100 C   0  0  0  0  0  0  0  0  0  0  0  0
  190.5350  170.3030  140.2800 C   0  0  0  0  0  2  0  0  0  0  0  0
  191.7310  171.3580  144.2180 O   0  0  0  0  0  1  0  0  0  0  0  0
  186.8950  177.2520  142.5680 C   0  0  0  0  0  3  0  0  0  0  0  0
  187.8370  176.2910  142.9350 C   0  0  0  0  0  0  0  0  0  0  0  0
  191.3830  172.2780  143.2210 C   0  0  1  0  0  3  0  0  0  0  0  0
  192.1940  175.2410  147.1190 C   0  0  0  0  0  2  0  0  0  0  0  0
  194.0030  176.6420  146.6760 C   0  0  0  0  0  1  0  0  0  0  0  0
  192.6130  176.6310  147.0940 N   0  0  0  0  0  2  0  0  0  0  0  0
  1  5  1  6  0  0  0
  2 16  1  0  0  0  0
  4 20  1  6  0  0  0
  4 12  1  0  0  0  0
  4  1  1  0  0  0  0
  5 11  2  0  0  0  0
  6  8  2  0  0  0  0
  7 15  1  6  0  0  0
  7 27  1  0  0  0  0
  8 11  1  0  0  0  0
  9 22  1  0  0  0  0
  9  7  1  0  0  0  0
 10  3  2  0  0  0  0
 10 22  1  0  0  0  0
 11 28  1  0  0  0  0
 12  8  1  0  0  0  0
 13  2  1  0  0  0  0
 14 23  1  0  0  0  0
 14  9  1  0  0  0  0
 17  3  1  1  0  0  0
 17 20  1  0  0  0  0
 17 26  1  0  0  0  0
 18 13  2  0  0  0  0
 19  1  1  0  0  0  0
 19  2  2  0  0  0  0
 21 10  1  0  0  0  0
 22 20  2  0  0  0  0
 23 15  1  0  0  0  0
 25 26  2  0  0  0  0
 25 18  1  0  0  0  0
 26 19  1  0  0  0  0
 27 12  1  0  0  0  0
 27 24  1  1  0  0  0
 29 30  1  0  0  0  0
 30 28  1  0  0  0  0
M  END
>  <MODEL>
9

>  <REMARK>
 VINA RESULT:      -7.2      1.832      2.622
  Name = 
  2 active torsions:
  status: ('A' for Active; 'I' for Inactive)
    1  A    between atoms: C_11  and  C_28
    2  A    between atoms: C_28  and  N_30
                            x       y       z     vdW  Elec       q    Type
                         _______ _______ _______ _____ _____    ______ ____

>  <TORSDO>
F 2

$$$$
