=
 OpenBabel11112417433D

 28 32  0  0  1  0  0  0  0  0999 V2000
  190.1230  174.6530  141.9310 C   0  0  2  0  0  3  0  0  0  0  0  0
  187.6420  178.6350  141.9560 O   0  0  0  0  0  1  0  0  0  0  0  0
  188.8990  174.7140  147.4990 O   0  0  0  0  0  0  0  0  0  0  0  0
  188.3090  172.4310  142.3270 C   0  0  0  0  0  2  0  0  0  0  0  0
  187.5880  176.3160  146.3840 N   0  0  0  0  0  0  0  0  0  0  0  0
  191.3580  175.4560  142.3640 C   0  0  0  0  0  2  0  0  0  0  0  0
  187.3500  176.8440  140.4260 C   0  0  0  0  0  1  0  0  0  0  0  0
  186.9110  177.4630  141.7410 C   0  0  1  0  0  0  0  0  0  0  0  0
  184.8170  178.1450  142.9610 C   0  0  0  0  0  0  0  0  0  0  0  0
  187.1420  176.4620  142.8930 C   0  0  2  0  0  3  0  0  0  0  0  0
  193.0830  176.9280  145.2930 C   0  0  0  0  0  1  0  0  0  0  0  0
  188.9990  176.6880  144.5010 C   0  0  1  0  0  3  0  0  0  0  0  0
  185.6570  178.1310  144.2000 C   0  0  0  0  0  2  0  0  0  0  0  0
  185.4220  177.8020  141.6290 C   0  0  0  0  0  2  0  0  0  0  0  0
  191.7880  176.3160  144.8000 C   0  0  2  0  0  3  0  0  0  0  0  0
  189.0280  174.7190  142.9270 N   0  0  2  0  0  0  0  0  0  0  0  0
  188.7290  175.4960  146.5260 C   0  0  0  0  0  0  0  0  0  0  0  0
  183.6410  178.4630  143.0290 O   0  0  0  0  0  0  0  0  0  0  0  0
  190.9310  176.0870  145.8960 O   0  0  0  0  0  0  0  0  0  0  0  0
  187.8970  173.8870  142.4770 C   0  0  0  0  0  2  0  0  0  0  0  0
  190.5580  173.2070  141.6490 C   0  0  0  0  0  2  0  0  0  0  0  0
  189.3720  172.3460  141.2500 C   0  0  0  0  0  2  0  0  0  0  0  0
  192.1530  174.7890  143.8710 S   0  0  0  0  0  0  0  0  0  0  0  0
  187.7090  177.1420  145.1990 C   0  0  1  0  0  3  0  0  0  0  0  0
  189.6850  175.6420  145.4110 C   0  0  2  0  0  3  0  0  0  0  0  0
  186.5520  176.8890  144.2490 C   0  0  2  0  0  3  0  0  0  0  0  0
  186.5800  176.5090  147.4140 C   0  0  0  0  0  1  0  0  0  0  0  0
  188.6290  176.1420  143.1130 C   0  0  1  0  0  3  0  0  0  0  0  0
  1 21  1  1  0  0  0
  1  6  1  0  0  0  0
  1 16  1  0  0  0  0
  4 20  1  0  0  0  0
  5 17  1  0  0  0  0
  5 27  1  0  0  0  0
  6 23  1  0  0  0  0
  8  7  1  6  0  0  0
  8  2  1  0  0  0  0
  8 10  1  0  0  0  0
  9 18  2  0  0  0  0
  9 13  1  0  0  0  0
 10 28  1  0  0  0  0
 10 26  1  0  0  0  0
 12 24  1  0  0  0  0
 12 25  1  0  0  0  0
 13 26  1  0  0  0  0
 14  8  1  0  0  0  0
 14  9  1  0  0  0  0
 15 11  1  0  0  0  0
 15 19  1  0  0  0  0
 16 28  1  0  0  0  0
 17  3  2  0  0  0  0
 20 16  1  0  0  0  0
 22 21  1  0  0  0  0
 22  4  1  0  0  0  0
 23 15  1  0  0  0  0
 24  5  1  0  0  0  0
 25 19  1  0  0  0  0
 25 17  1  0  0  0  0
 26 24  1  0  0  0  0
 28 12  1  0  0  0  0
M  END
>  <MODEL>
1

>  <REMARK>
 VINA RESULT:      -8.5      0.000      0.000
  Name = 
  0 active torsions:
  status: ('A' for Active; 'I' for Inactive)
                            x       y       z     vdW  Elec       q    Type
                         _______ _______ _______ _____ _____    ______ ____

>  <TORSDO>
F 0

$$$$
=
 OpenBabel11112417433D

 28 32  0  0  1  0  0  0  0  0999 V2000
  190.8750  175.6750  144.0200 C   0  0  2  0  0  3  0  0  0  0  0  0
  187.1590  175.8480  146.8780 O   0  0  0  0  0  1  0  0  0  0  0  0
  187.0590  177.4050  140.1510 O   0  0  0  0  0  0  0  0  0  0  0  0
  191.6540  178.3830  143.3520 C   0  0  0  0  0  2  0  0  0  0  0  0
  186.1430  177.6020  142.3080 N   0  0  0  0  0  0  0  0  0  0  0  0
  190.4330  174.2710  143.5810 C   0  0  0  0  0  2  0  0  0  0  0  0
  189.2890  176.7890  147.3360 C   0  0  0  0  0  1  0  0  0  0  0  0
  187.9000  177.0280  146.7710 C   0  0  1  0  0  0  0  0  0  0  0  0
  185.9830  178.6490  146.9580 C   0  0  0  0  0  0  0  0  0  0  0  0
  188.0050  177.4690  145.2950 C   0  0  2  0  0  3  0  0  0  0  0  0
  188.1560  172.4330  141.3110 C   0  0  0  0  0  1  0  0  0  0  0  0
  187.4750  175.9650  143.4150 C   0  0  1  0  0  3  0  0  0  0  0  0
  185.5170  178.0890  145.6490 C   0  0  0  0  0  2  0  0  0  0  0  0
  187.2360  178.1270  147.6030 C   0  0  0  0  0  2  0  0  0  0  0  0
  188.4760  173.7860  141.9100 C   0  0  2  0  0  3  0  0  0  0  0  0
  189.8660  176.7110  143.6960 N   0  0  2  0  0  0  0  0  0  0  0  0
  187.0260  177.0420  141.3580 C   0  0  0  0  0  0  0  0  0  0  0  0
  185.3270  179.5110  147.5160 O   0  0  0  0  0  0  0  0  0  0  0  0
  187.6980  174.7760  141.2750 O   0  0  0  0  0  0  0  0  0  0  0  0
  190.3720  178.0380  144.0930 C   0  0  0  0  0  2  0  0  0  0  0  0
  192.2360  175.9790  143.3780 C   0  0  0  0  0  2  0  0  0  0  0  0
  192.7160  177.3730  143.7420 C   0  0  0  0  0  2  0  0  0  0  0  0
  190.2650  174.1080  141.7670 S   0  0  0  0  0  0  0  0  0  0  0  0
  186.3010  176.9390  143.5880 C   0  0  1  0  0  3  0  0  0  0  0  0
  187.9080  176.0060  141.9300 C   0  0  2  0  0  3  0  0  0  0  0  0
  186.6810  177.9390  144.6650 C   0  0  2  0  0  3  0  0  0  0  0  0
  185.0500  178.5040  141.9850 C   0  0  0  0  0  1  0  0  0  0  0  0
  188.5900  176.3750  144.3880 C   0  0  1  0  0  3  0  0  0  0  0  0
  1 21  1  6  0  0  0
  3 17  2  0  0  0  0
  4 22  1  0  0  0  0
  4 20  1  0  0  0  0
  5 24  1  0  0  0  0
  6  1  1  0  0  0  0
  8  2  1  0  0  0  0
  8  7  1  1  0  0  0
  8 14  1  0  0  0  0
  9 18  2  0  0  0  0
  9 14  1  0  0  0  0
 10  8  1  0  0  0  0
 11 15  1  0  0  0  0
 12 24  1  0  0  0  0
 12 28  1  0  0  0  0
 13  9  1  0  0  0  0
 16  1  1  0  0  0  0
 16 20  1  0  0  0  0
 16 28  1  0  0  0  0
 17 25  1  0  0  0  0
 17  5  1  0  0  0  0
 19 15  1  0  0  0  0
 19 25  1  0  0  0  0
 21 22  1  0  0  0  0
 23 15  1  0  0  0  0
 23  6  1  0  0  0  0
 24 26  1  0  0  0  0
 25 12  1  0  0  0  0
 26 10  1  0  0  0  0
 26 13  1  0  0  0  0
 27  5  1  0  0  0  0
 28 10  1  0  0  0  0
M  END
>  <MODEL>
2

>  <REMARK>
 VINA RESULT:      -7.6      2.094      4.830
  Name = 
  0 active torsions:
  status: ('A' for Active; 'I' for Inactive)
                            x       y       z     vdW  Elec       q    Type
                         _______ _______ _______ _____ _____    ______ ____

>  <TORSDO>
F 0

$$$$
=
 OpenBabel11112417433D

 28 32  0  0  1  0  0  0  0  0999 V2000
  191.0880  173.7200  141.5060 C   0  0  2  0  0  3  0  0  0  0  0  0
  188.9430  177.8640  141.9840 O   0  0  0  0  0  1  0  0  0  0  0  0
  192.7590  174.7940  146.8520 O   0  0  0  0  0  0  0  0  0  0  0  0
  189.7020  171.7680  143.1350 C   0  0  0  0  0  2  0  0  0  0  0  0
  191.0700  176.3070  146.2320 N   0  0  0  0  0  0  0  0  0  0  0  0
  192.3780  174.4650  141.1320 C   0  0  0  0  0  2  0  0  0  0  0  0
  187.9360  175.8840  141.1490 C   0  0  0  0  0  1  0  0  0  0  0  0
  188.2000  176.7450  142.3710 C   0  0  1  0  0  0  0  0  0  0  0  0
  186.9760  177.8050  144.2990 C   0  0  0  0  0  0  0  0  0  0  0  0
  188.9670  175.9270  143.4320 C   0  0  2  0  0  3  0  0  0  0  0  0
  195.3200  176.2260  142.5320 C   0  0  0  0  0  1  0  0  0  0  0  0
  191.3740  176.2380  143.8700 C   0  0  1  0  0  3  0  0  0  0  0  0
  188.3170  177.9160  144.9560 C   0  0  0  0  0  2  0  0  0  0  0  0
  186.8490  177.1980  142.9300 C   0  0  0  0  0  2  0  0  0  0  0  0
  193.9500  175.6640  142.8490 C   0  0  2  0  0  3  0  0  0  0  0  0
  190.6240  174.0460  142.8750 N   0  0  2  0  0  0  0  0  0  0  0  0
  192.1330  175.4190  145.9550 C   0  0  0  0  0  0  0  0  0  0  0  0
  185.9860  178.2370  144.8650 O   0  0  0  0  0  0  0  0  0  0  0  0
  193.7420  175.6950  144.2430 O   0  0  0  0  0  0  0  0  0  0  0  0
  189.4180  173.2600  143.1910 C   0  0  0  0  0  2  0  0  0  0  0  0
  191.3280  172.2140  141.3250 C   0  0  0  0  0  2  0  0  0  0  0  0
  190.0980  171.4120  141.7160 C   0  0  0  0  0  2  0  0  0  0  0  0
  193.8100  173.9800  142.1620 S   0  0  0  0  0  0  0  0  0  0  0  0
  190.5940  176.9160  145.0050 C   0  0  1  0  0  3  0  0  0  0  0  0
  192.4180  175.2940  144.5120 C   0  0  2  0  0  3  0  0  0  0  0  0
  189.1190  176.6200  144.7980 C   0  0  2  0  0  3  0  0  0  0  0  0
  190.6990  176.7570  147.5630 C   0  0  0  0  0  1  0  0  0  0  0  0
  190.3700  175.5120  142.9620 C   0  0  1  0  0  3  0  0  0  0  0  0
  1  6  1  1  0  0  0
  1 16  1  0  0  0  0
  2  8  1  0  0  0  0
  4 20  1  0  0  0  0
  5 27  1  0  0  0  0
  6 23  1  0  0  0  0
  8  7  1  6  0  0  0
  8 14  1  0  0  0  0
  8 10  1  0  0  0  0
  9 18  2  0  0  0  0
  9 13  1  0  0  0  0
 10 26  1  0  0  0  0
 11 15  1  0  0  0  0
 12 25  1  0  0  0  0
 12 24  1  0  0  0  0
 14  9  1  0  0  0  0
 15 19  1  0  0  0  0
 16 28  1  0  0  0  0
 16 20  1  0  0  0  0
 17  5  1  0  0  0  0
 17  3  2  0  0  0  0
 19 25  1  0  0  0  0
 21  1  1  0  0  0  0
 21 22  1  0  0  0  0
 22  4  1  0  0  0  0
 23 15  1  0  0  0  0
 24  5  1  0  0  0  0
 25 17  1  0  0  0  0
 26 13  1  0  0  0  0
 26 24  1  0  0  0  0
 28 10  1  0  0  0  0
 28 12  1  0  0  0  0
M  END
>  <MODEL>
3

>  <REMARK>
 VINA RESULT:      -7.3      1.929      2.570
  Name = 
  0 active torsions:
  status: ('A' for Active; 'I' for Inactive)
                            x       y       z     vdW  Elec       q    Type
                         _______ _______ _______ _____ _____    ______ ____

>  <TORSDO>
F 0

$$$$
=
 OpenBabel11112417433D

 28 32  0  0  1  0  0  0  0  0999 V2000
  188.5480  177.5330  144.5060 C   0  0  2  0  0  3  0  0  0  0  0  0
  192.7540  176.7880  142.5680 O   0  0  0  0  0  1  0  0  0  0  0  0
  187.3290  172.5520  142.0130 O   0  0  0  0  0  0  0  0  0  0  0  0
  188.1910  175.6660  146.6900 C   0  0  0  0  0  2  0  0  0  0  0  0
  189.6510  172.9150  141.9590 N   0  0  0  0  0  0  0  0  0  0  0  0
  188.0720  178.1270  143.1710 C   0  0  0  0  0  2  0  0  0  0  0  0
  192.3730  177.4110  144.8250 C   0  0  0  0  0  1  0  0  0  0  0  0
  192.5730  176.2640  143.8510 C   0  0  1  0  0  0  0  0  0  0  0  0
  193.9590  174.1830  143.5640 C   0  0  0  0  0  0  0  0  0  0  0  0
  191.3460  175.3280  143.8860 C   0  0  2  0  0  3  0  0  0  0  0  0
  186.7660  177.2560  139.8170 C   0  0  0  0  0  1  0  0  0  0  0  0
  189.6470  175.2940  142.1000 C   0  0  1  0  0  3  0  0  0  0  0  0
  192.9250  173.7540  142.5700 C   0  0  0  0  0  2  0  0  0  0  0  0
  193.8310  175.5010  144.2740 C   0  0  0  0  0  2  0  0  0  0  0  0
  187.4250  176.7100  141.0650 C   0  0  2  0  0  3  0  0  0  0  0  0
  188.9520  176.1140  144.3810 N   0  0  2  0  0  0  0  0  0  0  0  0
  188.3070  173.3460  142.0210 C   0  0  0  0  0  0  0  0  0  0  0  0
  194.9260  173.4710  143.7780 O   0  0  0  0  0  0  0  0  0  0  0  0
  187.4440  175.3020  141.0080 O   0  0  0  0  0  0  0  0  0  0  0  0
  189.3450  175.5910  145.7020 C   0  0  0  0  0  2  0  0  0  0  0  0
  187.4340  177.7240  145.5460 C   0  0  0  0  0  2  0  0  0  0  0  0
  187.8260  177.1240  146.8850 C   0  0  0  0  0  2  0  0  0  0  0  0
  186.5490  177.3350  142.5380 S   0  0  0  0  0  0  0  0  0  0  0  0
  190.5410  174.0590  141.9260 C   0  0  1  0  0  3  0  0  0  0  0  0
  188.1760  174.8140  142.1090 C   0  0  2  0  0  3  0  0  0  0  0  0
  191.5100  174.0180  143.0940 C   0  0  2  0  0  3  0  0  0  0  0  0
  190.0660  171.5500  141.6860 C   0  0  0  0  0  1  0  0  0  0  0  0
  190.0620  176.0130  143.3920 C   0  0  1  0  0  3  0  0  0  0  0  0
  1  6  1  6  0  0  0
  1 21  1  0  0  0  0
  2  8  1  0  0  0  0
  3 17  2  0  0  0  0
  4 22  1  0  0  0  0
  5 17  1  0  0  0  0
  8 10  1  0  0  0  0
  8 14  1  0  0  0  0
  8  7  1  1  0  0  0
  9 18  2  0  0  0  0
  9 14  1  0  0  0  0
 11 15  1  0  0  0  0
 12 25  1  0  0  0  0
 12 28  1  0  0  0  0
 13 26  1  0  0  0  0
 13  9  1  0  0  0  0
 15 23  1  0  0  0  0
 16  1  1  0  0  0  0
 16 20  1  0  0  0  0
 17 25  1  0  0  0  0
 19 15  1  0  0  0  0
 19 25  1  0  0  0  0
 20  4  1  0  0  0  0
 21 22  1  0  0  0  0
 23  6  1  0  0  0  0
 24  5  1  0  0  0  0
 24 12  1  0  0  0  0
 24 26  1  0  0  0  0
 26 10  1  0  0  0  0
 27  5  1  0  0  0  0
 28 10  1  0  0  0  0
 28 16  1  0  0  0  0
M  END
>  <MODEL>
4

>  <REMARK>
 VINA RESULT:      -7.2      2.586      6.446
  Name = 
  0 active torsions:
  status: ('A' for Active; 'I' for Inactive)
                            x       y       z     vdW  Elec       q    Type
                         _______ _______ _______ _____ _____    ______ ____

>  <TORSDO>
F 0

$$$$
=
 OpenBabel11112417433D

 28 32  0  0  1  0  0  0  0  0999 V2000
  186.2870  176.4550  142.8080 C   0  0  2  0  0  3  0  0  0  0  0  0
  188.8450  172.5780  143.4610 O   0  0  0  0  0  1  0  0  0  0  0  0
  191.2560  179.0350  143.8880 O   0  0  0  0  0  0  0  0  0  0  0  0
  187.0680  177.6660  140.2960 C   0  0  0  0  0  2  0  0  0  0  0  0
  191.6170  176.7380  143.5390 N   0  0  0  0  0  0  0  0  0  0  0  0
  186.0980  176.5500  144.3290 C   0  0  0  0  0  2  0  0  0  0  0  0
  187.3770  172.9630  141.6370 C   0  0  0  0  0  1  0  0  0  0  0  0
  188.8020  173.0660  142.1520 C   0  0  1  0  0  0  0  0  0  0  0  0
  191.1530  172.4580  141.4880 C   0  0  0  0  0  0  0  0  0  0  0  0
  189.2700  174.5360  142.1060 C   0  0  2  0  0  3  0  0  0  0  0  0
  187.6930  177.7040  147.4660 C   0  0  0  0  0  1  0  0  0  0  0  0
  189.4500  175.9400  144.1250 C   0  0  1  0  0  3  0  0  0  0  0  0
  191.5910  173.4620  142.5080 C   0  0  0  0  0  2  0  0  0  0  0  0
  189.6910  172.2010  141.2540 C   0  0  0  0  0  2  0  0  0  0  0  0
  187.9220  177.4120  145.9990 C   0  0  2  0  0  3  0  0  0  0  0  0
  187.7100  176.5530  142.4080 N   0  0  2  0  0  0  0  0  0  0  0  0
  190.8270  177.8500  143.9050 C   0  0  0  0  0  0  0  0  0  0  0  0
  191.9870  171.8240  140.8640 O   0  0  0  0  0  0  0  0  0  0  0  0
  189.2010  177.8720  145.6230 O   0  0  0  0  0  0  0  0  0  0  0  0
  187.8160  176.5090  140.9380 C   0  0  0  0  0  2  0  0  0  0  0  0
  185.4270  177.5410  142.1430 C   0  0  0  0  0  2  0  0  0  0  0  0
  185.5960  177.5270  140.6340 C   0  0  0  0  0  2  0  0  0  0  0  0
  186.5910  178.1740  145.0110 S   0  0  0  0  0  0  0  0  0  0  0  0
  190.8660  175.5110  143.7190 C   0  0  1  0  0  3  0  0  0  0  0  0
  189.4520  177.4780  144.2940 C   0  0  2  0  0  3  0  0  0  0  0  0
  190.7640  174.7480  142.4100 C   0  0  2  0  0  3  0  0  0  0  0  0
  193.0480  176.7910  143.2900 C   0  0  0  0  0  1  0  0  0  0  0  0
  188.4690  175.4440  143.0520 C   0  0  1  0  0  3  0  0  0  0  0  0
  1 21  1  6  0  0  0
  1  6  1  0  0  0  0
  3 17  2  0  0  0  0
  4 22  1  0  0  0  0
  4 20  1  0  0  0  0
  5 24  1  0  0  0  0
  5 17  1  0  0  0  0
  6 23  1  0  0  0  0
  8  7  1  6  0  0  0
  8  2  1  0  0  0  0
  9 13  1  0  0  0  0
 10  8  1  0  0  0  0
 10 26  1  0  0  0  0
 10 28  1  0  0  0  0
 12 25  1  0  0  0  0
 14  9  1  0  0  0  0
 14  8  1  0  0  0  0
 15 11  1  0  0  0  0
 16  1  1  0  0  0  0
 16 28  1  0  0  0  0
 17 25  1  0  0  0  0
 18  9  2  0  0  0  0
 19 15  1  0  0  0  0
 20 16  1  0  0  0  0
 22 21  1  0  0  0  0
 23 15  1  0  0  0  0
 24 12  1  0  0  0  0
 25 19  1  0  0  0  0
 26 13  1  0  0  0  0
 26 24  1  0  0  0  0
 27  5  1  0  0  0  0
 28 12  1  0  0  0  0
M  END
>  <MODEL>
5

>  <REMARK>
 VINA RESULT:      -6.9      2.473      5.553
  Name = 
  0 active torsions:
  status: ('A' for Active; 'I' for Inactive)
                            x       y       z     vdW  Elec       q    Type
                         _______ _______ _______ _____ _____    ______ ____

>  <TORSDO>
F 0

$$$$
=
 OpenBabel11112417433D

 28 32  0  0  1  0  0  0  0  0999 V2000
  190.9200  177.1560  145.6310 C   0  0  2  0  0  3  0  0  0  0  0  0
  194.5550  176.1000  142.8590 O   0  0  0  0  0  1  0  0  0  0  0  0
  189.3290  171.8360  144.3380 O   0  0  0  0  0  0  0  0  0  0  0  0
  191.1800  175.6710  148.1030 C   0  0  0  0  0  2  0  0  0  0  0  0
  191.5520  172.1830  143.6570 N   0  0  0  0  0  0  0  0  0  0  0  0
  190.1120  177.5240  144.3780 C   0  0  0  0  0  2  0  0  0  0  0  0
  194.7110  177.0840  145.0130 C   0  0  0  0  0  1  0  0  0  0  0  0
  194.7130  175.7930  144.2140 C   0  0  1  0  0  0  0  0  0  0  0  0
  196.0680  173.6910  143.9280 C   0  0  0  0  0  0  0  0  0  0  0  0
  193.5690  174.8770  144.6980 C   0  0  2  0  0  3  0  0  0  0  0  0
  188.0630  176.1180  141.6310 C   0  0  0  0  0  1  0  0  0  0  0  0
  191.4880  174.5530  143.4150 C   0  0  1  0  0  3  0  0  0  0  0  0
  194.8400  173.1070  143.3000 C   0  0  0  0  0  2  0  0  0  0  0  0
  196.0640  175.1080  144.4290 C   0  0  0  0  0  2  0  0  0  0  0  0
  189.0280  175.7830  142.7490 C   0  0  2  0  0  3  0  0  0  0  0  0
  191.3380  175.7350  145.6370 N   0  0  2  0  0  0  0  0  0  0  0  0
  190.2480  172.6190  143.9780 C   0  0  0  0  0  0  0  0  0  0  0  0
  197.0850  173.0230  144.0070 O   0  0  0  0  0  0  0  0  0  0  0  0
  189.0880  174.3840  142.9120 O   0  0  0  0  0  0  0  0  0  0  0  0
  192.0600  175.4350  146.8860 C   0  0  0  0  0  2  0  0  0  0  0  0
  190.0870  177.5160  146.8700 C   0  0  0  0  0  2  0  0  0  0  0  0
  190.8160  177.1420  148.1490 C   0  0  0  0  0  2  0  0  0  0  0  0
  188.5130  176.6410  144.2740 S   0  0  0  0  0  0  0  0  0  0  0  0
  192.3620  173.3050  143.2240 C   0  0  1  0  0  3  0  0  0  0  0  0
  190.0840  174.0820  143.8620 C   0  0  2  0  0  3  0  0  0  0  0  0
  193.5860  173.4550  144.1090 C   0  0  2  0  0  3  0  0  0  0  0  0
  191.9410  170.7910  143.5090 C   0  0  0  0  0  1  0  0  0  0  0  0
  192.1770  175.4730  144.4340 C   0  0  1  0  0  3  0  0  0  0  0  0
  1  6  1  6  0  0  0
  1 16  1  0  0  0  0
  1 21  1  0  0  0  0
  2  8  1  0  0  0  0
  4 22  1  0  0  0  0
  5 17  1  0  0  0  0
  8 14  1  0  0  0  0
  8 10  1  0  0  0  0
  8  7  1  1  0  0  0
  9 18  2  0  0  0  0
  9 14  1  0  0  0  0
 11 15  1  0  0  0  0
 12 25  1  0  0  0  0
 12 28  1  0  0  0  0
 13  9  1  0  0  0  0
 13 26  1  0  0  0  0
 15 19  1  0  0  0  0
 15 23  1  0  0  0  0
 16 20  1  0  0  0  0
 17  3  2  0  0  0  0
 19 25  1  0  0  0  0
 20  4  1  0  0  0  0
 21 22  1  0  0  0  0
 23  6  1  0  0  0  0
 24 12  1  0  0  0  0
 24  5  1  0  0  0  0
 24 26  1  0  0  0  0
 25 17  1  0  0  0  0
 26 10  1  0  0  0  0
 27  5  1  0  0  0  0
 28 10  1  0  0  0  0
 28 16  1  0  0  0  0
M  END
>  <MODEL>
6

>  <REMARK>
 VINA RESULT:      -6.8      3.241      7.240
  Name = 
  0 active torsions:
  status: ('A' for Active; 'I' for Inactive)
                            x       y       z     vdW  Elec       q    Type
                         _______ _______ _______ _____ _____    ______ ____

>  <TORSDO>
F 0

$$$$
=
 OpenBabel11112417433D

 28 32  0  0  1  0  0  0  0  0999 V2000
  193.7010  174.3790  145.6070 C   0  0  2  0  0  3  0  0  0  0  0  0
  189.2750  174.7340  147.1200 O   0  0  0  0  0  1  0  0  0  0  0  0
  191.1510  173.8210  140.5380 O   0  0  0  0  0  0  0  0  0  0  0  0
  194.3780  176.7910  144.1540 C   0  0  0  0  0  2  0  0  0  0  0  0
  189.5860  174.5480  142.1340 N   0  0  0  0  0  0  0  0  0  0  0  0
  193.5630  172.8500  145.6570 C   0  0  0  0  0  2  0  0  0  0  0  0
  191.0460  176.2030  147.6990 C   0  0  0  0  0  1  0  0  0  0  0  0
  189.8910  175.9330  146.7520 C   0  0  1  0  0  0  0  0  0  0  0  0
  187.8610  177.0730  145.7930 C   0  0  0  0  0  0  0  0  0  0  0  0
  190.4120  175.8510  145.3010 C   0  0  2  0  0  3  0  0  0  0  0  0
  192.3150  169.9050  143.7900 C   0  0  0  0  0  1  0  0  0  0  0  0
  190.6560  173.7150  144.0930 C   0  0  1  0  0  3  0  0  0  0  0  0
  187.8900  176.0120  144.7370 C   0  0  0  0  0  2  0  0  0  0  0  0
  188.8910  177.0840  146.8880 C   0  0  0  0  0  2  0  0  0  0  0  0
  192.2920  171.4160  143.8720 C   0  0  2  0  0  3  0  0  0  0  0  0
  192.7480  175.0010  144.6580 N   0  0  2  0  0  0  0  0  0  0  0  0
  190.7750  173.8970  141.7380 C   0  0  0  0  0  0  0  0  0  0  0  0
  186.9790  177.9160  145.7820 O   0  0  0  0  0  0  0  0  0  0  0  0
  191.6610  171.9380  142.7240 O   0  0  0  0  0  0  0  0  0  0  0  0
  192.9690  176.4590  144.6170 C   0  0  0  0  0  2  0  0  0  0  0  0
  195.1590  174.7240  145.2670 C   0  0  0  0  0  2  0  0  0  0  0  0
  195.3570  176.2270  145.1650 C   0  0  0  0  0  2  0  0  0  0  0  0
  193.9940  172.0410  144.0740 S   0  0  0  0  0  0  0  0  0  0  0  0
  189.3970  174.4170  143.5650 C   0  0  1  0  0  3  0  0  0  0  0  0
  191.5290  173.3330  142.8740 C   0  0  2  0  0  3  0  0  0  0  0  0
  189.3150  175.7830  144.2230 C   0  0  2  0  0  3  0  0  0  0  0  0
  188.5660  175.0310  141.2170 C   0  0  0  0  0  1  0  0  0  0  0  0
  191.3590  174.6620  145.0770 C   0  0  1  0  0  3  0  0  0  0  0  0
  1 21  1  6  0  0  0
  1  6  1  0  0  0  0
  3 17  2  0  0  0  0
  4 20  1  0  0  0  0
  4 22  1  0  0  0  0
  5 24  1  0  0  0  0
  8 14  1  0  0  0  0
  8  2  1  0  0  0  0
  8  7  1  1  0  0  0
  9 14  1  0  0  0  0
 10  8  1  0  0  0  0
 11 15  1  0  0  0  0
 12 28  1  0  0  0  0
 13  9  1  0  0  0  0
 15 23  1  0  0  0  0
 16 28  1  0  0  0  0
 16  1  1  0  0  0  0
 17  5  1  0  0  0  0
 17 25  1  0  0  0  0
 18  9  2  0  0  0  0
 19 25  1  0  0  0  0
 19 15  1  0  0  0  0
 20 16  1  0  0  0  0
 22 21  1  0  0  0  0
 23  6  1  0  0  0  0
 24 12  1  0  0  0  0
 24 26  1  0  0  0  0
 25 12  1  0  0  0  0
 26 13  1  0  0  0  0
 26 10  1  0  0  0  0
 27  5  1  0  0  0  0
 28 10  1  0  0  0  0
M  END
>  <MODEL>
7

>  <REMARK>
 VINA RESULT:      -6.8      2.744      5.506
  Name = 
  0 active torsions:
  status: ('A' for Active; 'I' for Inactive)
                            x       y       z     vdW  Elec       q    Type
                         _______ _______ _______ _____ _____    ______ ____

>  <TORSDO>
F 0

$$$$
=
 OpenBabel11112417433D

 28 32  0  0  1  0  0  0  0  0999 V2000
  188.3250  176.1640  144.3550 C   0  0  2  0  0  3  0  0  0  0  0  0
  189.4680  171.8070  143.0450 O   0  0  0  0  0  1  0  0  0  0  0  0
  193.9800  176.8890  144.2720 O   0  0  0  0  0  0  0  0  0  0  0  0
  188.8210  177.9570  142.1370 C   0  0  0  0  0  2  0  0  0  0  0  0
  193.4280  174.8530  143.2340 N   0  0  0  0  0  0  0  0  0  0  0  0
  188.5670  175.7550  145.8160 C   0  0  0  0  0  2  0  0  0  0  0  0
  187.8160  173.1630  142.0130 C   0  0  0  0  0  1  0  0  0  0  0  0
  189.2690  172.7230  142.0080 C   0  0  1  0  0  0  0  0  0  0  0  0
  191.0220  171.8340  140.4340 C   0  0  0  0  0  0  0  0  0  0  0  0
  190.1890  173.9500  142.1860 C   0  0  2  0  0  3  0  0  0  0  0  0
  191.1910  175.2910  148.3880 C   0  0  0  0  0  1  0  0  0  0  0  0
  191.3390  174.4550  144.3080 C   0  0  1  0  0  3  0  0  0  0  0  0
  192.0200  172.2700  141.4620 C   0  0  0  0  0  2  0  0  0  0  0  0
  189.5520  172.0440  140.6650 C   0  0  0  0  0  2  0  0  0  0  0  0
  190.9320  175.4930  146.9100 C   0  0  2  0  0  3  0  0  0  0  0  0
  189.5460  176.0450  143.5260 N   0  0  2  0  0  0  0  0  0  0  0  0
  193.1880  175.9190  144.1280 C   0  0  0  0  0  0  0  0  0  0  0  0
  191.4020  171.2790  139.4170 O   0  0  0  0  0  0  0  0  0  0  0  0
  192.1540  175.7270  146.2470 O   0  0  0  0  0  0  0  0  0  0  0  0
  189.2600  176.5020  142.1530 C   0  0  0  0  0  2  0  0  0  0  0  0
  187.7550  177.5900  144.3390 C   0  0  0  0  0  2  0  0  0  0  0  0
  187.5260  178.0720  142.9160 C   0  0  0  0  0  2  0  0  0  0  0  0
  189.7430  176.8570  146.6820 S   0  0  0  0  0  0  0  0  0  0  0  0
  192.3720  173.8650  143.3380 C   0  0  1  0  0  3  0  0  0  0  0  0
  191.9130  175.7820  144.8600 C   0  0  2  0  0  3  0  0  0  0  0  0
  191.6900  173.6670  141.9960 C   0  0  2  0  0  3  0  0  0  0  0  0
  194.6800  174.6370  142.5260 C   0  0  0  0  0  1  0  0  0  0  0  0
  190.0130  174.6300  143.5530 C   0  0  1  0  0  3  0  0  0  0  0  0
  1 21  1  1  0  0  0
  1  6  1  0  0  0  0
  4 20  1  0  0  0  0
  4 22  1  0  0  0  0
  5 24  1  0  0  0  0
  5 17  1  0  0  0  0
  6 23  1  0  0  0  0
  8  7  1  1  0  0  0
  8 10  1  0  0  0  0
  8  2  1  0  0  0  0
  9 14  1  0  0  0  0
  9 13  1  0  0  0  0
 10 28  1  0  0  0  0
 12 25  1  0  0  0  0
 13 26  1  0  0  0  0
 14  8  1  0  0  0  0
 15 11  1  0  0  0  0
 16 28  1  0  0  0  0
 16  1  1  0  0  0  0
 17  3  2  0  0  0  0
 17 25  1  0  0  0  0
 18  9  2  0  0  0  0
 19 15  1  0  0  0  0
 20 16  1  0  0  0  0
 22 21  1  0  0  0  0
 23 15  1  0  0  0  0
 24 12  1  0  0  0  0
 25 19  1  0  0  0  0
 26 10  1  0  0  0  0
 26 24  1  0  0  0  0
 27  5  1  0  0  0  0
 28 12  1  0  0  0  0
M  END
>  <MODEL>
8

>  <REMARK>
 VINA RESULT:      -6.7      2.842      5.814
  Name = 
  0 active torsions:
  status: ('A' for Active; 'I' for Inactive)
                            x       y       z     vdW  Elec       q    Type
                         _______ _______ _______ _____ _____    ______ ____

>  <TORSDO>
F 0

$$$$
=
 OpenBabel11112417433D

 28 32  0  0  1  0  0  0  0  0999 V2000
  190.4770  177.0840  145.2350 C   0  0  2  0  0  3  0  0  0  0  0  0
  194.0030  176.3820  142.2210 O   0  0  0  0  0  1  0  0  0  0  0  0
  188.1890  172.6640  142.4530 O   0  0  0  0  0  0  0  0  0  0  0  0
  190.4560  174.9160  147.1540 C   0  0  0  0  0  2  0  0  0  0  0  0
  190.4570  172.8760  141.8710 N   0  0  0  0  0  0  0  0  0  0  0  0
  189.7630  177.9160  144.1590 C   0  0  0  0  0  2  0  0  0  0  0  0
  194.2350  176.6570  144.5670 C   0  0  0  0  0  1  0  0  0  0  0  0
  194.0780  175.6720  143.4230 C   0  0  1  0  0  0  0  0  0  0  0  0
  195.1310  173.5760  142.5080 C   0  0  0  0  0  0  0  0  0  0  0  0
  192.8030  174.8260  143.6320 C   0  0  2  0  0  3  0  0  0  0  0  0
  187.6150  177.6890  141.1500 C   0  0  0  0  0  1  0  0  0  0  0  0
  190.7340  175.1950  142.3410 C   0  0  1  0  0  3  0  0  0  0  0  0
  193.8510  173.3840  141.7550 C   0  0  0  0  0  2  0  0  0  0  0  0
  195.3130  174.7670  143.4060 C   0  0  0  0  0  2  0  0  0  0  0  0
  188.4910  176.9050  142.1050 C   0  0  2  0  0  3  0  0  0  0  0  0
  190.6900  175.6800  144.8150 N   0  0  2  0  0  0  0  0  0  0  0  0
  189.2180  173.3790  142.3270 C   0  0  0  0  0  0  0  0  0  0  0  0
  196.0410  172.7760  142.3710 O   0  0  0  0  0  0  0  0  0  0  0  0
  188.3490  175.5260  141.8470 O   0  0  0  0  0  0  0  0  0  0  0  0
  191.3280  174.9250  145.9090 C   0  0  0  0  0  2  0  0  0  0  0  0
  189.6680  177.1780  146.5370 C   0  0  0  0  0  2  0  0  0  0  0  0
  190.3020  176.3440  147.6380 C   0  0  0  0  0  2  0  0  0  0  0  0
  188.0600  177.3400  143.8230 S   0  0  0  0  0  0  0  0  0  0  0  0
  191.4280  173.9480  141.7770 C   0  0  1  0  0  3  0  0  0  0  0  0
  189.2650  174.8190  142.6510 C   0  0  2  0  0  3  0  0  0  0  0  0
  192.6360  173.6530  142.6480 C   0  0  2  0  0  3  0  0  0  0  0  0
  190.6500  171.5470  141.3140 C   0  0  0  0  0  1  0  0  0  0  0  0
  191.5170  175.6660  143.5760 C   0  0  1  0  0  3  0  0  0  0  0  0
  1  6  1  6  0  0  0
  1 21  1  0  0  0  0
  2  8  1  0  0  0  0
  4 22  1  0  0  0  0
  5 17  1  0  0  0  0
  8 10  1  0  0  0  0
  8  7  1  1  0  0  0
  9 14  1  0  0  0  0
 11 15  1  0  0  0  0
 12 25  1  0  0  0  0
 12 28  1  0  0  0  0
 13  9  1  0  0  0  0
 13 26  1  0  0  0  0
 14  8  1  0  0  0  0
 15 23  1  0  0  0  0
 16  1  1  0  0  0  0
 16 20  1  0  0  0  0
 17  3  2  0  0  0  0
 17 25  1  0  0  0  0
 18  9  2  0  0  0  0
 19 15  1  0  0  0  0
 19 25  1  0  0  0  0
 20  4  1  0  0  0  0
 21 22  1  0  0  0  0
 23  6  1  0  0  0  0
 24  5  1  0  0  0  0
 24 12  1  0  0  0  0
 24 26  1  0  0  0  0
 26 10  1  0  0  0  0
 27  5  1  0  0  0  0
 28 10  1  0  0  0  0
 28 16  1  0  0  0  0
M  END
>  <MODEL>
9

>  <REMARK>
 VINA RESULT:      -6.7      2.927      6.847
  Name = 
  0 active torsions:
  status: ('A' for Active; 'I' for Inactive)
                            x       y       z     vdW  Elec       q    Type
                         _______ _______ _______ _____ _____    ______ ____

>  <TORSDO>
F 0

$$$$
