=
 OpenBabel11112416193D

 30 35  0  0  1  0  0  0  0  0999 V2000
  187.5430  176.5830  145.6430 C   0  0  0  0  0  0  0  0  0  0  0  0
  185.9630  177.9880  146.9050 C   0  0  0  0  0  0  0  0  0  0  0  0
  185.2460  177.5410  141.7510 S   0  0  0  0  0  0  0  0  0  0  0  0
  188.0350  176.0590  144.3370 C   0  0  0  0  0  0  0  0  0  0  0  0
  188.1780  176.0410  146.8970 C   0  0  0  0  0  2  0  0  0  0  0  0
  191.3450  174.4710  145.3770 C   0  0  0  0  0  1  0  0  0  0  0  0
  188.5540  173.9630  142.2650 N   0  0  1  0  0  0  0  0  0  0  0  0
  189.9870  175.0930  145.5020 C   0  0  0  0  0  0  0  0  0  0  0  0
  187.7990  174.8380  141.3520 C   0  0  2  0  0  3  0  0  0  0  0  0
  186.7820  177.0910  140.9620 C   0  0  0  0  0  0  0  0  0  0  0  0
  189.5650  175.4930  146.7100 C   0  0  0  0  0  0  0  0  0  0  0  0
  189.1530  175.2890  144.2850 C   0  0  0  0  0  0  0  0  0  0  0  0
  184.8200  178.7890  146.9060 C   0  0  0  0  0  3  0  0  0  0  0  0
  188.3760  174.6590  139.9670 C   0  0  0  0  0  2  0  0  0  0  0  0
  189.1590  172.9240  141.4310 C   0  0  0  0  0  2  0  0  0  0  0  0
  186.6350  177.8400  148.1530 N   0  0  0  0  0  1  0  0  0  0  0  0
  186.0880  177.1850  143.2970 C   0  0  0  0  0  0  0  0  0  0  0  0
  184.1220  179.0410  145.7340 C   0  0  0  0  0  3  0  0  0  0  0  0
  186.4420  177.4020  145.6880 C   0  0  0  0  0  0  0  0  0  0  0  0
  187.2750  176.4090  143.1670 N   0  0  0  0  0  0  0  0  0  0  0  0
  187.0670  177.4890  139.8440 O   0  0  0  0  0  0  0  0  0  0  0  0
  187.7470  176.3050  141.7910 C   0  0  1  0  0  3  0  0  0  0  0  0
  188.8700  173.2370  139.9750 C   0  0  0  0  0  2  0  0  0  0  0  0
  190.5760  175.5090  142.1900 C   0  0  0  0  0  1  0  0  0  0  0  0
  184.5670  178.4970  144.5400 C   0  0  0  0  0  3  0  0  0  0  0  0
  185.7130  177.6910  144.4860 C   0  0  0  0  0  0  0  0  0  0  0  0
  189.6370  174.6260  143.0170 C   0  0  2  0  0  3  0  0  0  0  0  0
  190.4080  175.3450  147.8180 O   0  0  0  0  0  0  0  0  0  0  0  0
  191.1910  177.4200  148.7260 C   0  0  0  0  0  1  0  0  0  0  0  0
  191.5690  176.1420  148.0070 C   0  0  0  0  0  2  0  0  0  0  0  0
  1 19  2  0  0  0  0
  1  5  1  0  0  0  0
  2 13  2  0  0  0  0
  2 16  1  0  0  0  0
  3 17  1  0  0  0  0
  4  1  1  0  0  0  0
  6  8  1  0  0  0  0
  7 15  1  6  0  0  0
  7 27  1  0  0  0  0
  8 11  2  0  0  0  0
  9 14  1  6  0  0  0
  9 22  1  0  0  0  0
  9  7  1  0  0  0  0
 10  3  1  0  0  0  0
 11  5  1  0  0  0  0
 11 28  1  0  0  0  0
 12  4  2  0  0  0  0
 12  8  1  0  0  0  0
 14 23  1  0  0  0  0
 17 26  2  0  0  0  0
 18 13  1  0  0  0  0
 19  2  1  0  0  0  0
 20 17  1  0  0  0  0
 20  4  1  0  0  0  0
 21 10  2  0  0  0  0
 22 10  1  6  0  0  0
 22 20  1  0  0  0  0
 23 15  1  0  0  0  0
 25 18  2  0  0  0  0
 26 25  1  0  0  0  0
 26 19  1  0  0  0  0
 27 24  1  6  0  0  0
 27 12  1  0  0  0  0
 28 30  1  0  0  0  0
 30 29  1  0  0  0  0
M  END
>  <MODEL>
1

>  <REMARK>
 VINA RESULT:      -8.6      0.000      0.000
  Name = 
  2 active torsions:
  status: ('A' for Active; 'I' for Inactive)
    1  A    between atoms: C_11  and  O_28
    2  A    between atoms: O_28  and  C_30
                            x       y       z     vdW  Elec       q    Type
                         _______ _______ _______ _____ _____    ______ ____

>  <TORSDO>
F 2

$$$$
=
 OpenBabel11112416193D

 30 35  0  0  1  0  0  0  0  0999 V2000
  187.2700  176.7860  142.3690 C   0  0  0  0  0  0  0  0  0  0  0  0
  185.4530  178.4160  142.6940 C   0  0  0  0  0  0  0  0  0  0  0  0
  188.2650  177.0310  146.8730 S   0  0  0  0  0  0  0  0  0  0  0  0
  188.3400  175.9220  142.9460 C   0  0  0  0  0  0  0  0  0  0  0  0
  187.1580  176.8490  140.8670 C   0  0  0  0  0  2  0  0  0  0  0  0
  189.2260  173.7380  139.9450 C   0  0  0  0  0  1  0  0  0  0  0  0
  191.1570  175.0470  143.4520 N   0  0  1  0  0  0  0  0  0  0  0  0
  188.6300  174.8670  140.7310 C   0  0  0  0  0  0  0  0  0  0  0  0
  190.8170  175.1610  144.8800 C   0  0  2  0  0  3  0  0  0  0  0  0
  189.0170  175.4360  146.5970 C   0  0  0  0  0  0  0  0  0  0  0  0
  187.7160  175.6540  140.1470 C   0  0  0  0  0  0  0  0  0  0  0  0
  189.0340  175.0680  142.1500 C   0  0  0  0  0  0  0  0  0  0  0  0
  184.7560  179.2650  143.5550 C   0  0  0  0  0  3  0  0  0  0  0  0
  191.6170  174.1180  145.6240 C   0  0  0  0  0  2  0  0  0  0  0  0
  192.4580  174.3820  143.3910 C   0  0  0  0  0  2  0  0  0  0  0  0
  184.9950  178.3610  141.3460 N   0  0  0  0  0  1  0  0  0  0  0  0
  187.8480  176.9910  145.1260 C   0  0  0  0  0  0  0  0  0  0  0  0
  185.0870  179.3530  144.8990 C   0  0  0  0  0  3  0  0  0  0  0  0
  186.5360  177.6130  143.1820 C   0  0  0  0  0  0  0  0  0  0  0  0
  188.5840  176.0450  144.3580 N   0  0  0  0  0  0  0  0  0  0  0  0
  189.1850  174.6430  147.5080 O   0  0  0  0  0  0  0  0  0  0  0  0
  189.3150  175.0830  145.1750 C   0  0  1  0  0  3  0  0  0  0  0  0
  192.8650  173.9770  144.7960 C   0  0  0  0  0  2  0  0  0  0  0  0
  189.8050  172.8990  143.2280 C   0  0  0  0  0  1  0  0  0  0  0  0
  186.1220  178.5790  145.4020 C   0  0  0  0  0  3  0  0  0  0  0  0
  186.8490  177.7070  144.5790 C   0  0  0  0  0  0  0  0  0  0  0  0
  190.2080  174.2550  142.6430 C   0  0  2  0  0  3  0  0  0  0  0  0
  187.3210  175.3900  138.8300 O   0  0  0  0  0  0  0  0  0  0  0  0
  186.9020  176.0990  136.5800 C   0  0  0  0  0  1  0  0  0  0  0  0
  186.5990  176.3300  138.0450 C   0  0  0  0  0  2  0  0  0  0  0  0
  1  4  1  0  0  0  0
  1 19  2  0  0  0  0
  2 19  1  0  0  0  0
  2 13  2  0  0  0  0
  4 20  1  0  0  0  0
  5  1  1  0  0  0  0
  6  8  1  0  0  0  0
  7 15  1  1  0  0  0
  7  9  1  0  0  0  0
  8 12  1  0  0  0  0
  9 22  1  0  0  0  0
  9 14  1  1  0  0  0
 10  3  1  0  0  0  0
 10 21  2  0  0  0  0
 11  8  2  0  0  0  0
 11  5  1  0  0  0  0
 12 27  1  0  0  0  0
 12  4  2  0  0  0  0
 13 18  1  0  0  0  0
 15 23  1  0  0  0  0
 16  2  1  0  0  0  0
 17  3  1  0  0  0  0
 18 25  2  0  0  0  0
 19 26  1  0  0  0  0
 20 17  1  0  0  0  0
 20 22  1  0  0  0  0
 22 10  1  1  0  0  0
 23 14  1  0  0  0  0
 26 17  2  0  0  0  0
 26 25  1  0  0  0  0
 27 24  1  1  0  0  0
 27  7  1  0  0  0  0
 28 11  1  0  0  0  0
 29 30  1  0  0  0  0
 30 28  1  0  0  0  0
M  END
>  <MODEL>
2

>  <REMARK>
 VINA RESULT:      -8.2      2.043      5.615
  Name = 
  2 active torsions:
  status: ('A' for Active; 'I' for Inactive)
    1  A    between atoms: C_11  and  O_28
    2  A    between atoms: O_28  and  C_30
                            x       y       z     vdW  Elec       q    Type
                         _______ _______ _______ _____ _____    ______ ____

>  <TORSDO>
F 2

$$$$
=
 OpenBabel11112416193D

 30 35  0  0  1  0  0  0  0  0999 V2000
  186.9090  177.6160  143.7290 C   0  0  0  0  0  0  0  0  0  0  0  0
  185.7570  178.9590  145.4420 C   0  0  0  0  0  0  0  0  0  0  0  0
  189.3030  175.4780  147.0510 S   0  0  0  0  0  0  0  0  0  0  0  0
  187.8540  176.5170  143.3800 C   0  0  0  0  0  0  0  0  0  0  0  0
  186.3480  178.4400  142.5990 C   0  0  0  0  0  2  0  0  0  0  0  0
  187.1700  176.1130  139.6470 C   0  0  0  0  0  1  0  0  0  0  0  0
  190.3720  175.3390  142.2710 N   0  0  1  0  0  0  0  0  0  0  0  0
  187.1560  176.7180  141.0180 C   0  0  0  0  0  0  0  0  0  0  0  0
  190.5410  174.7320  143.6020 C   0  0  2  0  0  3  0  0  0  0  0  0
  189.5050  174.2030  145.8180 C   0  0  0  0  0  0  0  0  0  0  0  0
  186.3320  177.7460  141.2660 C   0  0  0  0  0  0  0  0  0  0  0  0
  188.0240  176.1450  142.0840 C   0  0  0  0  0  0  0  0  0  0  0  0
  185.6030  179.2930  146.7880 C   0  0  0  0  0  3  0  0  0  0  0  0
  191.2470  173.4100  143.4140 C   0  0  0  0  0  2  0  0  0  0  0  0
  191.3780  174.7220  141.4070 C   0  0  0  0  0  2  0  0  0  0  0  0
  184.8980  179.6240  144.5200 N   0  0  0  0  0  1  0  0  0  0  0  0
  188.3600  176.3570  145.7990 C   0  0  0  0  0  0  0  0  0  0  0  0
  186.3530  178.6660  147.7710 C   0  0  0  0  0  3  0  0  0  0  0  0
  186.7010  177.9560  145.0420 C   0  0  0  0  0  0  0  0  0  0  0  0
  188.5540  175.8900  144.4690 N   0  0  0  0  0  0  0  0  0  0  0  0
  189.7480  173.0490  146.1270 O   0  0  0  0  0  0  0  0  0  0  0  0
  189.2400  174.6050  144.4020 C   0  0  1  0  0  3  0  0  0  0  0  0
  192.0920  173.6360  142.1900 C   0  0  0  0  0  2  0  0  0  0  0  0
  188.5270  173.6880  141.6730 C   0  0  0  0  0  1  0  0  0  0  0  0
  187.2650  177.6840  147.4170 C   0  0  0  0  0  3  0  0  0  0  0  0
  187.4520  177.3090  146.0790 C   0  0  0  0  0  0  0  0  0  0  0  0
  189.0510  175.1270  141.6480 C   0  0  2  0  0  3  0  0  0  0  0  0
  185.4880  178.2120  140.2510 O   0  0  0  0  0  0  0  0  0  0  0  0
  183.1810  177.5750  140.1380 C   0  0  0  0  0  1  0  0  0  0  0  0
  184.1660  178.6660  140.5030 C   0  0  0  0  0  2  0  0  0  0  0  0
  1 19  2  0  0  0  0
  2 13  2  0  0  0  0
  4  1  1  0  0  0  0
  4 20  1  0  0  0  0
  5  1  1  0  0  0  0
  6  8  1  0  0  0  0
  7 15  1  6  0  0  0
  7  9  1  0  0  0  0
  8 11  2  0  0  0  0
  8 12  1  0  0  0  0
  9 14  1  6  0  0  0
  9 22  1  0  0  0  0
 10 21  2  0  0  0  0
 10  3  1  0  0  0  0
 11  5  1  0  0  0  0
 12  4  2  0  0  0  0
 13 18  1  0  0  0  0
 15 23  1  0  0  0  0
 16  2  1  0  0  0  0
 17 26  2  0  0  0  0
 17  3  1  0  0  0  0
 19  2  1  0  0  0  0
 19 26  1  0  0  0  0
 20 17  1  0  0  0  0
 22 20  1  0  0  0  0
 22 10  1  1  0  0  0
 23 14  1  0  0  0  0
 25 18  2  0  0  0  0
 26 25  1  0  0  0  0
 27 24  1  1  0  0  0
 27 12  1  0  0  0  0
 27  7  1  0  0  0  0
 28 30  1  0  0  0  0
 28 11  1  0  0  0  0
 29 30  1  0  0  0  0
M  END
>  <MODEL>
3

>  <REMARK>
 VINA RESULT:      -8.1      2.261      5.246
  Name = 
  2 active torsions:
  status: ('A' for Active; 'I' for Inactive)
    1  A    between atoms: C_11  and  O_28
    2  A    between atoms: O_28  and  C_30
                            x       y       z     vdW  Elec       q    Type
                         _______ _______ _______ _____ _____    ______ ____

>  <TORSDO>
F 2

$$$$
=
 OpenBabel11112416193D

 30 35  0  0  1  0  0  0  0  0999 V2000
  188.2260  175.9520  142.6140 C   0  0  0  0  0  0  0  0  0  0  0  0
  186.3290  177.5210  142.6810 C   0  0  0  0  0  0  0  0  0  0  0  0
  189.4500  177.2880  146.8630 S   0  0  0  0  0  0  0  0  0  0  0  0
  189.3780  175.3000  143.2990 C   0  0  0  0  0  0  0  0  0  0  0  0
  188.0270  175.6580  141.1500 C   0  0  0  0  0  2  0  0  0  0  0  0
  190.2350  172.5230  140.8260 C   0  0  0  0  0  1  0  0  0  0  0  0
  192.2690  174.7060  143.7990 N   0  0  1  0  0  0  0  0  0  0  0  0
  189.6130  173.7730  141.3720 C   0  0  0  0  0  0  0  0  0  0  0  0
  192.0020  175.1320  145.1820 C   0  0  2  0  0  3  0  0  0  0  0  0
  190.2850  175.7120  146.9090 C   0  0  0  0  0  0  0  0  0  0  0  0
  188.6200  174.3570  140.6860 C   0  0  0  0  0  0  0  0  0  0  0  0
  190.0800  174.3180  142.6750 C   0  0  0  0  0  0  0  0  0  0  0  0
  185.6280  178.5120  143.3690 C   0  0  0  0  0  3  0  0  0  0  0  0
  192.9060  174.3320  146.0900 C   0  0  0  0  0  2  0  0  0  0  0  0
  193.6050  174.1100  143.8030 C   0  0  0  0  0  2  0  0  0  0  0  0
  185.8020  177.1320  141.4160 N   0  0  0  0  0  1  0  0  0  0  0  0
  188.9410  176.8220  145.2050 C   0  0  0  0  0  0  0  0  0  0  0  0
  186.0270  178.9270  144.6310 C   0  0  0  0  0  3  0  0  0  0  0  0
  187.4860  176.9080  143.2650 C   0  0  0  0  0  0  0  0  0  0  0  0
  189.6920  175.7600  144.6260 N   0  0  0  0  0  0  0  0  0  0  0  0
  190.5530  175.1620  147.9650 O   0  0  0  0  0  0  0  0  0  0  0  0
  190.5260  175.0520  145.5890 C   0  0  1  0  0  3  0  0  0  0  0  0
  194.1130  174.0640  145.2320 C   0  0  0  0  0  2  0  0  0  0  0  0
  191.0470  172.5010  144.1670 C   0  0  0  0  0  1  0  0  0  0  0  0
  187.1350  178.3440  145.2260 C   0  0  0  0  0  3  0  0  0  0  0  0
  187.8690  177.3410  144.5780 C   0  0  0  0  0  0  0  0  0  0  0  0
  191.3290  173.7020  143.2600 C   0  0  2  0  0  3  0  0  0  0  0  0
  188.1700  173.7740  139.4950 O   0  0  0  0  0  0  0  0  0  0  0  0
  189.0670  173.8460  137.2740 C   0  0  0  0  0  1  0  0  0  0  0  0
  188.1200  174.4860  138.2670 C   0  0  0  0  0  2  0  0  0  0  0  0
  1 19  2  0  0  0  0
  1  4  1  0  0  0  0
  2 19  1  0  0  0  0
  2 13  2  0  0  0  0
  3 10  1  0  0  0  0
  4 20  1  0  0  0  0
  5  1  1  0  0  0  0
  6  8  1  0  0  0  0
  7 15  1  1  0  0  0
  7  9  1  0  0  0  0
  8 12  1  0  0  0  0
  9 22  1  0  0  0  0
  9 14  1  1  0  0  0
 10 21  2  0  0  0  0
 11  5  1  0  0  0  0
 11  8  2  0  0  0  0
 12 27  1  0  0  0  0
 12  4  2  0  0  0  0
 13 18  1  0  0  0  0
 15 23  1  0  0  0  0
 16  2  1  0  0  0  0
 17  3  1  0  0  0  0
 18 25  2  0  0  0  0
 19 26  1  0  0  0  0
 20 17  1  0  0  0  0
 20 22  1  0  0  0  0
 22 10  1  1  0  0  0
 23 14  1  0  0  0  0
 26 17  2  0  0  0  0
 26 25  1  0  0  0  0
 27  7  1  0  0  0  0
 27 24  1  1  0  0  0
 28 11  1  0  0  0  0
 29 30  1  0  0  0  0
 30 28  1  0  0  0  0
M  END
>  <MODEL>
4

>  <REMARK>
 VINA RESULT:      -8.0      2.267      5.770
  Name = 
  2 active torsions:
  status: ('A' for Active; 'I' for Inactive)
    1  A    between atoms: C_11  and  O_28
    2  A    between atoms: O_28  and  C_30
                            x       y       z     vdW  Elec       q    Type
                         _______ _______ _______ _____ _____    ______ ____

>  <TORSDO>
F 2

$$$$
=
 OpenBabel11112416193D

 30 35  0  0  1  0  0  0  0  0999 V2000
  189.9950  174.9490  143.4200 C   0  0  0  0  0  0  0  0  0  0  0  0
  192.1270  173.7290  143.2540 C   0  0  0  0  0  0  0  0  0  0  0  0
  191.0380  176.1320  147.7620 S   0  0  0  0  0  0  0  0  0  0  0  0
  189.0800  175.8370  144.1930 C   0  0  0  0  0  0  0  0  0  0  0  0
  189.4910  174.3960  142.1120 C   0  0  0  0  0  2  0  0  0  0  0  0
  186.5240  176.7730  141.5180 C   0  0  0  0  0  1  0  0  0  0  0  0
  186.6000  176.5250  145.7220 N   0  0  1  0  0  0  0  0  0  0  0  0
  187.6510  176.0470  142.1890 C   0  0  0  0  0  0  0  0  0  0  0  0
  187.5150  176.9360  146.8000 C   0  0  2  0  0  3  0  0  0  0  0  0
  189.8680  177.4500  147.4790 C   0  0  0  0  0  0  0  0  0  0  0  0
  188.4070  175.2110  141.4630 C   0  0  0  0  0  0  0  0  0  0  0  0
  187.9310  176.2940  143.6300 C   0  0  0  0  0  0  0  0  0  0  0  0
  193.3040  173.3000  143.8690 C   0  0  0  0  0  3  0  0  0  0  0  0
  186.8600  178.0770  147.5430 C   0  0  0  0  0  2  0  0  0  0  0  0
  185.2690  176.9860  146.1140 C   0  0  0  0  0  2  0  0  0  0  0  0
  191.9610  173.3750  141.8840 N   0  0  0  0  0  1  0  0  0  0  0  0
  190.6740  175.6250  146.0780 C   0  0  0  0  0  0  0  0  0  0  0  0
  193.5880  173.6360  145.1840 C   0  0  0  0  0  3  0  0  0  0  0  0
  191.1790  174.5290  143.9730 C   0  0  0  0  0  0  0  0  0  0  0  0
  189.4780  176.1720  145.5340 N   0  0  0  0  0  0  0  0  0  0  0  0
  189.8990  178.4810  148.1300 O   0  0  0  0  0  0  0  0  0  0  0  0
  188.9340  177.2690  146.3260 C   0  0  1  0  0  3  0  0  0  0  0  0
  185.3900  177.7950  147.3920 C   0  0  0  0  0  2  0  0  0  0  0  0
  187.1590  178.6030  144.3590 C   0  0  0  0  0  1  0  0  0  0  0  0
  192.6960  174.4180  145.9010 C   0  0  0  0  0  3  0  0  0  0  0  0
  191.5030  174.8780  145.3260 C   0  0  0  0  0  0  0  0  0  0  0  0
  186.9020  177.0940  144.3930 C   0  0  2  0  0  3  0  0  0  0  0  0
  188.1460  175.0560  140.0970 O   0  0  0  0  0  0  0  0  0  0  0  0
  188.2620  174.1280  137.8900 C   0  0  0  0  0  1  0  0  0  0  0  0
  188.6060  173.9360  139.3530 C   0  0  0  0  0  2  0  0  0  0  0  0
  1 19  2  0  0  0  0
  1  4  1  0  0  0  0
  2 13  2  0  0  0  0
  2 19  1  0  0  0  0
  4 20  1  0  0  0  0
  5  1  1  0  0  0  0
  6  8  1  0  0  0  0
  7 15  1  1  0  0  0
  7  9  1  0  0  0  0
  8 12  1  0  0  0  0
  9 14  1  6  0  0  0
 10  3  1  0  0  0  0
 10 21  2  0  0  0  0
 11  5  1  0  0  0  0
 11  8  2  0  0  0  0
 12  4  2  0  0  0  0
 12 27  1  0  0  0  0
 13 18  1  0  0  0  0
 15 23  1  0  0  0  0
 16  2  1  0  0  0  0
 17  3  1  0  0  0  0
 18 25  2  0  0  0  0
 19 26  1  0  0  0  0
 20 17  1  0  0  0  0
 20 22  1  0  0  0  0
 22  9  1  0  0  0  0
 22 10  1  1  0  0  0
 23 14  1  0  0  0  0
 26 25  1  0  0  0  0
 26 17  2  0  0  0  0
 27 24  1  1  0  0  0
 27  7  1  0  0  0  0
 28 11  1  0  0  0  0
 29 30  1  0  0  0  0
 30 28  1  0  0  0  0
M  END
>  <MODEL>
5

>  <REMARK>
 VINA RESULT:      -8.0      2.360      7.187
  Name = 
  2 active torsions:
  status: ('A' for Active; 'I' for Inactive)
    1  A    between atoms: C_11  and  O_28
    2  A    between atoms: O_28  and  C_30
                            x       y       z     vdW  Elec       q    Type
                         _______ _______ _______ _____ _____    ______ ____

>  <TORSDO>
F 2

$$$$
=
 OpenBabel11112416193D

 30 35  0  0  1  0  0  0  0  0999 V2000
  189.1740  174.8150  141.6510 C   0  0  0  0  0  0  0  0  0  0  0  0
  189.4160  173.7180  139.4590 C   0  0  0  0  0  0  0  0  0  0  0  0
  193.3220  173.2030  142.8890 S   0  0  0  0  0  0  0  0  0  0  0  0
  189.7530  175.1820  142.9740 C   0  0  0  0  0  0  0  0  0  0  0  0
  187.7270  175.1570  141.4020 C   0  0  0  0  0  2  0  0  0  0  0  0
  187.1850  177.7090  144.2300 C   0  0  0  0  0  1  0  0  0  0  0  0
  190.0030  175.0990  145.9560 N   0  0  1  0  0  0  0  0  0  0  0  0
  187.7950  176.6300  143.3880 C   0  0  0  0  0  0  0  0  0  0  0  0
  191.4090  174.7330  145.7150 C   0  0  2  0  0  3  0  0  0  0  0  0
  193.2800  174.5470  144.0630 C   0  0  0  0  0  0  0  0  0  0  0  0
  187.2010  176.2930  142.2340 C   0  0  0  0  0  0  0  0  0  0  0  0
  189.0610  175.9820  143.8270 C   0  0  0  0  0  0  0  0  0  0  0  0
  190.1720  172.9070  138.6110 C   0  0  0  0  0  3  0  0  0  0  0  0
  192.2290  175.3000  146.8510 C   0  0  0  0  0  2  0  0  0  0  0  0
  189.8900  175.3740  147.3880 C   0  0  0  0  0  2  0  0  0  0  0  0
  188.1950  174.2270  138.9300 N   0  0  0  0  0  1  0  0  0  0  0  0
  191.7060  173.7850  142.3630 C   0  0  0  0  0  0  0  0  0  0  0  0
  191.4010  172.4040  139.0090 C   0  0  0  0  0  3  0  0  0  0  0  0
  189.8950  174.0470  140.7700 C   0  0  0  0  0  0  0  0  0  0  0  0
  191.0540  174.6520  143.2850 N   0  0  0  0  0  0  0  0  0  0  0  0
  194.3030  175.0130  144.5360 O   0  0  0  0  0  0  0  0  0  0  0  0
  191.9360  175.1440  144.3360 C   0  0  1  0  0  3  0  0  0  0  0  0
  191.2710  175.2930  148.0110 C   0  0  0  0  0  2  0  0  0  0  0  0
  190.4460  177.5200  145.3020 C   0  0  0  0  0  1  0  0  0  0  0  0
  191.8950  172.7140  140.2670 C   0  0  0  0  0  3  0  0  0  0  0  0
  191.1760  173.5290  141.1530 C   0  0  0  0  0  0  0  0  0  0  0  0
  189.5330  176.2940  145.2280 C   0  0  2  0  0  3  0  0  0  0  0  0
  186.0450  176.9710  141.8310 O   0  0  0  0  0  0  0  0  0  0  0  0
  184.5940  178.3100  140.4730 C   0  0  0  0  0  1  0  0  0  0  0  0
  185.9920  177.7550  140.6480 C   0  0  0  0  0  2  0  0  0  0  0  0
  1  4  1  0  0  0  0
  2 19  1  0  0  0  0
  3 10  1  0  0  0  0
  4 20  1  0  0  0  0
  4 12  2  0  0  0  0
  5  1  1  0  0  0  0
  5 11  1  0  0  0  0
  7 15  1  1  0  0  0
  8 12  1  0  0  0  0
  8  6  1  0  0  0  0
  9  7  1  0  0  0  0
  9 14  1  1  0  0  0
 10 21  2  0  0  0  0
 11  8  2  0  0  0  0
 12 27  1  0  0  0  0
 13 18  1  0  0  0  0
 13  2  2  0  0  0  0
 14 23  1  0  0  0  0
 15 23  1  0  0  0  0
 16  2  1  0  0  0  0
 17  3  1  0  0  0  0
 17 20  1  0  0  0  0
 18 25  2  0  0  0  0
 19 26  1  0  0  0  0
 19  1  2  0  0  0  0
 20 22  1  0  0  0  0
 22 10  1  6  0  0  0
 22  9  1  0  0  0  0
 25 26  1  0  0  0  0
 26 17  2  0  0  0  0
 27 24  1  6  0  0  0
 27  7  1  0  0  0  0
 28 11  1  0  0  0  0
 29 30  1  0  0  0  0
 30 28  1  0  0  0  0
M  END
>  <MODEL>
6

>  <REMARK>
 VINA RESULT:      -7.7      2.841      7.340
  Name = 
  2 active torsions:
  status: ('A' for Active; 'I' for Inactive)
    1  A    between atoms: C_11  and  O_28
    2  A    between atoms: O_28  and  C_30
                            x       y       z     vdW  Elec       q    Type
                         _______ _______ _______ _____ _____    ______ ____

>  <TORSDO>
F 2

$$$$
=
 OpenBabel11112416193D

 30 35  0  0  1  0  0  0  0  0999 V2000
  188.8890  174.3230  142.0930 C   0  0  0  0  0  0  0  0  0  0  0  0
  190.4510  172.4210  142.1910 C   0  0  0  0  0  0  0  0  0  0  0  0
  189.5060  175.0330  146.6150 S   0  0  0  0  0  0  0  0  0  0  0  0
  188.2260  175.4760  142.7650 C   0  0  0  0  0  0  0  0  0  0  0  0
  188.4600  173.9930  140.6860 C   0  0  0  0  0  2  0  0  0  0  0  0
  186.6720  177.2780  139.7820 C   0  0  0  0  0  1  0  0  0  0  0  0
  185.9200  176.9990  143.9170 N   0  0  1  0  0  0  0  0  0  0  0  0
  187.3360  176.1930  140.5750 C   0  0  0  0  0  0  0  0  0  0  0  0
  186.7170  177.0500  145.1540 C   0  0  2  0  0  3  0  0  0  0  0  0
  188.9440  176.6840  146.2370 C   0  0  0  0  0  0  0  0  0  0  0  0
  187.8640  175.1460  139.9270 C   0  0  0  0  0  0  0  0  0  0  0  0
  187.4280  176.3170  142.0560 C   0  0  0  0  0  0  0  0  0  0  0  0
  191.2740  171.5960  142.9580 C   0  0  0  0  0  3  0  0  0  0  0  0
  186.3870  178.3460  145.8560 C   0  0  0  0  0  2  0  0  0  0  0  0
  184.7900  177.9050  144.1190 C   0  0  0  0  0  2  0  0  0  0  0  0
  190.4120  172.1570  140.7920 N   0  0  0  0  0  1  0  0  0  0  0  0
  189.2880  174.6980  144.8640 C   0  0  0  0  0  0  0  0  0  0  0  0
  191.4240  171.8010  144.3220 C   0  0  0  0  0  3  0  0  0  0  0  0
  189.7340  173.5040  142.8000 C   0  0  0  0  0  0  0  0  0  0  0  0
  188.4750  175.6400  144.1730 N   0  0  0  0  0  0  0  0  0  0  0  0
  189.2210  177.6330  146.9520 O   0  0  0  0  0  0  0  0  0  0  0  0
  188.2220  176.8550  144.9380 C   0  0  1  0  0  3  0  0  0  0  0  0
  184.9630  178.6100  145.4510 C   0  0  0  0  0  2  0  0  0  0  0  0
  187.4030  178.7460  142.8040 C   0  0  0  0  0  1  0  0  0  0  0  0
  190.7530  172.8470  144.9360 C   0  0  0  0  0  3  0  0  0  0  0  0
  189.9190  173.7070  144.2080 C   0  0  0  0  0  0  0  0  0  0  0  0
  186.6300  177.4290  142.6950 C   0  0  2  0  0  3  0  0  0  0  0  0
  187.8080  175.1010  138.5290 O   0  0  0  0  0  0  0  0  0  0  0  0
  189.5330  174.1670  137.1530 C   0  0  0  0  0  1  0  0  0  0  0  0
  188.1750  173.9480  137.7850 C   0  0  0  0  0  2  0  0  0  0  0  0
  1  4  1  0  0  0  0
  1 19  2  0  0  0  0
  2 19  1  0  0  0  0
  2 13  2  0  0  0  0
  4 20  1  0  0  0  0
  5  1  1  0  0  0  0
  6  8  1  0  0  0  0
  7 15  1  1  0  0  0
  7  9  1  0  0  0  0
  8 12  1  0  0  0  0
  9 14  1  6  0  0  0
 10  3  1  0  0  0  0
 10 21  2  0  0  0  0
 11  8  2  0  0  0  0
 11  5  1  0  0  0  0
 12 27  1  0  0  0  0
 12  4  2  0  0  0  0
 13 18  1  0  0  0  0
 15 23  1  0  0  0  0
 16  2  1  0  0  0  0
 17  3  1  0  0  0  0
 18 25  2  0  0  0  0
 19 26  1  0  0  0  0
 20 17  1  0  0  0  0
 20 22  1  0  0  0  0
 22  9  1  0  0  0  0
 22 10  1  1  0  0  0
 23 14  1  0  0  0  0
 26 17  2  0  0  0  0
 26 25  1  0  0  0  0
 27 24  1  1  0  0  0
 27  7  1  0  0  0  0
 28 11  1  0  0  0  0
 29 30  1  0  0  0  0
 30 28  1  0  0  0  0
M  END
>  <MODEL>
7

>  <REMARK>
 VINA RESULT:      -7.5      2.193      7.142
  Name = 
  2 active torsions:
  status: ('A' for Active; 'I' for Inactive)
    1  A    between atoms: C_11  and  O_28
    2  A    between atoms: O_28  and  C_30
                            x       y       z     vdW  Elec       q    Type
                         _______ _______ _______ _____ _____    ______ ____

>  <TORSDO>
F 2

$$$$
=
 OpenBabel11112416193D

 30 35  0  0  1  0  0  0  0  0999 V2000
  188.4640  175.6940  143.0390 C   0  0  0  0  0  0  0  0  0  0  0  0
  188.3190  176.3240  145.4160 C   0  0  0  0  0  0  0  0  0  0  0  0
  191.0180  172.0230  144.1950 S   0  0  0  0  0  0  0  0  0  0  0  0
  188.9010  174.7280  141.9910 C   0  0  0  0  0  0  0  0  0  0  0  0
  187.8540  176.9940  142.5810 C   0  0  0  0  0  2  0  0  0  0  0  0
  187.0430  176.0630  138.9360 C   0  0  0  0  0  1  0  0  0  0  0  0
  190.5170  173.7920  139.6530 N   0  0  1  0  0  0  0  0  0  0  0  0
  187.6160  176.0180  140.3210 C   0  0  0  0  0  0  0  0  0  0  0  0
  190.8940  172.6560  140.5110 C   0  0  2  0  0  3  0  0  0  0  0  0
  190.4630  171.3840  142.6230 C   0  0  0  0  0  0  0  0  0  0  0  0
  187.2390  176.9470  141.2100 C   0  0  0  0  0  0  0  0  0  0  0  0
  188.5590  174.9270  140.6910 C   0  0  0  0  0  0  0  0  0  0  0  0
  188.6790  176.0680  146.7390 C   0  0  0  0  0  3  0  0  0  0  0  0
  191.0970  171.4560  139.6170 C   0  0  0  0  0  2  0  0  0  0  0  0
  190.9940  173.4670  138.3090 C   0  0  0  0  0  2  0  0  0  0  0  0
  187.4540  177.4350  145.1960 N   0  0  0  0  0  1  0  0  0  0  0  0
  190.0400  173.4770  143.8010 C   0  0  0  0  0  0  0  0  0  0  0  0
  189.4740  174.9800  147.0670 C   0  0  0  0  0  3  0  0  0  0  0  0
  188.7680  175.4660  144.3590 C   0  0  0  0  0  0  0  0  0  0  0  0
  189.6820  173.6020  142.4280 N   0  0  0  0  0  0  0  0  0  0  0  0
  190.4430  170.1860  142.3920 O   0  0  0  0  0  0  0  0  0  0  0  0
  189.9140  172.3860  141.6590 C   0  0  1  0  0  3  0  0  0  0  0  0
  191.5640  172.0600  138.3210 C   0  0  0  0  0  2  0  0  0  0  0  0
  188.1830  172.8380  139.2930 C   0  0  0  0  0  1  0  0  0  0  0  0
  189.9130  174.1250  146.0680 C   0  0  0  0  0  3  0  0  0  0  0  0
  189.5740  174.3370  144.7240 C   0  0  0  0  0  0  0  0  0  0  0  0
  189.0680  174.0580  139.5650 C   0  0  2  0  0  3  0  0  0  0  0  0
  186.3020  177.9180  140.8360 O   0  0  0  0  0  0  0  0  0  0  0  0
  183.9580  178.2910  140.5130 C   0  0  0  0  0  1  0  0  0  0  0  0
  185.0710  178.0970  141.5210 C   0  0  0  0  0  2  0  0  0  0  0  0
  1 19  2  0  0  0  0
  2 13  2  0  0  0  0
  4 20  1  0  0  0  0
  4  1  1  0  0  0  0
  5  1  1  0  0  0  0
  6  8  1  0  0  0  0
  7 15  1  6  0  0  0
  7  9  1  0  0  0  0
  8 12  1  0  0  0  0
  8 11  2  0  0  0  0
  9 14  1  6  0  0  0
  9 22  1  0  0  0  0
 10  3  1  0  0  0  0
 11  5  1  0  0  0  0
 12  4  2  0  0  0  0
 13 18  1  0  0  0  0
 15 23  1  0  0  0  0
 16  2  1  0  0  0  0
 17  3  1  0  0  0  0
 17 26  2  0  0  0  0
 19 26  1  0  0  0  0
 19  2  1  0  0  0  0
 20 17  1  0  0  0  0
 21 10  2  0  0  0  0
 22 20  1  0  0  0  0
 22 10  1  1  0  0  0
 23 14  1  0  0  0  0
 25 18  2  0  0  0  0
 26 25  1  0  0  0  0
 27 24  1  1  0  0  0
 27  7  1  0  0  0  0
 27 12  1  0  0  0  0
 28 11  1  0  0  0  0
 28 30  1  0  0  0  0
 29 30  1  0  0  0  0
M  END
>  <MODEL>
8

>  <REMARK>
 VINA RESULT:      -7.5      2.918      5.763
  Name = 
  2 active torsions:
  status: ('A' for Active; 'I' for Inactive)
    1  A    between atoms: C_11  and  O_28
    2  A    between atoms: O_28  and  C_30
                            x       y       z     vdW  Elec       q    Type
                         _______ _______ _______ _____ _____    ______ ____

>  <TORSDO>
F 2

$$$$
=
 OpenBabel11112416193D

 30 35  0  0  1  0  0  0  0  0999 V2000
  187.0340  176.6060  142.3900 C   0  0  0  0  0  0  0  0  0  0  0  0
  184.9660  177.8880  142.0130 C   0  0  0  0  0  0  0  0  0  0  0  0
  186.8040  177.6090  146.8940 S   0  0  0  0  0  0  0  0  0  0  0  0
  188.0420  176.0420  143.3340 C   0  0  0  0  0  0  0  0  0  0  0  0
  187.2970  176.4540  140.9140 C   0  0  0  0  0  2  0  0  0  0  0  0
  189.9840  173.7020  141.0290 C   0  0  0  0  0  1  0  0  0  0  0  0
  190.7380  175.7910  144.6080 N   0  0  1  0  0  0  0  0  0  0  0  0
  189.0430  174.7870  141.4560 C   0  0  0  0  0  0  0  0  0  0  0  0
  190.0340  176.0200  145.8800 C   0  0  2  0  0  3  0  0  0  0  0  0
  187.8370  176.1650  147.0710 C   0  0  0  0  0  0  0  0  0  0  0  0
  188.1970  175.3050  140.5540 C   0  0  0  0  0  0  0  0  0  0  0  0
  189.0380  175.2410  142.8740 C   0  0  0  0  0  0  0  0  0  0  0  0
  183.9510  178.6910  142.5340 C   0  0  0  0  0  3  0  0  0  0  0  0
  190.7700  175.2520  146.9530 C   0  0  0  0  0  2  0  0  0  0  0  0
  192.0990  175.3840  144.9580 C   0  0  0  0  0  2  0  0  0  0  0  0
  184.8780  177.5750  140.6250 N   0  0  0  0  0  1  0  0  0  0  0  0
  186.8550  177.2680  145.1310 C   0  0  0  0  0  0  0  0  0  0  0  0
  183.9140  179.0110  143.8830 C   0  0  0  0  0  3  0  0  0  0  0  0
  185.9990  177.3740  142.8630 C   0  0  0  0  0  0  0  0  0  0  0  0
  187.8980  176.3890  144.7230 N   0  0  0  0  0  0  0  0  0  0  0  0
  187.8890  175.5410  148.1180 O   0  0  0  0  0  0  0  0  0  0  0  0
  188.5370  175.6960  145.8350 C   0  0  1  0  0  3  0  0  0  0  0  0
  192.1930  175.2470  146.4670 C   0  0  0  0  0  2  0  0  0  0  0  0
  189.8340  173.4150  144.4520 C   0  0  0  0  0  1  0  0  0  0  0  0
  184.8930  178.5200  144.7330 C   0  0  0  0  0  3  0  0  0  0  0  0
  185.9300  177.7040  144.2570 C   0  0  0  0  0  0  0  0  0  0  0  0
  190.1590  174.7370  143.7520 C   0  0  2  0  0  3  0  0  0  0  0  0
  188.1940  174.8050  139.2460 O   0  0  0  0  0  0  0  0  0  0  0  0
  187.9420  174.9020  136.8660 C   0  0  0  0  0  1  0  0  0  0  0  0
  187.4320  175.3960  138.2030 C   0  0  0  0  0  2  0  0  0  0  0  0
  1 19  2  0  0  0  0
  1  4  1  0  0  0  0
  2 13  2  0  0  0  0
  2 19  1  0  0  0  0
  3 10  1  0  0  0  0
  4 20  1  0  0  0  0
  5  1  1  0  0  0  0
  6  8  1  0  0  0  0
  7 15  1  1  0  0  0
  7  9  1  0  0  0  0
  8 12  1  0  0  0  0
  9 14  1  1  0  0  0
 10 21  2  0  0  0  0
 11  5  1  0  0  0  0
 11  8  2  0  0  0  0
 12  4  2  0  0  0  0
 12 27  1  0  0  0  0
 13 18  1  0  0  0  0
 15 23  1  0  0  0  0
 16  2  1  0  0  0  0
 17  3  1  0  0  0  0
 18 25  2  0  0  0  0
 19 26  1  0  0  0  0
 20 17  1  0  0  0  0
 20 22  1  0  0  0  0
 22  9  1  0  0  0  0
 22 10  1  1  0  0  0
 23 14  1  0  0  0  0
 26 25  1  0  0  0  0
 26 17  2  0  0  0  0
 27 24  1  1  0  0  0
 27  7  1  0  0  0  0
 28 11  1  0  0  0  0
 29 30  1  0  0  0  0
 30 28  1  0  0  0  0
M  END
>  <MODEL>
9

>  <REMARK>
 VINA RESULT:      -7.5      1.986      5.632
  Name = 
  2 active torsions:
  status: ('A' for Active; 'I' for Inactive)
    1  A    between atoms: C_11  and  O_28
    2  A    between atoms: O_28  and  C_30
                            x       y       z     vdW  Elec       q    Type
                         _______ _______ _______ _____ _____    ______ ____

>  <TORSDO>
F 2

$$$$
