=
 OpenBabel11112417223D

 37 43  0  0  1  0  0  0  0  0999 V2000
  185.8840  177.6360  142.3360 C   0  0  1  0  0  0  0  0  0  0  0  0
  188.6250  176.2620  145.1500 C   0  0  0  0  0  0  0  0  0  0  0  0
  192.2650  176.4530  144.2790 C   0  0  1  0  0  3  0  0  0  0  0  0
  186.3370  176.8850  144.7260 C   0  0  0  0  0  0  0  0  0  0  0  0
  189.7340  176.0260  144.3690 C   0  0  0  0  0  0  0  0  0  0  0  0
  187.6130  176.5780  144.2980 C   0  0  0  0  0  0  0  0  0  0  0  0
  191.0770  175.7820  144.8370 N   0  0  0  0  0  0  0  0  0  0  0  0
  186.0870  176.8360  146.1120 C   0  0  0  0  0  3  0  0  0  0  0  0
  188.0110  176.5700  143.0240 N   0  0  0  0  0  0  0  0  0  0  0  0
  186.2940  179.0940  142.4550 C   0  0  0  0  0  1  0  0  0  0  0  0
  189.5400  175.7910  147.4350 C   0  0  0  0  0  2  0  0  0  0  0  0
  187.1350  176.4980  147.0110 C   0  0  0  0  0  3  0  0  0  0  0  0
  187.1120  176.8000  141.8950 C   0  0  0  0  0  2  0  0  0  0  0  0
  192.4130  176.2830  142.7670 C   0  0  2  0  0  0  0  0  0  0  0  0
  191.9510  177.6150  143.3360 C   0  0  0  0  0  2  0  0  0  0  0  0
  188.4290  176.2020  146.5260 C   0  0  0  0  0  0  0  0  0  0  0  0
  189.3150  176.2090  143.0510 C   0  0  0  0  0  0  0  0  0  0  0  0
  185.2840  177.1630  143.6870 C   0  0  0  0  0  2  0  0  0  0  0  0
  191.3650  174.8300  145.9240 C   0  0  1  0  0  3  0  0  0  0  0  0
  184.9020  177.5350  141.3520 O   0  0  0  0  0  1  0  0  0  0  0  0
  191.3930  175.4280  141.9990 C   0  0  0  0  0  2  0  0  0  0  0  0
  190.1060  176.0360  141.9170 O   0  0  0  0  0  0  0  0  0  0  0  0
  190.2050  174.5310  146.8900 C   0  0  0  0  0  2  0  0  0  0  0  0
  191.1110  172.7110  144.6240 C   0  0  0  0  0  3  0  0  0  0  0  0
  191.9330  173.5630  145.3680 C   0  0  0  0  0  0  0  0  0  0  0  0
  193.2610  173.1940  145.6300 C   0  0  0  0  0  3  0  0  0  0  0  0
  195.1680  171.5970  145.4200 C   0  0  0  0  0  1  0  0  0  0  0  0
  192.9370  171.1380  144.3930 C   0  0  0  0  0  3  0  0  0  0  0  0
  193.7620  171.9850  145.1400 C   0  0  0  0  0  0  0  0  0  0  0  0
  191.6130  171.5010  144.1350 C   0  0  0  0  0  3  0  0  0  0  0  0
  196.6670  175.8040  141.7850 O   0  0  0  0  0  0  0  0  0  0  0  0
  196.1920  175.4410  142.8940 C   0  0  0  0  0  0  0  0  0  0  0  0
  193.8350  176.2140  142.3290 C   0  0  0  0  0  0  0  0  0  0  0  0
  194.8040  175.6130  143.1950 N   0  0  0  0  0  2  0  0  0  0  0  0
  194.1630  176.6470  141.1900 O   0  0  0  0  0  0  0  0  0  0  0  0
  196.4770  174.8340  145.1530 O   0  0  0  0  0  1  0  0  0  0  0  0
  197.0810  174.7950  143.8960 C   0  0  0  0  0  2  0  0  0  0  0  0
  1 10  1  1  0  0  0
  1 18  1  0  0  0  0
  2 16  1  0  0  0  0
  3 15  1  6  0  0  0
  3  7  1  0  0  0  0
  4  8  2  0  0  0  0
  5  7  1  0  0  0  0
  5  2  1  0  0  0  0
  6  4  1  0  0  0  0
  6  2  2  0  0  0  0
  7 19  1  0  0  0  0
  8 12  1  0  0  0  0
  9 17  1  0  0  0  0
  9  6  1  0  0  0  0
 13  1  1  0  0  0  0
 13  9  1  0  0  0  0
 14 33  1  6  0  0  0
 14 15  1  0  0  0  0
 14  3  1  0  0  0  0
 16 12  2  0  0  0  0
 16 11  1  0  0  0  0
 17  5  2  0  0  0  0
 18  4  1  0  0  0  0
 19 25  1  6  0  0  0
 19 23  1  0  0  0  0
 20  1  1  0  0  0  0
 21 14  1  0  0  0  0
 22 21  1  0  0  0  0
 22 17  1  0  0  0  0
 23 11  1  0  0  0  0
 24 25  1  0  0  0  0
 25 26  2  0  0  0  0
 28 29  2  0  0  0  0
 29 27  1  0  0  0  0
 29 26  1  0  0  0  0
 30 28  1  0  0  0  0
 30 24  2  0  0  0  0
 31 32  2  0  0  0  0
 32 34  1  0  0  0  0
 32 37  1  0  0  0  0
 33 34  1  0  0  0  0
 35 33  2  0  0  0  0
 37 36  1  0  0  0  0
M  END
>  <MODEL>
1

>  <REMARK>
 VINA RESULT:      -8.3      0.000      0.000
  Name = 
  3 active torsions:
  status: ('A' for Active; 'I' for Inactive)
    1  A    between atoms: C_4  and  C_37
    2  A    between atoms: C_8  and  C_18
    3  A    between atoms: C_23  and  C_30
                            x       y       z     vdW  Elec       q    Type
                         _______ _______ _______ _____ _____    ______ ____

>  <TORSDO>
F 3

$$$$
=
 OpenBabel11112417223D

 37 43  0  0  1  0  0  0  0  0999 V2000
  187.5970  176.9020  142.4100 C   0  0  1  0  0  0  0  0  0  0  0  0
  190.8270  176.2320  144.9460 C   0  0  0  0  0  0  0  0  0  0  0  0
  194.2180  175.8620  143.3930 C   0  0  1  0  0  3  0  0  0  0  0  0
  188.5120  176.8760  144.7860 C   0  0  0  0  0  0  0  0  0  0  0  0
  191.7510  175.6830  144.0840 C   0  0  0  0  0  0  0  0  0  0  0  0
  189.6680  176.3540  144.2430 C   0  0  0  0  0  0  0  0  0  0  0  0
  193.1560  175.4870  144.3450 N   0  0  0  0  0  0  0  0  0  0  0  0
  188.5470  177.2690  146.1380 C   0  0  0  0  0  3  0  0  0  0  0  0
  189.8000  175.9290  142.9850 N   0  0  0  0  0  0  0  0  0  0  0  0
  188.0460  178.2910  141.9890 C   0  0  0  0  0  1  0  0  0  0  0  0
  192.1790  176.4040  147.0500 C   0  0  0  0  0  2  0  0  0  0  0  0
  189.7500  177.1370  146.8840 C   0  0  0  0  0  3  0  0  0  0  0  0
  188.6950  175.8770  142.0300 C   0  0  0  0  0  2  0  0  0  0  0  0
  194.0530  175.2310  142.0090 C   0  0  2  0  0  0  0  0  0  0  0  0
  193.7390  176.7050  142.2110 C   0  0  0  0  0  2  0  0  0  0  0  0
  190.9130  176.6070  146.2830 C   0  0  0  0  0  0  0  0  0  0  0  0
  191.0760  175.4920  142.8780 C   0  0  0  0  0  0  0  0  0  0  0  0
  187.2750  176.9090  143.9280 C   0  0  0  0  0  2  0  0  0  0  0  0
  193.6430  174.8890  145.6000 C   0  0  1  0  0  3  0  0  0  0  0  0
  186.4330  176.5860  141.7090 O   0  0  0  0  0  1  0  0  0  0  0  0
  192.8840  174.2670  141.7520 C   0  0  0  0  0  2  0  0  0  0  0  0
  191.6180  174.9210  141.7280 O   0  0  0  0  0  0  0  0  0  0  0  0
  192.6980  174.9890  146.8110 C   0  0  0  0  0  2  0  0  0  0  0  0
  193.1050  172.5200  145.0130 C   0  0  0  0  0  3  0  0  0  0  0  0
  194.0650  173.4720  145.3710 C   0  0  0  0  0  0  0  0  0  0  0  0
  195.3970  173.0780  145.5660 C   0  0  0  0  0  3  0  0  0  0  0  0
  197.1760  171.3270  145.5990 C   0  0  0  0  0  1  0  0  0  0  0  0
  194.8020  170.7940  145.0290 C   0  0  0  0  0  3  0  0  0  0  0  0
  195.7640  171.7410  145.3920 C   0  0  0  0  0  0  0  0  0  0  0  0
  193.4740  171.1820  144.8400 C   0  0  0  0  0  3  0  0  0  0  0  0
  197.8600  173.9310  140.2470 O   0  0  0  0  0  0  0  0  0  0  0  0
  197.3080  173.2990  141.1870 C   0  0  0  0  0  0  0  0  0  0  0  0
  195.3550  174.9200  141.3570 C   0  0  0  0  0  0  0  0  0  0  0  0
  196.0710  173.7440  141.7510 N   0  0  0  0  0  2  0  0  0  0  0  0
  195.7930  175.6710  140.4420 O   0  0  0  0  0  0  0  0  0  0  0  0
  196.9420  171.1400  142.0550 O   0  0  0  0  0  1  0  0  0  0  0  0
  197.9350  172.0510  141.6980 C   0  0  0  0  0  2  0  0  0  0  0  0
  1 10  1  6  0  0  0
  1 18  1  0  0  0  0
  2 16  1  0  0  0  0
  3 15  1  6  0  0  0
  3  7  1  0  0  0  0
  4  8  2  0  0  0  0
  5  7  1  0  0  0  0
  5  2  1  0  0  0  0
  6  4  1  0  0  0  0
  6  2  2  0  0  0  0
  7 19  1  0  0  0  0
  8 12  1  0  0  0  0
  9  6  1  0  0  0  0
 13  1  1  0  0  0  0
 13  9  1  0  0  0  0
 14 33  1  6  0  0  0
 14 15  1  0  0  0  0
 14  3  1  0  0  0  0
 16 12  2  0  0  0  0
 16 11  1  0  0  0  0
 17  9  1  0  0  0  0
 17  5  2  0  0  0  0
 18  4  1  0  0  0  0
 19 25  1  6  0  0  0
 19 23  1  0  0  0  0
 20  1  1  0  0  0  0
 21 14  1  0  0  0  0
 22 21  1  0  0  0  0
 22 17  1  0  0  0  0
 23 11  1  0  0  0  0
 24 25  1  0  0  0  0
 25 26  2  0  0  0  0
 28 29  2  0  0  0  0
 29 26  1  0  0  0  0
 29 27  1  0  0  0  0
 30 24  2  0  0  0  0
 30 28  1  0  0  0  0
 31 32  2  0  0  0  0
 32 37  1  0  0  0  0
 32 34  1  0  0  0  0
 33 34  1  0  0  0  0
 35 33  2  0  0  0  0
 37 36  1  0  0  0  0
M  END
>  <MODEL>
2

>  <REMARK>
 VINA RESULT:      -8.1      1.811      2.370
  Name = 
  3 active torsions:
  status: ('A' for Active; 'I' for Inactive)
    1  A    between atoms: C_4  and  C_37
    2  A    between atoms: C_8  and  C_18
    3  A    between atoms: C_23  and  C_30
                            x       y       z     vdW  Elec       q    Type
                         _______ _______ _______ _____ _____    ______ ____

>  <TORSDO>
F 3

$$$$
=
 OpenBabel11112417223D

 37 43  0  0  1  0  0  0  0  0999 V2000
  187.6680  176.8140  142.4880 C   0  0  1  0  0  0  0  0  0  0  0  0
  190.9930  176.1170  144.8910 C   0  0  0  0  0  0  0  0  0  0  0  0
  194.2870  175.5580  143.1930 C   0  0  1  0  0  3  0  0  0  0  0  0
  188.6980  176.8430  144.8160 C   0  0  0  0  0  0  0  0  0  0  0  0
  191.8520  175.5010  144.0080 C   0  0  0  0  0  0  0  0  0  0  0  0
  189.8070  176.2560  144.2410 C   0  0  0  0  0  0  0  0  0  0  0  0
  193.2610  175.2610  144.2090 N   0  0  0  0  0  0  0  0  0  0  0  0
  188.8150  177.2860  146.1490 C   0  0  0  0  0  3  0  0  0  0  0  0
  189.8600  175.7790  142.9950 N   0  0  0  0  0  0  0  0  0  0  0  0
  188.1470  178.1670  141.9910 C   0  0  0  0  0  1  0  0  0  0  0  0
  192.4530  176.3170  146.9190 C   0  0  0  0  0  2  0  0  0  0  0  0
  190.0470  177.1360  146.8410 C   0  0  0  0  0  3  0  0  0  0  0  0
  188.7080  175.7340  142.0980 C   0  0  0  0  0  2  0  0  0  0  0  0
  194.0310  174.8810  141.8450 C   0  0  2  0  0  0  0  0  0  0  0  0
  193.7810  176.3730  142.0020 C   0  0  0  0  0  2  0  0  0  0  0  0
  191.1590  176.5390  146.2060 C   0  0  0  0  0  0  0  0  0  0  0  0
  191.1120  175.2890  142.8450 C   0  0  0  0  0  0  0  0  0  0  0  0
  187.4220  176.8910  144.0190 C   0  0  0  0  0  2  0  0  0  0  0  0
  193.7870  174.6930  145.4630 C   0  0  1  0  0  3  0  0  0  0  0  0
  186.4610  176.5160  141.8580 O   0  0  0  0  0  1  0  0  0  0  0  0
  192.8170  173.9540  141.6830 C   0  0  0  0  0  2  0  0  0  0  0  0
  191.5760  174.6550  141.6940 O   0  0  0  0  0  0  0  0  0  0  0  0
  192.9070  174.8750  146.7120 C   0  0  0  0  0  2  0  0  0  0  0  0
  193.1600  172.3510  144.8560 C   0  0  0  0  0  3  0  0  0  0  0  0
  194.1450  173.2530  145.2700 C   0  0  0  0  0  0  0  0  0  0  0  0
  195.4380  172.7890  145.5540 C   0  0  0  0  0  3  0  0  0  0  0  0
  197.1130  170.9450  145.7140 C   0  0  0  0  0  1  0  0  0  0  0  0
  194.7560  170.5350  144.9930 C   0  0  0  0  0  3  0  0  0  0  0  0
  195.7430  171.4330  145.4120 C   0  0  0  0  0  0  0  0  0  0  0  0
  193.4660  170.9930  144.7150 C   0  0  0  0  0  3  0  0  0  0  0  0
  197.6580  174.0590  139.5090 O   0  0  0  0  0  0  0  0  0  0  0  0
  196.7140  174.7580  139.0530 C   0  0  0  0  0  0  0  0  0  0  0  0
  195.2880  174.4960  141.1440 C   0  0  0  0  0  0  0  0  0  0  0  0
  195.5380  175.0070  139.8290 N   0  0  0  0  0  2  0  0  0  0  0  0
  196.1310  173.7610  141.7260 O   0  0  0  0  0  0  0  0  0  0  0  0
  195.5770  175.4220  137.1000 O   0  0  0  0  0  1  0  0  0  0  0  0
  196.8350  175.3600  137.6990 C   0  0  0  0  0  2  0  0  0  0  0  0
  1 10  1  6  0  0  0
  1 18  1  0  0  0  0
  2 16  1  0  0  0  0
  3 15  1  6  0  0  0
  3  7  1  0  0  0  0
  4  8  2  0  0  0  0
  5  7  1  0  0  0  0
  5  2  1  0  0  0  0
  6  4  1  0  0  0  0
  6  2  2  0  0  0  0
  7 19  1  0  0  0  0
  8 12  1  0  0  0  0
  9  6  1  0  0  0  0
 13  1  1  0  0  0  0
 13  9  1  0  0  0  0
 14 33  1  6  0  0  0
 14 15  1  0  0  0  0
 14  3  1  0  0  0  0
 16 12  2  0  0  0  0
 16 11  1  0  0  0  0
 17  9  1  0  0  0  0
 17  5  2  0  0  0  0
 18  4  1  0  0  0  0
 19 25  1  6  0  0  0
 19 23  1  0  0  0  0
 20  1  1  0  0  0  0
 21 22  1  0  0  0  0
 21 14  1  0  0  0  0
 22 17  1  0  0  0  0
 23 11  1  0  0  0  0
 24 25  1  0  0  0  0
 25 26  2  0  0  0  0
 28 29  2  0  0  0  0
 29 26  1  0  0  0  0
 29 27  1  0  0  0  0
 30 24  2  0  0  0  0
 30 28  1  0  0  0  0
 32 31  2  0  0  0  0
 32 34  1  0  0  0  0
 33 35  2  0  0  0  0
 34 33  1  0  0  0  0
 36 37  1  0  0  0  0
 37 32  1  0  0  0  0
M  END
>  <MODEL>
3

>  <REMARK>
 VINA RESULT:      -8.1      2.035      2.942
  Name = 
  3 active torsions:
  status: ('A' for Active; 'I' for Inactive)
    1  A    between atoms: C_4  and  C_37
    2  A    between atoms: C_8  and  C_18
    3  A    between atoms: C_23  and  C_30
                            x       y       z     vdW  Elec       q    Type
                         _______ _______ _______ _____ _____    ______ ____

>  <TORSDO>
F 3

$$$$
=
 OpenBabel11112417223D

 37 43  0  0  1  0  0  0  0  0999 V2000
  195.1370  175.9280  141.8920 C   0  0  1  0  0  0  0  0  0  0  0  0
  191.8540  174.4810  144.0020 C   0  0  0  0  0  0  0  0  0  0  0  0
  188.4400  175.4480  142.7960 C   0  0  1  0  0  3  0  0  0  0  0  0
  194.2310  174.3190  143.6440 C   0  0  0  0  0  0  0  0  0  0  0  0
  190.8690  175.3680  143.6280 C   0  0  0  0  0  0  0  0  0  0  0  0
  193.0180  174.9550  143.4790 C   0  0  0  0  0  0  0  0  0  0  0  0
  189.4510  175.2130  143.8440 N   0  0  0  0  0  0  0  0  0  0  0  0
  194.2470  173.1400  144.4170 C   0  0  0  0  0  3  0  0  0  0  0  0
  192.8320  176.0810  142.7850 N   0  0  0  0  0  0  0  0  0  0  0  0
  194.8590  175.1120  140.6410 C   0  0  0  0  0  1  0  0  0  0  0  0
  190.5390  172.8580  145.3860 C   0  0  0  0  0  2  0  0  0  0  0  0
  193.0390  172.6420  144.9760 C   0  0  0  0  0  3  0  0  0  0  0  0
  193.9200  176.8440  142.1790 C   0  0  0  0  0  2  0  0  0  0  0  0
  188.5240  176.8380  142.1630 C   0  0  2  0  0  0  0  0  0  0  0  0
  189.0160  175.6250  141.3910 C   0  0  0  0  0  2  0  0  0  0  0  0
  191.8180  173.3220  144.7700 C   0  0  0  0  0  0  0  0  0  0  0  0
  191.5120  176.3590  142.8870 C   0  0  0  0  0  0  0  0  0  0  0  0
  195.4600  174.9680  143.0670 C   0  0  0  0  0  2  0  0  0  0  0  0
  188.8970  174.8030  145.1460 C   0  0  1  0  0  3  0  0  0  0  0  0
  196.2510  176.7320  141.6530 O   0  0  0  0  0  1  0  0  0  0  0  0
  189.5640  177.8430  142.6800 C   0  0  0  0  0  2  0  0  0  0  0  0
  190.9010  177.4850  142.3380 O   0  0  0  0  0  0  0  0  0  0  0  0
  189.8510  174.0310  146.0760 C   0  0  0  0  0  2  0  0  0  0  0  0
  189.1470  176.8770  146.5190 C   0  0  0  0  0  3  0  0  0  0  0  0
  188.3040  175.9810  145.8530 C   0  0  0  0  0  0  0  0  0  0  0  0
  186.9150  176.1660  145.9020 C   0  0  0  0  0  3  0  0  0  0  0  0
  184.9040  177.4390  146.6560 C   0  0  0  0  0  1  0  0  0  0  0  0
  187.2220  178.1420  147.2660 C   0  0  0  0  0  3  0  0  0  0  0  0
  186.3760  177.2460  146.6050 C   0  0  0  0  0  0  0  0  0  0  0  0
  188.6070  177.9580  147.2230 C   0  0  0  0  0  3  0  0  0  0  0  0
  184.5890  178.6170  141.3580 O   0  0  0  0  0  0  0  0  0  0  0  0
  185.0790  178.5750  142.5180 C   0  0  0  0  0  0  0  0  0  0  0  0
  187.1910  177.3730  141.7660 C   0  0  0  0  0  0  0  0  0  0  0  0
  186.3590  177.9850  142.7590 N   0  0  0  0  0  2  0  0  0  0  0  0
  186.8270  177.3180  140.5590 O   0  0  0  0  0  0  0  0  0  0  0  0
  185.1420  180.0930  144.3190 O   0  0  0  0  0  1  0  0  0  0  0  0
  184.3290  179.1770  143.6530 C   0  0  0  0  0  2  0  0  0  0  0  0
  1 10  1  6  0  0  0
  1 13  1  0  0  0  0
  1 18  1  0  0  0  0
  2 16  1  0  0  0  0
  3 15  1  6  0  0  0
  3  7  1  0  0  0  0
  4  8  2  0  0  0  0
  5  7  1  0  0  0  0
  5  2  1  0  0  0  0
  6  4  1  0  0  0  0
  6  2  2  0  0  0  0
  7 19  1  0  0  0  0
  8 12  1  0  0  0  0
  9 17  1  0  0  0  0
  9  6  1  0  0  0  0
 11 23  1  0  0  0  0
 13  9  1  0  0  0  0
 14 33  1  6  0  0  0
 14 21  1  0  0  0  0
 14  3  1  0  0  0  0
 15 14  1  0  0  0  0
 16 12  2  0  0  0  0
 16 11  1  0  0  0  0
 17  5  2  0  0  0  0
 18  4  1  0  0  0  0
 19 25  1  1  0  0  0
 19 23  1  0  0  0  0
 20  1  1  0  0  0  0
 22 21  1  0  0  0  0
 22 17  1  0  0  0  0
 24 30  1  0  0  0  0
 25 26  1  0  0  0  0
 25 24  2  0  0  0  0
 26 29  2  0  0  0  0
 29 27  1  0  0  0  0
 29 28  1  0  0  0  0
 30 28  2  0  0  0  0
 31 32  2  0  0  0  0
 32 34  1  0  0  0  0
 32 37  1  0  0  0  0
 33 34  1  0  0  0  0
 35 33  2  0  0  0  0
 37 36  1  0  0  0  0
M  END
>  <MODEL>
4

>  <REMARK>
 VINA RESULT:      -7.9      1.607      7.596
  Name = 
  3 active torsions:
  status: ('A' for Active; 'I' for Inactive)
    1  A    between atoms: C_4  and  C_37
    2  A    between atoms: C_8  and  C_18
    3  A    between atoms: C_23  and  C_30
                            x       y       z     vdW  Elec       q    Type
                         _______ _______ _______ _____ _____    ______ ____

>  <TORSDO>
F 3

$$$$
=
 OpenBabel11112417223D

 37 43  0  0  1  0  0  0  0  0999 V2000
  186.0320  177.5340  142.5980 C   0  0  1  0  0  0  0  0  0  0  0  0
  188.9440  176.2330  145.2710 C   0  0  0  0  0  0  0  0  0  0  0  0
  192.5200  176.3590  144.1540 C   0  0  1  0  0  3  0  0  0  0  0  0
  186.6380  176.8620  144.9780 C   0  0  0  0  0  0  0  0  0  0  0  0
  189.9970  175.9590  144.4260 C   0  0  0  0  0  0  0  0  0  0  0  0
  187.8800  176.5280  144.4770 C   0  0  0  0  0  0  0  0  0  0  0  0
  191.3660  175.7190  144.8130 N   0  0  0  0  0  0  0  0  0  0  0  0
  186.4810  176.8630  146.3780 C   0  0  0  0  0  3  0  0  0  0  0  0
  188.1920  176.4720  143.1800 N   0  0  0  0  0  0  0  0  0  0  0  0
  186.4590  178.9910  142.6380 C   0  0  0  0  0  1  0  0  0  0  0  0
  190.0060  175.8320  147.5050 C   0  0  0  0  0  2  0  0  0  0  0  0
  187.5830  176.5460  147.2160 C   0  0  0  0  0  3  0  0  0  0  0  0
  187.2220  176.6720  142.1060 C   0  0  0  0  0  2  0  0  0  0  0  0
  192.5650  176.1360  142.6420 C   0  0  2  0  0  0  0  0  0  0  0  0
  192.1520  177.4900  143.1940 C   0  0  0  0  0  2  0  0  0  0  0  0
  188.8400  176.2220  146.6580 C   0  0  0  0  0  0  0  0  0  0  0  0
  189.4930  176.1010  143.1330 C   0  0  0  0  0  0  0  0  0  0  0  0
  185.5200  177.1130  144.0010 C   0  0  0  0  0  2  0  0  0  0  0  0
  191.7200  174.8020  145.9110 C   0  0  1  0  0  3  0  0  0  0  0  0
  184.9860  177.4090  141.6860 O   0  0  0  0  0  1  0  0  0  0  0  0
  191.4910  175.2640  141.9730 C   0  0  0  0  0  2  0  0  0  0  0  0
  190.2060  175.8810  141.9560 O   0  0  0  0  0  0  0  0  0  0  0  0
  190.6240  174.5480  146.9610 C   0  0  0  0  0  2  0  0  0  0  0  0
  191.3920  172.6930  144.6110 C   0  0  0  0  0  3  0  0  0  0  0  0
  192.2410  173.5110  145.3630 C   0  0  0  0  0  0  0  0  0  0  0  0
  193.5490  173.0880  145.6400 C   0  0  0  0  0  3  0  0  0  0  0  0
  195.3900  171.4120  145.4530 C   0  0  0  0  0  1  0  0  0  0  0  0
  193.1530  171.0450  144.4030 C   0  0  0  0  0  3  0  0  0  0  0  0
  194.0040  171.8580  145.1580 C   0  0  0  0  0  0  0  0  0  0  0  0
  191.8480  171.4620  144.1300 C   0  0  0  0  0  3  0  0  0  0  0  0
  196.4920  175.7950  140.7050 O   0  0  0  0  0  0  0  0  0  0  0  0
  195.4340  175.4080  140.1420 C   0  0  0  0  0  0  0  0  0  0  0  0
  193.9550  176.0380  142.1130 C   0  0  0  0  0  0  0  0  0  0  0  0
  194.1660  175.5220  140.7940 N   0  0  0  0  0  2  0  0  0  0  0  0
  194.9220  176.4460  142.8140 O   0  0  0  0  0  0  0  0  0  0  0  0
  196.6640  175.2900  138.1370 O   0  0  0  0  0  1  0  0  0  0  0  0
  195.4980  174.8530  138.7640 C   0  0  0  0  0  2  0  0  0  0  0  0
  1 10  1  1  0  0  0
  1 18  1  0  0  0  0
  2 16  1  0  0  0  0
  3 15  1  6  0  0  0
  3  7  1  0  0  0  0
  4  8  2  0  0  0  0
  5  7  1  0  0  0  0
  5  2  1  0  0  0  0
  6  4  1  0  0  0  0
  6  2  2  0  0  0  0
  7 19  1  0  0  0  0
  8 12  1  0  0  0  0
  9  6  1  0  0  0  0
 13  1  1  0  0  0  0
 13  9  1  0  0  0  0
 14 33  1  6  0  0  0
 14 15  1  0  0  0  0
 14  3  1  0  0  0  0
 16 12  2  0  0  0  0
 16 11  1  0  0  0  0
 17  9  1  0  0  0  0
 17  5  2  0  0  0  0
 18  4  1  0  0  0  0
 19 25  1  6  0  0  0
 19 23  1  0  0  0  0
 20  1  1  0  0  0  0
 21 14  1  0  0  0  0
 22 21  1  0  0  0  0
 22 17  1  0  0  0  0
 23 11  1  0  0  0  0
 24 25  1  0  0  0  0
 25 26  2  0  0  0  0
 28 29  2  0  0  0  0
 29 27  1  0  0  0  0
 29 26  1  0  0  0  0
 30 28  1  0  0  0  0
 30 24  2  0  0  0  0
 32 31  2  0  0  0  0
 32 34  1  0  0  0  0
 33 35  2  0  0  0  0
 34 33  1  0  0  0  0
 36 37  1  0  0  0  0
 37 32  1  0  0  0  0
M  END
>  <MODEL>
5

>  <REMARK>
 VINA RESULT:      -7.8      1.195      1.647
  Name = 
  3 active torsions:
  status: ('A' for Active; 'I' for Inactive)
    1  A    between atoms: C_4  and  C_37
    2  A    between atoms: C_8  and  C_18
    3  A    between atoms: C_23  and  C_30
                            x       y       z     vdW  Elec       q    Type
                         _______ _______ _______ _____ _____    ______ ____

>  <TORSDO>
F 3

$$$$
=
 OpenBabel11112417223D

 37 43  0  0  1  0  0  0  0  0999 V2000
  197.0930  175.0870  140.0040 C   0  0  1  0  0  0  0  0  0  0  0  0
  194.9580  173.3310  143.1140 C   0  0  0  0  0  0  0  0  0  0  0  0
  191.2180  173.5450  143.0020 C   0  0  1  0  0  3  0  0  0  0  0  0
  197.0990  173.5490  142.0320 C   0  0  0  0  0  0  0  0  0  0  0  0
  193.7480  173.9840  143.0270 C   0  0  0  0  0  0  0  0  0  0  0  0
  195.7900  173.9410  142.2270 C   0  0  0  0  0  0  0  0  0  0  0  0
  192.5220  173.6090  143.6870 N   0  0  0  0  0  0  0  0  0  0  0  0
  197.5830  172.4850  142.8190 C   0  0  0  0  0  3  0  0  0  0  0  0
  195.1820  174.9320  141.5710 N   0  0  0  0  0  0  0  0  0  0  0  0
  196.6230  174.1000  138.9490 C   0  0  0  0  0  1  0  0  0  0  0  0
  194.4740  171.6670  144.9240 C   0  0  0  0  0  2  0  0  0  0  0  0
  196.7250  171.8480  143.7560 C   0  0  0  0  0  3  0  0  0  0  0  0
  195.8610  175.8020  140.6130 C   0  0  0  0  0  2  0  0  0  0  0  0
  190.8260  174.8490  142.3060 C   0  0  2  0  0  0  0  0  0  0  0  0
  191.2970  173.6630  141.4800 C   0  0  0  0  0  2  0  0  0  0  0  0
  195.3880  172.2760  143.9130 C   0  0  0  0  0  0  0  0  0  0  0  0
  193.9260  174.9850  142.0700 C   0  0  0  0  0  0  0  0  0  0  0  0
  197.9410  174.3350  141.0640 C   0  0  0  0  0  2  0  0  0  0  0  0
  192.4800  173.2560  145.1170 C   0  0  1  0  0  3  0  0  0  0  0  0
  197.8990  176.0410  139.3840 O   0  0  0  0  0  1  0  0  0  0  0  0
  191.7500  176.0720  142.4150 C   0  0  0  0  0  2  0  0  0  0  0  0
  192.9650  175.9180  141.6860 O   0  0  0  0  0  0  0  0  0  0  0  0
  193.8030  172.7710  145.7360 C   0  0  0  0  0  2  0  0  0  0  0  0
  192.7560  175.3580  146.4410 C   0  0  0  0  0  3  0  0  0  0  0  0
  191.9030  174.3830  145.9140 C   0  0  0  0  0  0  0  0  0  0  0  0
  190.5270  174.4420  146.1840 C   0  0  0  0  0  3  0  0  0  0  0  0
  188.5550  175.5370  147.2540 C   0  0  0  0  0  1  0  0  0  0  0  0
  190.8680  176.4520  147.4900 C   0  0  0  0  0  3  0  0  0  0  0  0
  190.0120  175.4770  146.9690 C   0  0  0  0  0  0  0  0  0  0  0  0
  192.2390  176.3930  147.2260 C   0  0  0  0  0  3  0  0  0  0  0  0
  186.5740  175.9150  142.5870 O   0  0  0  0  0  0  0  0  0  0  0  0
  187.4390  176.4040  143.3610 C   0  0  0  0  0  0  0  0  0  0  0  0
  189.3570  175.0950  142.3240 C   0  0  0  0  0  0  0  0  0  0  0  0
  188.8170  176.0380  143.2570 N   0  0  0  0  0  2  0  0  0  0  0  0
  188.6120  174.5030  141.4950 O   0  0  0  0  0  0  0  0  0  0  0  0
  185.9490  176.9070  145.1160 O   0  0  0  0  0  1  0  0  0  0  0  0
  187.0250  177.4040  144.3820 C   0  0  0  0  0  2  0  0  0  0  0  0
  1 10  1  6  0  0  0
  1 13  1  0  0  0  0
  1 18  1  0  0  0  0
  2 16  1  0  0  0  0
  3 15  1  6  0  0  0
  3  7  1  0  0  0  0
  4  6  1  0  0  0  0
  4  8  2  0  0  0  0
  5  2  1  0  0  0  0
  5  7  1  0  0  0  0
  6  2  2  0  0  0  0
  7 19  1  0  0  0  0
  8 12  1  0  0  0  0
  9 17  1  0  0  0  0
  9  6  1  0  0  0  0
 11 23  1  0  0  0  0
 12 16  2  0  0  0  0
 13  9  1  0  0  0  0
 14 33  1  6  0  0  0
 14 21  1  0  0  0  0
 14  3  1  0  0  0  0
 15 14  1  0  0  0  0
 16 11  1  0  0  0  0
 17  5  2  0  0  0  0
 18  4  1  0  0  0  0
 19 23  1  0  0  0  0
 19 25  1  1  0  0  0
 20  1  1  0  0  0  0
 22 17  1  0  0  0  0
 22 21  1  0  0  0  0
 24 30  1  0  0  0  0
 25 26  1  0  0  0  0
 25 24  2  0  0  0  0
 26 29  2  0  0  0  0
 29 27  1  0  0  0  0
 29 28  1  0  0  0  0
 30 28  2  0  0  0  0
 31 32  2  0  0  0  0
 32 37  1  0  0  0  0
 33 34  1  0  0  0  0
 34 32  1  0  0  0  0
 35 33  2  0  0  0  0
 37 36  1  0  0  0  0
M  END
>  <MODEL>
6

>  <REMARK>
 VINA RESULT:      -7.4      2.016      7.789
  Name = 
  3 active torsions:
  status: ('A' for Active; 'I' for Inactive)
    1  A    between atoms: C_4  and  C_37
    2  A    between atoms: C_8  and  C_18
    3  A    between atoms: C_23  and  C_30
                            x       y       z     vdW  Elec       q    Type
                         _______ _______ _______ _____ _____    ______ ____

>  <TORSDO>
F 3

$$$$
=
 OpenBabel11112417223D

 37 43  0  0  1  0  0  0  0  0999 V2000
  190.6580  172.1990  138.3670 C   0  0  1  0  0  0  0  0  0  0  0  0
  192.0530  171.9340  142.2780 C   0  0  0  0  0  0  0  0  0  0  0  0
  190.3590  174.0310  144.8810 C   0  0  1  0  0  3  0  0  0  0  0  0
  192.0970  170.9710  140.0710 C   0  0  0  0  0  0  0  0  0  0  0  0
  191.5870  173.1100  142.8220 C   0  0  0  0  0  0  0  0  0  0  0  0
  191.7770  171.9880  140.9470 C   0  0  0  0  0  0  0  0  0  0  0  0
  191.5430  173.4480  144.2240 N   0  0  0  0  0  0  0  0  0  0  0  0
  192.7660  169.8480  140.5950 C   0  0  0  0  0  3  0  0  0  0  0  0
  191.1520  173.1190  140.6120 N   0  0  0  0  0  0  0  0  0  0  0  0
  189.3180  171.5460  138.6610 C   0  0  0  0  0  1  0  0  0  0  0  0
  193.0590  170.8390  144.2960 C   0  0  0  0  0  2  0  0  0  0  0  0
  193.0690  169.7850  141.9820 C   0  0  0  0  0  3  0  0  0  0  0  0
  190.8030  173.4720  139.2380 C   0  0  0  0  0  2  0  0  0  0  0  0
  189.8610  175.3180  144.2210 C   0  0  2  0  0  0  0  0  0  0  0  0
  189.0920  174.0210  144.0260 C   0  0  0  0  0  2  0  0  0  0  0  0
  192.7100  170.8460  142.8440 C   0  0  0  0  0  0  0  0  0  0  0  0
  191.0470  173.8320  141.7570 C   0  0  0  0  0  0  0  0  0  0  0  0
  191.7920  171.1680  138.6100 C   0  0  0  0  0  2  0  0  0  0  0  0
  192.6950  173.2330  145.1170 C   0  0  1  0  0  3  0  0  0  0  0  0
  190.6780  172.5750  137.0240 O   0  0  0  0  0  1  0  0  0  0  0  0
  190.6260  175.8970  143.0210 C   0  0  0  0  0  2  0  0  0  0  0  0
  190.4910  175.1070  141.8420 O   0  0  0  0  0  0  0  0  0  0  0  0
  193.7110  172.1670  144.6690 C   0  0  0  0  0  2  0  0  0  0  0  0
  192.9830  175.2860  146.5130 C   0  0  0  0  0  3  0  0  0  0  0  0
  193.3800  174.5320  145.4040 C   0  0  0  0  0  0  0  0  0  0  0  0
  194.3720  175.0270  144.5440 C   0  0  0  0  0  3  0  0  0  0  0  0
  196.0180  176.7860  143.8900 C   0  0  0  0  0  1  0  0  0  0  0  0
  194.5720  177.0130  145.9150 C   0  0  0  0  0  3  0  0  0  0  0  0
  194.9680  176.2640  144.8020 C   0  0  0  0  0  0  0  0  0  0  0  0
  193.5810  176.5240  146.7700 C   0  0  0  0  0  3  0  0  0  0  0  0
  187.8250  177.9130  147.1210 O   0  0  0  0  0  0  0  0  0  0  0  0
  187.2070  177.0380  146.4580 C   0  0  0  0  0  0  0  0  0  0  0  0
  189.2840  176.2830  145.1980 C   0  0  0  0  0  0  0  0  0  0  0  0
  187.8890  176.2080  145.5130 N   0  0  0  0  0  2  0  0  0  0  0  0
  190.0330  177.1250  145.7650 O   0  0  0  0  0  0  0  0  0  0  0  0
  185.0280  177.6090  145.7690 O   0  0  0  0  0  1  0  0  0  0  0  0
  185.7500  176.8410  146.6820 C   0  0  0  0  0  2  0  0  0  0  0  0
  1 18  1  0  0  0  0
  1 10  1  1  0  0  0
  1 13  1  0  0  0  0
  2  5  1  0  0  0  0
  2 16  1  0  0  0  0
  3 15  1  6  0  0  0
  4  8  2  0  0  0  0
  4  6  1  0  0  0  0
  5  7  1  0  0  0  0
  6  2  2  0  0  0  0
  7  3  1  0  0  0  0
  7 19  1  0  0  0  0
  8 12  1  0  0  0  0
  9  6  1  0  0  0  0
  9 17  1  0  0  0  0
 11 23  1  0  0  0  0
 12 16  2  0  0  0  0
 13  9  1  0  0  0  0
 14  3  1  0  0  0  0
 14 33  1  1  0  0  0
 15 14  1  0  0  0  0
 16 11  1  0  0  0  0
 17 22  1  0  0  0  0
 17  5  2  0  0  0  0
 18  4  1  0  0  0  0
 19 25  1  6  0  0  0
 20  1  1  0  0  0  0
 21 14  1  0  0  0  0
 22 21  1  0  0  0  0
 23 19  1  0  0  0  0
 24 30  1  0  0  0  0
 25 24  2  0  0  0  0
 26 29  2  0  0  0  0
 26 25  1  0  0  0  0
 27 29  1  0  0  0  0
 28 30  2  0  0  0  0
 29 28  1  0  0  0  0
 32 37  1  0  0  0  0
 32 31  2  0  0  0  0
 33 34  1  0  0  0  0
 33 35  2  0  0  0  0
 34 32  1  0  0  0  0
 36 37  1  0  0  0  0
M  END
>  <MODEL>
7

>  <REMARK>
 VINA RESULT:      -7.4      3.091      6.899
  Name = 
  3 active torsions:
  status: ('A' for Active; 'I' for Inactive)
    1  A    between atoms: C_4  and  C_37
    2  A    between atoms: C_8  and  C_18
    3  A    between atoms: C_23  and  C_30
                            x       y       z     vdW  Elec       q    Type
                         _______ _______ _______ _____ _____    ______ ____

>  <TORSDO>
F 3

$$$$
=
 OpenBabel11112417223D

 37 43  0  0  1  0  0  0  0  0999 V2000
  189.4850  175.6390  146.2360 C   0  0  1  0  0  0  0  0  0  0  0  0
  193.4000  174.4820  145.4320 C   0  0  0  0  0  0  0  0  0  0  0  0
  193.9730  172.1370  142.5650 C   0  0  1  0  0  3  0  0  0  0  0  0
  191.9730  176.0010  146.6390 C   0  0  0  0  0  0  0  0  0  0  0  0
  193.2080  173.3250  144.7090 C   0  0  0  0  0  0  0  0  0  0  0  0
  192.1740  174.8680  145.8760 C   0  0  0  0  0  0  0  0  0  0  0  0
  194.2030  172.6200  143.9390 N   0  0  0  0  0  0  0  0  0  0  0  0
  193.1070  176.7620  146.9840 C   0  0  0  0  0  3  0  0  0  0  0  0
  191.2110  174.0370  145.4720 N   0  0  0  0  0  0  0  0  0  0  0  0
  189.3230  176.4480  144.9600 C   0  0  0  0  0  1  0  0  0  0  0  0
  195.8920  174.7210  145.2980 C   0  0  0  0  0  2  0  0  0  0  0  0
  194.3940  176.3630  146.5330 C   0  0  0  0  0  3  0  0  0  0  0  0
  189.8110  174.1700  145.8650 C   0  0  0  0  0  2  0  0  0  0  0  0
  192.7520  171.2260  142.4310 C   0  0  2  0  0  0  0  0  0  0  0  0
  192.6890  172.6560  141.9190 C   0  0  0  0  0  2  0  0  0  0  0  0
  194.5500  175.2010  145.7440 C   0  0  0  0  0  0  0  0  0  0  0  0
  191.8380  173.0660  144.7670 C   0  0  0  0  0  0  0  0  0  0  0  0
  190.5780  176.2960  147.1210 C   0  0  0  0  0  2  0  0  0  0  0  0
  195.5430  172.3250  144.4760 C   0  0  1  0  0  3  0  0  0  0  0  0
  188.2750  175.6650  146.9280 O   0  0  0  0  0  1  0  0  0  0  0  0
  191.9370  170.8640  143.6810 C   0  0  0  0  0  2  0  0  0  0  0  0
  191.1970  171.9660  144.2010 O   0  0  0  0  0  0  0  0  0  0  0  0
  196.0330  173.2360  145.6150 C   0  0  0  0  0  2  0  0  0  0  0  0
  196.2560  169.9770  144.0000 C   0  0  0  0  0  3  0  0  0  0  0  0
  195.6400  170.8840  144.8680 C   0  0  0  0  0  0  0  0  0  0  0  0
  195.0730  170.4250  146.0660 C   0  0  0  0  0  3  0  0  0  0  0  0
  194.5310  168.5850  147.6630 C   0  0  0  0  0  1  0  0  0  0  0  0
  195.7540  168.1660  145.5260 C   0  0  0  0  0  3  0  0  0  0  0  0
  195.1330  169.0680  146.3950 C   0  0  0  0  0  0  0  0  0  0  0  0
  196.3150  168.6190  144.3290 C   0  0  0  0  0  3  0  0  0  0  0  0
  193.0910  168.3600  139.1200 O   0  0  0  0  0  0  0  0  0  0  0  0
  192.2870  169.3290  139.0850 C   0  0  0  0  0  0  0  0  0  0  0  0
  192.9330  170.1660  141.3990 C   0  0  0  0  0  0  0  0  0  0  0  0
  192.1880  170.2470  140.1780 N   0  0  0  0  0  2  0  0  0  0  0  0
  193.7640  169.2370  141.5920 O   0  0  0  0  0  0  0  0  0  0  0  0
  190.1320  169.1680  138.1460 O   0  0  0  0  0  1  0  0  0  0  0  0
  191.4480  169.5430  137.8760 C   0  0  0  0  0  2  0  0  0  0  0  0
  1 10  1  6  0  0  0
  1 20  1  0  0  0  0
  1 18  1  0  0  0  0
  2 16  2  0  0  0  0
  2  6  1  0  0  0  0
  3 15  1  6  0  0  0
  3  7  1  0  0  0  0
  4  8  1  0  0  0  0
  4 18  1  0  0  0  0
  5 17  2  0  0  0  0
  5  2  1  0  0  0  0
  6  4  2  0  0  0  0
  7 19  1  0  0  0  0
  7  5  1  0  0  0  0
  9 13  1  0  0  0  0
  9  6  1  0  0  0  0
 11 23  1  0  0  0  0
 11 16  1  0  0  0  0
 12  8  2  0  0  0  0
 13  1  1  0  0  0  0
 14 33  1  6  0  0  0
 14  3  1  0  0  0  0
 14 21  1  0  0  0  0
 15 14  1  0  0  0  0
 16 12  1  0  0  0  0
 17  9  1  0  0  0  0
 19 25  1  1  0  0  0
 19 23  1  0  0  0  0
 21 22  1  0  0  0  0
 22 17  1  0  0  0  0
 24 30  2  0  0  0  0
 24 25  1  0  0  0  0
 25 26  2  0  0  0  0
 26 29  1  0  0  0  0
 28 29  2  0  0  0  0
 29 27  1  0  0  0  0
 30 28  1  0  0  0  0
 32 31  2  0  0  0  0
 32 34  1  0  0  0  0
 33 35  2  0  0  0  0
 34 33  1  0  0  0  0
 37 36  1  0  0  0  0
 37 32  1  0  0  0  0
M  END
>  <MODEL>
8

>  <REMARK>
 VINA RESULT:      -7.3      3.654      6.054
  Name = 
  3 active torsions:
  status: ('A' for Active; 'I' for Inactive)
    1  A    between atoms: C_4  and  C_37
    2  A    between atoms: C_8  and  C_18
    3  A    between atoms: C_23  and  C_30
                            x       y       z     vdW  Elec       q    Type
                         _______ _______ _______ _____ _____    ______ ____

>  <TORSDO>
F 3

$$$$
=
 OpenBabel11112417223D

 37 43  0  0  1  0  0  0  0  0999 V2000
  189.1160  176.5670  146.3940 C   0  0  1  0  0  0  0  0  0  0  0  0
  190.7340  174.6870  143.0530 C   0  0  0  0  0  0  0  0  0  0  0  0
  193.6550  172.3990  143.5810 C   0  0  1  0  0  3  0  0  0  0  0  0
  188.8880  175.9600  143.9320 C   0  0  0  0  0  0  0  0  0  0  0  0
  191.9940  174.3560  143.5000 C   0  0  0  0  0  0  0  0  0  0  0  0
  190.1650  175.4460  144.0280 C   0  0  0  0  0  0  0  0  0  0  0  0
  192.9220  173.4560  142.8600 N   0  0  0  0  0  0  0  0  0  0  0  0
  188.1690  175.6980  142.7490 C   0  0  0  0  0  3  0  0  0  0  0  0
  190.9780  175.6080  145.0740 N   0  0  0  0  0  0  0  0  0  0  0  0
  188.5740  175.2910  147.0130 C   0  0  0  0  0  1  0  0  0  0  0  0
  190.7350  173.6180  140.7860 C   0  0  0  0  0  2  0  0  0  0  0  0
  188.7580  174.9150  141.7190 C   0  0  0  0  0  3  0  0  0  0  0  0
  190.6520  176.4380  146.2300 C   0  0  0  0  0  2  0  0  0  0  0  0
  194.4700  172.9170  144.7680 C   0  0  2  0  0  0  0  0  0  0  0  0
  193.1740  172.1600  145.0120 C   0  0  0  0  0  2  0  0  0  0  0  0
  190.0650  174.3990  141.8670 C   0  0  0  0  0  0  0  0  0  0  0  0
  192.1210  174.9580  144.7530 C   0  0  0  0  0  0  0  0  0  0  0  0
  188.3850  176.8330  145.0500 C   0  0  0  0  0  2  0  0  0  0  0  0
  193.2120  173.5260  141.4170 C   0  0  1  0  0  3  0  0  0  0  0  0
  188.8490  177.6240  147.2630 O   0  0  0  0  0  1  0  0  0  0  0  0
  194.4990  174.4230  145.0650 C   0  0  0  0  0  2  0  0  0  0  0  0
  193.2560  174.9170  145.5600 O   0  0  0  0  0  0  0  0  0  0  0  0
  192.1310  174.1830  140.5400 C   0  0  0  0  0  2  0  0  0  0  0  0
  194.7190  175.5180  141.4900 C   0  0  0  0  0  3  0  0  0  0  0  0
  194.5450  174.1650  141.1850 C   0  0  0  0  0  0  0  0  0  0  0  0
  195.6010  173.4380  140.6160 C   0  0  0  0  0  3  0  0  0  0  0  0
  197.9410  173.2900  139.7610 C   0  0  0  0  0  1  0  0  0  0  0  0
  196.9970  175.4150  140.6750 C   0  0  0  0  0  3  0  0  0  0  0  0
  196.8250  174.0620  140.3640 C   0  0  0  0  0  0  0  0  0  0  0  0
  195.9450  176.1430  141.2370 C   0  0  0  0  0  3  0  0  0  0  0  0
  197.9410  170.3380  145.5340 O   0  0  0  0  0  0  0  0  0  0  0  0
  196.8070  170.0950  146.0260 C   0  0  0  0  0  0  0  0  0  0  0  0
  195.7290  172.1500  144.9830 C   0  0  0  0  0  0  0  0  0  0  0  0
  195.6920  170.9530  145.7680 N   0  0  0  0  0  2  0  0  0  0  0  0
  196.8000  172.5370  144.4400 O   0  0  0  0  0  0  0  0  0  0  0  0
  195.3760  168.9400  147.4970 O   0  0  0  0  0  1  0  0  0  0  0  0
  196.6160  168.8810  146.8620 C   0  0  0  0  0  2  0  0  0  0  0  0
  1 10  1  1  0  0  0
  1 20  1  0  0  0  0
  2  5  1  0  0  0  0
  2  6  1  0  0  0  0
  3 14  1  0  0  0  0
  3 15  1  1  0  0  0
  4  6  2  0  0  0  0
  4 18  1  0  0  0  0
  5 17  2  0  0  0  0
  6  9  1  0  0  0  0
  7  5  1  0  0  0  0
  7  3  1  0  0  0  0
  8  4  1  0  0  0  0
  9 13  1  0  0  0  0
 11 16  1  0  0  0  0
 12 16  1  0  0  0  0
 12  8  2  0  0  0  0
 13  1  1  0  0  0  0
 14 33  1  1  0  0  0
 14 15  1  0  0  0  0
 14 21  1  0  0  0  0
 16  2  2  0  0  0  0
 17  9  1  0  0  0  0
 17 22  1  0  0  0  0
 18  1  1  0  0  0  0
 19 25  1  1  0  0  0
 19  7  1  0  0  0  0
 21 22  1  0  0  0  0
 23 11  1  0  0  0  0
 23 19  1  0  0  0  0
 25 24  2  0  0  0  0
 26 25  1  0  0  0  0
 27 29  1  0  0  0  0
 28 30  2  0  0  0  0
 29 26  2  0  0  0  0
 29 28  1  0  0  0  0
 30 24  1  0  0  0  0
 31 32  2  0  0  0  0
 32 37  1  0  0  0  0
 33 34  1  0  0  0  0
 34 32  1  0  0  0  0
 35 33  2  0  0  0  0
 37 36  1  0  0  0  0
M  END
>  <MODEL>
9

>  <REMARK>
 VINA RESULT:      -7.2      2.693      5.389
  Name = 
  3 active torsions:
  status: ('A' for Active; 'I' for Inactive)
    1  A    between atoms: C_4  and  C_37
    2  A    between atoms: C_8  and  C_18
    3  A    between atoms: C_23  and  C_30
                            x       y       z     vdW  Elec       q    Type
                         _______ _______ _______ _____ _____    ______ ____

>  <TORSDO>
F 3

$$$$
