=
 OpenBabel11112417413D

 28 32  0  0  1  0  0  0  0  0999 V2000
  190.3450  175.9090  143.5860 C   0  0  0  0  0  0  0  0  0  0  0  0
  188.4910  177.8240  141.5830 O   0  0  0  0  0  0  0  0  0  0  0  0
  186.4240  177.6230  147.8660 O   0  0  0  0  0  1  0  0  0  0  0  0
  190.1200  173.3320  142.5000 C   0  0  0  0  0  3  0  0  0  0  0  0
  185.6220  177.9700  145.5930 C   0  0  2  0  0  3  0  0  0  0  0  0
  190.5590  177.2580  144.1910 C   0  0  0  0  0  2  0  0  0  0  0  0
  187.8100  175.8870  140.2300 O   0  0  0  0  0  0  0  0  0  0  0  0
  187.3520  176.9090  141.2310 S   0  0  0  0  0  0  0  0  0  0  0  0
  184.8250  177.9830  141.2480 C   0  0  0  0  0  0  0  0  0  0  0  0
  186.7060  176.0700  142.6800 C   0  0  2  0  0  3  0  0  0  0  0  0
  190.7130  176.7160  147.8280 O   0  0  0  0  0  0  0  0  0  0  0  0
  187.7330  177.3560  144.4880 C   0  0  1  0  0  3  0  0  0  0  0  0
  184.6390  177.5300  142.4530 N   0  0  0  0  0  0  0  0  0  0  0  0
  186.0680  177.8370  140.5640 N   0  0  0  0  0  2  0  0  0  0  0  0
  190.2230  176.6960  146.6710 C   0  0  0  0  0  0  0  0  0  0  0  0
  189.0590  175.3290  143.4110 C   0  0  0  0  0  0  0  0  0  0  0  0
  186.4970  177.1590  146.5490 C   0  0  1  0  0  3  0  0  0  0  0  0
  183.6900  178.6320  140.5410 C   0  0  0  0  0  1  0  0  0  0  0  0
  188.8250  176.1880  146.4930 C   0  0  0  0  0  2  0  0  0  0  0  0
  188.9750  174.0340  142.8780 C   0  0  0  0  0  3  0  0  0  0  0  0
  191.4860  175.1930  143.2020 C   0  0  0  0  0  3  0  0  0  0  0  0
  191.3760  173.9140  142.6590 C   0  0  0  0  0  3  0  0  0  0  0  0
  191.0220  177.1450  145.5690 N   0  0  0  0  0  2  0  0  0  0  0  0
  186.3280  177.9190  144.2430 C   0  0  1  0  0  3  0  0  0  0  0  0
  187.8990  177.2970  146.0060 C   0  0  1  0  0  3  0  0  0  0  0  0
  185.6260  176.9110  143.3440 C   0  0  2  0  0  3  0  0  0  0  0  0
  185.4930  179.4290  146.0130 C   0  0  0  0  0  1  0  0  0  0  0  0
  187.7400  175.9830  143.7960 C   0  0  2  0  0  3  0  0  0  0  0  0
  1  6  1  0  0  0  0
  4 22  2  0  0  0  0
  4 20  1  0  0  0  0
  5 27  1  1  0  0  0
  5 17  1  0  0  0  0
  6 23  1  0  0  0  0
  7  8  2  0  0  0  0
  8  2  2  0  0  0  0
  9 13  2  0  0  0  0
 10  8  1  6  0  0  0
 10 26  1  0  0  0  0
 10 28  1  0  0  0  0
 12 25  1  0  0  0  0
 13 26  1  0  0  0  0
 14  8  1  0  0  0  0
 14  9  1  0  0  0  0
 15 11  2  0  0  0  0
 16  1  1  0  0  0  0
 16 28  1  0  0  0  0
 17  3  1  0  0  0  0
 18  9  1  0  0  0  0
 19 15  1  0  0  0  0
 20 16  2  0  0  0  0
 21  1  2  0  0  0  0
 22 21  1  0  0  0  0
 23 15  1  0  0  0  0
 24 12  1  0  0  0  0
 24  5  1  0  0  0  0
 25 19  1  0  0  0  0
 25 17  1  0  0  0  0
 26 24  1  0  0  0  0
 28 12  1  0  0  0  0
M  END
>  <MODEL>
1

>  <REMARK>
 VINA RESULT:      -9.5      0.000      0.000
  Name = 
  0 active torsions:
  status: ('A' for Active; 'I' for Inactive)
                            x       y       z     vdW  Elec       q    Type
                         _______ _______ _______ _____ _____    ______ ____

>  <TORSDO>
F 0

$$$$
=
 OpenBabel11112417413D

 28 32  0  0  1  0  0  0  0  0999 V2000
  186.9400  178.3100  144.1770 C   0  0  0  0  0  0  0  0  0  0  0  0
  190.1290  178.0540  145.1160 O   0  0  0  0  0  0  0  0  0  0  0  0
  188.3380  173.8550  140.3270 O   0  0  0  0  0  1  0  0  0  0  0  0
  185.4750  177.6890  146.4880 C   0  0  0  0  0  3  0  0  0  0  0  0
  189.9210  174.1120  142.1590 C   0  0  2  0  0  3  0  0  0  0  0  0
  187.6470  178.7050  142.9220 C   0  0  0  0  0  2  0  0  0  0  0  0
  189.4880  177.3420  147.3810 O   0  0  0  0  0  0  0  0  0  0  0  0
  190.0870  176.8990  146.0770 S   0  0  0  0  0  0  0  0  0  0  0  0
  192.0960  175.0360  145.8910 C   0  0  0  0  0  0  0  0  0  0  0  0
  189.1330  175.5290  145.4210 C   0  0  2  0  0  3  0  0  0  0  0  0
  185.6490  177.3130  140.1620 O   0  0  0  0  0  0  0  0  0  0  0  0
  188.9160  176.1650  143.0700 C   0  0  1  0  0  3  0  0  0  0  0  0
  191.3300  174.2810  145.1590 N   0  0  0  0  0  0  0  0  0  0  0  0
  191.6870  176.3270  146.3410 N   0  0  0  0  0  2  0  0  0  0  0  0
  186.3390  177.3100  141.2130 C   0  0  0  0  0  0  0  0  0  0  0  0
  187.1560  177.0690  144.8350 C   0  0  0  0  0  0  0  0  0  0  0  0
  188.4840  174.2590  141.6570 C   0  0  1  0  0  3  0  0  0  0  0  0
  193.4240  174.5190  146.3130 C   0  0  0  0  0  1  0  0  0  0  0  0
  186.6650  175.9950  141.8520 C   0  0  0  0  0  2  0  0  0  0  0  0
  186.4010  176.7770  145.9810 C   0  0  0  0  0  3  0  0  0  0  0  0
  186.0070  179.2170  144.6970 C   0  0  0  0  0  3  0  0  0  0  0  0
  185.2810  178.9110  145.8470 C   0  0  0  0  0  3  0  0  0  0  0  0
  186.7740  178.5600  141.7630 N   0  0  0  0  0  2  0  0  0  0  0  0
  190.1110  175.2130  143.1960 C   0  0  1  0  0  3  0  0  0  0  0  0
  188.1640  175.7260  141.8140 C   0  0  1  0  0  3  0  0  0  0  0  0
  190.0180  174.6110  144.5920 C   0  0  2  0  0  3  0  0  0  0  0  0
  190.9500  174.3120  141.0530 C   0  0  0  0  0  1  0  0  0  0  0  0
  188.1220  175.9870  144.3750 C   0  0  2  0  0  3  0  0  0  0  0  0
  1 21  2  0  0  0  0
  1 16  1  0  0  0  0
  2  8  2  0  0  0  0
  3 17  1  0  0  0  0
  5 27  1  6  0  0  0
  5 24  1  0  0  0  0
  6  1  1  0  0  0  0
  8 14  1  0  0  0  0
  8  7  2  0  0  0  0
  9 18  1  0  0  0  0
  9 14  1  0  0  0  0
 10  8  1  6  0  0  0
 11 15  2  0  0  0  0
 12 24  1  0  0  0  0
 12 28  1  0  0  0  0
 13  9  2  0  0  0  0
 15 23  1  0  0  0  0
 15 19  1  0  0  0  0
 16 20  2  0  0  0  0
 17 25  1  0  0  0  0
 17  5  1  0  0  0  0
 20  4  1  0  0  0  0
 21 22  1  0  0  0  0
 22  4  2  0  0  0  0
 23  6  1  0  0  0  0
 24 26  1  0  0  0  0
 25 19  1  0  0  0  0
 25 12  1  0  0  0  0
 26 13  1  0  0  0  0
 26 10  1  0  0  0  0
 28 16  1  0  0  0  0
 28 10  1  0  0  0  0
M  END
>  <MODEL>
2

>  <REMARK>
 VINA RESULT:      -8.4      2.021      6.588
  Name = 
  0 active torsions:
  status: ('A' for Active; 'I' for Inactive)
                            x       y       z     vdW  Elec       q    Type
                         _______ _______ _______ _____ _____    ______ ____

>  <TORSDO>
F 0

$$$$
=
 OpenBabel11112417413D

 28 32  0  0  1  0  0  0  0  0999 V2000
  190.1690  174.5310  141.7520 C   0  0  0  0  0  0  0  0  0  0  0  0
  188.9070  177.6160  141.8650 O   0  0  0  0  0  0  0  0  0  0  0  0
  190.0850  174.9160  147.7910 O   0  0  0  0  0  1  0  0  0  0  0  0
  188.1920  173.0100  140.4670 C   0  0  0  0  0  3  0  0  0  0  0  0
  188.6650  176.5500  146.6760 C   0  0  2  0  0  3  0  0  0  0  0  0
  191.2900  175.2820  142.3920 C   0  0  0  0  0  2  0  0  0  0  0  0
  186.8080  176.8810  140.8170 O   0  0  0  0  0  0  0  0  0  0  0  0
  187.4450  177.3540  142.0920 S   0  0  0  0  0  0  0  0  0  0  0  0
  186.1550  178.9340  143.9310 C   0  0  0  0  0  0  0  0  0  0  0  0
  187.1840  176.1270  143.3750 C   0  0  2  0  0  3  0  0  0  0  0  0
  192.7410  172.9920  144.8820 O   0  0  0  0  0  0  0  0  0  0  0  0
  189.4030  176.0040  144.3930 C   0  0  1  0  0  3  0  0  0  0  0  0
  186.3220  178.0160  144.8380 N   0  0  0  0  0  0  0  0  0  0  0  0
  186.6860  178.8070  142.6130 N   0  0  0  0  0  2  0  0  0  0  0  0
  191.8570  173.6850  144.3170 C   0  0  0  0  0  0  0  0  0  0  0  0
  188.8500  174.4990  142.2820 C   0  0  0  0  0  0  0  0  0  0  0  0
  189.3130  175.1650  146.6520 C   0  0  1  0  0  3  0  0  0  0  0  0
  185.3450  180.1340  144.2630 C   0  0  0  0  0  1  0  0  0  0  0  0
  190.4930  173.7450  144.9320 C   0  0  0  0  0  2  0  0  0  0  0  0
  187.8830  173.7200  141.6270 C   0  0  0  0  0  3  0  0  0  0  0  0
  190.4640  173.8140  140.5850 C   0  0  0  0  0  3  0  0  0  0  0  0
  189.4820  173.0610  139.9440 C   0  0  0  0  0  3  0  0  0  0  0  0
  192.1840  174.3780  143.1060 N   0  0  0  0  0  2  0  0  0  0  0  0
  188.5560  176.9800  145.2170 C   0  0  1  0  0  3  0  0  0  0  0  0
  190.1690  175.1570  145.4090 C   0  0  1  0  0  3  0  0  0  0  0  0
  187.1220  176.7900  144.7420 C   0  0  2  0  0  3  0  0  0  0  0  0
  189.5100  177.5780  147.4170 C   0  0  0  0  0  1  0  0  0  0  0  0
  188.3930  175.2140  143.5440 C   0  0  2  0  0  3  0  0  0  0  0  0
  1 16  1  0  0  0  0
  1  6  1  0  0  0  0
  2  8  2  0  0  0  0
  4 20  1  0  0  0  0
  5 27  1  1  0  0  0
  6 23  1  0  0  0  0
  7  8  2  0  0  0  0
  8 14  1  0  0  0  0
  9 18  1  0  0  0  0
  9 13  2  0  0  0  0
 10  8  1  6  0  0  0
 10 28  1  0  0  0  0
 10 26  1  0  0  0  0
 12 24  1  0  0  0  0
 12 25  1  0  0  0  0
 14  9  1  0  0  0  0
 15 11  2  0  0  0  0
 15 19  1  0  0  0  0
 16 28  1  0  0  0  0
 17  5  1  0  0  0  0
 17  3  1  0  0  0  0
 19 25  1  0  0  0  0
 20 16  2  0  0  0  0
 21  1  2  0  0  0  0
 22  4  2  0  0  0  0
 22 21  1  0  0  0  0
 23 15  1  0  0  0  0
 24  5  1  0  0  0  0
 25 17  1  0  0  0  0
 26 13  1  0  0  0  0
 26 24  1  0  0  0  0
 28 12  1  0  0  0  0
M  END
>  <MODEL>
3

>  <REMARK>
 VINA RESULT:      -8.4      2.012      3.037
  Name = 
  0 active torsions:
  status: ('A' for Active; 'I' for Inactive)
                            x       y       z     vdW  Elec       q    Type
                         _______ _______ _______ _____ _____    ______ ____

>  <TORSDO>
F 0

$$$$
=
 OpenBabel11112417413D

 28 32  0  0  1  0  0  0  0  0999 V2000
  189.0630  176.9730  144.5420 C   0  0  0  0  0  0  0  0  0  0  0  0
  192.3300  177.1600  145.1850 O   0  0  0  0  0  0  0  0  0  0  0  0
  190.7310  172.9880  140.3040 O   0  0  0  0  0  1  0  0  0  0  0  0
  187.9320  176.0180  146.9250 C   0  0  0  0  0  3  0  0  0  0  0  0
  192.4260  173.3900  142.0050 C   0  0  2  0  0  3  0  0  0  0  0  0
  189.5820  177.5360  143.2600 C   0  0  0  0  0  2  0  0  0  0  0  0
  192.0180  176.2420  147.4450 O   0  0  0  0  0  0  0  0  0  0  0  0
  192.5500  175.9640  146.0680 S   0  0  0  0  0  0  0  0  0  0  0  0
  194.7850  174.4420  145.5890 C   0  0  0  0  0  0  0  0  0  0  0  0
  191.7500  174.4990  145.4090 C   0  0  2  0  0  3  0  0  0  0  0  0
  187.5580  175.9990  140.5970 O   0  0  0  0  0  0  0  0  0  0  0  0
  191.2200  175.2150  143.1320 C   0  0  1  0  0  3  0  0  0  0  0  0
  194.0730  173.6180  144.8780 N   0  0  0  0  0  0  0  0  0  0  0  0
  194.2350  175.6300  146.1550 N   0  0  0  0  0  2  0  0  0  0  0  0
  188.3380  176.0470  141.5820 C   0  0  0  0  0  0  0  0  0  0  0  0
  189.5220  175.7480  145.0970 C   0  0  0  0  0  0  0  0  0  0  0  0
  190.9420  173.3410  141.6410 C   0  0  1  0  0  3  0  0  0  0  0  0
  196.2080  174.1130  145.8610 C   0  0  0  0  0  1  0  0  0  0  0  0
  188.9130  174.7670  142.1030 C   0  0  0  0  0  2  0  0  0  0  0  0
  188.9300  175.2860  146.2820 C   0  0  0  0  0  3  0  0  0  0  0  0
  188.0610  177.6990  145.1990 C   0  0  0  0  0  3  0  0  0  0  0  0
  187.5000  177.2280  146.3840 C   0  0  0  0  0  3  0  0  0  0  0  0
  188.6340  177.3190  142.1730 N   0  0  0  0  0  2  0  0  0  0  0  0
  192.5480  174.4520  143.0930 C   0  0  1  0  0  3  0  0  0  0  0  0
  190.4260  174.7320  141.9190 C   0  0  1  0  0  3  0  0  0  0  0  0
  192.6790  173.7720  144.4490 C   0  0  2  0  0  3  0  0  0  0  0  0
  193.3040  173.8010  140.8310 C   0  0  0  0  0  1  0  0  0  0  0  0
  190.5880  174.8510  144.4860 C   0  0  2  0  0  3  0  0  0  0  0  0
  1 16  2  0  0  0  0
  1 21  1  0  0  0  0
  2  8  2  0  0  0  0
  3 17  1  0  0  0  0
  5 27  1  6  0  0  0
  5 24  1  0  0  0  0
  6  1  1  0  0  0  0
  8 14  1  0  0  0  0
  8  7  2  0  0  0  0
  9 18  1  0  0  0  0
  9 14  1  0  0  0  0
 10  8  1  6  0  0  0
 11 15  2  0  0  0  0
 12 28  1  0  0  0  0
 13  9  2  0  0  0  0
 15 19  1  0  0  0  0
 15 23  1  0  0  0  0
 16 20  1  0  0  0  0
 17 25  1  0  0  0  0
 17  5  1  0  0  0  0
 20  4  2  0  0  0  0
 21 22  2  0  0  0  0
 22  4  1  0  0  0  0
 23  6  1  0  0  0  0
 24 12  1  0  0  0  0
 24 26  1  0  0  0  0
 25 19  1  0  0  0  0
 25 12  1  0  0  0  0
 26 13  1  0  0  0  0
 26 10  1  0  0  0  0
 28 16  1  0  0  0  0
 28 10  1  0  0  0  0
M  END
>  <MODEL>
4

>  <REMARK>
 VINA RESULT:      -7.9      2.850      7.335
  Name = 
  0 active torsions:
  status: ('A' for Active; 'I' for Inactive)
                            x       y       z     vdW  Elec       q    Type
                         _______ _______ _______ _____ _____    ______ ____

>  <TORSDO>
F 0

$$$$
=
 OpenBabel11112417413D

 28 32  0  0  1  0  0  0  0  0999 V2000
  185.8960  177.1220  144.0140 C   0  0  0  0  0  0  0  0  0  0  0  0
  187.5320  174.5690  142.6260 O   0  0  0  0  0  0  0  0  0  0  0  0
  190.6090  177.3070  147.8050 O   0  0  0  0  0  1  0  0  0  0  0  0
  185.7260  179.0410  141.9730 C   0  0  0  0  0  3  0  0  0  0  0  0
  191.0400  176.0740  145.7500 C   0  0  2  0  0  3  0  0  0  0  0  0
  185.8960  176.1320  145.1320 C   0  0  0  0  0  2  0  0  0  0  0  0
  187.8160  175.7970  140.5140 O   0  0  0  0  0  0  0  0  0  0  0  0
  188.5180  175.2700  141.7330 S   0  0  0  0  0  0  0  0  0  0  0  0
  191.0890  174.3080  141.7020 C   0  0  0  0  0  0  0  0  0  0  0  0
  189.3300  176.6270  142.5820 C   0  0  2  0  0  3  0  0  0  0  0  0
  186.3160  178.0990  148.2150 O   0  0  0  0  0  0  0  0  0  0  0  0
  188.7300  176.1770  144.9090 C   0  0  1  0  0  3  0  0  0  0  0  0
  191.4390  175.2110  142.5700 N   0  0  0  0  0  0  0  0  0  0  0  0
  189.7410  174.1580  141.2610 N   0  0  0  0  0  2  0  0  0  0  0  0
  186.6000  177.6520  147.0750 C   0  0  0  0  0  0  0  0  0  0  0  0
  187.0820  177.5880  143.3860 C   0  0  0  0  0  0  0  0  0  0  0  0
  190.2770  177.1980  146.4510 C   0  0  1  0  0  3  0  0  0  0  0  0
  192.1360  173.4340  141.1110 C   0  0  0  0  0  1  0  0  0  0  0  0
  187.9030  178.0510  146.4520 C   0  0  0  0  0  2  0  0  0  0  0  0
  186.9710  178.5580  142.3770 C   0  0  0  0  0  3  0  0  0  0  0  0
  184.6520  177.6150  143.5980 C   0  0  0  0  0  3  0  0  0  0  0  0
  184.5660  178.5660  142.5820 C   0  0  0  0  0  3  0  0  0  0  0  0
  185.6650  176.7910  146.4120 N   0  0  0  0  0  2  0  0  0  0  0  0
  190.1140  175.5700  144.6490 C   0  0  1  0  0  3  0  0  0  0  0  0
  188.8190  176.8450  146.2800 C   0  0  1  0  0  3  0  0  0  0  0  0
  190.5700  176.1330  143.3100 C   0  0  2  0  0  3  0  0  0  0  0  0
  191.3550  174.9110  146.6830 C   0  0  0  0  0  1  0  0  0  0  0  0
  188.4950  177.1530  143.7440 C   0  0  2  0  0  3  0  0  0  0  0  0
  1  6  1  0  0  0  0
  4 20  2  0  0  0  0
  4 22  1  0  0  0  0
  5 17  1  0  0  0  0
  5 27  1  1  0  0  0
  6 23  1  0  0  0  0
  7  8  2  0  0  0  0
  8  2  2  0  0  0  0
  9 13  2  0  0  0  0
 10  8  1  1  0  0  0
 10 26  1  0  0  0  0
 10 28  1  0  0  0  0
 12 25  1  0  0  0  0
 13 26  1  0  0  0  0
 14  9  1  0  0  0  0
 14  8  1  0  0  0  0
 15 11  2  0  0  0  0
 16 28  1  0  0  0  0
 16  1  2  0  0  0  0
 17  3  1  0  0  0  0
 18  9  1  0  0  0  0
 19 15  1  0  0  0  0
 20 16  1  0  0  0  0
 21  1  1  0  0  0  0
 22 21  2  0  0  0  0
 23 15  1  0  0  0  0
 24 12  1  0  0  0  0
 24  5  1  0  0  0  0
 25 17  1  0  0  0  0
 25 19  1  0  0  0  0
 26 24  1  0  0  0  0
 28 12  1  0  0  0  0
M  END
>  <MODEL>
5

>  <REMARK>
 VINA RESULT:      -7.7      1.982      5.166
  Name = 
  0 active torsions:
  status: ('A' for Active; 'I' for Inactive)
                            x       y       z     vdW  Elec       q    Type
                         _______ _______ _______ _____ _____    ______ ____

>  <TORSDO>
F 0

$$$$
=
 OpenBabel11112417413D

 28 32  0  0  1  0  0  0  0  0999 V2000
  193.0930  174.3770  145.2300 C   0  0  0  0  0  0  0  0  0  0  0  0
  190.1320  174.5410  146.7560 O   0  0  0  0  0  0  0  0  0  0  0  0
  189.7950  173.7910  140.1900 O   0  0  0  0  0  1  0  0  0  0  0  0
  194.3020  176.8490  145.7740 C   0  0  0  0  0  3  0  0  0  0  0  0
  188.5560  174.6890  142.0830 C   0  0  2  0  0  3  0  0  0  0  0  0
  192.5400  173.0190  144.9440 C   0  0  0  0  0  2  0  0  0  0  0  0
  190.5510  176.8500  147.4910 O   0  0  0  0  0  0  0  0  0  0  0  0
  189.7530  175.9820  146.5600 S   0  0  0  0  0  0  0  0  0  0  0  0
  187.1530  176.5130  145.8540 C   0  0  0  0  0  0  0  0  0  0  0  0
  190.0290  176.5160  144.8700 C   0  0  2  0  0  3  0  0  0  0  0  0
  193.6460  172.1830  141.5340 O   0  0  0  0  0  0  0  0  0  0  0  0
  190.3580  174.3780  143.7300 C   0  0  1  0  0  3  0  0  0  0  0  0
  187.5040  176.5760  144.6040 N   0  0  0  0  0  0  0  0  0  0  0  0
  188.0750  176.1730  146.8880 N   0  0  0  0  0  2  0  0  0  0  0  0
  193.0720  172.8370  142.4410 C   0  0  0  0  0  0  0  0  0  0  0  0
  192.4260  175.5800  144.8710 C   0  0  0  0  0  0  0  0  0  0  0  0
  189.8980  174.5360  141.3680 C   0  0  1  0  0  3  0  0  0  0  0  0
  185.7550  176.8520  146.2270 C   0  0  0  0  0  1  0  0  0  0  0  0
  192.2750  174.0460  142.0580 C   0  0  0  0  0  2  0  0  0  0  0  0
  193.0590  176.8030  145.1430 C   0  0  0  0  0  3  0  0  0  0  0  0
  194.3410  174.4380  145.8640 C   0  0  0  0  0  3  0  0  0  0  0  0
  194.9410  175.6660  146.1380 C   0  0  0  0  0  3  0  0  0  0  0  0
  193.2140  172.4110  143.8020 N   0  0  0  0  0  2  0  0  0  0  0  0
  188.8880  174.7810  143.5690 C   0  0  1  0  0  3  0  0  0  0  0  0
  190.7960  173.8450  142.3660 C   0  0  1  0  0  3  0  0  0  0  0  0
  188.8030  176.2340  144.0150 C   0  0  2  0  0  3  0  0  0  0  0  0
  187.6390  173.4910  141.8700 C   0  0  0  0  0  1  0  0  0  0  0  0
  191.0800  175.6630  144.1680 C   0  0  2  0  0  3  0  0  0  0  0  0
  1 21  1  0  0  0  0
  3 17  1  0  0  0  0
  4 22  1  0  0  0  0
  5 27  1  1  0  0  0
  5 24  1  0  0  0  0
  6  1  1  0  0  0  0
  8  2  2  0  0  0  0
  8 14  1  0  0  0  0
  8  7  2  0  0  0  0
  9 18  1  0  0  0  0
  9 14  1  0  0  0  0
 10  8  1  1  0  0  0
 11 15  2  0  0  0  0
 12 28  1  0  0  0  0
 13  9  2  0  0  0  0
 15 23  1  0  0  0  0
 16 20  1  0  0  0  0
 16  1  2  0  0  0  0
 17  5  1  0  0  0  0
 17 25  1  0  0  0  0
 19 25  1  0  0  0  0
 19 15  1  0  0  0  0
 20  4  2  0  0  0  0
 21 22  2  0  0  0  0
 23  6  1  0  0  0  0
 24 12  1  0  0  0  0
 24 26  1  0  0  0  0
 25 12  1  0  0  0  0
 26 13  1  0  0  0  0
 26 10  1  0  0  0  0
 28 10  1  0  0  0  0
 28 16  1  0  0  0  0
M  END
>  <MODEL>
6

>  <REMARK>
 VINA RESULT:      -7.6      3.015      5.758
  Name = 
  0 active torsions:
  status: ('A' for Active; 'I' for Inactive)
                            x       y       z     vdW  Elec       q    Type
                         _______ _______ _______ _____ _____    ______ ____

>  <TORSDO>
F 0

$$$$
=
 OpenBabel11112417413D

 28 32  0  0  1  0  0  0  0  0999 V2000
  188.7820  175.8090  145.5970 C   0  0  0  0  0  0  0  0  0  0  0  0
  189.2030  173.5420  143.1870 O   0  0  0  0  0  0  0  0  0  0  0  0
  194.8190  175.6390  145.9880 O   0  0  0  0  0  1  0  0  0  0  0  0
  187.5710  177.9870  144.3080 C   0  0  0  0  0  3  0  0  0  0  0  0
  193.9370  174.7260  143.9110 C   0  0  2  0  0  3  0  0  0  0  0  0
  189.3730  174.6720  146.3640 C   0  0  0  0  0  2  0  0  0  0  0  0
  188.2890  175.0650  141.4860 O   0  0  0  0  0  0  0  0  0  0  0  0
  189.5350  174.3990  141.9980 S   0  0  0  0  0  0  0  0  0  0  0  0
  191.5750  173.5520  140.3670 C   0  0  0  0  0  0  0  0  0  0  0  0
  190.7520  175.6530  142.4050 C   0  0  2  0  0  3  0  0  0  0  0  0
  191.5770  176.2000  148.8860 O   0  0  0  0  0  0  0  0  0  0  0  0
  191.5690  174.8570  144.5670 C   0  0  1  0  0  3  0  0  0  0  0  0
  192.4020  174.3360  140.9930 N   0  0  0  0  0  0  0  0  0  0  0  0
  190.2120  173.4120  140.7630 N   0  0  0  0  0  2  0  0  0  0  0  0
  191.1360  175.9280  147.7400 C   0  0  0  0  0  0  0  0  0  0  0  0
  189.4180  176.4040  144.4730 C   0  0  0  0  0  0  0  0  0  0  0  0
  193.7670  175.7100  145.0690 C   0  0  1  0  0  3  0  0  0  0  0  0
  192.0510  172.8110  139.1700 C   0  0  0  0  0  1  0  0  0  0  0  0
  191.8660  176.4620  146.5460 C   0  0  0  0  0  2  0  0  0  0  0  0
  188.7980  177.5010  143.8550 C   0  0  0  0  0  3  0  0  0  0  0  0
  187.5500  176.3070  146.0400 C   0  0  0  0  0  3  0  0  0  0  0  0
  186.9460  177.3870  145.3990 C   0  0  0  0  0  3  0  0  0  0  0  0
  189.9480  175.1340  147.6220 N   0  0  0  0  0  2  0  0  0  0  0  0
  192.5240  174.3470  143.4820 C   0  0  1  0  0  3  0  0  0  0  0  0
  192.4590  175.3280  145.7170 C   0  0  1  0  0  3  0  0  0  0  0  0
  192.1590  175.1100  142.2150 C   0  0  2  0  0  3  0  0  0  0  0  0
  194.6700  173.4560  144.3240 C   0  0  0  0  0  1  0  0  0  0  0  0
  190.7590  175.9780  143.8940 C   0  0  2  0  0  3  0  0  0  0  0  0
  1 21  1  0  0  0  0
  1  6  1  0  0  0  0
  4 22  1  0  0  0  0
  5 27  1  1  0  0  0
  5 17  1  0  0  0  0
  6 23  1  0  0  0  0
  7  8  2  0  0  0  0
  8  2  2  0  0  0  0
  9 14  1  0  0  0  0
  9 13  2  0  0  0  0
 10  8  1  1  0  0  0
 10 28  1  0  0  0  0
 12 25  1  0  0  0  0
 13 26  1  0  0  0  0
 14  8  1  0  0  0  0
 15 11  2  0  0  0  0
 16  1  2  0  0  0  0
 17 25  1  0  0  0  0
 17  3  1  0  0  0  0
 18  9  1  0  0  0  0
 19 15  1  0  0  0  0
 20  4  2  0  0  0  0
 20 16  1  0  0  0  0
 22 21  2  0  0  0  0
 23 15  1  0  0  0  0
 24  5  1  0  0  0  0
 24 12  1  0  0  0  0
 25 19  1  0  0  0  0
 26 10  1  0  0  0  0
 26 24  1  0  0  0  0
 28 16  1  0  0  0  0
 28 12  1  0  0  0  0
M  END
>  <MODEL>
7

>  <REMARK>
 VINA RESULT:      -7.6      2.990      5.919
  Name = 
  0 active torsions:
  status: ('A' for Active; 'I' for Inactive)
                            x       y       z     vdW  Elec       q    Type
                         _______ _______ _______ _____ _____    ______ ____

>  <TORSDO>
F 0

$$$$
=
 OpenBabel11112417413D

 28 32  0  0  1  0  0  0  0  0999 V2000
  189.1730  176.8730  144.3890 C   0  0  0  0  0  0  0  0  0  0  0  0
  192.2990  175.7510  144.6900 O   0  0  0  0  0  0  0  0  0  0  0  0
  188.7120  172.6660  140.0630 O   0  0  0  0  0  1  0  0  0  0  0  0
  188.0040  176.3740  146.8900 C   0  0  0  0  0  3  0  0  0  0  0  0
  190.5910  172.3280  141.5750 C   0  0  2  0  0  3  0  0  0  0  0  0
  189.7390  177.2210  143.0520 C   0  0  0  0  0  2  0  0  0  0  0  0
  191.8810  174.9680  146.9840 O   0  0  0  0  0  0  0  0  0  0  0  0
  192.1200  174.5410  145.5640 S   0  0  0  0  0  0  0  0  0  0  0  0
  193.5200  172.2790  144.8810 C   0  0  0  0  0  0  0  0  0  0  0  0
  190.7490  173.5240  145.0130 C   0  0  2  0  0  3  0  0  0  0  0  0
  187.0190  176.6700  140.6340 O   0  0  0  0  0  0  0  0  0  0  0  0
  190.3150  174.4490  142.7920 C   0  0  1  0  0  3  0  0  0  0  0  0
  192.4750  171.8180  144.2600 N   0  0  0  0  0  0  0  0  0  0  0  0
  193.5390  173.5720  145.4830 N   0  0  0  0  0  2  0  0  0  0  0  0
  187.8500  176.3830  141.5330 C   0  0  0  0  0  0  0  0  0  0  0  0
  189.1680  175.5520  144.9120 C   0  0  0  0  0  0  0  0  0  0  0  0
  189.1770  172.8730  141.3660 C   0  0  1  0  0  3  0  0  0  0  0  0
  194.7210  171.4130  145.0100 C   0  0  0  0  0  1  0  0  0  0  0  0
  187.9270  174.9660  142.0130 C   0  0  0  0  0  2  0  0  0  0  0  0
  188.5650  175.3270  146.1600 C   0  0  0  0  0  3  0  0  0  0  0  0
  188.6070  177.9160  145.1340 C   0  0  0  0  0  3  0  0  0  0  0  0
  188.0280  177.6700  146.3780 C   0  0  0  0  0  3  0  0  0  0  0  0
  188.6780  177.4210  142.0720 N   0  0  0  0  0  2  0  0  0  0  0  0
  191.2280  173.2280  142.6280 C   0  0  1  0  0  3  0  0  0  0  0  0
  189.2780  174.3470  141.6740 C   0  0  1  0  0  3  0  0  0  0  0  0
  191.2170  172.5170  143.9740 C   0  0  2  0  0  3  0  0  0  0  0  0
  191.4370  172.3940  140.3110 C   0  0  0  0  0  1  0  0  0  0  0  0
  189.7310  174.3260  144.2090 C   0  0  2  0  0  3  0  0  0  0  0  0
  1 16  2  0  0  0  0
  1 21  1  0  0  0  0
  2  8  2  0  0  0  0
  3 17  1  0  0  0  0
  5 27  1  6  0  0  0
  5 24  1  0  0  0  0
  6  1  1  0  0  0  0
  8  7  2  0  0  0  0
  9 18  1  0  0  0  0
  9 14  1  0  0  0  0
 10  8  1  6  0  0  0
 11 15  2  0  0  0  0
 12 28  1  0  0  0  0
 13  9  2  0  0  0  0
 14  8  1  0  0  0  0
 15 19  1  0  0  0  0
 15 23  1  0  0  0  0
 16 20  1  0  0  0  0
 17  5  1  0  0  0  0
 17 25  1  0  0  0  0
 20  4  2  0  0  0  0
 21 22  2  0  0  0  0
 22  4  1  0  0  0  0
 23  6  1  0  0  0  0
 24 12  1  0  0  0  0
 24 26  1  0  0  0  0
 25 19  1  0  0  0  0
 25 12  1  0  0  0  0
 26 13  1  0  0  0  0
 26 10  1  0  0  0  0
 28 16  1  0  0  0  0
 28 10  1  0  0  0  0
M  END
>  <MODEL>
8

>  <REMARK>
 VINA RESULT:      -7.5      2.885      7.105
  Name = 
  0 active torsions:
  status: ('A' for Active; 'I' for Inactive)
                            x       y       z     vdW  Elec       q    Type
                         _______ _______ _______ _____ _____    ______ ____

>  <TORSDO>
F 0

$$$$
=
 OpenBabel11112417413D

 28 32  0  0  1  0  0  0  0  0999 V2000
  189.2190  175.5350  144.3260 C   0  0  0  0  0  0  0  0  0  0  0  0
  192.4740  176.2600  144.2770 O   0  0  0  0  0  0  0  0  0  0  0  0
  190.9720  170.2370  141.9850 O   0  0  0  0  0  1  0  0  0  0  0  0
  188.5150  175.6480  147.0400 C   0  0  0  0  0  3  0  0  0  0  0  0
  192.7690  171.4920  143.0460 C   0  0  2  0  0  3  0  0  0  0  0  0
  189.5020  175.5110  142.8600 C   0  0  0  0  0  2  0  0  0  0  0  0
  192.5560  176.4190  146.7300 O   0  0  0  0  0  0  0  0  0  0  0  0
  192.9650  175.6040  145.5370 S   0  0  0  0  0  0  0  0  0  0  0  0
  195.3330  174.2200  145.3910 C   0  0  0  0  0  0  0  0  0  0  0  0
  192.3220  173.9380  145.7090 C   0  0  2  0  0  3  0  0  0  0  0  0
  187.4420  172.7880  141.4850 O   0  0  0  0  0  0  0  0  0  0  0  0
  191.4400  173.5210  143.4670 C   0  0  1  0  0  3  0  0  0  0  0  0
  194.6750  173.1100  145.2290 N   0  0  0  0  0  0  0  0  0  0  0  0
  194.6800  175.4850  145.4780 N   0  0  0  0  0  2  0  0  0  0  0  0
  188.3110  173.3340  142.2110 C   0  0  0  0  0  0  0  0  0  0  0  0
  189.9130  174.7270  145.2670 C   0  0  0  0  0  0  0  0  0  0  0  0
  191.2770  171.1630  142.9880 C   0  0  1  0  0  3  0  0  0  0  0  0
  196.8110  174.1660  145.5370 C   0  0  0  0  0  1  0  0  0  0  0  0
  189.1240  172.4710  143.1260 C   0  0  0  0  0  2  0  0  0  0  0  0
  189.5320  174.7920  146.6170 C   0  0  0  0  0  3  0  0  0  0  0  0
  188.2000  176.3910  144.7660 C   0  0  0  0  0  3  0  0  0  0  0  0
  187.8520  176.4500  146.1140 C   0  0  0  0  0  3  0  0  0  0  0  0
  188.4810  174.7560  142.1440 N   0  0  0  0  0  2  0  0  0  0  0  0
  192.8540  172.9330  143.5380 C   0  0  1  0  0  3  0  0  0  0  0  0
  190.5950  172.4840  142.7260 C   0  0  1  0  0  3  0  0  0  0  0  0
  193.2340  172.9400  145.0120 C   0  0  2  0  0  3  0  0  0  0  0  0
  193.4390  171.4110  141.6800 C   0  0  0  0  0  1  0  0  0  0  0  0
  191.0250  173.7450  144.9310 C   0  0  2  0  0  3  0  0  0  0  0  0
  1 21  2  0  0  0  0
  1 16  1  0  0  0  0
  2  8  2  0  0  0  0
  3 17  1  0  0  0  0
  5 27  1  6  0  0  0
  5 24  1  0  0  0  0
  6  1  1  0  0  0  0
  8  7  2  0  0  0  0
  9 14  1  0  0  0  0
  9 18  1  0  0  0  0
 10  8  1  6  0  0  0
 11 15  2  0  0  0  0
 12 24  1  0  0  0  0
 12 28  1  0  0  0  0
 13  9  2  0  0  0  0
 14  8  1  0  0  0  0
 15 19  1  0  0  0  0
 16 20  2  0  0  0  0
 17  5  1  0  0  0  0
 20  4  1  0  0  0  0
 21 22  1  0  0  0  0
 22  4  2  0  0  0  0
 23 15  1  0  0  0  0
 23  6  1  0  0  0  0
 24 26  1  0  0  0  0
 25 17  1  0  0  0  0
 25 19  1  0  0  0  0
 25 12  1  0  0  0  0
 26 13  1  0  0  0  0
 26 10  1  0  0  0  0
 28 16  1  0  0  0  0
 28 10  1  0  0  0  0
M  END
>  <MODEL>
9

>  <REMARK>
 VINA RESULT:      -7.3      3.416      7.767
  Name = 
  0 active torsions:
  status: ('A' for Active; 'I' for Inactive)
                            x       y       z     vdW  Elec       q    Type
                         _______ _______ _______ _____ _____    ______ ____

>  <TORSDO>
F 0

$$$$
