=
 OpenBabel11112416283D

 32 37  0  0  1  0  0  0  0  0999 V2000
  180.6520  178.7980  140.3050 O   0  0  0  0  0  0  0  0  0  0  0  0
  185.5040  177.6190  143.1150 C   0  0  0  0  0  0  0  0  0  0  0  0
  185.9050  179.1900  147.7720 C   0  0  0  0  0  3  0  0  0  0  0  0
  186.9850  178.3330  147.9880 C   0  0  0  0  0  3  0  0  0  0  0  0
  187.2270  175.9870  142.1280 C   0  0  2  0  0  3  0  0  0  0  0  0
  188.3670  175.0810  142.5090 C   0  0  0  0  0  0  0  0  0  0  0  0
  183.5660  178.2280  141.7590 C   0  0  0  0  0  0  0  0  0  0  0  0
  183.6910  178.9160  144.0820 C   0  0  0  0  0  3  0  0  0  0  0  0
  189.9950  174.0060  143.6890 C   0  0  2  0  0  3  0  0  0  0  0  0
  181.7050  179.4880  142.8130 N   0  0  0  0  0  2  0  0  0  0  0  0
  185.2410  179.1800  146.5440 C   0  0  0  0  0  3  0  0  0  0  0  0
  184.9420  178.2950  144.2170 C   0  0  0  0  0  0  0  0  0  0  0  0
  185.6570  178.3200  145.5140 C   0  0  0  0  0  0  0  0  0  0  0  0
  187.1530  176.4740  144.6530 C   0  0  2  0  0  3  0  0  0  0  0  0
  189.9340  173.3800  142.3570 N   0  0  0  0  0  0  0  0  0  0  0  0
  181.5510  177.7190  140.3460 C   0  0  0  0  0  2  0  0  0  0  0  0
  182.9950  178.8840  142.8730 C   0  0  0  0  0  0  0  0  0  0  0  0
  188.9190  174.0810  141.6810 N   0  0  0  0  0  0  0  0  0  0  0  0
  182.9670  178.2670  140.3860 C   0  0  0  0  0  2  0  0  0  0  0  0
  180.5140  178.6520  142.7870 C   0  0  0  0  0  2  0  0  0  0  0  0
  187.4040  177.4700  146.9730 C   0  0  0  0  0  3  0  0  0  0  0  0
  186.7630  177.4700  145.7230 C   0  0  0  0  0  0  0  0  0  0  0  0
  188.6090  176.0080  144.7860 C   0  0  0  0  0  2  0  0  0  0  0  0
  184.8170  177.6220  141.8920 C   0  0  0  0  0  3  0  0  0  0  0  0
  187.5790  176.6990  140.8320 C   0  0  0  0  0  1  0  0  0  0  0  0
  189.7090  172.9630  144.7530 C   0  0  0  0  0  1  0  0  0  0  0  0
  186.9000  177.0300  143.2300 C   0  0  2  0  0  3  0  0  0  0  0  0
  188.9320  175.0480  143.6880 C   0  0  0  0  0  0  0  0  0  0  0  0
  179.8010  178.7540  141.4340 C   0  0  2  0  0  3  0  0  0  0  0  0
  178.7110  177.7400  141.2860 C   0  0  0  0  0  0  0  0  0  0  0  0
  178.4560  176.8250  142.3000 O   0  0  0  0  0  1  0  0  0  0  0  0
  178.0380  177.6990  140.2240 O   0  0  0  0  0  0  0  0  0  0  0  0
  1 16  1  0  0  0  0
  1 29  1  0  0  0  0
  2 12  1  0  0  0  0
  3  4  1  0  0  0  0
  5 25  1  6  0  0  0
  5  6  1  0  0  0  0
  5 27  1  0  0  0  0
  6 28  2  0  0  0  0
  7 24  1  0  0  0  0
  7 17  2  0  0  0  0
  8 12  2  0  0  0  0
  9 26  1  1  0  0  0
 10 17  1  0  0  0  0
 11  3  2  0  0  0  0
 12 13  1  0  0  0  0
 13 22  2  0  0  0  0
 13 11  1  0  0  0  0
 14 23  1  6  0  0  0
 14 22  1  0  0  0  0
 15  9  1  0  0  0  0
 16 19  1  0  0  0  0
 17  8  1  0  0  0  0
 18 15  2  0  0  0  0
 18  6  1  0  0  0  0
 19  7  1  0  0  0  0
 20 10  1  0  0  0  0
 21  4  2  0  0  0  0
 22 21  1  0  0  0  0
 24  2  2  0  0  0  0
 27  2  1  1  0  0  0
 27 14  1  0  0  0  0
 28  9  1  0  0  0  0
 28 23  1  0  0  0  0
 29 30  1  6  0  0  0
 29 20  1  0  0  0  0
 30 31  1  0  0  0  0
 32 30  2  0  0  0  0
M  END
>  <MODEL>
1

>  <REMARK>
 VINA RESULT:      -9.1      0.000      0.000
  Name = 
  1 active torsions:
  status: ('A' for Active; 'I' for Inactive)
    1  A    between atoms: C_29  and  C_30
                            x       y       z     vdW  Elec       q    Type
                         _______ _______ _______ _____ _____    ______ ____

>  <TORSDO>
F 1

$$$$
=
 OpenBabel11112416283D

 32 37  0  0  1  0  0  0  0  0999 V2000
  185.8060  177.7550  143.5250 O   0  0  0  0  0  0  0  0  0  0  0  0
  190.5440  174.5330  143.4770 C   0  0  0  0  0  0  0  0  0  0  0  0
  194.3960  176.0680  146.1440 C   0  0  0  0  0  3  0  0  0  0  0  0
  194.9840  174.8060  146.0560 C   0  0  0  0  0  3  0  0  0  0  0  0
  190.5190  172.1800  142.4410 C   0  0  2  0  0  3  0  0  0  0  0  0
  191.2390  170.8590  142.4630 C   0  0  0  0  0  0  0  0  0  0  0  0
  188.5430  175.9200  143.2680 C   0  0  0  0  0  0  0  0  0  0  0  0
  190.3830  176.6400  144.6750 C   0  0  0  0  0  3  0  0  0  0  0  0
  192.7590  169.2130  142.8870 C   0  0  2  0  0  3  0  0  0  0  0  0
  188.3950  178.0260  144.5720 N   0  0  0  0  0  2  0  0  0  0  0  0
  193.1370  176.2910  145.5850 C   0  0  0  0  0  3  0  0  0  0  0  0
  191.1110  175.4880  144.3440 C   0  0  0  0  0  0  0  0  0  0  0  0
  192.4560  175.2570  144.9220 C   0  0  0  0  0  0  0  0  0  0  0  0
  192.2890  172.8460  144.1850 C   0  0  2  0  0  3  0  0  0  0  0  0
  191.6340  168.5960  142.1630 N   0  0  0  0  0  0  0  0  0  0  0  0
  186.0820  176.3780  143.4890 C   0  0  0  0  0  2  0  0  0  0  0  0
  189.1070  176.8620  144.1560 C   0  0  0  0  0  0  0  0  0  0  0  0
  190.7360  169.6540  141.9310 N   0  0  0  0  0  0  0  0  0  0  0  0
  187.2490  176.1410  142.5460 C   0  0  0  0  0  2  0  0  0  0  0  0
  187.2940  177.9030  145.5160 C   0  0  0  0  0  2  0  0  0  0  0  0
  194.3150  173.7680  145.4030 C   0  0  0  0  0  3  0  0  0  0  0  0
  193.0590  173.9870  144.8110 C   0  0  0  0  0  0  0  0  0  0  0  0
  193.2070  171.7240  143.6810 C   0  0  0  0  0  2  0  0  0  0  0  0
  189.2760  174.7790  142.9280 C   0  0  0  0  0  3  0  0  0  0  0  0
  190.1420  172.5090  141.0050 C   0  0  0  0  0  1  0  0  0  0  0  0
  192.9180  168.5480  144.2410 C   0  0  0  0  0  1  0  0  0  0  0  0
  191.3680  173.3340  143.0390 C   0  0  2  0  0  3  0  0  0  0  0  0
  192.3840  170.6440  143.0550 C   0  0  0  0  0  0  0  0  0  0  0  0
  185.9570  178.2380  144.8460 C   0  0  2  0  0  3  0  0  0  0  0  0
  184.7850  177.9010  145.7130 C   0  0  0  0  0  0  0  0  0  0  0  0
  184.7960  176.7570  146.5010 O   0  0  0  0  0  1  0  0  0  0  0  0
  183.7720  178.6460  145.7090 O   0  0  0  0  0  0  0  0  0  0  0  0
  1 29  1  0  0  0  0
  2 12  1  0  0  0  0
  4  3  1  0  0  0  0
  5 25  1  6  0  0  0
  5  6  1  0  0  0  0
  5 27  1  0  0  0  0
  6 28  2  0  0  0  0
  7 17  2  0  0  0  0
  9 28  1  0  0  0  0
  9 26  1  1  0  0  0
 10 20  1  0  0  0  0
 11  3  2  0  0  0  0
 12  8  2  0  0  0  0
 12 13  1  0  0  0  0
 13 11  1  0  0  0  0
 14 23  1  6  0  0  0
 14 22  1  0  0  0  0
 15  9  1  0  0  0  0
 16  1  1  0  0  0  0
 17 10  1  0  0  0  0
 17  8  1  0  0  0  0
 18 15  2  0  0  0  0
 18  6  1  0  0  0  0
 19  7  1  0  0  0  0
 19 16  1  0  0  0  0
 21  4  2  0  0  0  0
 22 13  2  0  0  0  0
 22 21  1  0  0  0  0
 24  7  1  0  0  0  0
 24  2  2  0  0  0  0
 27  2  1  1  0  0  0
 27 14  1  0  0  0  0
 28 23  1  0  0  0  0
 29 20  1  0  0  0  0
 29 30  1  1  0  0  0
 30 31  1  0  0  0  0
 32 30  2  0  0  0  0
M  END
>  <MODEL>
2

>  <REMARK>
 VINA RESULT:      -8.3      3.913      6.628
  Name = 
  1 active torsions:
  status: ('A' for Active; 'I' for Inactive)
    1  A    between atoms: C_29  and  C_30
                            x       y       z     vdW  Elec       q    Type
                         _______ _______ _______ _____ _____    ______ ____

>  <TORSDO>
F 1

$$$$
=
 OpenBabel11112416283D

 32 37  0  0  1  0  0  0  0  0999 V2000
  194.5760  173.3990  140.2210 O   0  0  0  0  0  0  0  0  0  0  0  0
  190.4260  175.5030  143.5650 C   0  0  0  0  0  0  0  0  0  0  0  0
  191.6340  176.8650  148.1480 C   0  0  0  0  0  3  0  0  0  0  0  0
  190.4420  177.5800  148.2680 C   0  0  0  0  0  3  0  0  0  0  0  0
  188.1250  176.0950  142.5830 C   0  0  2  0  0  3  0  0  0  0  0  0
  186.9040  176.9400  142.8300 C   0  0  0  0  0  0  0  0  0  0  0  0
  192.0670  174.4160  142.1170 C   0  0  0  0  0  0  0  0  0  0  0  0
  192.7100  175.1800  144.3270 C   0  0  0  0  0  3  0  0  0  0  0  0
  185.3780  178.3340  143.7910 C   0  0  2  0  0  3  0  0  0  0  0  0
  194.4060  174.1790  142.9110 N   0  0  0  0  0  2  0  0  0  0  0  0
  191.9470  176.2310  146.9430 C   0  0  0  0  0  3  0  0  0  0  0  0
  191.4080  175.6420  144.5670 C   0  0  0  0  0  0  0  0  0  0  0  0
  191.0670  176.2980  145.8510 C   0  0  0  0  0  0  0  0  0  0  0  0
  188.9470  177.1580  144.7770 C   0  0  2  0  0  3  0  0  0  0  0  0
  184.9330  178.0830  142.4090 N   0  0  0  0  0  0  0  0  0  0  0  0
  193.4470  174.2120  140.0270 C   0  0  0  0  0  2  0  0  0  0  0  0
  193.0520  174.5790  143.1150 C   0  0  0  0  0  0  0  0  0  0  0  0
  185.9080  177.2220  141.8720 N   0  0  0  0  0  0  0  0  0  0  0  0
  192.2990  173.6540  140.8480 C   0  0  0  0  0  2  0  0  0  0  0  0
  195.2680  174.9580  142.0350 C   0  0  0  0  0  2  0  0  0  0  0  0
  189.5610  177.6580  147.1870 C   0  0  0  0  0  3  0  0  0  0  0  0
  189.8510  177.0010  145.9790 C   0  0  0  0  0  0  0  0  0  0  0  0
  187.4970  177.4720  145.1680 C   0  0  0  0  0  2  0  0  0  0  0  0
  190.7660  174.8640  142.3630 C   0  0  0  0  0  3  0  0  0  0  0  0
  187.6840  174.7380  142.0610 C   0  0  0  0  0  1  0  0  0  0  0  0
  185.6070  179.8210  143.9870 C   0  0  0  0  0  1  0  0  0  0  0  0
  188.9930  175.9120  143.8570 C   0  0  2  0  0  3  0  0  0  0  0  0
  186.6590  177.5900  143.9370 C   0  0  0  0  0  0  0  0  0  0  0  0
  195.6280  174.1660  140.7730 C   0  0  2  0  0  3  0  0  0  0  0  0
  196.3160  175.0110  139.7480 C   0  0  0  0  0  0  0  0  0  0  0  0
  196.2900  174.6530  138.4060 O   0  0  0  0  0  0  0  0  0  0  0  0
  196.9450  176.0390  140.1080 O   0  0  0  0  0  1  0  0  0  0  0  0
  1 29  1  0  0  0  0
  2 12  1  0  0  0  0
  3  4  1  0  0  0  0
  5 25  1  1  0  0  0
  5  6  1  0  0  0  0
  5 27  1  0  0  0  0
  6 28  2  0  0  0  0
  7 24  1  0  0  0  0
  7 17  2  0  0  0  0
  8 12  2  0  0  0  0
  9 28  1  0  0  0  0
  9 26  1  6  0  0  0
 10 17  1  0  0  0  0
 11  3  2  0  0  0  0
 12 13  1  0  0  0  0
 13 22  2  0  0  0  0
 13 11  1  0  0  0  0
 14 23  1  1  0  0  0
 14 22  1  0  0  0  0
 15  9  1  0  0  0  0
 16  1  1  0  0  0  0
 16 19  1  0  0  0  0
 17  8  1  0  0  0  0
 18 15  2  0  0  0  0
 18  6  1  0  0  0  0
 19  7  1  0  0  0  0
 20 10  1  0  0  0  0
 21  4  2  0  0  0  0
 22 21  1  0  0  0  0
 24  2  2  0  0  0  0
 27  2  1  6  0  0  0
 27 14  1  0  0  0  0
 28 23  1  0  0  0  0
 29 30  1  6  0  0  0
 29 20  1  0  0  0  0
 30 32  1  0  0  0  0
 31 30  2  0  0  0  0
M  END
>  <MODEL>
3

>  <REMARK>
 VINA RESULT:      -8.2      5.835      9.651
  Name = 
  1 active torsions:
  status: ('A' for Active; 'I' for Inactive)
    1  A    between atoms: C_29  and  C_30
                            x       y       z     vdW  Elec       q    Type
                         _______ _______ _______ _____ _____    ______ ____

>  <TORSDO>
F 1

$$$$
=
 OpenBabel11112416283D

 32 37  0  0  1  0  0  0  0  0999 V2000
  186.2430  178.7960  142.9310 O   0  0  0  0  0  0  0  0  0  0  0  0
  190.0440  174.5700  142.2020 C   0  0  0  0  0  0  0  0  0  0  0  0
  193.3750  173.8330  145.7630 C   0  0  0  0  0  3  0  0  0  0  0  0
  193.6800  172.5760  145.2420 C   0  0  0  0  0  3  0  0  0  0  0  0
  189.7640  172.8710  140.2940 C   0  0  2  0  0  3  0  0  0  0  0  0
  190.1560  171.4820  139.8670 C   0  0  0  0  0  0  0  0  0  0  0  0
  188.5000  176.4610  142.3150 C   0  0  0  0  0  0  0  0  0  0  0  0
  190.0560  176.0500  144.1300 C   0  0  0  0  0  3  0  0  0  0  0  0
  191.1370  169.4260  139.7760 C   0  0  2  0  0  3  0  0  0  0  0  0
  188.4980  177.8970  144.3390 N   0  0  0  0  0  2  0  0  0  0  0  0
  192.3660  174.6030  145.1790 C   0  0  0  0  0  3  0  0  0  0  0  0
  190.5770  174.9360  143.4550 C   0  0  0  0  0  0  0  0  0  0  0  0
  191.6600  174.1280  144.0630 C   0  0  0  0  0  0  0  0  0  0  0  0
  191.1610  172.3090  142.3800 C   0  0  2  0  0  3  0  0  0  0  0  0
  190.1140  169.4710  138.7160 N   0  0  0  0  0  0  0  0  0  0  0  0
  186.2170  177.5100  142.3680 C   0  0  0  0  0  2  0  0  0  0  0  0
  189.0220  176.8090  143.5800 C   0  0  0  0  0  0  0  0  0  0  0  0
  189.5480  170.7550  138.8220 N   0  0  0  0  0  0  0  0  0  0  0  0
  187.4970  177.2980  141.5800 C   0  0  0  0  0  2  0  0  0  0  0  0
  187.2020  177.7710  144.9880 C   0  0  0  0  0  2  0  0  0  0  0  0
  192.9810  172.0900  144.1340 C   0  0  0  0  0  3  0  0  0  0  0  0
  191.9840  172.8660  143.5200 C   0  0  0  0  0  0  0  0  0  0  0  0
  191.9090  171.2280  141.5880 C   0  0  0  0  0  2  0  0  0  0  0  0
  189.0300  175.3590  141.6380 C   0  0  0  0  0  3  0  0  0  0  0  0
  189.8250  173.7910  139.0860 C   0  0  0  0  0  1  0  0  0  0  0  0
  190.8160  168.3010  140.7420 C   0  0  0  0  0  1  0  0  0  0  0  0
  190.6710  173.4260  141.4250 C   0  0  2  0  0  3  0  0  0  0  0  0
  191.0500  170.7410  140.4670 C   0  0  0  0  0  0  0  0  0  0  0  0
  186.1710  178.7020  144.3410 C   0  0  2  0  0  3  0  0  0  0  0  0
  184.7800  178.4350  144.8230 C   0  0  0  0  0  0  0  0  0  0  0  0
  183.6910  179.0410  144.2090 O   0  0  0  0  0  0  0  0  0  0  0  0
  184.5980  177.6750  145.8090 O   0  0  0  0  0  1  0  0  0  0  0  0
  1 29  1  0  0  0  0
  2 12  1  0  0  0  0
  4  3  1  0  0  0  0
  5 25  1  6  0  0  0
  5 27  1  0  0  0  0
  6  5  1  0  0  0  0
  6 28  2  0  0  0  0
  7 17  2  0  0  0  0
  9 28  1  0  0  0  0
  9 26  1  1  0  0  0
 10 20  1  0  0  0  0
 11  3  2  0  0  0  0
 12 13  1  0  0  0  0
 12  8  2  0  0  0  0
 13 11  1  0  0  0  0
 14 23  1  6  0  0  0
 14 22  1  0  0  0  0
 15 18  2  0  0  0  0
 15  9  1  0  0  0  0
 16  1  1  0  0  0  0
 17  8  1  0  0  0  0
 17 10  1  0  0  0  0
 18  6  1  0  0  0  0
 19  7  1  0  0  0  0
 19 16  1  0  0  0  0
 21  4  2  0  0  0  0
 22 13  2  0  0  0  0
 22 21  1  0  0  0  0
 24  2  2  0  0  0  0
 24  7  1  0  0  0  0
 27  2  1  1  0  0  0
 27 14  1  0  0  0  0
 28 23  1  0  0  0  0
 29 30  1  6  0  0  0
 29 20  1  0  0  0  0
 30 32  1  0  0  0  0
 31 30  2  0  0  0  0
M  END
>  <MODEL>
4

>  <REMARK>
 VINA RESULT:      -7.7      3.669      6.537
  Name = 
  1 active torsions:
  status: ('A' for Active; 'I' for Inactive)
    1  A    between atoms: C_29  and  C_30
                            x       y       z     vdW  Elec       q    Type
                         _______ _______ _______ _____ _____    ______ ____

>  <TORSDO>
F 1

$$$$
=
 OpenBabel11112416283D

 32 37  0  0  1  0  0  0  0  0999 V2000
  185.9210  177.1290  145.6410 O   0  0  0  0  0  0  0  0  0  0  0  0
  190.6530  175.0650  143.1550 C   0  0  0  0  0  0  0  0  0  0  0  0
  190.1910  172.9680  138.7150 C   0  0  0  0  0  3  0  0  0  0  0  0
  191.5690  173.0500  138.5140 C   0  0  0  0  0  3  0  0  0  0  0  0
  192.9760  175.5790  144.1280 C   0  0  2  0  0  3  0  0  0  0  0  0
  194.4340  175.6470  143.7620 C   0  0  0  0  0  0  0  0  0  0  0  0
  188.6800  175.8050  144.3920 C   0  0  0  0  0  0  0  0  0  0  0  0
  188.4420  174.8790  142.1630 C   0  0  0  0  0  3  0  0  0  0  0  0
  196.4060  175.4850  142.6290 C   0  0  2  0  0  3  0  0  0  0  0  0
  186.4530  175.6660  143.3060 N   0  0  0  0  0  2  0  0  0  0  0  0
  189.6240  173.4970  139.8770 C   0  0  0  0  0  3  0  0  0  0  0  0
  189.8280  174.6820  142.0770 C   0  0  0  0  0  0  0  0  0  0  0  0
  190.4310  174.1040  140.8530 C   0  0  0  0  0  0  0  0  0  0  0  0
  192.6870  174.9040  141.6620 C   0  0  2  0  0  3  0  0  0  0  0  0
  196.6810  176.2010  143.8880 N   0  0  0  0  0  0  0  0  0  0  0  0
  187.2700  177.5160  145.5760 C   0  0  0  0  0  2  0  0  0  0  0  0
  187.8620  175.4420  143.3000 C   0  0  0  0  0  0  0  0  0  0  0  0
  195.4350  176.2690  144.5380 N   0  0  0  0  0  0  0  0  0  0  0  0
  188.1370  176.2760  145.7070 C   0  0  0  0  0  2  0  0  0  0  0  0
  185.9330  177.0160  143.1530 C   0  0  0  0  0  2  0  0  0  0  0  0
  192.3810  173.6550  139.4750 C   0  0  0  0  0  3  0  0  0  0  0  0
  191.8270  174.1660  140.6610 C   0  0  0  0  0  0  0  0  0  0  0  0
  194.1570  174.4650  141.6110 C   0  0  0  0  0  2  0  0  0  0  0  0
  190.0590  175.5960  144.3100 C   0  0  0  0  0  3  0  0  0  0  0  0
  192.8450  174.9600  145.5100 C   0  0  0  0  0  1  0  0  0  0  0  0
  196.7720  176.3690  141.4520 C   0  0  0  0  0  1  0  0  0  0  0  0
  192.1410  174.7640  143.1050 C   0  0  2  0  0  3  0  0  0  0  0  0
  194.9420  175.2150  142.6380 C   0  0  0  0  0  0  0  0  0  0  0  0
  185.2610  177.4950  144.4450 C   0  0  2  0  0  3  0  0  0  0  0  0
  184.9220  178.9520  144.4040 C   0  0  0  0  0  0  0  0  0  0  0  0
  185.5660  179.8020  143.5130 O   0  0  0  0  0  0  0  0  0  0  0  0
  184.0660  179.4160  145.2010 O   0  0  0  0  0  1  0  0  0  0  0  0
  2 24  1  0  0  0  0
  3 11  1  0  0  0  0
  4  3  2  0  0  0  0
  4 21  1  0  0  0  0
  5 25  1  1  0  0  0
  6  5  1  0  0  0  0
  6 18  1  0  0  0  0
  7 19  1  0  0  0  0
  8 17  2  0  0  0  0
  9 26  1  6  0  0  0
  9 28  1  0  0  0  0
  9 15  1  0  0  0  0
 11 13  2  0  0  0  0
 12  8  1  0  0  0  0
 12  2  2  0  0  0  0
 13 12  1  0  0  0  0
 14 23  1  1  0  0  0
 14 27  1  0  0  0  0
 15 18  2  0  0  0  0
 16  1  1  0  0  0  0
 16 19  1  0  0  0  0
 17 10  1  0  0  0  0
 17  7  1  0  0  0  0
 20 10  1  0  0  0  0
 20 29  1  0  0  0  0
 21 22  2  0  0  0  0
 22 13  1  0  0  0  0
 22 14  1  0  0  0  0
 23 28  1  0  0  0  0
 24  7  2  0  0  0  0
 27  2  1  6  0  0  0
 27  5  1  0  0  0  0
 28  6  2  0  0  0  0
 29 30  1  6  0  0  0
 29  1  1  0  0  0  0
 30 32  1  0  0  0  0
 31 30  2  0  0  0  0
M  END
>  <MODEL>
5

>  <REMARK>
 VINA RESULT:      -7.6      4.232      7.495
  Name = 
  1 active torsions:
  status: ('A' for Active; 'I' for Inactive)
    1  A    between atoms: C_29  and  C_30
                            x       y       z     vdW  Elec       q    Type
                         _______ _______ _______ _____ _____    ______ ____

>  <TORSDO>
F 1

$$$$
=
 OpenBabel11112416283D

 32 37  0  0  1  0  0  0  0  0999 V2000
  186.3840  177.7010  144.6370 O   0  0  0  0  0  0  0  0  0  0  0  0
  190.9090  174.2950  143.7670 C   0  0  0  0  0  0  0  0  0  0  0  0
  195.1000  175.3920  146.1230 C   0  0  0  0  0  3  0  0  0  0  0  0
  195.6060  174.1200  145.8540 C   0  0  0  0  0  3  0  0  0  0  0  0
  190.6480  172.0590  142.5270 C   0  0  2  0  0  3  0  0  0  0  0  0
  191.2940  170.7120  142.3470 C   0  0  0  0  0  0  0  0  0  0  0  0
  188.9760  175.7820  143.9100 C   0  0  0  0  0  0  0  0  0  0  0  0
  190.9910  176.2800  145.1660 C   0  0  0  0  0  3  0  0  0  0  0  0
  192.7590  168.9670  142.4460 C   0  0  2  0  0  3  0  0  0  0  0  0
  189.0810  177.7550  145.4120 N   0  0  0  0  0  2  0  0  0  0  0  0
  193.8020  175.7240  145.7290 C   0  0  0  0  0  3  0  0  0  0  0  0
  191.6170  175.1360  144.6510 C   0  0  0  0  0  0  0  0  0  0  0  0
  193.0000  174.7910  145.0530 C   0  0  0  0  0  0  0  0  0  0  0  0
  192.6260  172.4720  144.1180 C   0  0  2  0  0  3  0  0  0  0  0  0
  191.5320  168.4730  141.7970 N   0  0  0  0  0  0  0  0  0  0  0  0
  186.5810  176.3240  144.4430 C   0  0  0  0  0  2  0  0  0  0  0  0
  189.6810  176.6080  144.8140 C   0  0  0  0  0  0  0  0  0  0  0  0
  190.6730  169.5870  141.7650 N   0  0  0  0  0  0  0  0  0  0  0  0
  187.6260  176.1290  143.3600 C   0  0  0  0  0  2  0  0  0  0  0  0
  188.0810  177.5890  146.4560 C   0  0  0  0  0  2  0  0  0  0  0  0
  194.8160  173.1820  145.1860 C   0  0  0  0  0  3  0  0  0  0  0  0
  193.5190  173.5120  144.7590 C   0  0  0  0  0  0  0  0  0  0  0  0
  193.4230  171.3660  143.4150 C   0  0  0  0  0  2  0  0  0  0  0  0
  189.6060  174.6500  143.3880 C   0  0  0  0  0  3  0  0  0  0  0  0
  190.1400  172.5430  141.1780 C   0  0  0  0  0  1  0  0  0  0  0  0
  193.0240  168.1660  143.7070 C   0  0  0  0  0  1  0  0  0  0  0  0
  191.6160  173.1100  143.1320 C   0  0  2  0  0  3  0  0  0  0  0  0
  192.4820  170.3900  142.7870 C   0  0  0  0  0  0  0  0  0  0  0  0
  186.7010  178.0460  145.9720 C   0  0  2  0  0  3  0  0  0  0  0  0
  185.6110  177.6770  146.9280 C   0  0  0  0  0  0  0  0  0  0  0  0
  184.2790  177.9050  146.6040 O   0  0  0  0  0  0  0  0  0  0  0  0
  185.9040  177.1800  148.0460 O   0  0  0  0  0  1  0  0  0  0  0  0
  1 29  1  0  0  0  0
  2 12  1  0  0  0  0
  4  3  1  0  0  0  0
  5 25  1  6  0  0  0
  5 27  1  0  0  0  0
  6  5  1  0  0  0  0
  6 28  2  0  0  0  0
  7 17  2  0  0  0  0
  9 28  1  0  0  0  0
  9 26  1  1  0  0  0
 10 20  1  0  0  0  0
 11  3  2  0  0  0  0
 12 13  1  0  0  0  0
 12  8  2  0  0  0  0
 13 11  1  0  0  0  0
 14 23  1  6  0  0  0
 14 22  1  0  0  0  0
 15  9  1  0  0  0  0
 16  1  1  0  0  0  0
 17  8  1  0  0  0  0
 17 10  1  0  0  0  0
 18 15  2  0  0  0  0
 18  6  1  0  0  0  0
 19  7  1  0  0  0  0
 19 16  1  0  0  0  0
 21  4  2  0  0  0  0
 22 13  2  0  0  0  0
 22 21  1  0  0  0  0
 24  2  2  0  0  0  0
 24  7  1  0  0  0  0
 27  2  1  1  0  0  0
 27 14  1  0  0  0  0
 28 23  1  0  0  0  0
 29 20  1  0  0  0  0
 29 30  1  1  0  0  0
 30 32  1  0  0  0  0
 31 30  2  0  0  0  0
M  END
>  <MODEL>
6

>  <REMARK>
 VINA RESULT:      -7.6      4.517      7.356
  Name = 
  1 active torsions:
  status: ('A' for Active; 'I' for Inactive)
    1  A    between atoms: C_29  and  C_30
                            x       y       z     vdW  Elec       q    Type
                         _______ _______ _______ _____ _____    ______ ____

>  <TORSDO>
F 1

$$$$
=
 OpenBabel11112416283D

 32 37  0  0  1  0  0  0  0  0999 V2000
  192.9150  173.9920  145.9400 O   0  0  0  0  0  0  0  0  0  0  0  0
  188.7500  175.2050  142.1960 C   0  0  0  0  0  0  0  0  0  0  0  0
  185.3340  178.4970  143.5420 C   0  0  0  0  0  3  0  0  0  0  0  0
  184.9200  178.6350  142.2170 C   0  0  0  0  0  3  0  0  0  0  0  0
  188.8900  174.3770  139.7660 C   0  0  2  0  0  3  0  0  0  0  0  0
  188.3760  174.6560  138.3790 C   0  0  0  0  0  0  0  0  0  0  0  0
  190.4590  174.4680  143.7790 C   0  0  0  0  0  0  0  0  0  0  0  0
  188.8560  176.1710  144.4230 C   0  0  0  0  0  3  0  0  0  0  0  0
  187.2120  175.5220  136.6200 C   0  0  2  0  0  3  0  0  0  0  0  0
  190.5750  175.5390  146.0140 N   0  0  0  0  0  2  0  0  0  0  0  0
  186.4140  177.6670  143.8510 C   0  0  0  0  0  3  0  0  0  0  0  0
  188.2410  176.0940  143.1650 C   0  0  0  0  0  0  0  0  0  0  0  0
  187.0840  176.9600  142.8400 C   0  0  0  0  0  0  0  0  0  0  0  0
  187.4290  176.3980  140.4000 C   0  0  2  0  0  3  0  0  0  0  0  0
  188.2440  174.6280  136.0660 N   0  0  0  0  0  0  0  0  0  0  0  0
  192.8280  174.1250  144.5440 C   0  0  0  0  0  2  0  0  0  0  0  0
  189.9600  175.3770  144.7370 C   0  0  0  0  0  0  0  0  0  0  0  0
  188.9240  174.1280  137.1920 N   0  0  0  0  0  0  0  0  0  0  0  0
  191.5410  173.4730  144.0730 C   0  0  0  0  0  2  0  0  0  0  0  0
  191.8480  176.2350  146.1230 C   0  0  0  0  0  2  0  0  0  0  0  0
  185.5810  177.9400  141.2020 C   0  0  0  0  0  3  0  0  0  0  0  0
  186.6510  177.0800  141.5030 C   0  0  0  0  0  0  0  0  0  0  0  0
  186.5920  176.1910  139.1310 C   0  0  0  0  0  2  0  0  0  0  0  0
  189.8370  174.3830  142.5310 C   0  0  0  0  0  3  0  0  0  0  0  0
  188.9230  172.8730  139.9830 C   0  0  0  0  0  1  0  0  0  0  0  0
  187.4200  176.9270  136.0880 C   0  0  0  0  0  1  0  0  0  0  0  0
  188.0280  175.0490  140.8690 C   0  0  2  0  0  3  0  0  0  0  0  0
  187.4130  175.4930  138.0950 C   0  0  0  0  0  0  0  0  0  0  0  0
  192.9660  175.2730  146.5400 C   0  0  2  0  0  3  0  0  0  0  0  0
  194.3220  175.8960  146.4370 C   0  0  0  0  0  0  0  0  0  0  0  0
  195.4490  175.1070  146.2460 O   0  0  0  0  0  0  0  0  0  0  0  0
  194.4450  177.1430  146.5500 O   0  0  0  0  0  1  0  0  0  0  0  0
  1 29  1  0  0  0  0
  2 24  2  0  0  0  0
  2 12  1  0  0  0  0
  3 11  1  0  0  0  0
  4  3  2  0  0  0  0
  5 25  1  1  0  0  0
  5 27  1  0  0  0  0
  6  5  1  0  0  0  0
  7 19  1  0  0  0  0
  7 17  2  0  0  0  0
  8 17  1  0  0  0  0
  9 26  1  6  0  0  0
  9 28  1  0  0  0  0
 10 20  1  0  0  0  0
 12  8  2  0  0  0  0
 13 12  1  0  0  0  0
 13 11  2  0  0  0  0
 14 23  1  6  0  0  0
 14 27  1  0  0  0  0
 14 22  1  0  0  0  0
 15  9  1  0  0  0  0
 15 18  2  0  0  0  0
 16  1  1  0  0  0  0
 17 10  1  0  0  0  0
 18  6  1  0  0  0  0
 19 16  1  0  0  0  0
 20 29  1  0  0  0  0
 21 22  2  0  0  0  0
 21  4  1  0  0  0  0
 22 13  1  0  0  0  0
 24  7  1  0  0  0  0
 27  2  1  1  0  0  0
 28  6  2  0  0  0  0
 28 23  1  0  0  0  0
 29 30  1  6  0  0  0
 30 32  1  0  0  0  0
 31 30  2  0  0  0  0
M  END
>  <MODEL>
7

>  <REMARK>
 VINA RESULT:      -7.1      5.708      8.939
  Name = 
  1 active torsions:
  status: ('A' for Active; 'I' for Inactive)
    1  A    between atoms: C_29  and  C_30
                            x       y       z     vdW  Elec       q    Type
                         _______ _______ _______ _____ _____    ______ ____

>  <TORSDO>
F 1

$$$$
=
 OpenBabel11112416283D

 32 37  0  0  1  0  0  0  0  0999 V2000
  187.8530  177.8150  147.5860 O   0  0  0  0  0  0  0  0  0  0  0  0
  191.9970  174.9810  144.8240 C   0  0  0  0  0  0  0  0  0  0  0  0
  190.7340  170.9250  142.3190 C   0  0  0  0  0  3  0  0  0  0  0  0
  191.9470  170.9510  141.6300 C   0  0  0  0  0  3  0  0  0  0  0  0
  194.3390  176.0090  144.5620 C   0  0  2  0  0  3  0  0  0  0  0  0
  195.5820  175.9440  143.7170 C   0  0  0  0  0  0  0  0  0  0  0  0
  190.3530  176.1590  146.1940 C   0  0  0  0  0  0  0  0  0  0  0  0
  189.6860  174.2320  144.8800 C   0  0  0  0  0  3  0  0  0  0  0  0
  197.1340  175.3180  142.1690 C   0  0  2  0  0  3  0  0  0  0  0  0
  187.9900  175.4020  146.1590 N   0  0  0  0  0  2  0  0  0  0  0  0
  190.4260  171.9410  143.2260 C   0  0  0  0  0  3  0  0  0  0  0  0
  190.9990  174.0760  144.4100 C   0  0  0  0  0  0  0  0  0  0  0  0
  191.3320  172.9880  143.4610 C   0  0  0  0  0  0  0  0  0  0  0  0
  193.5040  174.1780  142.9590 C   0  0  2  0  0  3  0  0  0  0  0  0
  197.6010  176.5780  142.7730 N   0  0  0  0  0  0  0  0  0  0  0  0
  189.0140  178.1720  146.8800 C   0  0  0  0  0  2  0  0  0  0  0  0
  189.3520  175.2640  145.7580 C   0  0  0  0  0  0  0  0  0  0  0  0
  196.6090  176.9110  143.7130 N   0  0  0  0  0  0  0  0  0  0  0  0
  190.1240  177.2020  147.2450 C   0  0  0  0  0  2  0  0  0  0  0  0
  187.1750  176.4720  145.6010 C   0  0  0  0  0  2  0  0  0  0  0  0
  192.8540  171.9900  141.8510 C   0  0  0  0  0  3  0  0  0  0  0  0
  192.5690  173.0030  142.7830 C   0  0  0  0  0  0  0  0  0  0  0  0
  194.9560  173.8340  142.5970 C   0  0  0  0  0  2  0  0  0  0  0  0
  191.6620  175.9940  145.7350 C   0  0  0  0  0  3  0  0  0  0  0  0
  194.7440  176.1600  146.0200 C   0  0  0  0  0  1  0  0  0  0  0  0
  196.9520  175.5080  140.6750 C   0  0  0  0  0  1  0  0  0  0  0  0
  193.4370  174.7560  144.3940 C   0  0  2  0  0  3  0  0  0  0  0  0
  195.8250  175.0290  142.8170 C   0  0  0  0  0  0  0  0  0  0  0  0
  186.8160  177.5050  146.6760 C   0  0  2  0  0  3  0  0  0  0  0  0
  186.1810  178.7300  146.0970 C   0  0  0  0  0  0  0  0  0  0  0  0
  186.3320  179.0340  144.7500 O   0  0  0  0  0  0  0  0  0  0  0  0
  185.5270  179.5040  146.8430 O   0  0  0  0  0  1  0  0  0  0  0  0
  2 24  1  0  0  0  0
  3 11  1  0  0  0  0
  4 21  1  0  0  0  0
  4  3  2  0  0  0  0
  5 25  1  1  0  0  0
  6  5  1  0  0  0  0
  7 19  1  0  0  0  0
  8 17  2  0  0  0  0
  9 26  1  6  0  0  0
  9 15  1  0  0  0  0
  9 28  1  0  0  0  0
 11 13  2  0  0  0  0
 12  2  2  0  0  0  0
 12  8  1  0  0  0  0
 13 12  1  0  0  0  0
 14 23  1  1  0  0  0
 14 27  1  0  0  0  0
 15 18  2  0  0  0  0
 16 19  1  0  0  0  0
 16  1  1  0  0  0  0
 17 10  1  0  0  0  0
 17  7  1  0  0  0  0
 18  6  1  0  0  0  0
 20 10  1  0  0  0  0
 20 29  1  0  0  0  0
 21 22  2  0  0  0  0
 22 14  1  0  0  0  0
 22 13  1  0  0  0  0
 23 28  1  0  0  0  0
 24  7  2  0  0  0  0
 27  5  1  0  0  0  0
 27  2  1  6  0  0  0
 28  6  2  0  0  0  0
 29 30  1  6  0  0  0
 29  1  1  0  0  0  0
 30 32  1  0  0  0  0
 31 30  2  0  0  0  0
M  END
>  <MODEL>
8

>  <REMARK>
 VINA RESULT:      -7.0      4.914      8.522
  Name = 
  1 active torsions:
  status: ('A' for Active; 'I' for Inactive)
    1  A    between atoms: C_29  and  C_30
                            x       y       z     vdW  Elec       q    Type
                         _______ _______ _______ _____ _____    ______ ____

>  <TORSDO>
F 1

$$$$
=
 OpenBabel11112416283D

 32 37  0  0  1  0  0  0  0  0999 V2000
  194.1240  172.7850  137.8530 O   0  0  0  0  0  0  0  0  0  0  0  0
  191.2300  174.5380  142.4760 C   0  0  0  0  0  0  0  0  0  0  0  0
  193.8250  175.7660  146.4860 C   0  0  0  0  0  3  0  0  0  0  0  0
  192.7150  176.4150  147.0270 C   0  0  0  0  0  3  0  0  0  0  0  0
  188.7160  175.0560  142.3310 C   0  0  2  0  0  3  0  0  0  0  0  0
  187.6160  175.8280  143.0080 C   0  0  0  0  0  0  0  0  0  0  0  0
  192.3410  173.5960  140.5160 C   0  0  0  0  0  0  0  0  0  0  0  0
  193.6470  174.2980  142.4350 C   0  0  0  0  0  3  0  0  0  0  0  0
  186.4420  177.1030  144.4890 C   0  0  2  0  0  3  0  0  0  0  0  0
  194.8180  173.4420  140.4910 N   0  0  0  0  0  2  0  0  0  0  0  0
  193.7480  175.1990  145.2110 C   0  0  0  0  0  3  0  0  0  0  0  0
  192.4800  174.6840  143.1110 C   0  0  0  0  0  0  0  0  0  0  0  0
  192.5570  175.2680  144.4700 C   0  0  0  0  0  0  0  0  0  0  0  0
  190.1750  176.0650  144.1940 C   0  0  2  0  0  3  0  0  0  0  0  0
  185.5780  176.8880  143.3150 N   0  0  0  0  0  0  0  0  0  0  0  0
  192.9680  173.5480  138.0820 C   0  0  0  0  0  2  0  0  0  0  0  0
  193.5930  173.7650  141.1460 C   0  0  0  0  0  0  0  0  0  0  0  0
  186.3520  176.1000  142.4440 N   0  0  0  0  0  0  0  0  0  0  0  0
  192.1700  172.8990  139.2000 C   0  0  0  0  0  2  0  0  0  0  0  0
  195.3190  174.2990  139.4270 C   0  0  0  0  0  2  0  0  0  0  0  0
  191.5270  176.4940  146.2970 C   0  0  0  0  0  3  0  0  0  0  0  0
  191.4270  175.9040  145.0260 C   0  0  0  0  0  0  0  0  0  0  0  0
  188.9230  176.2900  145.0520 C   0  0  0  0  0  2  0  0  0  0  0  0
  191.1790  173.9680  141.1950 C   0  0  0  0  0  3  0  0  0  0  0  0
  188.1740  173.7010  141.9050 C   0  0  0  0  0  1  0  0  0  0  0  0
  186.6740  178.5900  144.6830 C   0  0  0  0  0  1  0  0  0  0  0  0
  189.9580  174.8630  143.2410 C   0  0  2  0  0  3  0  0  0  0  0  0
  187.7250  176.4180  144.1690 C   0  0  0  0  0  0  0  0  0  0  0  0
  195.2730  173.5790  138.0750 C   0  0  2  0  0  3  0  0  0  0  0  0
  195.5590  174.4990  136.9300 C   0  0  0  0  0  0  0  0  0  0  0  0
  195.3990  174.0670  135.6200 O   0  0  0  0  0  0  0  0  0  0  0  0
  195.9730  175.6660  137.1560 O   0  0  0  0  0  1  0  0  0  0  0  0
  1 29  1  0  0  0  0
  1 16  1  0  0  0  0
  2 12  1  0  0  0  0
  3  4  1  0  0  0  0
  5 25  1  1  0  0  0
  5  6  1  0  0  0  0
  5 27  1  0  0  0  0
  6 28  2  0  0  0  0
  7 17  2  0  0  0  0
  7 24  1  0  0  0  0
  8 12  2  0  0  0  0
  9 26  1  6  0  0  0
 10 17  1  0  0  0  0
 11  3  2  0  0  0  0
 12 13  1  0  0  0  0
 13 22  2  0  0  0  0
 13 11  1  0  0  0  0
 14 22  1  0  0  0  0
 14 23  1  1  0  0  0
 15  9  1  0  0  0  0
 16 19  1  0  0  0  0
 17  8  1  0  0  0  0
 18  6  1  0  0  0  0
 18 15  2  0  0  0  0
 19  7  1  0  0  0  0
 20 10  1  0  0  0  0
 21  4  2  0  0  0  0
 22 21  1  0  0  0  0
 24  2  2  0  0  0  0
 27  2  1  6  0  0  0
 27 14  1  0  0  0  0
 28  9  1  0  0  0  0
 28 23  1  0  0  0  0
 29 30  1  6  0  0  0
 29 20  1  0  0  0  0
 30 32  1  0  0  0  0
 31 30  2  0  0  0  0
M  END
>  <MODEL>
9

>  <REMARK>
 VINA RESULT:      -6.9      6.178     10.011
  Name = 
  1 active torsions:
  status: ('A' for Active; 'I' for Inactive)
    1  A    between atoms: C_29  and  C_30
                            x       y       z     vdW  Elec       q    Type
                         _______ _______ _______ _____ _____    ______ ____

>  <TORSDO>
F 1

$$$$
