=
 OpenBabel11112416293D

 32 37  0  0  1  0  0  0  0  0999 V2000
  185.2580  177.0260  144.9780 C   0  0  0  0  0  2  0  0  0  0  0  0
  190.3800  175.5200  144.8160 C   0  0  1  0  0  3  0  0  0  0  0  0
  190.0600  171.3620  142.0910 C   0  0  0  0  0  3  0  0  0  0  0  0
  191.2240  170.8700  142.6850 C   0  0  0  0  0  3  0  0  0  0  0  0
  192.0720  175.6120  146.6570 C   0  0  0  0  0  0  0  0  0  0  0  0
  193.3820  175.9890  146.1400 C   0  0  0  0  0  0  0  0  0  0  0  0
  188.4770  177.0730  144.6860 N   0  0  1  0  0  0  0  0  0  0  0  0
  188.6990  175.3280  142.9660 C   0  0  0  0  0  2  0  0  0  0  0  0
  195.0880  176.0890  144.6340 C   0  0  0  0  0  0  0  0  0  0  0  0
  186.7270  176.8260  142.8960 C   0  0  0  0  0  2  0  0  0  0  0  0
  189.5670  172.6180  142.4540 C   0  0  0  0  0  3  0  0  0  0  0  0
  189.7120  174.6860  143.8040 N   0  0  0  0  0  0  0  0  0  0  0  0
  190.2340  173.3990  143.4140 C   0  0  0  0  0  0  0  0  0  0  0  0
  192.1590  173.7010  145.0130 C   0  0  1  0  0  3  0  0  0  0  0  0
  195.2750  177.0400  145.4980 N   0  0  0  0  0  0  0  0  0  0  0  0
  186.3470  177.2130  146.0470 C   0  0  0  0  0  2  0  0  0  0  0  0
  187.7290  176.1300  143.8270 C   0  0  2  0  0  3  0  0  0  0  0  0
  194.1890  176.9970  146.4440 C   0  0  0  0  0  2  0  0  0  0  0  0
  187.6160  177.9170  145.5320 C   0  0  0  0  0  2  0  0  0  0  0  0
  185.6260  177.6180  143.6120 C   0  0  1  0  0  3  0  0  0  0  0  0
  191.8940  171.6350  143.6420 C   0  0  0  0  0  3  0  0  0  0  0  0
  191.4020  172.8920  144.0130 C   0  0  0  0  0  0  0  0  0  0  0  0
  193.3280  174.3460  144.3860 N   0  0  0  0  0  2  0  0  0  0  0  0
  189.3200  176.3010  145.5960 C   0  0  0  0  0  2  0  0  0  0  0  0
  191.6260  176.0810  147.7370 O   0  0  0  0  0  0  0  0  0  0  0  0
  196.0050  175.8120  143.4970 C   0  0  0  0  0  1  0  0  0  0  0  0
  191.2380  174.6930  145.7890 C   0  0  2  0  0  3  0  0  0  0  0  0
  193.9000  175.3470  144.9790 C   0  0  0  0  0  0  0  0  0  0  0  0
  184.4500  177.6840  142.7580 N   0  0  0  0  0  2  0  0  0  0  0  0
  184.4850  178.2330  141.4390 C   0  0  0  0  0  0  0  0  0  0  0  0
  185.5630  178.6660  140.9510 O   0  0  0  0  0  0  0  0  0  0  0  0
  183.2380  178.2910  140.6340 C   0  0  0  0  0  1  0  0  0  0  0  0
  1 16  1  0  0  0  0
  2 24  1  1  0  0  0
  2 27  1  0  0  0  0
  3 11  2  0  0  0  0
  3  4  1  0  0  0  0
  4 21  2  0  0  0  0
  5 25  2  0  0  0  0
  6 18  1  0  0  0  0
  6  5  1  0  0  0  0
  7 19  1  1  0  0  0
  7 24  1  0  0  0  0
  8 12  1  0  0  0  0
  8 17  1  0  0  0  0
  9 28  1  0  0  0  0
  9 15  2  0  0  0  0
 10 20  1  0  0  0  0
 11 13  1  0  0  0  0
 12  2  1  0  0  0  0
 13 12  1  0  0  0  0
 13 22  2  0  0  0  0
 14 22  1  6  0  0  0
 14 27  1  0  0  0  0
 15 18  1  0  0  0  0
 17 10  1  6  0  0  0
 17  7  1  0  0  0  0
 19 16  1  0  0  0  0
 20 29  1  6  0  0  0
 20  1  1  0  0  0  0
 21 22  1  0  0  0  0
 23 28  1  0  0  0  0
 23 14  1  0  0  0  0
 26  9  1  0  0  0  0
 27  5  1  6  0  0  0
 28  6  2  0  0  0  0
 30 29  1  0  0  0  0
 31 30  2  0  0  0  0
 32 30  1  0  0  0  0
M  END
>  <MODEL>
1

>  <REMARK>
 VINA RESULT:      -8.7      0.000      0.000
  Name = 
  1 active torsions:
  status: ('A' for Active; 'I' for Inactive)
    1  A    between atoms: C_20  and  N_29
                            x       y       z     vdW  Elec       q    Type
                         _______ _______ _______ _____ _____    ______ ____

>  <TORSDO>
F 1

$$$$
=
 OpenBabel11112416293D

 32 37  0  0  1  0  0  0  0  0999 V2000
  187.2570  176.6990  146.3150 C   0  0  0  0  0  2  0  0  0  0  0  0
  191.8000  175.3050  143.8780 C   0  0  1  0  0  3  0  0  0  0  0  0
  190.2160  171.5750  140.9810 C   0  0  0  0  0  3  0  0  0  0  0  0
  191.4980  171.0200  140.9770 C   0  0  0  0  0  3  0  0  0  0  0  0
  194.0950  175.1570  144.8640 C   0  0  0  0  0  0  0  0  0  0  0  0
  195.1000  175.6230  143.9160 C   0  0  0  0  0  0  0  0  0  0  0  0
  190.0800  176.8330  144.7470 N   0  0  1  0  0  0  0  0  0  0  0  0
  189.5080  175.3560  142.8660 C   0  0  0  0  0  2  0  0  0  0  0  0
  196.0520  175.9610  141.8750 C   0  0  0  0  0  0  0  0  0  0  0  0
  187.7460  176.8190  143.8100 C   0  0  0  0  0  2  0  0  0  0  0  0
  189.9710  172.7590  141.6800 C   0  0  0  0  0  3  0  0  0  0  0  0
  190.7430  174.6140  143.1220 N   0  0  0  0  0  0  0  0  0  0  0  0
  191.0030  173.4040  142.3830 C   0  0  0  0  0  0  0  0  0  0  0  0
  193.4220  173.5030  143.0840 C   0  0  1  0  0  3  0  0  0  0  0  0
  196.6150  176.7810  142.7080 N   0  0  0  0  0  0  0  0  0  0  0  0
  188.6930  176.7470  146.8630 C   0  0  0  0  0  2  0  0  0  0  0  0
  189.0070  176.0130  144.1480 C   0  0  2  0  0  3  0  0  0  0  0  0
  196.0060  176.5890  143.9990 C   0  0  0  0  0  2  0  0  0  0  0  0
  189.6750  177.5350  145.9770 C   0  0  0  0  0  2  0  0  0  0  0  0
  187.0670  177.4850  145.0120 C   0  0  1  0  0  3  0  0  0  0  0  0
  192.5310  171.6500  141.6720 C   0  0  0  0  0  3  0  0  0  0  0  0
  192.2900  172.8340  142.3790 C   0  0  0  0  0  0  0  0  0  0  0  0
  194.2660  174.2470  142.1300 N   0  0  0  0  0  2  0  0  0  0  0  0
  191.1840  175.9510  145.1210 C   0  0  0  0  0  2  0  0  0  0  0  0
  194.1470  175.4600  146.0860 O   0  0  0  0  0  0  0  0  0  0  0  0
  196.4170  175.8630  140.4370 C   0  0  0  0  0  1  0  0  0  0  0  0
  192.9400  174.3600  144.2950 C   0  0  2  0  0  3  0  0  0  0  0  0
  195.0730  175.1610  142.5690 C   0  0  0  0  0  0  0  0  0  0  0  0
  185.6500  177.6560  144.7290 N   0  0  0  0  0  2  0  0  0  0  0  0
  185.1110  178.8670  144.1960 C   0  0  0  0  0  0  0  0  0  0  0  0
  185.8640  179.8410  143.9230 O   0  0  0  0  0  0  0  0  0  0  0  0
  183.6500  178.9780  143.9560 C   0  0  0  0  0  1  0  0  0  0  0  0
  1 16  1  0  0  0  0
  2 27  1  0  0  0  0
  2 24  1  1  0  0  0
  3 11  1  0  0  0  0
  4  3  2  0  0  0  0
  4 21  1  0  0  0  0
  5 25  2  0  0  0  0
  6 18  1  0  0  0  0
  6  5  1  0  0  0  0
  7 24  1  1  0  0  0
  7 19  1  0  0  0  0
  8 12  1  0  0  0  0
  9 28  1  0  0  0  0
  9 15  2  0  0  0  0
 10 17  1  0  0  0  0
 10 20  1  0  0  0  0
 11 13  2  0  0  0  0
 12  2  1  0  0  0  0
 13 12  1  0  0  0  0
 14 23  1  6  0  0  0
 14 27  1  0  0  0  0
 15 18  1  0  0  0  0
 17  8  1  6  0  0  0
 17  7  1  0  0  0  0
 19 16  1  0  0  0  0
 20 29  1  6  0  0  0
 20  1  1  0  0  0  0
 21 22  2  0  0  0  0
 22 13  1  0  0  0  0
 22 14  1  0  0  0  0
 23 28  1  0  0  0  0
 26  9  1  0  0  0  0
 27  5  1  6  0  0  0
 28  6  2  0  0  0  0
 30 29  1  0  0  0  0
 31 30  2  0  0  0  0
 32 30  1  0  0  0  0
M  END
>  <MODEL>
2

>  <REMARK>
 VINA RESULT:      -8.3      1.835      2.321
  Name = 
  1 active torsions:
  status: ('A' for Active; 'I' for Inactive)
    1  A    between atoms: C_20  and  N_29
                            x       y       z     vdW  Elec       q    Type
                         _______ _______ _______ _____ _____    ______ ____

>  <TORSDO>
F 1

$$$$
=
 OpenBabel11112416293D

 32 37  0  0  1  0  0  0  0  0999 V2000
  187.2260  177.7560  143.0460 C   0  0  0  0  0  2  0  0  0  0  0  0
  190.9650  173.9540  143.3520 C   0  0  1  0  0  3  0  0  0  0  0  0
  194.1930  176.0530  146.5130 C   0  0  0  0  0  3  0  0  0  0  0  0
  195.2330  175.2950  145.9710 C   0  0  0  0  0  3  0  0  0  0  0  0
  191.8630  172.5240  141.5060 C   0  0  0  0  0  0  0  0  0  0  0  0
  192.1080  171.1650  141.9740 C   0  0  0  0  0  0  0  0  0  0  0  0
  188.6890  174.8870  143.3200 N   0  0  1  0  0  0  0  0  0  0  0  0
  190.1590  175.4220  145.2180 C   0  0  0  0  0  2  0  0  0  0  0  0
  192.6920  169.5350  143.4550 C   0  0  0  0  0  0  0  0  0  0  0  0
  187.9050  176.4440  145.1320 C   0  0  0  0  0  2  0  0  0  0  0  0
  192.8950  175.9120  146.0180 C   0  0  0  0  0  3  0  0  0  0  0  0
  191.2820  174.8810  144.4510 N   0  0  0  0  0  0  0  0  0  0  0  0
  192.6190  175.0100  144.9760 C   0  0  0  0  0  0  0  0  0  0  0  0
  193.4200  173.2610  143.3470 C   0  0  1  0  0  3  0  0  0  0  0  0
  192.0300  168.9690  142.4920 N   0  0  0  0  0  0  0  0  0  0  0  0
  187.6800  176.7680  141.9590 C   0  0  0  0  0  2  0  0  0  0  0  0
  189.0770  175.9430  144.2780 C   0  0  2  0  0  3  0  0  0  0  0  0
  191.6390  169.9950  141.5600 C   0  0  0  0  0  3  0  0  0  0  0  0
  187.6210  175.2910  142.3900 C   0  0  0  0  0  2  0  0  0  0  0  0
  186.7550  177.0770  144.3390 C   0  0  1  0  0  3  0  0  0  0  0  0
  194.9730  174.3960  144.9350 C   0  0  0  0  0  3  0  0  0  0  0  0
  193.6740  174.2540  144.4310 C   0  0  0  0  0  0  0  0  0  0  0  0
  193.3550  171.8930  143.8960 N   0  0  0  0  0  0  0  0  0  0  0  0
  189.8510  174.5600  142.4960 C   0  0  0  0  0  2  0  0  0  0  0  0
  191.3420  172.7530  140.3830 O   0  0  0  0  0  0  0  0  0  0  0  0
  193.2640  168.7970  144.6120 C   0  0  0  0  0  1  0  0  0  0  0  0
  192.1880  173.6440  142.4720 C   0  0  2  0  0  3  0  0  0  0  0  0
  192.8070  170.9500  143.1960 C   0  0  0  0  0  0  0  0  0  0  0  0
  186.0580  178.0330  145.1840 N   0  0  0  0  0  2  0  0  0  0  0  0
  185.1420  177.6350  146.2060 C   0  0  0  0  0  0  0  0  0  0  0  0
  184.9210  176.4140  146.4310 O   0  0  0  0  0  0  0  0  0  0  0  0
  184.4470  178.6680  147.0140 C   0  0  0  0  0  1  0  0  0  0  0  0
  1 20  1  0  0  0  0
  2 24  1  6  0  0  0
  2 12  1  0  0  0  0
  4  3  2  0  0  0  0
  5  6  1  0  0  0  0
  6 28  1  0  0  0  0
  7 19  1  6  0  0  0
  7 17  1  0  0  0  0
  9 26  1  0  0  0  0
 11  3  1  0  0  0  0
 12 13  1  0  0  0  0
 12  8  1  0  0  0  0
 13 11  2  0  0  0  0
 14 23  1  1  0  0  0
 14 22  1  0  0  0  0
 15  9  2  0  0  0  0
 16 19  1  0  0  0  0
 16  1  1  0  0  0  0
 17 10  1  1  0  0  0
 17  8  1  0  0  0  0
 18  6  2  0  0  0  0
 18 15  1  0  0  0  0
 20 10  1  0  0  0  0
 20 29  1  1  0  0  0
 21  4  1  0  0  0  0
 22 21  2  0  0  0  0
 22 13  1  0  0  0  0
 24  7  1  0  0  0  0
 25  5  2  0  0  0  0
 27  5  1  6  0  0  0
 27 14  1  0  0  0  0
 27  2  1  0  0  0  0
 28  9  1  0  0  0  0
 28 23  2  0  0  0  0
 29 30  1  0  0  0  0
 30 31  2  0  0  0  0
 30 32  1  0  0  0  0
M  END
>  <MODEL>
3

>  <REMARK>
 VINA RESULT:      -8.2      2.600      5.119
  Name = 
  1 active torsions:
  status: ('A' for Active; 'I' for Inactive)
    1  A    between atoms: C_20  and  N_29
                            x       y       z     vdW  Elec       q    Type
                         _______ _______ _______ _____ _____    ______ ____

>  <TORSDO>
F 1

$$$$
=
 OpenBabel11112416293D

 32 37  0  0  1  0  0  0  0  0999 V2000
  188.1910  175.6660  146.8880 C   0  0  0  0  0  2  0  0  0  0  0  0
  192.4120  174.7740  143.7380 C   0  0  1  0  0  3  0  0  0  0  0  0
  190.1950  172.8950  139.6930 C   0  0  0  0  0  3  0  0  0  0  0  0
  191.3640  172.2110  139.3560 C   0  0  0  0  0  3  0  0  0  0  0  0
  194.6590  173.8850  144.3880 C   0  0  0  0  0  0  0  0  0  0  0  0
  195.7180  174.5530  143.6410 C   0  0  0  0  0  0  0  0  0  0  0  0
  190.9820  176.0290  145.2970 N   0  0  1  0  0  0  0  0  0  0  0  0
  190.1500  175.5860  143.0240 C   0  0  0  0  0  2  0  0  0  0  0  0
  196.6930  175.5760  141.8540 C   0  0  0  0  0  0  0  0  0  0  0  0
  188.6700  176.7580  144.6270 C   0  0  0  0  0  2  0  0  0  0  0  0
  190.1580  173.6950  140.8370 C   0  0  0  0  0  3  0  0  0  0  0  0
  191.2460  174.6320  142.8510 N   0  0  0  0  0  0  0  0  0  0  0  0
  191.2920  173.8230  141.6580 C   0  0  0  0  0  0  0  0  0  0  0  0
  193.7000  173.2560  142.1420 C   0  0  1  0  0  3  0  0  0  0  0  0
  197.3950  175.8740  142.9050 N   0  0  0  0  0  0  0  0  0  0  0  0
  189.6210  175.2650  147.2900 C   0  0  0  0  0  2  0  0  0  0  0  0
  189.7800  175.7070  144.4990 C   0  0  2  0  0  3  0  0  0  0  0  0
  196.7740  175.2470  144.0440 C   0  0  0  0  0  2  0  0  0  0  0  0
  190.7130  176.1980  146.7350 C   0  0  0  0  0  2  0  0  0  0  0  0
  188.1240  176.9470  146.0480 C   0  0  1  0  0  3  0  0  0  0  0  0
  192.4960  172.3270  140.1650 C   0  0  0  0  0  3  0  0  0  0  0  0
  192.4640  173.1240  141.3160 C   0  0  0  0  0  0  0  0  0  0  0  0
  194.6470  174.2000  141.5180 N   0  0  0  0  0  2  0  0  0  0  0  0
  191.9250  174.9190  145.1820 C   0  0  0  0  0  2  0  0  0  0  0  0
  194.7730  173.6330  145.6160 O   0  0  0  0  0  0  0  0  0  0  0  0
  197.0220  176.0400  140.4810 C   0  0  0  0  0  1  0  0  0  0  0  0
  193.3810  173.5840  143.6330 C   0  0  2  0  0  3  0  0  0  0  0  0
  195.6010  174.7120  142.2310 C   0  0  0  0  0  0  0  0  0  0  0  0
  186.7530  177.4290  145.9750 N   0  0  0  0  0  2  0  0  0  0  0  0
  186.1620  178.2300  147.0010 C   0  0  0  0  0  0  0  0  0  0  0  0
  186.8300  178.5750  148.0120 O   0  0  0  0  0  0  0  0  0  0  0  0
  184.7490  178.6660  146.8700 C   0  0  0  0  0  1  0  0  0  0  0  0
  1 16  1  0  0  0  0
  2 24  1  1  0  0  0
  3 11  1  0  0  0  0
  4  3  2  0  0  0  0
  4 21  1  0  0  0  0
  5 25  2  0  0  0  0
  6 18  1  0  0  0  0
  6  5  1  0  0  0  0
  7 24  1  1  0  0  0
  7 19  1  0  0  0  0
  9 28  1  0  0  0  0
  9 15  2  0  0  0  0
 10 20  1  0  0  0  0
 11 13  2  0  0  0  0
 12  8  1  0  0  0  0
 12  2  1  0  0  0  0
 13 12  1  0  0  0  0
 14 22  1  6  0  0  0
 14 27  1  0  0  0  0
 15 18  1  0  0  0  0
 17  8  1  6  0  0  0
 17 10  1  0  0  0  0
 17  7  1  0  0  0  0
 19 16  1  0  0  0  0
 20 29  1  6  0  0  0
 20  1  1  0  0  0  0
 21 22  2  0  0  0  0
 22 13  1  0  0  0  0
 23 14  1  0  0  0  0
 23 28  1  0  0  0  0
 26  9  1  0  0  0  0
 27  2  1  0  0  0  0
 27  5  1  1  0  0  0
 28  6  2  0  0  0  0
 29 30  1  0  0  0  0
 30 31  2  0  0  0  0
 32 30  1  0  0  0  0
M  END
>  <MODEL>
4

>  <REMARK>
 VINA RESULT:      -8.0      2.970      3.663
  Name = 
  1 active torsions:
  status: ('A' for Active; 'I' for Inactive)
    1  A    between atoms: C_20  and  N_29
                            x       y       z     vdW  Elec       q    Type
                         _______ _______ _______ _____ _____    ______ ____

>  <TORSDO>
F 1

$$$$
=
 OpenBabel11112416293D

 32 37  0  0  1  0  0  0  0  0999 V2000
  186.9450  178.0410  143.1010 C   0  0  0  0  0  2  0  0  0  0  0  0
  190.9520  174.5460  142.5940 C   0  0  1  0  0  3  0  0  0  0  0  0
  194.5340  176.8270  145.1980 C   0  0  0  0  0  3  0  0  0  0  0  0
  195.5120  176.1660  144.4520 C   0  0  0  0  0  3  0  0  0  0  0  0
  191.6040  173.2330  140.5660 C   0  0  0  0  0  0  0  0  0  0  0  0
  192.0320  171.8880  140.9330 C   0  0  0  0  0  0  0  0  0  0  0  0
  188.6450  175.2930  143.0030 N   0  0  1  0  0  0  0  0  0  0  0  0
  190.3910  175.9020  144.6260 C   0  0  0  0  0  2  0  0  0  0  0  0
  192.9950  170.2780  142.2250 C   0  0  0  0  0  0  0  0  0  0  0  0
  188.0880  176.7430  144.9820 C   0  0  0  0  0  2  0  0  0  0  0  0
  193.1810  176.5930  144.9390 C   0  0  0  0  0  3  0  0  0  0  0  0
  191.3930  175.4700  143.6510 N   0  0  0  0  0  0  0  0  0  0  0  0
  192.7900  175.6940  143.9320 C   0  0  0  0  0  0  0  0  0  0  0  0
  193.4110  174.0520  142.1230 C   0  0  1  0  0  3  0  0  0  0  0  0
  192.2140  169.6820  141.3770 N   0  0  0  0  0  0  0  0  0  0  0  0
  187.2680  177.1170  141.9140 C   0  0  0  0  0  2  0  0  0  0  0  0
  189.1200  176.3560  143.9140 C   0  0  2  0  0  3  0  0  0  0  0  0
  191.5840  170.6930  140.5670 C   0  0  0  0  0  3  0  0  0  0  0  0
  187.3980  175.6310  142.2950 C   0  0  0  0  0  2  0  0  0  0  0  0
  186.7690  177.2980  144.4310 C   0  0  1  0  0  3  0  0  0  0  0  0
  195.1360  175.2720  143.4480 C   0  0  0  0  0  3  0  0  0  0  0  0
  193.7820  175.0380  143.1800 C   0  0  0  0  0  0  0  0  0  0  0  0
  193.5480  172.6710  142.6250 N   0  0  0  0  0  0  0  0  0  0  0  0
  189.6590  175.0790  141.9730 C   0  0  0  0  0  2  0  0  0  0  0  0
  190.8720  173.4440  139.5630 O   0  0  0  0  0  0  0  0  0  0  0  0
  193.8210  169.5630  143.2330 C   0  0  0  0  0  1  0  0  0  0  0  0
  192.0140  174.3540  141.4980 C   0  0  2  0  0  3  0  0  0  0  0  0
  192.9550  171.7030  142.0010 C   0  0  0  0  0  0  0  0  0  0  0  0
  186.1670  178.1770  145.4220 N   0  0  0  0  0  2  0  0  0  0  0  0
  185.2430  177.7090  146.4060 C   0  0  0  0  0  0  0  0  0  0  0  0
  184.9300  176.4900  146.4670 O   0  0  0  0  0  0  0  0  0  0  0  0
  184.6490  178.6690  147.3710 C   0  0  0  0  0  1  0  0  0  0  0  0
  1 20  1  0  0  0  0
  2 24  1  6  0  0  0
  2 12  1  0  0  0  0
  4  3  2  0  0  0  0
  5  6  1  0  0  0  0
  6 28  1  0  0  0  0
  7 24  1  6  0  0  0
  7 17  1  0  0  0  0
  9 26  1  0  0  0  0
 11  3  1  0  0  0  0
 12 13  1  0  0  0  0
 12  8  1  0  0  0  0
 13 11  2  0  0  0  0
 14 23  1  1  0  0  0
 14 22  1  0  0  0  0
 15  9  2  0  0  0  0
 16 19  1  0  0  0  0
 16  1  1  0  0  0  0
 17  8  1  1  0  0  0
 17 10  1  0  0  0  0
 18  6  2  0  0  0  0
 18 15  1  0  0  0  0
 19  7  1  0  0  0  0
 20 10  1  0  0  0  0
 20 29  1  1  0  0  0
 21  4  1  0  0  0  0
 22 21  2  0  0  0  0
 22 13  1  0  0  0  0
 25  5  2  0  0  0  0
 27  5  1  6  0  0  0
 27 14  1  0  0  0  0
 27  2  1  0  0  0  0
 28  9  1  0  0  0  0
 28 23  2  0  0  0  0
 29 30  1  0  0  0  0
 30 31  2  0  0  0  0
 30 32  1  0  0  0  0
M  END
>  <MODEL>
5

>  <REMARK>
 VINA RESULT:      -7.8      2.667      5.209
  Name = 
  1 active torsions:
  status: ('A' for Active; 'I' for Inactive)
    1  A    between atoms: C_20  and  N_29
                            x       y       z     vdW  Elec       q    Type
                         _______ _______ _______ _____ _____    ______ ____

>  <TORSDO>
F 1

$$$$
=
 OpenBabel11112416293D

 32 37  0  0  1  0  0  0  0  0999 V2000
  189.8510  175.2830  147.5870 C   0  0  0  0  0  2  0  0  0  0  0  0
  193.1590  174.1650  143.5450 C   0  0  1  0  0  3  0  0  0  0  0  0
  190.9450  170.1530  141.5910 C   0  0  0  0  0  3  0  0  0  0  0  0
  192.1680  169.7150  141.0780 C   0  0  0  0  0  3  0  0  0  0  0  0
  195.6590  174.2760  143.5240 C   0  0  0  0  0  0  0  0  0  0  0  0
  196.1460  174.7760  142.2440 C   0  0  0  0  0  0  0  0  0  0  0  0
  191.7820  175.5800  145.0110 N   0  0  1  0  0  0  0  0  0  0  0  0
  190.6610  173.9550  143.5430 C   0  0  0  0  0  2  0  0  0  0  0  0
  196.1620  175.0830  139.9870 C   0  0  0  0  0  0  0  0  0  0  0  0
  189.2830  175.3070  145.0950 C   0  0  0  0  0  2  0  0  0  0  0  0
  190.8780  171.3480  142.3110 C   0  0  0  0  0  3  0  0  0  0  0  0
  191.9660  173.3420  143.2910 N   0  0  0  0  0  0  0  0  0  0  0  0
  192.0320  172.1200  142.5280 C   0  0  0  0  0  0  0  0  0  0  0  0
  194.5060  172.4720  142.1920 C   0  0  1  0  0  3  0  0  0  0  0  0
  196.9230  175.9950  140.5100 N   0  0  0  0  0  0  0  0  0  0  0  0
  191.3730  175.4890  147.5080 C   0  0  0  0  0  2  0  0  0  0  0  0
  190.6500  174.6350  144.9090 C   0  0  2  0  0  3  0  0  0  0  0  0
  196.9040  175.8220  141.9400 C   0  0  0  0  0  2  0  0  0  0  0  0
  191.8320  176.3110  146.2890 C   0  0  0  0  0  2  0  0  0  0  0  0
  189.0760  175.9760  146.4590 C   0  0  1  0  0  3  0  0  0  0  0  0
  193.3220  170.4720  141.2880 C   0  0  0  0  0  3  0  0  0  0  0  0
  193.2620  171.6670  142.0140 C   0  0  0  0  0  0  0  0  0  0  0  0
  194.8150  173.2340  140.9670 N   0  0  0  0  0  2  0  0  0  0  0  0
  193.0280  174.8220  144.9210 C   0  0  0  0  0  2  0  0  0  0  0  0
  196.1630  174.6500  144.6160 O   0  0  0  0  0  0  0  0  0  0  0  0
  195.9290  174.9370  138.5260 C   0  0  0  0  0  1  0  0  0  0  0  0
  194.4620  173.3490  143.4810 C   0  0  2  0  0  3  0  0  0  0  0  0
  195.6310  174.2390  141.0290 C   0  0  0  0  0  0  0  0  0  0  0  0
  187.6550  176.0040  146.7690 N   0  0  0  0  0  2  0  0  0  0  0  0
  186.7840  177.0360  146.3020 C   0  0  0  0  0  0  0  0  0  0  0  0
  187.2210  177.9630  145.5680 O   0  0  0  0  0  0  0  0  0  0  0  0
  185.3480  177.0130  146.6790 C   0  0  0  0  0  1  0  0  0  0  0  0
  2 24  1  1  0  0  0
  3 11  1  0  0  0  0
  4 21  1  0  0  0  0
  4  3  2  0  0  0  0
  5 25  2  0  0  0  0
  6  5  1  0  0  0  0
  7 24  1  1  0  0  0
  7 19  1  0  0  0  0
  9 15  2  0  0  0  0
  9 28  1  0  0  0  0
 10 20  1  0  0  0  0
 11 13  2  0  0  0  0
 12  8  1  0  0  0  0
 12  2  1  0  0  0  0
 13 12  1  0  0  0  0
 14 23  1  6  0  0  0
 14 27  1  0  0  0  0
 15 18  1  0  0  0  0
 16  1  1  0  0  0  0
 17  8  1  6  0  0  0
 17  7  1  0  0  0  0
 17 10  1  0  0  0  0
 18  6  1  0  0  0  0
 19 16  1  0  0  0  0
 20 29  1  1  0  0  0
 20  1  1  0  0  0  0
 21 22  2  0  0  0  0
 22 14  1  0  0  0  0
 22 13  1  0  0  0  0
 23 28  1  0  0  0  0
 26  9  1  0  0  0  0
 27  5  1  6  0  0  0
 27  2  1  0  0  0  0
 28  6  2  0  0  0  0
 30 32  1  0  0  0  0
 30 29  1  0  0  0  0
 31 30  2  0  0  0  0
M  END
>  <MODEL>
6

>  <REMARK>
 VINA RESULT:      -7.4      2.803      4.334
  Name = 
  1 active torsions:
  status: ('A' for Active; 'I' for Inactive)
    1  A    between atoms: C_20  and  N_29
                            x       y       z     vdW  Elec       q    Type
                         _______ _______ _______ _____ _____    ______ ____

>  <TORSDO>
F 1

$$$$
=
 OpenBabel11112416293D

 32 37  0  0  1  0  0  0  0  0999 V2000
  190.0230  177.5570  145.1220 C   0  0  0  0  0  2  0  0  0  0  0  0
  193.8620  174.8520  142.5770 C   0  0  1  0  0  3  0  0  0  0  0  0
  194.6690  171.1180  145.7740 C   0  0  0  0  0  3  0  0  0  0  0  0
  195.9730  170.9760  145.2960 C   0  0  0  0  0  3  0  0  0  0  0  0
  195.8080  175.7720  141.3020 C   0  0  0  0  0  0  0  0  0  0  0  0
  196.0790  174.9690  140.1150 C   0  0  0  0  0  0  0  0  0  0  0  0
  191.7410  176.0730  142.8200 N   0  0  1  0  0  0  0  0  0  0  0  0
  191.9770  173.8830  143.9150 C   0  0  0  0  0  2  0  0  0  0  0  0
  196.2090  173.0760  138.8550 C   0  0  0  0  0  0  0  0  0  0  0  0
  189.8800  175.1600  144.2460 C   0  0  0  0  0  2  0  0  0  0  0  0
  193.8260  172.0890  145.2280 C   0  0  0  0  0  3  0  0  0  0  0  0
  193.4140  173.9480  143.6490 N   0  0  0  0  0  0  0  0  0  0  0  0
  194.2770  172.9310  144.1960 C   0  0  0  0  0  0  0  0  0  0  0  0
  196.1040  173.6360  142.6100 C   0  0  1  0  0  3  0  0  0  0  0  0
  196.2230  174.0880  138.0420 N   0  0  0  0  0  0  0  0  0  0  0  0
  191.1370  178.1000  144.2110 C   0  0  0  0  0  2  0  0  0  0  0  0
  191.3930  175.2880  144.0240 C   0  0  2  0  0  3  0  0  0  0  0  0
  196.1200  175.2900  138.8280 C   0  0  0  0  0  3  0  0  0  0  0  0
  191.1890  177.4390  142.8220 C   0  0  0  0  0  2  0  0  0  0  0  0
  189.1460  176.4900  144.4550 C   0  0  1  0  0  3  0  0  0  0  0  0
  196.4330  171.8070  144.2730 C   0  0  0  0  0  3  0  0  0  0  0  0
  195.5950  172.7860  143.7260 C   0  0  0  0  0  0  0  0  0  0  0  0
  196.0720  172.8970  141.3330 N   0  0  0  0  0  0  0  0  0  0  0  0
  193.1940  176.2160  142.7650 C   0  0  0  0  0  2  0  0  0  0  0  0
  195.8530  177.0300  141.2750 O   0  0  0  0  0  0  0  0  0  0  0  0
  196.2990  171.6590  138.4140 C   0  0  0  0  0  1  0  0  0  0  0  0
  195.3910  175.0210  142.5500 C   0  0  2  0  0  3  0  0  0  0  0  0
  196.1360  173.5500  140.2150 C   0  0  0  0  0  0  0  0  0  0  0  0
  187.9470  176.2580  145.2450 N   0  0  0  0  0  2  0  0  0  0  0  0
  186.7940  177.0990  145.1620 C   0  0  0  0  0  0  0  0  0  0  0  0
  186.7670  178.0760  144.3660 O   0  0  0  0  0  0  0  0  0  0  0  0
  185.6150  176.8150  146.0180 C   0  0  0  0  0  1  0  0  0  0  0  0
  2 24  1  1  0  0  0
  2 12  1  0  0  0  0
  4  3  1  0  0  0  0
  6 28  1  0  0  0  0
  6  5  1  0  0  0  0
  7 24  1  1  0  0  0
  7 19  1  0  0  0  0
  7 17  1  0  0  0  0
  9 28  1  0  0  0  0
 10 20  1  0  0  0  0
 11  3  2  0  0  0  0
 12  8  1  0  0  0  0
 12 13  1  0  0  0  0
 13 11  1  0  0  0  0
 14 23  1  6  0  0  0
 14 22  1  0  0  0  0
 15 18  1  0  0  0  0
 15  9  2  0  0  0  0
 16  1  1  0  0  0  0
 17  8  1  6  0  0  0
 17 10  1  0  0  0  0
 18  6  2  0  0  0  0
 19 16  1  0  0  0  0
 20  1  1  0  0  0  0
 20 29  1  1  0  0  0
 21  4  2  0  0  0  0
 22 13  2  0  0  0  0
 22 21  1  0  0  0  0
 25  5  2  0  0  0  0
 26  9  1  0  0  0  0
 27  5  1  6  0  0  0
 27  2  1  0  0  0  0
 27 14  1  0  0  0  0
 28 23  2  0  0  0  0
 30 29  1  0  0  0  0
 30 32  1  0  0  0  0
 31 30  2  0  0  0  0
M  END
>  <MODEL>
7

>  <REMARK>
 VINA RESULT:      -7.4      3.501      5.298
  Name = 
  1 active torsions:
  status: ('A' for Active; 'I' for Inactive)
    1  A    between atoms: C_20  and  N_29
                            x       y       z     vdW  Elec       q    Type
                         _______ _______ _______ _____ _____    ______ ____

>  <TORSDO>
F 1

$$$$
=
 OpenBabel11112416293D

 32 37  0  0  1  0  0  0  0  0999 V2000
  192.2830  171.7230  142.5130 C   0  0  0  0  0  2  0  0  0  0  0  0
  188.8090  175.5500  143.8590 C   0  0  1  0  0  3  0  0  0  0  0  0
  186.7340  176.5420  139.4400 C   0  0  0  0  0  3  0  0  0  0  0  0
  186.4210  177.8340  139.8650 C   0  0  0  0  0  3  0  0  0  0  0  0
  189.1410  177.4350  145.4700 C   0  0  0  0  0  0  0  0  0  0  0  0
  187.9230  177.6890  146.2310 C   0  0  0  0  0  0  0  0  0  0  0  0
  190.0000  173.4070  144.0620 N   0  0  1  0  0  0  0  0  0  0  0  0
  188.4580  173.7290  142.1720 C   0  0  0  0  0  2  0  0  0  0  0  0
  185.6800  177.8290  146.6040 C   0  0  0  0  0  0  0  0  0  0  0  0
  189.7370  171.6130  142.3190 C   0  0  0  0  0  2  0  0  0  0  0  0
  187.3850  175.6600  140.3060 C   0  0  0  0  0  3  0  0  0  0  0  0
  188.4220  175.1560  142.4940 N   0  0  0  0  0  0  0  0  0  0  0  0
  187.7300  176.0600  141.6090 C   0  0  0  0  0  0  0  0  0  0  0  0
  187.7370  177.8210  143.4110 C   0  0  1  0  0  3  0  0  0  0  0  0
  186.2670  177.7940  147.7620 N   0  0  0  0  0  0  0  0  0  0  0  0
  192.4140  172.7950  143.6080 C   0  0  0  0  0  2  0  0  0  0  0  0
  189.7780  173.1150  142.6300 C   0  0  2  0  0  3  0  0  0  0  0  0
  187.6850  177.6850  147.5360 C   0  0  0  0  0  2  0  0  0  0  0  0
  191.2390  172.8220  144.6030 C   0  0  0  0  0  2  0  0  0  0  0  0
  191.0270  170.8530  142.6500 C   0  0  1  0  0  3  0  0  0  0  0  0
  186.7600  178.2440  141.1560 C   0  0  0  0  0  3  0  0  0  0  0  0
  187.4180  177.3670  142.0260 C   0  0  0  0  0  0  0  0  0  0  0  0
  186.5370  177.7690  144.2680 N   0  0  0  0  0  2  0  0  0  0  0  0
  190.1220  174.8540  144.2250 C   0  0  0  0  0  2  0  0  0  0  0  0
  190.2760  177.4480  146.0150 O   0  0  0  0  0  0  0  0  0  0  0  0
  184.2090  177.9410  146.4250 C   0  0  0  0  0  1  0  0  0  0  0  0
  188.9670  177.0730  144.0100 C   0  0  2  0  0  3  0  0  0  0  0  0
  186.6720  177.7840  145.5570 C   0  0  0  0  0  0  0  0  0  0  0  0
  191.1300  169.6840  141.7900 N   0  0  0  0  0  2  0  0  0  0  0  0
  191.0880  169.7700  140.3640 C   0  0  0  0  0  0  0  0  0  0  0  0
  190.9840  170.8870  139.7900 O   0  0  0  0  0  0  0  0  0  0  0  0
  191.1730  168.5300  139.5510 C   0  0  0  0  0  1  0  0  0  0  0  0
  1 20  1  0  0  0  0
  1 16  1  0  0  0  0
  2 27  1  0  0  0  0
  2 24  1  6  0  0  0
  3  4  2  0  0  0  0
  3 11  1  0  0  0  0
  4 21  1  0  0  0  0
  5 25  2  0  0  0  0
  5  6  1  0  0  0  0
  6 18  1  0  0  0  0
  7 24  1  6  0  0  0
  7 19  1  0  0  0  0
  8 12  1  0  0  0  0
  9 15  2  0  0  0  0
 10 17  1  0  0  0  0
 10 20  1  0  0  0  0
 11 13  2  0  0  0  0
 12  2  1  0  0  0  0
 13 22  1  0  0  0  0
 13 12  1  0  0  0  0
 14 22  1  6  0  0  0
 14 27  1  0  0  0  0
 14 23  1  0  0  0  0
 16 19  1  0  0  0  0
 17  8  1  1  0  0  0
 17  7  1  0  0  0  0
 18 15  1  0  0  0  0
 20 29  1  6  0  0  0
 21 22  2  0  0  0  0
 23 28  1  0  0  0  0
 26  9  1  0  0  0  0
 27  5  1  1  0  0  0
 28  6  2  0  0  0  0
 28  9  1  0  0  0  0
 30 29  1  0  0  0  0
 31 30  2  0  0  0  0
 32 30  1  0  0  0  0
M  END
>  <MODEL>
8

>  <REMARK>
 VINA RESULT:      -7.2      2.891      7.282
  Name = 
  1 active torsions:
  status: ('A' for Active; 'I' for Inactive)
    1  A    between atoms: C_20  and  N_29
                            x       y       z     vdW  Elec       q    Type
                         _______ _______ _______ _____ _____    ______ ____

>  <TORSDO>
F 1

$$$$
=
 OpenBabel11112416293D

 32 37  0  0  1  0  0  0  0  0999 V2000
  192.4220  172.4820  139.2590 C   0  0  0  0  0  2  0  0  0  0  0  0
  189.7250  175.6320  142.6250 C   0  0  1  0  0  3  0  0  0  0  0  0
  186.0050  177.1810  139.6970 C   0  0  0  0  0  3  0  0  0  0  0  0
  185.8670  178.3380  140.4660 C   0  0  0  0  0  3  0  0  0  0  0  0
  190.6490  177.2220  144.3220 C   0  0  0  0  0  0  0  0  0  0  0  0
  189.8440  177.2110  145.5370 C   0  0  0  0  0  0  0  0  0  0  0  0
  190.9380  173.6210  141.8950 N   0  0  1  0  0  0  0  0  0  0  0  0
  188.7520  174.1160  140.8810 C   0  0  0  0  0  2  0  0  0  0  0  0
  187.9480  177.0530  146.7890 C   0  0  0  0  0  0  0  0  0  0  0  0
  190.0220  172.1490  140.0720 C   0  0  0  0  0  2  0  0  0  0  0  0
  186.9710  176.2300  140.0330 C   0  0  0  0  0  3  0  0  0  0  0  0
  188.8220  175.4510  141.4770 N   0  0  0  0  0  0  0  0  0  0  0  0
  187.8100  176.4230  141.1440 C   0  0  0  0  0  0  0  0  0  0  0  0
  188.5180  177.8260  143.1150 C   0  0  1  0  0  3  0  0  0  0  0  0
  188.9570  176.8710  147.5850 N   0  0  0  0  0  0  0  0  0  0  0  0
  192.9670  173.3490  140.4060 C   0  0  0  0  0  2  0  0  0  0  0  0
  190.1560  173.5680  140.6420 C   0  0  2  0  0  3  0  0  0  0  0  0
  190.1610  176.9500  146.7990 C   0  0  0  0  0  2  0  0  0  0  0  0
  192.3020  173.0780  141.7680 C   0  0  0  0  0  2  0  0  0  0  0  0
  191.3500  171.4780  139.7010 C   0  0  1  0  0  3  0  0  0  0  0  0
  186.6960  178.5430  141.5710 C   0  0  0  0  0  3  0  0  0  0  0  0
  187.6700  177.5960  141.9090 C   0  0  0  0  0  0  0  0  0  0  0  0
  187.7750  177.4990  144.3470 N   0  0  0  0  0  2  0  0  0  0  0  0
  191.0870  175.0200  142.2890 C   0  0  0  0  0  2  0  0  0  0  0  0
  191.9070  177.2530  144.3610 O   0  0  0  0  0  0  0  0  0  0  0  0
  186.5290  177.0440  147.2360 C   0  0  0  0  0  1  0  0  0  0  0  0
  189.9000  177.1110  143.0090 C   0  0  2  0  0  3  0  0  0  0  0  0
  188.4250  177.2970  145.4500 C   0  0  0  0  0  0  0  0  0  0  0  0
  191.1150  170.4980  138.6510 N   0  0  0  0  0  2  0  0  0  0  0  0
  190.7900  169.1350  138.9290 C   0  0  0  0  0  0  0  0  0  0  0  0
  190.6670  168.7320  140.1170 O   0  0  0  0  0  0  0  0  0  0  0  0
  190.5880  168.1840  137.8060 C   0  0  0  0  0  1  0  0  0  0  0  0
  1 20  1  0  0  0  0
  1 16  1  0  0  0  0
  2 24  1  6  0  0  0
  2 27  1  0  0  0  0
  3 11  2  0  0  0  0
  3  4  1  0  0  0  0
  4 21  2  0  0  0  0
  5 25  2  0  0  0  0
  5  6  1  0  0  0  0
  6 18  1  0  0  0  0
  7 19  1  6  0  0  0
  7 24  1  0  0  0  0
  8 12  1  0  0  0  0
  9 26  1  0  0  0  0
  9 15  2  0  0  0  0
 11 13  1  0  0  0  0
 12  2  1  0  0  0  0
 13 12  1  0  0  0  0
 13 22  2  0  0  0  0
 14 22  1  6  0  0  0
 14 23  1  0  0  0  0
 16 19  1  0  0  0  0
 17 10  1  1  0  0  0
 17  8  1  0  0  0  0
 17  7  1  0  0  0  0
 18 15  1  0  0  0  0
 20 29  1  6  0  0  0
 20 10  1  0  0  0  0
 21 22  1  0  0  0  0
 23 28  1  0  0  0  0
 27 14  1  0  0  0  0
 27  5  1  1  0  0  0
 28  6  2  0  0  0  0
 28  9  1  0  0  0  0
 29 30  1  0  0  0  0
 30 31  2  0  0  0  0
 32 30  1  0  0  0  0
M  END
>  <MODEL>
9

>  <REMARK>
 VINA RESULT:      -7.2      3.314      7.265
  Name = 
  1 active torsions:
  status: ('A' for Active; 'I' for Inactive)
    1  A    between atoms: C_20  and  N_29
                            x       y       z     vdW  Elec       q    Type
                         _______ _______ _______ _____ _____    ______ ____

>  <TORSDO>
F 1

$$$$
