=
 OpenBabel11112416293D

 32 38  0  0  1  0  0  0  0  0999 V2000
  191.4080  170.6300  141.1210 C   0  0  2  0  0  3  0  0  0  0  0  0
  189.5820  174.5590  143.6840 C   0  0  1  0  0  3  0  0  0  0  0  0
  191.2470  176.1340  148.0870 C   0  0  0  0  0  3  0  0  0  0  0  0
  190.6420  177.3610  147.8290 C   0  0  0  0  0  3  0  0  0  0  0  0
  187.6880  175.8540  142.5330 C   0  0  2  0  0  3  0  0  0  0  0  0
  186.7140  176.9680  142.7650 C   0  0  0  0  0  0  0  0  0  0  0  0
  190.4910  172.4670  142.6700 C   0  0  1  0  0  3  0  0  0  0  0  0
  191.3940  173.2890  144.8650 C   0  0  0  0  0  2  0  0  0  0  0  0
  185.7600  178.7890  143.7040 C   0  0  0  0  0  0  0  0  0  0  0  0
  192.3200  171.1700  143.8830 C   0  0  0  0  0  2  0  0  0  0  0  0
  191.0880  175.0940  147.1720 C   0  0  0  0  0  3  0  0  0  0  0  0
  190.1230  174.1250  145.0570 C   0  0  1  0  0  3  0  0  0  0  0  0
  190.3420  175.2830  146.0020 C   0  0  0  0  0  0  0  0  0  0  0  0
  188.9020  176.8020  144.5540 C   0  0  2  0  0  3  0  0  0  0  0  0
  184.8370  178.0260  143.1410 C   0  0  0  0  0  3  0  0  0  0  0  0
  190.4430  171.5380  140.3660 C   0  0  0  0  0  2  0  0  0  0  0  0
  191.0770  172.0520  144.0280 C   0  0  2  0  0  3  0  0  0  0  0  0
  185.4380  176.8670  142.5770 N   0  0  0  0  0  0  0  0  0  0  0  0
  190.1790  171.2400  141.8230 C   0  0  1  0  0  3  0  0  0  0  0  0
  193.2510  171.6710  142.7840 C   0  0  0  0  0  2  0  0  0  0  0  0
  189.8950  177.5310  146.7070 N   0  0  0  0  0  0  0  0  0  0  0  0
  189.6990  176.5260  145.8050 C   0  0  0  0  0  0  0  0  0  0  0  0
  187.7380  177.7670  144.8290 C   0  0  0  0  0  2  0  0  0  0  0  0
  189.2340  173.3060  142.8770 C   0  0  0  0  0  2  0  0  0  0  0  0
  187.0210  174.7500  142.0270 F   0  0  0  0  0  0  0  0  0  0  0  0
  185.4770  180.0880  144.3710 C   0  0  0  0  0  1  0  0  0  0  0  0
  188.3920  175.5110  143.8660 C   0  0  2  0  0  3  0  0  0  0  0  0
  187.1090  178.1940  143.5080 C   0  0  1  0  0  3  0  0  0  0  0  0
  192.7960  171.2960  141.3610 C   0  0  2  0  0  3  0  0  0  0  0  0
  193.2610  172.2690  140.3230 C   0  0  0  0  0  0  0  0  0  0  0  0
  193.6520  171.8600  139.1970 O   0  0  0  0  0  0  0  0  0  0  0  0
  193.2830  173.6590  140.6170 N   0  0  0  0  0  1  0  0  0  0  0  0
  1 16  1  6  0  0  0
  1 29  1  0  0  0  0
  1 19  1  0  0  0  0
  2 24  1  6  0  0  0
  2 27  1  0  0  0  0
  2 12  1  0  0  0  0
  4  3  1  0  0  0  0
  5 25  1  1  0  0  0
  5  6  1  0  0  0  0
  5 27  1  0  0  0  0
  6 28  1  0  0  0  0
  7 24  1  1  0  0  0
  7 17  1  0  0  0  0
  9 26  1  0  0  0  0
 11  3  2  0  0  0  0
 12  8  1  6  0  0  0
 12 13  1  0  0  0  0
 13 11  1  0  0  0  0
 14 23  1  1  0  0  0
 14 22  1  0  0  0  0
 15  9  2  0  0  0  0
 17 10  1  6  0  0  0
 17  8  1  0  0  0  0
 18  6  2  0  0  0  0
 18 15  1  0  0  0  0
 19 16  1  6  0  0  0
 19  7  1  0  0  0  0
 20 10  1  0  0  0  0
 21  4  2  0  0  0  0
 22 13  2  0  0  0  0
 22 21  1  0  0  0  0
 27 14  1  0  0  0  0
 28  9  1  0  0  0  0
 28 23  1  0  0  0  0
 29 20  1  0  0  0  0
 30 32  1  0  0  0  0
 30 29  1  0  0  0  0
 31 30  2  0  0  0  0
M  END
>  <MODEL>
1

>  <REMARK>
 VINA RESULT:      -8.3      0.000      0.000
  Name = 
  1 active torsions:
  status: ('A' for Active; 'I' for Inactive)
    1  A    between atoms: C_29  and  C_30
                            x       y       z     vdW  Elec       q    Type
                         _______ _______ _______ _____ _____    ______ ____

>  <TORSDO>
F 1

$$$$
=
 OpenBabel11112416293D

 32 38  0  0  1  0  0  0  0  0999 V2000
  193.7540  174.4470  145.1770 C   0  0  2  0  0  3  0  0  0  0  0  0
  189.2250  176.4860  144.3650 C   0  0  1  0  0  3  0  0  0  0  0  0
  186.1120  178.0560  147.8990 C   0  0  0  0  0  3  0  0  0  0  0  0
  185.4680  178.8230  146.9320 C   0  0  0  0  0  3  0  0  0  0  0  0
  188.5610  176.7780  141.9020 C   0  0  2  0  0  3  0  0  0  0  0  0
  187.4130  177.1910  141.0340 C   0  0  0  0  0  0  0  0  0  0  0  0
  191.3430  175.3190  144.9820 C   0  0  1  0  0  3  0  0  0  0  0  0
  189.8120  176.1700  146.7830 C   0  0  0  0  0  2  0  0  0  0  0  0
  185.4440  178.1170  140.4210 C   0  0  0  0  0  0  0  0  0  0  0  0
  191.9280  174.9840  147.4410 C   0  0  0  0  0  2  0  0  0  0  0  0
  187.1610  177.2210  147.5160 C   0  0  0  0  0  3  0  0  0  0  0  0
  188.6630  176.2030  145.7690 C   0  0  1  0  0  3  0  0  0  0  0  0
  187.5710  177.1640  146.1770 C   0  0  0  0  0  0  0  0  0  0  0  0
  187.2640  177.9180  143.7670 C   0  0  2  0  0  3  0  0  0  0  0  0
  185.7220  177.0770  139.6520 C   0  0  0  0  0  3  0  0  0  0  0  0
  193.4360  174.8300  143.7350 C   0  0  0  0  0  2  0  0  0  0  0  0
  190.8080  175.0760  146.4020 C   0  0  2  0  0  3  0  0  0  0  0  0
  186.9470  176.4800  140.0600 N   0  0  0  0  0  0  0  0  0  0  0  0
  192.3430  174.2380  144.5940 C   0  0  1  0  0  3  0  0  0  0  0  0
  193.0050  176.0390  147.2140 C   0  0  0  0  0  2  0  0  0  0  0  0
  185.8510  178.7430  145.6310 N   0  0  0  0  0  0  0  0  0  0  0  0
  186.8560  177.9170  145.2190 C   0  0  0  0  0  0  0  0  0  0  0  0
  186.0520  178.1030  142.8410 C   0  0  0  0  0  2  0  0  0  0  0  0
  190.1870  175.3590  143.9870 C   0  0  0  0  0  2  0  0  0  0  0  0
  189.0740  175.5720  141.4530 F   0  0  0  0  0  0  0  0  0  0  0  0
  184.2440  178.9810  140.2570 C   0  0  0  0  0  1  0  0  0  0  0  0
  188.0730  176.6600  143.3650 C   0  0  2  0  0  3  0  0  0  0  0  0
  186.5330  178.3300  141.4120 C   0  0  1  0  0  3  0  0  0  0  0  0
  193.9960  175.6880  146.0880 C   0  0  2  0  0  3  0  0  0  0  0  0
  194.5880  176.8960  145.4320 C   0  0  0  0  0  0  0  0  0  0  0  0
  194.0940  178.0370  145.6340 O   0  0  0  0  0  0  0  0  0  0  0  0
  195.7000  176.7500  144.5580 N   0  0  0  0  0  1  0  0  0  0  0  0
  1 16  1  6  0  0  0
  1 29  1  0  0  0  0
  2 24  1  6  0  0  0
  2 12  1  0  0  0  0
  4  3  2  0  0  0  0
  5 25  1  6  0  0  0
  5 27  1  0  0  0  0
  6 28  1  0  0  0  0
  6  5  1  0  0  0  0
  7 24  1  6  0  0  0
  7 17  1  0  0  0  0
  9 28  1  0  0  0  0
 11  3  1  0  0  0  0
 12 13  1  0  0  0  0
 12  8  1  1  0  0  0
 13 11  2  0  0  0  0
 14 23  1  6  0  0  0
 14 22  1  0  0  0  0
 15 18  1  0  0  0  0
 15  9  2  0  0  0  0
 17  8  1  1  0  0  0
 17 10  1  0  0  0  0
 18  6  2  0  0  0  0
 19 16  1  6  0  0  0
 19  7  1  0  0  0  0
 19  1  1  0  0  0  0
 20 10  1  0  0  0  0
 21  4  1  0  0  0  0
 22 21  2  0  0  0  0
 22 13  1  0  0  0  0
 26  9  1  0  0  0  0
 27 14  1  0  0  0  0
 27  2  1  0  0  0  0
 28 23  1  0  0  0  0
 29 20  1  0  0  0  0
 30 31  2  0  0  0  0
 30 29  1  0  0  0  0
 32 30  1  0  0  0  0
M  END
>  <MODEL>
2

>  <REMARK>
 VINA RESULT:      -8.2      3.203      4.409
  Name = 
  1 active torsions:
  status: ('A' for Active; 'I' for Inactive)
    1  A    between atoms: C_29  and  C_30
                            x       y       z     vdW  Elec       q    Type
                         _______ _______ _______ _____ _____    ______ ____

>  <TORSDO>
F 1

$$$$
=
 OpenBabel11112416293D

 32 38  0  0  1  0  0  0  0  0999 V2000
  195.4920  173.2010  142.7730 C   0  0  2  0  0  3  0  0  0  0  0  0
  191.5460  175.6470  144.7150 C   0  0  1  0  0  3  0  0  0  0  0  0
  191.3590  177.6380  149.2590 C   0  0  0  0  0  3  0  0  0  0  0  0
  190.3010  178.4310  148.8220 C   0  0  0  0  0  3  0  0  0  0  0  0
  189.5260  175.9170  143.1540 C   0  0  2  0  0  3  0  0  0  0  0  0
  188.1130  176.4120  143.1330 C   0  0  0  0  0  0  0  0  0  0  0  0
  193.5250  174.2990  144.0130 C   0  0  1  0  0  3  0  0  0  0  0  0
  193.4770  175.3580  146.2900 C   0  0  0  0  0  2  0  0  0  0  0  0
  186.2390  177.5060  143.7690 C   0  0  0  0  0  0  0  0  0  0  0  0
  195.4780  173.9930  145.6230 C   0  0  0  0  0  2  0  0  0  0  0  0
  191.9010  176.6910  148.3910 C   0  0  0  0  0  3  0  0  0  0  0  0
  191.9510  175.4700  146.1880 C   0  0  1  0  0  3  0  0  0  0  0  0
  191.3980  176.5470  147.0910 C   0  0  0  0  0  0  0  0  0  0  0  0
  189.7170  177.2440  145.3130 C   0  0  2  0  0  3  0  0  0  0  0  0
  185.9260  176.4170  143.0840 C   0  0  0  0  0  3  0  0  0  0  0  0
  194.3770  173.5630  141.7980 C   0  0  0  0  0  2  0  0  0  0  0  0
  193.9630  174.1600  145.4790 C   0  0  2  0  0  3  0  0  0  0  0  0
  187.1070  175.7170  142.7120 N   0  0  0  0  0  0  0  0  0  0  0  0
  194.0130  173.1120  143.1930 C   0  0  1  0  0  3  0  0  0  0  0  0
  196.2460  174.9290  144.6950 C   0  0  0  0  0  2  0  0  0  0  0  0
  189.7980  178.2680  147.5710 N   0  0  0  0  0  0  0  0  0  0  0  0
  190.2890  177.3330  146.7060 C   0  0  0  0  0  0  0  0  0  0  0  0
  188.2050  177.5160  145.3060 C   0  0  0  0  0  2  0  0  0  0  0  0
  192.0070  174.4180  143.9300 C   0  0  0  0  0  2  0  0  0  0  0  0
  189.5850  174.6520  142.5930 F   0  0  0  0  0  0  0  0  0  0  0  0
  185.2440  178.4770  144.2950 C   0  0  0  0  0  1  0  0  0  0  0  0
  190.0350  175.8990  144.6140 C   0  0  2  0  0  3  0  0  0  0  0  0
  187.7170  177.6440  143.8670 C   0  0  1  0  0  3  0  0  0  0  0  0
  196.3130  174.4430  143.2350 C   0  0  2  0  0  3  0  0  0  0  0  0
  196.4440  175.5630  142.2510 C   0  0  0  0  0  0  0  0  0  0  0  0
  195.7600  176.6120  142.3850 O   0  0  0  0  0  0  0  0  0  0  0  0
  197.3280  175.4310  141.1460 N   0  0  0  0  0  1  0  0  0  0  0  0
  1 16  1  6  0  0  0
  1 19  1  0  0  0  0
  1 29  1  0  0  0  0
  2 24  1  6  0  0  0
  2 12  1  0  0  0  0
  4  3  1  0  0  0  0
  5 25  1  1  0  0  0
  5 27  1  0  0  0  0
  6  5  1  0  0  0  0
  6 28  1  0  0  0  0
  7 24  1  1  0  0  0
  7 17  1  0  0  0  0
  9 28  1  0  0  0  0
  9 26  1  0  0  0  0
 11  3  2  0  0  0  0
 12  8  1  6  0  0  0
 12 13  1  0  0  0  0
 13 11  1  0  0  0  0
 14 23  1  1  0  0  0
 14 22  1  0  0  0  0
 15  9  2  0  0  0  0
 17 10  1  6  0  0  0
 17  8  1  0  0  0  0
 18 15  1  0  0  0  0
 18  6  2  0  0  0  0
 19 16  1  6  0  0  0
 19  7  1  0  0  0  0
 20 10  1  0  0  0  0
 21  4  2  0  0  0  0
 22 13  2  0  0  0  0
 22 21  1  0  0  0  0
 27  2  1  0  0  0  0
 27 14  1  0  0  0  0
 28 23  1  0  0  0  0
 29 20  1  0  0  0  0
 30 31  2  0  0  0  0
 30 29  1  0  0  0  0
 32 30  1  0  0  0  0
M  END
>  <MODEL>
3

>  <REMARK>
 VINA RESULT:      -7.9      2.585      3.217
  Name = 
  1 active torsions:
  status: ('A' for Active; 'I' for Inactive)
    1  A    between atoms: C_29  and  C_30
                            x       y       z     vdW  Elec       q    Type
                         _______ _______ _______ _____ _____    ______ ____

>  <TORSDO>
F 1

$$$$
=
 OpenBabel11112416293D

 32 38  0  0  1  0  0  0  0  0999 V2000
  193.3850  172.8040  140.0020 C   0  0  2  0  0  3  0  0  0  0  0  0
  190.4330  175.4700  143.0860 C   0  0  1  0  0  3  0  0  0  0  0  0
  191.2340  176.1610  147.9360 C   0  0  0  0  0  3  0  0  0  0  0  0
  190.3820  177.2610  147.8770 C   0  0  0  0  0  3  0  0  0  0  0  0
  188.4070  176.5990  141.9850 C   0  0  2  0  0  3  0  0  0  0  0  0
  187.1780  177.3890  142.3140 C   0  0  0  0  0  0  0  0  0  0  0  0
  191.9090  173.9470  141.7710 C   0  0  1  0  0  3  0  0  0  0  0  0
  192.3710  174.3400  144.2090 C   0  0  0  0  0  2  0  0  0  0  0  0
  185.7290  178.6670  143.4880 C   0  0  0  0  0  0  0  0  0  0  0  0
  193.8670  172.7870  142.9210 C   0  0  0  0  0  2  0  0  0  0  0  0
  191.4190  175.3840  146.7940 C   0  0  0  0  0  3  0  0  0  0  0  0
  190.9250  174.8180  144.3890 C   0  0  1  0  0  3  0  0  0  0  0  0
  190.7670  175.7110  145.5980 C   0  0  0  0  0  0  0  0  0  0  0  0
  189.1560  177.2210  144.3330 C   0  0  2  0  0  3  0  0  0  0  0  0
  185.0750  177.9020  142.6290 C   0  0  0  0  0  3  0  0  0  0  0  0
  192.3110  173.6570  139.3360 C   0  0  0  0  0  2  0  0  0  0  0  0
  192.4420  173.3240  143.0720 C   0  0  2  0  0  3  0  0  0  0  0  0
  185.9880  177.0780  141.9140 N   0  0  0  0  0  0  0  0  0  0  0  0
  191.9840  172.9440  140.6280 C   0  0  1  0  0  3  0  0  0  0  0  0
  194.7550  173.7370  142.1240 C   0  0  0  0  0  2  0  0  0  0  0  0
  189.7300  177.5570  146.7230 N   0  0  0  0  0  0  0  0  0  0  0  0
  189.8690  176.8010  145.5950 C   0  0  0  0  0  0  0  0  0  0  0  0
  187.7740  177.8200  144.6400 C   0  0  0  0  0  2  0  0  0  0  0  0
  190.4740  174.4250  141.9690 C   0  0  0  0  0  2  0  0  0  0  0  0
  188.0760  175.5510  141.1430 F   0  0  0  0  0  0  0  0  0  0  0  0
  185.0810  179.6620  144.3840 C   0  0  0  0  0  1  0  0  0  0  0  0
  189.0390  176.0760  143.2960 C   0  0  2  0  0  3  0  0  0  0  0  0
  187.1940  178.4350  143.3710 C   0  0  1  0  0  3  0  0  0  0  0  0
  194.5450  173.6570  140.6010 C   0  0  2  0  0  3  0  0  0  0  0  0
  194.8630  174.9390  139.8980 C   0  0  0  0  0  0  0  0  0  0  0  0
  194.5580  176.0450  140.4190 O   0  0  0  0  0  0  0  0  0  0  0  0
  195.4930  174.9090  138.6240 N   0  0  0  0  0  1  0  0  0  0  0  0
  1 16  1  6  0  0  0
  1 29  1  0  0  0  0
  1 19  1  0  0  0  0
  2 24  1  6  0  0  0
  2 27  1  0  0  0  0
  2 12  1  0  0  0  0
  4  3  1  0  0  0  0
  5 25  1  6  0  0  0
  5  6  1  0  0  0  0
  5 27  1  0  0  0  0
  6 28  1  0  0  0  0
  7 24  1  1  0  0  0
  7 17  1  0  0  0  0
  9 26  1  0  0  0  0
 11  3  2  0  0  0  0
 12  8  1  6  0  0  0
 12 13  1  0  0  0  0
 13 11  1  0  0  0  0
 14 23  1  1  0  0  0
 14 22  1  0  0  0  0
 15  9  2  0  0  0  0
 17 10  1  6  0  0  0
 17  8  1  0  0  0  0
 18  6  2  0  0  0  0
 18 15  1  0  0  0  0
 19 16  1  6  0  0  0
 19  7  1  0  0  0  0
 20 10  1  0  0  0  0
 21  4  2  0  0  0  0
 22 13  2  0  0  0  0
 22 21  1  0  0  0  0
 27 14  1  0  0  0  0
 28  9  1  0  0  0  0
 28 23  1  0  0  0  0
 29 20  1  0  0  0  0
 30 31  2  0  0  0  0
 30 29  1  0  0  0  0
 32 30  1  0  0  0  0
M  END
>  <MODEL>
4

>  <REMARK>
 VINA RESULT:      -7.9      1.643      1.907
  Name = 
  1 active torsions:
  status: ('A' for Active; 'I' for Inactive)
    1  A    between atoms: C_29  and  C_30
                            x       y       z     vdW  Elec       q    Type
                         _______ _______ _______ _____ _____    ______ ____

>  <TORSDO>
F 1

$$$$
=
 OpenBabel11112416293D

 32 38  0  0  1  0  0  0  0  0999 V2000
  197.1460  173.5660  144.8890 C   0  0  2  0  0  3  0  0  0  0  0  0
  192.2730  174.6630  144.2710 C   0  0  1  0  0  3  0  0  0  0  0  0
  189.6040  173.6710  140.2050 C   0  0  0  0  0  3  0  0  0  0  0  0
  188.4540  173.8010  140.9790 C   0  0  0  0  0  3  0  0  0  0  0  0
  191.1150  175.7560  146.2850 C   0  0  2  0  0  3  0  0  0  0  0  0
  189.8160  176.3750  146.7020 C   0  0  0  0  0  0  0  0  0  0  0  0
  194.7290  174.2190  144.3030 C   0  0  1  0  0  3  0  0  0  0  0  0
  193.3800  173.6460  142.2630 C   0  0  0  0  0  2  0  0  0  0  0  0
  187.6240  176.9250  146.6750 C   0  0  0  0  0  0  0  0  0  0  0  0
  195.8530  173.2010  142.2530 C   0  0  0  0  0  2  0  0  0  0  0  0
  190.8460  173.9200  140.7870 C   0  0  0  0  0  3  0  0  0  0  0  0
  192.2870  174.6130  142.7340 C   0  0  1  0  0  3  0  0  0  0  0  0
  190.9390  174.2810  142.1370 C   0  0  0  0  0  0  0  0  0  0  0  0
  189.7780  174.8180  144.3370 C   0  0  2  0  0  3  0  0  0  0  0  0
  188.3300  177.8780  147.2630 C   0  0  0  0  0  3  0  0  0  0  0  0
  196.3910  174.0090  146.1380 C   0  0  0  0  0  2  0  0  0  0  0  0
  194.7410  174.1180  142.7700 C   0  0  2  0  0  3  0  0  0  0  0  0
  189.7120  177.5410  147.2510 N   0  0  0  0  0  0  0  0  0  0  0  0
  196.0850  174.6810  144.8200 C   0  0  1  0  0  3  0  0  0  0  0  0
  195.9830  171.9340  143.0920 C   0  0  0  0  0  2  0  0  0  0  0  0
  188.5480  174.1790  142.2810 N   0  0  0  0  0  0  0  0  0  0  0  0
  189.7460  174.4540  142.8730 C   0  0  0  0  0  0  0  0  0  0  0  0
  188.5600  175.6660  144.7350 C   0  0  0  0  0  2  0  0  0  0  0  0
  193.6310  175.1760  144.7560 C   0  0  0  0  0  2  0  0  0  0  0  0
  192.1630  176.5880  146.6420 F   0  0  0  0  0  0  0  0  0  0  0  0
  186.1440  176.9490  146.5310 C   0  0  0  0  0  1  0  0  0  0  0  0
  191.0950  175.5180  144.7570 C   0  0  2  0  0  3  0  0  0  0  0  0
  188.5150  175.8110  146.2520 C   0  0  1  0  0  3  0  0  0  0  0  0
  196.7410  172.1370  144.4170 C   0  0  2  0  0  3  0  0  0  0  0  0
  196.3250  171.1720  145.4830 C   0  0  0  0  0  0  0  0  0  0  0  0
  197.1910  170.5390  146.1430 O   0  0  0  0  0  0  0  0  0  0  0  0
  194.9440  170.9520  145.7350 N   0  0  0  0  0  1  0  0  0  0  0  0
  1 16  1  1  0  0  0
  2 24  1  6  0  0  0
  2 27  1  0  0  0  0
  3 11  2  0  0  0  0
  3  4  1  0  0  0  0
  4 21  2  0  0  0  0
  5 25  1  6  0  0  0
  5  6  1  0  0  0  0
  6 18  2  0  0  0  0
  7 24  1  6  0  0  0
  7 19  1  0  0  0  0
  8 17  1  0  0  0  0
  9 15  2  0  0  0  0
 10 20  1  0  0  0  0
 11 13  1  0  0  0  0
 12  8  1  1  0  0  0
 12  2  1  0  0  0  0
 13 12  1  0  0  0  0
 13 22  2  0  0  0  0
 14 23  1  6  0  0  0
 14 27  1  0  0  0  0
 17 10  1  1  0  0  0
 17  7  1  0  0  0  0
 18 15  1  0  0  0  0
 19  1  1  0  0  0  0
 19 16  1  1  0  0  0
 20 29  1  0  0  0  0
 21 22  1  0  0  0  0
 22 14  1  0  0  0  0
 23 28  1  0  0  0  0
 26  9  1  0  0  0  0
 27  5  1  0  0  0  0
 28  9  1  0  0  0  0
 28  6  1  0  0  0  0
 29  1  1  0  0  0  0
 29 30  1  0  0  0  0
 30 32  1  0  0  0  0
 30 31  2  0  0  0  0
M  END
>  <MODEL>
5

>  <REMARK>
 VINA RESULT:      -7.6      3.413      5.444
  Name = 
  1 active torsions:
  status: ('A' for Active; 'I' for Inactive)
    1  A    between atoms: C_29  and  C_30
                            x       y       z     vdW  Elec       q    Type
                         _______ _______ _______ _____ _____    ______ ____

>  <TORSDO>
F 1

$$$$
=
 OpenBabel11112416293D

 32 38  0  0  1  0  0  0  0  0999 V2000
  186.4070  179.1170  145.0340 C   0  0  2  0  0  3  0  0  0  0  0  0
  188.8990  175.2870  142.9230 C   0  0  1  0  0  3  0  0  0  0  0  0
  192.6670  172.8200  145.0100 C   0  0  0  0  0  3  0  0  0  0  0  0
  192.4250  171.7790  144.1170 C   0  0  0  0  0  3  0  0  0  0  0  0
  188.0560  174.5510  140.6120 C   0  0  2  0  0  3  0  0  0  0  0  0
  188.3800  173.6220  139.4830 C   0  0  0  0  0  0  0  0  0  0  0  0
  187.9260  177.2890  144.0520 C   0  0  1  0  0  3  0  0  0  0  0  0
  189.7860  176.0100  145.1550 C   0  0  0  0  0  2  0  0  0  0  0  0
  189.3160  171.9010  138.3540 C   0  0  0  0  0  0  0  0  0  0  0  0
  188.8430  178.0310  146.3130 C   0  0  0  0  0  2  0  0  0  0  0  0
  191.9150  173.9900  144.9090 C   0  0  0  0  0  3  0  0  0  0  0  0
  190.1600  175.4120  143.7940 C   0  0  1  0  0  3  0  0  0  0  0  0
  190.9180  174.1120  143.9320 C   0  0  0  0  0  0  0  0  0  0  0  0
  189.6690  173.1150  141.9530 C   0  0  2  0  0  3  0  0  0  0  0  0
  189.0410  172.8980  137.5280 C   0  0  0  0  0  3  0  0  0  0  0  0
  185.7890  178.5250  143.7710 C   0  0  0  0  0  2  0  0  0  0  0  0
  189.1620  177.3900  144.9600 C   0  0  2  0  0  3  0  0  0  0  0  0
  188.4800  173.9890  138.2470 N   0  0  0  0  0  0  0  0  0  0  0  0
  187.2910  178.6590  143.8580 C   0  0  1  0  0  3  0  0  0  0  0  0
  187.5270  177.5210  146.8900 C   0  0  0  0  0  2  0  0  0  0  0  0
  191.4770  171.9140  143.1540 N   0  0  0  0  0  0  0  0  0  0  0  0
  190.7410  173.0550  143.0120 C   0  0  0  0  0  0  0  0  0  0  0  0
  190.0890  172.3600  140.6820 C   0  0  0  0  0  2  0  0  0  0  0  0
  188.3130  176.6840  142.7060 C   0  0  0  0  0  2  0  0  0  0  0  0
  187.8160  175.8220  140.1150 F   0  0  0  0  0  0  0  0  0  0  0  0
  189.8960  170.5990  137.9300 C   0  0  0  0  0  1  0  0  0  0  0  0
  189.2360  174.5630  141.6120 C   0  0  2  0  0  3  0  0  0  0  0  0
  188.8970  172.2500  139.7380 C   0  0  1  0  0  3  0  0  0  0  0  0
  186.2780  178.1720  146.2660 C   0  0  2  0  0  3  0  0  0  0  0  0
  185.0740  177.2850  146.3070 C   0  0  0  0  0  0  0  0  0  0  0  0
  185.1910  176.0420  146.1380 O   0  0  0  0  0  0  0  0  0  0  0  0
  183.7860  177.8510  146.5130 N   0  0  0  0  0  1  0  0  0  0  0  0
  1 16  1  6  0  0  0
  1 29  1  0  0  0  0
  2 24  1  6  0  0  0
  2 12  1  0  0  0  0
  4  3  2  0  0  0  0
  5 25  1  6  0  0  0
  5 27  1  0  0  0  0
  6 28  1  0  0  0  0
  6  5  1  0  0  0  0
  7 24  1  6  0  0  0
  7 17  1  0  0  0  0
  9 28  1  0  0  0  0
 10 20  1  0  0  0  0
 11  3  1  0  0  0  0
 12 13  1  0  0  0  0
 12  8  1  1  0  0  0
 13 11  2  0  0  0  0
 14 23  1  6  0  0  0
 14 22  1  0  0  0  0
 15 18  1  0  0  0  0
 15  9  2  0  0  0  0
 17  8  1  1  0  0  0
 17 10  1  0  0  0  0
 18  6  2  0  0  0  0
 19 16  1  6  0  0  0
 19  7  1  0  0  0  0
 19  1  1  0  0  0  0
 21  4  1  0  0  0  0
 22 21  2  0  0  0  0
 22 13  1  0  0  0  0
 26  9  1  0  0  0  0
 27 14  1  0  0  0  0
 27  2  1  0  0  0  0
 28 23  1  0  0  0  0
 29 30  1  0  0  0  0
 29 20  1  0  0  0  0
 30 32  1  0  0  0  0
 31 30  2  0  0  0  0
M  END
>  <MODEL>
6

>  <REMARK>
 VINA RESULT:      -7.5      2.991      7.278
  Name = 
  1 active torsions:
  status: ('A' for Active; 'I' for Inactive)
    1  A    between atoms: C_29  and  C_30
                            x       y       z     vdW  Elec       q    Type
                         _______ _______ _______ _____ _____    ______ ____

>  <TORSDO>
F 1

$$$$
=
 OpenBabel11112416293D

 32 38  0  0  1  0  0  0  0  0999 V2000
  190.0550  177.9160  145.3680 C   0  0  2  0  0  3  0  0  0  0  0  0
  191.4680  173.4260  143.5860 C   0  0  1  0  0  3  0  0  0  0  0  0
  194.6920  170.3550  145.7810 C   0  0  0  0  0  3  0  0  0  0  0  0
  194.1630  169.3200  145.0140 C   0  0  0  0  0  3  0  0  0  0  0  0
  190.3390  172.6910  141.4010 C   0  0  2  0  0  3  0  0  0  0  0  0
  190.3710  171.6080  140.3660 C   0  0  0  0  0  0  0  0  0  0  0  0
  191.0520  175.6980  144.5310 C   0  0  1  0  0  3  0  0  0  0  0  0
  192.6330  174.1300  145.6930 C   0  0  0  0  0  2  0  0  0  0  0  0
  190.8160  169.6170  139.3930 C   0  0  0  0  0  0  0  0  0  0  0  0
  192.2520  176.4160  146.6630 C   0  0  0  0  0  2  0  0  0  0  0  0
  194.2230  171.6530  145.5840 C   0  0  0  0  0  3  0  0  0  0  0  0
  192.7760  173.3340  144.3900 C   0  0  1  0  0  3  0  0  0  0  0  0
  193.2230  171.9120  144.6380 C   0  0  0  0  0  0  0  0  0  0  0  0
  191.6580  171.0510  142.8250 C   0  0  2  0  0  3  0  0  0  0  0  0
  190.7270  170.5670  138.4760 C   0  0  0  0  0  3  0  0  0  0  0  0
  189.2420  177.3670  144.2000 C   0  0  0  0  0  2  0  0  0  0  0  0
  192.3320  175.5920  145.3750 C   0  0  2  0  0  3  0  0  0  0  0  0
  190.4760  171.8230  139.0950 N   0  0  0  0  0  0  0  0  0  0  0  0
  190.7370  177.1540  144.2150 C   0  0  1  0  0  3  0  0  0  0  0  0
  190.8910  176.2860  147.3400 C   0  0  0  0  0  2  0  0  0  0  0  0
  193.2140  169.5810  144.0780 N   0  0  0  0  0  0  0  0  0  0  0  0
  192.7520  170.8430  143.8440 C   0  0  0  0  0  0  0  0  0  0  0  0
  191.8150  170.1020  141.6280 C   0  0  0  0  0  2  0  0  0  0  0  0
  191.2060  174.8940  143.2440 C   0  0  0  0  0  2  0  0  0  0  0  0
  190.3660  173.9290  140.7800 F   0  0  0  0  0  0  0  0  0  0  0  0
  191.0550  168.1810  139.0880 C   0  0  0  0  0  1  0  0  0  0  0  0
  191.5490  172.5210  142.3480 C   0  0  2  0  0  3  0  0  0  0  0  0
  190.5740  170.1850  140.7460 C   0  0  1  0  0  3  0  0  0  0  0  0
  189.7890  177.1490  146.6990 C   0  0  2  0  0  3  0  0  0  0  0  0
  188.4180  176.5760  146.8790 C   0  0  0  0  0  0  0  0  0  0  0  0
  188.2460  175.3280  146.8990 O   0  0  0  0  0  0  0  0  0  0  0  0
  187.3010  177.4460  147.0040 N   0  0  0  0  0  1  0  0  0  0  0  0
  1 16  1  6  0  0  0
  1 29  1  0  0  0  0
  2 24  1  6  0  0  0
  2 12  1  0  0  0  0
  4  3  2  0  0  0  0
  5 25  1  6  0  0  0
  5 27  1  0  0  0  0
  6 28  1  0  0  0  0
  6  5  1  0  0  0  0
  7 24  1  6  0  0  0
  7 17  1  0  0  0  0
  9 28  1  0  0  0  0
 10 20  1  0  0  0  0
 11  3  1  0  0  0  0
 12 13  1  0  0  0  0
 12  8  1  1  0  0  0
 13 11  2  0  0  0  0
 14 23  1  6  0  0  0
 14 22  1  0  0  0  0
 15 18  1  0  0  0  0
 15  9  2  0  0  0  0
 17  8  1  1  0  0  0
 17 10  1  0  0  0  0
 18  6  2  0  0  0  0
 19 16  1  6  0  0  0
 19  7  1  0  0  0  0
 19  1  1  0  0  0  0
 21  4  1  0  0  0  0
 22 21  2  0  0  0  0
 22 13  1  0  0  0  0
 26  9  1  0  0  0  0
 27 14  1  0  0  0  0
 27  2  1  0  0  0  0
 28 23  1  0  0  0  0
 29 30  1  0  0  0  0
 29 20  1  0  0  0  0
 30 31  2  0  0  0  0
 30 32  1  0  0  0  0
M  END
>  <MODEL>
7

>  <REMARK>
 VINA RESULT:      -7.4      2.970      7.445
  Name = 
  1 active torsions:
  status: ('A' for Active; 'I' for Inactive)
    1  A    between atoms: C_29  and  C_30
                            x       y       z     vdW  Elec       q    Type
                         _______ _______ _______ _____ _____    ______ ____

>  <TORSDO>
F 1

$$$$
=
 OpenBabel11112416293D

 32 38  0  0  1  0  0  0  0  0999 V2000
  187.5100  177.9080  144.5280 C   0  0  2  0  0  3  0  0  0  0  0  0
  190.5990  174.6270  142.2860 C   0  0  1  0  0  3  0  0  0  0  0  0
  195.5440  174.5860  142.7210 C   0  0  0  0  0  3  0  0  0  0  0  0
  195.5290  173.2630  142.2880 C   0  0  0  0  0  3  0  0  0  0  0  0
  189.4580  172.8080  140.8790 C   0  0  2  0  0  3  0  0  0  0  0  0
  189.7640  171.6760  139.9470 C   0  0  0  0  0  0  0  0  0  0  0  0
  189.2600  176.4620  143.3190 C   0  0  1  0  0  3  0  0  0  0  0  0
  191.7550  176.4180  143.6080 C   0  0  0  0  0  2  0  0  0  0  0  0
  190.9400  170.0700  138.8760 C   0  0  0  0  0  0  0  0  0  0  0  0
  190.4410  178.2910  144.6470 C   0  0  0  0  0  2  0  0  0  0  0  0
  194.3460  175.2990  142.7670 C   0  0  0  0  0  3  0  0  0  0  0  0
  191.8640  175.4960  142.3880 C   0  0  1  0  0  3  0  0  0  0  0  0
  193.1410  174.6880  142.3970 C   0  0  0  0  0  0  0  0  0  0  0  0
  191.9110  172.6400  141.5210 C   0  0  2  0  0  3  0  0  0  0  0  0
  189.9560  170.5090  138.1070 C   0  0  0  0  0  3  0  0  0  0  0  0
  186.8500  176.7000  143.8730 C   0  0  0  0  0  2  0  0  0  0  0  0
  190.5280  177.3170  143.4690 C   0  0  2  0  0  3  0  0  0  0  0  0
  189.2370  171.5400  138.7740 N   0  0  0  0  0  0  0  0  0  0  0  0
  188.0290  177.3490  143.1890 C   0  0  1  0  0  3  0  0  0  0  0  0
  189.8220  177.6410  145.8800 C   0  0  0  0  0  2  0  0  0  0  0  0
  194.3610  172.6850  141.9030 N   0  0  0  0  0  0  0  0  0  0  0  0
  193.1770  173.3620  141.9120 C   0  0  0  0  0  0  0  0  0  0  0  0
  192.1620  171.6350  140.3870 C   0  0  0  0  0  2  0  0  0  0  0  0
  189.3880  175.5450  142.1080 C   0  0  0  0  0  2  0  0  0  0  0  0
  188.4870  173.6230  140.3190 F   0  0  0  0  0  0  0  0  0  0  0  0
  191.8770  168.9810  138.4930 C   0  0  0  0  0  1  0  0  0  0  0  0
  190.7550  173.6040  141.1530 C   0  0  2  0  0  3  0  0  0  0  0  0
  190.9210  170.7730  140.1870 C   0  0  1  0  0  3  0  0  0  0  0  0
  188.2870  177.5390  145.8280 C   0  0  2  0  0  3  0  0  0  0  0  0
  187.7490  176.3930  146.6260 C   0  0  0  0  0  0  0  0  0  0  0  0
  186.5830  176.4390  147.1020 O   0  0  0  0  0  0  0  0  0  0  0  0
  188.5660  175.2550  146.8680 N   0  0  0  0  0  1  0  0  0  0  0  0
  1 16  1  1  0  0  0
  1 29  1  0  0  0  0
  2 24  1  6  0  0  0
  2 12  1  0  0  0  0
  3 11  1  0  0  0  0
  4  3  2  0  0  0  0
  5 25  1  6  0  0  0
  5 27  1  0  0  0  0
  6 28  1  0  0  0  0
  6  5  1  0  0  0  0
  7 24  1  6  0  0  0
  7 17  1  0  0  0  0
  9 28  1  0  0  0  0
 10 20  1  0  0  0  0
 12 13  1  0  0  0  0
 12  8  1  1  0  0  0
 13 11  2  0  0  0  0
 14 23  1  6  0  0  0
 14 22  1  0  0  0  0
 15 18  1  0  0  0  0
 15  9  2  0  0  0  0
 17  8  1  1  0  0  0
 17 10  1  0  0  0  0
 18  6  2  0  0  0  0
 19  7  1  0  0  0  0
 19 16  1  1  0  0  0
 19  1  1  0  0  0  0
 21 22  2  0  0  0  0
 21  4  1  0  0  0  0
 22 13  1  0  0  0  0
 26  9  1  0  0  0  0
 27 14  1  0  0  0  0
 27  2  1  0  0  0  0
 28 23  1  0  0  0  0
 29 20  1  0  0  0  0
 29 30  1  0  0  0  0
 30 32  1  0  0  0  0
 30 31  2  0  0  0  0
M  END
>  <MODEL>
8

>  <REMARK>
 VINA RESULT:      -7.2      3.059      7.442
  Name = 
  1 active torsions:
  status: ('A' for Active; 'I' for Inactive)
    1  A    between atoms: C_29  and  C_30
                            x       y       z     vdW  Elec       q    Type
                         _______ _______ _______ _____ _____    ______ ____

>  <TORSDO>
F 1

$$$$
=
 OpenBabel11112416293D

 32 38  0  0  1  0  0  0  0  0999 V2000
  190.4110  177.9090  144.7930 C   0  0  2  0  0  3  0  0  0  0  0  0
  194.1030  174.9480  143.0790 C   0  0  1  0  0  3  0  0  0  0  0  0
  196.8130  171.8490  145.8510 C   0  0  0  0  0  3  0  0  0  0  0  0
  197.1540  171.1700  144.6840 C   0  0  0  0  0  3  0  0  0  0  0  0
  194.5180  175.0410  140.5470 C   0  0  2  0  0  3  0  0  0  0  0  0
  195.4480  174.5340  139.4880 C   0  0  0  0  0  0  0  0  0  0  0  0
  192.4510  176.4800  144.1530 C   0  0  1  0  0  3  0  0  0  0  0  0
  193.7650  174.8680  145.5630 C   0  0  0  0  0  2  0  0  0  0  0  0
  197.0270  173.2680  138.4820 C   0  0  0  0  0  0  0  0  0  0  0  0
  192.1230  176.4070  146.6810 C   0  0  0  0  0  2  0  0  0  0  0  0
  196.0330  173.0010  145.7630 C   0  0  0  0  0  3  0  0  0  0  0  0
  194.7980  174.7500  144.4360 C   0  0  1  0  0  3  0  0  0  0  0  0
  195.5840  173.4620  144.5190 C   0  0  0  0  0  0  0  0  0  0  0  0
  195.5280  173.2070  141.9880 C   0  0  2  0  0  3  0  0  0  0  0  0
  197.0210  174.4890  137.9690 C   0  0  0  0  0  3  0  0  0  0  0  0
  190.5260  177.7840  143.2770 C   0  0  0  0  0  2  0  0  0  0  0  0
  193.1100  176.2470  145.5220 C   0  0  2  0  0  3  0  0  0  0  0  0
  196.0460  175.2900  138.6260 N   0  0  0  0  0  0  0  0  0  0  0  0
  191.7880  177.8500  144.1040 C   0  0  1  0  0  3  0  0  0  0  0  0
  190.7750  175.7620  146.3760 C   0  0  0  0  0  2  0  0  0  0  0  0
  196.7400  171.6380  143.4770 N   0  0  0  0  0  0  0  0  0  0  0  0
  195.9970  172.7760  143.3550 C   0  0  0  0  0  0  0  0  0  0  0  0
  196.5820  172.9100  140.9100 C   0  0  0  0  0  2  0  0  0  0  0  0
  193.4890  176.3500  143.0430 C   0  0  0  0  0  2  0  0  0  0  0  0
  194.3540  176.4090  140.4060 F   0  0  0  0  0  0  0  0  0  0  0  0
  197.9140  172.1700  138.0130 C   0  0  0  0  0  1  0  0  0  0  0  0
  195.0980  174.6950  141.9380 C   0  0  2  0  0  3  0  0  0  0  0  0
  195.9790  173.1450  139.5300 C   0  0  1  0  0  3  0  0  0  0  0  0
  189.8700  176.6100  145.4640 C   0  0  2  0  0  3  0  0  0  0  0  0
  188.9180  175.7860  144.6550 C   0  0  0  0  0  0  0  0  0  0  0  0
  189.2740  174.6680  144.1960 O   0  0  0  0  0  0  0  0  0  0  0  0
  187.6120  176.2780  144.3840 N   0  0  0  0  0  1  0  0  0  0  0  0
  1 16  1  6  0  0  0
  1 29  1  0  0  0  0
  2 24  1  1  0  0  0
  2 12  1  0  0  0  0
  4  3  2  0  0  0  0
  5 25  1  1  0  0  0
  5 27  1  0  0  0  0
  6 28  1  0  0  0  0
  6  5  1  0  0  0  0
  7 24  1  6  0  0  0
  7 17  1  0  0  0  0
  9 28  1  0  0  0  0
 11  3  1  0  0  0  0
 12 13  1  0  0  0  0
 12  8  1  1  0  0  0
 13 11  2  0  0  0  0
 14 23  1  6  0  0  0
 14 22  1  0  0  0  0
 15  9  2  0  0  0  0
 15 18  1  0  0  0  0
 17  8  1  6  0  0  0
 17 10  1  0  0  0  0
 18  6  2  0  0  0  0
 19 16  1  6  0  0  0
 19  7  1  0  0  0  0
 19  1  1  0  0  0  0
 20 10  1  0  0  0  0
 21  4  1  0  0  0  0
 22 21  2  0  0  0  0
 22 13  1  0  0  0  0
 26  9  1  0  0  0  0
 27 14  1  0  0  0  0
 27  2  1  0  0  0  0
 28 23  1  0  0  0  0
 29 20  1  0  0  0  0
 30 29  1  0  0  0  0
 31 30  2  0  0  0  0
 32 30  1  0  0  0  0
M  END
>  <MODEL>
9

>  <REMARK>
 VINA RESULT:      -6.9      3.791      8.379
  Name = 
  1 active torsions:
  status: ('A' for Active; 'I' for Inactive)
    1  A    between atoms: C_29  and  C_30
                            x       y       z     vdW  Elec       q    Type
                         _______ _______ _______ _____ _____    ______ ____

>  <TORSDO>
F 1

$$$$
