=
 OpenBabel11112417163D

 37 43  0  0  1  0  0  0  0  0999 V2000
  192.2640  173.1290  140.7810 C   0  0  0  0  0  2  0  0  0  0  0  0
  194.4900  173.0160  144.4750 C   0  0  0  0  0  0  0  0  0  0  0  0
  191.1420  175.4840  144.7950 C   0  0  0  0  0  0  0  0  0  0  0  0
  191.7630  172.5970  139.5130 N   0  0  0  0  0  0  0  0  0  0  0  0
  188.1060  174.4910  142.7210 C   0  0  0  0  0  2  0  0  0  0  0  0
  193.2640  174.8290  145.7580 C   0  0  0  0  0  0  0  0  0  0  0  0
  190.4610  175.2180  143.6160 C   0  0  0  0  0  0  0  0  0  0  0  0
  189.9630  171.5660  141.0000 C   0  0  2  0  0  3  0  0  0  0  0  0
  192.3150  174.7930  144.7470 C   0  0  0  0  0  0  0  0  0  0  0  0
  189.0120  175.5240  143.3680 C   0  0  0  0  0  0  0  0  0  0  0  0
  193.0180  175.6660  146.8550 C   0  0  0  0  0  3  0  0  0  0  0  0
  190.8400  171.4710  139.7340 C   0  0  0  0  0  2  0  0  0  0  0  0
  192.4720  174.1570  143.5880 N   0  0  0  0  0  0  0  0  0  0  0  0
  193.8020  171.7810  145.0320 C   0  0  0  0  0  1  0  0  0  0  0  0
  189.8450  177.3820  145.8090 C   0  0  0  0  0  3  0  0  0  0  0  0
  191.8370  176.4380  146.8900 C   0  0  0  0  0  3  0  0  0  0  0  0
  193.7330  173.5070  143.2220 C   0  0  0  0  0  2  0  0  0  0  0  0
  189.2380  172.9150  141.1930 C   0  0  1  0  0  3  0  0  0  0  0  0
  188.6840  173.0940  142.5980 C   0  0  0  0  0  2  0  0  0  0  0  0
  190.8860  176.3630  145.8490 C   0  0  0  0  0  0  0  0  0  0  0  0
  191.3650  174.4240  142.8410 C   0  0  0  0  0  0  0  0  0  0  0  0
  194.5700  174.1050  145.5680 C   0  0  0  0  0  2  0  0  0  0  0  0
  188.3830  176.6420  143.8300 C   0  0  0  0  0  0  0  0  0  0  0  0
  195.8980  172.6350  144.0690 C   0  0  0  0  0  1  0  0  0  0  0  0
  189.9770  174.1090  140.7530 N   0  0  0  0  0  2  0  0  0  0  0  0
  190.6970  171.1950  142.1330 O   0  0  0  0  0  1  0  0  0  0  0  0
  191.3220  174.2150  141.3270 C   0  0  2  0  0  3  0  0  0  0  0  0
  188.8390  177.5030  144.9470 C   0  0  0  0  0  3  0  0  0  0  0  0
  185.9580  177.2680  144.0990 C   0  0  0  0  0  3  0  0  0  0  0  0
  187.0700  177.0640  143.2620 C   0  0  0  0  0  0  0  0  0  0  0  0
  186.9390  177.3300  141.8870 C   0  0  0  0  0  3  0  0  0  0  0  0
  185.6070  178.0300  139.9640 N   0  0  0  0  0  1  0  0  0  0  0  0
  184.6220  177.9530  142.1960 C   0  0  0  0  0  3  0  0  0  0  0  0
  185.7210  177.7670  141.3570 C   0  0  0  0  0  0  0  0  0  0  0  0
  184.7420  177.7080  143.5680 C   0  0  0  0  0  3  0  0  0  0  0  0
  193.0300  170.6850  139.0770 O   0  0  0  0  0  1  0  0  0  0  0  0
  192.9030  172.0490  138.7980 C   0  0  0  0  0  2  0  0  0  0  0  0
  2 14  1  0  0  0  0
  2 22  1  0  0  0  0
  3 20  1  0  0  0  0
  4 12  1  0  0  0  0
  4  1  1  0  0  0  0
  5 10  1  0  0  0  0
  6 11  2  0  0  0  0
  7  3  1  0  0  0  0
  8 18  1  0  0  0  0
  8 26  1  1  0  0  0
  9  3  2  0  0  0  0
  9  6  1  0  0  0  0
 10  7  1  0  0  0  0
 10 23  2  0  0  0  0
 11 16  1  0  0  0  0
 12  8  1  0  0  0  0
 13  9  1  0  0  0  0
 15 20  1  0  0  0  0
 17 13  1  0  0  0  0
 17  2  1  0  0  0  0
 18 19  1  1  0  0  0
 19  5  1  0  0  0  0
 20 16  2  0  0  0  0
 21 13  1  0  0  0  0
 21  7  2  0  0  0  0
 22  6  1  0  0  0  0
 23 28  1  0  0  0  0
 24  2  1  0  0  0  0
 25 18  1  0  0  0  0
 25 27  1  0  0  0  0
 27  1  1  1  0  0  0
 27 21  1  0  0  0  0
 28 15  2  0  0  0  0
 30 23  1  0  0  0  0
 30 29  2  0  0  0  0
 31 30  1  0  0  0  0
 32 34  1  0  0  0  0
 33 35  2  0  0  0  0
 34 31  2  0  0  0  0
 34 33  1  0  0  0  0
 35 29  1  0  0  0  0
 37 36  1  0  0  0  0
 37  4  1  0  0  0  0
M  END
>  <MODEL>
1

>  <REMARK>
 VINA RESULT:      -8.7      0.000      0.000
  Name = 
  2 active torsions:
  status: ('A' for Active; 'I' for Inactive)
    1  A    between atoms: N_4  and  C_37
    2  A    between atoms: C_23  and  C_30
                            x       y       z     vdW  Elec       q    Type
                         _______ _______ _______ _____ _____    ______ ____

>  <TORSDO>
F 2

$$$$
=
 OpenBabel11112417163D

 37 43  0  0  1  0  0  0  0  0999 V2000
  192.0170  173.5960  140.2550 C   0  0  0  0  0  2  0  0  0  0  0  0
  195.7150  172.8160  142.3370 C   0  0  0  0  0  0  0  0  0  0  0  0
  193.0350  174.9220  144.7410 C   0  0  0  0  0  0  0  0  0  0  0  0
  190.9540  173.3250  139.2880 N   0  0  0  0  0  0  0  0  0  0  0  0
  189.3360  174.2130  144.1720 C   0  0  0  0  0  2  0  0  0  0  0  0
  195.3270  174.2140  144.4190 C   0  0  0  0  0  0  0  0  0  0  0  0
  191.8670  174.8790  143.9940 C   0  0  0  0  0  0  0  0  0  0  0  0
  190.0220  171.8720  141.1690 C   0  0  2  0  0  3  0  0  0  0  0  0
  194.0130  174.3400  143.9930 C   0  0  0  0  0  0  0  0  0  0  0  0
  190.4880  175.1350  144.5330 C   0  0  0  0  0  0  0  0  0  0  0  0
  195.6670  174.7690  145.6600 C   0  0  0  0  0  3  0  0  0  0  0  0
  190.1930  172.1180  139.6550 C   0  0  0  0  0  2  0  0  0  0  0  0
  193.5730  173.9870  142.7860 N   0  0  0  0  0  0  0  0  0  0  0  0
  195.3150  171.4450  142.8570 C   0  0  0  0  0  1  0  0  0  0  0  0
  192.4600  176.4580  146.6450 C   0  0  0  0  0  3  0  0  0  0  0  0
  194.6800  175.4340  146.4190 C   0  0  0  0  0  3  0  0  0  0  0  0
  194.4810  173.5210  141.7340 C   0  0  0  0  0  2  0  0  0  0  0  0
  189.5380  173.0930  141.9800 C   0  0  1  0  0  3  0  0  0  0  0  0
  189.7210  172.9200  143.4790 C   0  0  0  0  0  2  0  0  0  0  0  0
  193.3480  175.5270  145.9590 C   0  0  0  0  0  0  0  0  0  0  0  0
  192.2590  174.3390  142.7290 C   0  0  0  0  0  0  0  0  0  0  0  0
  196.3530  173.6390  143.4790 C   0  0  0  0  0  2  0  0  0  0  0  0
  190.2040  176.0780  145.4750 C   0  0  0  0  0  0  0  0  0  0  0  0
  196.7450  172.6290  141.2440 C   0  0  0  0  0  1  0  0  0  0  0  0
  190.0380  174.4020  141.5270 N   0  0  0  0  0  2  0  0  0  0  0  0
  191.1860  171.3090  141.7070 O   0  0  0  0  0  1  0  0  0  0  0  0
  191.4970  174.4680  141.4100 C   0  0  2  0  0  3  0  0  0  0  0  0
  191.1730  176.6990  146.4100 C   0  0  0  0  0  3  0  0  0  0  0  0
  188.0830  176.0950  146.8320 C   0  0  0  0  0  3  0  0  0  0  0  0
  188.8000  176.5270  145.7030 C   0  0  0  0  0  0  0  0  0  0  0  0
  188.1930  177.4440  144.8260 C   0  0  0  0  0  3  0  0  0  0  0  0
  186.2930  178.8250  144.1590 N   0  0  0  0  0  1  0  0  0  0  0  0
  186.1850  177.4530  146.1750 C   0  0  0  0  0  3  0  0  0  0  0  0
  186.8920  177.9000  145.0580 C   0  0  0  0  0  0  0  0  0  0  0  0
  186.7820  176.5540  147.0650 C   0  0  0  0  0  3  0  0  0  0  0  0
  191.7350  171.6440  137.8700 O   0  0  0  0  0  1  0  0  0  0  0  0
  191.5940  173.0260  138.0190 C   0  0  0  0  0  2  0  0  0  0  0  0
  2 14  1  0  0  0  0
  2 22  1  0  0  0  0
  3 20  1  0  0  0  0
  4 12  1  0  0  0  0
  4  1  1  0  0  0  0
  5 10  1  0  0  0  0
  6 11  2  0  0  0  0
  7 10  1  0  0  0  0
  7  3  1  0  0  0  0
  8 26  1  1  0  0  0
  8 18  1  0  0  0  0
  9  6  1  0  0  0  0
  9  3  2  0  0  0  0
 10 23  2  0  0  0  0
 11 16  1  0  0  0  0
 12  8  1  0  0  0  0
 13  9  1  0  0  0  0
 17  2  1  0  0  0  0
 17 13  1  0  0  0  0
 18 19  1  1  0  0  0
 19  5  1  0  0  0  0
 20 16  2  0  0  0  0
 20 15  1  0  0  0  0
 21 13  1  0  0  0  0
 21  7  2  0  0  0  0
 22  6  1  0  0  0  0
 23 30  1  0  0  0  0
 23 28  1  0  0  0  0
 24  2  1  0  0  0  0
 25 18  1  0  0  0  0
 27  1  1  6  0  0  0
 27 25  1  0  0  0  0
 27 21  1  0  0  0  0
 28 15  2  0  0  0  0
 29 35  1  0  0  0  0
 30 29  2  0  0  0  0
 31 34  2  0  0  0  0
 31 30  1  0  0  0  0
 32 34  1  0  0  0  0
 33 35  2  0  0  0  0
 34 33  1  0  0  0  0
 36 37  1  0  0  0  0
 37  4  1  0  0  0  0
M  END
>  <MODEL>
2

>  <REMARK>
 VINA RESULT:      -8.7      1.759      2.460
  Name = 
  2 active torsions:
  status: ('A' for Active; 'I' for Inactive)
    1  A    between atoms: N_4  and  C_37
    2  A    between atoms: C_23  and  C_30
                            x       y       z     vdW  Elec       q    Type
                         _______ _______ _______ _____ _____    ______ ____

>  <TORSDO>
F 2

$$$$
=
 OpenBabel11112417163D

 37 43  0  0  1  0  0  0  0  0999 V2000
  193.7690  173.8260  144.4160 C   0  0  0  0  0  2  0  0  0  0  0  0
  193.4780  172.9120  140.2100 C   0  0  0  0  0  0  0  0  0  0  0  0
  189.9240  174.5490  141.6560 C   0  0  0  0  0  0  0  0  0  0  0  0
  194.4580  174.2050  145.6500 N   0  0  0  0  0  0  0  0  0  0  0  0
  190.2570  177.0770  144.4860 C   0  0  0  0  0  2  0  0  0  0  0  0
  191.0010  173.3380  139.8580 C   0  0  0  0  0  0  0  0  0  0  0  0
  190.2850  174.9660  142.9290 C   0  0  0  0  0  0  0  0  0  0  0  0
  194.0810  176.5740  144.7800 C   0  0  2  0  0  3  0  0  0  0  0  0
  191.0000  173.9040  141.1250 C   0  0  0  0  0  0  0  0  0  0  0  0
  189.5250  175.9630  143.7590 C   0  0  0  0  0  0  0  0  0  0  0  0
  189.8120  173.3890  139.1200 C   0  0  0  0  0  3  0  0  0  0  0  0
  194.9590  175.5880  145.5790 C   0  0  0  0  0  2  0  0  0  0  0  0
  192.0060  173.8130  141.9930 N   0  0  0  0  0  0  0  0  0  0  0  0
  194.0480  174.2350  139.7240 C   0  0  0  0  0  1  0  0  0  0  0  0
  187.4410  174.9270  141.5930 C   0  0  0  0  0  3  0  0  0  0  0  0
  188.6690  173.9960  139.6820 C   0  0  0  0  0  3  0  0  0  0  0  0
  193.1930  172.9980  141.7240 C   0  0  0  0  0  2  0  0  0  0  0  0
  192.5800  176.5530  145.1390 C   0  0  1  0  0  3  0  0  0  0  0  0
  191.7140  177.2620  144.1100 C   0  0  0  0  0  2  0  0  0  0  0  0
  188.7100  174.5770  140.9680 C   0  0  0  0  0  0  0  0  0  0  0  0
  191.5920  174.4230  143.1380 C   0  0  0  0  0  0  0  0  0  0  0  0
  192.2090  172.5650  139.4000 C   0  0  0  0  0  2  0  0  0  0  0  0
  188.1650  176.0400  143.7930 C   0  0  0  0  0  0  0  0  0  0  0  0
  194.5120  171.8320  139.9740 C   0  0  0  0  0  1  0  0  0  0  0  0
  192.0240  175.2360  145.4910 N   0  0  0  0  0  2  0  0  0  0  0  0
  194.2980  176.4190  143.4060 O   0  0  0  0  0  1  0  0  0  0  0  0
  192.2790  174.2000  144.4850 C   0  0  2  0  0  3  0  0  0  0  0  0
  187.2320  175.4980  142.7760 C   0  0  0  0  0  3  0  0  0  0  0  0
  187.6430  176.4160  146.2280 C   0  0  0  0  0  3  0  0  0  0  0  0
  187.4740  176.7880  144.8840 C   0  0  0  0  0  0  0  0  0  0  0  0
  186.6930  177.9200  144.5880 C   0  0  0  0  0  3  0  0  0  0  0  0
  185.2910  179.7910  145.2930 N   0  0  0  0  0  1  0  0  0  0  0  0
  186.2440  178.2620  146.9400 C   0  0  0  0  0  3  0  0  0  0  0  0
  186.0780  178.6490  145.6100 C   0  0  0  0  0  0  0  0  0  0  0  0
  187.0300  177.1480  147.2500 C   0  0  0  0  0  3  0  0  0  0  0  0
  196.7890  174.1400  145.7420 O   0  0  0  0  0  1  0  0  0  0  0  0
  195.6320  173.3570  145.7630 C   0  0  0  0  0  2  0  0  0  0  0  0
  1  4  1  0  0  0  0
  2 17  1  0  0  0  0
  3  7  1  0  0  0  0
  4 37  1  0  0  0  0
  6  9  2  0  0  0  0
  7 21  2  0  0  0  0
  7 10  1  0  0  0  0
  8 26  1  6  0  0  0
  8 18  1  0  0  0  0
  8 12  1  0  0  0  0
  9  3  1  0  0  0  0
  9 13  1  0  0  0  0
 10 23  2  0  0  0  0
 10  5  1  0  0  0  0
 11 16  2  0  0  0  0
 11  6  1  0  0  0  0
 12  4  1  0  0  0  0
 13 21  1  0  0  0  0
 14  2  1  0  0  0  0
 15 28  2  0  0  0  0
 16 20  1  0  0  0  0
 17 13  1  0  0  0  0
 18 19  1  6  0  0  0
 18 25  1  0  0  0  0
 19  5  1  0  0  0  0
 20 15  1  0  0  0  0
 20  3  2  0  0  0  0
 21 27  1  0  0  0  0
 22  6  1  0  0  0  0
 22  2  1  0  0  0  0
 23 30  1  0  0  0  0
 24  2  1  0  0  0  0
 27  1  1  6  0  0  0
 27 25  1  0  0  0  0
 28 23  1  0  0  0  0
 29 35  1  0  0  0  0
 30 29  2  0  0  0  0
 31 30  1  0  0  0  0
 31 34  2  0  0  0  0
 32 34  1  0  0  0  0
 33 35  2  0  0  0  0
 34 33  1  0  0  0  0
 36 37  1  0  0  0  0
M  END
>  <MODEL>
3

>  <REMARK>
 VINA RESULT:      -8.5      2.514      5.213
  Name = 
  2 active torsions:
  status: ('A' for Active; 'I' for Inactive)
    1  A    between atoms: N_4  and  C_37
    2  A    between atoms: C_23  and  C_30
                            x       y       z     vdW  Elec       q    Type
                         _______ _______ _______ _____ _____    ______ ____

>  <TORSDO>
F 2

$$$$
=
 OpenBabel11112417163D

 37 43  0  0  1  0  0  0  0  0999 V2000
  190.1370  177.3040  147.1800 C   0  0  0  0  0  2  0  0  0  0  0  0
  186.0410  178.6390  146.9580 C   0  0  0  0  0  0  0  0  0  0  0  0
  187.2270  176.7850  143.4140 C   0  0  0  0  0  0  0  0  0  0  0  0
  191.3420  176.8160  147.8520 N   0  0  0  0  0  0  0  0  0  0  0  0
  189.7900  173.9870  143.7480 C   0  0  0  0  0  2  0  0  0  0  0  0
  185.5890  178.1990  144.5000 C   0  0  0  0  0  0  0  0  0  0  0  0
  188.4590  176.2470  143.7570 C   0  0  0  0  0  0  0  0  0  0  0  0
  190.2250  174.5400  147.5510 C   0  0  2  0  0  3  0  0  0  0  0  0
  186.7900  177.5050  144.4850 C   0  0  0  0  0  0  0  0  0  0  0  0
  189.1630  175.1540  143.0050 C   0  0  0  0  0  0  0  0  0  0  0  0
  184.8210  178.1970  143.3280 C   0  0  0  0  0  3  0  0  0  0  0  0
  191.1410  175.4580  148.3870 C   0  0  0  0  0  2  0  0  0  0  0  0
  187.6870  177.5280  145.4700 N   0  0  0  0  0  0  0  0  0  0  0  0
  185.4360  177.3870  147.5700 C   0  0  0  0  0  1  0  0  0  0  0  0
  187.0670  176.3610  140.9430 C   0  0  0  0  0  3  0  0  0  0  0  0
  185.2900  177.5110  142.1880 C   0  0  0  0  0  3  0  0  0  0  0  0
  187.5310  178.3920  146.6420 C   0  0  0  0  0  2  0  0  0  0  0  0
  190.5480  174.4920  146.0430 C   0  0  1  0  0  3  0  0  0  0  0  0
  189.4310  173.8740  145.2160 C   0  0  0  0  0  2  0  0  0  0  0  0
  186.5110  176.8020  142.2170 C   0  0  0  0  0  0  0  0  0  0  0  0
  188.7530  176.7940  145.0460 C   0  0  0  0  0  0  0  0  0  0  0  0
  185.2410  179.0410  145.6980 C   0  0  0  0  0  2  0  0  0  0  0  0
  189.1570  175.0440  141.6460 C   0  0  0  0  0  0  0  0  0  0  0  0
  185.9410  179.7610  147.9700 C   0  0  0  0  0  1  0  0  0  0  0  0
  191.0200  175.7530  145.4480 N   0  0  0  0  0  2  0  0  0  0  0  0
  188.8800  174.8410  147.7930 O   0  0  0  0  0  1  0  0  0  0  0  0
  190.1320  176.8920  145.6990 C   0  0  2  0  0  3  0  0  0  0  0  0
  188.1790  175.6660  140.7220 C   0  0  0  0  0  3  0  0  0  0  0  0
  191.5290  174.3890  141.1060 C   0  0  0  0  0  3  0  0  0  0  0  0
  190.1490  174.1720  140.9500 C   0  0  0  0  0  0  0  0  0  0  0  0
  189.7190  173.0780  140.1790 C   0  0  0  0  0  3  0  0  0  0  0  0
  190.1910  171.1320  138.7820 N   0  0  0  0  0  1  0  0  0  0  0  0
  192.0120  172.4660  139.7120 C   0  0  0  0  0  3  0  0  0  0  0  0
  190.6440  172.2330  139.5590 C   0  0  0  0  0  0  0  0  0  0  0  0
  192.4540  173.5410  140.4890 C   0  0  0  0  0  3  0  0  0  0  0  0
  190.5840  178.6630  149.0600 O   0  0  0  0  0  1  0  0  0  0  0  0
  191.5690  177.6730  149.0020 C   0  0  0  0  0  2  0  0  0  0  0  0
  1  4  1  0  0  0  0
  2 14  1  0  0  0  0
  2 24  1  0  0  0  0
  3  7  1  0  0  0  0
  3  9  1  0  0  0  0
  4 12  1  0  0  0  0
  4 37  1  0  0  0  0
  5 19  1  0  0  0  0
  6 22  1  0  0  0  0
  7 21  2  0  0  0  0
  8 26  1  6  0  0  0
  8 12  1  0  0  0  0
  9  6  2  0  0  0  0
  9 13  1  0  0  0  0
 10  5  1  0  0  0  0
 10  7  1  0  0  0  0
 11  6  1  0  0  0  0
 13 17  1  0  0  0  0
 15 20  1  0  0  0  0
 16 20  1  0  0  0  0
 16 11  2  0  0  0  0
 17  2  1  0  0  0  0
 18 19  1  6  0  0  0
 18  8  1  0  0  0  0
 20  3  2  0  0  0  0
 21 13  1  0  0  0  0
 21 27  1  0  0  0  0
 22  2  1  0  0  0  0
 23 10  2  0  0  0  0
 25 27  1  0  0  0  0
 25 18  1  0  0  0  0
 27  1  1  1  0  0  0
 28 15  2  0  0  0  0
 28 23  1  0  0  0  0
 30 29  1  0  0  0  0
 30 23  1  0  0  0  0
 31 30  2  0  0  0  0
 32 34  1  0  0  0  0
 33 35  1  0  0  0  0
 34 33  2  0  0  0  0
 34 31  1  0  0  0  0
 35 29  2  0  0  0  0
 37 36  1  0  0  0  0
M  END
>  <MODEL>
4

>  <REMARK>
 VINA RESULT:      -8.1      3.111      7.625
  Name = 
  2 active torsions:
  status: ('A' for Active; 'I' for Inactive)
    1  A    between atoms: N_4  and  C_37
    2  A    between atoms: C_23  and  C_30
                            x       y       z     vdW  Elec       q    Type
                         _______ _______ _______ _____ _____    ______ ____

>  <TORSDO>
F 2

$$$$
=
 OpenBabel11112417163D

 37 43  0  0  1  0  0  0  0  0999 V2000
  190.3380  176.9400  145.0280 C   0  0  0  0  0  2  0  0  0  0  0  0
  186.7990  178.1890  147.1550 C   0  0  0  0  0  0  0  0  0  0  0  0
  186.0210  177.6670  143.0900 C   0  0  0  0  0  0  0  0  0  0  0  0
  191.6340  176.2780  144.8760 N   0  0  0  0  0  0  0  0  0  0  0  0
  188.0460  174.9740  141.3150 C   0  0  0  0  0  2  0  0  0  0  0  0
  185.2490  178.5970  145.1880 C   0  0  0  0  0  0  0  0  0  0  0  0
  187.1880  177.0700  142.6380 C   0  0  0  0  0  0  0  0  0  0  0  0
  190.1930  174.2160  144.4420 C   0  0  2  0  0  3  0  0  0  0  0  0
  186.2090  177.9730  144.4040 C   0  0  0  0  0  0  0  0  0  0  0  0
  187.3260  176.3100  141.3490 C   0  0  0  0  0  0  0  0  0  0  0  0
  184.0500  178.9770  144.5710 C   0  0  0  0  0  3  0  0  0  0  0  0
  191.5030  174.8160  144.9950 C   0  0  0  0  0  2  0  0  0  0  0  0
  187.4420  177.6800  144.8130 N   0  0  0  0  0  0  0  0  0  0  0  0
  186.3590  176.7920  147.5580 C   0  0  0  0  0  1  0  0  0  0  0  0
  184.7260  178.1010  140.9820 C   0  0  0  0  0  3  0  0  0  0  0  0
  183.8650  178.7260  143.1950 C   0  0  0  0  0  3  0  0  0  0  0  0
  187.9450  178.0940  146.1260 C   0  0  0  0  0  2  0  0  0  0  0  0
  189.8050  174.6870  143.0250 C   0  0  1  0  0  3  0  0  0  0  0  0
  188.3630  174.3630  142.6660 C   0  0  0  0  0  2  0  0  0  0  0  0
  184.8590  178.0740  142.4330 C   0  0  0  0  0  0  0  0  0  0  0  0
  188.0960  177.1540  143.7400 C   0  0  0  0  0  0  0  0  0  0  0  0
  185.5890  178.9770  146.6040 C   0  0  0  0  0  2  0  0  0  0  0  0
  186.7040  176.6660  140.1890 C   0  0  0  0  0  0  0  0  0  0  0  0
  187.3160  178.9000  148.3880 C   0  0  0  0  0  1  0  0  0  0  0  0
  190.1360  176.0840  142.7010 N   0  0  0  0  0  2  0  0  0  0  0  0
  189.1510  174.3900  145.3600 O   0  0  0  0  0  1  0  0  0  0  0  0
  189.6200  177.0540  143.6730 C   0  0  2  0  0  3  0  0  0  0  0  0
  185.5160  177.5450  140.0680 C   0  0  0  0  0  3  0  0  0  0  0  0
  187.9060  174.9170  138.8330 C   0  0  0  0  0  3  0  0  0  0  0  0
  187.1510  176.1020  138.8830 C   0  0  0  0  0  0  0  0  0  0  0  0
  186.7680  176.7100  137.6740 C   0  0  0  0  0  3  0  0  0  0  0  0
  186.7540  176.7910  135.2340 N   0  0  0  0  0  1  0  0  0  0  0  0
  187.9100  174.9920  136.4110 C   0  0  0  0  0  3  0  0  0  0  0  0
  187.1500  176.1620  136.4460 C   0  0  0  0  0  0  0  0  0  0  0  0
  188.2850  174.3670  137.6040 C   0  0  0  0  0  3  0  0  0  0  0  0
  192.1510  175.9520  147.1280 O   0  0  0  0  0  1  0  0  0  0  0  0
  192.4640  176.7000  145.9900 C   0  0  0  0  0  2  0  0  0  0  0  0
  2 14  1  0  0  0  0
  2 24  1  0  0  0  0
  3  9  1  0  0  0  0
  4 12  1  0  0  0  0
  4  1  1  0  0  0  0
  4 37  1  0  0  0  0
  5 10  1  0  0  0  0
  5 19  1  0  0  0  0
  6 22  1  0  0  0  0
  7  3  1  0  0  0  0
  7 21  2  0  0  0  0
  8 12  1  0  0  0  0
  8 26  1  1  0  0  0
  9 13  1  0  0  0  0
  9  6  2  0  0  0  0
 10  7  1  0  0  0  0
 11  6  1  0  0  0  0
 13 17  1  0  0  0  0
 15 20  1  0  0  0  0
 16 11  2  0  0  0  0
 17  2  1  0  0  0  0
 18 19  1  1  0  0  0
 18  8  1  0  0  0  0
 20  3  2  0  0  0  0
 20 16  1  0  0  0  0
 21 13  1  0  0  0  0
 22  2  1  0  0  0  0
 23 10  2  0  0  0  0
 25 18  1  0  0  0  0
 25 27  1  0  0  0  0
 27 21  1  0  0  0  0
 27  1  1  1  0  0  0
 28 23  1  0  0  0  0
 28 15  2  0  0  0  0
 29 30  1  0  0  0  0
 30 23  1  0  0  0  0
 31 30  2  0  0  0  0
 32 34  1  0  0  0  0
 33 34  2  0  0  0  0
 33 35  1  0  0  0  0
 34 31  1  0  0  0  0
 35 29  2  0  0  0  0
 37 36  1  0  0  0  0
M  END
>  <MODEL>
5

>  <REMARK>
 VINA RESULT:      -7.8      3.019      6.688
  Name = 
  2 active torsions:
  status: ('A' for Active; 'I' for Inactive)
    1  A    between atoms: N_4  and  C_37
    2  A    between atoms: C_23  and  C_30
                            x       y       z     vdW  Elec       q    Type
                         _______ _______ _______ _____ _____    ______ ____

>  <TORSDO>
F 2

$$$$
=
 OpenBabel11112417163D

 37 43  0  0  1  0  0  0  0  0999 V2000
  192.2570  172.4790  140.1550 C   0  0  0  0  0  2  0  0  0  0  0  0
  195.4740  173.1910  142.9410 C   0  0  0  0  0  0  0  0  0  0  0  0
  192.3020  175.8240  143.5800 C   0  0  0  0  0  0  0  0  0  0  0  0
  191.4200  171.6690  139.2690 N   0  0  0  0  0  0  0  0  0  0  0  0
  188.8180  174.4920  142.8070 C   0  0  0  0  0  2  0  0  0  0  0  0
  194.6310  175.3290  144.0170 C   0  0  0  0  0  0  0  0  0  0  0  0
  191.3120  175.3030  142.7600 C   0  0  0  0  0  0  0  0  0  0  0  0
  190.1670  171.1390  141.4280 C   0  0  2  0  0  3  0  0  0  0  0  0
  193.4280  175.0860  143.3710 C   0  0  0  0  0  0  0  0  0  0  0  0
  189.8450  175.6080  142.8750 C   0  0  0  0  0  0  0  0  0  0  0  0
  194.6950  176.4270  144.8850 C   0  0  0  0  0  3  0  0  0  0  0  0
  190.6350  170.6830  140.0300 C   0  0  0  0  0  2  0  0  0  0  0  0
  193.2530  174.1700  142.4190 N   0  0  0  0  0  0  0  0  0  0  0  0
  195.0150  172.1730  143.9720 C   0  0  0  0  0  1  0  0  0  0  0  0
  191.3090  177.9790  144.4060 C   0  0  0  0  0  3  0  0  0  0  0  0
  193.5560  177.2410  145.0640 C   0  0  0  0  0  3  0  0  0  0  0  0
  194.3690  173.3870  141.8810 C   0  0  0  0  0  2  0  0  0  0  0  0
  189.4930  172.5270  141.4720 C   0  0  1  0  0  3  0  0  0  0  0  0
  189.3720  173.0830  142.8830 C   0  0  0  0  0  2  0  0  0  0  0  0
  192.3430  176.9520  144.4010 C   0  0  0  0  0  0  0  0  0  0  0  0
  191.9690  174.2950  141.9850 C   0  0  0  0  0  0  0  0  0  0  0  0
  195.8420  174.5160  143.6460 C   0  0  0  0  0  2  0  0  0  0  0  0
  189.3500  176.8370  143.1980 C   0  0  0  0  0  0  0  0  0  0  0  0
  196.7100  172.6500  142.2540 C   0  0  0  0  0  1  0  0  0  0  0  0
  190.0380  173.5320  140.5460 N   0  0  0  0  0  2  0  0  0  0  0  0
  191.2120  171.0290  142.3530 O   0  0  0  0  0  1  0  0  0  0  0  0
  191.4880  173.7130  140.6560 C   0  0  2  0  0  3  0  0  0  0  0  0
  190.0910  177.9290  143.8740 C   0  0  0  0  0  3  0  0  0  0  0  0
  187.4120  177.2330  141.6390 C   0  0  0  0  0  3  0  0  0  0  0  0
  187.9160  177.1670  142.9490 C   0  0  0  0  0  0  0  0  0  0  0  0
  187.0300  177.3530  144.0250 C   0  0  0  0  0  3  0  0  0  0  0  0
  184.7960  177.8070  144.8980 N   0  0  0  0  0  1  0  0  0  0  0  0
  185.1910  177.6960  142.4920 C   0  0  0  0  0  3  0  0  0  0  0  0
  185.6770  177.6210  143.7980 C   0  0  0  0  0  0  0  0  0  0  0  0
  186.0570  177.4970  141.4120 C   0  0  0  0  0  3  0  0  0  0  0  0
  192.5240  171.5810  137.2140 O   0  0  0  0  0  1  0  0  0  0  0  0
  192.3140  170.9030  138.4190 C   0  0  0  0  0  2  0  0  0  0  0  0
  2 22  1  0  0  0  0
  2 14  1  0  0  0  0
  3 20  1  0  0  0  0
  4 12  1  0  0  0  0
  4  1  1  0  0  0  0
  5 10  1  0  0  0  0
  5 19  1  0  0  0  0
  6 11  2  0  0  0  0
  7 10  1  0  0  0  0
  7  3  1  0  0  0  0
  8 18  1  0  0  0  0
  8 26  1  1  0  0  0
  9  3  2  0  0  0  0
  9  6  1  0  0  0  0
 10 23  2  0  0  0  0
 11 16  1  0  0  0  0
 12  8  1  0  0  0  0
 13  9  1  0  0  0  0
 17 13  1  0  0  0  0
 17  2  1  0  0  0  0
 18 19  1  1  0  0  0
 20 15  1  0  0  0  0
 20 16  2  0  0  0  0
 21 13  1  0  0  0  0
 21  7  2  0  0  0  0
 22  6  1  0  0  0  0
 23 28  1  0  0  0  0
 24  2  1  0  0  0  0
 25 27  1  0  0  0  0
 25 18  1  0  0  0  0
 27  1  1  1  0  0  0
 27 21  1  0  0  0  0
 28 15  2  0  0  0  0
 29 30  1  0  0  0  0
 30 23  1  0  0  0  0
 30 31  2  0  0  0  0
 33 34  2  0  0  0  0
 34 31  1  0  0  0  0
 34 32  1  0  0  0  0
 35 29  2  0  0  0  0
 35 33  1  0  0  0  0
 36 37  1  0  0  0  0
 37  4  1  0  0  0  0
M  END
>  <MODEL>
6

>  <REMARK>
 VINA RESULT:      -7.8      1.577      1.843
  Name = 
  2 active torsions:
  status: ('A' for Active; 'I' for Inactive)
    1  A    between atoms: N_4  and  C_37
    2  A    between atoms: C_23  and  C_30
                            x       y       z     vdW  Elec       q    Type
                         _______ _______ _______ _____ _____    ______ ____

>  <TORSDO>
F 2

$$$$
=
 OpenBabel11112417163D

 37 43  0  0  1  0  0  0  0  0999 V2000
  190.0530  172.4770  142.0020 C   0  0  0  0  0  2  0  0  0  0  0  0
  189.7610  173.1640  137.7530 C   0  0  0  0  0  0  0  0  0  0  0  0
  187.4650  175.9100  139.8950 C   0  0  0  0  0  0  0  0  0  0  0  0
  190.7070  172.0450  143.2370 N   0  0  0  0  0  0  0  0  0  0  0  0
  188.7790  176.8950  143.3310 C   0  0  0  0  0  2  0  0  0  0  0  0
  187.9260  174.9160  137.7360 C   0  0  0  0  0  0  0  0  0  0  0  0
  187.8570  175.6700  141.2040 C   0  0  0  0  0  0  0  0  0  0  0  0
  191.7190  174.3860  143.1690 C   0  0  2  0  0  3  0  0  0  0  0  0
  188.0910  174.9880  139.1120 C   0  0  0  0  0  0  0  0  0  0  0  0
  187.6520  176.6140  142.3530 C   0  0  0  0  0  0  0  0  0  0  0  0
  187.0230  175.8060  137.1400 C   0  0  0  0  0  3  0  0  0  0  0  0
  191.8620  172.9000  143.5570 C   0  0  0  0  0  2  0  0  0  0  0  0
  188.8050  174.1240  139.8320 N   0  0  0  0  0  0  0  0  0  0  0  0
  190.9860  174.0580  137.6550 C   0  0  0  0  0  1  0  0  0  0  0  0
  185.5690  177.5410  140.1380 C   0  0  0  0  0  3  0  0  0  0  0  0
  186.3160  176.7240  137.9460 C   0  0  0  0  0  3  0  0  0  0  0  0
  189.4090  172.9290  139.2370 C   0  0  0  0  0  2  0  0  0  0  0  0
  190.4020  175.0550  143.6150 C   0  0  1  0  0  3  0  0  0  0  0  0
  190.1470  176.3850  142.9220 C   0  0  0  0  0  2  0  0  0  0  0  0
  186.5230  176.7790  139.3420 C   0  0  0  0  0  0  0  0  0  0  0  0
  188.6560  174.4850  141.1370 C   0  0  0  0  0  0  0  0  0  0  0  0
  188.5890  173.8000  136.9730 C   0  0  0  0  0  2  0  0  0  0  0  0
  186.5380  177.3850  142.5120 C   0  0  0  0  0  0  0  0  0  0  0  0
  190.0930  171.8290  137.1190 C   0  0  0  0  0  1  0  0  0  0  0  0
  189.2060  174.1980  143.5860 N   0  0  0  0  0  2  0  0  0  0  0  0
  191.9620  174.5600  141.8010 O   0  0  0  0  0  1  0  0  0  0  0  0
  188.9820  173.5410  142.2950 C   0  0  2  0  0  3  0  0  0  0  0  0
  185.5700  177.7520  141.4510 C   0  0  0  0  0  3  0  0  0  0  0  0
  185.8640  179.3720  143.9050 C   0  0  0  0  0  3  0  0  0  0  0  0
  186.2330  178.0180  143.8280 C   0  0  0  0  0  0  0  0  0  0  0  0
  186.2470  177.2520  145.0080 C   0  0  0  0  0  3  0  0  0  0  0  0
  185.9410  177.0430  147.4220 N   0  0  0  0  0  1  0  0  0  0  0  0
  185.5680  179.1800  146.3030 C   0  0  0  0  0  3  0  0  0  0  0  0
  185.9210  177.8310  146.2390 C   0  0  0  0  0  0  0  0  0  0  0  0
  185.5350  179.9490  145.1360 C   0  0  0  0  0  3  0  0  0  0  0  0
  192.3130  170.4700  143.8620 O   0  0  0  0  0  1  0  0  0  0  0  0
  191.2440  170.7170  142.9950 C   0  0  0  0  0  2  0  0  0  0  0  0
  1  4  1  0  0  0  0
  2 17  1  0  0  0  0
  3  7  1  0  0  0  0
  4 12  1  0  0  0  0
  6  9  1  0  0  0  0
  7 10  1  0  0  0  0
  8 26  1  6  0  0  0
  8 12  1  0  0  0  0
  8 18  1  0  0  0  0
  9 13  1  0  0  0  0
  9  3  2  0  0  0  0
 10 23  2  0  0  0  0
 10  5  1  0  0  0  0
 11  6  2  0  0  0  0
 11 16  1  0  0  0  0
 13 21  1  0  0  0  0
 14  2  1  0  0  0  0
 15 28  2  0  0  0  0
 16 20  2  0  0  0  0
 17 13  1  0  0  0  0
 18 19  1  6  0  0  0
 19  5  1  0  0  0  0
 20  3  1  0  0  0  0
 20 15  1  0  0  0  0
 21  7  2  0  0  0  0
 21 27  1  0  0  0  0
 22  6  1  0  0  0  0
 22  2  1  0  0  0  0
 23 30  1  0  0  0  0
 24  2  1  0  0  0  0
 25 18  1  0  0  0  0
 27  1  1  6  0  0  0
 27 25  1  0  0  0  0
 28 23  1  0  0  0  0
 29 35  1  0  0  0  0
 30 29  2  0  0  0  0
 30 31  1  0  0  0  0
 31 34  2  0  0  0  0
 34 33  1  0  0  0  0
 34 32  1  0  0  0  0
 35 33  2  0  0  0  0
 37  4  1  0  0  0  0
 37 36  1  0  0  0  0
M  END
>  <MODEL>
7

>  <REMARK>
 VINA RESULT:      -7.7      2.692      5.846
  Name = 
  2 active torsions:
  status: ('A' for Active; 'I' for Inactive)
    1  A    between atoms: N_4  and  C_37
    2  A    between atoms: C_23  and  C_30
                            x       y       z     vdW  Elec       q    Type
                         _______ _______ _______ _____ _____    ______ ____

>  <TORSDO>
F 2

$$$$
=
 OpenBabel11112417163D

 37 43  0  0  1  0  0  0  0  0999 V2000
  193.5100  175.0500  144.3180 C   0  0  0  0  0  2  0  0  0  0  0  0
  190.0110  176.2760  146.5240 C   0  0  0  0  0  0  0  0  0  0  0  0
  189.0280  175.1270  142.6360 C   0  0  0  0  0  0  0  0  0  0  0  0
  194.8500  174.4860  144.1570 N   0  0  0  0  0  0  0  0  0  0  0  0
  191.1830  172.3950  141.0860 C   0  0  0  0  0  2  0  0  0  0  0  0
  188.3070  176.2710  144.6440 C   0  0  0  0  0  0  0  0  0  0  0  0
  190.2160  174.5740  142.1790 C   0  0  0  0  0  0  0  0  0  0  0  0
  193.5880  172.2680  144.1130 C   0  0  2  0  0  3  0  0  0  0  0  0
  189.2700  175.6280  143.8790 C   0  0  0  0  0  0  0  0  0  0  0  0
  190.3420  173.6570  140.9960 C   0  0  0  0  0  0  0  0  0  0  0  0
  187.0400  176.4570  144.0750 C   0  0  0  0  0  3  0  0  0  0  0  0
  194.8670  173.0490  144.4790 C   0  0  0  0  0  2  0  0  0  0  0  0
  190.5490  175.5020  144.2280 N   0  0  0  0  0  0  0  0  0  0  0  0
  189.7320  174.9160  147.1420 C   0  0  0  0  0  1  0  0  0  0  0  0
  187.5650  175.1500  140.5940 C   0  0  0  0  0  3  0  0  0  0  0  0
  186.7920  176.0010  142.7630 C   0  0  0  0  0  3  0  0  0  0  0  0
  191.0930  176.1360  145.4320 C   0  0  0  0  0  2  0  0  0  0  0  0
  193.0670  172.5020  142.6790 C   0  0  1  0  0  3  0  0  0  0  0  0
  191.6420  172.0080  142.4780 C   0  0  0  0  0  2  0  0  0  0  0  0
  187.7930  175.3370  142.0210 C   0  0  0  0  0  0  0  0  0  0  0  0
  191.1800  174.8890  143.1880 C   0  0  0  0  0  0  0  0  0  0  0  0
  188.6990  176.8730  145.9670 C   0  0  0  0  0  2  0  0  0  0  0  0
  189.6160  173.7930  139.8500 C   0  0  0  0  0  0  0  0  0  0  0  0
  190.5360  177.1940  147.6080 C   0  0  0  0  0  1  0  0  0  0  0  0
  193.2410  173.8630  142.1480 N   0  0  0  0  0  2  0  0  0  0  0  0
  192.5940  172.4790  145.0770 O   0  0  0  0  0  1  0  0  0  0  0  0
  192.6990  174.9110  143.0190 C   0  0  2  0  0  3  0  0  0  0  0  0
  188.3450  174.5410  139.7040 C   0  0  0  0  0  3  0  0  0  0  0  0
  189.3630  171.9310  138.1730 C   0  0  0  0  0  3  0  0  0  0  0  0
  190.0310  173.0920  138.6010 C   0  0  0  0  0  0  0  0  0  0  0  0
  191.0550  173.6190  137.7930 C   0  0  0  0  0  3  0  0  0  0  0  0
  192.4580  173.5350  135.7970 N   0  0  0  0  0  1  0  0  0  0  0  0
  190.7570  171.8300  136.1920 C   0  0  0  0  0  3  0  0  0  0  0  0
  191.4200  172.9890  136.6000 C   0  0  0  0  0  0  0  0  0  0  0  0
  189.7260  171.3040  136.9770 C   0  0  0  0  0  3  0  0  0  0  0  0
  194.9300  175.6670  146.1690 O   0  0  0  0  0  1  0  0  0  0  0  0
  195.7060  175.1290  145.1380 C   0  0  0  0  0  2  0  0  0  0  0  0
  2 14  1  0  0  0  0
  2 24  1  0  0  0  0
  3  9  1  0  0  0  0
  4  1  1  0  0  0  0
  4 12  1  0  0  0  0
  4 37  1  0  0  0  0
  5 19  1  0  0  0  0
  6 22  1  0  0  0  0
  7  3  1  0  0  0  0
  7 21  2  0  0  0  0
  8 12  1  0  0  0  0
  8 26  1  1  0  0  0
  9 13  1  0  0  0  0
  9  6  2  0  0  0  0
 10  5  1  0  0  0  0
 10  7  1  0  0  0  0
 11  6  1  0  0  0  0
 13 17  1  0  0  0  0
 15 20  1  0  0  0  0
 16 11  2  0  0  0  0
 17  2  1  0  0  0  0
 18 19  1  1  0  0  0
 18  8  1  0  0  0  0
 20  3  2  0  0  0  0
 20 16  1  0  0  0  0
 21 13  1  0  0  0  0
 22  2  1  0  0  0  0
 23 10  2  0  0  0  0
 25 18  1  0  0  0  0
 25 27  1  0  0  0  0
 27 21  1  0  0  0  0
 27  1  1  1  0  0  0
 28 23  1  0  0  0  0
 28 15  2  0  0  0  0
 29 30  1  0  0  0  0
 30 23  1  0  0  0  0
 31 30  2  0  0  0  0
 32 34  1  0  0  0  0
 33 34  2  0  0  0  0
 33 35  1  0  0  0  0
 34 31  1  0  0  0  0
 35 29  2  0  0  0  0
 37 36  1  0  0  0  0
M  END
>  <MODEL>
8

>  <REMARK>
 VINA RESULT:      -7.7      2.350      6.036
  Name = 
  2 active torsions:
  status: ('A' for Active; 'I' for Inactive)
    1  A    between atoms: N_4  and  C_37
    2  A    between atoms: C_23  and  C_30
                            x       y       z     vdW  Elec       q    Type
                         _______ _______ _______ _____ _____    ______ ____

>  <TORSDO>
F 2

$$$$
=
 OpenBabel11112417163D

 37 43  0  0  1  0  0  0  0  0999 V2000
  193.4980  175.2640  144.5220 C   0  0  0  0  0  2  0  0  0  0  0  0
  189.9450  176.5680  146.5930 C   0  0  0  0  0  0  0  0  0  0  0  0
  189.0540  175.2440  142.7390 C   0  0  0  0  0  0  0  0  0  0  0  0
  194.8430  174.7000  144.4160 N   0  0  0  0  0  0  0  0  0  0  0  0
  191.2550  172.4570  141.3590 C   0  0  0  0  0  2  0  0  0  0  0  0
  188.2830  176.4710  144.6770 C   0  0  0  0  0  0  0  0  0  0  0  0
  190.2540  174.6770  142.3340 C   0  0  0  0  0  0  0  0  0  0  0  0
  193.5910  172.4760  144.4420 C   0  0  2  0  0  3  0  0  0  0  0  0
  189.2660  175.8010  143.9640 C   0  0  0  0  0  0  0  0  0  0  0  0
  190.4110  173.7100  141.1950 C   0  0  0  0  0  0  0  0  0  0  0  0
  187.0290  176.6260  144.0730 C   0  0  0  0  0  3  0  0  0  0  0  0
  194.8590  173.2790  144.8020 C   0  0  0  0  0  2  0  0  0  0  0  0
  190.5380  175.6960  144.3460 N   0  0  0  0  0  0  0  0  0  0  0  0
  189.6580  175.2350  147.2640 C   0  0  0  0  0  1  0  0  0  0  0  0
  187.6380  175.1690  140.6650 C   0  0  0  0  0  3  0  0  0  0  0  0
  186.8120  176.1110  142.7770 C   0  0  0  0  0  3  0  0  0  0  0  0
  191.0520  176.3860  145.5320 C   0  0  0  0  0  2  0  0  0  0  0  0
  193.1020  172.6440  142.9880 C   0  0  1  0  0  3  0  0  0  0  0  0
  191.6840  172.1350  142.7770 C   0  0  0  0  0  2  0  0  0  0  0  0
  187.8330  175.4200  142.0880 C   0  0  0  0  0  0  0  0  0  0  0  0
  191.1940  175.0420  143.3490 C   0  0  0  0  0  0  0  0  0  0  0  0
  188.6430  177.1330  145.9810 C   0  0  0  0  0  2  0  0  0  0  0  0
  189.7110  173.7910  140.0290 C   0  0  0  0  0  0  0  0  0  0  0  0
  190.4420  177.5350  147.6470 C   0  0  0  0  0  1  0  0  0  0  0  0
  193.2830  173.9810  142.4010 N   0  0  0  0  0  2  0  0  0  0  0  0
  192.5750  172.7240  145.3730 O   0  0  0  0  0  1  0  0  0  0  0  0
  192.7170  175.0640  143.2120 C   0  0  2  0  0  3  0  0  0  0  0  0
  188.4400  174.5250  139.8210 C   0  0  0  0  0  3  0  0  0  0  0  0
  191.0770  173.6040  137.9210 C   0  0  0  0  0  3  0  0  0  0  0  0
  190.1570  173.0380  138.8210 C   0  0  0  0  0  0  0  0  0  0  0  0
  189.7140  171.7210  138.5970 C   0  0  0  0  0  3  0  0  0  0  0  0
  189.7020  169.6670  137.2780 N   0  0  0  0  0  1  0  0  0  0  0  0
  191.0660  171.5740  136.5960 C   0  0  0  0  0  3  0  0  0  0  0  0
  190.1610  170.9960  137.4880 C   0  0  0  0  0  0  0  0  0  0  0  0
  191.5270  172.8760  136.8150 C   0  0  0  0  0  3  0  0  0  0  0  0
  194.8700  176.0170  146.3430 O   0  0  0  0  0  1  0  0  0  0  0  0
  195.6750  175.3900  145.3870 C   0  0  0  0  0  2  0  0  0  0  0  0
  2 14  1  0  0  0  0
  2 24  1  0  0  0  0
  3  9  1  0  0  0  0
  4  1  1  0  0  0  0
  4 12  1  0  0  0  0
  4 37  1  0  0  0  0
  5 19  1  0  0  0  0
  6 22  1  0  0  0  0
  7  3  1  0  0  0  0
  7 21  2  0  0  0  0
  8 12  1  0  0  0  0
  8 26  1  1  0  0  0
  9 13  1  0  0  0  0
  9  6  2  0  0  0  0
 10  5  1  0  0  0  0
 10  7  1  0  0  0  0
 11  6  1  0  0  0  0
 13 17  1  0  0  0  0
 15 20  1  0  0  0  0
 16 11  2  0  0  0  0
 17  2  1  0  0  0  0
 18 19  1  1  0  0  0
 18  8  1  0  0  0  0
 20  3  2  0  0  0  0
 20 16  1  0  0  0  0
 21 13  1  0  0  0  0
 22  2  1  0  0  0  0
 23 10  2  0  0  0  0
 25 18  1  0  0  0  0
 25 27  1  0  0  0  0
 27 21  1  0  0  0  0
 27  1  1  1  0  0  0
 28 23  1  0  0  0  0
 28 15  2  0  0  0  0
 29 30  1  0  0  0  0
 30 23  1  0  0  0  0
 31 30  2  0  0  0  0
 32 34  1  0  0  0  0
 33 35  1  0  0  0  0
 33 34  2  0  0  0  0
 34 31  1  0  0  0  0
 35 29  2  0  0  0  0
 37 36  1  0  0  0  0
M  END
>  <MODEL>
9

>  <REMARK>
 VINA RESULT:      -7.6      2.384      6.175
  Name = 
  2 active torsions:
  status: ('A' for Active; 'I' for Inactive)
    1  A    between atoms: N_4  and  C_37
    2  A    between atoms: C_23  and  C_30
                            x       y       z     vdW  Elec       q    Type
                         _______ _______ _______ _____ _____    ______ ____

>  <TORSDO>
F 2

$$$$
