=
 OpenBabel11112416213D

 30 35  0  0  1  0  0  0  0  0999 V2000
  186.2730  177.3880  143.6650 C   0  0  0  0  0  0  0  0  0  0  0  0
  184.5290  178.5270  145.0480 C   0  0  0  0  0  0  0  0  0  0  0  0
  188.3950  176.2180  147.0810 N   0  0  0  0  0  2  0  0  0  0  0  0
  187.4890  176.6440  143.6020 C   0  0  0  0  0  0  0  0  0  0  0  0
  185.6260  177.6950  142.5080 N   0  0  0  0  0  0  0  0  0  0  0  0
  187.6880  176.1230  139.9340 O   0  0  0  0  0  1  0  0  0  0  0  0
  190.4180  176.0050  142.7180 C   0  0  1  0  0  3  0  0  0  0  0  0
  187.2400  176.5410  141.1840 C   0  0  0  0  0  0  0  0  0  0  0  0
  190.6020  175.9760  144.2390 C   0  0  2  0  0  3  0  0  0  0  0  0
  189.5140  175.4980  146.4720 C   0  0  1  0  0  3  0  0  0  0  0  0
  186.0730  177.3030  141.2880 C   0  0  0  0  0  0  0  0  0  0  0  0
  187.9500  176.1950  142.3430 C   0  0  0  0  0  0  0  0  0  0  0  0
  184.0360  178.8640  146.3120 C   0  0  0  0  0  3  0  0  0  0  0  0
  191.6940  174.9570  144.4970 C   0  0  0  0  0  2  0  0  0  0  0  0
  191.6460  175.3380  142.1190 C   0  0  0  0  0  2  0  0  0  0  0  0
  183.8050  178.9420  143.9350 O   0  0  0  0  0  1  0  0  0  0  0  0
  187.6010  176.6930  146.0110 C   0  0  0  0  0  0  0  0  0  0  0  0
  184.7150  178.4790  147.4670 C   0  0  0  0  0  3  0  0  0  0  0  0
  185.7320  177.7860  144.9240 C   0  0  0  0  0  0  0  0  0  0  0  0
  188.1500  176.3600  144.8120 C   0  0  0  0  0  0  0  0  0  0  0  0
  189.4080  174.0230  146.8150 C   0  0  0  0  0  1  0  0  0  0  0  0
  189.3910  175.6780  145.0150 N   0  0  0  0  0  0  0  0  0  0  0  0
  192.5720  175.0090  143.2710 C   0  0  0  0  0  2  0  0  0  0  0  0
  188.9550  174.0600  142.7530 O   0  0  0  0  0  1  0  0  0  0  0  0
  185.9000  177.7540  147.3700 C   0  0  0  0  0  3  0  0  0  0  0  0
  186.4120  177.4080  146.1160 C   0  0  0  0  0  0  0  0  0  0  0  0
  189.1600  175.3230  142.1890 C   0  0  2  0  0  3  0  0  0  0  0  0
  185.3110  177.7040  140.0710 C   0  0  0  0  0  2  0  0  0  0  0  0
  182.8490  177.8360  140.2740 C   0  0  0  0  0  1  0  0  0  0  0  0
  184.1460  178.5940  140.4590 C   0  0  0  0  0  2  0  0  0  0  0  0
  1 19  1  0  0  0  0
  2 13  1  0  0  0  0
  4  1  1  0  0  0  0
  4 20  1  0  0  0  0
  5  1  2  0  0  0  0
  6  8  1  0  0  0  0
  7 15  1  6  0  0  0
  7  9  1  0  0  0  0
  8 11  2  0  0  0  0
  8 12  1  0  0  0  0
  9 14  1  6  0  0  0
  9 22  1  0  0  0  0
 10 21  1  6  0  0  0
 10  3  1  0  0  0  0
 11  5  1  0  0  0  0
 12  4  2  0  0  0  0
 13 18  2  0  0  0  0
 15 23  1  0  0  0  0
 16  2  1  0  0  0  0
 17 26  1  0  0  0  0
 17  3  1  0  0  0  0
 19  2  2  0  0  0  0
 19 26  1  0  0  0  0
 20 22  1  0  0  0  0
 20 17  2  0  0  0  0
 22 10  1  0  0  0  0
 23 14  1  0  0  0  0
 25 18  1  0  0  0  0
 26 25  2  0  0  0  0
 27 12  1  0  0  0  0
 27  7  1  0  0  0  0
 27 24  1  1  0  0  0
 28 30  1  0  0  0  0
 28 11  1  0  0  0  0
 29 30  1  0  0  0  0
M  END
>  <MODEL>
1

>  <REMARK>
 VINA RESULT:      -8.7      0.000      0.000
  Name = 
  2 active torsions:
  status: ('A' for Active; 'I' for Inactive)
    1  A    between atoms: C_11  and  C_28
    2  A    between atoms: C_28  and  C_30
                            x       y       z     vdW  Elec       q    Type
                         _______ _______ _______ _____ _____    ______ ____

>  <TORSDO>
F 2

$$$$
=
 OpenBabel11112416213D

 30 35  0  0  1  0  0  0  0  0999 V2000
  188.0600  177.2170  145.9270 C   0  0  0  0  0  0  0  0  0  0  0  0
  186.2130  178.2910  147.2270 C   0  0  0  0  0  0  0  0  0  0  0  0
  185.7160  177.0990  142.4570 N   0  0  0  0  0  2  0  0  0  0  0  0
  188.5300  176.6710  144.6950 C   0  0  0  0  0  0  0  0  0  0  0  0
  188.8990  177.2520  146.9970 N   0  0  0  0  0  0  0  0  0  0  0  0
  192.0150  175.8680  145.6830 O   0  0  0  0  0  1  0  0  0  0  0  0
  189.7640  174.5150  142.7980 C   0  0  1  0  0  3  0  0  0  0  0  0
  190.6940  176.3030  145.7450 C   0  0  0  0  0  0  0  0  0  0  0  0
  188.4480  174.7790  142.0590 C   0  0  2  0  0  3  0  0  0  0  0  0
  186.6520  176.4750  141.5200 C   0  0  1  0  0  3  0  0  0  0  0  0
  190.1810  176.8110  146.9420 C   0  0  0  0  0  0  0  0  0  0  0  0
  189.8740  176.2420  144.6080 C   0  0  0  0  0  0  0  0  0  0  0  0
  184.9150  178.8100  147.2560 C   0  0  0  0  0  3  0  0  0  0  0  0
  188.7590  174.5690  140.5900 C   0  0  0  0  0  2  0  0  0  0  0  0
  190.6700  173.7790  141.8260 C   0  0  0  0  0  2  0  0  0  0  0  0
  186.9590  178.3360  148.4000 O   0  0  0  0  0  1  0  0  0  0  0  0
  186.3920  177.1750  143.6980 C   0  0  0  0  0  0  0  0  0  0  0  0
  184.1160  178.7950  146.1140 C   0  0  0  0  0  3  0  0  0  0  0  0
  186.7350  177.7380  146.0290 C   0  0  0  0  0  0  0  0  0  0  0  0
  187.6340  176.6270  143.6100 C   0  0  0  0  0  0  0  0  0  0  0  0
  187.0390  177.4830  140.4530 C   0  0  0  0  0  1  0  0  0  0  0  0
  187.8420  176.0950  142.2990 N   0  0  0  0  0  0  0  0  0  0  0  0
  189.8600  173.5380  140.5690 C   0  0  0  0  0  2  0  0  0  0  0  0
  190.5730  176.7730  142.3800 O   0  0  0  0  0  1  0  0  0  0  0  0
  184.6060  178.2550  144.9270 C   0  0  0  0  0  3  0  0  0  0  0  0
  185.9000  177.7270  144.8770 C   0  0  0  0  0  0  0  0  0  0  0  0
  190.4840  175.7510  143.3300 C   0  0  2  0  0  3  0  0  0  0  0  0
  191.0230  176.8660  148.1710 C   0  0  0  0  0  2  0  0  0  0  0  0
  191.5570  178.1750  150.2010 C   0  0  0  0  0  1  0  0  0  0  0  0
  190.8160  178.1900  148.8820 C   0  0  0  0  0  2  0  0  0  0  0  0
  1 19  1  0  0  0  0
  1  5  1  0  0  0  0
  2 13  1  0  0  0  0
  2 16  1  0  0  0  0
  3 17  1  0  0  0  0
  4  1  2  0  0  0  0
  6  8  1  0  0  0  0
  7 15  1  6  0  0  0
  7 27  1  0  0  0  0
  8 11  1  0  0  0  0
  9 14  1  6  0  0  0
  9 22  1  0  0  0  0
  9  7  1  0  0  0  0
 10 21  1  6  0  0  0
 10 22  1  0  0  0  0
 10  3  1  0  0  0  0
 11  5  2  0  0  0  0
 11 28  1  0  0  0  0
 12  4  1  0  0  0  0
 12  8  2  0  0  0  0
 17 26  1  0  0  0  0
 18 13  2  0  0  0  0
 19  2  2  0  0  0  0
 20 17  2  0  0  0  0
 20  4  1  0  0  0  0
 22 20  1  0  0  0  0
 23 14  1  0  0  0  0
 23 15  1  0  0  0  0
 25 18  1  0  0  0  0
 26 25  2  0  0  0  0
 26 19  1  0  0  0  0
 27 24  1  6  0  0  0
 27 12  1  0  0  0  0
 28 30  1  0  0  0  0
 30 29  1  0  0  0  0
M  END
>  <MODEL>
2

>  <REMARK>
 VINA RESULT:      -8.5      2.182      5.286
  Name = 
  2 active torsions:
  status: ('A' for Active; 'I' for Inactive)
    1  A    between atoms: C_11  and  C_28
    2  A    between atoms: C_28  and  C_30
                            x       y       z     vdW  Elec       q    Type
                         _______ _______ _______ _____ _____    ______ ____

>  <TORSDO>
F 2

$$$$
=
 OpenBabel11112416213D

 30 35  0  0  1  0  0  0  0  0999 V2000
  188.5400  175.9920  143.7070 C   0  0  0  0  0  0  0  0  0  0  0  0
  186.2390  176.8260  144.2200 C   0  0  0  0  0  0  0  0  0  0  0  0
  189.9170  177.0790  147.5110 N   0  0  0  0  0  2  0  0  0  0  0  0
  189.8890  175.7930  144.1260 C   0  0  0  0  0  0  0  0  0  0  0  0
  188.1640  175.5750  142.4680 N   0  0  0  0  0  0  0  0  0  0  0  0
  191.2000  174.0450  141.1280 O   0  0  0  0  0  1  0  0  0  0  0  0
  193.0030  176.0130  143.9720 C   0  0  1  0  0  3  0  0  0  0  0  0
  190.3340  174.7020  141.9980 C   0  0  0  0  0  0  0  0  0  0  0  0
  192.7740  176.6300  145.3560 C   0  0  2  0  0  3  0  0  0  0  0  0
  191.3160  176.6580  147.4230 C   0  0  1  0  0  3  0  0  0  0  0  0
  189.0140  174.9510  141.6130 C   0  0  0  0  0  0  0  0  0  0  0  0
  190.7780  175.1100  143.2640 C   0  0  0  0  0  0  0  0  0  0  0  0
  185.3520  177.4040  145.1340 C   0  0  0  0  0  3  0  0  0  0  0  0
  194.0030  176.2720  146.1690 C   0  0  0  0  0  2  0  0  0  0  0  0
  194.4830  175.6810  143.8830 C   0  0  0  0  0  2  0  0  0  0  0  0
  185.7510  176.4880  142.9630 O   0  0  0  0  0  1  0  0  0  0  0  0
  189.3360  176.7830  146.2550 C   0  0  0  0  0  0  0  0  0  0  0  0
  185.7780  177.7660  146.4100 C   0  0  0  0  0  3  0  0  0  0  0  0
  187.5920  176.6020  144.5830 C   0  0  0  0  0  0  0  0  0  0  0  0
  190.2560  176.2540  145.4050 C   0  0  0  0  0  0  0  0  0  0  0  0
  191.5510  175.4970  148.3720 C   0  0  0  0  0  1  0  0  0  0  0  0
  191.5390  176.2170  146.0350 N   0  0  0  0  0  0  0  0  0  0  0  0
  195.1230  176.1820  145.1620 C   0  0  0  0  0  2  0  0  0  0  0  0
  192.2060  173.8310  144.6990 O   0  0  0  0  0  1  0  0  0  0  0  0
  187.1030  177.5570  146.7880 C   0  0  0  0  0  3  0  0  0  0  0  0
  188.0080  176.9840  145.8890 C   0  0  0  0  0  0  0  0  0  0  0  0
  192.1820  174.7660  143.6590 C   0  0  2  0  0  3  0  0  0  0  0  0
  188.5220  174.5490  140.2640 C   0  0  0  0  0  2  0  0  0  0  0  0
  188.5010  172.4520  138.9510 C   0  0  0  0  0  1  0  0  0  0  0  0
  188.1230  173.0850  140.2730 C   0  0  0  0  0  2  0  0  0  0  0  0
  1  4  1  0  0  0  0
  1 19  1  0  0  0  0
  2 19  2  0  0  0  0
  2 13  1  0  0  0  0
  4 20  1  0  0  0  0
  5  1  2  0  0  0  0
  6  8  1  0  0  0  0
  7 15  1  1  0  0  0
  7  9  1  0  0  0  0
  8 12  1  0  0  0  0
  9 22  1  0  0  0  0
  9 14  1  1  0  0  0
 10  3  1  0  0  0  0
 10 21  1  1  0  0  0
 11  8  2  0  0  0  0
 11  5  1  0  0  0  0
 12 27  1  0  0  0  0
 12  4  2  0  0  0  0
 13 18  2  0  0  0  0
 15 23  1  0  0  0  0
 16  2  1  0  0  0  0
 17  3  1  0  0  0  0
 18 25  1  0  0  0  0
 19 26  1  0  0  0  0
 20 22  1  0  0  0  0
 20 17  2  0  0  0  0
 22 10  1  0  0  0  0
 23 14  1  0  0  0  0
 26 17  1  0  0  0  0
 26 25  2  0  0  0  0
 27  7  1  0  0  0  0
 27 24  1  1  0  0  0
 28 30  1  0  0  0  0
 28 11  1  0  0  0  0
 29 30  1  0  0  0  0
M  END
>  <MODEL>
3

>  <REMARK>
 VINA RESULT:      -8.2      2.348      3.415
  Name = 
  2 active torsions:
  status: ('A' for Active; 'I' for Inactive)
    1  A    between atoms: C_11  and  C_28
    2  A    between atoms: C_28  and  C_30
                            x       y       z     vdW  Elec       q    Type
                         _______ _______ _______ _____ _____    ______ ____

>  <TORSDO>
F 2

$$$$
=
 OpenBabel11112416213D

 30 35  0  0  1  0  0  0  0  0999 V2000
  188.0630  175.7610  141.7910 C   0  0  0  0  0  0  0  0  0  0  0  0
  189.7090  174.0440  141.0180 C   0  0  0  0  0  0  0  0  0  0  0  0
  189.2590  175.2930  145.7780 N   0  0  0  0  0  2  0  0  0  0  0  0
  187.4760  176.4950  142.8650 C   0  0  0  0  0  0  0  0  0  0  0  0
  187.6430  176.0010  140.5200 N   0  0  0  0  0  0  0  0  0  0  0  0
  185.1760  178.6660  140.9250 O   0  0  0  0  0  1  0  0  0  0  0  0
  185.1710  177.5830  144.6730 C   0  0  1  0  0  3  0  0  0  0  0  0
  186.1280  177.6990  141.2360 C   0  0  0  0  0  0  0  0  0  0  0  0
  186.0350  176.9100  145.7440 C   0  0  2  0  0  3  0  0  0  0  0  0
  188.3770  176.2560  146.4400 C   0  0  1  0  0  3  0  0  0  0  0  0
  186.7020  176.9310  140.2190 C   0  0  0  0  0  0  0  0  0  0  0  0
  186.5220  177.4940  142.5670 C   0  0  0  0  0  0  0  0  0  0  0  0
  190.7300  173.1410  141.3290 C   0  0  0  0  0  3  0  0  0  0  0  0
  185.8390  177.7340  147.0010 C   0  0  0  0  0  2  0  0  0  0  0  0
  184.2040  178.4980  145.4060 C   0  0  0  0  0  2  0  0  0  0  0  0
  189.3290  174.1660  139.6860 O   0  0  0  0  0  1  0  0  0  0  0  0
  188.9310  175.3380  144.4020 C   0  0  0  0  0  0  0  0  0  0  0  0
  191.1560  172.9720  142.6440 C   0  0  0  0  0  3  0  0  0  0  0  0
  189.0910  174.8030  142.0450 C   0  0  0  0  0  0  0  0  0  0  0  0
  187.9140  176.2110  144.1730 C   0  0  0  0  0  0  0  0  0  0  0  0
  189.2090  177.3980  146.9950 C   0  0  0  0  0  1  0  0  0  0  0  0
  187.4580  176.7670  145.4090 N   0  0  0  0  0  0  0  0  0  0  0  0
  184.4410  178.2910  146.8880 C   0  0  0  0  0  2  0  0  0  0  0  0
  186.8900  179.2320  144.1730 O   0  0  0  0  0  1  0  0  0  0  0  0
  190.5620  173.7040  143.6690 C   0  0  0  0  0  3  0  0  0  0  0  0
  189.5380  174.6110  143.3820 C   0  0  0  0  0  0  0  0  0  0  0  0
  185.9280  178.3840  143.6180 C   0  0  2  0  0  3  0  0  0  0  0  0
  186.2850  177.1110  138.7980 C   0  0  0  0  0  2  0  0  0  0  0  0
  186.2650  176.0410  136.5680 C   0  0  0  0  0  1  0  0  0  0  0  0
  186.9200  176.0400  137.9320 C   0  0  0  0  0  2  0  0  0  0  0  0
  1 19  2  0  0  0  0
  1  4  1  0  0  0  0
  2 13  2  0  0  0  0
  2 19  1  0  0  0  0
  3 10  1  0  0  0  0
  4 20  2  0  0  0  0
  5  1  1  0  0  0  0
  6  8  1  0  0  0  0
  7 15  1  1  0  0  0
  7  9  1  0  0  0  0
  8 12  2  0  0  0  0
  9 14  1  1  0  0  0
 10 21  1  6  0  0  0
 11  5  2  0  0  0  0
 11  8  1  0  0  0  0
 12  4  1  0  0  0  0
 12 27  1  0  0  0  0
 13 18  1  0  0  0  0
 15 23  1  0  0  0  0
 16  2  1  0  0  0  0
 17  3  1  0  0  0  0
 18 25  2  0  0  0  0
 19 26  1  0  0  0  0
 20 17  1  0  0  0  0
 20 22  1  0  0  0  0
 22  9  1  0  0  0  0
 22 10  1  0  0  0  0
 23 14  1  0  0  0  0
 26 25  1  0  0  0  0
 26 17  2  0  0  0  0
 27 24  1  1  0  0  0
 27  7  1  0  0  0  0
 28 11  1  0  0  0  0
 29 30  1  0  0  0  0
 30 28  1  0  0  0  0
M  END
>  <MODEL>
4

>  <REMARK>
 VINA RESULT:      -8.2      1.892      5.440
  Name = 
  2 active torsions:
  status: ('A' for Active; 'I' for Inactive)
    1  A    between atoms: C_11  and  C_28
    2  A    between atoms: C_28  and  C_30
                            x       y       z     vdW  Elec       q    Type
                         _______ _______ _______ _____ _____    ______ ____

>  <TORSDO>
F 2

$$$$
=
 OpenBabel11112416213D

 30 35  0  0  1  0  0  0  0  0999 V2000
  187.9920  175.9500  141.9180 C   0  0  0  0  0  0  0  0  0  0  0  0
  186.1900  177.6720  141.7130 C   0  0  0  0  0  0  0  0  0  0  0  0
  188.6280  176.9170  145.9440 N   0  0  0  0  0  2  0  0  0  0  0  0
  188.9750  175.3010  142.7230 C   0  0  0  0  0  0  0  0  0  0  0  0
  187.8220  175.5490  140.6290 N   0  0  0  0  0  0  0  0  0  0  0  0
  190.1990  172.7960  140.2740 O   0  0  0  0  0  1  0  0  0  0  0  0
  191.8230  174.2730  143.4990 C   0  0  1  0  0  3  0  0  0  0  0  0
  189.4820  173.8480  140.8380 C   0  0  0  0  0  0  0  0  0  0  0  0
  191.5090  175.1090  144.7430 C   0  0  2  0  0  3  0  0  0  0  0  0
  189.6990  175.9780  146.2820 C   0  0  1  0  0  3  0  0  0  0  0  0
  188.5340  174.5360  140.0740 C   0  0  0  0  0  0  0  0  0  0  0  0
  189.7000  174.2180  142.1730 C   0  0  0  0  0  0  0  0  0  0  0  0
  185.4100  178.6650  142.3130 C   0  0  0  0  0  3  0  0  0  0  0  0
  192.2180  174.4150  145.8890 C   0  0  0  0  0  2  0  0  0  0  0  0
  193.0020  173.3840  143.8580 C   0  0  0  0  0  2  0  0  0  0  0  0
  185.9600  177.3850  140.3720 O   0  0  0  0  0  1  0  0  0  0  0  0
  188.3330  176.7040  144.5770 C   0  0  0  0  0  0  0  0  0  0  0  0
  185.5920  179.0010  143.6530 C   0  0  0  0  0  3  0  0  0  0  0  0
  187.1820  176.9910  142.4650 C   0  0  0  0  0  0  0  0  0  0  0  0
  189.1450  175.7500  144.0460 C   0  0  0  0  0  0  0  0  0  0  0  0
  189.1750  174.9560  147.2740 C   0  0  0  0  0  1  0  0  0  0  0  0
  190.0820  175.3030  145.0290 N   0  0  0  0  0  0  0  0  0  0  0  0
  193.4260  173.7640  145.2620 C   0  0  0  0  0  2  0  0  0  0  0  0
  190.0390  172.6890  143.9850 O   0  0  0  0  0  1  0  0  0  0  0  0
  186.5610  178.3470  144.4110 C   0  0  0  0  0  3  0  0  0  0  0  0
  187.3540  177.3530  143.8300 C   0  0  0  0  0  0  0  0  0  0  0  0
  190.6790  173.4120  142.9730 C   0  0  2  0  0  3  0  0  0  0  0  0
  188.2990  174.1790  138.6460 C   0  0  0  0  0  2  0  0  0  0  0  0
  187.7890  175.3150  136.5090 C   0  0  0  0  0  1  0  0  0  0  0  0
  187.4450  175.2410  137.9800 C   0  0  0  0  0  2  0  0  0  0  0  0
  1 19  2  0  0  0  0
  1  4  1  0  0  0  0
  2 13  2  0  0  0  0
  2 19  1  0  0  0  0
  3 10  1  0  0  0  0
  4 20  2  0  0  0  0
  5  1  1  0  0  0  0
  6  8  1  0  0  0  0
  7 15  1  1  0  0  0
  7  9  1  0  0  0  0
  8 12  2  0  0  0  0
  9 22  1  0  0  0  0
  9 14  1  1  0  0  0
 10 21  1  1  0  0  0
 11  5  2  0  0  0  0
 11  8  1  0  0  0  0
 12  4  1  0  0  0  0
 12 27  1  0  0  0  0
 13 18  1  0  0  0  0
 15 23  1  0  0  0  0
 16  2  1  0  0  0  0
 17  3  1  0  0  0  0
 18 25  2  0  0  0  0
 19 26  1  0  0  0  0
 20 17  1  0  0  0  0
 20 22  1  0  0  0  0
 22 10  1  0  0  0  0
 23 14  1  0  0  0  0
 26 25  1  0  0  0  0
 26 17  2  0  0  0  0
 27  7  1  0  0  0  0
 27 24  1  1  0  0  0
 28 11  1  0  0  0  0
 29 30  1  0  0  0  0
 30 28  1  0  0  0  0
M  END
>  <MODEL>
5

>  <REMARK>
 VINA RESULT:      -7.8      2.043      3.221
  Name = 
  2 active torsions:
  status: ('A' for Active; 'I' for Inactive)
    1  A    between atoms: C_11  and  C_28
    2  A    between atoms: C_28  and  C_30
                            x       y       z     vdW  Elec       q    Type
                         _______ _______ _______ _____ _____    ______ ____

>  <TORSDO>
F 2

$$$$
=
 OpenBabel11112416213D

 30 35  0  0  1  0  0  0  0  0999 V2000
  188.3000  175.8450  141.9060 C   0  0  0  0  0  0  0  0  0  0  0  0
  186.6580  176.9870  140.4040 C   0  0  0  0  0  0  0  0  0  0  0  0
  187.0190  178.0780  145.2110 N   0  0  0  0  0  2  0  0  0  0  0  0
  188.8690  175.6970  143.2060 C   0  0  0  0  0  0  0  0  0  0  0  0
  188.7470  175.0530  140.8940 N   0  0  0  0  0  0  0  0  0  0  0  0
  191.2240  172.9130  142.5190 O   0  0  0  0  0  1  0  0  0  0  0  0
  191.1440  175.5990  145.3470 C   0  0  1  0  0  3  0  0  0  0  0  0
  190.2590  173.9000  142.3350 C   0  0  0  0  0  0  0  0  0  0  0  0
  190.2540  176.6770  145.9740 C   0  0  2  0  0  3  0  0  0  0  0  0
  187.8930  177.5410  146.2550 C   0  0  1  0  0  3  0  0  0  0  0  0
  189.7010  174.1040  141.0700 C   0  0  0  0  0  0  0  0  0  0  0  0
  189.8370  174.6880  143.4160 C   0  0  0  0  0  0  0  0  0  0  0  0
  185.6250  177.9170  140.2480 C   0  0  0  0  0  3  0  0  0  0  0  0
  190.4290  176.5280  147.4720 C   0  0  0  0  0  2  0  0  0  0  0  0
  192.1020  175.1400  146.4330 C   0  0  0  0  0  2  0  0  0  0  0  0
  187.0660  176.2720  139.2840 O   0  0  0  0  0  1  0  0  0  0  0  0
  187.3750  177.4090  144.0160 C   0  0  0  0  0  0  0  0  0  0  0  0
  185.1710  178.6660  141.3310 C   0  0  0  0  0  3  0  0  0  0  0  0
  187.2600  176.7960  141.6750 C   0  0  0  0  0  0  0  0  0  0  0  0
  188.4030  176.5450  144.2290 C   0  0  0  0  0  0  0  0  0  0  0  0
  187.0580  176.7700  147.2610 C   0  0  0  0  0  1  0  0  0  0  0  0
  188.8370  176.6270  145.5890 N   0  0  0  0  0  0  0  0  0  0  0  0
  191.8330  176.0030  147.6490 C   0  0  0  0  0  2  0  0  0  0  0  0
  189.4470  173.8790  145.6360 O   0  0  0  0  0  1  0  0  0  0  0  0
  185.7490  178.4970  142.5880 C   0  0  0  0  0  3  0  0  0  0  0  0
  186.7850  177.5750  142.7660 C   0  0  0  0  0  0  0  0  0  0  0  0
  190.4150  174.3910  144.7670 C   0  0  2  0  0  3  0  0  0  0  0  0
  190.1480  173.2970  139.8990 C   0  0  0  0  0  2  0  0  0  0  0  0
  189.3600  173.7890  137.6060 C   0  0  0  0  0  1  0  0  0  0  0  0
  189.0020  173.1270  138.9190 C   0  0  0  0  0  2  0  0  0  0  0  0
  1  4  1  0  0  0  0
  2 19  1  0  0  0  0
  3 10  1  0  0  0  0
  4 12  1  0  0  0  0
  4 20  2  0  0  0  0
  5 11  2  0  0  0  0
  5  1  1  0  0  0  0
  7  9  1  0  0  0  0
  7 15  1  1  0  0  0
  8  6  1  0  0  0  0
  8 12  2  0  0  0  0
  9 14  1  1  0  0  0
 10 21  1  1  0  0  0
 11  8  1  0  0  0  0
 12 27  1  0  0  0  0
 13  2  2  0  0  0  0
 13 18  1  0  0  0  0
 14 23  1  0  0  0  0
 15 23  1  0  0  0  0
 16  2  1  0  0  0  0
 17 20  1  0  0  0  0
 17  3  1  0  0  0  0
 18 25  2  0  0  0  0
 19  1  2  0  0  0  0
 19 26  1  0  0  0  0
 20 22  1  0  0  0  0
 22  9  1  0  0  0  0
 22 10  1  0  0  0  0
 25 26  1  0  0  0  0
 26 17  2  0  0  0  0
 27  7  1  0  0  0  0
 27 24  1  1  0  0  0
 28 11  1  0  0  0  0
 29 30  1  0  0  0  0
 30 28  1  0  0  0  0
M  END
>  <MODEL>
6

>  <REMARK>
 VINA RESULT:      -7.8      2.146      4.417
  Name = 
  2 active torsions:
  status: ('A' for Active; 'I' for Inactive)
    1  A    between atoms: C_11  and  C_28
    2  A    between atoms: C_28  and  C_30
                            x       y       z     vdW  Elec       q    Type
                         _______ _______ _______ _____ _____    ______ ____

>  <TORSDO>
F 2

$$$$
=
 OpenBabel11112416213D

 30 35  0  0  1  0  0  0  0  0999 V2000
  189.1880  175.6390  142.9440 C   0  0  0  0  0  0  0  0  0  0  0  0
  186.9980  176.8420  142.8330 C   0  0  0  0  0  0  0  0  0  0  0  0
  190.0050  177.2190  146.7370 N   0  0  0  0  0  2  0  0  0  0  0  0
  190.3870  175.3480  143.6600 C   0  0  0  0  0  0  0  0  0  0  0  0
  188.9830  175.0540  141.7330 N   0  0  0  0  0  0  0  0  0  0  0  0
  191.9230  172.9270  141.3060 O   0  0  0  0  0  1  0  0  0  0  0  0
  193.4710  175.1340  144.1250 C   0  0  1  0  0  3  0  0  0  0  0  0
  191.0310  173.8380  141.8650 C   0  0  0  0  0  0  0  0  0  0  0  0
  193.0960  176.0190  145.3190 C   0  0  2  0  0  3  0  0  0  0  0  0
  191.3090  176.6120  147.0080 C   0  0  1  0  0  3  0  0  0  0  0  0
  189.8610  174.1800  141.1800 C   0  0  0  0  0  0  0  0  0  0  0  0
  191.2960  174.4110  143.1170 C   0  0  0  0  0  0  0  0  0  0  0  0
  186.0650  177.6860  143.4430 C   0  0  0  0  0  3  0  0  0  0  0  0
  194.0810  175.6600  146.4140 C   0  0  0  0  0  2  0  0  0  0  0  0
  194.8690  174.6050  144.3970 C   0  0  0  0  0  2  0  0  0  0  0  0
  186.7000  176.3450  141.5700 O   0  0  0  0  0  1  0  0  0  0  0  0
  189.6220  176.7740  145.4490 C   0  0  0  0  0  0  0  0  0  0  0  0
  186.3040  178.2180  144.7080 C   0  0  0  0  0  3  0  0  0  0  0  0
  188.2080  176.5160  143.5000 C   0  0  0  0  0  0  0  0  0  0  0  0
  190.5840  175.9850  144.9010 C   0  0  0  0  0  0  0  0  0  0  0  0
  191.1750  175.6240  148.1530 C   0  0  0  0  0  1  0  0  0  0  0  0
  191.7080  175.8990  145.7810 N   0  0  0  0  0  0  0  0  0  0  0  0
  195.3370  175.2450  145.6880 C   0  0  0  0  0  2  0  0  0  0  0  0
  192.2110  173.2430  144.9970 O   0  0  0  0  0  1  0  0  0  0  0  0
  187.4860  177.9130  145.3800 C   0  0  0  0  0  3  0  0  0  0  0  0
  188.4340  177.0740  144.7890 C   0  0  0  0  0  0  0  0  0  0  0  0
  192.5300  173.9670  143.8440 C   0  0  2  0  0  3  0  0  0  0  0  0
  189.5650  173.6040  139.8370 C   0  0  0  0  0  2  0  0  0  0  0  0
  188.3130  174.1710  137.7800 C   0  0  0  0  0  1  0  0  0  0  0  0
  188.2770  174.1910  139.2930 C   0  0  0  0  0  2  0  0  0  0  0  0
  1 19  2  0  0  0  0
  1  4  1  0  0  0  0
  2 13  2  0  0  0  0
  2 19  1  0  0  0  0
  3 10  1  0  0  0  0
  4 20  2  0  0  0  0
  5  1  1  0  0  0  0
  6  8  1  0  0  0  0
  7 15  1  1  0  0  0
  7  9  1  0  0  0  0
  8 12  2  0  0  0  0
  9 22  1  0  0  0  0
  9 14  1  1  0  0  0
 10 21  1  1  0  0  0
 11  5  2  0  0  0  0
 11  8  1  0  0  0  0
 12  4  1  0  0  0  0
 12 27  1  0  0  0  0
 13 18  1  0  0  0  0
 15 23  1  0  0  0  0
 16  2  1  0  0  0  0
 17  3  1  0  0  0  0
 18 25  2  0  0  0  0
 19 26  1  0  0  0  0
 20 17  1  0  0  0  0
 20 22  1  0  0  0  0
 22 10  1  0  0  0  0
 23 14  1  0  0  0  0
 26 25  1  0  0  0  0
 26 17  2  0  0  0  0
 27  7  1  0  0  0  0
 27 24  1  1  0  0  0
 28 11  1  0  0  0  0
 29 30  1  0  0  0  0
 30 28  1  0  0  0  0
M  END
>  <MODEL>
7

>  <REMARK>
 VINA RESULT:      -7.8      2.375      3.911
  Name = 
  2 active torsions:
  status: ('A' for Active; 'I' for Inactive)
    1  A    between atoms: C_11  and  C_28
    2  A    between atoms: C_28  and  C_30
                            x       y       z     vdW  Elec       q    Type
                         _______ _______ _______ _____ _____    ______ ____

>  <TORSDO>
F 2

$$$$
=
 OpenBabel11112416213D

 30 35  0  0  1  0  0  0  0  0999 V2000
  188.9580  176.3310  144.9070 C   0  0  0  0  0  0  0  0  0  0  0  0
  190.1640  176.9290  147.0150 C   0  0  0  0  0  0  0  0  0  0  0  0
  191.7360  173.3210  144.0260 N   0  0  0  0  0  2  0  0  0  0  0  0
  188.8740  175.5210  143.7350 C   0  0  0  0  0  0  0  0  0  0  0  0
  187.9930  177.2610  145.1380 N   0  0  0  0  0  0  0  0  0  0  0  0
  185.6920  176.8150  142.3350 O   0  0  0  0  0  1  0  0  0  0  0  0
  188.6670  174.9160  140.6750 C   0  0  1  0  0  3  0  0  0  0  0  0
  186.7900  176.6440  143.1720 C   0  0  0  0  0  0  0  0  0  0  0  0
  189.9380  174.1250  141.0040 C   0  0  2  0  0  3  0  0  0  0  0  0
  191.1930  172.8130  142.7650 C   0  0  1  0  0  3  0  0  0  0  0  0
  186.9320  177.4410  144.3120 C   0  0  0  0  0  0  0  0  0  0  0  0
  187.7560  175.6680  142.8830 C   0  0  0  0  0  0  0  0  0  0  0  0
  191.2210  176.6880  147.8980 C   0  0  0  0  0  3  0  0  0  0  0  0
  189.9390  172.9440  140.0540 C   0  0  0  0  0  2  0  0  0  0  0  0
  188.1920  174.4300  139.3160 C   0  0  0  0  0  2  0  0  0  0  0  0
  189.2670  177.9430  147.3320 O   0  0  0  0  0  1  0  0  0  0  0  0
  190.8840  174.3790  144.4240 C   0  0  0  0  0  0  0  0  0  0  0  0
  192.1530  175.6870  147.6370 C   0  0  0  0  0  3  0  0  0  0  0  0
  190.0290  176.1530  145.8350 C   0  0  0  0  0  0  0  0  0  0  0  0
  189.8990  174.5820  143.5090 C   0  0  0  0  0  0  0  0  0  0  0  0
  190.6870  171.3970  142.9720 C   0  0  0  0  0  1  0  0  0  0  0  0
  190.0690  173.6940  142.4010 N   0  0  0  0  0  0  0  0  0  0  0  0
  189.2220  173.4360  138.8210 C   0  0  0  0  0  2  0  0  0  0  0  0
  187.2840  173.4690  142.0600 O   0  0  0  0  0  1  0  0  0  0  0  0
  192.0420  174.9140  146.4830 C   0  0  0  0  0  3  0  0  0  0  0  0
  190.9950  175.1400  145.5850 C   0  0  0  0  0  0  0  0  0  0  0  0
  187.5310  174.7930  141.6860 C   0  0  2  0  0  3  0  0  0  0  0  0
  185.9330  178.5010  144.6310 C   0  0  0  0  0  2  0  0  0  0  0  0
  184.4410  178.2470  146.5880 C   0  0  0  0  0  1  0  0  0  0  0  0
  185.8210  178.6720  146.1340 C   0  0  0  0  0  2  0  0  0  0  0  0
  1  5  1  0  0  0  0
  1 19  1  0  0  0  0
  2 16  1  0  0  0  0
  2 13  1  0  0  0  0
  3 17  1  0  0  0  0
  4  1  2  0  0  0  0
  6  8  1  0  0  0  0
  7 15  1  6  0  0  0
  7  9  1  0  0  0  0
  7 27  1  0  0  0  0
  8 11  1  0  0  0  0
  9 14  1  6  0  0  0
  9 22  1  0  0  0  0
 10 21  1  1  0  0  0
 10  3  1  0  0  0  0
 11 28  1  0  0  0  0
 11  5  2  0  0  0  0
 12  8  2  0  0  0  0
 12  4  1  0  0  0  0
 17 26  1  0  0  0  0
 18 13  2  0  0  0  0
 19  2  2  0  0  0  0
 20  4  1  0  0  0  0
 20 17  2  0  0  0  0
 22 10  1  0  0  0  0
 22 20  1  0  0  0  0
 23 15  1  0  0  0  0
 23 14  1  0  0  0  0
 25 18  1  0  0  0  0
 26 19  1  0  0  0  0
 26 25  2  0  0  0  0
 27 24  1  1  0  0  0
 27 12  1  0  0  0  0
 28 30  1  0  0  0  0
 30 29  1  0  0  0  0
M  END
>  <MODEL>
8

>  <REMARK>
 VINA RESULT:      -7.7      2.454      4.733
  Name = 
  2 active torsions:
  status: ('A' for Active; 'I' for Inactive)
    1  A    between atoms: C_11  and  C_28
    2  A    between atoms: C_28  and  C_30
                            x       y       z     vdW  Elec       q    Type
                         _______ _______ _______ _____ _____    ______ ____

>  <TORSDO>
F 2

$$$$
=
 OpenBabel11112416213D

 30 35  0  0  1  0  0  0  0  0999 V2000
  188.9020  174.2550  141.7300 C   0  0  0  0  0  0  0  0  0  0  0  0
  190.3120  172.1980  141.9180 C   0  0  0  0  0  0  0  0  0  0  0  0
  189.4390  175.1450  145.7880 N   0  0  0  0  0  2  0  0  0  0  0  0
  188.3120  175.3930  142.3560 C   0  0  0  0  0  0  0  0  0  0  0  0
  188.7090  174.0590  140.3980 N   0  0  0  0  0  0  0  0  0  0  0  0
  186.7160  176.9510  139.3910 O   0  0  0  0  0  1  0  0  0  0  0  0
  186.0070  177.3240  143.2090 C   0  0  1  0  0  3  0  0  0  0  0  0
  187.4320  176.0630  140.1890 C   0  0  0  0  0  0  0  0  0  0  0  0
  186.5840  176.9960  144.5890 C   0  0  2  0  0  3  0  0  0  0  0  0
  188.6580  176.3780  145.9000 C   0  0  1  0  0  3  0  0  0  0  0  0
  187.9960  174.9160  139.6240 C   0  0  0  0  0  0  0  0  0  0  0  0
  187.5970  176.3160  141.5590 C   0  0  0  0  0  0  0  0  0  0  0  0
  191.1060  171.3600  142.7080 C   0  0  0  0  0  3  0  0  0  0  0  0
  186.3650  178.2390  145.4280 C   0  0  0  0  0  2  0  0  0  0  0  0
  185.1240  178.5480  143.3870 C   0  0  0  0  0  2  0  0  0  0  0  0
  190.1460  171.8660  140.5790 O   0  0  0  0  0  1  0  0  0  0  0  0
  189.3160  174.7210  144.4440 C   0  0  0  0  0  0  0  0  0  0  0  0
  191.3110  171.6370  144.0580 C   0  0  0  0  0  3  0  0  0  0  0  0
  189.7010  173.3460  142.4870 C   0  0  0  0  0  0  0  0  0  0  0  0
  188.5090  175.5590  143.7400 C   0  0  0  0  0  0  0  0  0  0  0  0
  189.5930  177.5410  146.1800 C   0  0  0  0  0  1  0  0  0  0  0  0
  187.9920  176.5780  144.6010 N   0  0  0  0  0  0  0  0  0  0  0  0
  185.1160  178.8720  144.8670 C   0  0  0  0  0  2  0  0  0  0  0  0
  188.0410  178.4670  142.5140 O   0  0  0  0  0  1  0  0  0  0  0  0
  190.7200  172.7570  144.6380 C   0  0  0  0  0  3  0  0  0  0  0  0
  189.9200  173.6070  143.8680 C   0  0  0  0  0  0  0  0  0  0  0  0
  187.0300  177.5900  142.1090 C   0  0  2  0  0  3  0  0  0  0  0  0
  187.8160  174.6100  138.1760 C   0  0  0  0  0  2  0  0  0  0  0  0
  189.8120  173.7700  136.9790 C   0  0  0  0  0  1  0  0  0  0  0  0
  188.6090  173.3710  137.8060 C   0  0  0  0  0  2  0  0  0  0  0  0
  1  4  1  0  0  0  0
  1 19  1  0  0  0  0
  2 19  2  0  0  0  0
  2 13  1  0  0  0  0
  3 10  1  0  0  0  0
  4 20  1  0  0  0  0
  5  1  2  0  0  0  0
  6  8  1  0  0  0  0
  7 15  1  1  0  0  0
  7  9  1  0  0  0  0
  8 12  1  0  0  0  0
  9 22  1  0  0  0  0
  9 14  1  1  0  0  0
 10 21  1  6  0  0  0
 11  8  2  0  0  0  0
 11  5  1  0  0  0  0
 12 27  1  0  0  0  0
 12  4  2  0  0  0  0
 13 18  2  0  0  0  0
 15 23  1  0  0  0  0
 16  2  1  0  0  0  0
 17  3  1  0  0  0  0
 18 25  1  0  0  0  0
 19 26  1  0  0  0  0
 20 17  2  0  0  0  0
 20 22  1  0  0  0  0
 22 10  1  0  0  0  0
 23 14  1  0  0  0  0
 26 17  1  0  0  0  0
 26 25  2  0  0  0  0
 27 24  1  1  0  0  0
 27  7  1  0  0  0  0
 28 11  1  0  0  0  0
 29 30  1  0  0  0  0
 30 28  1  0  0  0  0
M  END
>  <MODEL>
9

>  <REMARK>
 VINA RESULT:      -7.4      2.587      5.834
  Name = 
  2 active torsions:
  status: ('A' for Active; 'I' for Inactive)
    1  A    between atoms: C_11  and  C_28
    2  A    between atoms: C_28  and  C_30
                            x       y       z     vdW  Elec       q    Type
                         _______ _______ _______ _____ _____    ______ ____

>  <TORSDO>
F 2

$$$$
