=
 OpenBabel11112416553D

 31 35  0  0  1  0  0  0  0  0999 V2000
  184.6360  178.5060  146.1780 C   0  0  0  0  0  0  0  0  0  0  0  0
  187.2600  177.1980  143.8150 C   0  0  0  0  0  0  0  0  0  0  0  0
  186.7410  177.3260  142.4930 C   0  0  0  0  0  0  0  0  0  0  0  0
  190.6660  176.0190  147.6680 O   0  0  0  0  0  0  0  0  0  0  0  0
  191.1690  175.7080  146.5560 C   0  0  0  0  0  0  0  0  0  0  0  0
  185.0000  177.9630  140.9030 C   0  0  0  0  0  0  0  0  0  0  0  0
  186.5680  177.5830  145.0030 C   0  0  0  0  0  0  0  0  0  0  0  0
  185.2750  178.3180  147.4020 C   0  0  0  0  0  3  0  0  0  0  0  0
  185.4690  177.8570  142.2140 C   0  0  0  0  0  3  0  0  0  0  0  0
  189.1340  176.4880  145.2200 C   0  0  0  0  0  0  0  0  0  0  0  0
  183.3920  179.0400  146.1380 F   0  0  0  0  0  0  0  0  0  0  0  0
  188.7670  176.3860  141.6220 N   0  0  0  0  0  0  0  0  0  0  0  0
  183.4120  178.6280  140.5940 Cl  0  0  0  0  0  0  0  0  0  0  0  0
  188.4460  176.8670  146.3260 N   0  0  0  0  0  0  0  0  0  0  0  0
  188.5600  176.6450  143.9520 C   0  0  0  0  0  0  0  0  0  0  0  0
  190.4490  175.9270  145.3360 N   0  0  0  0  0  2  0  0  0  0  0  0
  185.2780  178.1410  144.9930 C   0  0  0  0  0  3  0  0  0  0  0  0
  185.7980  177.5410  139.8400 C   0  0  0  0  0  3  0  0  0  0  0  0
  187.2020  177.4000  146.2570 C   0  0  0  0  0  0  0  0  0  0  0  0
  186.5550  177.7660  147.4410 C   0  0  0  0  0  3  0  0  0  0  0  0
  189.2600  176.2620  142.8520 N   0  0  0  0  0  0  0  0  0  0  0  0
  187.5360  176.9030  141.4010 C   0  0  0  0  0  0  0  0  0  0  0  0
  187.0650  177.0110  140.0900 C   0  0  0  0  0  3  0  0  0  0  0  0
  194.0230  175.7900  144.0630 C   0  0  1  0  0  3  0  0  0  0  0  0
  193.6370  176.1780  146.5140 C   0  0  0  0  0  2  0  0  0  0  0  0
  191.7140  173.1570  145.3570 O   0  0  0  0  0  1  0  0  0  0  0  0
  194.1240  176.4160  142.8210 O   0  0  0  0  0  1  0  0  0  0  0  0
  193.7640  176.8400  145.1400 C   0  0  0  0  0  2  0  0  0  0  0  0
  192.7510  174.0910  145.3880 C   0  0  2  0  0  3  0  0  0  0  0  0
  192.5440  175.1050  146.5250 C   0  0  2  0  0  3  0  0  0  0  0  0
  192.8830  174.7760  144.0290 C   0  0  0  0  0  2  0  0  0  0  0  0
  1  8  1  0  0  0  0
  2 15  1  0  0  0  0
  2  7  1  0  0  0  0
  3  2  2  0  0  0  0
  5  4  2  0  0  0  0
  6  9  2  0  0  0  0
  7 19  2  0  0  0  0
  8 20  2  0  0  0  0
  9  3  1  0  0  0  0
 10 16  1  0  0  0  0
 10 14  2  0  0  0  0
 11  1  1  0  0  0  0
 12 21  1  0  0  0  0
 13  6  1  0  0  0  0
 15 10  1  0  0  0  0
 16  5  1  0  0  0  0
 17  7  1  0  0  0  0
 17  1  2  0  0  0  0
 18 23  2  0  0  0  0
 18  6  1  0  0  0  0
 19 14  1  0  0  0  0
 19 20  1  0  0  0  0
 21 15  2  0  0  0  0
 22 12  2  0  0  0  0
 22  3  1  0  0  0  0
 23 22  1  0  0  0  0
 24 27  1  6  0  0  0
 24 28  1  0  0  0  0
 25 30  1  0  0  0  0
 28 25  1  0  0  0  0
 29 26  1  6  0  0  0
 29 30  1  0  0  0  0
 30  5  1  6  0  0  0
 31 24  1  0  0  0  0
 31 29  1  0  0  0  0
M  END
>  <MODEL>
1

>  <REMARK>
 VINA RESULT:      -9.9      0.000      0.000
  Name = 
  1 active torsions:
  status: ('A' for Active; 'I' for Inactive)
    1  A    between atoms: C_5  and  C_30
                            x       y       z     vdW  Elec       q    Type
                         _______ _______ _______ _____ _____    ______ ____

>  <TORSDO>
F 1

$$$$
=
 OpenBabel11112416553D

 31 35  0  0  1  0  0  0  0  0999 V2000
  184.9620  178.0510  146.8630 C   0  0  0  0  0  0  0  0  0  0  0  0
  186.9290  177.6740  143.6740 C   0  0  0  0  0  0  0  0  0  0  0  0
  186.0190  177.8540  142.5910 C   0  0  0  0  0  0  0  0  0  0  0  0
  191.4950  176.7910  146.1660 O   0  0  0  0  0  0  0  0  0  0  0  0
  191.6830  176.7450  144.9220 C   0  0  0  0  0  0  0  0  0  0  0  0
  183.7950  178.2910  141.6820 C   0  0  0  0  0  0  0  0  0  0  0  0
  186.5750  177.7390  145.0550 C   0  0  0  0  0  0  0  0  0  0  0  0
  185.9640  177.8530  147.8100 C   0  0  0  0  0  3  0  0  0  0  0  0
  184.6500  178.1220  142.7720 C   0  0  0  0  0  3  0  0  0  0  0  0
  189.2350  177.2210  144.3590 C   0  0  0  0  0  0  0  0  0  0  0  0
  183.6910  178.2980  147.2630 F   0  0  0  0  0  0  0  0  0  0  0  0
  187.8160  177.5070  141.0430 N   0  0  0  0  0  0  0  0  0  0  0  0
  182.0980  178.6210  141.9470 Cl  0  0  0  0  0  0  0  0  0  0  0  0
  188.8610  177.2920  145.6610 N   0  0  0  0  0  0  0  0  0  0  0  0
  188.2840  177.4100  143.3480 C   0  0  0  0  0  0  0  0  0  0  0  0
  190.6000  176.9550  144.0060 N   0  0  0  0  0  2  0  0  0  0  0  0
  185.2660  177.9950  145.5010 C   0  0  0  0  0  3  0  0  0  0  0  0
  184.2930  178.1960  140.3830 C   0  0  0  0  0  3  0  0  0  0  0  0
  187.5820  177.5410  146.0340 C   0  0  0  0  0  0  0  0  0  0  0  0
  187.2710  177.5980  147.3950 C   0  0  0  0  0  3  0  0  0  0  0  0
  188.6730  177.3370  142.0460 N   0  0  0  0  0  0  0  0  0  0  0  0
  186.5060  177.7620  141.2650 C   0  0  0  0  0  0  0  0  0  0  0  0
  185.6470  177.9320  140.1750 C   0  0  0  0  0  3  0  0  0  0  0  0
  193.9930  173.7430  145.0540 C   0  0  1  0  0  3  0  0  0  0  0  0
  193.0730  175.3510  143.3600 C   0  0  0  0  0  2  0  0  0  0  0  0
  194.0400  177.1840  146.5020 O   0  0  0  0  0  1  0  0  0  0  0  0
  193.8170  172.4880  145.6340 O   0  0  0  0  0  1  0  0  0  0  0  0
  192.9100  173.9740  144.0050 C   0  0  0  0  0  2  0  0  0  0  0  0
  194.0990  176.2000  145.5130 C   0  0  2  0  0  3  0  0  0  0  0  0
  193.0660  176.4700  144.4060 C   0  0  2  0  0  3  0  0  0  0  0  0
  193.9200  174.8170  146.1350 C   0  0  0  0  0  2  0  0  0  0  0  0
  1 11  1  0  0  0  0
  1  8  1  0  0  0  0
  2  7  1  0  0  0  0
  3  9  1  0  0  0  0
  3  2  2  0  0  0  0
  5  4  2  0  0  0  0
  6 13  1  0  0  0  0
  6  9  2  0  0  0  0
  7 17  1  0  0  0  0
  7 19  2  0  0  0  0
 10 14  2  0  0  0  0
 12 22  2  0  0  0  0
 12 21  1  0  0  0  0
 14 19  1  0  0  0  0
 15  2  1  0  0  0  0
 15 10  1  0  0  0  0
 16 10  1  0  0  0  0
 16  5  1  0  0  0  0
 17  1  2  0  0  0  0
 18  6  1  0  0  0  0
 19 20  1  0  0  0  0
 20  8  2  0  0  0  0
 21 15  2  0  0  0  0
 22  3  1  0  0  0  0
 23 18  2  0  0  0  0
 23 22  1  0  0  0  0
 24 27  1  1  0  0  0
 24 31  1  0  0  0  0
 25 28  1  0  0  0  0
 25 30  1  0  0  0  0
 28 24  1  0  0  0  0
 29 31  1  0  0  0  0
 29 26  1  1  0  0  0
 30  5  1  1  0  0  0
 30 29  1  0  0  0  0
M  END
>  <MODEL>
2

>  <REMARK>
 VINA RESULT:      -9.8      1.370      2.044
  Name = 
  1 active torsions:
  status: ('A' for Active; 'I' for Inactive)
    1  A    between atoms: C_5  and  C_30
                            x       y       z     vdW  Elec       q    Type
                         _______ _______ _______ _____ _____    ______ ____

>  <TORSDO>
F 1

$$$$
=
 OpenBabel11112416553D

 31 35  0  0  1  0  0  0  0  0999 V2000
  190.7950  176.4150  146.8490 C   0  0  0  0  0  0  0  0  0  0  0  0
  187.8850  176.4190  144.4590 C   0  0  0  0  0  0  0  0  0  0  0  0
  186.8990  177.2990  144.9930 C   0  0  0  0  0  0  0  0  0  0  0  0
  190.1560  173.0300  141.1140 O   0  0  0  0  0  0  0  0  0  0  0  0
  189.0170  173.3440  140.6800 C   0  0  0  0  0  0  0  0  0  0  0  0
  186.0730  178.8510  146.6890 C   0  0  0  0  0  0  0  0  0  0  0  0
  189.1440  176.1400  145.0690 C   0  0  0  0  0  0  0  0  0  0  0  0
  191.6570  175.5300  146.2040 C   0  0  0  0  0  3  0  0  0  0  0  0
  187.0660  177.9990  146.2020 C   0  0  0  0  0  3  0  0  0  0  0  0
  188.5060  174.8990  142.6440 C   0  0  0  0  0  0  0  0  0  0  0  0
  191.1610  176.9850  148.0220 F   0  0  0  0  0  0  0  0  0  0  0  0
  185.4850  176.8320  143.1150 N   0  0  0  0  0  0  0  0  0  0  0  0
  186.3160  179.7050  148.1960 Cl  0  0  0  0  0  0  0  0  0  0  0  0
  189.6930  174.6580  143.2540 N   0  0  0  0  0  0  0  0  0  0  0  0
  187.5850  175.7770  143.2290 C   0  0  0  0  0  0  0  0  0  0  0  0
  188.1820  174.2610  141.4010 N   0  0  0  0  0  2  0  0  0  0  0  0
  189.5530  176.7160  146.2850 C   0  0  0  0  0  3  0  0  0  0  0  0
  184.8880  179.0220  145.9740 C   0  0  0  0  0  3  0  0  0  0  0  0
  190.0350  175.2420  144.4280 C   0  0  0  0  0  0  0  0  0  0  0  0
  191.2770  174.9450  144.9970 C   0  0  0  0  0  3  0  0  0  0  0  0
  186.3980  176.0090  142.6080 N   0  0  0  0  0  0  0  0  0  0  0  0
  185.6890  177.4850  144.2830 C   0  0  0  0  0  0  0  0  0  0  0  0
  184.6960  178.3390  144.7720 C   0  0  0  0  0  3  0  0  0  0  0  0
  190.6120  172.8200  137.2820 C   0  0  1  0  0  3  0  0  0  0  0  0
  189.3470  171.5010  139.0030 C   0  0  0  0  0  2  0  0  0  0  0  0
  187.8160  174.9160  138.5970 O   0  0  0  0  0  1  0  0  0  0  0  0
  191.8860  173.1470  136.8180 O   0  0  0  0  0  1  0  0  0  0  0  0
  190.7320  171.8670  138.4670 C   0  0  0  0  0  2  0  0  0  0  0  0
  188.4890  173.7510  138.2220 C   0  0  2  0  0  3  0  0  0  0  0  0
  188.5420  172.7470  139.3860 C   0  0  2  0  0  3  0  0  0  0  0  0
  189.8820  174.0940  137.6990 C   0  0  0  0  0  2  0  0  0  0  0  0
  1 11  1  0  0  0  0
  2  3  1  0  0  0  0
  2  7  1  0  0  0  0
  3  9  1  0  0  0  0
  5  4  2  0  0  0  0
  5 16  1  0  0  0  0
  6 13  1  0  0  0  0
  7 17  2  0  0  0  0
  8  1  2  0  0  0  0
  9  6  2  0  0  0  0
 10 15  1  0  0  0  0
 10 14  2  0  0  0  0
 12 22  1  0  0  0  0
 14 19  1  0  0  0  0
 15  2  2  0  0  0  0
 16 10  1  0  0  0  0
 17  1  1  0  0  0  0
 18  6  1  0  0  0  0
 19 20  2  0  0  0  0
 19  7  1  0  0  0  0
 20  8  1  0  0  0  0
 21 12  2  0  0  0  0
 21 15  1  0  0  0  0
 22 23  1  0  0  0  0
 22  3  2  0  0  0  0
 23 18  2  0  0  0  0
 24 27  1  1  0  0  0
 24 31  1  0  0  0  0
 24 28  1  0  0  0  0
 25 30  1  0  0  0  0
 28 25  1  0  0  0  0
 29 26  1  1  0  0  0
 29 30  1  0  0  0  0
 30  5  1  1  0  0  0
 31 29  1  0  0  0  0
M  END
>  <MODEL>
3

>  <REMARK>
 VINA RESULT:      -8.6      4.046      6.152
  Name = 
  1 active torsions:
  status: ('A' for Active; 'I' for Inactive)
    1  A    between atoms: C_5  and  C_30
                            x       y       z     vdW  Elec       q    Type
                         _______ _______ _______ _____ _____    ______ ____

>  <TORSDO>
F 1

$$$$
=
 OpenBabel11112416553D

 31 35  0  0  1  0  0  0  0  0999 V2000
  185.7360  177.5410  141.0350 C   0  0  0  0  0  0  0  0  0  0  0  0
  187.5290  176.9560  144.2950 C   0  0  0  0  0  0  0  0  0  0  0  0
  186.6660  177.4000  145.3390 C   0  0  0  0  0  0  0  0  0  0  0  0
  191.8150  174.9160  141.9910 O   0  0  0  0  0  0  0  0  0  0  0  0
  191.9810  174.9330  143.2390 C   0  0  0  0  0  0  0  0  0  0  0  0
  184.5780  178.3670  146.1570 C   0  0  0  0  0  0  0  0  0  0  0  0
  187.2180  177.0070  142.9030 C   0  0  0  0  0  0  0  0  0  0  0  0
  186.6850  177.0690  140.1310 C   0  0  0  0  0  3  0  0  0  0  0  0
  185.3910  177.9450  145.1040 C   0  0  0  0  0  3  0  0  0  0  0  0
  189.6910  175.9710  143.7030 C   0  0  0  0  0  0  0  0  0  0  0  0
  184.5570  178.0310  140.5860 F   0  0  0  0  0  0  0  0  0  0  0  0
  188.3220  176.7730  146.9550 N   0  0  0  0  0  0  0  0  0  0  0  0
  182.9980  179.0410  145.8260 Cl  0  0  0  0  0  0  0  0  0  0  0  0
  189.3590  176.0350  142.3900 N   0  0  0  0  0  0  0  0  0  0  0  0
  188.7900  176.4260  144.6740 C   0  0  0  0  0  0  0  0  0  0  0  0
  190.9590  175.4390  144.1100 N   0  0  0  0  0  2  0  0  0  0  0  0
  186.0020  177.5090  142.4060 C   0  0  0  0  0  3  0  0  0  0  0  0
  185.0260  178.2520  147.4730 C   0  0  0  0  0  3  0  0  0  0  0  0
  188.1700  176.5300  141.9670 C   0  0  0  0  0  0  0  0  0  0  0  0
  187.8990  176.5650  140.5960 C   0  0  0  0  0  3  0  0  0  0  0  0
  189.1350  176.3560  145.9880 N   0  0  0  0  0  0  0  0  0  0  0  0
  187.1020  177.2910  146.6810 C   0  0  0  0  0  0  0  0  0  0  0  0
  186.2870  177.7150  147.7340 C   0  0  0  0  0  3  0  0  0  0  0  0
  194.2790  176.0700  146.0310 C   0  0  1  0  0  3  0  0  0  0  0  0
  193.1120  173.9800  145.2710 C   0  0  0  0  0  2  0  0  0  0  0  0
  194.5540  175.8130  142.3170 O   0  0  0  0  0  1  0  0  0  0  0  0
  194.1920  177.1660  146.8880 O   0  0  0  0  0  1  0  0  0  0  0  0
  193.0470  175.1870  146.2090 C   0  0  0  0  0  2  0  0  0  0  0  0
  194.4590  175.3670  143.6360 C   0  0  2  0  0  3  0  0  0  0  0  0
  193.2680  174.4090  143.8090 C   0  0  2  0  0  3  0  0  0  0  0  0
  194.3750  176.5580  144.5890 C   0  0  0  0  0  2  0  0  0  0  0  0
  1 17  1  0  0  0  0
  2 15  2  0  0  0  0
  2  3  1  0  0  0  0
  3 22  1  0  0  0  0
  4  5  2  0  0  0  0
  5 16  1  0  0  0  0
  6 18  2  0  0  0  0
  7  2  1  0  0  0  0
  8 20  1  0  0  0  0
  8  1  2  0  0  0  0
  9  3  2  0  0  0  0
  9  6  1  0  0  0  0
 10 16  1  0  0  0  0
 10 15  1  0  0  0  0
 11  1  1  0  0  0  0
 13  6  1  0  0  0  0
 14 10  2  0  0  0  0
 15 21  1  0  0  0  0
 17  7  2  0  0  0  0
 18 23  1  0  0  0  0
 19 14  1  0  0  0  0
 19  7  1  0  0  0  0
 20 19  2  0  0  0  0
 21 12  2  0  0  0  0
 22 12  1  0  0  0  0
 22 23  2  0  0  0  0
 24 28  1  0  0  0  0
 24 27  1  1  0  0  0
 25 28  1  0  0  0  0
 29 26  1  6  0  0  0
 29 30  1  0  0  0  0
 29 31  1  0  0  0  0
 30  5  1  1  0  0  0
 30 25  1  0  0  0  0
 31 24  1  0  0  0  0
M  END
>  <MODEL>
4

>  <REMARK>
 VINA RESULT:      -8.5      1.856      4.426
  Name = 
  1 active torsions:
  status: ('A' for Active; 'I' for Inactive)
    1  A    between atoms: C_5  and  C_30
                            x       y       z     vdW  Elec       q    Type
                         _______ _______ _______ _____ _____    ______ ____

>  <TORSDO>
F 1

$$$$
=
 OpenBabel11112416553D

 31 35  0  0  1  0  0  0  0  0999 V2000
  185.5600  177.9150  140.8580 C   0  0  0  0  0  0  0  0  0  0  0  0
  187.4990  176.4510  143.7350 C   0  0  0  0  0  0  0  0  0  0  0  0
  186.8470  176.8590  144.9360 C   0  0  0  0  0  0  0  0  0  0  0  0
  191.0410  174.0860  140.6210 O   0  0  0  0  0  0  0  0  0  0  0  0
  191.3250  173.8560  141.8260 C   0  0  0  0  0  0  0  0  0  0  0  0
  185.0870  178.0390  146.1510 C   0  0  0  0  0  0  0  0  0  0  0  0
  187.0730  176.8000  142.4180 C   0  0  0  0  0  0  0  0  0  0  0  0
  186.3020  177.4400  139.7780 C   0  0  0  0  0  3  0  0  0  0  0  0
  185.6930  177.6630  144.9510 C   0  0  0  0  0  3  0  0  0  0  0  0
  189.3480  175.2020  142.7310 C   0  0  0  0  0  0  0  0  0  0  0  0
  184.4670  178.6850  140.6420 F   0  0  0  0  0  0  0  0  0  0  0  0
  188.4880  175.6660  146.2140 N   0  0  0  0  0  0  0  0  0  0  0  0
  183.6530  179.0400  146.1300 Cl  0  0  0  0  0  0  0  0  0  0  0  0
  188.9130  175.5530  141.4950 N   0  0  0  0  0  0  0  0  0  0  0  0
  188.6560  175.6400  143.8660 C   0  0  0  0  0  0  0  0  0  0  0  0
  190.5150  174.3820  142.8870 N   0  0  0  0  0  2  0  0  0  0  0  0
  185.9430  177.5970  142.1620 C   0  0  0  0  0  3  0  0  0  0  0  0
  185.6260  177.6160  147.3660 C   0  0  0  0  0  3  0  0  0  0  0  0
  187.8150  176.3260  141.3070 C   0  0  0  0  0  0  0  0  0  0  0  0
  187.4280  176.6470  140.0040 C   0  0  0  0  0  3  0  0  0  0  0  0
  189.1030  175.2800  145.0990 N   0  0  0  0  0  0  0  0  0  0  0  0
  187.3780  176.4400  146.1790 C   0  0  0  0  0  0  0  0  0  0  0  0
  186.7700  176.8180  147.3800 C   0  0  0  0  0  3  0  0  0  0  0  0
  193.5320  173.4550  144.8820 C   0  0  1  0  0  3  0  0  0  0  0  0
  192.2460  172.0190  143.2730 C   0  0  0  0  0  2  0  0  0  0  0  0
  194.0140  174.7800  141.4250 O   0  0  0  0  0  1  0  0  0  0  0  0
  193.4830  174.0840  146.1250 O   0  0  0  0  0  1  0  0  0  0  0  0
  192.2230  172.7100  144.6370 C   0  0  0  0  0  2  0  0  0  0  0  0
  193.8010  173.8270  142.4220 C   0  0  2  0  0  3  0  0  0  0  0  0
  192.5270  173.0120  142.1410 C   0  0  2  0  0  3  0  0  0  0  0  0
  193.7570  174.5000  143.7920 C   0  0  0  0  0  2  0  0  0  0  0  0
  1 17  1  0  0  0  0
  2 15  2  0  0  0  0
  2  3  1  0  0  0  0
  3  9  2  0  0  0  0
  3 22  1  0  0  0  0
  4  5  2  0  0  0  0
  5 16  1  0  0  0  0
  6 18  2  0  0  0  0
  7  2  1  0  0  0  0
  8 20  1  0  0  0  0
  8  1  2  0  0  0  0
  9  6  1  0  0  0  0
 10 16  1  0  0  0  0
 10 15  1  0  0  0  0
 11  1  1  0  0  0  0
 13  6  1  0  0  0  0
 14 10  2  0  0  0  0
 15 21  1  0  0  0  0
 17  7  2  0  0  0  0
 18 23  1  0  0  0  0
 19 14  1  0  0  0  0
 19  7  1  0  0  0  0
 20 19  2  0  0  0  0
 21 12  2  0  0  0  0
 22 12  1  0  0  0  0
 22 23  2  0  0  0  0
 24 27  1  1  0  0  0
 25 28  1  0  0  0  0
 28 24  1  0  0  0  0
 29 26  1  6  0  0  0
 29 31  1  0  0  0  0
 30  5  1  1  0  0  0
 30 29  1  0  0  0  0
 30 25  1  0  0  0  0
 31 24  1  0  0  0  0
M  END
>  <MODEL>
5

>  <REMARK>
 VINA RESULT:      -8.4      2.166      4.774
  Name = 
  1 active torsions:
  status: ('A' for Active; 'I' for Inactive)
    1  A    between atoms: C_5  and  C_30
                            x       y       z     vdW  Elec       q    Type
                         _______ _______ _______ _____ _____    ______ ____

>  <TORSDO>
F 1

$$$$
=
 OpenBabel11112416553D

 31 35  0  0  1  0  0  0  0  0999 V2000
  188.0780  174.5360  138.9530 C   0  0  0  0  0  0  0  0  0  0  0  0
  188.3750  176.0190  142.4020 C   0  0  0  0  0  0  0  0  0  0  0  0
  187.2890  176.9280  142.5670 C   0  0  0  0  0  0  0  0  0  0  0  0
  192.7240  173.2830  143.6020 O   0  0  0  0  0  0  0  0  0  0  0  0
  192.4120  174.0190  144.5750 C   0  0  0  0  0  0  0  0  0  0  0  0
  185.2790  178.0660  141.7740 C   0  0  0  0  0  0  0  0  0  0  0  0
  188.6220  175.2490  141.2250 C   0  0  0  0  0  0  0  0  0  0  0  0
  189.1840  173.6880  138.9410 C   0  0  0  0  0  3  0  0  0  0  0  0
  186.3260  177.1660  141.5700 C   0  0  0  0  0  3  0  0  0  0  0  0
  190.3640  175.0000  143.4010 C   0  0  0  0  0  0  0  0  0  0  0  0
  187.2720  174.6130  137.8680 F   0  0  0  0  0  0  0  0  0  0  0  0
  188.0670  177.4310  144.7780 N   0  0  0  0  0  0  0  0  0  0  0  0
  184.1010  178.3370  140.5100 Cl  0  0  0  0  0  0  0  0  0  0  0  0
  190.5660  174.2840  142.2660 N   0  0  0  0  0  0  0  0  0  0  0  0
  189.2740  175.8750  143.4910 C   0  0  0  0  0  0  0  0  0  0  0  0
  191.2600  174.8700  144.5140 N   0  0  0  0  0  2  0  0  0  0  0  0
  187.8020  175.3070  140.0840 C   0  0  0  0  0  3  0  0  0  0  0  0
  185.1720  178.7480  142.9860 C   0  0  0  0  0  3  0  0  0  0  0  0
  189.7420  174.3800  141.1940 C   0  0  0  0  0  0  0  0  0  0  0  0
  190.0140  173.6110  140.0600 C   0  0  0  0  0  3  0  0  0  0  0  0
  189.0830  176.5860  144.6340 N   0  0  0  0  0  0  0  0  0  0  0  0
  187.1630  177.6290  143.7900 C   0  0  0  0  0  0  0  0  0  0  0  0
  186.1130  178.5300  143.9930 C   0  0  0  0  0  3  0  0  0  0  0  0
  194.5660  176.5840  146.3490 C   0  0  1  0  0  3  0  0  0  0  0  0
  192.7430  174.9450  146.8880 C   0  0  0  0  0  2  0  0  0  0  0  0
  195.2160  173.4020  144.5070 O   0  0  0  0  0  1  0  0  0  0  0  0
  194.8330  177.9160  146.0350 O   0  0  0  0  0  1  0  0  0  0  0  0
  193.0650  176.4020  146.5540 C   0  0  0  0  0  2  0  0  0  0  0  0
  194.7600  174.2240  145.5390 C   0  0  2  0  0  3  0  0  0  0  0  0
  193.2650  173.9890  145.8110 C   0  0  2  0  0  3  0  0  0  0  0  0
  195.0580  175.6870  145.2160 C   0  0  0  0  0  2  0  0  0  0  0  0
  1 17  1  0  0  0  0
  2  3  2  0  0  0  0
  2 15  1  0  0  0  0
  3 22  1  0  0  0  0
  4  5  2  0  0  0  0
  6 18  1  0  0  0  0
  7  2  1  0  0  0  0
  8  1  2  0  0  0  0
  8 20  1  0  0  0  0
  9  6  2  0  0  0  0
  9  3  1  0  0  0  0
 10 15  1  0  0  0  0
 10 16  1  0  0  0  0
 11  1  1  0  0  0  0
 13  6  1  0  0  0  0
 14 10  2  0  0  0  0
 15 21  2  0  0  0  0
 16  5  1  0  0  0  0
 17  7  2  0  0  0  0
 18 23  2  0  0  0  0
 19  7  1  0  0  0  0
 19 14  1  0  0  0  0
 20 19  2  0  0  0  0
 21 12  1  0  0  0  0
 22 23  1  0  0  0  0
 22 12  2  0  0  0  0
 24 27  1  6  0  0  0
 24 28  1  0  0  0  0
 28 25  1  0  0  0  0
 29 26  1  6  0  0  0
 29 30  1  0  0  0  0
 30  5  1  6  0  0  0
 30 25  1  0  0  0  0
 31 29  1  0  0  0  0
 31 24  1  0  0  0  0
M  END
>  <MODEL>
6

>  <REMARK>
 VINA RESULT:      -8.3      2.755      4.628
  Name = 
  1 active torsions:
  status: ('A' for Active; 'I' for Inactive)
    1  A    between atoms: C_5  and  C_30
                            x       y       z     vdW  Elec       q    Type
                         _______ _______ _______ _____ _____    ______ ____

>  <TORSDO>
F 1

$$$$
=
 OpenBabel11112416553D

 31 35  0  0  1  0  0  0  0  0999 V2000
  186.7300  176.7910  141.4300 C   0  0  0  0  0  0  0  0  0  0  0  0
  188.0760  177.0270  144.9390 C   0  0  0  0  0  0  0  0  0  0  0  0
  187.0560  177.6120  145.7460 C   0  0  0  0  0  0  0  0  0  0  0  0
  192.7310  174.8800  143.6890 O   0  0  0  0  0  0  0  0  0  0  0  0
  192.7190  175.1680  144.9150 C   0  0  0  0  0  0  0  0  0  0  0  0
  184.8320  178.5700  146.0660 C   0  0  0  0  0  0  0  0  0  0  0  0
  187.9600  176.7670  143.5400 C   0  0  0  0  0  0  0  0  0  0  0  0
  187.8160  176.2140  140.7750 C   0  0  0  0  0  3  0  0  0  0  0  0
  185.8020  178.0000  145.2390 C   0  0  0  0  0  3  0  0  0  0  0  0
  190.3420  176.1050  144.8520 C   0  0  0  0  0  0  0  0  0  0  0  0
  185.6030  177.0890  140.7400 F   0  0  0  0  0  0  0  0  0  0  0  0
  188.4970  177.4580  147.6550 N   0  0  0  0  0  0  0  0  0  0  0  0
  183.2840  179.0410  145.4000 Cl  0  0  0  0  0  0  0  0  0  0  0  0
  190.1940  175.8710  143.5240 N   0  0  0  0  0  0  0  0  0  0  0  0
  189.2940  176.6830  145.5800 C   0  0  0  0  0  0  0  0  0  0  0  0
  191.5640  175.7650  145.5200 N   0  0  0  0  0  2  0  0  0  0  0  0
  186.8030  177.0630  142.7980 C   0  0  0  0  0  3  0  0  0  0  0  0
  185.0960  178.7630  147.4210 C   0  0  0  0  0  3  0  0  0  0  0  0
  189.0540  176.1790  142.8570 C   0  0  0  0  0  0  0  0  0  0  0  0
  188.9760  175.9090  141.4880 C   0  0  0  0  0  3  0  0  0  0  0  0
  189.4550  176.9120  146.9110 N   0  0  0  0  0  0  0  0  0  0  0  0
  187.3050  177.8170  147.1230 C   0  0  0  0  0  0  0  0  0  0  0  0
  186.3320  178.3870  147.9490 C   0  0  0  0  0  3  0  0  0  0  0  0
  196.4020  174.7500  144.1210 C   0  0  1  0  0  3  0  0  0  0  0  0
  194.9410  176.0260  145.7150 C   0  0  0  0  0  2  0  0  0  0  0  0
  193.6860  172.4980  145.3420 O   0  0  0  0  0  1  0  0  0  0  0  0
  197.0810  174.8200  142.9060 O   0  0  0  0  0  1  0  0  0  0  0  0
  195.7050  176.0800  144.3910 C   0  0  0  0  0  2  0  0  0  0  0  0
  194.6170  173.5370  145.3880 C   0  0  2  0  0  3  0  0  0  0  0  0
  193.9370  174.8700  145.7420 C   0  0  2  0  0  3  0  0  0  0  0  0
  195.3790  173.6190  144.0660 C   0  0  0  0  0  2  0  0  0  0  0  0
  1 17  1  0  0  0  0
  2 15  2  0  0  0  0
  2  3  1  0  0  0  0
  3 22  1  0  0  0  0
  4  5  2  0  0  0  0
  5 16  1  0  0  0  0
  6 18  2  0  0  0  0
  7  2  1  0  0  0  0
  8  1  2  0  0  0  0
  8 20  1  0  0  0  0
  9  3  2  0  0  0  0
  9  6  1  0  0  0  0
 10 16  1  0  0  0  0
 10 15  1  0  0  0  0
 11  1  1  0  0  0  0
 13  6  1  0  0  0  0
 14 10  2  0  0  0  0
 15 21  1  0  0  0  0
 17  7  2  0  0  0  0
 18 23  1  0  0  0  0
 19 14  1  0  0  0  0
 19  7  1  0  0  0  0
 20 19  2  0  0  0  0
 21 12  2  0  0  0  0
 22 12  1  0  0  0  0
 22 23  2  0  0  0  0
 24 27  1  6  0  0  0
 24 28  1  0  0  0  0
 25 30  1  0  0  0  0
 28 25  1  0  0  0  0
 29 26  1  6  0  0  0
 29 30  1  0  0  0  0
 30  5  1  6  0  0  0
 31 24  1  0  0  0  0
 31 29  1  0  0  0  0
M  END
>  <MODEL>
7

>  <REMARK>
 VINA RESULT:      -8.2      2.094      4.286
  Name = 
  1 active torsions:
  status: ('A' for Active; 'I' for Inactive)
    1  A    between atoms: C_5  and  C_30
                            x       y       z     vdW  Elec       q    Type
                         _______ _______ _______ _____ _____    ______ ____

>  <TORSDO>
F 1

$$$$
=
 OpenBabel11112416553D

 31 35  0  0  1  0  0  0  0  0999 V2000
  190.9440  176.5560  147.2440 C   0  0  0  0  0  0  0  0  0  0  0  0
  188.9580  175.9020  144.1130 C   0  0  0  0  0  0  0  0  0  0  0  0
  187.7270  176.6120  144.2350 C   0  0  0  0  0  0  0  0  0  0  0  0
  192.6630  172.8200  141.9670 O   0  0  0  0  0  0  0  0  0  0  0  0
  191.6800  172.8970  141.1850 C   0  0  0  0  0  0  0  0  0  0  0  0
  186.1800  178.0720  145.4370 C   0  0  0  0  0  0  0  0  0  0  0  0
  189.9930  175.8910  145.0950 C   0  0  0  0  0  0  0  0  0  0  0  0
  192.0930  175.8120  146.9810 C   0  0  0  0  0  3  0  0  0  0  0  0
  187.3980  177.3930  145.3580 C   0  0  0  0  0  3  0  0  0  0  0  0
  190.3440  174.4300  142.7340 C   0  0  0  0  0  0  0  0  0  0  0  0
  190.8330  177.2430  148.4060 F   0  0  0  0  0  0  0  0  0  0  0  0
  187.0590  175.7980  142.0820 N   0  0  0  0  0  0  0  0  0  0  0  0
  185.8050  179.0320  146.8500 Cl  0  0  0  0  0  0  0  0  0  0  0  0
  191.3060  174.4440  143.6900 N   0  0  0  0  0  0  0  0  0  0  0  0
  189.1600  175.1530  142.9250 C   0  0  0  0  0  0  0  0  0  0  0  0
  190.5280  173.6800  141.5250 N   0  0  0  0  0  2  0  0  0  0  0  0
  189.9070  176.5940  146.3100 C   0  0  0  0  0  3  0  0  0  0  0  0
  185.2640  177.9850  144.3890 C   0  0  0  0  0  3  0  0  0  0  0  0
  191.1700  175.1400  144.8450 C   0  0  0  0  0  0  0  0  0  0  0  0
  192.2040  175.1060  145.7840 C   0  0  0  0  0  3  0  0  0  0  0  0
  188.2040  175.1310  141.9580 N   0  0  0  0  0  0  0  0  0  0  0  0
  186.7850  176.5370  143.1830 C   0  0  0  0  0  0  0  0  0  0  0  0
  185.5660  177.2170  143.2630 C   0  0  0  0  0  3  0  0  0  0  0  0
  189.4100  172.7480  138.1530 C   0  0  1  0  0  3  0  0  0  0  0  0
  191.8360  173.1120  138.6860 C   0  0  0  0  0  2  0  0  0  0  0  0
  190.4410  170.3330  140.8070 O   0  0  0  0  0  1  0  0  0  0  0  0
  188.2000  173.3900  137.8940 O   0  0  0  0  0  1  0  0  0  0  0  0
  190.4990  173.7910  138.3870 C   0  0  0  0  0  2  0  0  0  0  0  0
  190.5800  171.1550  139.6870 C   0  0  2  0  0  3  0  0  0  0  0  0
  191.7310  172.1570  139.8790 C   0  0  2  0  0  3  0  0  0  0  0  0
  189.2580  171.8560  139.3820 C   0  0  0  0  0  2  0  0  0  0  0  0
  1 11  1  0  0  0  0
  2  3  1  0  0  0  0
  2  7  1  0  0  0  0
  3  9  1  0  0  0  0
  5 16  1  0  0  0  0
  5  4  2  0  0  0  0
  6 13  1  0  0  0  0
  7 17  1  0  0  0  0
  8  1  1  0  0  0  0
  9  6  2  0  0  0  0
 10 15  1  0  0  0  0
 10 14  2  0  0  0  0
 12 22  1  0  0  0  0
 14 19  1  0  0  0  0
 15  2  2  0  0  0  0
 16 10  1  0  0  0  0
 17  1  2  0  0  0  0
 18  6  1  0  0  0  0
 19  7  2  0  0  0  0
 19 20  1  0  0  0  0
 20  8  2  0  0  0  0
 21 12  2  0  0  0  0
 21 15  1  0  0  0  0
 22 23  1  0  0  0  0
 22  3  2  0  0  0  0
 23 18  2  0  0  0  0
 24 27  1  1  0  0  0
 24 28  1  0  0  0  0
 24 31  1  0  0  0  0
 25 30  1  0  0  0  0
 28 25  1  0  0  0  0
 29 30  1  0  0  0  0
 29 26  1  1  0  0  0
 30  5  1  1  0  0  0
 31 29  1  0  0  0  0
M  END
>  <MODEL>
8

>  <REMARK>
 VINA RESULT:      -8.2      3.852      5.641
  Name = 
  1 active torsions:
  status: ('A' for Active; 'I' for Inactive)
    1  A    between atoms: C_5  and  C_30
                            x       y       z     vdW  Elec       q    Type
                         _______ _______ _______ _____ _____    ______ ____

>  <TORSDO>
F 1

$$$$
=
 OpenBabel11112416553D

 31 35  0  0  1  0  0  0  0  0999 V2000
  191.6690  176.2690  146.4490 C   0  0  0  0  0  0  0  0  0  0  0  0
  188.7680  176.0030  144.0640 C   0  0  0  0  0  0  0  0  0  0  0  0
  187.6590  176.6660  144.6680 C   0  0  0  0  0  0  0  0  0  0  0  0
  191.5130  173.3100  140.4510 O   0  0  0  0  0  0  0  0  0  0  0  0
  190.3320  173.4720  140.0430 C   0  0  0  0  0  0  0  0  0  0  0  0
  186.6160  177.9200  146.4860 C   0  0  0  0  0  0  0  0  0  0  0  0
  190.0630  175.8800  144.6510 C   0  0  0  0  0  0  0  0  0  0  0  0
  192.6540  175.5900  145.7340 C   0  0  0  0  0  3  0  0  0  0  0  0
  187.7270  177.2820  145.9310 C   0  0  0  0  0  3  0  0  0  0  0  0
  189.6020  174.7570  142.1290 C   0  0  0  0  0  0  0  0  0  0  0  0
  191.9530  176.7910  147.6660 F   0  0  0  0  0  0  0  0  0  0  0  0
  186.3160  176.1340  142.7550 N   0  0  0  0  0  0  0  0  0  0  0  0
  186.7380  178.6740  148.0600 Cl  0  0  0  0  0  0  0  0  0  0  0  0
  190.8200  174.6610  142.7190 N   0  0  0  0  0  0  0  0  0  0  0  0
  188.5600  175.4240  142.7850 C   0  0  0  0  0  0  0  0  0  0  0  0
  189.3700  174.1790  140.8370 N   0  0  0  0  0  2  0  0  0  0  0  0
  190.3880  176.4110  145.9110 C   0  0  0  0  0  3  0  0  0  0  0  0
  185.4100  177.9560  145.7860 C   0  0  0  0  0  3  0  0  0  0  0  0
  191.0780  175.1930  143.9380 C   0  0  0  0  0  0  0  0  0  0  0  0
  192.3580  175.0530  144.4820 C   0  0  0  0  0  3  0  0  0  0  0  0
  187.3440  175.5130  142.1830 N   0  0  0  0  0  0  0  0  0  0  0  0
  186.4270  176.7130  143.9740 C   0  0  0  0  0  0  0  0  0  0  0  0
  185.3170  177.3530  144.5310 C   0  0  0  0  0  3  0  0  0  0  0  0
  191.4660  170.4820  138.0070 C   0  0  1  0  0  3  0  0  0  0  0  0
  189.3290  171.5170  138.8230 C   0  0  0  0  0  2  0  0  0  0  0  0
  191.6900  174.1880  137.6170 O   0  0  0  0  0  1  0  0  0  0  0  0
  192.4290  169.5120  138.2800 O   0  0  0  0  0  1  0  0  0  0  0  0
  190.3930  170.4530  139.0930 C   0  0  0  0  0  2  0  0  0  0  0  0
  191.0840  172.9320  137.6710 C   0  0  2  0  0  3  0  0  0  0  0  0
  189.9440  172.9150  138.7040 C   0  0  2  0  0  3  0  0  0  0  0  0
  192.1290  171.8550  137.9570 C   0  0  0  0  0  2  0  0  0  0  0  0
  1 11  1  0  0  0  0
  2  7  1  0  0  0  0
  2  3  1  0  0  0  0
  3  9  1  0  0  0  0
  5  4  2  0  0  0  0
  5 16  1  0  0  0  0
  6 13  1  0  0  0  0
  7 17  2  0  0  0  0
  8  1  2  0  0  0  0
  9  6  2  0  0  0  0
 10 14  2  0  0  0  0
 10 15  1  0  0  0  0
 12 22  1  0  0  0  0
 14 19  1  0  0  0  0
 15  2  2  0  0  0  0
 16 10  1  0  0  0  0
 17  1  1  0  0  0  0
 18  6  1  0  0  0  0
 19 20  2  0  0  0  0
 19  7  1  0  0  0  0
 20  8  1  0  0  0  0
 21 12  2  0  0  0  0
 21 15  1  0  0  0  0
 22 23  1  0  0  0  0
 22  3  2  0  0  0  0
 23 18  2  0  0  0  0
 24 27  1  1  0  0  0
 24 28  1  0  0  0  0
 25 28  1  0  0  0  0
 29 26  1  1  0  0  0
 29 31  1  0  0  0  0
 29 30  1  0  0  0  0
 30 25  1  0  0  0  0
 30  5  1  1  0  0  0
 31 24  1  0  0  0  0
M  END
>  <MODEL>
9

>  <REMARK>
 VINA RESULT:      -8.1      4.374      6.411
  Name = 
  1 active torsions:
  status: ('A' for Active; 'I' for Inactive)
    1  A    between atoms: C_5  and  C_30
                            x       y       z     vdW  Elec       q    Type
                         _______ _______ _______ _____ _____    ______ ____

>  <TORSDO>
F 1

$$$$
