=
 OpenBabel11112416473D

 31 35  0  0  1  0  0  0  0  0999 V2000
  189.4580  173.2330  142.0780 C   0  0  2  0  0  3  0  0  0  0  0  0
  191.0000  174.7280  145.1350 C   0  0  2  0  0  3  0  0  0  0  0  0
  192.1150  175.7800  145.2030 C   0  0  2  0  0  3  0  0  0  0  0  0
  194.5900  176.0870  144.8640 C   0  0  0  0  0  0  0  0  0  0  0  0
  190.4080  174.6550  143.7180 C   0  0  1  0  0  3  0  0  0  0  0  0
  188.2780  174.1670  141.7740 C   0  0  0  0  0  2  0  0  0  0  0  0
  193.3920  175.2350  144.5470 C   0  0  0  0  0  2  0  0  0  0  0  0
  188.9110  176.0270  145.8260 C   0  0  0  0  0  0  0  0  0  0  0  0
  189.1080  171.9320  141.7730 F   0  0  0  0  0  0  0  0  0  0  0  0
  191.2090  176.2840  147.5650 C   0  0  0  0  0  2  0  0  0  0  0  0
  195.6370  176.1140  144.0060 F   0  0  0  0  0  0  0  0  0  0  0  0
  189.1120  176.7590  144.5280 C   0  0  0  0  0  2  0  0  0  0  0  0
  189.8980  174.9500  146.1980 C   0  0  2  0  0  3  0  0  0  0  0  0
  187.9340  176.2960  146.6420 N   0  0  0  0  0  0  0  0  0  0  0  0
  189.8630  173.3170  143.4790 N   0  0  0  0  0  2  0  0  0  0  0  0
  194.6770  176.7300  146.0320 C   0  0  0  0  0  3  0  0  0  0  0  0
  189.3720  175.7760  143.3830 C   0  0  2  0  0  3  0  0  0  0  0  0
  188.0480  175.2040  142.8730 C   0  0  0  0  0  2  0  0  0  0  0  0
  190.4380  175.1040  147.5010 O   0  0  0  0  0  0  0  0  0  0  0  0
  192.3690  176.2100  146.6270 C   0  0  0  0  0  0  0  0  0  0  0  0
  193.5510  176.7200  146.9830 C   0  0  0  0  0  3  0  0  0  0  0  0
  187.1190  178.5040  146.6080 O   0  0  0  0  0  0  0  0  0  0  0  0
  186.8910  177.2710  146.4730 C   0  0  0  0  0  0  0  0  0  0  0  0
  184.4280  178.5860  144.1050 C   0  0  0  0  0  0  0  0  0  0  0  0
  185.3790  176.3660  144.6760 C   0  0  0  0  0  2  0  0  0  0  0  0
  184.5320  178.3000  147.7970 O   0  0  0  0  0  1  0  0  0  0  0  0
  183.6830  179.0910  143.2810 O   0  0  0  0  0  0  0  0  0  0  0  0
  185.4140  177.5380  143.6910 C   0  0  0  0  0  2  0  0  0  0  0  0
  184.4090  177.8660  146.4760 C   0  0  2  0  0  3  0  0  0  0  0  0
  185.4960  176.8290  146.1330 C   0  0  2  0  0  3  0  0  0  0  0  0
  184.4170  179.0630  145.5250 C   0  0  0  0  0  2  0  0  0  0  0  0
  1  9  1  1  0  0  0
  1 15  1  0  0  0  0
  2  3  1  0  0  0  0
  2 13  1  0  0  0  0
  3 20  1  0  0  0  0
  4 16  2  0  0  0  0
  5  2  1  0  0  0  0
  6  1  1  0  0  0  0
  6 18  1  0  0  0  0
  7  4  1  0  0  0  0
  7  3  1  0  0  0  0
  8 13  1  0  0  0  0
  8 14  2  0  0  0  0
 11  4  1  0  0  0  0
 12  8  1  0  0  0  0
 13 19  1  0  0  0  0
 15  5  1  0  0  0  0
 16 21  1  0  0  0  0
 17  5  1  0  0  0  0
 17 12  1  0  0  0  0
 18 17  1  0  0  0  0
 19 10  1  0  0  0  0
 20 21  2  0  0  0  0
 20 10  1  0  0  0  0
 23 22  2  0  0  0  0
 23 14  1  0  0  0  0
 24 31  1  0  0  0  0
 25 30  1  0  0  0  0
 27 24  2  0  0  0  0
 28 24  1  0  0  0  0
 28 25  1  0  0  0  0
 29 26  1  0  0  0  0
 30 23  1  0  0  0  0
 30 29  1  0  0  0  0
 31 29  1  0  0  0  0
M  END
>  <MODEL>
1

>  <REMARK>
 VINA RESULT:      -8.9      0.000      0.000
  Name = 
  2 active torsions:
  status: ('A' for Active; 'I' for Inactive)
    1  A    between atoms: C_5  and  N_16
    2  A    between atoms: C_5  and  C_30
                            x       y       z     vdW  Elec       q    Type
                         _______ _______ _______ _____ _____    ______ ____

>  <TORSDO>
F 2

$$$$
=
 OpenBabel11112416473D

 31 35  0  0  1  0  0  0  0  0999 V2000
  193.6210  176.4530  145.5330 C   0  0  2  0  0  3  0  0  0  0  0  0
  190.9040  176.1080  142.9920 C   0  0  2  0  0  3  0  0  0  0  0  0
  190.3620  174.8140  142.3700 C   0  0  2  0  0  3  0  0  0  0  0  0
  190.9380  172.9980  140.7250 C   0  0  0  0  0  0  0  0  0  0  0  0
  191.7450  175.7980  144.2410 C   0  0  1  0  0  3  0  0  0  0  0  0
  192.8720  176.3960  146.8730 C   0  0  0  0  0  2  0  0  0  0  0  0
  191.4800  174.0890  141.6070 C   0  0  0  0  0  2  0  0  0  0  0  0
  189.0310  176.8450  144.5660 C   0  0  0  0  0  0  0  0  0  0  0  0
  194.6760  177.3390  145.6310 F   0  0  0  0  0  0  0  0  0  0  0  0
  188.2440  176.1950  141.8580 C   0  0  0  0  0  2  0  0  0  0  0  0
  191.7240  171.9410  140.4100 F   0  0  0  0  0  0  0  0  0  0  0  0
  189.4000  175.6150  145.3470 C   0  0  0  0  0  2  0  0  0  0  0  0
  189.7930  177.1400  143.2990 C   0  0  2  0  0  3  0  0  0  0  0  0
  188.0770  177.6510  144.9290 N   0  0  0  0  0  0  0  0  0  0  0  0
  192.7390  176.8560  144.4410 N   0  0  0  0  0  2  0  0  0  0  0  0
  189.7320  173.1150  140.1630 C   0  0  0  0  0  3  0  0  0  0  0  0
  190.9160  175.5230  145.5360 C   0  0  2  0  0  3  0  0  0  0  0  0
  191.3530  176.4130  146.7010 C   0  0  0  0  0  2  0  0  0  0  0  0
  188.9560  177.3720  142.1770 O   0  0  0  0  0  0  0  0  0  0  0  0
  189.1800  175.0970  141.4740 C   0  0  0  0  0  0  0  0  0  0  0  0
  188.8550  174.2540  140.4910 C   0  0  0  0  0  3  0  0  0  0  0  0
  187.6450  177.9460  147.2240 O   0  0  0  0  0  0  0  0  0  0  0  0
  187.2420  177.5540  146.0960 C   0  0  0  0  0  0  0  0  0  0  0  0
  184.3230  178.5620  144.1300 C   0  0  0  0  0  0  0  0  0  0  0  0
  185.5650  176.4590  144.5720 C   0  0  0  0  0  2  0  0  0  0  0  0
  185.0280  178.3910  147.7630 O   0  0  0  0  0  1  0  0  0  0  0  0
  183.4130  178.9700  143.4280 O   0  0  0  0  0  0  0  0  0  0  0  0
  185.3310  177.6010  143.5790 C   0  0  0  0  0  2  0  0  0  0  0  0
  184.7450  177.9100  146.4840 C   0  0  2  0  0  3  0  0  0  0  0  0
  185.8620  176.9720  145.9870 C   0  0  2  0  0  3  0  0  0  0  0  0
  184.4870  179.0760  145.5270 C   0  0  0  0  0  2  0  0  0  0  0  0
  1  9  1  1  0  0  0
  1  6  1  0  0  0  0
  2 13  1  0  0  0  0
  2  5  1  0  0  0  0
  3  2  1  0  0  0  0
  4  7  1  0  0  0  0
  5 15  1  0  0  0  0
  5 17  1  0  0  0  0
  7  3  1  0  0  0  0
  8 14  2  0  0  0  0
  8 12  1  0  0  0  0
 10 19  1  0  0  0  0
 11  4  1  0  0  0  0
 12 17  1  0  0  0  0
 13  8  1  0  0  0  0
 14 23  1  0  0  0  0
 15  1  1  0  0  0  0
 16 21  1  0  0  0  0
 16  4  2  0  0  0  0
 17 18  1  0  0  0  0
 18  6  1  0  0  0  0
 19 13  1  0  0  0  0
 20 10  1  0  0  0  0
 20  3  1  0  0  0  0
 21 20  2  0  0  0  0
 23 22  2  0  0  0  0
 24 31  1  0  0  0  0
 25 30  1  0  0  0  0
 27 24  2  0  0  0  0
 28 24  1  0  0  0  0
 28 25  1  0  0  0  0
 29 26  1  0  0  0  0
 30 23  1  0  0  0  0
 30 29  1  0  0  0  0
 31 29  1  0  0  0  0
M  END
>  <MODEL>
2

>  <REMARK>
 VINA RESULT:      -8.6      1.768      4.492
  Name = 
  2 active torsions:
  status: ('A' for Active; 'I' for Inactive)
    1  A    between atoms: C_5  and  N_16
    2  A    between atoms: C_5  and  C_30
                            x       y       z     vdW  Elec       q    Type
                         _______ _______ _______ _____ _____    ______ ____

>  <TORSDO>
F 2

$$$$
=
 OpenBabel11112416473D

 31 35  0  0  1  0  0  0  0  0999 V2000
  190.1220  172.0930  142.3420 C   0  0  2  0  0  3  0  0  0  0  0  0
  191.1210  174.2370  145.2330 C   0  0  2  0  0  3  0  0  0  0  0  0
  192.3040  175.2120  145.3120 C   0  0  2  0  0  3  0  0  0  0  0  0
  194.8120  175.2940  145.5060 C   0  0  0  0  0  0  0  0  0  0  0  0
  190.8450  173.8360  143.7750 C   0  0  1  0  0  3  0  0  0  0  0  0
  189.1450  172.9780  141.5560 C   0  0  0  0  0  2  0  0  0  0  0  0
  193.6250  174.4520  145.1260 C   0  0  0  0  0  2  0  0  0  0  0  0
  189.0870  175.7760  145.0840 C   0  0  0  0  0  0  0  0  0  0  0  0
  189.7060  170.7770  142.2790 F   0  0  0  0  0  0  0  0  0  0  0  0
  190.9700  176.3490  147.2050 C   0  0  0  0  0  2  0  0  0  0  0  0
  196.0160  175.0460  144.9380 F   0  0  0  0  0  0  0  0  0  0  0  0
  189.6420  176.1410  143.7350 C   0  0  0  0  0  2  0  0  0  0  0  0
  189.8470  174.7800  145.9230 C   0  0  2  0  0  3  0  0  0  0  0  0
  187.9920  176.2950  145.5580 N   0  0  0  0  0  0  0  0  0  0  0  0
  190.2220  172.5110  143.7380 N   0  0  0  0  0  2  0  0  0  0  0  0
  194.7140  176.2080  146.4750 C   0  0  0  0  0  3  0  0  0  0  0  0
  190.0340  174.8860  142.9500 C   0  0  2  0  0  3  0  0  0  0  0  0
  188.7970  174.2730  142.2920 C   0  0  0  0  0  2  0  0  0  0  0  0
  190.1060  175.2330  147.2420 O   0  0  0  0  0  0  0  0  0  0  0  0
  192.2900  175.9780  146.6130 C   0  0  0  0  0  0  0  0  0  0  0  0
  193.4150  176.5000  147.1070 C   0  0  0  0  0  3  0  0  0  0  0  0
  187.4230  178.4700  144.8640 O   0  0  0  0  0  0  0  0  0  0  0  0
  187.1240  177.2470  144.9220 C   0  0  0  0  0  0  0  0  0  0  0  0
  185.3820  178.2580  141.8640 C   0  0  0  0  0  0  0  0  0  0  0  0
  186.0360  176.1240  142.9490 C   0  0  0  0  0  2  0  0  0  0  0  0
  184.5800  178.5150  145.4720 O   0  0  0  0  0  1  0  0  0  0  0  0
  184.8880  178.6530  140.8220 O   0  0  0  0  0  0  0  0  0  0  0  0
  186.3750  177.1370  141.8530 C   0  0  0  0  0  2  0  0  0  0  0  0
  184.7530  177.8950  144.2340 C   0  0  2  0  0  3  0  0  0  0  0  0
  185.8270  176.7930  144.3130 C   0  0  2  0  0  3  0  0  0  0  0  0
  185.0600  178.9390  143.1590 C   0  0  0  0  0  2  0  0  0  0  0  0
  1  9  1  1  0  0  0
  1 15  1  0  0  0  0
  2  3  1  0  0  0  0
  2 13  1  0  0  0  0
  3 20  1  0  0  0  0
  4 16  2  0  0  0  0
  5  2  1  0  0  0  0
  6 18  1  0  0  0  0
  6  1  1  0  0  0  0
  7  3  1  0  0  0  0
  7  4  1  0  0  0  0
  8 14  2  0  0  0  0
  8 13  1  0  0  0  0
 10 19  1  0  0  0  0
 11  4  1  0  0  0  0
 12  8  1  0  0  0  0
 13 19  1  0  0  0  0
 15  5  1  0  0  0  0
 16 21  1  0  0  0  0
 17 12  1  0  0  0  0
 17  5  1  0  0  0  0
 18 17  1  0  0  0  0
 20 21  2  0  0  0  0
 20 10  1  0  0  0  0
 22 23  2  0  0  0  0
 23 14  1  0  0  0  0
 24 31  1  0  0  0  0
 25 30  1  0  0  0  0
 27 24  2  0  0  0  0
 28 24  1  0  0  0  0
 28 25  1  0  0  0  0
 29 30  1  0  0  0  0
 29 26  1  0  0  0  0
 30 23  1  0  0  0  0
 31 29  1  0  0  0  0
M  END
>  <MODEL>
3

>  <REMARK>
 VINA RESULT:      -8.5      1.243      1.473
  Name = 
  2 active torsions:
  status: ('A' for Active; 'I' for Inactive)
    1  A    between atoms: C_5  and  N_16
    2  A    between atoms: C_5  and  C_30
                            x       y       z     vdW  Elec       q    Type
                         _______ _______ _______ _____ _____    ______ ____

>  <TORSDO>
F 2

$$$$
=
 OpenBabel11112416473D

 31 35  0  0  1  0  0  0  0  0999 V2000
  193.0490  176.1710  146.8880 C   0  0  2  0  0  3  0  0  0  0  0  0
  191.7920  174.3000  143.9090 C   0  0  2  0  0  3  0  0  0  0  0  0
  191.4070  172.8160  143.8280 C   0  0  2  0  0  3  0  0  0  0  0  0
  192.3920  170.5010  143.7790 C   0  0  0  0  0  0  0  0  0  0  0  0
  191.9050  174.7520  145.3740 C   0  0  1  0  0  3  0  0  0  0  0  0
  191.7690  176.7060  147.5460 C   0  0  0  0  0  2  0  0  0  0  0  0
  192.6260  171.9400  144.1500 C   0  0  0  0  0  2  0  0  0  0  0  0
  189.5410  175.5070  143.8210 C   0  0  0  0  0  0  0  0  0  0  0  0
  194.0620  177.1010  147.0250 F   0  0  0  0  0  0  0  0  0  0  0  0
  190.0010  173.5080  141.7790 C   0  0  0  0  0  2  0  0  0  0  0  0
  193.0630  169.5240  144.4350 F   0  0  0  0  0  0  0  0  0  0  0  0
  189.3160  174.8810  145.1690 C   0  0  0  0  0  2  0  0  0  0  0  0
  190.8360  175.2140  143.1060 C   0  0  2  0  0  3  0  0  0  0  0  0
  188.6620  176.2730  143.2450 N   0  0  0  0  0  0  0  0  0  0  0  0
  192.8420  175.8730  145.4730 N   0  0  0  0  0  2  0  0  0  0  0  0
  191.6140  170.1850  142.7410 C   0  0  0  0  0  3  0  0  0  0  0  0
  190.5410  175.0680  146.0680 C   0  0  2  0  0  3  0  0  0  0  0  0
  190.5220  176.4630  146.6960 C   0  0  0  0  0  2  0  0  0  0  0  0
  190.6560  174.7590  141.7750 O   0  0  0  0  0  0  0  0  0  0  0  0
  190.8290  172.4790  142.4750 C   0  0  0  0  0  0  0  0  0  0  0  0
  190.8700  171.2280  142.0120 C   0  0  0  0  0  3  0  0  0  0  0  0
  186.3370  176.0140  143.5070 O   0  0  0  0  0  0  0  0  0  0  0  0
  187.3800  176.6770  143.7550 C   0  0  0  0  0  0  0  0  0  0  0  0
  184.6560  177.9570  145.8410 C   0  0  0  0  0  0  0  0  0  0  0  0
  187.0980  177.5840  146.0860 C   0  0  0  0  0  2  0  0  0  0  0  0
  186.3160  179.1800  142.7630 O   0  0  0  0  0  1  0  0  0  0  0  0
  183.6980  178.2910  146.5160 O   0  0  0  0  0  0  0  0  0  0  0  0
  185.7010  177.0460  146.4080 C   0  0  0  0  0  2  0  0  0  0  0  0
  186.1750  178.8970  144.1220 C   0  0  2  0  0  3  0  0  0  0  0  0
  187.2630  177.9160  144.5980 C   0  0  2  0  0  3  0  0  0  0  0  0
  184.7610  178.3910  144.4110 C   0  0  0  0  0  2  0  0  0  0  0  0
  1  9  1  6  0  0  0
  1  6  1  0  0  0  0
  2  5  1  0  0  0  0
  3  2  1  0  0  0  0
  3  7  1  0  0  0  0
  4  7  1  0  0  0  0
  4 11  1  0  0  0  0
  5 15  1  0  0  0  0
  5 17  1  0  0  0  0
  8 12  1  0  0  0  0
 10 20  1  0  0  0  0
 12 17  1  0  0  0  0
 13  8  1  0  0  0  0
 13  2  1  0  0  0  0
 14 23  1  0  0  0  0
 14  8  2  0  0  0  0
 15  1  1  0  0  0  0
 16  4  2  0  0  0  0
 17 18  1  0  0  0  0
 18  6  1  0  0  0  0
 19 10  1  0  0  0  0
 19 13  1  0  0  0  0
 20  3  1  0  0  0  0
 21 20  2  0  0  0  0
 21 16  1  0  0  0  0
 22 23  2  0  0  0  0
 23 30  1  0  0  0  0
 24 28  1  0  0  0  0
 24 27  2  0  0  0  0
 25 28  1  0  0  0  0
 26 29  1  0  0  0  0
 29 31  1  0  0  0  0
 29 30  1  0  0  0  0
 30 25  1  0  0  0  0
 31 24  1  0  0  0  0
M  END
>  <MODEL>
4

>  <REMARK>
 VINA RESULT:      -8.5      2.586      4.785
  Name = 
  2 active torsions:
  status: ('A' for Active; 'I' for Inactive)
    1  A    between atoms: C_5  and  N_16
    2  A    between atoms: C_5  and  C_30
                            x       y       z     vdW  Elec       q    Type
                         _______ _______ _______ _____ _____    ______ ____

>  <TORSDO>
F 2

$$$$
=
 OpenBabel11112416473D

 31 35  0  0  1  0  0  0  0  0999 V2000
  187.0580  176.6120  140.2820 C   0  0  2  0  0  3  0  0  0  0  0  0
  188.0000  177.4370  143.8010 C   0  0  2  0  0  3  0  0  0  0  0  0
  187.2690  177.0280  145.0870 C   0  0  2  0  0  3  0  0  0  0  0  0
  185.2060  177.5060  146.4480 C   0  0  0  0  0  0  0  0  0  0  0  0
  187.5070  176.6020  142.6080 C   0  0  1  0  0  3  0  0  0  0  0  0
  187.7990  175.2960  140.0080 C   0  0  0  0  0  2  0  0  0  0  0  0
  185.8470  177.6060  145.0910 C   0  0  0  0  0  2  0  0  0  0  0  0
  190.1000  175.9820  143.8180 C   0  0  0  0  0  0  0  0  0  0  0  0
  187.0420  177.3810  139.1340 F   0  0  0  0  0  0  0  0  0  0  0  0
  189.5330  177.4360  146.2550 C   0  0  0  0  0  2  0  0  0  0  0  0
  183.8570  177.4470  146.5470 F   0  0  0  0  0  0  0  0  0  0  0  0
  189.1380  174.8450  143.6140 C   0  0  0  0  0  2  0  0  0  0  0  0
  189.5390  177.3760  143.9390 C   0  0  2  0  0  3  0  0  0  0  0  0
  191.3860  175.8090  143.9090 N   0  0  0  0  0  0  0  0  0  0  0  0
  187.6790  177.3630  141.3690 N   0  0  0  0  0  2  0  0  0  0  0  0
  185.9470  177.5840  147.5570 C   0  0  0  0  0  3  0  0  0  0  0  0
  188.1320  175.1730  142.5080 C   0  0  2  0  0  3  0  0  0  0  0  0
  188.7570  174.9110  141.1360 C   0  0  0  0  0  2  0  0  0  0  0  0
  190.0000  178.0730  145.0850 O   0  0  0  0  0  0  0  0  0  0  0  0
  188.0410  177.4590  146.3110 C   0  0  0  0  0  0  0  0  0  0  0  0
  187.4180  177.6460  147.4770 C   0  0  0  0  0  3  0  0  0  0  0  0
  191.8840  173.7450  142.8930 O   0  0  0  0  0  0  0  0  0  0  0  0
  192.1150  174.5740  143.8140 C   0  0  0  0  0  0  0  0  0  0  0  0
  194.0360  176.6930  146.1010 C   0  0  0  0  0  0  0  0  0  0  0  0
  192.7290  174.5880  146.2560 C   0  0  0  0  0  2  0  0  0  0  0  0
  194.9460  174.5640  143.2090 O   0  0  0  0  0  1  0  0  0  0  0  0
  194.6130  177.4800  146.8320 O   0  0  0  0  0  0  0  0  0  0  0  0
  192.7260  176.0970  146.5160 C   0  0  0  0  0  2  0  0  0  0  0  0
  194.5530  174.8600  144.5150 C   0  0  2  0  0  3  0  0  0  0  0  0
  193.1750  174.2470  144.8280 C   0  0  2  0  0  3  0  0  0  0  0  0
  194.5910  176.3710  144.7470 C   0  0  0  0  0  2  0  0  0  0  0  0
  1  9  1  6  0  0  0
  1 15  1  0  0  0  0
  2 13  1  0  0  0  0
  2  3  1  0  0  0  0
  3  7  1  0  0  0  0
  3 20  1  0  0  0  0
  4 11  1  0  0  0  0
  4 16  2  0  0  0  0
  5  2  1  0  0  0  0
  6  1  1  0  0  0  0
  6 18  1  0  0  0  0
  7  4  1  0  0  0  0
  8 14  2  0  0  0  0
  8 13  1  0  0  0  0
 10 20  1  0  0  0  0
 12  8  1  0  0  0  0
 13 19  1  0  0  0  0
 15  5  1  0  0  0  0
 17  5  1  0  0  0  0
 17 12  1  0  0  0  0
 18 17  1  0  0  0  0
 19 10  1  0  0  0  0
 20 21  2  0  0  0  0
 21 16  1  0  0  0  0
 22 23  2  0  0  0  0
 23 14  1  0  0  0  0
 23 30  1  0  0  0  0
 24 28  1  0  0  0  0
 24 27  2  0  0  0  0
 25 28  1  0  0  0  0
 26 29  1  0  0  0  0
 29 31  1  0  0  0  0
 29 30  1  0  0  0  0
 30 25  1  0  0  0  0
 31 24  1  0  0  0  0
M  END
>  <MODEL>
5

>  <REMARK>
 VINA RESULT:      -8.4      3.211      7.078
  Name = 
  2 active torsions:
  status: ('A' for Active; 'I' for Inactive)
    1  A    between atoms: C_5  and  N_16
    2  A    between atoms: C_5  and  C_30
                            x       y       z     vdW  Elec       q    Type
                         _______ _______ _______ _____ _____    ______ ____

>  <TORSDO>
F 2

$$$$
=
 OpenBabel11112416473D

 31 35  0  0  1  0  0  0  0  0999 V2000
  190.8970  171.3380  142.0820 C   0  0  2  0  0  3  0  0  0  0  0  0
  191.2440  173.8410  144.8340 C   0  0  2  0  0  3  0  0  0  0  0  0
  192.3500  174.8890  145.0130 C   0  0  2  0  0  3  0  0  0  0  0  0
  194.7710  175.1440  145.6540 C   0  0  0  0  0  0  0  0  0  0  0  0
  191.2660  173.2670  143.4080 C   0  0  1  0  0  3  0  0  0  0  0  0
  190.0530  172.0710  141.0300 C   0  0  0  0  0  2  0  0  0  0  0  0
  193.7120  174.1950  145.1640 C   0  0  0  0  0  2  0  0  0  0  0  0
  189.2160  175.2270  144.1310 C   0  0  0  0  0  0  0  0  0  0  0  0
  190.5540  170.0000  142.1000 F   0  0  0  0  0  0  0  0  0  0  0  0
  190.6370  176.1420  146.4800 C   0  0  0  0  0  2  0  0  0  0  0  0
  196.0700  174.9100  145.3510 F   0  0  0  0  0  0  0  0  0  0  0  0
  190.0020  175.4760  142.8740 C   0  0  0  0  0  2  0  0  0  0  0  0
  189.8410  174.3770  145.2070 C   0  0  2  0  0  3  0  0  0  0  0  0
  188.0310  175.7270  144.3310 N   0  0  0  0  0  0  0  0  0  0  0  0
  190.7140  171.9100  143.4130 N   0  0  0  0  0  2  0  0  0  0  0  0
  194.4550  176.1510  146.4730 C   0  0  0  0  0  3  0  0  0  0  0  0
  190.5860  174.1700  142.3290 C   0  0  2  0  0  3  0  0  0  0  0  0
  189.5210  173.4140  141.5310 C   0  0  0  0  0  2  0  0  0  0  0  0
  189.8270  174.9860  146.4890 O   0  0  0  0  0  0  0  0  0  0  0  0
  192.0590  175.7890  146.1890 C   0  0  0  0  0  0  0  0  0  0  0  0
  193.0480  176.4300  146.8170 C   0  0  0  0  0  3  0  0  0  0  0  0
  186.7330  176.0710  142.3980 O   0  0  0  0  0  0  0  0  0  0  0  0
  187.2620  176.5500  143.4370 C   0  0  0  0  0  0  0  0  0  0  0  0
  184.5140  178.3980  144.9980 C   0  0  0  0  0  0  0  0  0  0  0  0
  186.9820  178.2880  145.2360 C   0  0  0  0  0  2  0  0  0  0  0  0
  185.9940  178.3930  141.6010 O   0  0  0  0  0  1  0  0  0  0  0  0
  183.5540  178.9190  145.5390 O   0  0  0  0  0  0  0  0  0  0  0  0
  185.6370  177.8440  145.8190 C   0  0  0  0  0  2  0  0  0  0  0  0
  185.9110  178.6630  142.9680 C   0  0  2  0  0  3  0  0  0  0  0  0
  187.0810  178.0120  143.7310 C   0  0  2  0  0  3  0  0  0  0  0  0
  184.5460  178.2360  143.5090 C   0  0  0  0  0  2  0  0  0  0  0  0
  1  9  1  1  0  0  0
  1 15  1  0  0  0  0
  2  3  1  0  0  0  0
  2 13  1  0  0  0  0
  3  7  1  0  0  0  0
  3 20  1  0  0  0  0
  4 16  2  0  0  0  0
  5 15  1  0  0  0  0
  5  2  1  0  0  0  0
  6 18  1  0  0  0  0
  6  1  1  0  0  0  0
  7  4  1  0  0  0  0
  8 14  2  0  0  0  0
  8 13  1  0  0  0  0
 10 19  1  0  0  0  0
 11  4  1  0  0  0  0
 12  8  1  0  0  0  0
 13 19  1  0  0  0  0
 16 21  1  0  0  0  0
 17 12  1  0  0  0  0
 17  5  1  0  0  0  0
 18 17  1  0  0  0  0
 20 10  1  0  0  0  0
 20 21  2  0  0  0  0
 22 23  2  0  0  0  0
 23 30  1  0  0  0  0
 23 14  1  0  0  0  0
 24 27  2  0  0  0  0
 24 28  1  0  0  0  0
 25 28  1  0  0  0  0
 26 29  1  0  0  0  0
 29 31  1  0  0  0  0
 29 30  1  0  0  0  0
 30 25  1  0  0  0  0
 31 24  1  0  0  0  0
M  END
>  <MODEL>
6

>  <REMARK>
 VINA RESULT:      -8.2      1.699      2.457
  Name = 
  2 active torsions:
  status: ('A' for Active; 'I' for Inactive)
    1  A    between atoms: C_5  and  N_16
    2  A    between atoms: C_5  and  C_30
                            x       y       z     vdW  Elec       q    Type
                         _______ _______ _______ _____ _____    ______ ____

>  <TORSDO>
F 2

$$$$
=
 OpenBabel11112416473D

 31 35  0  0  1  0  0  0  0  0999 V2000
  188.3350  174.5390  140.9980 C   0  0  2  0  0  3  0  0  0  0  0  0
  188.6710  176.5830  144.1070 C   0  0  2  0  0  3  0  0  0  0  0  0
  187.8570  176.4590  145.4030 C   0  0  2  0  0  3  0  0  0  0  0  0
  185.5860  176.9250  146.3840 C   0  0  0  0  0  0  0  0  0  0  0  0
  188.4770  175.3400  143.2240 C   0  0  1  0  0  3  0  0  0  0  0  0
  189.3080  173.3740  141.2250 C   0  0  0  0  0  2  0  0  0  0  0  0
  186.3710  176.7210  145.1170 C   0  0  0  0  0  2  0  0  0  0  0  0
  190.9590  175.6430  144.7460 C   0  0  0  0  0  0  0  0  0  0  0  0
  188.3420  174.8950  139.6630 F   0  0  0  0  0  0  0  0  0  0  0  0
  189.8560  177.6420  146.5250 C   0  0  0  0  0  2  0  0  0  0  0  0
  184.2630  176.6370  146.4040 F   0  0  0  0  0  0  0  0  0  0  0  0
  190.2290  174.3340  144.8620 C   0  0  0  0  0  2  0  0  0  0  0  0
  190.1690  176.8690  144.3630 C   0  0  2  0  0  3  0  0  0  0  0  0
  192.2340  175.7620  144.9780 N   0  0  0  0  0  0  0  0  0  0  0  0
  188.6820  175.6960  141.8180 N   0  0  0  0  0  2  0  0  0  0  0  0
  186.1570  177.4860  147.4540 C   0  0  0  0  0  3  0  0  0  0  0  0
  189.3330  174.1010  143.6430 C   0  0  2  0  0  3  0  0  0  0  0  0
  190.1630  173.5530  142.4800 C   0  0  0  0  0  2  0  0  0  0  0  0
  190.3600  177.9630  145.2450 O   0  0  0  0  0  0  0  0  0  0  0  0
  188.3850  177.3910  146.4660 C   0  0  0  0  0  0  0  0  0  0  0  0
  187.5960  177.8050  147.4600 C   0  0  0  0  0  3  0  0  0  0  0  0
  193.1870  174.2550  146.5150 O   0  0  0  0  0  0  0  0  0  0  0  0
  193.1600  174.7250  145.3450 C   0  0  0  0  0  0  0  0  0  0  0  0
  196.1130  172.5890  145.6860 C   0  0  0  0  0  0  0  0  0  0  0  0
  194.0850  172.6520  144.2580 C   0  0  0  0  0  2  0  0  0  0  0  0
  195.5970  176.0880  144.5850 O   0  0  0  0  0  1  0  0  0  0  0  0
  197.0710  171.8660  145.9020 O   0  0  0  0  0  0  0  0  0  0  0  0
  194.7540  171.9990  145.4690 C   0  0  0  0  0  2  0  0  0  0  0  0
  195.5680  174.6960  144.5000 C   0  0  2  0  0  3  0  0  0  0  0  0
  194.1250  174.1840  144.3290 C   0  0  2  0  0  3  0  0  0  0  0  0
  196.2710  174.0780  145.7100 C   0  0  0  0  0  2  0  0  0  0  0  0
  1  9  1  6  0  0  0
  1  6  1  0  0  0  0
  1 15  1  0  0  0  0
  2 13  1  0  0  0  0
  2  3  1  0  0  0  0
  3 20  1  0  0  0  0
  4 11  1  0  0  0  0
  4 16  2  0  0  0  0
  5 17  1  0  0  0  0
  5  2  1  0  0  0  0
  6 18  1  0  0  0  0
  7  3  1  0  0  0  0
  7  4  1  0  0  0  0
  8 12  1  0  0  0  0
  8 14  2  0  0  0  0
 13  8  1  0  0  0  0
 13 19  1  0  0  0  0
 14 23  1  0  0  0  0
 15  5  1  0  0  0  0
 16 21  1  0  0  0  0
 17 12  1  0  0  0  0
 18 17  1  0  0  0  0
 19 10  1  0  0  0  0
 20 10  1  0  0  0  0
 20 21  2  0  0  0  0
 23 22  2  0  0  0  0
 24 31  1  0  0  0  0
 24 27  2  0  0  0  0
 25 30  1  0  0  0  0
 25 28  1  0  0  0  0
 28 24  1  0  0  0  0
 29 26  1  0  0  0  0
 29 31  1  0  0  0  0
 30 29  1  0  0  0  0
 30 23  1  0  0  0  0
M  END
>  <MODEL>
7

>  <REMARK>
 VINA RESULT:      -8.1      3.071      7.589
  Name = 
  2 active torsions:
  status: ('A' for Active; 'I' for Inactive)
    1  A    between atoms: C_5  and  N_16
    2  A    between atoms: C_5  and  C_30
                            x       y       z     vdW  Elec       q    Type
                         _______ _______ _______ _____ _____    ______ ____

>  <TORSDO>
F 2

$$$$
=
 OpenBabel11112416473D

 31 35  0  0  1  0  0  0  0  0999 V2000
  194.3660  176.0350  145.6060 C   0  0  2  0  0  3  0  0  0  0  0  0
  191.5880  174.6410  143.5320 C   0  0  2  0  0  3  0  0  0  0  0  0
  191.0930  173.1890  143.4840 C   0  0  2  0  0  3  0  0  0  0  0  0
  191.7070  170.9000  142.6370 C   0  0  0  0  0  0  0  0  0  0  0  0
  192.4850  174.8680  144.7610 C   0  0  1  0  0  3  0  0  0  0  0  0
  193.6660  176.4750  146.9000 C   0  0  0  0  0  2  0  0  0  0  0  0
  192.2210  172.2650  143.0040 C   0  0  0  0  0  2  0  0  0  0  0  0
  189.7330  175.8640  144.7930 C   0  0  0  0  0  0  0  0  0  0  0  0
  195.3770  176.9260  145.3020 F   0  0  0  0  0  0  0  0  0  0  0  0
  188.8910  174.1910  142.5870 C   0  0  0  0  0  2  0  0  0  0  0  0
  192.5350  169.8310  142.7140 F   0  0  0  0  0  0  0  0  0  0  0  0
  190.1890  175.0450  145.9680 C   0  0  0  0  0  2  0  0  0  0  0  0
  190.4360  175.6720  143.4740 C   0  0  2  0  0  3  0  0  0  0  0  0
  188.7510  176.7140  144.8670 N   0  0  0  0  0  0  0  0  0  0  0  0
  193.4290  175.9540  144.4890 N   0  0  0  0  0  2  0  0  0  0  0  0
  190.4790  170.7490  142.1350 C   0  0  0  0  0  3  0  0  0  0  0  0
  191.7140  175.0860  146.1020 C   0  0  2  0  0  3  0  0  0  0  0  0
  192.1430  176.3710  146.8120 C   0  0  0  0  0  2  0  0  0  0  0  0
  189.5520  175.4240  142.3930 O   0  0  0  0  0  0  0  0  0  0  0  0
  189.8700  173.0630  142.6090 C   0  0  0  0  0  0  0  0  0  0  0  0
  189.5560  171.8950  142.0430 C   0  0  0  0  0  3  0  0  0  0  0  0
  188.4850  177.5580  147.0480 O   0  0  0  0  0  0  0  0  0  0  0  0
  187.9610  177.0470  146.0210 C   0  0  0  0  0  0  0  0  0  0  0  0
  185.1360  179.0060  144.7630 C   0  0  0  0  0  0  0  0  0  0  0  0
  185.9200  176.6570  144.6010 C   0  0  0  0  0  2  0  0  0  0  0  0
  186.1930  177.9160  148.1420 O   0  0  0  0  0  1  0  0  0  0  0  0
  184.2660  179.7260  144.3020 O   0  0  0  0  0  0  0  0  0  0  0  0
  185.8350  178.0100  143.8900 C   0  0  0  0  0  2  0  0  0  0  0  0
  185.6670  177.7890  146.8560 C   0  0  2  0  0  3  0  0  0  0  0  0
  186.4820  176.7830  146.0220 C   0  0  2  0  0  3  0  0  0  0  0  0
  185.5680  179.1620  146.1890 C   0  0  0  0  0  2  0  0  0  0  0  0
  1  9  1  6  0  0  0
  1  6  1  0  0  0  0
  2  5  1  0  0  0  0
  3  2  1  0  0  0  0
  4 11  1  0  0  0  0
  4  7  1  0  0  0  0
  5 17  1  0  0  0  0
  7  3  1  0  0  0  0
  8 14  2  0  0  0  0
  8 12  1  0  0  0  0
 10 20  1  0  0  0  0
 12 17  1  0  0  0  0
 13  2  1  0  0  0  0
 13  8  1  0  0  0  0
 14 23  1  0  0  0  0
 15  5  1  0  0  0  0
 15  1  1  0  0  0  0
 16  4  2  0  0  0  0
 17 18  1  0  0  0  0
 18  6  1  0  0  0  0
 19 10  1  0  0  0  0
 19 13  1  0  0  0  0
 20  3  1  0  0  0  0
 21 16  1  0  0  0  0
 21 20  2  0  0  0  0
 23 30  1  0  0  0  0
 23 22  2  0  0  0  0
 24 31  1  0  0  0  0
 25 30  1  0  0  0  0
 27 24  2  0  0  0  0
 28 25  1  0  0  0  0
 28 24  1  0  0  0  0
 29 26  1  0  0  0  0
 30 29  1  0  0  0  0
 31 29  1  0  0  0  0
M  END
>  <MODEL>
8

>  <REMARK>
 VINA RESULT:      -8.0      2.021      4.522
  Name = 
  2 active torsions:
  status: ('A' for Active; 'I' for Inactive)
    1  A    between atoms: C_5  and  N_16
    2  A    between atoms: C_5  and  C_30
                            x       y       z     vdW  Elec       q    Type
                         _______ _______ _______ _____ _____    ______ ____

>  <TORSDO>
F 2

$$$$
=
 OpenBabel11112416473D

 31 35  0  0  1  0  0  0  0  0999 V2000
  186.5980  177.3750  147.0730 C   0  0  2  0  0  3  0  0  0  0  0  0
  187.1880  176.2150  143.5720 C   0  0  2  0  0  3  0  0  0  0  0  0
  187.0700  177.0360  142.2800 C   0  0  2  0  0  3  0  0  0  0  0  0
  185.3860  178.0770  140.7260 C   0  0  0  0  0  0  0  0  0  0  0  0
  187.2240  177.1380  144.8000 C   0  0  1  0  0  3  0  0  0  0  0  0
  187.9800  177.8620  147.5310 C   0  0  0  0  0  2  0  0  0  0  0  0
  185.6310  177.5460  142.1120 C   0  0  0  0  0  2  0  0  0  0  0  0
  189.7090  175.9110  143.8590 C   0  0  0  0  0  0  0  0  0  0  0  0
  185.9420  176.7840  148.1350 F   0  0  0  0  0  0  0  0  0  0  0  0
  188.6310  175.2560  141.2540 C   0  0  0  0  0  2  0  0  0  0  0  0
  184.4320  179.0180  140.5300 F   0  0  0  0  0  0  0  0  0  0  0  0
  189.7140  177.3950  144.0990 C   0  0  0  0  0  2  0  0  0  0  0  0
  188.3920  175.2430  143.5580 C   0  0  2  0  0  3  0  0  0  0  0  0
  190.7910  175.1900  143.8830 N   0  0  0  0  0  0  0  0  0  0  0  0
  186.7010  176.4260  145.9680 N   0  0  0  0  0  2  0  0  0  0  0  0
  186.0220  177.5530  139.6750 C   0  0  0  0  0  3  0  0  0  0  0  0
  188.6140  177.7910  145.0880 C   0  0  2  0  0  3  0  0  0  0  0  0
  189.0830  177.5410  146.5220 C   0  0  0  0  0  2  0  0  0  0  0  0
  188.4180  174.4420  142.3880 O   0  0  0  0  0  0  0  0  0  0  0  0
  187.5110  176.2290  141.0830 C   0  0  0  0  0  0  0  0  0  0  0  0
  187.0670  176.5300  139.8600 C   0  0  0  0  0  3  0  0  0  0  0  0
  192.7740  176.3290  143.3240 O   0  0  0  0  0  0  0  0  0  0  0  0
  192.1330  175.6280  144.1540 C   0  0  0  0  0  0  0  0  0  0  0  0
  195.6220  174.8610  144.9550 C   0  0  0  0  0  0  0  0  0  0  0  0
  193.8280  176.2980  145.8900 C   0  0  0  0  0  2  0  0  0  0  0  0
  192.4880  172.8870  145.0130 O   0  0  0  0  0  1  0  0  0  0  0  0
  196.8090  174.6350  145.1220 O   0  0  0  0  0  0  0  0  0  0  0  0
  195.1000  176.2620  145.0400 C   0  0  0  0  0  2  0  0  0  0  0  0
  193.4180  173.8360  145.4390 C   0  0  2  0  0  3  0  0  0  0  0  0
  192.8020  175.2490  145.4440 C   0  0  2  0  0  3  0  0  0  0  0  0
  194.6860  173.7510  144.5880 C   0  0  0  0  0  2  0  0  0  0  0  0
  1  6  1  0  0  0  0
  1  9  1  1  0  0  0
  2  5  1  0  0  0  0
  3  2  1  0  0  0  0
  4  7  1  0  0  0  0
  5 17  1  0  0  0  0
  5 15  1  0  0  0  0
  7  3  1  0  0  0  0
  8 14  2  0  0  0  0
  8 12  1  0  0  0  0
 10 19  1  0  0  0  0
 11  4  1  0  0  0  0
 12 17  1  0  0  0  0
 13  2  1  0  0  0  0
 13  8  1  0  0  0  0
 14 23  1  0  0  0  0
 15  1  1  0  0  0  0
 16 21  1  0  0  0  0
 16  4  2  0  0  0  0
 17 18  1  0  0  0  0
 18  6  1  0  0  0  0
 19 13  1  0  0  0  0
 20 10  1  0  0  0  0
 20  3  1  0  0  0  0
 21 20  2  0  0  0  0
 22 23  2  0  0  0  0
 23 30  1  0  0  0  0
 24 28  1  0  0  0  0
 24 27  2  0  0  0  0
 26 29  1  0  0  0  0
 28 25  1  0  0  0  0
 29 30  1  0  0  0  0
 30 25  1  0  0  0  0
 31 24  1  0  0  0  0
 31 29  1  0  0  0  0
M  END
>  <MODEL>
9

>  <REMARK>
 VINA RESULT:      -7.9      3.663      7.975
  Name = 
  2 active torsions:
  status: ('A' for Active; 'I' for Inactive)
    1  A    between atoms: C_5  and  N_16
    2  A    between atoms: C_5  and  C_30
                            x       y       z     vdW  Elec       q    Type
                         _______ _______ _______ _____ _____    ______ ____

>  <TORSDO>
F 2

$$$$
