=
 OpenBabel11112417393D

 28 32  0  0  1  0  0  0  0  0999 V2000
  192.5870  174.6770  145.2570 C   0  0  0  0  0  0  0  0  0  0  0  0
  189.4560  175.4040  147.1170 O   0  0  0  0  0  0  0  0  0  0  0  0
  188.0560  174.7270  140.8810 O   0  0  0  0  0  0  0  0  0  0  0  0
  194.1840  176.9800  145.2910 C   0  0  0  0  0  3  0  0  0  0  0  0
  188.4640  176.8520  141.8100 N   0  0  0  0  0  0  0  0  0  0  0  0
  191.7800  173.4170  145.1930 C   0  0  0  0  0  2  0  0  0  0  0  0
  190.0650  177.6930  147.7700 O   0  0  0  0  0  0  0  0  0  0  0  0
  189.2900  176.8620  146.7880 S   0  0  0  0  0  0  0  0  0  0  0  0
  186.8540  177.3540  145.6700 C   0  0  0  0  0  0  0  0  0  0  0  0
  189.8880  177.2150  145.1330 C   0  0  2  0  0  3  0  0  0  0  0  0
  192.0580  172.7090  141.5240 O   0  0  0  0  0  1  0  0  0  0  0  0
  190.4630  176.2470  142.9800 C   0  0  2  0  0  3  0  0  0  0  0  0
  187.4680  176.9560  144.3690 C   0  0  0  0  0  2  0  0  0  0  0  0
  187.6190  177.2850  146.8700 N   0  0  0  0  0  2  0  0  0  0  0  0
  191.6810  173.4220  142.6610 C   0  0  1  0  0  3  0  0  0  0  0  0
  192.0270  175.9240  144.9030 C   0  0  0  0  0  0  0  0  0  0  0  0
  188.7600  175.4910  141.5940 C   0  0  0  0  0  0  0  0  0  0  0  0
  185.5940  177.6230  145.7280 N   0  0  0  0  0  2  0  0  0  0  0  0
  190.1840  173.6790  142.6260 C   0  0  0  0  0  2  0  0  0  0  0  0
  192.8430  177.0670  144.9140 C   0  0  0  0  0  3  0  0  0  0  0  0
  193.9330  174.6000  145.6330 C   0  0  0  0  0  3  0  0  0  0  0  0
  194.7270  175.7460  145.6540 C   0  0  0  0  0  3  0  0  0  0  0  0
  192.0620  172.6340  143.9090 C   0  0  0  0  0  2  0  0  0  0  0  0
  189.4300  177.3820  142.7690 C   0  0  2  0  0  3  0  0  0  0  0  0
  189.9170  175.0730  142.2870 N   0  0  0  0  0  0  0  0  0  0  0  0
  188.8120  177.6740  144.1490 C   0  0  2  0  0  3  0  0  0  0  0  0
  187.4280  177.6180  141.1400 C   0  0  0  0  0  1  0  0  0  0  0  0
  190.5820  176.0280  144.4850 C   0  0  1  0  0  3  0  0  0  0  0  0
  1 21  1  0  0  0  0
  3 17  2  0  0  0  0
  4 22  1  0  0  0  0
  6  1  1  0  0  0  0
  8 14  1  0  0  0  0
  8  2  2  0  0  0  0
  8  7  2  0  0  0  0
  9 18  2  0  0  0  0
  9 14  1  0  0  0  0
 10  8  1  1  0  0  0
 12 25  1  6  0  0  0
 12 28  1  0  0  0  0
 13  9  1  0  0  0  0
 15 11  1  6  0  0  0
 15 23  1  0  0  0  0
 16 20  1  0  0  0  0
 16  1  2  0  0  0  0
 17  5  1  0  0  0  0
 17 25  1  0  0  0  0
 19 15  1  0  0  0  0
 20  4  2  0  0  0  0
 21 22  2  0  0  0  0
 23  6  1  0  0  0  0
 24  5  1  6  0  0  0
 24 12  1  0  0  0  0
 24 26  1  0  0  0  0
 25 19  1  0  0  0  0
 26 13  1  1  0  0  0
 26 10  1  0  0  0  0
 27  5  1  0  0  0  0
 28 16  1  1  0  0  0
 28 10  1  0  0  0  0
M  END
>  <MODEL>
1

>  <REMARK>
 VINA RESULT:      -8.1      0.000      0.000
  Name = 
  0 active torsions:
  status: ('A' for Active; 'I' for Inactive)
                            x       y       z     vdW  Elec       q    Type
                         _______ _______ _______ _____ _____    ______ ____

>  <TORSDO>
F 0

$$$$
=
 OpenBabel11112417393D

 28 32  0  0  1  0  0  0  0  0999 V2000
  186.4720  178.3780  144.3600 C   0  0  0  0  0  0  0  0  0  0  0  0
  190.1820  178.4040  144.4990 O   0  0  0  0  0  0  0  0  0  0  0  0
  188.3180  174.8630  139.4710 O   0  0  0  0  0  0  0  0  0  0  0  0
  185.5210  176.9060  146.5470 C   0  0  0  0  0  3  0  0  0  0  0  0
  188.7850  173.8650  141.5520 N   0  0  0  0  0  0  0  0  0  0  0  0
  186.9130  179.1690  143.1660 C   0  0  0  0  0  2  0  0  0  0  0  0
  190.3750  177.1470  146.6010 O   0  0  0  0  0  0  0  0  0  0  0  0
  190.4300  177.0500  145.1040 S   0  0  0  0  0  0  0  0  0  0  0  0
  192.0910  175.5570  143.5410 C   0  0  0  0  0  0  0  0  0  0  0  0
  189.1940  175.8700  144.5540 C   0  0  2  0  0  3  0  0  0  0  0  0
  184.8110  177.5180  140.5410 O   0  0  0  0  0  1  0  0  0  0  0  0
  187.5070  175.4000  142.8700 C   0  0  2  0  0  3  0  0  0  0  0  0
  190.8740  175.1760  142.7640 C   0  0  0  0  0  2  0  0  0  0  0  0
  191.9860  176.4790  144.6220 N   0  0  0  0  0  2  0  0  0  0  0  0
  185.8010  177.5980  141.5180 C   0  0  1  0  0  3  0  0  0  0  0  0
  187.0100  177.1020  144.6330 C   0  0  0  0  0  0  0  0  0  0  0  0
  188.1850  174.8340  140.7230 C   0  0  0  0  0  0  0  0  0  0  0  0
  193.2530  175.1630  143.1450 N   0  0  0  0  0  2  0  0  0  0  0  0
  187.1220  177.1140  140.9440 C   0  0  0  0  0  2  0  0  0  0  0  0
  186.5150  176.3710  145.7260 C   0  0  0  0  0  3  0  0  0  0  0  0
  185.4750  178.9060  145.1890 C   0  0  0  0  0  3  0  0  0  0  0  0
  185.0040  178.1750  146.2800 C   0  0  0  0  0  3  0  0  0  0  0  0
  185.9220  179.0360  142.0090 C   0  0  0  0  0  2  0  0  0  0  0  0
  188.5000  174.2140  142.9410 C   0  0  2  0  0  3  0  0  0  0  0  0
  187.4400  175.7850  141.4550 N   0  0  0  0  0  0  0  0  0  0  0  0
  189.7390  174.7240  143.7010 C   0  0  2  0  0  3  0  0  0  0  0  0
  189.4990  172.6820  141.1040 C   0  0  0  0  0  1  0  0  0  0  0  0
  188.0770  176.5110  143.7460 C   0  0  1  0  0  3  0  0  0  0  0  0
  1 16  2  0  0  0  0
  1 21  1  0  0  0  0
  2  8  2  0  0  0  0
  3 17  2  0  0  0  0
  6  1  1  0  0  0  0
  8  7  2  0  0  0  0
  9 14  1  0  0  0  0
 10  8  1  6  0  0  0
 12 25  1  6  0  0  0
 12 24  1  0  0  0  0
 12 28  1  0  0  0  0
 13  9  1  0  0  0  0
 14  8  1  0  0  0  0
 15 11  1  6  0  0  0
 15 23  1  0  0  0  0
 16 20  1  0  0  0  0
 17 25  1  0  0  0  0
 17  5  1  0  0  0  0
 18  9  2  0  0  0  0
 19 25  1  0  0  0  0
 19 15  1  0  0  0  0
 20  4  2  0  0  0  0
 21 22  2  0  0  0  0
 22  4  1  0  0  0  0
 23  6  1  0  0  0  0
 24  5  1  6  0  0  0
 24 26  1  0  0  0  0
 26 13  1  6  0  0  0
 26 10  1  0  0  0  0
 27  5  1  0  0  0  0
 28 10  1  0  0  0  0
 28 16  1  1  0  0  0
M  END
>  <MODEL>
2

>  <REMARK>
 VINA RESULT:      -8.1      2.448      5.807
  Name = 
  0 active torsions:
  status: ('A' for Active; 'I' for Inactive)
                            x       y       z     vdW  Elec       q    Type
                         _______ _______ _______ _____ _____    ______ ____

>  <TORSDO>
F 0

$$$$
=
 OpenBabel11112417393D

 28 32  0  0  1  0  0  0  0  0999 V2000
  190.9130  175.3700  142.4350 C   0  0  0  0  0  0  0  0  0  0  0  0
  188.6680  178.1840  141.5230 O   0  0  0  0  0  0  0  0  0  0  0  0
  189.3030  178.0240  147.9160 O   0  0  0  0  0  0  0  0  0  0  0  0
  189.5800  172.9680  141.8800 C   0  0  0  0  0  3  0  0  0  0  0  0
  187.5020  176.9500  146.8480 N   0  0  0  0  0  0  0  0  0  0  0  0
  191.6770  176.6160  142.7630 C   0  0  0  0  0  2  0  0  0  0  0  0
  186.8400  176.7910  140.6560 O   0  0  0  0  0  0  0  0  0  0  0  0
  187.3350  177.5680  141.8420 S   0  0  0  0  0  0  0  0  0  0  0  0
  185.9250  179.1100  143.5930 C   0  0  0  0  0  0  0  0  0  0  0  0
  187.4640  176.4590  143.2480 C   0  0  2  0  0  3  0  0  0  0  0  0
  192.8190  175.7300  146.2200 O   0  0  0  0  0  1  0  0  0  0  0  0
  188.8090  175.8440  145.1760 C   0  0  2  0  0  3  0  0  0  0  0  0
  186.6920  178.4260  144.6760 C   0  0  0  0  0  2  0  0  0  0  0  0
  186.2020  178.8120  142.2280 N   0  0  0  0  0  2  0  0  0  0  0  0
  191.8970  176.0240  145.2170 C   0  0  1  0  0  3  0  0  0  0  0  0
  189.5930  175.1780  142.8970 C   0  0  0  0  0  0  0  0  0  0  0  0
  188.8650  177.2660  147.0110 C   0  0  0  0  0  0  0  0  0  0  0  0
  185.1160  180.0700  143.8880 N   0  0  0  0  0  2  0  0  0  0  0  0
  191.0020  177.1660  145.6690 C   0  0  0  0  0  2  0  0  0  0  0  0
  188.9420  173.9640  142.6210 C   0  0  0  0  0  3  0  0  0  0  0  0
  191.5450  174.3650  141.6940 C   0  0  0  0  0  3  0  0  0  0  0  0
  190.8800  173.1700  141.4140 C   0  0  0  0  0  3  0  0  0  0  0  0
  192.6340  176.3940  143.9350 C   0  0  0  0  0  2  0  0  0  0  0  0
  187.3610  176.1420  145.6390 C   0  0  2  0  0  3  0  0  0  0  0  0
  189.6810  176.6620  146.0290 N   0  0  0  0  0  0  0  0  0  0  0  0
  186.6790  176.8990  144.4840 C   0  0  2  0  0  3  0  0  0  0  0  0
  186.4280  177.2980  147.7620 C   0  0  0  0  0  1  0  0  0  0  0  0
  188.8980  176.2440  143.7060 C   0  0  1  0  0  3  0  0  0  0  0  0
  1  6  1  0  0  0  0
  1 16  1  0  0  0  0
  2  8  2  0  0  0  0
  4 20  1  0  0  0  0
  5 17  1  0  0  0  0
  5 27  1  0  0  0  0
  6 23  1  0  0  0  0
  7  8  2  0  0  0  0
  8 14  1  0  0  0  0
  9 18  2  0  0  0  0
  9 13  1  0  0  0  0
 10  8  1  6  0  0  0
 10 28  1  0  0  0  0
 10 26  1  0  0  0  0
 12 24  1  0  0  0  0
 12 25  1  1  0  0  0
 14  9  1  0  0  0  0
 15 19  1  0  0  0  0
 15 11  1  1  0  0  0
 17  3  2  0  0  0  0
 19 25  1  0  0  0  0
 20 16  2  0  0  0  0
 21  1  2  0  0  0  0
 22 21  1  0  0  0  0
 22  4  2  0  0  0  0
 23 15  1  0  0  0  0
 24  5  1  1  0  0  0
 25 17  1  0  0  0  0
 26 13  1  1  0  0  0
 26 24  1  0  0  0  0
 28 16  1  6  0  0  0
 28 12  1  0  0  0  0
M  END
>  <MODEL>
3

>  <REMARK>
 VINA RESULT:      -8.0      2.440      4.851
  Name = 
  0 active torsions:
  status: ('A' for Active; 'I' for Inactive)
                            x       y       z     vdW  Elec       q    Type
                         _______ _______ _______ _____ _____    ______ ____

>  <TORSDO>
F 0

$$$$
=
 OpenBabel11112417393D

 28 32  0  0  1  0  0  0  0  0999 V2000
  188.8660  175.7950  145.4060 C   0  0  0  0  0  0  0  0  0  0  0  0
  189.9390  173.0120  143.1940 O   0  0  0  0  0  0  0  0  0  0  0  0
  195.1140  175.4490  146.1240 O   0  0  0  0  0  0  0  0  0  0  0  0
  188.0040  177.9180  143.7910 C   0  0  0  0  0  3  0  0  0  0  0  0
  194.4710  176.1870  143.9820 N   0  0  0  0  0  0  0  0  0  0  0  0
  189.3190  174.7030  146.3260 C   0  0  0  0  0  2  0  0  0  0  0  0
  189.3630  174.1200  141.0790 O   0  0  0  0  0  0  0  0  0  0  0  0
  190.4780  173.7970  142.0310 S   0  0  0  0  0  0  0  0  0  0  0  0
  193.0570  173.1060  141.4810 C   0  0  0  0  0  0  0  0  0  0  0  0
  191.2280  175.3300  142.5870 C   0  0  2  0  0  3  0  0  0  0  0  0
  191.5310  176.7050  148.5920 O   0  0  0  0  0  1  0  0  0  0  0  0
  192.1570  176.5070  144.4990 C   0  0  2  0  0  3  0  0  0  0  0  0
  193.4510  174.0810  142.5410 C   0  0  0  0  0  2  0  0  0  0  0  0
  191.6790  172.8640  141.2130 N   0  0  0  0  0  2  0  0  0  0  0  0
  191.1210  176.1320  147.3890 C   0  0  1  0  0  3  0  0  0  0  0  0
  189.6760  176.2360  144.3380 C   0  0  0  0  0  0  0  0  0  0  0  0
  194.2240  175.8540  145.3290 C   0  0  0  0  0  0  0  0  0  0  0  0
  193.9580  172.3820  140.9090 N   0  0  0  0  0  2  0  0  0  0  0  0
  192.2540  175.3030  146.8090 C   0  0  0  0  0  2  0  0  0  0  0  0
  189.2370  177.3100  143.5450 C   0  0  0  0  0  3  0  0  0  0  0  0
  187.6320  176.4110  145.6460 C   0  0  0  0  0  3  0  0  0  0  0  0
  187.2010  177.4660  144.8390 C   0  0  0  0  0  3  0  0  0  0  0  0
  189.8890  175.2670  147.6280 C   0  0  0  0  0  2  0  0  0  0  0  0
  193.1940  176.5040  143.3490 C   0  0  2  0  0  3  0  0  0  0  0  0
  192.8640  175.9980  145.6800 N   0  0  0  0  0  0  0  0  0  0  0  0
  192.7340  175.4300  142.3460 C   0  0  2  0  0  3  0  0  0  0  0  0
  195.7760  176.2750  143.3490 C   0  0  0  0  0  1  0  0  0  0  0  0
  191.0130  175.5930  144.0690 C   0  0  1  0  0  3  0  0  0  0  0  0
  1 21  1  0  0  0  0
  1  6  1  0  0  0  0
  4 22  1  0  0  0  0
  5 17  1  0  0  0  0
  6 23  1  0  0  0  0
  7  8  2  0  0  0  0
  8  2  2  0  0  0  0
  9 13  1  0  0  0  0
 10  8  1  1  0  0  0
 10 28  1  0  0  0  0
 12 25  1  1  0  0  0
 14  9  1  0  0  0  0
 14  8  1  0  0  0  0
 15 23  1  0  0  0  0
 15 11  1  1  0  0  0
 16  1  2  0  0  0  0
 17 25  1  0  0  0  0
 17  3  2  0  0  0  0
 18  9  2  0  0  0  0
 19 15  1  0  0  0  0
 20  4  2  0  0  0  0
 20 16  1  0  0  0  0
 22 21  2  0  0  0  0
 24  5  1  1  0  0  0
 24 12  1  0  0  0  0
 25 19  1  0  0  0  0
 26 13  1  1  0  0  0
 26 10  1  0  0  0  0
 26 24  1  0  0  0  0
 27  5  1  0  0  0  0
 28 16  1  6  0  0  0
 28 12  1  0  0  0  0
M  END
>  <MODEL>
4

>  <REMARK>
 VINA RESULT:      -7.8      2.835      6.198
  Name = 
  0 active torsions:
  status: ('A' for Active; 'I' for Inactive)
                            x       y       z     vdW  Elec       q    Type
                         _______ _______ _______ _____ _____    ______ ____

>  <TORSDO>
F 0

$$$$
=
 OpenBabel11112417393D

 28 32  0  0  1  0  0  0  0  0999 V2000
  188.8220  175.7880  146.0350 C   0  0  0  0  0  0  0  0  0  0  0  0
  189.3160  172.7380  143.9740 O   0  0  0  0  0  0  0  0  0  0  0  0
  195.0040  175.5990  144.8490 O   0  0  0  0  0  0  0  0  0  0  0  0
  187.4090  177.6630  144.5040 C   0  0  0  0  0  3  0  0  0  0  0  0
  193.7110  176.0310  142.9300 N   0  0  0  0  0  0  0  0  0  0  0  0
  189.5850  174.8350  146.9040 C   0  0  0  0  0  2  0  0  0  0  0  0
  188.0740  173.5430  142.0130 O   0  0  0  0  0  0  0  0  0  0  0  0
  189.4400  173.3620  142.6120 S   0  0  0  0  0  0  0  0  0  0  0  0
  191.7640  172.6260  141.3930 C   0  0  0  0  0  0  0  0  0  0  0  0
  190.2440  174.9630  142.7130 C   0  0  2  0  0  3  0  0  0  0  0  0
  192.2750  177.1480  148.1120 O   0  0  0  0  0  1  0  0  0  0  0  0
  191.6460  176.3990  144.0830 C   0  0  2  0  0  3  0  0  0  0  0  0
  192.4100  173.7390  142.1490 C   0  0  0  0  0  2  0  0  0  0  0  0
  190.3830  172.3370  141.5920 N   0  0  0  0  0  2  0  0  0  0  0  0
  191.5500  176.4120  147.1750 C   0  0  1  0  0  3  0  0  0  0  0  0
  189.2500  176.0870  144.7240 C   0  0  0  0  0  0  0  0  0  0  0  0
  193.8980  175.8830  144.3190 C   0  0  0  0  0  0  0  0  0  0  0  0
  192.4850  171.8380  140.6710 N   0  0  0  0  0  2  0  0  0  0  0  0
  192.4950  175.5220  146.3870 C   0  0  0  0  0  2  0  0  0  0  0  0
  188.5380  177.0380  143.9730 C   0  0  0  0  0  3  0  0  0  0  0  0
  187.6890  176.4200  146.5590 C   0  0  0  0  0  3  0  0  0  0  0  0
  186.9830  177.3510  145.7960 C   0  0  0  0  0  3  0  0  0  0  0  0
  190.4920  175.5780  147.8870 C   0  0  0  0  0  2  0  0  0  0  0  0
  192.2880  176.2480  142.6820 C   0  0  2  0  0  3  0  0  0  0  0  0
  192.7010  176.0610  145.0470 N   0  0  0  0  0  0  0  0  0  0  0  0
  191.6010  175.0430  142.0130 C   0  0  2  0  0  3  0  0  0  0  0  0
  194.7580  176.0430  141.9230 C   0  0  0  0  0  1  0  0  0  0  0  0
  190.4740  175.4250  144.1440 C   0  0  1  0  0  3  0  0  0  0  0  0
  1 21  1  0  0  0  0
  1  6  1  0  0  0  0
  4 22  1  0  0  0  0
  5 17  1  0  0  0  0
  6 23  1  0  0  0  0
  7  8  2  0  0  0  0
  8  2  2  0  0  0  0
  9 14  1  0  0  0  0
  9 13  1  0  0  0  0
 10  8  1  1  0  0  0
 10 28  1  0  0  0  0
 12 28  1  0  0  0  0
 12 25  1  1  0  0  0
 14  8  1  0  0  0  0
 15 23  1  0  0  0  0
 15 11  1  1  0  0  0
 16  1  2  0  0  0  0
 17  3  2  0  0  0  0
 17 25  1  0  0  0  0
 18  9  2  0  0  0  0
 19 15  1  0  0  0  0
 20  4  2  0  0  0  0
 20 16  1  0  0  0  0
 22 21  2  0  0  0  0
 24  5  1  1  0  0  0
 24 12  1  0  0  0  0
 25 19  1  0  0  0  0
 26 13  1  1  0  0  0
 26 24  1  0  0  0  0
 26 10  1  0  0  0  0
 27  5  1  0  0  0  0
 28 16  1  6  0  0  0
M  END
>  <MODEL>
5

>  <REMARK>
 VINA RESULT:      -7.8      2.850      5.869
  Name = 
  0 active torsions:
  status: ('A' for Active; 'I' for Inactive)
                            x       y       z     vdW  Elec       q    Type
                         _______ _______ _______ _____ _____    ______ ____

>  <TORSDO>
F 0

$$$$
=
 OpenBabel11112417393D

 28 32  0  0  1  0  0  0  0  0999 V2000
  189.2770  176.5680  144.9900 C   0  0  0  0  0  0  0  0  0  0  0  0
  192.5900  176.6410  143.3140 O   0  0  0  0  0  0  0  0  0  0  0  0
  188.1910  174.5390  139.1260 O   0  0  0  0  0  0  0  0  0  0  0  0
  189.3150  174.5410  146.9250 C   0  0  0  0  0  3  0  0  0  0  0  0
  189.4720  173.0300  140.4020 N   0  0  0  0  0  0  0  0  0  0  0  0
  189.1860  177.6600  143.9680 C   0  0  0  0  0  2  0  0  0  0  0  0
  193.6110  174.8690  144.6770 O   0  0  0  0  0  0  0  0  0  0  0  0
  192.9410  175.1800  143.3690 S   0  0  0  0  0  0  0  0  0  0  0  0
  193.4900  174.2000  140.8850 C   0  0  0  0  0  0  0  0  0  0  0  0
  191.4700  174.1630  143.2170 C   0  0  2  0  0  3  0  0  0  0  0  0
  185.9250  176.7280  142.3770 O   0  0  0  0  0  1  0  0  0  0  0  0
  189.1470  174.1240  142.5050 C   0  0  2  0  0  3  0  0  0  0  0  0
  192.0160  174.0150  140.7300 C   0  0  0  0  0  2  0  0  0  0  0  0
  194.0110  174.7950  142.0700 N   0  0  0  0  0  2  0  0  0  0  0  0
  187.2610  176.5650  142.7380 C   0  0  1  0  0  3  0  0  0  0  0  0
  189.7340  175.2780  144.6440 C   0  0  0  0  0  0  0  0  0  0  0  0
  188.6630  174.1720  140.2350 C   0  0  0  0  0  0  0  0  0  0  0  0
  194.2750  173.9540  139.8930 N   0  0  0  0  0  2  0  0  0  0  0  0
  188.0910  176.2830  141.4960 C   0  0  0  0  0  2  0  0  0  0  0  0
  189.7370  174.2690  145.6220 C   0  0  0  0  0  3  0  0  0  0  0  0
  188.8550  176.8300  146.2980 C   0  0  0  0  0  3  0  0  0  0  0  0
  188.8770  175.8220  147.2630 C   0  0  0  0  0  3  0  0  0  0  0  0
  187.7580  177.8210  143.4440 C   0  0  0  0  0  2  0  0  0  0  0  0
  189.9180  172.9860  141.7920 C   0  0  2  0  0  3  0  0  0  0  0  0
  188.4630  174.8730  141.4440 N   0  0  0  0  0  0  0  0  0  0  0  0
  191.4160  173.3010  141.9550 C   0  0  2  0  0  3  0  0  0  0  0  0
  189.7530  172.0270  139.3890 C   0  0  0  0  0  1  0  0  0  0  0  0
  190.1830  174.9720  143.2380 C   0  0  1  0  0  3  0  0  0  0  0  0
  1 21  1  0  0  0  0
  2  8  2  0  0  0  0
  3 17  2  0  0  0  0
  4 22  1  0  0  0  0
  6  1  1  0  0  0  0
  8  7  2  0  0  0  0
  9 14  1  0  0  0  0
 10 28  1  0  0  0  0
 10  8  1  6  0  0  0
 12 25  1  6  0  0  0
 12 28  1  0  0  0  0
 13  9  1  0  0  0  0
 14  8  1  0  0  0  0
 15 11  1  6  0  0  0
 15 23  1  0  0  0  0
 16  1  2  0  0  0  0
 16 20  1  0  0  0  0
 17  5  1  0  0  0  0
 17 25  1  0  0  0  0
 18  9  2  0  0  0  0
 19 15  1  0  0  0  0
 20  4  2  0  0  0  0
 21 22  2  0  0  0  0
 23  6  1  0  0  0  0
 24  5  1  6  0  0  0
 24 26  1  0  0  0  0
 24 12  1  0  0  0  0
 25 19  1  0  0  0  0
 26 13  1  6  0  0  0
 26 10  1  0  0  0  0
 27  5  1  0  0  0  0
 28 16  1  1  0  0  0
M  END
>  <MODEL>
6

>  <REMARK>
 VINA RESULT:      -7.7      3.139      5.497
  Name = 
  0 active torsions:
  status: ('A' for Active; 'I' for Inactive)
                            x       y       z     vdW  Elec       q    Type
                         _______ _______ _______ _____ _____    ______ ____

>  <TORSDO>
F 0

$$$$
=
 OpenBabel11112417393D

 28 32  0  0  1  0  0  0  0  0999 V2000
  191.4420  175.0700  144.8550 C   0  0  0  0  0  0  0  0  0  0  0  0
  189.8790  177.2320  142.2720 O   0  0  0  0  0  0  0  0  0  0  0  0
  187.4750  178.7990  148.0220 O   0  0  0  0  0  0  0  0  0  0  0  0
  190.5170  172.4500  144.4850 C   0  0  0  0  0  3  0  0  0  0  0  0
  186.3740  177.2570  146.6250 N   0  0  0  0  0  0  0  0  0  0  0  0
  191.9680  176.4490  145.1130 C   0  0  0  0  0  2  0  0  0  0  0  0
  188.6600  175.4330  141.1260 O   0  0  0  0  0  0  0  0  0  0  0  0
  188.5490  176.5460  142.1280 S   0  0  0  0  0  0  0  0  0  0  0  0
  186.4900  178.2830  142.5410 C   0  0  0  0  0  0  0  0  0  0  0  0
  188.0110  175.8610  143.6970 C   0  0  2  0  0  3  0  0  0  0  0  0
  191.3750  176.6370  148.8080 O   0  0  0  0  0  1  0  0  0  0  0  0
  188.3070  175.9450  146.1070 C   0  0  2  0  0  3  0  0  0  0  0  0
  186.6660  178.0080  143.9980 C   0  0  0  0  0  2  0  0  0  0  0  0
  187.3680  177.6850  141.5920 N   0  0  0  0  0  2  0  0  0  0  0  0
  191.0240  176.5400  147.4630 C   0  0  1  0  0  3  0  0  0  0  0  0
  190.0580  174.8290  144.7150 C   0  0  0  0  0  0  0  0  0  0  0  0
  187.5060  177.7830  147.2780 C   0  0  0  0  0  0  0  0  0  0  0  0
  185.6370  179.1700  142.1550 N   0  0  0  0  0  2  0  0  0  0  0  0
  190.0210  177.6290  147.1190 C   0  0  0  0  0  2  0  0  0  0  0  0
  189.6090  173.5090  144.5420 C   0  0  0  0  0  3  0  0  0  0  0  0
  192.3450  174.0020  144.7970 C   0  0  0  0  0  3  0  0  0  0  0  0
  191.8850  172.6980  144.6090 C   0  0  0  0  0  3  0  0  0  0  0  0
  192.2720  176.6640  146.5970 C   0  0  0  0  0  2  0  0  0  0  0  0
  186.8100  176.1560  145.7700 C   0  0  2  0  0  3  0  0  0  0  0  0
  188.6840  177.0620  146.9830 N   0  0  0  0  0  0  0  0  0  0  0  0
  186.7420  176.4940  144.2700 C   0  0  2  0  0  3  0  0  0  0  0  0
  184.9990  177.6820  146.8230 C   0  0  0  0  0  1  0  0  0  0  0  0
  189.0680  175.9630  144.7850 C   0  0  1  0  0  3  0  0  0  0  0  0
  1  6  1  0  0  0  0
  4 20  2  0  0  0  0
  4 22  1  0  0  0  0
  5 27  1  0  0  0  0
  5 17  1  0  0  0  0
  6 23  1  0  0  0  0
  7  8  2  0  0  0  0
  8  2  2  0  0  0  0
  9 13  1  0  0  0  0
 10  8  1  6  0  0  0
 10 26  1  0  0  0  0
 10 28  1  0  0  0  0
 12 25  1  1  0  0  0
 14  8  1  0  0  0  0
 14  9  1  0  0  0  0
 15 11  1  1  0  0  0
 16  1  2  0  0  0  0
 17  3  2  0  0  0  0
 18  9  2  0  0  0  0
 19 15  1  0  0  0  0
 20 16  1  0  0  0  0
 21  1  1  0  0  0  0
 22 21  2  0  0  0  0
 23 15  1  0  0  0  0
 24 12  1  0  0  0  0
 24  5  1  1  0  0  0
 25 19  1  0  0  0  0
 25 17  1  0  0  0  0
 26 13  1  1  0  0  0
 26 24  1  0  0  0  0
 28 16  1  1  0  0  0
 28 12  1  0  0  0  0
M  END
>  <MODEL>
7

>  <REMARK>
 VINA RESULT:      -7.6      2.154      4.862
  Name = 
  0 active torsions:
  status: ('A' for Active; 'I' for Inactive)
                            x       y       z     vdW  Elec       q    Type
                         _______ _______ _______ _____ _____    ______ ____

>  <TORSDO>
F 0

$$$$
=
 OpenBabel11112417393D

 28 32  0  0  1  0  0  0  0  0999 V2000
  186.0190  177.0190  143.7420 C   0  0  0  0  0  0  0  0  0  0  0  0
  187.6340  173.8760  142.6010 O   0  0  0  0  0  0  0  0  0  0  0  0
  191.2080  176.4700  147.2690 O   0  0  0  0  0  0  0  0  0  0  0  0
  186.2190  178.9080  141.6810 C   0  0  0  0  0  3  0  0  0  0  0  0
  191.6760  176.8980  145.0020 N   0  0  0  0  0  0  0  0  0  0  0  0
  185.8860  176.0610  144.8860 C   0  0  0  0  0  2  0  0  0  0  0  0
  188.1910  174.6720  140.3440 O   0  0  0  0  0  0  0  0  0  0  0  0
  188.7210  174.4430  141.7310 S   0  0  0  0  0  0  0  0  0  0  0  0
  191.1760  173.5440  142.5020 C   0  0  0  0  0  0  0  0  0  0  0  0
  189.3170  176.0030  142.3880 C   0  0  2  0  0  3  0  0  0  0  0  0
  187.0750  178.2740  147.6660 O   0  0  0  0  0  1  0  0  0  0  0  0
  189.4280  177.4130  144.3640 C   0  0  2  0  0  3  0  0  0  0  0  0
  191.1680  174.6500  143.5060 C   0  0  0  0  0  2  0  0  0  0  0  0
  190.0430  173.3350  141.6650 N   0  0  0  0  0  2  0  0  0  0  0  0
  187.1790  177.5430  146.4830 C   0  0  1  0  0  3  0  0  0  0  0  0
  187.2650  177.2480  143.1200 C   0  0  0  0  0  0  0  0  0  0  0  0
  190.8190  176.7910  146.1160 C   0  0  0  0  0  0  0  0  0  0  0  0
  192.1460  172.6950  142.4930 N   0  0  0  0  0  2  0  0  0  0  0  0
  188.3470  176.5770  146.5840 C   0  0  0  0  0  2  0  0  0  0  0  0
  187.3520  178.2070  142.0960 C   0  0  0  0  0  3  0  0  0  0  0  0
  184.8890  177.7280  143.3200 C   0  0  0  0  0  3  0  0  0  0  0  0
  184.9870  178.6660  142.2910 C   0  0  0  0  0  3  0  0  0  0  0  0
  185.8780  176.7910  146.2310 C   0  0  0  0  0  2  0  0  0  0  0  0
  190.8610  177.1790  143.8240 C   0  0  2  0  0  3  0  0  0  0  0  0
  189.4720  177.0570  145.7880 N   0  0  0  0  0  0  0  0  0  0  0  0
  190.7740  175.9870  142.8520 C   0  0  2  0  0  3  0  0  0  0  0  0
  193.1260  176.8200  145.0300 C   0  0  0  0  0  1  0  0  0  0  0  0
  188.4980  176.5040  143.5670 C   0  0  1  0  0  3  0  0  0  0  0  0
  1  6  1  0  0  0  0
  4 20  2  0  0  0  0
  4 22  1  0  0  0  0
  5 27  1  0  0  0  0
  5 17  1  0  0  0  0
  6 23  1  0  0  0  0
  7  8  2  0  0  0  0
  8  2  2  0  0  0  0
  9 13  1  0  0  0  0
 10  8  1  1  0  0  0
 10 26  1  0  0  0  0
 10 28  1  0  0  0  0
 12 25  1  1  0  0  0
 14  8  1  0  0  0  0
 14  9  1  0  0  0  0
 15 19  1  0  0  0  0
 15 11  1  1  0  0  0
 16  1  2  0  0  0  0
 17  3  2  0  0  0  0
 18  9  2  0  0  0  0
 20 16  1  0  0  0  0
 21  1  1  0  0  0  0
 22 21  2  0  0  0  0
 23 15  1  0  0  0  0
 24 12  1  0  0  0  0
 24  5  1  1  0  0  0
 25 17  1  0  0  0  0
 25 19  1  0  0  0  0
 26 13  1  1  0  0  0
 26 24  1  0  0  0  0
 28 16  1  6  0  0  0
 28 12  1  0  0  0  0
M  END
>  <MODEL>
8

>  <REMARK>
 VINA RESULT:      -7.5      2.206      6.536
  Name = 
  0 active torsions:
  status: ('A' for Active; 'I' for Inactive)
                            x       y       z     vdW  Elec       q    Type
                         _______ _______ _______ _____ _____    ______ ____

>  <TORSDO>
F 0

$$$$
=
 OpenBabel11112417393D

 28 32  0  0  1  0  0  0  0  0999 V2000
  189.3350  176.1050  144.6990 C   0  0  0  0  0  0  0  0  0  0  0  0
  192.8890  177.1820  144.7240 O   0  0  0  0  0  0  0  0  0  0  0  0
  192.3430  171.9110  141.0890 O   0  0  0  0  0  0  0  0  0  0  0  0
  188.6830  175.1680  147.2590 C   0  0  0  0  0  3  0  0  0  0  0  0
  192.9340  171.7610  143.3630 N   0  0  0  0  0  0  0  0  0  0  0  0
  189.6200  176.5830  143.3080 C   0  0  0  0  0  2  0  0  0  0  0  0
  193.2840  176.7280  147.1060 O   0  0  0  0  0  0  0  0  0  0  0  0
  193.4530  176.1980  145.7110 S   0  0  0  0  0  0  0  0  0  0  0  0
  195.5420  174.8120  144.6430 C   0  0  0  0  0  0  0  0  0  0  0  0
  192.6120  174.6170  145.5870 C   0  0  2  0  0  3  0  0  0  0  0  0
  188.1960  173.7040  141.3790 O   0  0  0  0  0  1  0  0  0  0  0  0
  191.2160  173.2150  144.1760 C   0  0  2  0  0  3  0  0  0  0  0  0
  194.5200  173.8960  144.0550 C   0  0  0  0  0  2  0  0  0  0  0  0
  195.1310  175.9540  145.3880 N   0  0  0  0  0  2  0  0  0  0  0  0
  189.0690  174.3440  142.2570 C   0  0  1  0  0  3  0  0  0  0  0  0
  190.1770  175.1700  145.3380 C   0  0  0  0  0  0  0  0  0  0  0  0
  192.1480  172.2290  142.2920 C   0  0  0  0  0  0  0  0  0  0  0  0
  196.7890  174.6490  144.3570 N   0  0  0  0  0  2  0  0  0  0  0  0
  190.5030  174.0870  141.8250 C   0  0  0  0  0  2  0  0  0  0  0  0
  189.8320  174.7000  146.6170 C   0  0  0  0  0  3  0  0  0  0  0  0
  188.1860  176.5670  145.3510 C   0  0  0  0  0  3  0  0  0  0  0  0
  187.8630  176.1040  146.6270 C   0  0  0  0  0  3  0  0  0  0  0  0
  188.7720  175.8390  142.2750 C   0  0  0  0  0  2  0  0  0  0  0  0
  192.4840  172.4250  144.5840 C   0  0  2  0  0  3  0  0  0  0  0  0
  191.1330  173.1170  142.7140 N   0  0  0  0  0  0  0  0  0  0  0  0
  193.4930  173.4590  145.1150 C   0  0  2  0  0  3  0  0  0  0  0  0
  193.9640  170.7390  143.2850 C   0  0  0  0  0  1  0  0  0  0  0  0
  191.4150  174.6510  144.6500 C   0  0  1  0  0  3  0  0  0  0  0  0
  1 16  2  0  0  0  0
  1 21  1  0  0  0  0
  2  8  2  0  0  0  0
  3 17  2  0  0  0  0
  6  1  1  0  0  0  0
  8  7  2  0  0  0  0
  9 14  1  0  0  0  0
 10  8  1  6  0  0  0
 12 25  1  6  0  0  0
 12 24  1  0  0  0  0
 12 28  1  0  0  0  0
 13  9  1  0  0  0  0
 14  8  1  0  0  0  0
 15 11  1  6  0  0  0
 15 23  1  0  0  0  0
 16 20  1  0  0  0  0
 17 25  1  0  0  0  0
 17  5  1  0  0  0  0
 18  9  2  0  0  0  0
 19 15  1  0  0  0  0
 19 25  1  0  0  0  0
 20  4  2  0  0  0  0
 21 22  2  0  0  0  0
 22  4  1  0  0  0  0
 23  6  1  0  0  0  0
 24  5  1  6  0  0  0
 24 26  1  0  0  0  0
 26 13  1  6  0  0  0
 26 10  1  0  0  0  0
 27  5  1  0  0  0  0
 28 16  1  1  0  0  0
 28 10  1  0  0  0  0
M  END
>  <MODEL>
9

>  <REMARK>
 VINA RESULT:      -7.5      2.849      5.724
  Name = 
  0 active torsions:
  status: ('A' for Active; 'I' for Inactive)
                            x       y       z     vdW  Elec       q    Type
                         _______ _______ _______ _____ _____    ______ ____

>  <TORSDO>
F 0

$$$$
