=
 OpenBabel11112416153D

 30 35  0  0  1  0  0  0  0  0999 V2000
  186.9850  177.0440  144.0030 C   0  0  1  0  0  3  0  0  0  0  0  0
  185.1110  178.2810  145.2240 C   0  0  0  0  0  0  0  0  0  0  0  0
  189.2500  177.1070  147.5730 O   0  0  0  0  0  0  0  0  0  0  0  0
  188.2870  176.2370  144.1930 C   0  0  1  0  0  3  0  0  0  0  0  0
  186.0610  176.2710  143.1720 N   0  0  0  0  0  2  0  0  0  0  0  0
  188.5760  175.4810  140.5500 O   0  0  0  0  0  1  0  0  0  0  0  0
  191.4540  176.5430  143.2780 C   0  0  1  0  0  3  0  0  0  0  0  0
  188.0280  175.4960  141.8350 C   0  0  2  0  0  3  0  0  0  0  0  0
  191.5670  176.8630  144.7840 C   0  0  2  0  0  3  0  0  0  0  0  0
  190.5000  176.7570  147.0900 C   0  0  0  0  0  0  0  0  0  0  0  0
  186.6220  176.1400  141.8160 C   0  0  2  0  0  3  0  0  0  0  0  0
  188.9690  176.2050  142.8230 C   0  0  2  0  0  3  0  0  0  0  0  0
  184.5830  178.8660  146.3780 C   0  0  0  0  0  3  0  0  0  0  0  0
  192.9220  176.3300  145.2100 C   0  0  0  0  0  2  0  0  0  0  0  0
  192.8160  176.0450  142.8280 C   0  0  0  0  0  2  0  0  0  0  0  0
  184.4140  178.4060  144.0270 O   0  0  0  0  0  1  0  0  0  0  0  0
  188.3160  176.7750  146.5690 C   0  0  2  0  0  3  0  0  0  0  0  0
  185.2710  178.7890  147.5910 C   0  0  0  0  0  3  0  0  0  0  0  0
  186.3390  177.5900  145.2780 C   0  0  0  0  0  0  0  0  0  0  0  0
  189.1010  176.9040  145.2830 C   0  0  1  0  0  3  0  0  0  0  0  0
  191.5380  176.7780  147.8030 O   0  0  0  0  0  0  0  0  0  0  0  0
  190.4460  176.3000  145.6630 C   0  0  1  0  0  3  0  0  0  0  0  0
  193.7710  176.3460  143.9610 C   0  0  0  0  0  2  0  0  0  0  0  0
  190.3920  174.3560  143.5310 O   0  0  0  0  0  1  0  0  0  0  0  0
  186.5030  178.1370  147.6550 C   0  0  0  0  0  3  0  0  0  0  0  0
  187.0550  177.5690  146.5030 C   0  0  0  0  0  0  0  0  0  0  0  0
  190.3610  175.5630  142.8250 C   0  0  2  0  0  3  0  0  0  0  0  0
  186.6040  177.4820  141.0820 C   0  0  0  0  0  2  0  0  0  0  0  0
  184.6330  178.2660  140.4840 C   0  0  0  0  0  1  0  0  0  0  0  0
  185.6710  177.4450  140.0470 O   0  0  0  0  0  0  0  0  0  0  0  0
  1  5  1  1  0  0  0
  1  4  1  0  0  0  0
  1 19  1  0  0  0  0
  2 19  2  0  0  0  0
  2 13  1  0  0  0  0
  4 20  1  0  0  0  0
  6  8  1  0  0  0  0
  7  9  1  0  0  0  0
  8 12  1  0  0  0  0
  9 14  1  0  0  0  0
  9 22  1  0  0  0  0
 10  3  1  0  0  0  0
 10 21  2  0  0  0  0
 11  8  1  0  0  0  0
 11  5  1  0  0  0  0
 12 27  1  0  0  0  0
 12  4  1  0  0  0  0
 13 18  2  0  0  0  0
 15  7  1  0  0  0  0
 15 23  1  0  0  0  0
 16  2  1  0  0  0  0
 17  3  1  0  0  0  0
 18 25  1  0  0  0  0
 19 26  1  0  0  0  0
 20 22  1  0  0  0  0
 20 17  1  0  0  0  0
 22 10  1  0  0  0  0
 23 14  1  0  0  0  0
 26 17  1  0  0  0  0
 26 25  2  0  0  0  0
 27  7  1  0  0  0  0
 27 24  1  0  0  0  0
 28 11  1  0  0  0  0
 30 29  1  0  0  0  0
 30 28  1  0  0  0  0
M  END
>  <MODEL>
1

>  <REMARK>
 VINA RESULT:      -8.7      0.000      0.000
  Name = 
  2 active torsions:
  status: ('A' for Active; 'I' for Inactive)
    1  A    between atoms: C_11  and  C_28
    2  A    between atoms: C_28  and  O_30
                            x       y       z     vdW  Elec       q    Type
                         _______ _______ _______ _____ _____    ______ ____

>  <TORSDO>
F 2

$$$$
=
 OpenBabel11112416153D

 30 35  0  0  1  0  0  0  0  0999 V2000
  187.8190  175.9890  143.0490 C   0  0  1  0  0  3  0  0  0  0  0  0
  186.0090  177.7520  142.6650 C   0  0  0  0  0  0  0  0  0  0  0  0
  188.6770  177.7900  146.7780 O   0  0  0  0  0  0  0  0  0  0  0  0
  188.7360  175.3430  144.1090 C   0  0  1  0  0  3  0  0  0  0  0  0
  187.0710  174.9370  142.3600 N   0  0  0  0  0  2  0  0  0  0  0  0
  190.0500  172.8080  141.7060 O   0  0  0  0  0  1  0  0  0  0  0  0
  191.9970  175.0060  144.5740 C   0  0  1  0  0  3  0  0  0  0  0  0
  189.1200  173.5050  142.4810 C   0  0  2  0  0  3  0  0  0  0  0  0
  191.6670  176.0510  145.6620 C   0  0  2  0  0  3  0  0  0  0  0  0
  189.8890  177.1910  147.0800 C   0  0  0  0  0  0  0  0  0  0  0  0
  188.0090  174.1030  141.5870 C   0  0  2  0  0  3  0  0  0  0  0  0
  189.8130  174.5830  143.3300 C   0  0  2  0  0  3  0  0  0  0  0  0
  185.2820  178.8690  143.0880 C   0  0  0  0  0  3  0  0  0  0  0  0
  192.6200  175.7590  146.8060 C   0  0  0  0  0  2  0  0  0  0  0  0
  193.2620  174.2930  145.0150 C   0  0  0  0  0  2  0  0  0  0  0  0
  185.8140  177.2710  141.3760 O   0  0  0  0  0  1  0  0  0  0  0  0
  188.0880  177.0260  145.7470 C   0  0  2  0  0  3  0  0  0  0  0  0
  185.4750  179.4000  144.3650 C   0  0  0  0  0  3  0  0  0  0  0  0
  186.9340  177.1390  143.5350 C   0  0  0  0  0  0  0  0  0  0  0  0
  189.2700  176.4430  145.0050 C   0  0  1  0  0  3  0  0  0  0  0  0
  190.5940  177.5340  148.0650 O   0  0  0  0  0  0  0  0  0  0  0  0
  190.2120  176.0660  146.1400 C   0  0  1  0  0  3  0  0  0  0  0  0
  193.8190  175.0960  146.1700 C   0  0  0  0  0  2  0  0  0  0  0  0
  190.4070  173.3060  145.3220 O   0  0  0  0  0  1  0  0  0  0  0  0
  186.4100  178.8250  145.2260 C   0  0  0  0  0  3  0  0  0  0  0  0
  187.1630  177.7230  144.8080 C   0  0  0  0  0  0  0  0  0  0  0  0
  190.9170  173.9780  144.2050 C   0  0  2  0  0  3  0  0  0  0  0  0
  188.5740  174.8750  140.3920 C   0  0  0  0  0  2  0  0  0  0  0  0
  189.1860  173.8590  138.5340 C   0  0  0  0  0  1  0  0  0  0  0  0
  188.0670  174.3500  139.2040 O   0  0  0  0  0  0  0  0  0  0  0  0
  1  5  1  1  0  0  0
  1 19  1  0  0  0  0
  1  4  1  0  0  0  0
  2 13  2  0  0  0  0
  2 19  1  0  0  0  0
  3 10  1  0  0  0  0
  4 20  1  0  0  0  0
  6  8  1  0  0  0  0
  7 15  1  0  0  0  0
  7  9  1  0  0  0  0
  8 12  1  0  0  0  0
  9 22  1  0  0  0  0
  9 14  1  0  0  0  0
 10 21  2  0  0  0  0
 11  5  1  0  0  0  0
 11  8  1  0  0  0  0
 12  4  1  0  0  0  0
 12 27  1  0  0  0  0
 13 18  1  0  0  0  0
 15 23  1  0  0  0  0
 16  2  1  0  0  0  0
 17  3  1  0  0  0  0
 18 25  2  0  0  0  0
 19 26  2  0  0  0  0
 20 17  1  0  0  0  0
 20 22  1  0  0  0  0
 22 10  1  0  0  0  0
 23 14  1  0  0  0  0
 26 25  1  0  0  0  0
 26 17  1  0  0  0  0
 27  7  1  0  0  0  0
 27 24  1  0  0  0  0
 28 11  1  0  0  0  0
 29 30  1  0  0  0  0
 30 28  1  0  0  0  0
M  END
>  <MODEL>
2

>  <REMARK>
 VINA RESULT:      -8.2      1.708      2.546
  Name = 
  2 active torsions:
  status: ('A' for Active; 'I' for Inactive)
    1  A    between atoms: C_11  and  C_28
    2  A    between atoms: C_28  and  O_30
                            x       y       z     vdW  Elec       q    Type
                         _______ _______ _______ _____ _____    ______ ____

>  <TORSDO>
F 2

$$$$
=
 OpenBabel11112416153D

 30 35  0  0  1  0  0  0  0  0999 V2000
  186.9530  177.0900  143.8740 C   0  0  1  0  0  3  0  0  0  0  0  0
  184.9370  178.2870  142.8530 C   0  0  0  0  0  0  0  0  0  0  0  0
  187.8730  175.5370  140.0490 O   0  0  0  0  0  0  0  0  0  0  0  0
  188.2760  176.3650  143.5520 C   0  0  1  0  0  3  0  0  0  0  0  0
  187.2160  178.1580  144.8390 N   0  0  0  0  0  2  0  0  0  0  0  0
  189.1840  176.0150  147.1550 O   0  0  0  0  0  1  0  0  0  0  0  0
  189.5420  173.3470  144.0550 C   0  0  1  0  0  3  0  0  0  0  0  0
  188.8720  176.6460  145.9480 C   0  0  2  0  0  3  0  0  0  0  0  0
  189.2720  173.2860  142.5370 C   0  0  2  0  0  3  0  0  0  0  0  0
  188.7910  174.5550  140.3850 C   0  0  0  0  0  0  0  0  0  0  0  0
  187.6370  177.5610  146.1190 C   0  0  2  0  0  3  0  0  0  0  0  0
  188.6680  175.6140  144.8270 C   0  0  2  0  0  3  0  0  0  0  0  0
  184.1390  178.6130  141.7530 C   0  0  0  0  0  3  0  0  0  0  0  0
  190.3730  172.4140  141.9640 C   0  0  0  0  0  2  0  0  0  0  0  0
  190.6410  172.3420  144.3490 C   0  0  0  0  0  2  0  0  0  0  0  0
  184.5310  178.6830  144.1210 O   0  0  0  0  0  1  0  0  0  0  0  0
  187.7490  176.3830  141.1730 C   0  0  2  0  0  3  0  0  0  0  0  0
  184.4990  178.2030  140.4680 C   0  0  0  0  0  3  0  0  0  0  0  0
  186.1280  177.5530  142.6710 C   0  0  0  0  0  0  0  0  0  0  0  0
  188.0470  175.4760  142.3460 C   0  0  1  0  0  3  0  0  0  0  0  0
  189.2450  173.7310  139.5490 O   0  0  0  0  0  0  0  0  0  0  0  0
  189.2070  174.6410  141.8240 C   0  0  1  0  0  3  0  0  0  0  0  0
  190.7990  171.5100  143.0970 C   0  0  0  0  0  2  0  0  0  0  0  0
  190.9510  175.3440  144.0120 O   0  0  0  0  0  1  0  0  0  0  0  0
  185.6570  177.4490  140.2740 C   0  0  0  0  0  3  0  0  0  0  0  0
  186.4520  177.0940  141.3680 C   0  0  0  0  0  0  0  0  0  0  0  0
  189.8960  174.7080  144.6740 C   0  0  2  0  0  3  0  0  0  0  0  0
  186.4710  176.8460  146.8030 C   0  0  0  0  0  2  0  0  0  0  0  0
  185.1020  178.4050  147.5480 C   0  0  0  0  0  1  0  0  0  0  0  0
  186.1060  177.5310  147.9610 O   0  0  0  0  0  0  0  0  0  0  0  0
  1 19  1  6  0  0  0
  1  5  1  0  0  0  0
  2 16  1  0  0  0  0
  3 10  1  0  0  0  0
  3 17  1  0  0  0  0
  4  1  1  0  0  0  0
  4 12  1  0  0  0  0
  5 11  1  0  0  0  0
  7 15  1  0  0  0  0
  7 27  1  0  0  0  0
  8 11  1  0  0  0  0
  8  6  1  0  0  0  0
  9  7  1  0  0  0  0
 10 22  1  0  0  0  0
 11 28  1  0  0  0  0
 12  8  1  0  0  0  0
 13  2  2  0  0  0  0
 14  9  1  0  0  0  0
 14 23  1  0  0  0  0
 17 26  1  0  0  0  0
 17 20  1  0  0  0  0
 18 13  1  0  0  0  0
 19  2  1  0  0  0  0
 20  4  1  0  0  0  0
 21 10  2  0  0  0  0
 22 20  1  0  0  0  0
 22  9  1  0  0  0  0
 23 15  1  0  0  0  0
 24 27  1  0  0  0  0
 25 18  2  0  0  0  0
 25 26  1  0  0  0  0
 26 19  2  0  0  0  0
 27 12  1  0  0  0  0
 28 30  1  0  0  0  0
 29 30  1  0  0  0  0
M  END
>  <MODEL>
3

>  <REMARK>
 VINA RESULT:      -8.0      1.935      5.159
  Name = 
  2 active torsions:
  status: ('A' for Active; 'I' for Inactive)
    1  A    between atoms: C_11  and  C_28
    2  A    between atoms: C_28  and  O_30
                            x       y       z     vdW  Elec       q    Type
                         _______ _______ _______ _____ _____    ______ ____

>  <TORSDO>
F 2

$$$$
=
 OpenBabel11112416153D

 30 35  0  0  1  0  0  0  0  0999 V2000
  190.5490  174.7790  143.5440 C   0  0  1  0  0  3  0  0  0  0  0  0
  192.7310  173.5000  143.9180 C   0  0  0  0  0  0  0  0  0  0  0  0
  191.3060  176.9570  147.0890 O   0  0  0  0  0  0  0  0  0  0  0  0
  189.7370  176.0230  143.9610 C   0  0  1  0  0  3  0  0  0  0  0  0
  190.6790  174.7610  142.0870 N   0  0  0  0  0  2  0  0  0  0  0  0
  187.0670  175.3640  141.4380 O   0  0  0  0  0  1  0  0  0  0  0  0
  186.7840  176.6070  145.3400 C   0  0  1  0  0  3  0  0  0  0  0  0
  188.3410  175.6400  141.9420 C   0  0  2  0  0  3  0  0  0  0  0  0
  187.7170  176.9620  146.5180 C   0  0  2  0  0  3  0  0  0  0  0  0
  190.0670  177.5380  147.3020 C   0  0  0  0  0  0  0  0  0  0  0  0
  189.3490  174.5600  141.4840 C   0  0  2  0  0  3  0  0  0  0  0  0
  188.3080  175.7790  143.4720 C   0  0  2  0  0  3  0  0  0  0  0  0
  193.8910  173.2540  144.6580 C   0  0  0  0  0  3  0  0  0  0  0  0
  187.0200  178.0870  147.2620 C   0  0  0  0  0  2  0  0  0  0  0  0
  185.4880  177.3670  145.5580 C   0  0  0  0  0  2  0  0  0  0  0  0
  192.4290  172.6720  142.8440 O   0  0  0  0  0  1  0  0  0  0  0  0
  191.3170  176.4970  145.7540 C   0  0  2  0  0  3  0  0  0  0  0  0
  194.2100  174.0460  145.7630 C   0  0  0  0  0  3  0  0  0  0  0  0
  191.8790  174.5670  144.2720 C   0  0  0  0  0  0  0  0  0  0  0  0
  189.8660  176.1890  145.4620 C   0  0  1  0  0  3  0  0  0  0  0  0
  189.7870  178.1870  148.3450 O   0  0  0  0  0  0  0  0  0  0  0  0
  189.1470  177.3520  146.1320 C   0  0  1  0  0  3  0  0  0  0  0  0
  185.5490  177.9110  146.9680 C   0  0  0  0  0  2  0  0  0  0  0  0
  187.7770  178.1460  143.7200 O   0  0  0  0  0  1  0  0  0  0  0  0
  193.3610  175.0850  146.1460 C   0  0  0  0  0  3  0  0  0  0  0  0
  192.1840  175.3270  145.4300 C   0  0  0  0  0  0  0  0  0  0  0  0
  187.2980  176.8460  143.9120 C   0  0  2  0  0  3  0  0  0  0  0  0
  188.8390  173.1400  141.7380 C   0  0  0  0  0  2  0  0  0  0  0  0
  188.5350  172.6800  139.6040 C   0  0  0  0  0  1  0  0  0  0  0  0
  189.2720  172.2900  140.7210 O   0  0  0  0  0  0  0  0  0  0  0  0
  1  5  1  6  0  0  0
  1  4  1  0  0  0  0
  1 19  1  0  0  0  0
  2 19  2  0  0  0  0
  2 13  1  0  0  0  0
  3 10  1  0  0  0  0
  4 20  1  0  0  0  0
  6  8  1  0  0  0  0
  7 15  1  0  0  0  0
  7  9  1  0  0  0  0
  8 12  1  0  0  0  0
  9 14  1  0  0  0  0
 10 21  2  0  0  0  0
 11 28  1  0  0  0  0
 11  8  1  0  0  0  0
 11  5  1  0  0  0  0
 12 27  1  0  0  0  0
 12  4  1  0  0  0  0
 13 18  2  0  0  0  0
 15 23  1  0  0  0  0
 16  2  1  0  0  0  0
 17  3  1  0  0  0  0
 18 25  1  0  0  0  0
 19 26  1  0  0  0  0
 20 17  1  0  0  0  0
 20 22  1  0  0  0  0
 22  9  1  0  0  0  0
 22 10  1  0  0  0  0
 23 14  1  0  0  0  0
 24 27  1  0  0  0  0
 26 17  1  0  0  0  0
 26 25  2  0  0  0  0
 27  7  1  0  0  0  0
 29 30  1  0  0  0  0
 30 28  1  0  0  0  0
M  END
>  <MODEL>
4

>  <REMARK>
 VINA RESULT:      -7.7      2.062      5.764
  Name = 
  2 active torsions:
  status: ('A' for Active; 'I' for Inactive)
    1  A    between atoms: C_11  and  C_28
    2  A    between atoms: C_28  and  O_30
                            x       y       z     vdW  Elec       q    Type
                         _______ _______ _______ _____ _____    ______ ____

>  <TORSDO>
F 2

$$$$
=
 OpenBabel11112416153D

 30 35  0  0  1  0  0  0  0  0999 V2000
  188.2800  176.7370  144.7730 C   0  0  1  0  0  3  0  0  0  0  0  0
  186.6240  178.2900  145.9500 C   0  0  0  0  0  0  0  0  0  0  0  0
  186.5240  177.7930  141.0740 O   0  0  0  0  0  0  0  0  0  0  0  0
  188.8930  176.3610  143.4080 C   0  0  1  0  0  3  0  0  0  0  0  0
  189.3590  177.0160  145.7210 N   0  0  0  0  0  2  0  0  0  0  0  0
  191.2780  173.9300  144.9350 O   0  0  0  0  0  1  0  0  0  0  0  0
  189.0360  173.6540  141.5080 C   0  0  1  0  0  3  0  0  0  0  0  0
  190.6610  175.1560  144.6720 C   0  0  2  0  0  3  0  0  0  0  0  0
  188.0420  174.5120  140.6950 C   0  0  2  0  0  3  0  0  0  0  0  0
  187.0530  176.8130  140.2500 C   0  0  0  0  0  0  0  0  0  0  0  0
  190.1110  175.7750  145.9780 C   0  0  2  0  0  3  0  0  0  0  0  0
  189.5640  174.9990  143.6070 C   0  0  2  0  0  3  0  0  0  0  0  0
  185.5670  179.2030  145.9110 C   0  0  0  0  0  3  0  0  0  0  0  0
  188.3020  174.1660  139.2410 C   0  0  0  0  0  2  0  0  0  0  0  0
  189.6780  172.6820  140.5340 C   0  0  0  0  0  2  0  0  0  0  0  0
  187.0840  177.8440  147.1830 O   0  0  0  0  0  1  0  0  0  0  0  0
  187.2970  177.7950  142.2550 C   0  0  2  0  0  3  0  0  0  0  0  0
  185.0580  179.6480  144.6890 C   0  0  0  0  0  3  0  0  0  0  0  0
  187.2000  177.8220  144.7510 C   0  0  0  0  0  0  0  0  0  0  0  0
  187.7850  176.3690  142.3740 C   0  0  1  0  0  3  0  0  0  0  0  0
  186.6910  176.6580  139.0530 O   0  0  0  0  0  0  0  0  0  0  0  0
  188.1310  176.0230  140.9330 C   0  0  1  0  0  3  0  0  0  0  0  0
  188.8720  172.7680  139.2570 C   0  0  0  0  0  2  0  0  0  0  0  0
  190.8510  175.2910  141.5560 O   0  0  0  0  0  1  0  0  0  0  0  0
  185.5950  179.1700  143.4930 C   0  0  0  0  0  3  0  0  0  0  0  0
  186.6360  178.2370  143.5170 C   0  0  0  0  0  0  0  0  0  0  0  0
  190.1200  174.3760  142.3220 C   0  0  2  0  0  3  0  0  0  0  0  0
  189.2750  174.7830  146.7880 C   0  0  0  0  0  2  0  0  0  0  0  0
  191.0330  175.3030  148.0130 C   0  0  0  0  0  1  0  0  0  0  0  0
  189.7970  174.6620  148.0750 O   0  0  0  0  0  0  0  0  0  0  0  0
  1 19  1  6  0  0  0
  1  5  1  0  0  0  0
  2 16  1  0  0  0  0
  3 17  1  0  0  0  0
  4 12  1  0  0  0  0
  4  1  1  0  0  0  0
  5 11  1  0  0  0  0
  7 27  1  0  0  0  0
  8  6  1  0  0  0  0
  8 11  1  0  0  0  0
  9 22  1  0  0  0  0
  9  7  1  0  0  0  0
 10 22  1  0  0  0  0
 10  3  1  0  0  0  0
 11 28  1  0  0  0  0
 12  8  1  0  0  0  0
 13  2  1  0  0  0  0
 14 23  1  0  0  0  0
 14  9  1  0  0  0  0
 15  7  1  0  0  0  0
 17 20  1  0  0  0  0
 17 26  1  0  0  0  0
 18 13  2  0  0  0  0
 19  2  2  0  0  0  0
 20  4  1  0  0  0  0
 21 10  2  0  0  0  0
 22 20  1  0  0  0  0
 23 15  1  0  0  0  0
 24 27  1  0  0  0  0
 25 26  2  0  0  0  0
 25 18  1  0  0  0  0
 26 19  1  0  0  0  0
 27 12  1  0  0  0  0
 28 30  1  0  0  0  0
 29 30  1  0  0  0  0
M  END
>  <MODEL>
5

>  <REMARK>
 VINA RESULT:      -7.6      2.040      5.398
  Name = 
  2 active torsions:
  status: ('A' for Active; 'I' for Inactive)
    1  A    between atoms: C_11  and  C_28
    2  A    between atoms: C_28  and  O_30
                            x       y       z     vdW  Elec       q    Type
                         _______ _______ _______ _____ _____    ______ ____

>  <TORSDO>
F 2

$$$$
=
 OpenBabel11112416153D

 30 35  0  0  1  0  0  0  0  0999 V2000
  188.7890  175.5810  143.5610 C   0  0  1  0  0  3  0  0  0  0  0  0
  190.3520  174.3150  145.1400 C   0  0  0  0  0  0  0  0  0  0  0  0
  187.5560  177.9740  146.8230 O   0  0  0  0  0  0  0  0  0  0  0  0
  187.9310  176.8530  143.3990 C   0  0  1  0  0  3  0  0  0  0  0  0
  189.6980  175.4690  142.4210 N   0  0  0  0  0  2  0  0  0  0  0  0
  187.0660  176.0510  139.8590 O   0  0  0  0  0  1  0  0  0  0  0  0
  184.7330  177.5410  142.8900 C   0  0  1  0  0  3  0  0  0  0  0  0
  187.8630  176.3510  140.9670 C   0  0  2  0  0  3  0  0  0  0  0  0
  184.8760  177.9640  144.3680 C   0  0  2  0  0  3  0  0  0  0  0  0
  186.4280  178.5750  146.2880 C   0  0  0  0  0  0  0  0  0  0  0  0
  188.9120  175.2380  141.1950 C   0  0  2  0  0  3  0  0  0  0  0  0
  186.9980  176.5860  142.2160 C   0  0  2  0  0  3  0  0  0  0  0  0
  190.9030  174.1100  146.4080 C   0  0  0  0  0  3  0  0  0  0  0  0
  183.9310  179.1370  144.5470 C   0  0  0  0  0  2  0  0  0  0  0  0
  183.5620  178.3200  142.3190 C   0  0  0  0  0  2  0  0  0  0  0  0
  190.6580  173.4220  144.1200 O   0  0  0  0  0  1  0  0  0  0  0  0
  188.2820  177.4300  145.7410 C   0  0  2  0  0  3  0  0  0  0  0  0
  190.5920  174.9680  147.4650 C   0  0  0  0  0  3  0  0  0  0  0  0
  189.4890  175.4070  144.9120 C   0  0  0  0  0  0  0  0  0  0  0  0
  187.2190  177.1130  144.7120 C   0  0  1  0  0  3  0  0  0  0  0  0
  185.6470  179.2890  146.9700 O   0  0  0  0  0  0  0  0  0  0  0  0
  186.2970  178.3200  144.8160 C   0  0  1  0  0  3  0  0  0  0  0  0
  182.8590  178.9520  143.5000 C   0  0  0  0  0  2  0  0  0  0  0  0
  186.5130  178.9680  142.0120 O   0  0  0  0  0  1  0  0  0  0  0  0
  189.7140  176.0340  147.2640 C   0  0  0  0  0  3  0  0  0  0  0  0
  189.1360  176.2370  146.0070 C   0  0  0  0  0  0  0  0  0  0  0  0
  185.9570  177.6850  141.9720 C   0  0  2  0  0  3  0  0  0  0  0  0
  188.2910  173.8410  141.1960 C   0  0  0  0  0  2  0  0  0  0  0  0
  188.5510  172.6890  139.3350 C   0  0  0  0  0  1  0  0  0  0  0  0
  189.1490  172.9380  140.5690 O   0  0  0  0  0  0  0  0  0  0  0  0
  1  5  1  6  0  0  0
  1 19  1  0  0  0  0
  2 13  1  0  0  0  0
  4  1  1  0  0  0  0
  4 20  1  0  0  0  0
  6  8  1  0  0  0  0
  7  9  1  0  0  0  0
  8 11  1  0  0  0  0
  8 12  1  0  0  0  0
  9 14  1  0  0  0  0
  9 22  1  0  0  0  0
 10  3  1  0  0  0  0
 10 21  2  0  0  0  0
 11 28  1  0  0  0  0
 11  5  1  0  0  0  0
 12  4  1  0  0  0  0
 13 18  2  0  0  0  0
 15  7  1  0  0  0  0
 15 23  1  0  0  0  0
 16  2  1  0  0  0  0
 17 26  1  0  0  0  0
 17  3  1  0  0  0  0
 19  2  2  0  0  0  0
 19 26  1  0  0  0  0
 20 22  1  0  0  0  0
 20 17  1  0  0  0  0
 22 10  1  0  0  0  0
 23 14  1  0  0  0  0
 25 18  1  0  0  0  0
 26 25  2  0  0  0  0
 27 24  1  0  0  0  0
 27 12  1  0  0  0  0
 27  7  1  0  0  0  0
 29 30  1  0  0  0  0
 30 28  1  0  0  0  0
M  END
>  <MODEL>
6

>  <REMARK>
 VINA RESULT:      -7.5      2.161      5.589
  Name = 
  2 active torsions:
  status: ('A' for Active; 'I' for Inactive)
    1  A    between atoms: C_11  and  C_28
    2  A    between atoms: C_28  and  O_30
                            x       y       z     vdW  Elec       q    Type
                         _______ _______ _______ _____ _____    ______ ____

>  <TORSDO>
F 2

$$$$
=
 OpenBabel11112416153D

 30 35  0  0  1  0  0  0  0  0999 V2000
  190.2810  175.2390  145.2270 C   0  0  1  0  0  3  0  0  0  0  0  0
  192.5230  174.0100  145.2190 C   0  0  0  0  0  0  0  0  0  0  0  0
  189.6590  173.9730  141.2400 O   0  0  0  0  0  0  0  0  0  0  0  0
  188.9340  175.3950  144.4910 C   0  0  1  0  0  3  0  0  0  0  0  0
  190.0240  174.9540  146.6390 N   0  0  0  0  0  2  0  0  0  0  0  0
  187.5710  177.7140  147.0780 O   0  0  0  0  0  1  0  0  0  0  0  0
  187.2940  177.8450  142.9840 C   0  0  1  0  0  3  0  0  0  0  0  0
  188.0910  176.5390  146.5290 C   0  0  2  0  0  3  0  0  0  0  0  0
  187.7350  177.0120  141.7620 C   0  0  2  0  0  3  0  0  0  0  0  0
  188.6050  174.7940  140.8720 C   0  0  0  0  0  0  0  0  0  0  0  0
  189.3900  176.1290  147.2620 C   0  0  2  0  0  3  0  0  0  0  0  0
  188.3130  176.6920  145.0160 C   0  0  2  0  0  3  0  0  0  0  0  0
  193.4780  173.2150  144.5790 C   0  0  0  0  0  3  0  0  0  0  0  0
  186.6200  177.1660  140.7430 C   0  0  0  0  0  2  0  0  0  0  0  0
  186.0640  178.6290  142.5640 C   0  0  0  0  0  2  0  0  0  0  0  0
  192.8160  174.5380  146.4700 O   0  0  0  0  0  1  0  0  0  0  0  0
  189.7400  174.0190  142.6490 C   0  0  2  0  0  3  0  0  0  0  0  0
  193.2310  172.6940  143.3070 C   0  0  0  0  0  3  0  0  0  0  0  0
  191.2890  174.2790  144.5910 C   0  0  0  0  0  0  0  0  0  0  0  0
  189.2070  175.3900  143.0000 C   0  0  1  0  0  3  0  0  0  0  0  0
  188.1660  174.8530  139.6930 O   0  0  0  0  0  0  0  0  0  0  0  0
  188.0320  175.5360  142.0430 C   0  0  1  0  0  3  0  0  0  0  0  0
  185.9660  178.4890  141.0610 C   0  0  0  0  0  2  0  0  0  0  0  0
  186.1270  176.0410  144.1500 O   0  0  0  0  0  1  0  0  0  0  0  0
  192.0280  172.9770  142.6580 C   0  0  0  0  0  3  0  0  0  0  0  0
  191.0750  173.7920  143.2760 C   0  0  0  0  0  0  0  0  0  0  0  0
  187.0200  177.1070  144.3040 C   0  0  2  0  0  3  0  0  0  0  0  0
  190.3810  177.2880  147.3860 C   0  0  0  0  0  2  0  0  0  0  0  0
  191.4940  177.9150  149.1830 C   0  0  0  0  0  1  0  0  0  0  0  0
  191.4440  176.9180  148.2090 O   0  0  0  0  0  0  0  0  0  0  0  0
  1 19  1  6  0  0  0
  1  5  1  0  0  0  0
  2 16  1  0  0  0  0
  3 17  1  0  0  0  0
  4 12  1  0  0  0  0
  4  1  1  0  0  0  0
  5 11  1  0  0  0  0
  7 27  1  0  0  0  0
  8  6  1  0  0  0  0
  8 11  1  0  0  0  0
  9 22  1  0  0  0  0
  9  7  1  0  0  0  0
 10  3  1  0  0  0  0
 10 22  1  0  0  0  0
 11 28  1  0  0  0  0
 12  8  1  0  0  0  0
 13  2  2  0  0  0  0
 14 23  1  0  0  0  0
 14  9  1  0  0  0  0
 15  7  1  0  0  0  0
 17 20  1  0  0  0  0
 17 26  1  0  0  0  0
 18 13  1  0  0  0  0
 19  2  1  0  0  0  0
 20  4  1  0  0  0  0
 21 10  2  0  0  0  0
 22 20  1  0  0  0  0
 23 15  1  0  0  0  0
 24 27  1  0  0  0  0
 25 26  1  0  0  0  0
 25 18  2  0  0  0  0
 26 19  2  0  0  0  0
 27 12  1  0  0  0  0
 28 30  1  0  0  0  0
 30 29  1  0  0  0  0
M  END
>  <MODEL>
7

>  <REMARK>
 VINA RESULT:      -7.3      2.228      7.049
  Name = 
  2 active torsions:
  status: ('A' for Active; 'I' for Inactive)
    1  A    between atoms: C_11  and  C_28
    2  A    between atoms: C_28  and  O_30
                            x       y       z     vdW  Elec       q    Type
                         _______ _______ _______ _____ _____    ______ ____

>  <TORSDO>
F 2

$$$$
=
 OpenBabel11112416153D

 30 35  0  0  1  0  0  0  0  0999 V2000
  189.4740  174.7740  143.2650 C   0  0  1  0  0  3  0  0  0  0  0  0
  187.3860  176.2490  143.2840 C   0  0  0  0  0  0  0  0  0  0  0  0
  190.8100  176.7530  146.7560 O   0  0  0  0  0  0  0  0  0  0  0  0
  190.6750  174.2890  144.1050 C   0  0  1  0  0  3  0  0  0  0  0  0
  188.7620  173.6120  142.7340 N   0  0  0  0  0  2  0  0  0  0  0  0
  191.8200  171.9260  141.4530 O   0  0  0  0  0  1  0  0  0  0  0  0
  193.9740  174.4390  143.8810 C   0  0  1  0  0  3  0  0  0  0  0  0
  190.9780  172.4960  142.4130 C   0  0  2  0  0  3  0  0  0  0  0  0
  193.7270  175.4460  145.0260 C   0  0  2  0  0  3  0  0  0  0  0  0
  192.1330  176.3420  146.7930 C   0  0  0  0  0  0  0  0  0  0  0  0
  189.6320  172.9090  141.7740 C   0  0  2  0  0  3  0  0  0  0  0  0
  191.6660  173.6790  143.1120 C   0  0  2  0  0  3  0  0  0  0  0  0
  186.6060  177.2560  143.8600 C   0  0  0  0  0  3  0  0  0  0  0  0
  194.9280  175.3180  145.9440 C   0  0  0  0  0  2  0  0  0  0  0  0
  195.3940  173.9270  144.0430 C   0  0  0  0  0  2  0  0  0  0  0  0
  187.0020  175.7190  142.0580 O   0  0  0  0  0  1  0  0  0  0  0  0
  190.1400  175.8920  145.8610 C   0  0  2  0  0  3  0  0  0  0  0  0
  186.9790  177.8340  145.0760 C   0  0  0  0  0  3  0  0  0  0  0  0
  188.5500  175.7930  143.9360 C   0  0  0  0  0  0  0  0  0  0  0  0
  191.2150  175.4720  144.8840 C   0  0  1  0  0  3  0  0  0  0  0  0
  192.9680  176.8040  147.6150 O   0  0  0  0  0  0  0  0  0  0  0  0
  192.4150  175.2590  145.7950 C   0  0  1  0  0  3  0  0  0  0  0  0
  196.0530  174.8240  145.0670 C   0  0  0  0  0  2  0  0  0  0  0  0
  192.8390  172.5410  144.9230 O   0  0  0  0  0  1  0  0  0  0  0  0
  188.1460  177.4170  145.7180 C   0  0  0  0  0  3  0  0  0  0  0  0
  188.9480  176.4290  145.1410 C   0  0  0  0  0  0  0  0  0  0  0  0
  193.0030  173.2580  143.7320 C   0  0  2  0  0  3  0  0  0  0  0  0
  189.8190  173.7310  140.4970 C   0  0  0  0  0  2  0  0  0  0  0  0
  188.3620  172.6700  139.2290 C   0  0  0  0  0  1  0  0  0  0  0  0
  188.5940  173.8940  139.8530 O   0  0  0  0  0  0  0  0  0  0  0  0
  1  5  1  1  0  0  0
  1 19  1  0  0  0  0
  1  4  1  0  0  0  0
  2 13  2  0  0  0  0
  2 19  1  0  0  0  0
  3 10  1  0  0  0  0
  4 20  1  0  0  0  0
  6  8  1  0  0  0  0
  7 15  1  0  0  0  0
  7  9  1  0  0  0  0
  8 12  1  0  0  0  0
  9 22  1  0  0  0  0
  9 14  1  0  0  0  0
 10 21  2  0  0  0  0
 11  8  1  0  0  0  0
 11  5  1  0  0  0  0
 12 27  1  0  0  0  0
 12  4  1  0  0  0  0
 13 18  1  0  0  0  0
 15 23  1  0  0  0  0
 16  2  1  0  0  0  0
 17  3  1  0  0  0  0
 18 25  2  0  0  0  0
 19 26  2  0  0  0  0
 20 22  1  0  0  0  0
 20 17  1  0  0  0  0
 22 10  1  0  0  0  0
 23 14  1  0  0  0  0
 26 25  1  0  0  0  0
 26 17  1  0  0  0  0
 27  7  1  0  0  0  0
 27 24  1  0  0  0  0
 28 11  1  0  0  0  0
 29 30  1  0  0  0  0
 30 28  1  0  0  0  0
M  END
>  <MODEL>
8

>  <REMARK>
 VINA RESULT:      -7.2      2.227      3.537
  Name = 
  2 active torsions:
  status: ('A' for Active; 'I' for Inactive)
    1  A    between atoms: C_11  and  C_28
    2  A    between atoms: C_28  and  O_30
                            x       y       z     vdW  Elec       q    Type
                         _______ _______ _______ _____ _____    ______ ____

>  <TORSDO>
F 2

$$$$
=
 OpenBabel11112416153D

 30 35  0  0  1  0  0  0  0  0999 V2000
  189.3580  176.2390  144.4910 C   0  0  1  0  0  3  0  0  0  0  0  0
  187.4270  177.8300  145.0150 C   0  0  0  0  0  0  0  0  0  0  0  0
  187.7300  175.6520  140.6330 O   0  0  0  0  0  0  0  0  0  0  0  0
  190.1100  175.5090  143.3590 C   0  0  1  0  0  3  0  0  0  0  0  0
  190.3200  176.9940  145.2940 N   0  0  0  0  0  2  0  0  0  0  0  0
  192.6990  174.1630  145.6850 O   0  0  0  0  0  1  0  0  0  0  0  0
  190.7560  172.3650  142.5470 C   0  0  1  0  0  3  0  0  0  0  0  0
  191.9370  175.1090  144.9940 C   0  0  2  0  0  3  0  0  0  0  0  0
  189.7110  172.7220  141.4680 C   0  0  2  0  0  3  0  0  0  0  0  0
  188.4460  174.5410  140.2190 C   0  0  0  0  0  0  0  0  0  0  0  0
  191.2190  176.0530  145.9860 C   0  0  2  0  0  3  0  0  0  0  0  0
  190.9480  174.4230  144.0380 C   0  0  2  0  0  3  0  0  0  0  0  0
  186.2580  178.4980  144.6380 C   0  0  0  0  0  3  0  0  0  0  0  0
  190.1160  171.9350  140.2360 C   0  0  0  0  0  2  0  0  0  0  0  0
  191.5930  171.2260  141.9920 C   0  0  0  0  0  2  0  0  0  0  0  0
  187.8580  177.9200  146.3330 O   0  0  0  0  0  1  0  0  0  0  0  0
  188.4130  176.1860  141.7470 C   0  0  2  0  0  3  0  0  0  0  0  0
  185.7770  178.4040  143.3310 C   0  0  0  0  0  3  0  0  0  0  0  0
  188.1420  177.0680  144.0690 C   0  0  0  0  0  0  0  0  0  0  0  0
  189.0850  174.9850  142.3730 C   0  0  1  0  0  3  0  0  0  0  0  0
  188.1920  173.9240  139.1510 O   0  0  0  0  0  0  0  0  0  0  0  0
  189.5730  174.2150  141.1540 C   0  0  1  0  0  3  0  0  0  0  0  0
  190.8720  170.7350  140.7570 C   0  0  0  0  0  2  0  0  0  0  0  0
  192.3190  174.1750  142.0370 O   0  0  0  0  0  1  0  0  0  0  0  0
  186.4550  177.6280  142.3910 C   0  0  0  0  0  3  0  0  0  0  0  0
  187.6120  176.9340  142.7600 C   0  0  0  0  0  0  0  0  0  0  0  0
  191.6720  173.4840  143.0670 C   0  0  2  0  0  3  0  0  0  0  0  0
  190.4750  175.2900  147.0840 C   0  0  0  0  0  2  0  0  0  0  0  0
  191.5650  176.6950  148.3880 C   0  0  0  0  0  1  0  0  0  0  0  0
  191.1910  175.3560  148.2780 O   0  0  0  0  0  0  0  0  0  0  0  0
  1 19  1  6  0  0  0
  1  5  1  0  0  0  0
  2 16  1  0  0  0  0
  3 17  1  0  0  0  0
  4 12  1  0  0  0  0
  4  1  1  0  0  0  0
  5 11  1  0  0  0  0
  7 27  1  0  0  0  0
  8  6  1  0  0  0  0
  8 11  1  0  0  0  0
  9  7  1  0  0  0  0
 10  3  1  0  0  0  0
 10 22  1  0  0  0  0
 11 28  1  0  0  0  0
 12  8  1  0  0  0  0
 13  2  1  0  0  0  0
 14 23  1  0  0  0  0
 14  9  1  0  0  0  0
 15  7  1  0  0  0  0
 17 20  1  0  0  0  0
 17 26  1  0  0  0  0
 18 13  2  0  0  0  0
 19  2  2  0  0  0  0
 20  4  1  0  0  0  0
 21 10  2  0  0  0  0
 22  9  1  0  0  0  0
 22 20  1  0  0  0  0
 23 15  1  0  0  0  0
 24 27  1  0  0  0  0
 25 26  2  0  0  0  0
 25 18  1  0  0  0  0
 26 19  1  0  0  0  0
 27 12  1  0  0  0  0
 28 30  1  0  0  0  0
 30 29  1  0  0  0  0
M  END
>  <MODEL>
9

>  <REMARK>
 VINA RESULT:      -7.2      2.452      5.693
  Name = 
  2 active torsions:
  status: ('A' for Active; 'I' for Inactive)
    1  A    between atoms: C_11  and  C_28
    2  A    between atoms: C_28  and  O_30
                            x       y       z     vdW  Elec       q    Type
                         _______ _______ _______ _____ _____    ______ ____

>  <TORSDO>
F 2

$$$$
