=
 OpenBabel11112416243D

 30 35  0  0  1  0  0  0  0  0999 V2000
  187.1610  176.4380  144.0170 C   0  0  0  0  0  0  0  0  0  0  0  0
  185.2010  177.6340  145.0050 C   0  0  0  0  0  0  0  0  0  0  0  0
  189.1600  176.5210  147.6620 O   0  0  0  0  0  0  0  0  0  0  0  0
  188.4870  175.9440  144.1680 C   0  0  0  0  0  0  0  0  0  0  0  0
  186.4110  176.1190  142.7470 C   0  0  0  0  0  2  0  0  0  0  0  0
  188.9690  174.5540  140.8330 O   0  0  0  0  0  0  0  0  0  0  0  0
  191.5360  175.9580  143.6320 C   0  0  1  0  0  3  0  0  0  0  0  0
  188.5030  175.2580  141.7680 C   0  0  0  0  0  0  0  0  0  0  0  0
  191.6310  175.9930  145.1550 C   0  0  2  0  0  3  0  0  0  0  0  0
  190.3830  175.8290  147.4430 C   0  0  2  0  0  3  0  0  0  0  0  0
  187.3040  176.1090  141.5130 C   0  0  2  0  0  3  0  0  0  0  0  0
  189.1600  175.3150  143.0470 N   0  0  0  0  0  0  0  0  0  0  0  0
  184.5970  178.2300  146.1160 C   0  0  0  0  0  3  0  0  0  0  0  0
  192.8650  175.1830  145.4930 C   0  0  0  0  0  2  0  0  0  0  0  0
  192.9430  175.6700  143.1200 C   0  0  0  0  0  2  0  0  0  0  0  0
  184.5050  177.6280  143.8400 F   0  0  0  0  0  0  0  0  0  0  0  0
  188.4370  176.6160  146.4910 C   0  0  0  0  0  0  0  0  0  0  0  0
  185.2600  178.2900  147.3400 C   0  0  0  0  0  3  0  0  0  0  0  0
  186.5030  177.0820  145.1090 C   0  0  0  0  0  0  0  0  0  0  0  0
  189.0990  176.0570  145.4340 C   0  0  0  0  0  0  0  0  0  0  0  0
  191.5380  176.6970  147.9260 C   0  0  0  0  0  1  0  0  0  0  0  0
  190.3970  175.4760  145.9210 C   0  0  1  0  0  3  0  0  0  0  0  0
  193.8130  175.4150  144.3370 C   0  0  0  0  0  2  0  0  0  0  0  0
  190.9110  173.7930  142.7810 O   0  0  0  0  0  0  0  0  0  0  0  0
  186.5410  177.7570  147.4640 C   0  0  0  0  0  3  0  0  0  0  0  0
  187.1660  177.1640  146.3630 C   0  0  0  0  0  0  0  0  0  0  0  0
  190.5440  174.9510  143.1210 C   0  0  0  0  0  0  0  0  0  0  0  0
  187.7060  177.4120  141.2040 O   0  0  0  0  0  0  0  0  0  0  0  0
  186.4390  177.2360  139.2020 C   0  0  0  0  0  1  0  0  0  0  0  0
  186.6270  177.9660  140.5160 C   0  0  0  0  0  2  0  0  0  0  0  0
  1  4  2  0  0  0  0
  1 19  1  0  0  0  0
  2 19  2  0  0  0  0
  2 13  1  0  0  0  0
  4 20  1  0  0  0  0
  5  1  1  0  0  0  0
  6  8  2  0  0  0  0
  7 15  1  6  0  0  0
  7  9  1  0  0  0  0
  8 12  1  0  0  0  0
  9 14  1  6  0  0  0
  9 22  1  0  0  0  0
 10  3  1  0  0  0  0
 10 21  1  6  0  0  0
 11 28  1  1  0  0  0
 11  8  1  0  0  0  0
 11  5  1  0  0  0  0
 12 27  1  0  0  0  0
 12  4  1  0  0  0  0
 13 18  2  0  0  0  0
 15 23  1  0  0  0  0
 16  2  1  0  0  0  0
 17  3  1  0  0  0  0
 18 25  1  0  0  0  0
 19 26  1  0  0  0  0
 20 17  2  0  0  0  0
 22 20  1  6  0  0  0
 22 10  1  0  0  0  0
 23 14  1  0  0  0  0
 24 27  2  0  0  0  0
 26 17  1  0  0  0  0
 26 25  2  0  0  0  0
 27  7  1  0  0  0  0
 29 30  1  0  0  0  0
 30 28  1  0  0  0  0
M  END
>  <MODEL>
1

>  <REMARK>
 VINA RESULT:      -8.8      0.000      0.000
  Name = 
  2 active torsions:
  status: ('A' for Active; 'I' for Inactive)
    1  A    between atoms: C_11  and  O_28
    2  A    between atoms: O_28  and  C_30
                            x       y       z     vdW  Elec       q    Type
                         _______ _______ _______ _____ _____    ______ ____

>  <TORSDO>
F 2

$$$$
=
 OpenBabel11112416243D

 30 35  0  0  1  0  0  0  0  0999 V2000
  189.5440  174.7740  144.7310 C   0  0  0  0  0  0  0  0  0  0  0  0
  191.5000  173.5470  143.7720 C   0  0  0  0  0  0  0  0  0  0  0  0
  188.1560  175.7130  140.9260 O   0  0  0  0  0  0  0  0  0  0  0  0
  188.3990  175.5940  144.5200 C   0  0  0  0  0  0  0  0  0  0  0  0
  189.8140  174.2540  146.1220 C   0  0  0  0  0  2  0  0  0  0  0  0
  187.3240  175.9860  147.9810 O   0  0  0  0  0  0  0  0  0  0  0  0
  186.8200  178.2530  144.6640 C   0  0  1  0  0  3  0  0  0  0  0  0
  188.0670  175.7610  146.9880 C   0  0  0  0  0  0  0  0  0  0  0  0
  186.6410  178.0290  143.1640 C   0  0  2  0  0  3  0  0  0  0  0  0
  186.9410  176.4230  141.1270 C   0  0  2  0  0  3  0  0  0  0  0  0
  189.4520  175.2530  147.2130 C   0  0  2  0  0  3  0  0  0  0  0  0
  187.6270  176.0680  145.6530 N   0  0  0  0  0  0  0  0  0  0  0  0
  192.2080  173.1150  142.6480 C   0  0  0  0  0  3  0  0  0  0  0  0
  185.2630  178.5700  142.8460 C   0  0  0  0  0  2  0  0  0  0  0  0
  185.8740  179.3840  145.0460 C   0  0  0  0  0  2  0  0  0  0  0  0
  191.9900  173.2100  144.9910 F   0  0  0  0  0  0  0  0  0  0  0  0
  188.7470  175.4070  142.1330 C   0  0  0  0  0  0  0  0  0  0  0  0
  191.7730  173.4400  141.3650 C   0  0  0  0  0  3  0  0  0  0  0  0
  190.3250  174.3260  143.6220 C   0  0  0  0  0  0  0  0  0  0  0  0
  188.0330  175.8950  143.1920 C   0  0  0  0  0  0  0  0  0  0  0  0
  186.9920  177.7280  140.3420 C   0  0  0  0  0  1  0  0  0  0  0  0
  186.7960  176.5750  142.6750 C   0  0  1  0  0  3  0  0  0  0  0  0
  185.0650  179.7210  143.8070 C   0  0  0  0  0  2  0  0  0  0  0  0
  185.4380  176.8020  146.0000 O   0  0  0  0  0  0  0  0  0  0  0  0
  190.6240  174.2070  141.1930 C   0  0  0  0  0  3  0  0  0  0  0  0
  189.9050  174.6560  142.3050 C   0  0  0  0  0  0  0  0  0  0  0  0
  186.5680  177.0180  145.4840 C   0  0  0  0  0  0  0  0  0  0  0  0
  190.3540  176.3200  147.2030 O   0  0  0  0  0  0  0  0  0  0  0  0
  192.6840  176.2640  146.7410 C   0  0  0  0  0  1  0  0  0  0  0  0
  191.5630  175.7700  147.6320 C   0  0  0  0  0  2  0  0  0  0  0  0
  1  5  1  0  0  0  0
  2 16  1  0  0  0  0
  3 10  1  0  0  0  0
  3 17  1  0  0  0  0
  4  1  1  0  0  0  0
  4 12  1  0  0  0  0
  5 11  1  0  0  0  0
  7 15  1  1  0  0  0
  7 27  1  0  0  0  0
  8 11  1  0  0  0  0
  8  6  2  0  0  0  0
  9 14  1  1  0  0  0
  9  7  1  0  0  0  0
 10 21  1  6  0  0  0
 10 22  1  0  0  0  0
 11 28  1  6  0  0  0
 12  8  1  0  0  0  0
 13  2  2  0  0  0  0
 14 23  1  0  0  0  0
 17 26  2  0  0  0  0
 17 20  1  0  0  0  0
 18 13  1  0  0  0  0
 19  2  1  0  0  0  0
 19  1  2  0  0  0  0
 20  4  2  0  0  0  0
 22  9  1  0  0  0  0
 22 20  1  1  0  0  0
 23 15  1  0  0  0  0
 25 18  2  0  0  0  0
 25 26  1  0  0  0  0
 26 19  1  0  0  0  0
 27 12  1  0  0  0  0
 27 24  2  0  0  0  0
 28 30  1  0  0  0  0
 29 30  1  0  0  0  0
M  END
>  <MODEL>
2

>  <REMARK>
 VINA RESULT:      -8.2      2.356      6.950
  Name = 
  2 active torsions:
  status: ('A' for Active; 'I' for Inactive)
    1  A    between atoms: C_11  and  O_28
    2  A    between atoms: O_28  and  C_30
                            x       y       z     vdW  Elec       q    Type
                         _______ _______ _______ _____ _____    ______ ____

>  <TORSDO>
F 2

$$$$
=
 OpenBabel11112416243D

 30 35  0  0  1  0  0  0  0  0999 V2000
  188.8530  175.8210  143.5810 C   0  0  0  0  0  0  0  0  0  0  0  0
  190.4590  174.6040  145.0620 C   0  0  0  0  0  0  0  0  0  0  0  0
  187.3430  177.9470  146.8190 O   0  0  0  0  0  0  0  0  0  0  0  0
  187.7630  176.7270  143.4540 C   0  0  0  0  0  0  0  0  0  0  0  0
  189.5170  175.3070  142.3270 C   0  0  0  0  0  2  0  0  0  0  0  0
  187.3530  176.6310  139.8330 O   0  0  0  0  0  0  0  0  0  0  0  0
  184.8120  177.4610  142.8750 C   0  0  1  0  0  3  0  0  0  0  0  0
  187.6860  176.2860  140.9980 C   0  0  0  0  0  0  0  0  0  0  0  0
  184.8820  178.1120  144.2540 C   0  0  2  0  0  3  0  0  0  0  0  0
  186.3700  178.8290  146.2770 C   0  0  2  0  0  3  0  0  0  0  0  0
  188.5360  175.0740  141.1850 C   0  0  2  0  0  3  0  0  0  0  0  0
  187.1900  176.9950  142.1480 N   0  0  0  0  0  0  0  0  0  0  0  0
  190.9760  174.3810  146.3410 C   0  0  0  0  0  3  0  0  0  0  0  0
  183.9960  179.3360  144.1580 C   0  0  0  0  0  2  0  0  0  0  0  0
  183.5090  177.9350  142.2410 C   0  0  0  0  0  2  0  0  0  0  0  0
  190.9890  173.8890  144.0380 F   0  0  0  0  0  0  0  0  0  0  0  0
  187.8680  177.1350  145.8360 C   0  0  0  0  0  0  0  0  0  0  0  0
  190.4660  175.0660  147.4430 C   0  0  0  0  0  3  0  0  0  0  0  0
  189.4040  175.5310  144.8670 C   0  0  0  0  0  0  0  0  0  0  0  0
  187.2910  177.3680  144.6190 C   0  0  0  0  0  0  0  0  0  0  0  0
  185.0680  178.6710  147.0530 C   0  0  0  0  0  1  0  0  0  0  0  0
  186.2920  178.4820  144.7550 C   0  0  1  0  0  3  0  0  0  0  0  0
  182.8990  178.9490  143.1910 C   0  0  0  0  0  2  0  0  0  0  0  0
  185.9610  178.7280  141.1790 O   0  0  0  0  0  0  0  0  0  0  0  0
  189.4280  175.9800  147.2760 C   0  0  0  0  0  3  0  0  0  0  0  0
  188.8910  176.2100  146.0060 C   0  0  0  0  0  0  0  0  0  0  0  0
  185.9980  177.7770  142.0070 C   0  0  0  0  0  0  0  0  0  0  0  0
  187.7280  173.9690  141.4680 O   0  0  0  0  0  0  0  0  0  0  0  0
  188.2680  172.8240  139.4580 C   0  0  0  0  0  1  0  0  0  0  0  0
  188.4290  172.8740  140.9630 C   0  0  0  0  0  2  0  0  0  0  0  0
  1 19  1  0  0  0  0
  2 13  1  0  0  0  0
  4  1  2  0  0  0  0
  4 20  1  0  0  0  0
  5  1  1  0  0  0  0
  6  8  2  0  0  0  0
  7 15  1  6  0  0  0
  7  9  1  0  0  0  0
  8 11  1  0  0  0  0
  8 12  1  0  0  0  0
  9 14  1  6  0  0  0
  9 22  1  0  0  0  0
 10  3  1  0  0  0  0
 10 21  1  1  0  0  0
 11 28  1  1  0  0  0
 11  5  1  0  0  0  0
 12  4  1  0  0  0  0
 13 18  2  0  0  0  0
 15 23  1  0  0  0  0
 16  2  1  0  0  0  0
 17 26  1  0  0  0  0
 17  3  1  0  0  0  0
 19  2  2  0  0  0  0
 19 26  1  0  0  0  0
 20 17  2  0  0  0  0
 22 20  1  1  0  0  0
 22 10  1  0  0  0  0
 23 14  1  0  0  0  0
 24 27  2  0  0  0  0
 25 18  1  0  0  0  0
 26 25  2  0  0  0  0
 27 12  1  0  0  0  0
 27  7  1  0  0  0  0
 29 30  1  0  0  0  0
 30 28  1  0  0  0  0
M  END
>  <MODEL>
3

>  <REMARK>
 VINA RESULT:      -8.0      2.251      5.572
  Name = 
  2 active torsions:
  status: ('A' for Active; 'I' for Inactive)
    1  A    between atoms: C_11  and  O_28
    2  A    between atoms: O_28  and  C_30
                            x       y       z     vdW  Elec       q    Type
                         _______ _______ _______ _____ _____    ______ ____

>  <TORSDO>
F 2

$$$$
=
 OpenBabel11112416243D

 30 35  0  0  1  0  0  0  0  0999 V2000
  187.9810  177.0290  143.9200 C   0  0  0  0  0  0  0  0  0  0  0  0
  186.0860  178.4910  143.1960 C   0  0  0  0  0  0  0  0  0  0  0  0
  188.1090  175.1980  140.1900 O   0  0  0  0  0  0  0  0  0  0  0  0
  188.8650  175.9510  143.6330 C   0  0  0  0  0  0  0  0  0  0  0  0
  188.1890  177.8150  145.1910 C   0  0  0  0  0  2  0  0  0  0  0  0
  190.7440  175.8960  146.7550 O   0  0  0  0  0  0  0  0  0  0  0  0
  189.9320  173.0660  143.9760 C   0  0  1  0  0  3  0  0  0  0  0  0
  189.8130  176.1170  145.9350 C   0  0  0  0  0  0  0  0  0  0  0  0
  189.7390  172.9970  142.4630 C   0  0  2  0  0  3  0  0  0  0  0  0
  189.1890  174.2760  140.2530 C   0  0  2  0  0  3  0  0  0  0  0  0
  188.6510  176.9520  146.3580 C   0  0  2  0  0  3  0  0  0  0  0  0
  189.8170  175.5060  144.6330 N   0  0  0  0  0  0  0  0  0  0  0  0
  185.1890  178.8820  142.1990 C   0  0  0  0  0  3  0  0  0  0  0  0
  190.8640  172.1160  141.9610 C   0  0  0  0  0  2  0  0  0  0  0  0
  190.7330  171.8280  144.3640 C   0  0  0  0  0  2  0  0  0  0  0  0
  186.0080  179.1230  144.3940 F   0  0  0  0  0  0  0  0  0  0  0  0
  187.9270  175.8200  141.4060 C   0  0  0  0  0  0  0  0  0  0  0  0
  185.1990  178.2630  140.9500 C   0  0  0  0  0  3  0  0  0  0  0  0
  187.0220  177.4540  142.9510 C   0  0  0  0  0  0  0  0  0  0  0  0
  188.8030  175.3640  142.3510 C   0  0  0  0  0  0  0  0  0  0  0  0
  188.7010  172.9060  139.7990 C   0  0  0  0  0  1  0  0  0  0  0  0
  189.7160  174.3490  141.7230 C   0  0  1  0  0  3  0  0  0  0  0  0
  191.1080  171.1220  143.0740 C   0  0  0  0  0  2  0  0  0  0  0  0
  191.8560  174.3670  144.6170 O   0  0  0  0  0  0  0  0  0  0  0  0
  186.1070  177.2400  140.6870 C   0  0  0  0  0  3  0  0  0  0  0  0
  187.0080  176.8290  141.6740 C   0  0  0  0  0  0  0  0  0  0  0  0
  190.6080  174.3280  144.4320 C   0  0  0  0  0  0  0  0  0  0  0  0
  187.6060  176.1270  146.7840 O   0  0  0  0  0  0  0  0  0  0  0  0
  185.3050  176.6730  146.5600 C   0  0  0  0  0  1  0  0  0  0  0  0
  186.6190  177.0040  147.2360 C   0  0  0  0  0  2  0  0  0  0  0  0
  1  5  1  0  0  0  0
  2 16  1  0  0  0  0
  3 10  1  0  0  0  0
  3 17  1  0  0  0  0
  4  1  1  0  0  0  0
  4 12  1  0  0  0  0
  5 11  1  0  0  0  0
  7 15  1  6  0  0  0
  7 27  1  0  0  0  0
  8 11  1  0  0  0  0
  8  6  2  0  0  0  0
  9 14  1  6  0  0  0
  9  7  1  0  0  0  0
 10 21  1  1  0  0  0
 10 22  1  0  0  0  0
 11 28  1  6  0  0  0
 12  8  1  0  0  0  0
 13  2  2  0  0  0  0
 14 23  1  0  0  0  0
 17 26  2  0  0  0  0
 17 20  1  0  0  0  0
 18 13  1  0  0  0  0
 19  2  1  0  0  0  0
 19  1  2  0  0  0  0
 20  4  2  0  0  0  0
 22 20  1  1  0  0  0
 22  9  1  0  0  0  0
 23 15  1  0  0  0  0
 25 18  2  0  0  0  0
 25 26  1  0  0  0  0
 26 19  1  0  0  0  0
 27 24  2  0  0  0  0
 27 12  1  0  0  0  0
 28 30  1  0  0  0  0
 29 30  1  0  0  0  0
M  END
>  <MODEL>
4

>  <REMARK>
 VINA RESULT:      -8.0      1.918      4.993
  Name = 
  2 active torsions:
  status: ('A' for Active; 'I' for Inactive)
    1  A    between atoms: C_11  and  O_28
    2  A    between atoms: O_28  and  C_30
                            x       y       z     vdW  Elec       q    Type
                         _______ _______ _______ _____ _____    ______ ____

>  <TORSDO>
F 2

$$$$
=
 OpenBabel11112416243D

 30 35  0  0  1  0  0  0  0  0999 V2000
  192.0970  174.6370  144.5050 C   0  0  0  0  0  0  0  0  0  0  0  0
  193.9050  174.0000  142.9010 C   0  0  0  0  0  0  0  0  0  0  0  0
  189.3090  174.8190  141.4270 O   0  0  0  0  0  0  0  0  0  0  0  0
  190.7520  175.0490  144.7220 C   0  0  0  0  0  0  0  0  0  0  0  0
  192.9610  174.3310  145.7040 C   0  0  0  0  0  2  0  0  0  0  0  0
  190.8170  175.3500  148.3540 O   0  0  0  0  0  0  0  0  0  0  0  0
  188.5610  177.0990  145.4820 C   0  0  1  0  0  3  0  0  0  0  0  0
  191.2200  175.2910  147.1610 C   0  0  0  0  0  0  0  0  0  0  0  0
  187.9750  176.7200  144.1240 C   0  0  2  0  0  3  0  0  0  0  0  0
  188.0710  175.1350  142.0510 C   0  0  2  0  0  3  0  0  0  0  0  0
  192.6870  175.2490  146.8880 C   0  0  2  0  0  3  0  0  0  0  0  0
  190.2910  175.3470  146.0650 N   0  0  0  0  0  0  0  0  0  0  0  0
  194.2990  173.7220  141.5890 C   0  0  0  0  0  3  0  0  0  0  0  0
  186.4740  176.7880  144.3090 C   0  0  0  0  0  2  0  0  0  0  0  0
  187.4900  177.9120  146.2000 C   0  0  0  0  0  2  0  0  0  0  0  0
  194.8510  173.9210  143.8700 F   0  0  0  0  0  0  0  0  0  0  0  0
  190.3300  174.7990  142.3530 C   0  0  0  0  0  0  0  0  0  0  0  0
  193.3860  173.8020  140.5400 C   0  0  0  0  0  3  0  0  0  0  0  0
  192.5650  174.3680  143.1830 C   0  0  0  0  0  0  0  0  0  0  0  0
  189.8910  175.1230  143.6060 C   0  0  0  0  0  0  0  0  0  0  0  0
  187.4470  176.3300  141.3400 C   0  0  0  0  0  1  0  0  0  0  0  0
  188.4070  175.3510  143.5610 C   0  0  1  0  0  3  0  0  0  0  0  0
  186.2540  177.8920  145.3200 C   0  0  0  0  0  2  0  0  0  0  0  0
  188.2270  175.4000  147.1560 O   0  0  0  0  0  0  0  0  0  0  0  0
  192.0650  174.1650  140.7930 C   0  0  0  0  0  3  0  0  0  0  0  0
  191.6520  174.4550  142.0970 C   0  0  0  0  0  0  0  0  0  0  0  0
  188.9940  175.9120  146.2960 C   0  0  0  0  0  0  0  0  0  0  0  0
  193.1520  176.5370  146.6110 O   0  0  0  0  0  0  0  0  0  0  0  0
  194.9420  177.1650  145.1790 C   0  0  0  0  0  1  0  0  0  0  0  0
  194.5250  176.3860  146.4100 C   0  0  0  0  0  2  0  0  0  0  0  0
  1  4  1  0  0  0  0
  1  5  1  0  0  0  0
  2 19  1  0  0  0  0
  2 16  1  0  0  0  0
  3 10  1  0  0  0  0
  3 17  1  0  0  0  0
  4 12  1  0  0  0  0
  5 11  1  0  0  0  0
  7 15  1  1  0  0  0
  7 27  1  0  0  0  0
  8  6  2  0  0  0  0
  9 14  1  1  0  0  0
  9  7  1  0  0  0  0
 10 21  1  6  0  0  0
 10 22  1  0  0  0  0
 11 28  1  6  0  0  0
 11  8  1  0  0  0  0
 12 27  1  0  0  0  0
 12  8  1  0  0  0  0
 13  2  2  0  0  0  0
 14 23  1  0  0  0  0
 17 20  1  0  0  0  0
 18 25  2  0  0  0  0
 18 13  1  0  0  0  0
 19  1  2  0  0  0  0
 20  4  2  0  0  0  0
 22 20  1  6  0  0  0
 22  9  1  0  0  0  0
 23 15  1  0  0  0  0
 25 26  1  0  0  0  0
 26 17  2  0  0  0  0
 26 19  1  0  0  0  0
 27 24  2  0  0  0  0
 29 30  1  0  0  0  0
 30 28  1  0  0  0  0
M  END
>  <MODEL>
5

>  <REMARK>
 VINA RESULT:      -7.4      2.680      7.268
  Name = 
  2 active torsions:
  status: ('A' for Active; 'I' for Inactive)
    1  A    between atoms: C_11  and  O_28
    2  A    between atoms: O_28  and  C_30
                            x       y       z     vdW  Elec       q    Type
                         _______ _______ _______ _____ _____    ______ ____

>  <TORSDO>
F 2

$$$$
=
 OpenBabel11112416243D

 30 35  0  0  1  0  0  0  0  0999 V2000
  190.4170  173.7840  143.8740 C   0  0  0  0  0  0  0  0  0  0  0  0
  188.4780  175.2480  143.2850 C   0  0  0  0  0  0  0  0  0  0  0  0
  192.2010  176.8640  146.0220 O   0  0  0  0  0  0  0  0  0  0  0  0
  191.7000  173.6470  144.4740 C   0  0  0  0  0  0  0  0  0  0  0  0
  189.7240  172.5460  143.3590 C   0  0  0  0  0  2  0  0  0  0  0  0
  192.2910  170.1180  143.7790 O   0  0  0  0  0  0  0  0  0  0  0  0
  194.7710  173.2570  144.4120 C   0  0  1  0  0  3  0  0  0  0  0  0
  191.8140  171.2820  143.6880 C   0  0  0  0  0  0  0  0  0  0  0  0
  194.7780  174.5340  145.2480 C   0  0  2  0  0  3  0  0  0  0  0  0
  193.3910  176.3090  146.5680 C   0  0  2  0  0  3  0  0  0  0  0  0
  190.6850  171.5360  142.7460 C   0  0  2  0  0  3  0  0  0  0  0  0
  192.3980  172.3770  144.4150 N   0  0  0  0  0  0  0  0  0  0  0  0
  187.8470  176.4920  143.3700 C   0  0  0  0  0  3  0  0  0  0  0  0
  195.9400  174.3710  146.2060 C   0  0  0  0  0  2  0  0  0  0  0  0
  196.1840  172.6920  144.4760 C   0  0  0  0  0  2  0  0  0  0  0  0
  187.8520  174.2740  142.5770 F   0  0  0  0  0  0  0  0  0  0  0  0
  191.5560  175.9430  145.2250 C   0  0  0  0  0  0  0  0  0  0  0  0
  188.4400  177.5440  144.0650 C   0  0  0  0  0  3  0  0  0  0  0  0
  189.7360  175.0390  143.9040 C   0  0  0  0  0  0  0  0  0  0  0  0
  192.2430  174.7640  145.1440 C   0  0  0  0  0  0  0  0  0  0  0  0
  194.5670  177.2150  146.2220 C   0  0  0  0  0  1  0  0  0  0  0  0
  193.4730  174.8550  146.0030 C   0  0  1  0  0  3  0  0  0  0  0  0
  196.9660  173.5630  145.4430 C   0  0  0  0  0  2  0  0  0  0  0  0
  194.0670  171.3210  145.6620 O   0  0  0  0  0  0  0  0  0  0  0  0
  189.6780  177.3630  144.6780 C   0  0  0  0  0  3  0  0  0  0  0  0
  190.3290  176.1290  144.5970 C   0  0  0  0  0  0  0  0  0  0  0  0
  193.7510  172.2520  144.8710 C   0  0  0  0  0  0  0  0  0  0  0  0
  191.1820  172.0240  141.5340 O   0  0  0  0  0  0  0  0  0  0  0  0
  190.1360  173.3720  139.8810 C   0  0  0  0  0  1  0  0  0  0  0  0
  190.0710  172.0960  140.6940 C   0  0  0  0  0  2  0  0  0  0  0  0
  1 19  2  0  0  0  0
  1  4  1  0  0  0  0
  2 13  2  0  0  0  0
  2 19  1  0  0  0  0
  3 10  1  0  0  0  0
  4 20  2  0  0  0  0
  5  1  1  0  0  0  0
  7 15  1  1  0  0  0
  7 27  1  0  0  0  0
  7  9  1  0  0  0  0
  8  6  2  0  0  0  0
  8 12  1  0  0  0  0
  9 22  1  0  0  0  0
  9 14  1  1  0  0  0
 10 21  1  6  0  0  0
 11 28  1  6  0  0  0
 11  5  1  0  0  0  0
 11  8  1  0  0  0  0
 12  4  1  0  0  0  0
 12 27  1  0  0  0  0
 13 18  1  0  0  0  0
 15 23  1  0  0  0  0
 16  2  1  0  0  0  0
 17  3  1  0  0  0  0
 18 25  2  0  0  0  0
 19 26  1  0  0  0  0
 20 17  1  0  0  0  0
 22 20  1  6  0  0  0
 22 10  1  0  0  0  0
 23 14  1  0  0  0  0
 26 25  1  0  0  0  0
 26 17  2  0  0  0  0
 27 24  2  0  0  0  0
 29 30  1  0  0  0  0
 30 28  1  0  0  0  0
M  END
>  <MODEL>
6

>  <REMARK>
 VINA RESULT:      -7.4      3.002      4.555
  Name = 
  2 active torsions:
  status: ('A' for Active; 'I' for Inactive)
    1  A    between atoms: C_11  and  O_28
    2  A    between atoms: O_28  and  C_30
                            x       y       z     vdW  Elec       q    Type
                         _______ _______ _______ _____ _____    ______ ____

>  <TORSDO>
F 2

$$$$
=
 OpenBabel11112416243D

 30 35  0  0  1  0  0  0  0  0999 V2000
  188.5700  174.7890  143.1130 C   0  0  0  0  0  0  0  0  0  0  0  0
  186.8340  176.5870  143.0980 C   0  0  0  0  0  0  0  0  0  0  0  0
  190.4050  176.4670  146.4460 O   0  0  0  0  0  0  0  0  0  0  0  0
  189.7730  174.2630  143.6640 C   0  0  0  0  0  0  0  0  0  0  0  0
  187.8250  173.9670  142.0910 C   0  0  0  0  0  2  0  0  0  0  0  0
  190.1140  171.2930  141.5790 O   0  0  0  0  0  0  0  0  0  0  0  0
  192.7890  173.5670  143.5980 C   0  0  1  0  0  3  0  0  0  0  0  0
  189.7530  172.4380  141.9620 C   0  0  0  0  0  0  0  0  0  0  0  0
  192.8290  174.3730  144.8940 C   0  0  2  0  0  3  0  0  0  0  0  0
  191.4830  175.5980  146.7670 C   0  0  2  0  0  3  0  0  0  0  0  0
  188.7470  173.1930  141.1590 C   0  0  2  0  0  3  0  0  0  0  0  0
  190.3590  173.0570  143.1110 N   0  0  0  0  0  0  0  0  0  0  0  0
  186.3100  177.7510  143.6680 C   0  0  0  0  0  3  0  0  0  0  0  0
  193.8730  173.6910  145.7510 C   0  0  0  0  0  2  0  0  0  0  0  0
  194.1350  172.8600  143.4900 C   0  0  0  0  0  2  0  0  0  0  0  0
  186.1960  176.0760  142.0160 F   0  0  0  0  0  0  0  0  0  0  0  0
  189.7600  176.0420  145.3040 C   0  0  0  0  0  0  0  0  0  0  0  0
  186.9240  178.3430  144.7700 C   0  0  0  0  0  3  0  0  0  0  0  0
  188.0040  175.9910  143.6350 C   0  0  0  0  0  0  0  0  0  0  0  0
  190.3460  174.9290  144.7690 C   0  0  0  0  0  0  0  0  0  0  0  0
  192.7620  176.4170  146.8940 C   0  0  0  0  0  1  0  0  0  0  0  0
  191.4900  174.5080  145.6470 C   0  0  1  0  0  3  0  0  0  0  0  0
  194.8930  173.1530  144.7720 C   0  0  0  0  0  2  0  0  0  0  0  0
  191.8000  171.3880  143.8800 O   0  0  0  0  0  0  0  0  0  0  0  0
  188.0760  177.7770  145.3120 C   0  0  0  0  0  3  0  0  0  0  0  0
  188.6210  176.6180  144.7520 C   0  0  0  0  0  0  0  0  0  0  0  0
  191.6450  172.5920  143.5390 C   0  0  0  0  0  0  0  0  0  0  0  0
  189.3990  174.0740  140.2920 O   0  0  0  0  0  0  0  0  0  0  0  0
  188.5970  172.8580  138.4160 C   0  0  0  0  0  1  0  0  0  0  0  0
  188.5640  174.1660  139.1790 C   0  0  0  0  0  2  0  0  0  0  0  0
  1 19  2  0  0  0  0
  1  4  1  0  0  0  0
  2 19  1  0  0  0  0
  2 13  2  0  0  0  0
  3 10  1  0  0  0  0
  4 20  2  0  0  0  0
  5  1  1  0  0  0  0
  6  8  2  0  0  0  0
  7 15  1  1  0  0  0
  7  9  1  0  0  0  0
  8 12  1  0  0  0  0
  9 22  1  0  0  0  0
  9 14  1  1  0  0  0
 10 21  1  6  0  0  0
 11 28  1  6  0  0  0
 11  8  1  0  0  0  0
 11  5  1  0  0  0  0
 12 27  1  0  0  0  0
 12  4  1  0  0  0  0
 13 18  1  0  0  0  0
 15 23  1  0  0  0  0
 16  2  1  0  0  0  0
 17  3  1  0  0  0  0
 18 25  2  0  0  0  0
 19 26  1  0  0  0  0
 20 17  1  0  0  0  0
 22 20  1  6  0  0  0
 22 10  1  0  0  0  0
 23 14  1  0  0  0  0
 26 17  2  0  0  0  0
 26 25  1  0  0  0  0
 27  7  1  0  0  0  0
 27 24  2  0  0  0  0
 29 30  1  0  0  0  0
 30 28  1  0  0  0  0
M  END
>  <MODEL>
7

>  <REMARK>
 VINA RESULT:      -7.3      2.051      2.767
  Name = 
  2 active torsions:
  status: ('A' for Active; 'I' for Inactive)
    1  A    between atoms: C_11  and  O_28
    2  A    between atoms: O_28  and  C_30
                            x       y       z     vdW  Elec       q    Type
                         _______ _______ _______ _____ _____    ______ ____

>  <TORSDO>
F 2

$$$$
=
 OpenBabel11112416243D

 30 35  0  0  1  0  0  0  0  0999 V2000
  189.7140  176.2200  144.0800 C   0  0  0  0  0  0  0  0  0  0  0  0
  187.6660  177.4540  144.8080 C   0  0  0  0  0  0  0  0  0  0  0  0
  187.8040  174.9120  140.6260 O   0  0  0  0  0  0  0  0  0  0  0  0
  190.3370  175.3340  143.1560 C   0  0  0  0  0  0  0  0  0  0  0  0
  190.5630  176.8620  145.1490 C   0  0  0  0  0  2  0  0  0  0  0  0
  193.6550  175.1740  144.6560 O   0  0  0  0  0  0  0  0  0  0  0  0
  191.5680  172.6250  142.3020 C   0  0  1  0  0  3  0  0  0  0  0  0
  192.4130  175.3520  144.5410 C   0  0  0  0  0  0  0  0  0  0  0  0
  190.5550  172.7180  141.1640 C   0  0  2  0  0  3  0  0  0  0  0  0
  188.7790  174.1650  139.9100 C   0  0  2  0  0  3  0  0  0  0  0  0
  191.6520  175.9400  145.6820 C   0  0  2  0  0  3  0  0  0  0  0  0
  191.7110  174.9170  143.3630 N   0  0  0  0  0  0  0  0  0  0  0  0
  186.3410  177.8260  144.5640 C   0  0  0  0  0  3  0  0  0  0  0  0
  191.2430  172.0890  139.9700 C   0  0  0  0  0  2  0  0  0  0  0  0
  192.5150  171.4850  141.9430 C   0  0  0  0  0  2  0  0  0  0  0  0
  188.2460  177.9120  145.9460 F   0  0  0  0  0  0  0  0  0  0  0  0
  188.3110  175.3420  141.8340 C   0  0  0  0  0  0  0  0  0  0  0  0
  185.6760  177.3780  143.4240 C   0  0  0  0  0  3  0  0  0  0  0  0
  188.3530  176.6120  143.8980 C   0  0  0  0  0  0  0  0  0  0  0  0
  189.5920  174.9090  142.0360 C   0  0  0  0  0  0  0  0  0  0  0  0
  188.1960  172.8050  139.5480 C   0  0  0  0  0  1  0  0  0  0  0  0
  190.0410  174.1330  140.8300 C   0  0  1  0  0  3  0  0  0  0  0  0
  192.1300  171.0120  140.5530 C   0  0  0  0  0  2  0  0  0  0  0  0
  193.4400  174.1130  142.0140 O   0  0  0  0  0  0  0  0  0  0  0  0
  186.3290  176.5470  142.5180 C   0  0  0  0  0  3  0  0  0  0  0  0
  187.6520  176.1570  142.7480 C   0  0  0  0  0  0  0  0  0  0  0  0
  192.3130  173.9090  142.5410 C   0  0  0  0  0  0  0  0  0  0  0  0
  191.0810  174.9190  146.4460 O   0  0  0  0  0  0  0  0  0  0  0  0
  188.9420  174.7110  147.4590 C   0  0  0  0  0  1  0  0  0  0  0  0
  190.1810  175.5660  147.2930 C   0  0  0  0  0  2  0  0  0  0  0  0
  1  5  1  0  0  0  0
  2 16  1  0  0  0  0
  3 17  1  0  0  0  0
  4 12  1  0  0  0  0
  4  1  2  0  0  0  0
  5 11  1  0  0  0  0
  7 15  1  6  0  0  0
  7 27  1  0  0  0  0
  8  6  2  0  0  0  0
  8 11  1  0  0  0  0
  9 14  1  6  0  0  0
  9  7  1  0  0  0  0
 10 21  1  1  0  0  0
 10  3  1  0  0  0  0
 10 22  1  0  0  0  0
 11 28  1  6  0  0  0
 12  8  1  0  0  0  0
 13  2  1  0  0  0  0
 14 23  1  0  0  0  0
 17 20  2  0  0  0  0
 17 26  1  0  0  0  0
 18 13  2  0  0  0  0
 19  1  1  0  0  0  0
 19  2  2  0  0  0  0
 20  4  1  0  0  0  0
 22  9  1  0  0  0  0
 22 20  1  1  0  0  0
 23 15  1  0  0  0  0
 24 27  2  0  0  0  0
 25 26  2  0  0  0  0
 25 18  1  0  0  0  0
 26 19  1  0  0  0  0
 27 12  1  0  0  0  0
 28 30  1  0  0  0  0
 30 29  1  0  0  0  0
M  END
>  <MODEL>
8

>  <REMARK>
 VINA RESULT:      -7.3      2.398      5.315
  Name = 
  2 active torsions:
  status: ('A' for Active; 'I' for Inactive)
    1  A    between atoms: C_11  and  O_28
    2  A    between atoms: O_28  and  C_30
                            x       y       z     vdW  Elec       q    Type
                         _______ _______ _______ _____ _____    ______ ____

>  <TORSDO>
F 2

$$$$
=
 OpenBabel11112416243D

 30 35  0  0  1  0  0  0  0  0999 V2000
  189.5090  174.6340  143.8750 C   0  0  0  0  0  0  0  0  0  0  0  0
  190.3560  173.7870  141.6810 C   0  0  0  0  0  0  0  0  0  0  0  0
  186.2370  176.4120  142.0250 O   0  0  0  0  0  0  0  0  0  0  0  0
  188.5640  175.4200  144.5930 C   0  0  0  0  0  0  0  0  0  0  0  0
  190.4970  173.8020  144.6540 C   0  0  0  0  0  2  0  0  0  0  0  0
  189.8190  174.8860  147.9740 O   0  0  0  0  0  0  0  0  0  0  0  0
  187.6870  177.8740  146.2640 C   0  0  1  0  0  3  0  0  0  0  0  0
  189.7920  174.9540  146.7150 C   0  0  0  0  0  0  0  0  0  0  0  0
  186.6240  178.0190  145.1780 C   0  0  2  0  0  3  0  0  0  0  0  0
  185.4690  176.9860  143.0760 C   0  0  2  0  0  3  0  0  0  0  0  0
  190.9710  174.4780  145.9330 C   0  0  2  0  0  3  0  0  0  0  0  0
  188.6790  175.5580  146.0330 N   0  0  0  0  0  0  0  0  0  0  0  0
  190.2000  173.6840  140.2960 C   0  0  0  0  0  3  0  0  0  0  0  0
  185.3990  178.5490  145.8920 C   0  0  0  0  0  2  0  0  0  0  0  0
  187.2870  178.8250  147.3860 C   0  0  0  0  0  2  0  0  0  0  0  0
  191.4360  173.1850  142.2370 F   0  0  0  0  0  0  0  0  0  0  0  0
  187.3940  175.8480  142.5190 C   0  0  0  0  0  0  0  0  0  0  0  0
  189.1230  174.2940  139.6540 C   0  0  0  0  0  3  0  0  0  0  0  0
  189.4180  174.5170  142.4550 C   0  0  0  0  0  0  0  0  0  0  0  0
  187.5120  176.0210  143.8700 C   0  0  0  0  0  0  0  0  0  0  0  0
  185.1840  178.4450  142.7430 C   0  0  0  0  0  1  0  0  0  0  0  0
  186.2950  176.7420  144.3790 C   0  0  1  0  0  3  0  0  0  0  0  0
  185.9410  179.4150  147.0070 C   0  0  0  0  0  2  0  0  0  0  0  0
  187.2270  176.0680  147.7900 O   0  0  0  0  0  0  0  0  0  0  0  0
  188.1920  175.0190  140.3930 C   0  0  0  0  0  3  0  0  0  0  0  0
  188.3340  175.1400  141.7780 C   0  0  0  0  0  0  0  0  0  0  0  0
  187.8400  176.4640  146.7610 C   0  0  0  0  0  0  0  0  0  0  0  0
  191.7990  175.5600  145.6230 O   0  0  0  0  0  0  0  0  0  0  0  0
  193.9010  176.2220  146.5130 C   0  0  0  0  0  1  0  0  0  0  0  0
  193.0930  175.1070  145.8820 C   0  0  0  0  0  2  0  0  0  0  0  0
  1  4  1  0  0  0  0
  1  5  1  0  0  0  0
  2 16  1  0  0  0  0
  2 19  1  0  0  0  0
  3 17  1  0  0  0  0
  3 10  1  0  0  0  0
  4 12  1  0  0  0  0
  5 11  1  0  0  0  0
  7 27  1  0  0  0  0
  7 15  1  1  0  0  0
  8  6  2  0  0  0  0
  9 14  1  1  0  0  0
  9  7  1  0  0  0  0
 10 21  1  6  0  0  0
 10 22  1  0  0  0  0
 11 28  1  6  0  0  0
 11  8  1  0  0  0  0
 12  8  1  0  0  0  0
 12 27  1  0  0  0  0
 13  2  2  0  0  0  0
 14 23  1  0  0  0  0
 17 20  1  0  0  0  0
 18 13  1  0  0  0  0
 18 25  2  0  0  0  0
 19  1  2  0  0  0  0
 20  4  2  0  0  0  0
 22 20  1  6  0  0  0
 22  9  1  0  0  0  0
 23 15  1  0  0  0  0
 25 26  1  0  0  0  0
 26 19  1  0  0  0  0
 26 17  2  0  0  0  0
 27 24  2  0  0  0  0
 28 30  1  0  0  0  0
 30 29  1  0  0  0  0
M  END
>  <MODEL>
9

>  <REMARK>
 VINA RESULT:      -7.2      2.398      6.649
  Name = 
  2 active torsions:
  status: ('A' for Active; 'I' for Inactive)
    1  A    between atoms: C_11  and  O_28
    2  A    between atoms: O_28  and  C_30
                            x       y       z     vdW  Elec       q    Type
                         _______ _______ _______ _____ _____    ______ ____

>  <TORSDO>
F 2

$$$$
