=
 OpenBabel11112416193D

 30 35  0  0  1  0  0  0  0  0999 V2000
  186.5930  177.2040  143.8690 C   0  0  0  0  0  0  0  0  0  0  0  0
  184.9350  178.3040  145.4280 C   0  0  0  0  0  0  0  0  0  0  0  0
  188.9820  176.2440  147.0230 N   0  0  0  0  0  0  0  0  0  0  0  0
  187.7970  176.4540  143.6920 C   0  0  0  0  0  0  0  0  0  0  0  0
  185.8660  177.5510  142.7310 C   0  0  0  0  0  3  0  0  0  0  0  0
  187.7520  175.9960  140.1710 O   0  0  0  0  0  0  0  0  0  0  0  0
  190.5730  175.5380  142.6350 C   0  0  1  0  0  3  0  0  0  0  0  0
  187.4110  176.3750  141.3260 C   0  0  0  0  0  0  0  0  0  0  0  0
  190.7720  175.2660  144.0380 N   0  0  0  0  0  0  0  0  0  0  0  0
  190.0390  175.6740  146.4170 C   0  0  0  0  0  0  0  0  0  0  0  0
  186.2710  177.1640  141.4600 C   0  0  0  0  0  0  0  0  0  0  0  0
  188.1440  176.0030  142.4260 N   0  0  0  0  0  0  0  0  0  0  0  0
  184.5710  178.6280  146.7370 C   0  0  0  0  0  3  0  0  0  0  0  0
  192.0000  174.5440  144.3040 C   0  0  0  0  0  2  0  0  0  0  0  0
  191.6870  174.8060  141.9080 C   0  0  0  0  0  2  0  0  0  0  0  0
  184.0520  178.7130  144.3860 N   0  0  0  0  0  1  0  0  0  0  0  0
  188.1110  176.5640  146.0780 N   0  0  0  0  0  0  0  0  0  0  0  0
  185.3730  178.2630  147.8130 C   0  0  0  0  0  3  0  0  0  0  0  0
  186.1430  177.5860  145.1740 C   0  0  0  0  0  0  0  0  0  0  0  0
  188.5630  176.2030  144.8600 C   0  0  0  0  0  0  0  0  0  0  0  0
  191.2570  175.2360  147.1510 C   0  0  0  0  0  1  0  0  0  0  0  0
  189.8250  175.6440  145.0440 C   0  0  0  0  0  0  0  0  0  0  0  0
  192.7120  174.4360  142.9700 C   0  0  0  0  0  2  0  0  0  0  0  0
  188.8430  173.6370  142.6760 C   0  0  0  0  0  1  0  0  0  0  0  0
  186.5550  177.5660  147.5890 C   0  0  0  0  0  3  0  0  0  0  0  0
  186.9450  177.2230  146.2880 C   0  0  0  0  0  0  0  0  0  0  0  0
  189.2140  175.0310  142.1780 C   0  0  2  0  0  3  0  0  0  0  0  0
  185.5440  177.5360  140.3220 O   0  0  0  0  0  0  0  0  0  0  0  0
  183.1900  177.9860  140.3590 C   0  0  0  0  0  1  0  0  0  0  0  0
  184.5820  178.5810  140.3300 C   0  0  0  0  0  2  0  0  0  0  0  0
  1 19  1  0  0  0  0
  2 13  1  0  0  0  0
  4  1  2  0  0  0  0
  4 20  1  0  0  0  0
  5  1  1  0  0  0  0
  6  8  2  0  0  0  0
  7 15  1  6  0  0  0
  7  9  1  0  0  0  0
  8 11  1  0  0  0  0
  8 12  1  0  0  0  0
  9 14  1  0  0  0  0
  9 22  1  0  0  0  0
 10  3  2  0  0  0  0
 10 21  1  0  0  0  0
 11  5  2  0  0  0  0
 12  4  1  0  0  0  0
 13 18  2  0  0  0  0
 15 23  1  0  0  0  0
 16  2  1  0  0  0  0
 17 26  1  0  0  0  0
 17  3  1  0  0  0  0
 19  2  2  0  0  0  0
 19 26  1  0  0  0  0
 20 22  2  0  0  0  0
 20 17  1  0  0  0  0
 22 10  1  0  0  0  0
 23 14  1  0  0  0  0
 25 18  1  0  0  0  0
 26 25  2  0  0  0  0
 27 12  1  0  0  0  0
 27  7  1  0  0  0  0
 27 24  1  1  0  0  0
 28 30  1  0  0  0  0
 28 11  1  0  0  0  0
 30 29  1  0  0  0  0
M  END
>  <MODEL>
1

>  <REMARK>
 VINA RESULT:      -8.7      0.000      0.000
  Name = 
  2 active torsions:
  status: ('A' for Active; 'I' for Inactive)
    1  A    between atoms: C_11  and  O_28
    2  A    between atoms: O_28  and  C_30
                            x       y       z     vdW  Elec       q    Type
                         _______ _______ _______ _____ _____    ______ ____

>  <TORSDO>
F 2

$$$$
=
 OpenBabel11112416193D

 30 35  0  0  1  0  0  0  0  0999 V2000
  189.4540  175.5820  144.0000 C   0  0  0  0  0  0  0  0  0  0  0  0
  191.3420  174.7890  145.4830 C   0  0  0  0  0  0  0  0  0  0  0  0
  187.8630  177.7020  147.0900 N   0  0  0  0  0  0  0  0  0  0  0  0
  188.2870  176.3880  143.8280 C   0  0  0  0  0  0  0  0  0  0  0  0
  189.8970  174.8320  142.9110 C   0  0  0  0  0  3  0  0  0  0  0  0
  187.5980  175.7910  140.3960 O   0  0  0  0  0  0  0  0  0  0  0  0
  185.4080  177.2880  143.0800 C   0  0  1  0  0  3  0  0  0  0  0  0
  188.1570  175.7270  141.5260 C   0  0  0  0  0  0  0  0  0  0  0  0
  185.5330  177.9790  144.3400 N   0  0  0  0  0  0  0  0  0  0  0  0
  186.7360  178.1950  146.5460 C   0  0  0  0  0  0  0  0  0  0  0  0
  189.2510  174.8780  141.6820 C   0  0  0  0  0  0  0  0  0  0  0  0
  187.7020  176.4900  142.5740 N   0  0  0  0  0  0  0  0  0  0  0  0
  191.9600  174.8190  146.7360 C   0  0  0  0  0  3  0  0  0  0  0  0
  184.4350  178.8920  144.5950 C   0  0  0  0  0  2  0  0  0  0  0  0
  184.2080  177.9070  142.3840 C   0  0  0  0  0  2  0  0  0  0  0  0
  191.9530  173.9900  144.4730 N   0  0  0  0  0  1  0  0  0  0  0  0
  188.4900  177.0170  146.1450 N   0  0  0  0  0  0  0  0  0  0  0  0
  191.4320  175.5760  147.7750 C   0  0  0  0  0  3  0  0  0  0  0  0
  190.1520  175.5440  145.2500 C   0  0  0  0  0  0  0  0  0  0  0  0
  187.8070  177.0600  144.9830 C   0  0  0  0  0  0  0  0  0  0  0  0
  185.7330  178.9740  147.3230 C   0  0  0  0  0  1  0  0  0  0  0  0
  186.6500  177.7990  145.2180 C   0  0  0  0  0  0  0  0  0  0  0  0
  183.4600  178.6920  143.4510 C   0  0  0  0  0  2  0  0  0  0  0  0
  187.2150  178.8930  142.2040 C   0  0  0  0  0  1  0  0  0  0  0  0
  190.2730  176.3170  147.5720 C   0  0  0  0  0  3  0  0  0  0  0  0
  189.6330  176.3100  146.3260 C   0  0  0  0  0  0  0  0  0  0  0  0
  186.6630  177.4710  142.2410 C   0  0  2  0  0  3  0  0  0  0  0  0
  189.6920  174.1060  140.6010 O   0  0  0  0  0  0  0  0  0  0  0  0
  188.3610  172.5940  139.3010 C   0  0  0  0  0  1  0  0  0  0  0  0
  189.3470  172.7370  140.4410 C   0  0  0  0  0  2  0  0  0  0  0  0
  1 19  1  0  0  0  0
  2 13  1  0  0  0  0
  4  1  2  0  0  0  0
  4 20  1  0  0  0  0
  5  1  1  0  0  0  0
  6  8  2  0  0  0  0
  7 15  1  6  0  0  0
  7  9  1  0  0  0  0
  8 11  1  0  0  0  0
  8 12  1  0  0  0  0
  9 14  1  0  0  0  0
  9 22  1  0  0  0  0
 10  3  2  0  0  0  0
 10 21  1  0  0  0  0
 11  5  2  0  0  0  0
 12  4  1  0  0  0  0
 13 18  2  0  0  0  0
 15 23  1  0  0  0  0
 16  2  1  0  0  0  0
 17 26  1  0  0  0  0
 17  3  1  0  0  0  0
 19  2  2  0  0  0  0
 19 26  1  0  0  0  0
 20 22  2  0  0  0  0
 20 17  1  0  0  0  0
 22 10  1  0  0  0  0
 23 14  1  0  0  0  0
 25 18  1  0  0  0  0
 26 25  2  0  0  0  0
 27 24  1  1  0  0  0
 27 12  1  0  0  0  0
 27  7  1  0  0  0  0
 28 11  1  0  0  0  0
 29 30  1  0  0  0  0
 30 28  1  0  0  0  0
M  END
>  <MODEL>
2

>  <REMARK>
 VINA RESULT:      -8.2      1.465      5.548
  Name = 
  2 active torsions:
  status: ('A' for Active; 'I' for Inactive)
    1  A    between atoms: C_11  and  O_28
    2  A    between atoms: O_28  and  C_30
                            x       y       z     vdW  Elec       q    Type
                         _______ _______ _______ _____ _____    ______ ____

>  <TORSDO>
F 2

$$$$
=
 OpenBabel11112416193D

 30 35  0  0  1  0  0  0  0  0999 V2000
  187.2570  177.0470  144.0670 C   0  0  0  0  0  0  0  0  0  0  0  0
  185.2260  178.1770  145.0610 C   0  0  0  0  0  0  0  0  0  0  0  0
  189.2030  177.3220  147.6320 N   0  0  0  0  0  0  0  0  0  0  0  0
  188.5670  176.5050  144.2450 C   0  0  0  0  0  0  0  0  0  0  0  0
  186.6860  176.9730  142.7970 C   0  0  0  0  0  3  0  0  0  0  0  0
  189.1690  175.2090  140.9940 O   0  0  0  0  0  0  0  0  0  0  0  0
  191.5800  175.8720  143.8200 C   0  0  1  0  0  3  0  0  0  0  0  0
  188.5920  175.7890  141.9560 C   0  0  0  0  0  0  0  0  0  0  0  0
  191.5810  175.9870  145.2580 N   0  0  0  0  0  0  0  0  0  0  0  0
  190.4150  176.8200  147.3340 C   0  0  0  0  0  0  0  0  0  0  0  0
  187.3450  176.3690  141.7340 C   0  0  0  0  0  0  0  0  0  0  0  0
  189.1780  175.8310  143.1970 N   0  0  0  0  0  0  0  0  0  0  0  0
  184.6090  178.7370  146.1820 C   0  0  0  0  0  3  0  0  0  0  0  0
  192.8380  175.5820  145.8560 C   0  0  0  0  0  2  0  0  0  0  0  0
  192.8910  175.1970  143.4570 C   0  0  0  0  0  2  0  0  0  0  0  0
  184.4780  178.1570  143.8470 N   0  0  0  0  0  1  0  0  0  0  0  0
  188.4630  177.2420  146.5360 N   0  0  0  0  0  0  0  0  0  0  0  0
  185.2650  178.7930  147.4060 C   0  0  0  0  0  3  0  0  0  0  0  0
  186.5480  177.6470  145.1580 C   0  0  0  0  0  0  0  0  0  0  0  0
  189.1570  176.6850  145.5230 C   0  0  0  0  0  0  0  0  0  0  0  0
  191.5450  176.7980  148.3030 C   0  0  0  0  0  1  0  0  0  0  0  0
  190.4370  176.4210  146.0030 C   0  0  0  0  0  0  0  0  0  0  0  0
  193.7680  175.2840  144.6970 C   0  0  0  0  0  2  0  0  0  0  0  0
  190.1530  173.7590  144.1510 C   0  0  0  0  0  1  0  0  0  0  0  0
  186.5550  178.2850  147.5230 C   0  0  0  0  0  3  0  0  0  0  0  0
  187.1980  177.7140  146.4180 C   0  0  0  0  0  0  0  0  0  0  0  0
  190.4010  175.0340  143.3500 C   0  0  2  0  0  3  0  0  0  0  0  0
  186.7710  176.3190  140.4580 O   0  0  0  0  0  0  0  0  0  0  0  0
  185.0740  177.9630  140.0600 C   0  0  0  0  0  1  0  0  0  0  0  0
  186.4640  177.4840  139.7050 C   0  0  0  0  0  2  0  0  0  0  0  0
  1  4  2  0  0  0  0
  1 19  1  0  0  0  0
  2 19  2  0  0  0  0
  2 13  1  0  0  0  0
  4 20  1  0  0  0  0
  5  1  1  0  0  0  0
  6  8  2  0  0  0  0
  7 15  1  1  0  0  0
  7  9  1  0  0  0  0
  8 12  1  0  0  0  0
  9 14  1  0  0  0  0
  9 22  1  0  0  0  0
 10  3  2  0  0  0  0
 10 21  1  0  0  0  0
 11  8  1  0  0  0  0
 11  5  2  0  0  0  0
 12 27  1  0  0  0  0
 12  4  1  0  0  0  0
 13 18  2  0  0  0  0
 15 23  1  0  0  0  0
 16  2  1  0  0  0  0
 17  3  1  0  0  0  0
 18 25  1  0  0  0  0
 19 26  1  0  0  0  0
 20 22  2  0  0  0  0
 20 17  1  0  0  0  0
 22 10  1  0  0  0  0
 23 14  1  0  0  0  0
 26 17  1  0  0  0  0
 26 25  2  0  0  0  0
 27  7  1  0  0  0  0
 27 24  1  1  0  0  0
 28 11  1  0  0  0  0
 30 29  1  0  0  0  0
 30 28  1  0  0  0  0
M  END
>  <MODEL>
3

>  <REMARK>
 VINA RESULT:      -8.1      1.223      1.441
  Name = 
  2 active torsions:
  status: ('A' for Active; 'I' for Inactive)
    1  A    between atoms: C_11  and  O_28
    2  A    between atoms: O_28  and  C_30
                            x       y       z     vdW  Elec       q    Type
                         _______ _______ _______ _____ _____    ______ ____

>  <TORSDO>
F 2

$$$$
=
 OpenBabel11112416193D

 30 35  0  0  1  0  0  0  0  0999 V2000
  187.9070  176.4790  144.6060 C   0  0  0  0  0  0  0  0  0  0  0  0
  186.5690  178.3470  145.6580 C   0  0  0  0  0  0  0  0  0  0  0  0
  186.5120  177.5010  140.9200 N   0  0  0  0  0  0  0  0  0  0  0  0
  188.3420  175.7950  143.4280 C   0  0  0  0  0  0  0  0  0  0  0  0
  188.3800  176.0240  145.8360 C   0  0  0  0  0  3  0  0  0  0  0  0
  190.5610  173.4160  144.8510 O   0  0  0  0  0  0  0  0  0  0  0  0
  189.0130  173.5280  141.4110 C   0  0  1  0  0  3  0  0  0  0  0  0
  189.7260  174.3590  144.7600 C   0  0  0  0  0  0  0  0  0  0  0  0
  188.4620  174.4880  140.4860 N   0  0  0  0  0  0  0  0  0  0  0  0
  187.0560  176.5530  140.1370 C   0  0  0  0  0  0  0  0  0  0  0  0
  189.2670  174.9590  145.9300 C   0  0  0  0  0  0  0  0  0  0  0  0
  189.2920  174.7900  143.5300 N   0  0  0  0  0  0  0  0  0  0  0  0
  185.7040  179.4300  145.4860 C   0  0  0  0  0  3  0  0  0  0  0  0
  188.6380  174.1010  139.1000 C   0  0  0  0  0  2  0  0  0  0  0  0
  189.7400  172.5010  140.5600 C   0  0  0  0  0  2  0  0  0  0  0  0
  186.9760  178.0430  146.9900 N   0  0  0  0  0  1  0  0  0  0  0  0
  186.9390  177.2850  142.1550 N   0  0  0  0  0  0  0  0  0  0  0  0
  185.2620  179.7980  144.2200 C   0  0  0  0  0  3  0  0  0  0  0  0
  187.0170  177.5970  144.5280 C   0  0  0  0  0  0  0  0  0  0  0  0
  187.7660  176.2210  142.2020 C   0  0  0  0  0  0  0  0  0  0  0  0
  186.7570  176.4300  138.6840 C   0  0  0  0  0  1  0  0  0  0  0  0
  187.8440  175.7090  140.9090 C   0  0  0  0  0  0  0  0  0  0  0  0
  189.2590  172.7190  139.1340 C   0  0  0  0  0  2  0  0  0  0  0  0
  190.9510  175.1870  141.7290 C   0  0  0  0  0  1  0  0  0  0  0  0
  185.6830  179.0810  143.1050 C   0  0  0  0  0  3  0  0  0  0  0  0
  186.5530  177.9920  143.2460 C   0  0  0  0  0  0  0  0  0  0  0  0
  189.9780  174.2030  142.3730 C   0  0  2  0  0  3  0  0  0  0  0  0
  189.7180  174.4970  147.1720 O   0  0  0  0  0  0  0  0  0  0  0  0
  191.9170  175.4480  147.2260 C   0  0  0  0  0  1  0  0  0  0  0  0
  190.6250  175.2300  147.9830 C   0  0  0  0  0  2  0  0  0  0  0  0
  1  5  1  0  0  0  0
  2 16  1  0  0  0  0
  3 17  1  0  0  0  0
  4 12  1  0  0  0  0
  4  1  2  0  0  0  0
  5 11  2  0  0  0  0
  7 15  1  6  0  0  0
  7 27  1  0  0  0  0
  8  6  2  0  0  0  0
  8 11  1  0  0  0  0
  9 22  1  0  0  0  0
  9  7  1  0  0  0  0
 10 22  1  0  0  0  0
 10  3  2  0  0  0  0
 11 28  1  0  0  0  0
 12  8  1  0  0  0  0
 13  2  1  0  0  0  0
 14 23  1  0  0  0  0
 14  9  1  0  0  0  0
 17 20  1  0  0  0  0
 17 26  1  0  0  0  0
 18 13  2  0  0  0  0
 19  1  1  0  0  0  0
 19  2  2  0  0  0  0
 20  4  1  0  0  0  0
 21 10  1  0  0  0  0
 22 20  2  0  0  0  0
 23 15  1  0  0  0  0
 25 26  2  0  0  0  0
 25 18  1  0  0  0  0
 26 19  1  0  0  0  0
 27 24  1  6  0  0  0
 27 12  1  0  0  0  0
 28 30  1  0  0  0  0
 29 30  1  0  0  0  0
M  END
>  <MODEL>
4

>  <REMARK>
 VINA RESULT:      -8.1      2.582      5.313
  Name = 
  2 active torsions:
  status: ('A' for Active; 'I' for Inactive)
    1  A    between atoms: C_11  and  O_28
    2  A    between atoms: O_28  and  C_30
                            x       y       z     vdW  Elec       q    Type
                         _______ _______ _______ _____ _____    ______ ____

>  <TORSDO>
F 2

$$$$
=
 OpenBabel11112416193D

 30 35  0  0  1  0  0  0  0  0999 V2000
  187.9400  176.3860  143.5180 C   0  0  0  0  0  0  0  0  0  0  0  0
  185.6880  177.4950  143.8120 C   0  0  0  0  0  0  0  0  0  0  0  0
  189.0420  177.5410  147.2630 N   0  0  0  0  0  0  0  0  0  0  0  0
  189.2050  176.0140  144.0700 C   0  0  0  0  0  0  0  0  0  0  0  0
  187.6650  176.0090  142.2030 C   0  0  0  0  0  3  0  0  0  0  0  0
  190.5660  174.1630  141.3630 O   0  0  0  0  0  0  0  0  0  0  0  0
  192.2640  175.5940  144.4140 C   0  0  1  0  0  3  0  0  0  0  0  0
  189.7650  174.8650  142.0410 C   0  0  0  0  0  0  0  0  0  0  0  0
  191.9450  175.9900  145.7640 N   0  0  0  0  0  0  0  0  0  0  0  0
  190.3130  177.1050  147.3320 C   0  0  0  0  0  0  0  0  0  0  0  0
  188.5700  175.2710  141.4510 C   0  0  0  0  0  0  0  0  0  0  0  0
  190.0620  175.2060  143.3380 N   0  0  0  0  0  0  0  0  0  0  0  0
  184.8140  178.2060  144.6380 C   0  0  0  0  0  3  0  0  0  0  0  0
  193.0590  175.8310  146.6780 C   0  0  0  0  0  2  0  0  0  0  0  0
  193.6540  174.9860  144.4790 C   0  0  0  0  0  2  0  0  0  0  0  0
  185.2260  177.1660  142.5040 N   0  0  0  0  0  1  0  0  0  0  0  0
  188.5660  177.1770  146.0810 N   0  0  0  0  0  0  0  0  0  0  0  0
  185.1820  178.5640  145.9290 C   0  0  0  0  0  3  0  0  0  0  0  0
  186.9820  177.1200  144.2870 C   0  0  0  0  0  0  0  0  0  0  0  0
  189.4910  176.4980  145.3740 C   0  0  0  0  0  0  0  0  0  0  0  0
  191.2040  177.3810  148.4930 C   0  0  0  0  0  1  0  0  0  0  0  0
  190.6460  176.4550  146.1500 C   0  0  0  0  0  0  0  0  0  0  0  0
  194.2340  175.3980  145.8240 C   0  0  0  0  0  2  0  0  0  0  0  0
  190.9050  173.4640  144.8900 C   0  0  0  0  0  1  0  0  0  0  0  0
  186.4380  178.2120  146.4120 C   0  0  0  0  0  3  0  0  0  0  0  0
  187.3350  177.4950  145.6090 C   0  0  0  0  0  0  0  0  0  0  0  0
  191.2600  174.5730  143.9030 C   0  0  2  0  0  3  0  0  0  0  0  0
  188.2930  174.9160  140.1250 O   0  0  0  0  0  0  0  0  0  0  0  0
  188.5510  173.4760  138.2270 C   0  0  0  0  0  1  0  0  0  0  0  0
  188.1910  173.5660  139.6950 C   0  0  0  0  0  2  0  0  0  0  0  0
  1  4  2  0  0  0  0
  1 19  1  0  0  0  0
  2 19  2  0  0  0  0
  2 13  1  0  0  0  0
  3 10  2  0  0  0  0
  4 20  1  0  0  0  0
  5  1  1  0  0  0  0
  6  8  2  0  0  0  0
  7 15  1  1  0  0  0
  7  9  1  0  0  0  0
  8 12  1  0  0  0  0
  9 22  1  0  0  0  0
  9 14  1  0  0  0  0
 10 21  1  0  0  0  0
 11  8  1  0  0  0  0
 11  5  2  0  0  0  0
 12 27  1  0  0  0  0
 12  4  1  0  0  0  0
 13 18  2  0  0  0  0
 15 23  1  0  0  0  0
 16  2  1  0  0  0  0
 17  3  1  0  0  0  0
 18 25  1  0  0  0  0
 19 26  1  0  0  0  0
 20 17  1  0  0  0  0
 20 22  2  0  0  0  0
 22 10  1  0  0  0  0
 23 14  1  0  0  0  0
 26 17  1  0  0  0  0
 26 25  2  0  0  0  0
 27  7  1  0  0  0  0
 27 24  1  1  0  0  0
 28 11  1  0  0  0  0
 29 30  1  0  0  0  0
 30 28  1  0  0  0  0
M  END
>  <MODEL>
5

>  <REMARK>
 VINA RESULT:      -7.9      1.803      2.883
  Name = 
  2 active torsions:
  status: ('A' for Active; 'I' for Inactive)
    1  A    between atoms: C_11  and  O_28
    2  A    between atoms: O_28  and  C_30
                            x       y       z     vdW  Elec       q    Type
                         _______ _______ _______ _____ _____    ______ ____

>  <TORSDO>
F 2

$$$$
=
 OpenBabel11112416193D

 30 35  0  0  1  0  0  0  0  0999 V2000
  188.0340  176.1200  142.5510 C   0  0  0  0  0  0  0  0  0  0  0  0
  186.1390  177.7850  142.4040 C   0  0  0  0  0  0  0  0  0  0  0  0
  188.9690  177.4510  146.2830 N   0  0  0  0  0  0  0  0  0  0  0  0
  189.0840  175.5200  143.3160 C   0  0  0  0  0  0  0  0  0  0  0  0
  187.8220  175.6510  141.2550 C   0  0  0  0  0  3  0  0  0  0  0  0
  190.2050  173.0440  141.0320 O   0  0  0  0  0  0  0  0  0  0  0  0
  191.8620  174.3990  144.1390 C   0  0  1  0  0  3  0  0  0  0  0  0
  189.5460  174.0080  141.5130 C   0  0  0  0  0  0  0  0  0  0  0  0
  191.5080  175.0390  145.3820 N   0  0  0  0  0  0  0  0  0  0  0  0
  190.0630  176.7250  146.5780 C   0  0  0  0  0  0  0  0  0  0  0  0
  188.5780  174.6170  140.7190 C   0  0  0  0  0  0  0  0  0  0  0  0
  189.7740  174.4340  142.7990 N   0  0  0  0  0  0  0  0  0  0  0  0
  185.3970  178.7960  143.0200 C   0  0  0  0  0  3  0  0  0  0  0  0
  192.4280  174.7300  146.4590 C   0  0  0  0  0  2  0  0  0  0  0  0
  193.0240  173.4770  144.4640 C   0  0  0  0  0  2  0  0  0  0  0  0
  185.7590  177.4100  141.0830 N   0  0  0  0  0  1  0  0  0  0  0  0
  188.5510  177.0640  145.0870 N   0  0  0  0  0  0  0  0  0  0  0  0
  185.6970  179.2190  144.3100 C   0  0  0  0  0  3  0  0  0  0  0  0
  187.2240  177.1660  143.0970 C   0  0  0  0  0  0  0  0  0  0  0  0
  189.3370  176.0870  144.5920 C   0  0  0  0  0  0  0  0  0  0  0  0
  190.8550  176.9220  147.8230 C   0  0  0  0  0  1  0  0  0  0  0  0
  190.3430  175.8610  145.5280 C   0  0  0  0  0  0  0  0  0  0  0  0
  193.5350  173.9070  145.8310 C   0  0  0  0  0  2  0  0  0  0  0  0
  189.9410  172.7600  144.6210 C   0  0  0  0  0  1  0  0  0  0  0  0
  186.7510  178.6330  145.0020 C   0  0  0  0  0  3  0  0  0  0  0  0
  187.5110  177.6140  144.4130 C   0  0  0  0  0  0  0  0  0  0  0  0
  190.6880  173.6030  143.5910 C   0  0  2  0  0  3  0  0  0  0  0  0
  188.3700  174.1690  139.4090 O   0  0  0  0  0  0  0  0  0  0  0  0
  188.3510  174.6090  137.0530 C   0  0  0  0  0  1  0  0  0  0  0  0
  187.7750  174.9770  138.4030 C   0  0  0  0  0  2  0  0  0  0  0  0
  1 19  1  0  0  0  0
  1  4  2  0  0  0  0
  2 13  2  0  0  0  0
  2 19  1  0  0  0  0
  3 10  2  0  0  0  0
  4 20  1  0  0  0  0
  5  1  1  0  0  0  0
  6  8  2  0  0  0  0
  7 15  1  1  0  0  0
  7  9  1  0  0  0  0
  8 12  1  0  0  0  0
  9 22  1  0  0  0  0
  9 14  1  0  0  0  0
 10 21  1  0  0  0  0
 11  5  2  0  0  0  0
 11  8  1  0  0  0  0
 12  4  1  0  0  0  0
 12 27  1  0  0  0  0
 13 18  1  0  0  0  0
 15 23  1  0  0  0  0
 16  2  1  0  0  0  0
 17  3  1  0  0  0  0
 18 25  2  0  0  0  0
 19 26  2  0  0  0  0
 20 17  1  0  0  0  0
 20 22  2  0  0  0  0
 22 10  1  0  0  0  0
 23 14  1  0  0  0  0
 26 25  1  0  0  0  0
 26 17  1  0  0  0  0
 27  7  1  0  0  0  0
 27 24  1  1  0  0  0
 28 11  1  0  0  0  0
 29 30  1  0  0  0  0
 30 28  1  0  0  0  0
M  END
>  <MODEL>
6

>  <REMARK>
 VINA RESULT:      -7.8      2.053      3.062
  Name = 
  2 active torsions:
  status: ('A' for Active; 'I' for Inactive)
    1  A    between atoms: C_11  and  O_28
    2  A    between atoms: O_28  and  C_30
                            x       y       z     vdW  Elec       q    Type
                         _______ _______ _______ _____ _____    ______ ____

>  <TORSDO>
F 2

$$$$
=
 OpenBabel11112416193D

 30 35  0  0  1  0  0  0  0  0999 V2000
  187.1630  176.7950  143.7160 C   0  0  0  0  0  0  0  0  0  0  0  0
  185.4670  178.2620  142.5490 C   0  0  0  0  0  0  0  0  0  0  0  0
  188.1980  175.0970  140.1640 N   0  0  0  0  0  0  0  0  0  0  0  0
  188.2040  175.8190  143.6320 C   0  0  0  0  0  0  0  0  0  0  0  0
  186.8220  177.2790  144.9790 C   0  0  0  0  0  3  0  0  0  0  0  0
  189.1590  175.6060  147.0450 O   0  0  0  0  0  0  0  0  0  0  0  0
  189.9230  173.2870  144.1680 C   0  0  1  0  0  3  0  0  0  0  0  0
  188.5390  175.9570  146.0020 C   0  0  0  0  0  0  0  0  0  0  0  0
  190.0230  173.3190  142.7290 N   0  0  0  0  0  0  0  0  0  0  0  0
  189.0950  174.1690  140.5430 C   0  0  0  0  0  0  0  0  0  0  0  0
  187.4820  176.8560  146.1250 C   0  0  0  0  0  0  0  0  0  0  0  0
  188.9110  175.4700  144.7730 N   0  0  0  0  0  0  0  0  0  0  0  0
  184.8710  178.6660  141.3520 C   0  0  0  0  0  3  0  0  0  0  0  0
  190.9770  172.3600  142.2080 C   0  0  0  0  0  2  0  0  0  0  0  0
  191.0080  172.3340  144.6380 C   0  0  0  0  0  2  0  0  0  0  0  0
  185.0140  178.8890  143.7470 N   0  0  0  0  0  1  0  0  0  0  0  0
  187.8190  175.7470  141.2540 N   0  0  0  0  0  0  0  0  0  0  0  0
  185.2560  178.1090  140.1380 C   0  0  0  0  0  3  0  0  0  0  0  0
  186.4900  177.2660  142.5430 C   0  0  0  0  0  0  0  0  0  0  0  0
  188.4580  175.2770  142.3450 C   0  0  0  0  0  0  0  0  0  0  0  0
  189.7050  173.1950  139.5960 C   0  0  0  0  0  1  0  0  0  0  0  0
  189.2770  174.2350  141.9180 C   0  0  0  0  0  0  0  0  0  0  0  0
  191.4560  171.5630  143.4050 C   0  0  0  0  0  2  0  0  0  0  0  0
  191.3110  175.4510  144.1510 C   0  0  0  0  0  1  0  0  0  0  0  0
  186.2490  177.1350  140.1080 C   0  0  0  0  0  3  0  0  0  0  0  0
  186.8680  176.7130  141.2920 C   0  0  0  0  0  0  0  0  0  0  0  0
  190.1430  174.6740  144.7510 C   0  0  2  0  0  3  0  0  0  0  0  0
  187.1180  177.3330  147.3900 O   0  0  0  0  0  0  0  0  0  0  0  0
  185.9410  179.4060  147.6380 C   0  0  0  0  0  1  0  0  0  0  0  0
  185.8420  177.8960  147.6640 C   0  0  0  0  0  2  0  0  0  0  0  0
  1  5  1  0  0  0  0
  2 16  1  0  0  0  0
  3 10  2  0  0  0  0
  3 17  1  0  0  0  0
  4  1  2  0  0  0  0
  4 12  1  0  0  0  0
  5 11  2  0  0  0  0
  7 15  1  1  0  0  0
  7 27  1  0  0  0  0
  8 11  1  0  0  0  0
  8  6  2  0  0  0  0
  9  7  1  0  0  0  0
 10 22  1  0  0  0  0
 11 28  1  0  0  0  0
 12  8  1  0  0  0  0
 13  2  2  0  0  0  0
 14  9  1  0  0  0  0
 14 23  1  0  0  0  0
 17 26  1  0  0  0  0
 17 20  1  0  0  0  0
 18 13  1  0  0  0  0
 19  2  1  0  0  0  0
 19  1  1  0  0  0  0
 20  4  1  0  0  0  0
 21 10  1  0  0  0  0
 22 20  2  0  0  0  0
 22  9  1  0  0  0  0
 23 15  1  0  0  0  0
 25 18  2  0  0  0  0
 25 26  1  0  0  0  0
 26 19  2  0  0  0  0
 27 24  1  6  0  0  0
 27 12  1  0  0  0  0
 28 30  1  0  0  0  0
 29 30  1  0  0  0  0
M  END
>  <MODEL>
7

>  <REMARK>
 VINA RESULT:      -7.7      2.412      4.926
  Name = 
  2 active torsions:
  status: ('A' for Active; 'I' for Inactive)
    1  A    between atoms: C_11  and  O_28
    2  A    between atoms: O_28  and  C_30
                            x       y       z     vdW  Elec       q    Type
                         _______ _______ _______ _____ _____    ______ ____

>  <TORSDO>
F 2

$$$$
=
 OpenBabel11112416193D

 30 35  0  0  1  0  0  0  0  0999 V2000
  187.8160  175.7620  140.6740 C   0  0  0  0  0  0  0  0  0  0  0  0
  187.9080  174.7420  138.3630 C   0  0  0  0  0  0  0  0  0  0  0  0
  190.3850  172.9290  142.0700 N   0  0  0  0  0  0  0  0  0  0  0  0
  188.2760  175.7750  142.0270 C   0  0  0  0  0  0  0  0  0  0  0  0
  186.8850  176.7270  140.2910 C   0  0  0  0  0  3  0  0  0  0  0  0
  186.5570  178.6270  143.2600 O   0  0  0  0  0  0  0  0  0  0  0  0
  188.3000  175.8540  145.1340 C   0  0  1  0  0  3  0  0  0  0  0  0
  186.9490  177.7220  142.4700 C   0  0  0  0  0  0  0  0  0  0  0  0
  189.3450  174.8800  144.9310 N   0  0  0  0  0  0  0  0  0  0  0  0
  190.4500  173.2260  143.3810 C   0  0  0  0  0  0  0  0  0  0  0  0
  186.4290  177.6940  141.1780 C   0  0  0  0  0  0  0  0  0  0  0  0
  187.8780  176.7960  142.8770 N   0  0  0  0  0  0  0  0  0  0  0  0
  188.4350  173.7610  137.5180 C   0  0  0  0  0  3  0  0  0  0  0  0
  190.0450  174.5410  146.1550 C   0  0  0  0  0  2  0  0  0  0  0  0
  188.4230  176.3000  146.5800 C   0  0  0  0  0  2  0  0  0  0  0  0
  186.9880  175.6690  137.7920 N   0  0  0  0  0  1  0  0  0  0  0  0
  189.5940  173.8270  141.5020 N   0  0  0  0  0  0  0  0  0  0  0  0
  189.3410  172.8200  137.9930 C   0  0  0  0  0  3  0  0  0  0  0  0
  188.2970  174.7920  139.7370 C   0  0  0  0  0  0  0  0  0  0  0  0
  189.1480  174.7210  142.4080 C   0  0  0  0  0  0  0  0  0  0  0  0
  191.2000  172.3970  144.3640 C   0  0  0  0  0  1  0  0  0  0  0  0
  189.6680  174.3430  143.6430 C   0  0  0  0  0  0  0  0  0  0  0  0
  189.3190  175.2770  147.2620 C   0  0  0  0  0  2  0  0  0  0  0  0
  189.9080  177.5600  144.0790 C   0  0  0  0  0  1  0  0  0  0  0  0
  189.7320  172.8490  139.3270 C   0  0  0  0  0  3  0  0  0  0  0  0
  189.2240  173.8220  140.1980 C   0  0  0  0  0  0  0  0  0  0  0  0
  188.4790  177.0360  144.1940 C   0  0  2  0  0  3  0  0  0  0  0  0
  185.4780  178.6450  140.7890 O   0  0  0  0  0  0  0  0  0  0  0  0
  183.3360  178.2910  141.8040 C   0  0  0  0  0  1  0  0  0  0  0  0
  184.1250  178.3130  140.5130 C   0  0  0  0  0  2  0  0  0  0  0  0
  1  4  2  0  0  0  0
  2 19  1  0  0  0  0
  3 10  2  0  0  0  0
  4 20  1  0  0  0  0
  4 12  1  0  0  0  0
  5  1  1  0  0  0  0
  5 11  2  0  0  0  0
  7 15  1  1  0  0  0
  8 12  1  0  0  0  0
  8  6  2  0  0  0  0
  9  7  1  0  0  0  0
  9 14  1  0  0  0  0
 10 22  1  0  0  0  0
 10 21  1  0  0  0  0
 11  8  1  0  0  0  0
 12 27  1  0  0  0  0
 13 18  1  0  0  0  0
 13  2  2  0  0  0  0
 14 23  1  0  0  0  0
 15 23  1  0  0  0  0
 16  2  1  0  0  0  0
 17  3  1  0  0  0  0
 17 20  1  0  0  0  0
 18 25  2  0  0  0  0
 19 26  2  0  0  0  0
 19  1  1  0  0  0  0
 20 22  2  0  0  0  0
 22  9  1  0  0  0  0
 25 26  1  0  0  0  0
 26 17  1  0  0  0  0
 27 24  1  6  0  0  0
 27  7  1  0  0  0  0
 28 11  1  0  0  0  0
 30 28  1  0  0  0  0
 30 29  1  0  0  0  0
M  END
>  <MODEL>
8

>  <REMARK>
 VINA RESULT:      -7.5      2.358      5.391
  Name = 
  2 active torsions:
  status: ('A' for Active; 'I' for Inactive)
    1  A    between atoms: C_11  and  O_28
    2  A    between atoms: O_28  and  C_30
                            x       y       z     vdW  Elec       q    Type
                         _______ _______ _______ _____ _____    ______ ____

>  <TORSDO>
F 2

$$$$
=
 OpenBabel11112416193D

 30 35  0  0  1  0  0  0  0  0999 V2000
  189.1660  175.0600  141.7480 C   0  0  0  0  0  0  0  0  0  0  0  0
  189.3930  173.5680  139.7210 C   0  0  0  0  0  0  0  0  0  0  0  0
  192.6190  173.5550  143.2930 N   0  0  0  0  0  0  0  0  0  0  0  0
  189.7060  175.5470  142.9790 C   0  0  0  0  0  0  0  0  0  0  0  0
  187.9440  175.5800  141.3220 C   0  0  0  0  0  3  0  0  0  0  0  0
  187.2630  177.9780  143.8340 O   0  0  0  0  0  0  0  0  0  0  0  0
  189.9580  176.4040  145.9560 C   0  0  1  0  0  3  0  0  0  0  0  0
  187.8600  177.0620  143.2020 C   0  0  0  0  0  0  0  0  0  0  0  0
  191.2410  175.7640  145.8030 N   0  0  0  0  0  0  0  0  0  0  0  0
  192.6920  174.1770  144.4840 C   0  0  0  0  0  0  0  0  0  0  0  0
  187.2740  176.5590  142.0440 C   0  0  0  0  0  0  0  0  0  0  0  0
  189.0690  176.5840  143.6450 N   0  0  0  0  0  0  0  0  0  0  0  0
  190.1380  172.6080  139.0310 C   0  0  0  0  0  3  0  0  0  0  0  0
  192.1120  175.9650  146.9450 C   0  0  0  0  0  2  0  0  0  0  0  0
  190.0480  177.2150  147.2370 C   0  0  0  0  0  2  0  0  0  0  0  0
  188.1790  174.0090  139.1180 N   0  0  0  0  0  1  0  0  0  0  0  0
  191.5360  174.0090  142.6790 N   0  0  0  0  0  0  0  0  0  0  0  0
  191.3360  172.1270  139.5460 C   0  0  0  0  0  3  0  0  0  0  0  0
  189.8560  174.0730  140.9750 C   0  0  0  0  0  0  0  0  0  0  0  0
  190.9000  174.9280  143.4330 C   0  0  0  0  0  0  0  0  0  0  0  0
  193.7480  173.8800  145.4900 C   0  0  0  0  0  1  0  0  0  0  0  0
  191.6140  175.0420  144.6230 C   0  0  0  0  0  0  0  0  0  0  0  0
  191.2800  176.7070  147.9720 C   0  0  0  0  0  2  0  0  0  0  0  0
  190.8340  178.1890  144.3250 C   0  0  0  0  0  1  0  0  0  0  0  0
  191.8050  172.6030  140.7660 C   0  0  0  0  0  3  0  0  0  0  0  0
  191.0820  173.5680  141.4800 C   0  0  0  0  0  0  0  0  0  0  0  0
  189.6670  177.3120  144.7710 C   0  0  2  0  0  3  0  0  0  0  0  0
  186.0370  177.0580  141.6160 O   0  0  0  0  0  0  0  0  0  0  0  0
  184.4560  178.3630  140.3750 C   0  0  0  0  0  1  0  0  0  0  0  0
  185.9030  177.9370  140.5090 C   0  0  0  0  0  2  0  0  0  0  0  0
  1  4  2  0  0  0  0
  2 19  1  0  0  0  0
  3 10  2  0  0  0  0
  4 20  1  0  0  0  0
  4 12  1  0  0  0  0
  5  1  1  0  0  0  0
  5 11  2  0  0  0  0
  7 15  1  1  0  0  0
  8 12  1  0  0  0  0
  8  6  2  0  0  0  0
  9  7  1  0  0  0  0
  9 14  1  0  0  0  0
 10 22  1  0  0  0  0
 10 21  1  0  0  0  0
 11  8  1  0  0  0  0
 12 27  1  0  0  0  0
 13 18  1  0  0  0  0
 13  2  2  0  0  0  0
 14 23  1  0  0  0  0
 15 23  1  0  0  0  0
 16  2  1  0  0  0  0
 17  3  1  0  0  0  0
 17 20  1  0  0  0  0
 18 25  2  0  0  0  0
 19 26  2  0  0  0  0
 19  1  1  0  0  0  0
 20 22  2  0  0  0  0
 22  9  1  0  0  0  0
 25 26  1  0  0  0  0
 26 17  1  0  0  0  0
 27 24  1  6  0  0  0
 27  7  1  0  0  0  0
 28 11  1  0  0  0  0
 29 30  1  0  0  0  0
 30 28  1  0  0  0  0
M  END
>  <MODEL>
9

>  <REMARK>
 VINA RESULT:      -7.4      2.429      5.488
  Name = 
  2 active torsions:
  status: ('A' for Active; 'I' for Inactive)
    1  A    between atoms: C_11  and  O_28
    2  A    between atoms: O_28  and  C_30
                            x       y       z     vdW  Elec       q    Type
                         _______ _______ _______ _____ _____    ______ ____

>  <TORSDO>
F 2

$$$$
