=
 OpenBabel11112416193D

 30 35  0  0  1  0  0  0  0  0999 V2000
  186.5430  177.1560  143.7490 C   0  0  0  0  0  0  0  0  0  0  0  0
  184.8710  178.2690  145.2760 C   0  0  0  0  0  0  0  0  0  0  0  0
  188.7970  175.9310  146.9670 N   0  0  0  0  0  2  0  0  0  0  0  0
  187.7260  176.3680  143.5870 C   0  0  0  0  0  0  0  0  0  0  0  0
  185.8760  177.5480  142.6340 N   0  0  0  0  0  0  0  0  0  0  0  0
  187.6980  175.9820  140.0700 O   0  0  0  0  0  0  0  0  0  0  0  0
  190.4690  175.4080  142.5010 C   0  0  1  0  0  3  0  0  0  0  0  0
  187.3650  176.3510  141.2300 C   0  0  0  0  0  0  0  0  0  0  0  0
  190.7870  175.2780  143.9800 C   0  0  2  0  0  3  0  0  0  0  0  0
  189.8230  175.4060  146.2670 C   0  0  0  0  0  0  0  0  0  0  0  0
  186.2650  177.1900  141.3870 C   0  0  0  0  0  0  0  0  0  0  0  0
  188.0640  175.9230  142.3270 N   0  0  0  0  0  0  0  0  0  0  0  0
  184.4560  178.5470  146.5820 C   0  0  0  0  0  3  0  0  0  0  0  0
  191.4780  173.9390  144.1330 C   0  0  0  0  0  2  0  0  0  0  0  0
  191.5320  174.5890  141.7870 C   0  0  0  0  0  2  0  0  0  0  0  0
  183.8380  178.9270  144.0110 Cl  0  0  0  0  0  0  0  0  0  0  0  0
  187.9540  176.3340  146.0010 C   0  0  0  0  0  0  0  0  0  0  0  0
  185.1800  178.0920  147.6790 C   0  0  0  0  0  3  0  0  0  0  0  0
  186.0540  177.5040  145.0490 C   0  0  0  0  0  0  0  0  0  0  0  0
  188.4490  176.0340  144.7570 C   0  0  0  0  0  0  0  0  0  0  0  0
  190.8630  174.9700  146.8280 O   0  0  0  0  0  0  0  0  0  0  0  0
  189.6630  175.4430  144.9170 N   0  0  0  0  0  0  0  0  0  0  0  0
  192.2360  173.7430  142.8380 C   0  0  0  0  0  2  0  0  0  0  0  0
  188.6810  173.5420  142.6550 C   0  0  0  0  0  1  0  0  0  0  0  0
  186.3390  177.3490  147.4830 C   0  0  0  0  0  3  0  0  0  0  0  0
  186.7770  177.0520  146.1890 C   0  0  0  0  0  0  0  0  0  0  0  0
  189.0890  174.9070  142.1030 C   0  0  2  0  0  3  0  0  0  0  0  0
  185.5600  177.6350  140.2650 O   0  0  0  0  0  0  0  0  0  0  0  0
  183.1820  177.9160  140.3400 C   0  0  0  0  0  1  0  0  0  0  0  0
  184.5290  178.6070  140.3600 C   0  0  0  0  0  2  0  0  0  0  0  0
  1 19  1  0  0  0  0
  2 13  1  0  0  0  0
  4  1  2  0  0  0  0
  4 20  1  0  0  0  0
  5  1  1  0  0  0  0
  6  8  2  0  0  0  0
  7 15  1  6  0  0  0
  7  9  1  0  0  0  0
  8 11  1  0  0  0  0
  8 12  1  0  0  0  0
  9 14  1  6  0  0  0
  9 22  1  0  0  0  0
 10 21  2  0  0  0  0
 10  3  1  0  0  0  0
 11  5  2  0  0  0  0
 12  4  1  0  0  0  0
 13 18  2  0  0  0  0
 15 23  1  0  0  0  0
 16  2  1  0  0  0  0
 17 26  1  0  0  0  0
 17  3  1  0  0  0  0
 19  2  2  0  0  0  0
 19 26  1  0  0  0  0
 20 22  1  0  0  0  0
 20 17  2  0  0  0  0
 22 10  1  0  0  0  0
 23 14  1  0  0  0  0
 25 18  1  0  0  0  0
 26 25  2  0  0  0  0
 27 12  1  0  0  0  0
 27  7  1  0  0  0  0
 27 24  1  1  0  0  0
 28 30  1  0  0  0  0
 28 11  1  0  0  0  0
 29 30  1  0  0  0  0
M  END
>  <MODEL>
1

>  <REMARK>
 VINA RESULT:      -8.8      0.000      0.000
  Name = 
  2 active torsions:
  status: ('A' for Active; 'I' for Inactive)
    1  A    between atoms: C_11  and  O_28
    2  A    between atoms: O_28  and  C_30
                            x       y       z     vdW  Elec       q    Type
                         _______ _______ _______ _____ _____    ______ ____

>  <TORSDO>
F 2

$$$$
=
 OpenBabel11112416193D

 30 35  0  0  1  0  0  0  0  0999 V2000
  187.2840  176.8730  143.2170 C   0  0  0  0  0  0  0  0  0  0  0  0
  185.1220  178.1290  143.5620 C   0  0  0  0  0  0  0  0  0  0  0  0
  188.4390  177.6220  147.0950 N   0  0  0  0  0  2  0  0  0  0  0  0
  188.5110  176.3670  143.7510 C   0  0  0  0  0  0  0  0  0  0  0  0
  186.9930  176.6090  141.9180 N   0  0  0  0  0  0  0  0  0  0  0  0
  189.6710  174.5540  140.9430 O   0  0  0  0  0  0  0  0  0  0  0  0
  191.5230  175.6630  143.9860 C   0  0  1  0  0  3  0  0  0  0  0  0
  188.9470  175.2910  141.6680 C   0  0  0  0  0  0  0  0  0  0  0  0
  191.3450  176.2340  145.3810 C   0  0  2  0  0  3  0  0  0  0  0  0
  189.6750  177.0900  147.0100 C   0  0  0  0  0  0  0  0  0  0  0  0
  187.7960  175.8580  141.1270 C   0  0  0  0  0  0  0  0  0  0  0  0
  189.2770  175.5230  142.9780 N   0  0  0  0  0  0  0  0  0  0  0  0
  184.2800  178.8280  144.4320 C   0  0  0  0  0  3  0  0  0  0  0  0
  192.0470  175.2660  146.3110 C   0  0  0  0  0  2  0  0  0  0  0  0
  192.8210  174.8740  144.0360 C   0  0  0  0  0  2  0  0  0  0  0  0
  184.5160  177.9580  141.9170 Cl  0  0  0  0  0  0  0  0  0  0  0  0
  187.9330  177.3930  145.8710 C   0  0  0  0  0  0  0  0  0  0  0  0
  184.6360  179.0410  145.7600 C   0  0  0  0  0  3  0  0  0  0  0  0
  186.3690  177.6160  144.0310 C   0  0  0  0  0  0  0  0  0  0  0  0
  188.8310  176.7170  145.0850 C   0  0  0  0  0  0  0  0  0  0  0  0
  190.5030  177.1660  147.9570 O   0  0  0  0  0  0  0  0  0  0  0  0
  189.9660  176.5260  145.8080 N   0  0  0  0  0  0  0  0  0  0  0  0
  193.2020  174.7180  145.5010 C   0  0  0  0  0  2  0  0  0  0  0  0
  189.9310  173.6920  144.5190 C   0  0  0  0  0  1  0  0  0  0  0  0
  185.8470  178.5550  146.2390 C   0  0  0  0  0  3  0  0  0  0  0  0
  186.7090  177.8490  145.3930 C   0  0  0  0  0  0  0  0  0  0  0  0
  190.3940  174.7550  143.5240 C   0  0  2  0  0  3  0  0  0  0  0  0
  187.4680  175.6310  139.7870 O   0  0  0  0  0  0  0  0  0  0  0  0
  186.6910  176.1260  137.5760 C   0  0  0  0  0  1  0  0  0  0  0  0
  186.7290  176.5710  139.0230 C   0  0  0  0  0  2  0  0  0  0  0  0
  1  4  2  0  0  0  0
  1 19  1  0  0  0  0
  2 19  2  0  0  0  0
  2 13  1  0  0  0  0
  4 20  1  0  0  0  0
  5  1  1  0  0  0  0
  6  8  2  0  0  0  0
  7 15  1  1  0  0  0
  7  9  1  0  0  0  0
  8 12  1  0  0  0  0
  9 22  1  0  0  0  0
  9 14  1  1  0  0  0
 10  3  1  0  0  0  0
 10 21  2  0  0  0  0
 11  8  1  0  0  0  0
 11  5  2  0  0  0  0
 12 27  1  0  0  0  0
 12  4  1  0  0  0  0
 13 18  2  0  0  0  0
 15 23  1  0  0  0  0
 16  2  1  0  0  0  0
 17  3  1  0  0  0  0
 18 25  1  0  0  0  0
 19 26  1  0  0  0  0
 20 22  1  0  0  0  0
 20 17  2  0  0  0  0
 22 10  1  0  0  0  0
 23 14  1  0  0  0  0
 26 17  1  0  0  0  0
 26 25  2  0  0  0  0
 27  7  1  0  0  0  0
 27 24  1  1  0  0  0
 28 11  1  0  0  0  0
 29 30  1  0  0  0  0
 30 28  1  0  0  0  0
M  END
>  <MODEL>
2

>  <REMARK>
 VINA RESULT:      -8.3      1.745      2.171
  Name = 
  2 active torsions:
  status: ('A' for Active; 'I' for Inactive)
    1  A    between atoms: C_11  and  O_28
    2  A    between atoms: O_28  and  C_30
                            x       y       z     vdW  Elec       q    Type
                         _______ _______ _______ _____ _____    ______ ____

>  <TORSDO>
F 2

$$$$
=
 OpenBabel11112416193D

 30 35  0  0  1  0  0  0  0  0999 V2000
  189.4870  175.4980  143.9120 C   0  0  0  0  0  0  0  0  0  0  0  0
  191.4630  174.6680  145.2450 C   0  0  0  0  0  0  0  0  0  0  0  0
  188.0530  177.5700  147.1650 N   0  0  0  0  0  2  0  0  0  0  0  0
  188.3040  176.2980  143.8360 C   0  0  0  0  0  0  0  0  0  0  0  0
  189.8740  174.8190  142.8030 N   0  0  0  0  0  0  0  0  0  0  0  0
  187.5140  175.8580  140.4160 O   0  0  0  0  0  0  0  0  0  0  0  0
  185.3890  177.1470  143.1980 C   0  0  1  0  0  3  0  0  0  0  0  0
  188.1060  175.7480  141.5250 C   0  0  0  0  0  0  0  0  0  0  0  0
  185.4260  177.6350  144.6350 C   0  0  2  0  0  3  0  0  0  0  0  0
  186.8950  177.9810  146.6090 C   0  0  0  0  0  0  0  0  0  0  0  0
  189.2080  174.9020  141.6270 C   0  0  0  0  0  0  0  0  0  0  0  0
  187.6850  176.4600  142.6160 N   0  0  0  0  0  0  0  0  0  0  0  0
  192.1690  174.6750  146.4520 C   0  0  0  0  0  3  0  0  0  0  0  0
  184.7970  179.0130  144.6150 C   0  0  0  0  0  2  0  0  0  0  0  0
  184.1940  177.8420  142.5670 C   0  0  0  0  0  2  0  0  0  0  0  0
  192.1690  173.6730  143.9760 Cl  0  0  0  0  0  0  0  0  0  0  0  0
  188.6450  176.9040  146.1600 C   0  0  0  0  0  0  0  0  0  0  0  0
  191.7230  175.4150  147.5420 C   0  0  0  0  0  3  0  0  0  0  0  0
  190.2640  175.4320  145.1140 C   0  0  0  0  0  0  0  0  0  0  0  0
  187.8750  176.9380  145.0250 C   0  0  0  0  0  0  0  0  0  0  0  0
  186.0160  178.5980  147.2690 O   0  0  0  0  0  0  0  0  0  0  0  0
  186.7360  177.6230  145.3070 N   0  0  0  0  0  0  0  0  0  0  0  0
  183.7590  178.9500  143.5150 C   0  0  0  0  0  2  0  0  0  0  0  0
  187.1750  178.8850  142.4950 C   0  0  0  0  0  1  0  0  0  0  0  0
  190.5550  176.1630  147.4400 C   0  0  0  0  0  3  0  0  0  0  0  0
  189.8290  176.1790  146.2450 C   0  0  0  0  0  0  0  0  0  0  0  0
  186.6410  177.4570  142.3920 C   0  0  2  0  0  3  0  0  0  0  0  0
  189.6290  174.1660  140.5150 O   0  0  0  0  0  0  0  0  0  0  0  0
  188.3250  172.6370  139.2100 C   0  0  0  0  0  1  0  0  0  0  0  0
  189.3060  172.7930  140.3530 C   0  0  0  0  0  2  0  0  0  0  0  0
  1 19  1  0  0  0  0
  2 13  1  0  0  0  0
  4  1  2  0  0  0  0
  4 20  1  0  0  0  0
  5  1  1  0  0  0  0
  6  8  2  0  0  0  0
  7 15  1  6  0  0  0
  7  9  1  0  0  0  0
  8 11  1  0  0  0  0
  8 12  1  0  0  0  0
  9 14  1  6  0  0  0
  9 22  1  0  0  0  0
 10  3  1  0  0  0  0
 10 21  2  0  0  0  0
 11  5  2  0  0  0  0
 12  4  1  0  0  0  0
 13 18  2  0  0  0  0
 15 23  1  0  0  0  0
 16  2  1  0  0  0  0
 17 26  1  0  0  0  0
 17  3  1  0  0  0  0
 19  2  2  0  0  0  0
 19 26  1  0  0  0  0
 20 22  1  0  0  0  0
 20 17  2  0  0  0  0
 22 10  1  0  0  0  0
 23 14  1  0  0  0  0
 25 18  1  0  0  0  0
 26 25  2  0  0  0  0
 27 24  1  1  0  0  0
 27 12  1  0  0  0  0
 27  7  1  0  0  0  0
 28 11  1  0  0  0  0
 29 30  1  0  0  0  0
 30 28  1  0  0  0  0
M  END
>  <MODEL>
3

>  <REMARK>
 VINA RESULT:      -8.3      2.712      5.581
  Name = 
  2 active torsions:
  status: ('A' for Active; 'I' for Inactive)
    1  A    between atoms: C_11  and  O_28
    2  A    between atoms: O_28  and  C_30
                            x       y       z     vdW  Elec       q    Type
                         _______ _______ _______ _____ _____    ______ ____

>  <TORSDO>
F 2

$$$$
=
 OpenBabel11112416193D

 30 35  0  0  1  0  0  0  0  0999 V2000
  188.0730  176.3910  144.7080 C   0  0  0  0  0  0  0  0  0  0  0  0
  186.6230  178.2880  145.5260 C   0  0  0  0  0  0  0  0  0  0  0  0
  186.8560  177.0220  140.8270 N   0  0  0  0  0  2  0  0  0  0  0  0
  188.5860  175.6160  143.6190 C   0  0  0  0  0  0  0  0  0  0  0  0
  188.5000  176.0970  145.9610 N   0  0  0  0  0  0  0  0  0  0  0  0
  190.8680  173.5660  145.3820 O   0  0  0  0  0  0  0  0  0  0  0  0
  189.4690  173.1570  141.9470 C   0  0  1  0  0  3  0  0  0  0  0  0
  189.9820  174.4340  145.1490 C   0  0  0  0  0  0  0  0  0  0  0  0
  188.6910  173.8680  140.8550 C   0  0  2  0  0  3  0  0  0  0  0  0
  187.4860  175.9630  140.2770 C   0  0  0  0  0  0  0  0  0  0  0  0
  189.4150  175.1300  146.2130 C   0  0  0  0  0  0  0  0  0  0  0  0
  189.5870  174.7030  143.8650 N   0  0  0  0  0  0  0  0  0  0  0  0
  185.7450  179.3310  145.2160 C   0  0  0  0  0  3  0  0  0  0  0  0
  189.5630  173.7970  139.6180 C   0  0  0  0  0  2  0  0  0  0  0  0
  190.3370  172.1390  141.2260 C   0  0  0  0  0  2  0  0  0  0  0  0
  186.9850  178.1030  147.2390 Cl  0  0  0  0  0  0  0  0  0  0  0  0
  187.2230  176.9470  142.1180 C   0  0  0  0  0  0  0  0  0  0  0  0
  185.3690  179.5880  143.9030 C   0  0  0  0  0  3  0  0  0  0  0  0
  187.1540  177.4670  144.4850 C   0  0  0  0  0  0  0  0  0  0  0  0
  188.0710  175.8890  142.3290 C   0  0  0  0  0  0  0  0  0  0  0  0
  187.3350  175.6500  139.0650 O   0  0  0  0  0  0  0  0  0  0  0  0
  188.2380  175.2390  141.1470 N   0  0  0  0  0  0  0  0  0  0  0  0
  190.3070  172.4850  139.7440 C   0  0  0  0  0  2  0  0  0  0  0  0
  191.2190  175.0640  142.0310 C   0  0  0  0  0  1  0  0  0  0  0  0
  185.8680  178.7990  142.8720 C   0  0  0  0  0  3  0  0  0  0  0  0
  186.7520  177.7510  143.1500 C   0  0  0  0  0  0  0  0  0  0  0  0
  190.3480  174.0660  142.7930 C   0  0  2  0  0  3  0  0  0  0  0  0
  189.8100  174.8460  147.5240 O   0  0  0  0  0  0  0  0  0  0  0  0
  191.1800  176.7390  148.0480 C   0  0  0  0  0  1  0  0  0  0  0  0
  191.0810  175.2280  148.0280 C   0  0  0  0  0  2  0  0  0  0  0  0
  1  5  1  0  0  0  0
  2 16  1  0  0  0  0
  3 17  1  0  0  0  0
  4 12  1  0  0  0  0
  4  1  2  0  0  0  0
  5 11  2  0  0  0  0
  7 15  1  6  0  0  0
  7 27  1  0  0  0  0
  8  6  2  0  0  0  0
  8 11  1  0  0  0  0
  9 14  1  6  0  0  0
  9 22  1  0  0  0  0
  9  7  1  0  0  0  0
 10  3  1  0  0  0  0
 10 22  1  0  0  0  0
 11 28  1  0  0  0  0
 12  8  1  0  0  0  0
 13  2  1  0  0  0  0
 14 23  1  0  0  0  0
 17 20  2  0  0  0  0
 17 26  1  0  0  0  0
 18 13  2  0  0  0  0
 19  1  1  0  0  0  0
 19  2  2  0  0  0  0
 20  4  1  0  0  0  0
 21 10  2  0  0  0  0
 22 20  1  0  0  0  0
 23 15  1  0  0  0  0
 25 26  2  0  0  0  0
 25 18  1  0  0  0  0
 26 19  1  0  0  0  0
 27 24  1  6  0  0  0
 27 12  1  0  0  0  0
 28 30  1  0  0  0  0
 30 29  1  0  0  0  0
M  END
>  <MODEL>
4

>  <REMARK>
 VINA RESULT:      -7.9      1.876      5.202
  Name = 
  2 active torsions:
  status: ('A' for Active; 'I' for Inactive)
    1  A    between atoms: C_11  and  O_28
    2  A    between atoms: O_28  and  C_30
                            x       y       z     vdW  Elec       q    Type
                         _______ _______ _______ _____ _____    ______ ____

>  <TORSDO>
F 2

$$$$
=
 OpenBabel11112416193D

 30 35  0  0  1  0  0  0  0  0999 V2000
  188.1120  176.4590  143.8080 C   0  0  0  0  0  0  0  0  0  0  0  0
  185.8460  177.4690  144.2670 C   0  0  0  0  0  0  0  0  0  0  0  0
  189.3860  177.3720  147.6130 N   0  0  0  0  0  2  0  0  0  0  0  0
  189.4160  176.0990  144.2750 C   0  0  0  0  0  0  0  0  0  0  0  0
  187.7830  176.1520  142.5280 N   0  0  0  0  0  0  0  0  0  0  0  0
  190.6170  174.3990  141.4140 O   0  0  0  0  0  0  0  0  0  0  0  0
  192.4960  175.7380  144.3460 C   0  0  1  0  0  3  0  0  0  0  0  0
  189.8560  175.0570  142.1760 C   0  0  0  0  0  0  0  0  0  0  0  0
  192.3320  176.2990  145.7460 C   0  0  2  0  0  3  0  0  0  0  0  0
  190.6680  176.9800  147.4620 C   0  0  0  0  0  0  0  0  0  0  0  0
  188.6210  175.4870  141.6970 C   0  0  0  0  0  0  0  0  0  0  0  0
  190.2280  175.3380  143.4640 N   0  0  0  0  0  0  0  0  0  0  0  0
  184.9800  178.0790  145.1800 C   0  0  0  0  0  3  0  0  0  0  0  0
  193.1880  175.4250  146.6400 C   0  0  0  0  0  2  0  0  0  0  0  0
  193.8750  175.0990  144.3270 C   0  0  0  0  0  2  0  0  0  0  0  0
  185.1740  177.2150  142.6600 Cl  0  0  0  0  0  0  0  0  0  0  0  0
  188.8430  177.0750  146.4200 C   0  0  0  0  0  0  0  0  0  0  0  0
  185.3810  178.3430  146.4850 C   0  0  0  0  0  3  0  0  0  0  0  0
  187.1660  177.1040  144.6690 C   0  0  0  0  0  0  0  0  0  0  0  0
  189.7680  176.4960  145.5880 C   0  0  0  0  0  0  0  0  0  0  0  0
  191.5330  177.1570  148.3620 O   0  0  0  0  0  0  0  0  0  0  0  0
  190.9540  176.4400  146.2480 N   0  0  0  0  0  0  0  0  0  0  0  0
  194.3510  175.0020  145.7690 C   0  0  0  0  0  2  0  0  0  0  0  0
  191.1670  173.6070  144.9740 C   0  0  0  0  0  1  0  0  0  0  0  0
  186.6640  178.0010  146.8980 C   0  0  0  0  0  3  0  0  0  0  0  0
  187.5520  177.3870  146.0090 C   0  0  0  0  0  0  0  0  0  0  0  0
  191.4520  174.7050  143.9500 C   0  0  2  0  0  3  0  0  0  0  0  0
  188.2480  175.2110  140.3780 O   0  0  0  0  0  0  0  0  0  0  0  0
  188.2670  173.9320  138.3530 C   0  0  0  0  0  1  0  0  0  0  0  0
  188.2180  173.8870  139.8660 C   0  0  0  0  0  2  0  0  0  0  0  0
  1  4  2  0  0  0  0
  1 19  1  0  0  0  0
  2 19  2  0  0  0  0
  2 13  1  0  0  0  0
  4 20  1  0  0  0  0
  5  1  1  0  0  0  0
  6  8  2  0  0  0  0
  7 15  1  1  0  0  0
  7  9  1  0  0  0  0
  8 12  1  0  0  0  0
  9 22  1  0  0  0  0
  9 14  1  1  0  0  0
 10  3  1  0  0  0  0
 10 21  2  0  0  0  0
 11  8  1  0  0  0  0
 11  5  2  0  0  0  0
 12 27  1  0  0  0  0
 12  4  1  0  0  0  0
 13 18  2  0  0  0  0
 15 23  1  0  0  0  0
 16  2  1  0  0  0  0
 17  3  1  0  0  0  0
 18 25  1  0  0  0  0
 19 26  1  0  0  0  0
 20 22  1  0  0  0  0
 20 17  2  0  0  0  0
 22 10  1  0  0  0  0
 23 14  1  0  0  0  0
 26 17  1  0  0  0  0
 26 25  2  0  0  0  0
 27  7  1  0  0  0  0
 27 24  1  1  0  0  0
 28 11  1  0  0  0  0
 29 30  1  0  0  0  0
 30 28  1  0  0  0  0
M  END
>  <MODEL>
5

>  <REMARK>
 VINA RESULT:      -7.9      1.967      2.923
  Name = 
  2 active torsions:
  status: ('A' for Active; 'I' for Inactive)
    1  A    between atoms: C_11  and  O_28
    2  A    between atoms: O_28  and  C_30
                            x       y       z     vdW  Elec       q    Type
                         _______ _______ _______ _____ _____    ______ ____

>  <TORSDO>
F 2

$$$$
=
 OpenBabel11112416193D

 30 35  0  0  1  0  0  0  0  0999 V2000
  187.7020  176.5800  143.0430 C   0  0  0  0  0  0  0  0  0  0  0  0
  185.5520  177.9010  143.0130 C   0  0  0  0  0  0  0  0  0  0  0  0
  188.4870  177.7800  146.9000 N   0  0  0  0  0  2  0  0  0  0  0  0
  188.8560  176.1240  143.7560 C   0  0  0  0  0  0  0  0  0  0  0  0
  187.5340  176.1630  141.7620 N   0  0  0  0  0  0  0  0  0  0  0  0
  190.2380  173.9640  141.3190 O   0  0  0  0  0  0  0  0  0  0  0  0
  191.8090  175.4080  144.3800 C   0  0  1  0  0  3  0  0  0  0  0  0
  189.4670  174.7950  141.8730 C   0  0  0  0  0  0  0  0  0  0  0  0
  191.5090  176.1470  145.6710 C   0  0  2  0  0  3  0  0  0  0  0  0
  189.7100  177.2220  147.0070 C   0  0  0  0  0  0  0  0  0  0  0  0
  188.3910  175.3090  141.1540 C   0  0  0  0  0  0  0  0  0  0  0  0
  189.6710  175.1800  143.1720 N   0  0  0  0  0  0  0  0  0  0  0  0
  184.6480  178.7140  143.7030 C   0  0  0  0  0  3  0  0  0  0  0  0
  192.0890  175.2900  146.7770 C   0  0  0  0  0  2  0  0  0  0  0  0
  193.0730  174.6110  144.6560 C   0  0  0  0  0  2  0  0  0  0  0  0
  185.1080  177.5400  141.3480 Cl  0  0  0  0  0  0  0  0  0  0  0  0
  188.0990  177.4100  145.6680 C   0  0  0  0  0  0  0  0  0  0  0  0
  184.8760  179.0820  145.0250 C   0  0  0  0  0  3  0  0  0  0  0  0
  186.7320  177.4300  143.6650 C   0  0  0  0  0  0  0  0  0  0  0  0
  189.0520  176.6290  145.0640 C   0  0  0  0  0  0  0  0  0  0  0  0
  190.4420  177.4000  148.0170 O   0  0  0  0  0  0  0  0  0  0  0  0
  190.1030  176.5110  145.9170 N   0  0  0  0  0  0  0  0  0  0  0  0
  193.3030  174.6290  146.1600 C   0  0  0  0  0  2  0  0  0  0  0  0
  190.1180  173.5410  144.9800 C   0  0  0  0  0  1  0  0  0  0  0  0
  186.0200  178.6400  145.6790 C   0  0  0  0  0  3  0  0  0  0  0  0
  186.9410  177.8230  145.0170 C   0  0  0  0  0  0  0  0  0  0  0  0
  190.7070  174.4680  143.9170 C   0  0  2  0  0  3  0  0  0  0  0  0
  188.1920  174.9250  139.8250 O   0  0  0  0  0  0  0  0  0  0  0  0
  188.6160  173.4600  137.9770 C   0  0  0  0  0  1  0  0  0  0  0  0
  188.1910  173.5620  139.4270 C   0  0  0  0  0  2  0  0  0  0  0  0
  1 19  2  0  0  0  0
  1  4  1  0  0  0  0
  2 19  1  0  0  0  0
  2 13  2  0  0  0  0
  3 10  1  0  0  0  0
  4 20  2  0  0  0  0
  5  1  1  0  0  0  0
  6  8  2  0  0  0  0
  7 15  1  1  0  0  0
  7  9  1  0  0  0  0
  8 12  1  0  0  0  0
  9 22  1  0  0  0  0
  9 14  1  1  0  0  0
 10 21  2  0  0  0  0
 11  5  2  0  0  0  0
 11  8  1  0  0  0  0
 12  4  1  0  0  0  0
 12 27  1  0  0  0  0
 13 18  1  0  0  0  0
 15 23  1  0  0  0  0
 16  2  1  0  0  0  0
 17  3  1  0  0  0  0
 18 25  2  0  0  0  0
 19 26  1  0  0  0  0
 20 17  1  0  0  0  0
 20 22  1  0  0  0  0
 22 10  1  0  0  0  0
 23 14  1  0  0  0  0
 26 17  2  0  0  0  0
 26 25  1  0  0  0  0
 27  7  1  0  0  0  0
 27 24  1  1  0  0  0
 28 11  1  0  0  0  0
 29 30  1  0  0  0  0
 30 28  1  0  0  0  0
M  END
>  <MODEL>
6

>  <REMARK>
 VINA RESULT:      -7.8      1.938      2.982
  Name = 
  2 active torsions:
  status: ('A' for Active; 'I' for Inactive)
    1  A    between atoms: C_11  and  O_28
    2  A    between atoms: O_28  and  C_30
                            x       y       z     vdW  Elec       q    Type
                         _______ _______ _______ _____ _____    ______ ____

>  <TORSDO>
F 2

$$$$
=
 OpenBabel11112416193D

 30 35  0  0  1  0  0  0  0  0999 V2000
  190.2520  175.8170  144.3050 C   0  0  0  0  0  0  0  0  0  0  0  0
  191.2960  174.5540  142.3860 C   0  0  0  0  0  0  0  0  0  0  0  0
  186.6310  175.9580  142.3540 N   0  0  0  0  0  2  0  0  0  0  0  0
  189.0960  176.4140  144.9000 C   0  0  0  0  0  0  0  0  0  0  0  0
  191.4160  175.8420  145.0010 N   0  0  0  0  0  0  0  0  0  0  0  0
  190.4540  177.3280  148.0370 O   0  0  0  0  0  0  0  0  0  0  0  0
  187.3070  178.4670  146.3870 C   0  0  1  0  0  3  0  0  0  0  0  0
  190.3710  176.8750  146.8610 C   0  0  0  0  0  0  0  0  0  0  0  0
  186.3600  178.1780  145.2370 C   0  0  2  0  0  3  0  0  0  0  0  0
  185.9860  176.7370  143.2470 C   0  0  0  0  0  0  0  0  0  0  0  0
  191.5130  176.3720  146.2440 C   0  0  0  0  0  0  0  0  0  0  0  0
  189.1710  176.8630  146.2000 N   0  0  0  0  0  0  0  0  0  0  0  0
  191.1360  173.9430  141.1390 C   0  0  0  0  0  3  0  0  0  0  0  0
  184.9940  178.0010  145.8670 C   0  0  0  0  0  2  0  0  0  0  0  0
  186.4540  179.1300  147.4560 C   0  0  0  0  0  2  0  0  0  0  0  0
  192.9240  174.4710  143.0520 Cl  0  0  0  0  0  0  0  0  0  0  0  0
  187.8410  175.8010  142.9170 C   0  0  0  0  0  0  0  0  0  0  0  0
  189.9040  173.9370  140.4940 C   0  0  0  0  0  3  0  0  0  0  0  0
  190.1840  175.1840  143.0220 C   0  0  0  0  0  0  0  0  0  0  0  0
  187.9100  176.4450  144.1270 C   0  0  0  0  0  0  0  0  0  0  0  0
  184.8190  177.1660  143.0420 O   0  0  0  0  0  0  0  0  0  0  0  0
  186.7190  177.0620  144.3450 N   0  0  0  0  0  0  0  0  0  0  0  0
  184.9970  178.9240  147.0660 C   0  0  0  0  0  2  0  0  0  0  0  0
  187.0860  176.0410  147.2630 C   0  0  0  0  0  1  0  0  0  0  0  0
  188.8070  174.5480  141.0910 C   0  0  0  0  0  3  0  0  0  0  0  0
  188.9350  175.1650  142.3400 C   0  0  0  0  0  0  0  0  0  0  0  0
  187.9880  177.2390  146.9710 C   0  0  2  0  0  3  0  0  0  0  0  0
  192.7390  176.3970  146.9150 O   0  0  0  0  0  0  0  0  0  0  0  0
  194.8020  175.4590  146.1380 C   0  0  0  0  0  1  0  0  0  0  0  0
  193.9550  176.7090  146.2520 C   0  0  0  0  0  2  0  0  0  0  0  0
  1  4  1  0  0  0  0
  1  5  1  0  0  0  0
  2 19  1  0  0  0  0
  2 16  1  0  0  0  0
  3 17  1  0  0  0  0
  3 10  1  0  0  0  0
  4 12  1  0  0  0  0
  5 11  2  0  0  0  0
  7 27  1  0  0  0  0
  7 15  1  1  0  0  0
  8  6  2  0  0  0  0
  9 14  1  1  0  0  0
  9  7  1  0  0  0  0
 10 22  1  0  0  0  0
 11  8  1  0  0  0  0
 11 28  1  0  0  0  0
 12  8  1  0  0  0  0
 12 27  1  0  0  0  0
 13  2  2  0  0  0  0
 14 23  1  0  0  0  0
 17 20  1  0  0  0  0
 18 25  2  0  0  0  0
 18 13  1  0  0  0  0
 19  1  2  0  0  0  0
 20 22  1  0  0  0  0
 20  4  2  0  0  0  0
 21 10  2  0  0  0  0
 22  9  1  0  0  0  0
 23 15  1  0  0  0  0
 25 26  1  0  0  0  0
 26 17  2  0  0  0  0
 26 19  1  0  0  0  0
 27 24  1  6  0  0  0
 29 30  1  0  0  0  0
 30 28  1  0  0  0  0
M  END
>  <MODEL>
7

>  <REMARK>
 VINA RESULT:      -7.8      2.632      7.279
  Name = 
  2 active torsions:
  status: ('A' for Active; 'I' for Inactive)
    1  A    between atoms: C_11  and  O_28
    2  A    between atoms: O_28  and  C_30
                            x       y       z     vdW  Elec       q    Type
                         _______ _______ _______ _____ _____    ______ ____

>  <TORSDO>
F 2

$$$$
=
 OpenBabel11112416193D

 30 35  0  0  1  0  0  0  0  0999 V2000
  186.6450  176.8690  144.0780 C   0  0  0  0  0  0  0  0  0  0  0  0
  184.7540  178.2120  143.0840 C   0  0  0  0  0  0  0  0  0  0  0  0
  187.8590  175.6490  140.3400 N   0  0  0  0  0  2  0  0  0  0  0  0
  187.7950  176.0390  143.8910 C   0  0  0  0  0  0  0  0  0  0  0  0
  186.2930  177.1990  145.3460 N   0  0  0  0  0  0  0  0  0  0  0  0
  188.8630  175.7450  147.2510 O   0  0  0  0  0  0  0  0  0  0  0  0
  189.8090  173.7100  144.2710 C   0  0  1  0  0  3  0  0  0  0  0  0
  188.1750  176.0720  146.2450 C   0  0  0  0  0  0  0  0  0  0  0  0
  189.7300  173.6560  142.7560 C   0  0  2  0  0  3  0  0  0  0  0  0
  188.8250  174.7990  140.7440 C   0  0  0  0  0  0  0  0  0  0  0  0
  187.0060  176.8060  146.4290 C   0  0  0  0  0  0  0  0  0  0  0  0
  188.5750  175.7230  144.9820 N   0  0  0  0  0  0  0  0  0  0  0  0
  184.0930  178.6660  141.9390 C   0  0  0  0  0  3  0  0  0  0  0  0
  191.1610  173.5200  142.2770 C   0  0  0  0  0  2  0  0  0  0  0  0
  191.0610  172.9300  144.6380 C   0  0  0  0  0  2  0  0  0  0  0  0
  184.0660  178.7640  144.6080 Cl  0  0  0  0  0  0  0  0  0  0  0  0
  187.4070  176.1560  141.5000 C   0  0  0  0  0  0  0  0  0  0  0  0
  184.5270  178.3040  140.6680 C   0  0  0  0  0  3  0  0  0  0  0  0
  185.8970  177.3650  142.9620 C   0  0  0  0  0  0  0  0  0  0  0  0
  188.1020  175.6440  142.5660 C   0  0  0  0  0  0  0  0  0  0  0  0
  189.4550  174.0680  139.9330 O   0  0  0  0  0  0  0  0  0  0  0  0
  189.0150  174.7570  142.0890 N   0  0  0  0  0  0  0  0  0  0  0  0
  191.8580  172.7220  143.3580 C   0  0  0  0  0  2  0  0  0  0  0  0
  190.9050  176.0540  144.1960 C   0  0  0  0  0  1  0  0  0  0  0  0
  185.6340  177.4760  140.5240 C   0  0  0  0  0  3  0  0  0  0  0  0
  186.3190  177.0090  141.6500 C   0  0  0  0  0  0  0  0  0  0  0  0
  189.8960  175.1130  144.8520 C   0  0  2  0  0  3  0  0  0  0  0  0
  186.5930  177.1500  147.7190 O   0  0  0  0  0  0  0  0  0  0  0  0
  186.3170  179.5120  148.0130 C   0  0  0  0  0  1  0  0  0  0  0  0
  185.6280  178.1640  147.9560 C   0  0  0  0  0  2  0  0  0  0  0  0
  1  5  1  0  0  0  0
  2 16  1  0  0  0  0
  3 10  1  0  0  0  0
  3 17  1  0  0  0  0
  4  1  1  0  0  0  0
  4 12  1  0  0  0  0
  5 11  2  0  0  0  0
  7 15  1  6  0  0  0
  7 27  1  0  0  0  0
  8 11  1  0  0  0  0
  8  6  2  0  0  0  0
  9 14  1  6  0  0  0
  9  7  1  0  0  0  0
 10 22  1  0  0  0  0
 11 28  1  0  0  0  0
 12  8  1  0  0  0  0
 13  2  2  0  0  0  0
 14 23  1  0  0  0  0
 17 26  2  0  0  0  0
 17 20  1  0  0  0  0
 18 13  1  0  0  0  0
 19  2  1  0  0  0  0
 19  1  2  0  0  0  0
 20  4  2  0  0  0  0
 21 10  2  0  0  0  0
 22 20  1  0  0  0  0
 22  9  1  0  0  0  0
 23 15  1  0  0  0  0
 25 18  2  0  0  0  0
 25 26  1  0  0  0  0
 26 19  1  0  0  0  0
 27 24  1  6  0  0  0
 27 12  1  0  0  0  0
 28 30  1  0  0  0  0
 30 29  1  0  0  0  0
M  END
>  <MODEL>
8

>  <REMARK>
 VINA RESULT:      -7.8      1.681      4.725
  Name = 
  2 active torsions:
  status: ('A' for Active; 'I' for Inactive)
    1  A    between atoms: C_11  and  O_28
    2  A    between atoms: O_28  and  C_30
                            x       y       z     vdW  Elec       q    Type
                         _______ _______ _______ _____ _____    ______ ____

>  <TORSDO>
F 2

$$$$
=
 OpenBabel11112416193D

 30 35  0  0  1  0  0  0  0  0999 V2000
  188.9140  175.8860  143.8490 C   0  0  0  0  0  0  0  0  0  0  0  0
  186.5870  176.6780  144.4200 C   0  0  0  0  0  0  0  0  0  0  0  0
  190.3220  177.1030  147.5200 N   0  0  0  0  0  2  0  0  0  0  0  0
  190.2750  175.6840  144.2420 C   0  0  0  0  0  0  0  0  0  0  0  0
  188.5390  175.4860  142.6080 N   0  0  0  0  0  0  0  0  0  0  0  0
  191.4670  173.9840  141.3760 O   0  0  0  0  0  0  0  0  0  0  0  0
  193.3750  175.6460  144.1180 C   0  0  1  0  0  3  0  0  0  0  0  0
  190.6900  174.5960  142.1610 C   0  0  0  0  0  0  0  0  0  0  0  0
  193.2410  176.2530  145.5030 C   0  0  2  0  0  3  0  0  0  0  0  0
  191.6250  176.8390  147.2990 C   0  0  0  0  0  0  0  0  0  0  0  0
  189.3890  174.8730  141.7500 C   0  0  0  0  0  0  0  0  0  0  0  0
  191.1110  174.9730  143.4080 N   0  0  0  0  0  0  0  0  0  0  0  0
  185.7210  177.2370  145.3640 C   0  0  0  0  0  3  0  0  0  0  0  0
  194.2390  175.5140  146.3710 C   0  0  0  0  0  2  0  0  0  0  0  0
  194.8100  175.1520  144.0320 C   0  0  0  0  0  2  0  0  0  0  0  0
  185.8460  176.2810  142.8730 Cl  0  0  0  0  0  0  0  0  0  0  0  0
  189.7390  176.6960  146.3790 C   0  0  0  0  0  0  0  0  0  0  0  0
  186.1730  177.6030  146.6270 C   0  0  0  0  0  3  0  0  0  0  0  0
  187.9610  176.4690  144.7460 C   0  0  0  0  0  0  0  0  0  0  0  0
  190.6650  176.1760  145.5100 C   0  0  0  0  0  0  0  0  0  0  0  0
  192.5220  177.1450  148.1300 O   0  0  0  0  0  0  0  0  0  0  0  0
  191.8900  176.2740  146.0910 N   0  0  0  0  0  0  0  0  0  0  0  0
  195.3830  175.1720  145.4410 C   0  0  0  0  0  2  0  0  0  0  0  0
  192.3210  173.4210  144.9190 C   0  0  0  0  0  1  0  0  0  0  0  0
  187.5080  177.4140  146.9660 C   0  0  0  0  0  3  0  0  0  0  0  0
  188.3980  176.8530  146.0450 C   0  0  0  0  0  0  0  0  0  0  0  0
  192.4230  174.4940  143.8360 C   0  0  2  0  0  3  0  0  0  0  0  0
  188.9640  174.4980  140.4720 O   0  0  0  0  0  0  0  0  0  0  0  0
  188.6590  172.7300  138.8840 C   0  0  0  0  0  1  0  0  0  0  0  0
  188.2630  173.2870  140.2360 C   0  0  0  0  0  2  0  0  0  0  0  0
  1  4  2  0  0  0  0
  1 19  1  0  0  0  0
  2 19  2  0  0  0  0
  2 13  1  0  0  0  0
  4 20  1  0  0  0  0
  5  1  1  0  0  0  0
  6  8  2  0  0  0  0
  7 15  1  1  0  0  0
  7  9  1  0  0  0  0
  8 12  1  0  0  0  0
  9 22  1  0  0  0  0
  9 14  1  1  0  0  0
 10  3  1  0  0  0  0
 10 21  2  0  0  0  0
 11  8  1  0  0  0  0
 11  5  2  0  0  0  0
 12 27  1  0  0  0  0
 12  4  1  0  0  0  0
 13 18  2  0  0  0  0
 15 23  1  0  0  0  0
 16  2  1  0  0  0  0
 17  3  1  0  0  0  0
 18 25  1  0  0  0  0
 19 26  1  0  0  0  0
 20 22  1  0  0  0  0
 20 17  2  0  0  0  0
 22 10  1  0  0  0  0
 23 14  1  0  0  0  0
 26 17  1  0  0  0  0
 26 25  2  0  0  0  0
 27  7  1  0  0  0  0
 27 24  1  1  0  0  0
 28 11  1  0  0  0  0
 29 30  1  0  0  0  0
 30 28  1  0  0  0  0
M  END
>  <MODEL>
9

>  <REMARK>
 VINA RESULT:      -7.7      2.319      3.576
  Name = 
  2 active torsions:
  status: ('A' for Active; 'I' for Inactive)
    1  A    between atoms: C_11  and  O_28
    2  A    between atoms: O_28  and  C_30
                            x       y       z     vdW  Elec       q    Type
                         _______ _______ _______ _____ _____    ______ ____

>  <TORSDO>
F 2

$$$$
