=
 OpenBabel11112418003D

 34 40  0  0  1  0  0  0  0  0999 V2000
  189.7870  176.2230  146.1660 C   0  0  0  0  0  0  0  0  0  0  0  0
  187.3380  176.8810  146.6120 C   0  0  0  0  0  2  0  0  0  0  0  0
  195.3140  176.3080  142.5540 C   0  0  2  0  0  3  0  0  0  0  0  0
  192.1010  175.6880  145.5740 C   0  0  0  0  0  0  0  0  0  0  0  0
  192.8680  176.1020  143.2980 C   0  0  0  0  0  0  0  0  0  0  0  0
  193.7100  174.8790  141.4220 O   0  0  0  0  0  1  0  0  0  0  0  0
  196.0850  176.8630  141.3730 C   0  0  0  0  0  1  0  0  0  0  0  0
  195.1840  174.2750  144.0910 C   0  0  0  0  0  2  0  0  0  0  0  0
  188.2940  177.0490  144.4470 C   0  0  0  0  0  0  0  0  0  0  0  0
  186.7120  177.8630  141.8990 C   0  0  0  0  0  3  0  0  0  0  0  0
  191.6180  176.5310  142.9840 N   0  0  0  0  0  0  0  0  0  0  0  0
  194.5120  175.2160  145.0760 C   0  0  0  0  0  2  0  0  0  0  0  0
  189.3220  177.0310  143.4810 C   0  0  0  0  0  0  0  0  0  0  0  0
  186.3630  177.6290  145.7010 C   0  0  0  0  0  2  0  0  0  0  0  0
  193.1380  175.6450  144.6190 C   0  0  0  0  0  0  0  0  0  0  0  0
  196.0210  175.0570  143.0820 C   0  0  0  0  0  2  0  0  0  0  0  0
  186.5640  178.4710  143.2620 C   0  0  2  0  0  3  0  0  0  0  0  0
  190.8250  176.1490  145.2110 C   0  0  2  0  0  3  0  0  0  0  0  0
  193.8570  176.0580  142.1600 C   0  0  2  0  0  3  0  0  0  0  0  0
  190.5960  176.5690  143.8790 C   0  0  0  0  0  0  0  0  0  0  0  0
  191.3850  175.3070  147.8920 C   0  0  0  0  0  3  0  0  0  0  0  0
  187.8960  177.4800  141.4120 C   0  0  0  0  0  3  0  0  0  0  0  0
  192.3390  175.2460  146.9640 C   0  0  0  0  0  3  0  0  0  0  0  0
  189.1890  177.7100  142.1390 C   0  0  0  0  0  2  0  0  0  0  0  0
  186.8450  177.3590  144.2720 C   0  0  1  0  0  3  0  0  0  0  0  0
  190.0070  175.8380  147.6080 C   0  0  0  0  0  3  0  0  0  0  0  0
  188.5350  176.6880  145.7530 C   0  0  0  0  0  0  0  0  0  0  0  0
  185.1420  178.9980  143.4050 C   0  0  0  0  0  2  0  0  0  0  0  0
  184.1660  178.0840  142.6830 C   0  0  0  0  0  2  0  0  0  0  0  0
  182.6650  177.5670  139.9530 O   0  0  0  0  0  0  0  0  0  0  0  0
  181.8900  178.5940  141.9010 C   0  0  0  0  0  2  0  0  0  0  0  0
  183.3410  178.8800  141.6880 C   0  0  2  0  0  3  0  0  0  0  0  0
  181.4920  178.0100  140.5790 C   0  0  0  0  0  2  0  0  0  0  0  0
  183.6370  178.4450  140.3290 N   0  0  0  0  0  2  0  0  0  0  0  0
  1 26  2  0  0  0  0
  3  7  1  6  0  0  0
  3 16  1  0  0  0  0
  4 23  1  0  0  0  0
  5 15  1  0  0  0  0
  8 12  1  0  0  0  0
  9 27  2  0  0  0  0
 10 17  1  0  0  0  0
 11  5  2  0  0  0  0
 11 20  1  0  0  0  0
 13 20  2  0  0  0  0
 13  9  1  0  0  0  0
 14  2  1  0  0  0  0
 15 12  1  0  0  0  0
 15  4  2  0  0  0  0
 16  8  1  0  0  0  0
 17 28  1  1  0  0  0
 17 25  1  0  0  0  0
 18 20  1  1  0  0  0
 18  4  1  0  0  0  0
 18  1  1  0  0  0  0
 19  6  1  1  0  0  0
 19  3  1  0  0  0  0
 19  5  1  0  0  0  0
 22 10  2  0  0  0  0
 22 24  1  0  0  0  0
 23 21  2  0  0  0  0
 24 13  1  0  0  0  0
 25  9  1  0  0  0  0
 25 14  1  1  0  0  0
 26 21  1  0  0  0  0
 27  1  1  0  0  0  0
 27  2  1  0  0  0  0
 29 28  1  0  0  0  0
 30 34  1  0  0  0  0
 30 33  1  0  0  0  0
 32 31  1  0  0  0  0
 32 29  1  1  0  0  0
 33 31  1  0  0  0  0
 34 32  1  0  0  0  0
M  END
>  <MODEL>
1

>  <REMARK>
 VINA RESULT:      -9.2      0.000      0.000
  Name = 
  3 active torsions:
  status: ('A' for Active; 'I' for Inactive)
    1  A    between atoms: C_17  and  C_28
    2  A    between atoms: C_28  and  C_29
    3  A    between atoms: C_29  and  C_32
                            x       y       z     vdW  Elec       q    Type
                         _______ _______ _______ _____ _____    ______ ____

>  <TORSDO>
F 3

$$$$
=
 OpenBabel11112418003D

 34 40  0  0  1  0  0  0  0  0999 V2000
  190.2550  174.5090  141.8740 C   0  0  0  0  0  0  0  0  0  0  0  0
  187.7620  175.1510  141.8560 C   0  0  0  0  0  2  0  0  0  0  0  0
  196.0460  173.5780  144.9070 C   0  0  2  0  0  3  0  0  0  0  0  0
  192.6290  173.9470  142.0750 C   0  0  0  0  0  0  0  0  0  0  0  0
  193.8300  174.5840  144.0980 C   0  0  0  0  0  0  0  0  0  0  0  0
  195.6670  175.9710  144.7510 O   0  0  0  0  0  1  0  0  0  0  0  0
  196.8380  173.4980  146.1970 C   0  0  0  0  0  1  0  0  0  0  0  0
  196.3140  174.0310  142.4100 C   0  0  0  0  0  2  0  0  0  0  0  0
  189.1920  175.7760  143.6430 C   0  0  0  0  0  0  0  0  0  0  0  0
  188.3250  177.5740  146.0250 C   0  0  0  0  0  3  0  0  0  0  0  0
  192.6910  175.1640  144.5590 N   0  0  0  0  0  0  0  0  0  0  0  0
  195.0280  173.2390  142.2530 C   0  0  0  0  0  2  0  0  0  0  0  0
  190.3780  175.7930  144.4070 C   0  0  0  0  0  0  0  0  0  0  0  0
  186.9100  175.7270  142.9880 C   0  0  0  0  0  2  0  0  0  0  0  0
  193.8300  173.9670  142.8160 C   0  0  0  0  0  0  0  0  0  0  0  0
  197.0100  173.6760  143.7210 C   0  0  0  0  0  2  0  0  0  0  0  0
  187.5020  176.4940  145.3880 C   0  0  2  0  0  3  0  0  0  0  0  0
  191.4700  174.5490  142.5940 C   0  0  0  0  0  0  0  0  0  0  0  0
  195.0490  174.7360  144.9740 C   0  0  2  0  0  3  0  0  0  0  0  0
  191.5240  175.1720  143.8620 C   0  0  0  0  0  0  0  0  0  0  0  0
  191.4430  173.2380  140.0450 C   0  0  0  0  0  3  0  0  0  0  0  0
  189.6460  177.4600  146.1960 C   0  0  0  0  0  3  0  0  0  0  0  0
  192.5730  173.2980  140.7490 C   0  0  0  0  0  3  0  0  0  0  0  0
  190.4060  176.2110  145.8570 C   0  0  0  0  0  2  0  0  0  0  0  0
  187.8920  176.4570  143.9110 C   0  0  1  0  0  3  0  0  0  0  0  0
  190.1430  173.8050  140.5440 C   0  0  0  0  0  2  0  0  0  0  0  0
  189.1310  175.1240  142.4320 C   0  0  0  0  0  0  0  0  0  0  0  0
  186.0290  176.8430  145.5610 C   0  0  0  0  0  2  0  0  0  0  0  0
  185.8780  178.2870  146.0070 C   0  0  0  0  0  2  0  0  0  0  0  0
  185.9840  179.5480  143.1130 O   0  0  0  0  0  0  0  0  0  0  0  0
  184.4180  178.0850  144.0380 C   0  0  0  0  0  2  0  0  0  0  0  0
  184.9400  179.0290  145.0700 C   0  0  2  0  0  3  0  0  0  0  0  0
  184.9180  178.7060  142.7680 C   0  0  0  0  0  2  0  0  0  0  0  0
  185.6710  180.0560  144.3380 N   0  0  0  0  0  2  0  0  0  0  0  0
  1 27  2  0  0  0  0
  1 18  1  0  0  0  0
  2 27  1  0  0  0  0
  2 14  1  0  0  0  0
  3 19  1  0  0  0  0
  3  7  1  1  0  0  0
  4 18  2  0  0  0  0
  4 15  1  0  0  0  0
  5 11  1  0  0  0  0
  5 19  1  0  0  0  0
  8 16  1  0  0  0  0
  9 25  1  0  0  0  0
  9 13  2  0  0  0  0
 10 22  2  0  0  0  0
 12  8  1  0  0  0  0
 12 15  1  0  0  0  0
 13 24  1  0  0  0  0
 15  5  2  0  0  0  0
 16  3  1  0  0  0  0
 17 28  1  6  0  0  0
 17 10  1  0  0  0  0
 18 20  1  0  0  0  0
 19  6  1  6  0  0  0
 20 13  1  0  0  0  0
 20 11  2  0  0  0  0
 21 26  1  0  0  0  0
 21 23  2  0  0  0  0
 23  4  1  0  0  0  0
 24 22  1  0  0  0  0
 25 14  1  6  0  0  0
 25 17  1  0  0  0  0
 26  1  1  0  0  0  0
 27  9  1  0  0  0  0
 28 29  1  0  0  0  0
 30 34  1  0  0  0  0
 31 32  1  0  0  0  0
 32 29  1  1  0  0  0
 33 30  1  0  0  0  0
 33 31  1  0  0  0  0
 34 32  1  0  0  0  0
M  END
>  <MODEL>
2

>  <REMARK>
 VINA RESULT:      -8.9      2.385      4.093
  Name = 
  3 active torsions:
  status: ('A' for Active; 'I' for Inactive)
    1  A    between atoms: C_17  and  C_28
    2  A    between atoms: C_28  and  C_29
    3  A    between atoms: C_29  and  C_32
                            x       y       z     vdW  Elec       q    Type
                         _______ _______ _______ _____ _____    ______ ____

>  <TORSDO>
F 3

$$$$
=
 OpenBabel11112418003D

 34 40  0  0  1  0  0  0  0  0999 V2000
  189.4720  174.2460  142.0840 C   0  0  0  0  0  0  0  0  0  0  0  0
  187.3670  175.7240  142.1690 C   0  0  0  0  0  2  0  0  0  0  0  0
  194.2790  170.7230  144.9290 C   0  0  2  0  0  3  0  0  0  0  0  0
  191.4770  172.8450  142.1940 C   0  0  0  0  0  0  0  0  0  0  0  0
  192.6310  172.5930  144.3270 C   0  0  0  0  0  0  0  0  0  0  0  0
  194.7650  173.0730  145.2970 O   0  0  0  0  0  1  0  0  0  0  0  0
  194.8710  170.1100  146.1820 C   0  0  0  0  0  1  0  0  0  0  0  0
  194.9160  171.5400  142.5970 C   0  0  0  0  0  2  0  0  0  0  0  0
  188.7520  175.4280  144.0710 C   0  0  0  0  0  0  0  0  0  0  0  0
  188.3420  176.9020  146.7760 C   0  0  0  0  0  3  0  0  0  0  0  0
  191.7240  173.4370  144.8860 N   0  0  0  0  0  0  0  0  0  0  0  0
  193.4560  171.3080  142.2500 C   0  0  0  0  0  2  0  0  0  0  0  0
  189.7950  174.8670  144.8390 C   0  0  0  0  0  0  0  0  0  0  0  0
  186.6650  176.3280  143.3870 C   0  0  0  0  0  2  0  0  0  0  0  0
  192.5370  172.2870  142.9400 C   0  0  0  0  0  0  0  0  0  0  0  0
  195.3230  170.7060  143.8090 C   0  0  0  0  0  2  0  0  0  0  0  0
  187.2600  176.3370  145.9050 C   0  0  2  0  0  3  0  0  0  0  0  0
  190.5540  173.7040  142.8140 C   0  0  0  0  0  0  0  0  0  0  0  0
  193.7410  172.1230  145.2330 C   0  0  2  0  0  3  0  0  0  0  0  0
  190.7020  174.0010  144.1890 C   0  0  0  0  0  0  0  0  0  0  0  0
  190.3130  173.0260  140.0400 C   0  0  0  0  0  3  0  0  0  0  0  0
  189.5200  176.2920  146.9380 C   0  0  0  0  0  3  0  0  0  0  0  0
  191.3230  172.5370  140.7580 C   0  0  0  0  0  3  0  0  0  0  0  0
  189.8310  174.9490  146.3460 C   0  0  0  0  0  2  0  0  0  0  0  0
  187.7480  176.4600  144.4620 C   0  0  1  0  0  3  0  0  0  0  0  0
  189.2480  173.9080  140.6310 C   0  0  0  0  0  2  0  0  0  0  0  0
  188.5820  175.0960  142.7460 C   0  0  0  0  0  0  0  0  0  0  0  0
  185.9880  177.1470  146.1270 C   0  0  0  0  0  2  0  0  0  0  0  0
  186.3080  178.6320  146.1660 C   0  0  0  0  0  2  0  0  0  0  0  0
  185.2280  179.3630  143.2900 O   0  0  0  0  0  0  0  0  0  0  0  0
  184.0810  178.4980  145.1300 C   0  0  0  0  0  2  0  0  0  0  0  0
  185.1640  179.4300  145.5660 C   0  0  2  0  0  3  0  0  0  0  0  0
  184.0120  178.7710  143.6570 C   0  0  0  0  0  2  0  0  0  0  0  0
  185.6090  180.1160  144.3600 N   0  0  0  0  0  2  0  0  0  0  0  0
  1 27  2  0  0  0  0
  1 18  1  0  0  0  0
  2 27  1  0  0  0  0
  2 14  1  0  0  0  0
  3 19  1  0  0  0  0
  3  7  1  1  0  0  0
  4 18  2  0  0  0  0
  4 15  1  0  0  0  0
  5 11  1  0  0  0  0
  5 19  1  0  0  0  0
  8 16  1  0  0  0  0
  9 25  1  0  0  0  0
  9 13  2  0  0  0  0
 10 22  2  0  0  0  0
 12  8  1  0  0  0  0
 12 15  1  0  0  0  0
 13 24  1  0  0  0  0
 15  5  2  0  0  0  0
 16  3  1  0  0  0  0
 17 28  1  6  0  0  0
 17 10  1  0  0  0  0
 18 20  1  0  0  0  0
 19  6  1  6  0  0  0
 20 13  1  0  0  0  0
 20 11  2  0  0  0  0
 21 26  1  0  0  0  0
 21 23  2  0  0  0  0
 23  4  1  0  0  0  0
 24 22  1  0  0  0  0
 25 14  1  6  0  0  0
 25 17  1  0  0  0  0
 26  1  1  0  0  0  0
 27  9  1  0  0  0  0
 28 29  1  0  0  0  0
 30 33  1  0  0  0  0
 30 34  1  0  0  0  0
 31 32  1  0  0  0  0
 32 29  1  6  0  0  0
 33 31  1  0  0  0  0
 34 32  1  0  0  0  0
M  END
>  <MODEL>
3

>  <REMARK>
 VINA RESULT:      -8.7      3.040      4.691
  Name = 
  3 active torsions:
  status: ('A' for Active; 'I' for Inactive)
    1  A    between atoms: C_17  and  C_28
    2  A    between atoms: C_28  and  C_29
    3  A    between atoms: C_29  and  C_32
                            x       y       z     vdW  Elec       q    Type
                         _______ _______ _______ _____ _____    ______ ____

>  <TORSDO>
F 3

$$$$
=
 OpenBabel11112418003D

 34 40  0  0  1  0  0  0  0  0999 V2000
  189.6230  174.5390  144.9600 C   0  0  0  0  0  0  0  0  0  0  0  0
  191.3170  172.6280  144.6390 C   0  0  0  0  0  2  0  0  0  0  0  0
  184.3830  178.1010  143.1010 C   0  0  2  0  0  3  0  0  0  0  0  0
  187.9380  176.3100  145.0960 C   0  0  0  0  0  0  0  0  0  0  0  0
  186.6180  176.8440  143.1180 C   0  0  0  0  0  0  0  0  0  0  0  0
  186.2330  178.6880  141.6430 O   0  0  0  0  0  1  0  0  0  0  0  0
  183.2090  178.2900  142.1610 C   0  0  0  0  0  1  0  0  0  0  0  0
  185.9390  179.3940  144.6560 C   0  0  0  0  0  2  0  0  0  0  0  0
  190.0060  173.4400  142.8360 C   0  0  0  0  0  0  0  0  0  0  0  0
  190.2950  172.4800  139.8950 C   0  0  0  0  0  3  0  0  0  0  0  0
  187.3190  175.9040  142.4300 N   0  0  0  0  0  0  0  0  0  0  0  0
  186.1590  178.0590  145.3460 C   0  0  0  0  0  2  0  0  0  0  0  0
  188.9890  174.1930  142.2110 C   0  0  0  0  0  0  0  0  0  0  0  0
  191.4950  171.6930  143.4410 C   0  0  0  0  0  2  0  0  0  0  0  0
  186.9300  177.0850  144.4860 C   0  0  0  0  0  0  0  0  0  0  0  0
  184.6210  179.3940  143.8860 C   0  0  0  0  0  2  0  0  0  0  0  0
  190.3580  171.6130  141.1180 C   0  0  2  0  0  3  0  0  0  0  0  0
  188.6310  175.3410  144.3520 C   0  0  0  0  0  0  0  0  0  0  0  0
  185.6110  177.6340  142.3180 C   0  0  2  0  0  3  0  0  0  0  0  0
  188.3050  175.1530  142.9880 C   0  0  0  0  0  0  0  0  0  0  0  0
  189.2070  175.7660  147.1270 C   0  0  0  0  0  3  0  0  0  0  0  0
  189.4560  173.5150  139.7950 C   0  0  0  0  0  3  0  0  0  0  0  0
  188.2810  176.5070  146.5200 C   0  0  0  0  0  3  0  0  0  0  0  0
  188.4390  173.8440  140.8490 C   0  0  0  0  0  2  0  0  0  0  0  0
  190.9620  172.4670  142.2310 C   0  0  1  0  0  3  0  0  0  0  0  0
  189.9600  174.6700  146.4250 C   0  0  0  0  0  3  0  0  0  0  0  0
  190.2840  173.5900  144.1760 C   0  0  1  0  0  3  0  0  0  0  0  0
  191.2380  170.4070  140.8110 C   0  0  0  0  0  2  0  0  0  0  0  0
  192.1110  170.6860  139.5990 C   0  0  0  0  0  2  0  0  0  0  0  0
  189.6910  169.6660  137.8450 O   0  0  0  0  0  0  0  0  0  0  0  0
  191.8380  170.3020  137.1850 C   0  0  0  0  0  2  0  0  0  0  0  0
  191.8660  169.6410  138.5250 C   0  0  2  0  0  3  0  0  0  0  0  0
  190.4510  169.9850  136.7120 C   0  0  0  0  0  2  0  0  0  0  0  0
  190.5500  169.0410  138.7000 N   0  0  0  0  0  2  0  0  0  0  0  0
  1 26  2  0  0  0  0
  3  7  1  6  0  0  0
  3 16  1  0  0  0  0
  4 23  1  0  0  0  0
  5 15  1  0  0  0  0
  8 12  1  0  0  0  0
  9 27  1  0  0  0  0
 10 17  1  0  0  0  0
 11 20  1  0  0  0  0
 11  5  2  0  0  0  0
 13  9  2  0  0  0  0
 13 20  1  0  0  0  0
 14  2  1  0  0  0  0
 15  4  2  0  0  0  0
 15 12  1  0  0  0  0
 16  8  1  0  0  0  0
 17 28  1  6  0  0  0
 17 25  1  0  0  0  0
 18  1  1  0  0  0  0
 18  4  1  0  0  0  0
 19  6  1  1  0  0  0
 19  3  1  0  0  0  0
 19  5  1  0  0  0  0
 20 18  2  0  0  0  0
 22 10  2  0  0  0  0
 22 24  1  0  0  0  0
 23 21  2  0  0  0  0
 24 13  1  0  0  0  0
 25  9  1  0  0  0  0
 25 14  1  1  0  0  0
 26 21  1  0  0  0  0
 27  2  1  1  0  0  0
 27  1  1  0  0  0  0
 29 28  1  0  0  0  0
 30 34  1  0  0  0  0
 31 32  1  0  0  0  0
 32 34  1  0  0  0  0
 32 29  1  1  0  0  0
 33 31  1  0  0  0  0
 33 30  1  0  0  0  0
M  END
>  <MODEL>
4

>  <REMARK>
 VINA RESULT:      -8.6      4.351      8.216
  Name = 
  3 active torsions:
  status: ('A' for Active; 'I' for Inactive)
    1  A    between atoms: C_17  and  C_28
    2  A    between atoms: C_28  and  C_29
    3  A    between atoms: C_29  and  C_32
                            x       y       z     vdW  Elec       q    Type
                         _______ _______ _______ _____ _____    ______ ____

>  <TORSDO>
F 3

$$$$
=
 OpenBabel11112418003D

 34 40  0  0  1  0  0  0  0  0999 V2000
  189.3060  175.6020  142.6430 C   0  0  0  0  0  0  0  0  0  0  0  0
  191.4560  174.5140  141.7380 C   0  0  0  0  0  2  0  0  0  0  0  0
  185.9500  179.1210  147.1110 C   0  0  2  0  0  3  0  0  0  0  0  0
  187.3610  176.6880  143.6580 C   0  0  0  0  0  0  0  0  0  0  0  0
  187.4810  177.3970  145.9870 C   0  0  0  0  0  0  0  0  0  0  0  0
  186.4070  176.9390  148.0750 O   0  0  0  0  0  1  0  0  0  0  0  0
  185.9600  179.9890  148.3530 C   0  0  0  0  0  1  0  0  0  0  0  0
  184.4410  177.5750  145.7520 C   0  0  0  0  0  2  0  0  0  0  0  0
  191.2570  175.1660  144.0100 C   0  0  0  0  0  0  0  0  0  0  0  0
  193.4160  174.6230  146.1780 C   0  0  0  0  0  3  0  0  0  0  0  0
  188.7390  176.8860  146.0490 N   0  0  0  0  0  0  0  0  0  0  0  0
  185.3690  177.8900  144.5920 C   0  0  0  0  0  2  0  0  0  0  0  0
  190.6640  175.7810  145.1330 C   0  0  0  0  0  0  0  0  0  0  0  0
  192.8280  174.3960  142.4050 C   0  0  0  0  0  2  0  0  0  0  0  0
  186.7440  177.2910  144.7740 C   0  0  0  0  0  0  0  0  0  0  0  0
  184.5180  178.6660  146.8170 C   0  0  0  0  0  2  0  0  0  0  0  0
  193.6730  175.0480  144.7630 C   0  0  2  0  0  3  0  0  0  0  0  0
  188.6680  176.1830  143.7620 C   0  0  0  0  0  0  0  0  0  0  0  0
  186.9320  177.9590  147.2750 C   0  0  2  0  0  3  0  0  0  0  0  0
  189.3530  176.2870  144.9950 C   0  0  0  0  0  0  0  0  0  0  0  0
  187.2180  176.0400  141.2930 C   0  0  0  0  0  3  0  0  0  0  0  0
  192.3840  175.0880  146.8880 C   0  0  0  0  0  3  0  0  0  0  0  0
  186.6450  176.5770  142.3700 C   0  0  0  0  0  3  0  0  0  0  0  0
  191.4490  176.1430  146.3710 C   0  0  0  0  0  2  0  0  0  0  0  0
  192.5570  174.4410  143.9120 C   0  0  1  0  0  3  0  0  0  0  0  0
  188.6300  175.5240  141.2960 C   0  0  0  0  0  2  0  0  0  0  0  0
  190.6060  175.1130  142.7980 C   0  0  0  0  0  0  0  0  0  0  0  0
  195.0380  174.5190  144.3390 C   0  0  0  0  0  2  0  0  0  0  0  0
  195.5840  173.5660  145.3890 C   0  0  0  0  0  2  0  0  0  0  0  0
  196.8160  170.7980  146.2780 O   0  0  0  0  0  0  0  0  0  0  0  0
  194.7650  171.2510  145.2600 C   0  0  0  0  0  2  0  0  0  0  0  0
  195.8180  172.1950  144.7800 C   0  0  2  0  0  3  0  0  0  0  0  0
  195.5800  170.2130  145.9730 C   0  0  0  0  0  2  0  0  0  0  0  0
  197.0860  171.6490  145.2470 N   0  0  0  0  0  2  0  0  0  0  0  0
  1 27  2  0  0  0  0
  1 18  1  0  0  0  0
  2 14  1  0  0  0  0
  2 27  1  0  0  0  0
  3 19  1  0  0  0  0
  3  7  1  1  0  0  0
  4 18  2  0  0  0  0
  4 15  1  0  0  0  0
  5 11  1  0  0  0  0
  5 19  1  0  0  0  0
  8 16  1  0  0  0  0
  9 13  2  0  0  0  0
 10 22  2  0  0  0  0
 12 15  1  0  0  0  0
 12  8  1  0  0  0  0
 13 24  1  0  0  0  0
 15  5  2  0  0  0  0
 16  3  1  0  0  0  0
 17 28  1  6  0  0  0
 17 10  1  0  0  0  0
 18 20  1  0  0  0  0
 19  6  1  6  0  0  0
 20 13  1  0  0  0  0
 20 11  2  0  0  0  0
 21 26  1  0  0  0  0
 21 23  2  0  0  0  0
 23  4  1  0  0  0  0
 24 22  1  0  0  0  0
 25 14  1  6  0  0  0
 25  9  1  0  0  0  0
 25 17  1  0  0  0  0
 26  1  1  0  0  0  0
 27  9  1  0  0  0  0
 28 29  1  0  0  0  0
 31 33  1  0  0  0  0
 32 34  1  0  0  0  0
 32 31  1  0  0  0  0
 32 29  1  1  0  0  0
 33 30  1  0  0  0  0
 34 30  1  0  0  0  0
M  END
>  <MODEL>
5

>  <REMARK>
 VINA RESULT:      -8.5      3.184      9.536
  Name = 
  3 active torsions:
  status: ('A' for Active; 'I' for Inactive)
    1  A    between atoms: C_17  and  C_28
    2  A    between atoms: C_28  and  C_29
    3  A    between atoms: C_29  and  C_32
                            x       y       z     vdW  Elec       q    Type
                         _______ _______ _______ _____ _____    ______ ____

>  <TORSDO>
F 3

$$$$
=
 OpenBabel11112418003D

 34 40  0  0  1  0  0  0  0  0999 V2000
  193.5300  175.4250  145.4130 C   0  0  0  0  0  0  0  0  0  0  0  0
  192.1870  176.1670  147.4790 C   0  0  0  0  0  2  0  0  0  0  0  0
  194.3870  174.7950  138.8950 C   0  0  2  0  0  3  0  0  0  0  0  0
  194.6600  174.7760  143.3400 C   0  0  0  0  0  0  0  0  0  0  0  0
  193.3920  174.7460  141.2590 C   0  0  0  0  0  0  0  0  0  0  0  0
  192.7040  173.1840  139.5810 O   0  0  0  0  0  1  0  0  0  0  0  0
  193.9220  175.1110  137.4880 C   0  0  0  0  0  1  0  0  0  0  0  0
  195.7440  173.0920  140.2270 C   0  0  0  0  0  2  0  0  0  0  0  0
  191.1590  175.9160  145.3560 C   0  0  0  0  0  0  0  0  0  0  0  0
  188.1110  176.2370  144.8420 C   0  0  0  0  0  3  0  0  0  0  0  0
  192.2870  175.1130  141.9590 N   0  0  0  0  0  0  0  0  0  0  0  0
  195.9130  174.2070  141.2450 C   0  0  0  0  0  2  0  0  0  0  0  0
  191.1030  175.7100  143.9610 C   0  0  0  0  0  0  0  0  0  0  0  0
  190.7670  176.7330  147.5500 C   0  0  0  0  0  2  0  0  0  0  0  0
  194.6210  174.5480  141.9490 C   0  0  0  0  0  0  0  0  0  0  0  0
  195.4180  173.6630  138.8500 C   0  0  0  0  0  2  0  0  0  0  0  0
  188.9500  177.0940  145.7430 C   0  0  2  0  0  3  0  0  0  0  0  0
  193.4960  175.1660  144.0240 C   0  0  2  0  0  3  0  0  0  0  0  0
  193.1850  174.4810  139.7880 C   0  0  2  0  0  3  0  0  0  0  0  0
  192.2910  175.3260  143.3010 C   0  0  0  0  0  0  0  0  0  0  0  0
  195.9870  174.8470  145.4050 C   0  0  0  0  0  3  0  0  0  0  0  0
  188.5670  175.7630  143.6790 C   0  0  0  0  0  3  0  0  0  0  0  0
  195.9180  174.6060  144.0960 C   0  0  0  0  0  3  0  0  0  0  0  0
  189.9150  176.1210  143.1250 C   0  0  0  0  0  2  0  0  0  0  0  0
  190.0470  176.1940  146.3110 C   0  0  1  0  0  3  0  0  0  0  0  0
  194.8080  175.3210  146.2080 C   0  0  0  0  0  3  0  0  0  0  0  0
  192.3450  175.8100  146.0460 C   0  0  0  0  0  0  0  0  0  0  0  0
  188.0620  177.6460  146.8520 C   0  0  0  0  0  2  0  0  0  0  0  0
  186.7780  176.8400  146.9490 C   0  0  0  0  0  2  0  0  0  0  0  0
  185.4150  179.4530  145.8120 O   0  0  0  0  0  0  0  0  0  0  0  0
  184.4430  177.4260  146.4420 C   0  0  0  0  0  2  0  0  0  0  0  0
  185.6160  177.7480  147.3100 C   0  0  2  0  0  3  0  0  0  0  0  0
  184.2200  178.7250  145.7280 C   0  0  0  0  0  2  0  0  0  0  0  0
  185.9550  179.1360  147.0230 N   0  0  0  0  0  2  0  0  0  0  0  0
  1 27  2  0  0  0  0
  1 26  1  0  0  0  0
  2 14  1  0  0  0  0
  3  7  1  6  0  0  0
  3 19  1  0  0  0  0
  4 18  1  0  0  0  0
  4 23  2  0  0  0  0
  5 15  2  0  0  0  0
  5 11  1  0  0  0  0
  8 12  1  0  0  0  0
  9 27  1  0  0  0  0
  9 25  1  0  0  0  0
 10 17  1  0  0  0  0
 11 20  2  0  0  0  0
 12 15  1  0  0  0  0
 13  9  2  0  0  0  0
 15  4  1  0  0  0  0
 16  3  1  0  0  0  0
 16  8  1  0  0  0  0
 17 25  1  0  0  0  0
 17 28  1  1  0  0  0
 18 20  1  6  0  0  0
 18  1  1  0  0  0  0
 19  6  1  1  0  0  0
 19  5  1  0  0  0  0
 20 13  1  0  0  0  0
 21 26  2  0  0  0  0
 22 10  2  0  0  0  0
 23 21  1  0  0  0  0
 24 22  1  0  0  0  0
 24 13  1  0  0  0  0
 25 14  1  1  0  0  0
 27  2  1  0  0  0  0
 28 29  1  0  0  0  0
 30 34  1  0  0  0  0
 31 32  1  0  0  0  0
 32 29  1  6  0  0  0
 33 30  1  0  0  0  0
 33 31  1  0  0  0  0
 34 32  1  0  0  0  0
M  END
>  <MODEL>
6

>  <REMARK>
 VINA RESULT:      -8.5      2.766      4.293
  Name = 
  3 active torsions:
  status: ('A' for Active; 'I' for Inactive)
    1  A    between atoms: C_17  and  C_28
    2  A    between atoms: C_28  and  C_29
    3  A    between atoms: C_29  and  C_32
                            x       y       z     vdW  Elec       q    Type
                         _______ _______ _______ _____ _____    ______ ____

>  <TORSDO>
F 3

$$$$
=
 OpenBabel11112418003D

 34 40  0  0  1  0  0  0  0  0999 V2000
  192.2120  176.1440  145.5730 C   0  0  0  0  0  0  0  0  0  0  0  0
  190.0740  176.7200  146.8850 C   0  0  0  0  0  2  0  0  0  0  0  0
  195.5680  175.1730  139.9700 C   0  0  2  0  0  3  0  0  0  0  0  0
  194.1420  175.6070  144.1660 C   0  0  0  0  0  0  0  0  0  0  0  0
  193.7840  175.0930  141.8100 C   0  0  0  0  0  0  0  0  0  0  0  0
  194.0900  173.2730  140.2880 O   0  0  0  0  0  1  0  0  0  0  0  0
  195.6170  175.2450  138.4570 C   0  0  0  0  0  1  0  0  0  0  0  0
  196.6190  173.9670  141.9580 C   0  0  0  0  0  2  0  0  0  0  0  0
  189.9910  176.0470  144.6130 C   0  0  0  0  0  0  0  0  0  0  0  0
  187.3610  175.5830  143.0230 C   0  0  0  0  0  3  0  0  0  0  0  0
  192.4480  175.2450  142.0090 N   0  0  0  0  0  0  0  0  0  0  0  0
  196.1770  175.1740  142.7670 C   0  0  0  0  0  2  0  0  0  0  0  0
  190.5060  175.7120  143.3420 C   0  0  0  0  0  0  0  0  0  0  0  0
  188.6530  176.9340  146.3610 C   0  0  0  0  0  2  0  0  0  0  0  0
  194.6750  175.2560  142.9080 C   0  0  0  0  0  0  0  0  0  0  0  0
  196.7350  174.3220  140.4780 C   0  0  0  0  0  2  0  0  0  0  0  0
  187.6190  176.6920  144.0010 C   0  0  2  0  0  3  0  0  0  0  0  0
  192.7550  175.7650  144.3250 C   0  0  2  0  0  3  0  0  0  0  0  0
  194.2010  174.6600  140.4270 C   0  0  2  0  0  3  0  0  0  0  0  0
  191.9050  175.5680  143.2120 C   0  0  0  0  0  0  0  0  0  0  0  0
  194.5520  176.1720  146.5200 C   0  0  0  0  0  3  0  0  0  0  0  0
  188.3030  175.1330  142.1890 C   0  0  0  0  0  3  0  0  0  0  0  0
  195.0290  175.8090  145.3300 C   0  0  0  0  0  3  0  0  0  0  0  0
  189.6660  175.7530  142.0870 C   0  0  0  0  0  2  0  0  0  0  0  0
  188.5700  176.1320  145.0580 C   0  0  1  0  0  3  0  0  0  0  0  0
  193.0900  176.4180  146.7700 C   0  0  0  0  0  3  0  0  0  0  0  0
  190.8260  176.2880  145.6800 C   0  0  0  0  0  0  0  0  0  0  0  0
  186.2910  177.1090  144.6200 C   0  0  0  0  0  2  0  0  0  0  0  0
  185.7970  178.4000  143.9900 C   0  0  0  0  0  2  0  0  0  0  0  0
  183.7690  178.2450  146.4060 O   0  0  0  0  0  0  0  0  0  0  0  0
  185.9530  179.0670  146.3530 C   0  0  0  0  0  2  0  0  0  0  0  0
  185.2520  179.3300  145.0600 C   0  0  2  0  0  3  0  0  0  0  0  0
  184.8190  178.6510  147.2410 C   0  0  0  0  0  2  0  0  0  0  0  0
  183.8440  179.0440  145.3040 N   0  0  0  0  0  2  0  0  0  0  0  0
  1 27  1  0  0  0  0
  1 26  2  0  0  0  0
  3  7  1  6  0  0  0
  3 19  1  0  0  0  0
  3 16  1  0  0  0  0
  4 18  1  0  0  0  0
  4 23  1  0  0  0  0
  5 11  2  0  0  0  0
  5 15  1  0  0  0  0
  8 12  1  0  0  0  0
  9 25  1  0  0  0  0
  9 27  2  0  0  0  0
 10 17  1  0  0  0  0
 11 20  1  0  0  0  0
 12 15  1  0  0  0  0
 13  9  1  0  0  0  0
 14  2  1  0  0  0  0
 15  4  2  0  0  0  0
 16  8  1  0  0  0  0
 17 28  1  1  0  0  0
 17 25  1  0  0  0  0
 18 20  1  6  0  0  0
 18  1  1  0  0  0  0
 19  6  1  1  0  0  0
 19  5  1  0  0  0  0
 20 13  2  0  0  0  0
 21 26  1  0  0  0  0
 22 10  2  0  0  0  0
 23 21  2  0  0  0  0
 24 22  1  0  0  0  0
 24 13  1  0  0  0  0
 25 14  1  1  0  0  0
 27  2  1  0  0  0  0
 29 28  1  0  0  0  0
 30 33  1  0  0  0  0
 31 33  1  0  0  0  0
 32 29  1  6  0  0  0
 32 34  1  0  0  0  0
 32 31  1  0  0  0  0
 34 30  1  0  0  0  0
M  END
>  <MODEL>
7

>  <REMARK>
 VINA RESULT:      -8.5      2.366      3.244
  Name = 
  3 active torsions:
  status: ('A' for Active; 'I' for Inactive)
    1  A    between atoms: C_17  and  C_28
    2  A    between atoms: C_28  and  C_29
    3  A    between atoms: C_29  and  C_32
                            x       y       z     vdW  Elec       q    Type
                         _______ _______ _______ _____ _____    ______ ____

>  <TORSDO>
F 3

$$$$
=
 OpenBabel11112418003D

 34 40  0  0  1  0  0  0  0  0999 V2000
  191.3240  174.9050  145.0840 C   0  0  0  0  0  0  0  0  0  0  0  0
  190.0590  176.6830  146.4490 C   0  0  0  0  0  2  0  0  0  0  0  0
  192.5720  171.5860  139.5140 C   0  0  2  0  0  3  0  0  0  0  0  0
  192.4120  173.2550  143.6390 C   0  0  0  0  0  0  0  0  0  0  0  0
  191.3880  172.6970  141.4990 C   0  0  0  0  0  0  0  0  0  0  0  0
  190.4450  170.8020  140.3830 O   0  0  0  0  0  1  0  0  0  0  0  0
  192.3500  171.4200  138.0240 C   0  0  0  0  0  1  0  0  0  0  0  0
  193.2590  170.2850  141.5990 C   0  0  0  0  0  2  0  0  0  0  0  0
  189.2060  175.8580  144.3960 C   0  0  0  0  0  0  0  0  0  0  0  0
  186.4360  176.6320  143.2180 C   0  0  0  0  0  3  0  0  0  0  0  0
  190.3720  173.5500  141.7930 N   0  0  0  0  0  0  0  0  0  0  0  0
  193.6420  171.6400  142.1690 C   0  0  0  0  0  2  0  0  0  0  0  0
  189.2240  175.1380  143.1830 C   0  0  0  0  0  0  0  0  0  0  0  0
  188.8590  177.5370  146.0370 C   0  0  0  0  0  2  0  0  0  0  0  0
  192.4400  172.5130  142.4400 C   0  0  0  0  0  0  0  0  0  0  0  0
  193.2390  170.3260  140.0740 C   0  0  0  0  0  2  0  0  0  0  0  0
  187.3970  177.5600  143.9020 C   0  0  2  0  0  3  0  0  0  0  0  0
  191.3480  174.1360  143.8990 C   0  0  2  0  0  3  0  0  0  0  0  0
  191.2520  171.9300  140.2070 C   0  0  2  0  0  3  0  0  0  0  0  0
  190.3110  174.2670  142.9460 C   0  0  0  0  0  0  0  0  0  0  0  0
  193.5050  173.8300  145.7620 C   0  0  0  0  0  3  0  0  0  0  0  0
  186.8460  175.6490  142.4110 C   0  0  0  0  0  3  0  0  0  0  0  0
  193.4930  173.1170  144.6360 C   0  0  0  0  0  3  0  0  0  0  0  0
  188.2850  175.4440  142.0400 C   0  0  0  0  0  2  0  0  0  0  0  0
  188.1340  176.7320  144.9540 C   0  0  1  0  0  3  0  0  0  0  0  0
  192.4390  174.8350  146.0980 C   0  0  0  0  0  3  0  0  0  0  0  0
  190.2430  175.7650  145.2970 C   0  0  0  0  0  0  0  0  0  0  0  0
  186.6020  178.6880  144.5480 C   0  0  0  0  0  2  0  0  0  0  0  0
  185.1210  178.3500  144.5630 C   0  0  0  0  0  2  0  0  0  0  0  0
  185.5910  176.7910  147.2690 O   0  0  0  0  0  0  0  0  0  0  0  0
  185.5690  179.0900  146.8650 C   0  0  0  0  0  2  0  0  0  0  0  0
  184.5890  178.3840  145.9850 C   0  0  2  0  0  3  0  0  0  0  0  0
  185.9240  178.0210  147.8540 C   0  0  0  0  0  2  0  0  0  0  0  0
  184.4820  177.0310  146.5140 N   0  0  0  0  0  2  0  0  0  0  0  0
  1 27  1  0  0  0  0
  1 26  2  0  0  0  0
  3  7  1  6  0  0  0
  3 16  1  0  0  0  0
  3 19  1  0  0  0  0
  4 18  1  0  0  0  0
  4 23  1  0  0  0  0
  5 11  2  0  0  0  0
  5 15  1  0  0  0  0
  8 12  1  0  0  0  0
  9 25  1  0  0  0  0
  9 27  2  0  0  0  0
 10 17  1  0  0  0  0
 11 20  1  0  0  0  0
 12 15  1  0  0  0  0
 13  9  1  0  0  0  0
 14  2  1  0  0  0  0
 15  4  2  0  0  0  0
 16  8  1  0  0  0  0
 17 28  1  1  0  0  0
 17 25  1  0  0  0  0
 18 20  1  6  0  0  0
 18  1  1  0  0  0  0
 19  6  1  1  0  0  0
 19  5  1  0  0  0  0
 20 13  2  0  0  0  0
 21 26  1  0  0  0  0
 22 10  2  0  0  0  0
 23 21  2  0  0  0  0
 24 22  1  0  0  0  0
 24 13  1  0  0  0  0
 25 14  1  1  0  0  0
 27  2  1  0  0  0  0
 28 29  1  0  0  0  0
 30 33  1  0  0  0  0
 31 33  1  0  0  0  0
 32 29  1  6  0  0  0
 32 34  1  0  0  0  0
 32 31  1  0  0  0  0
 34 30  1  0  0  0  0
M  END
>  <MODEL>
8

>  <REMARK>
 VINA RESULT:      -8.5      3.480      4.290
  Name = 
  3 active torsions:
  status: ('A' for Active; 'I' for Inactive)
    1  A    between atoms: C_17  and  C_28
    2  A    between atoms: C_28  and  C_29
    3  A    between atoms: C_29  and  C_32
                            x       y       z     vdW  Elec       q    Type
                         _______ _______ _______ _____ _____    ______ ____

>  <TORSDO>
F 3

$$$$
=
 OpenBabel11112418003D

 34 40  0  0  1  0  0  0  0  0999 V2000
  192.4040  175.8390  144.8690 C   0  0  0  0  0  0  0  0  0  0  0  0
  190.7360  177.7560  144.4620 C   0  0  0  0  0  2  0  0  0  0  0  0
  194.9910  169.9250  143.4750 C   0  0  2  0  0  3  0  0  0  0  0  0
  193.9020  173.9180  145.1180 C   0  0  0  0  0  0  0  0  0  0  0  0
  193.3530  171.8330  143.9820 C   0  0  0  0  0  0  0  0  0  0  0  0
  192.8300  169.5620  144.5210 O   0  0  0  0  0  1  0  0  0  0  0  0
  195.0660  168.7260  142.5520 C   0  0  0  0  0  1  0  0  0  0  0  0
  195.4070  170.6270  145.8930 C   0  0  0  0  0  2  0  0  0  0  0  0
  190.3650  175.5830  143.5880 C   0  0  0  0  0  0  0  0  0  0  0  0
  187.7980  174.7300  142.0590 C   0  0  0  0  0  3  0  0  0  0  0  0
  192.2200  172.4180  143.5140 N   0  0  0  0  0  0  0  0  0  0  0  0
  195.5400  172.0330  145.3330 C   0  0  0  0  0  2  0  0  0  0  0  0
  190.6800  174.2450  143.2680 C   0  0  0  0  0  0  0  0  0  0  0  0
  189.5520  177.8110  143.4950 C   0  0  0  0  0  2  0  0  0  0  0  0
  194.2260  172.5770  144.8240 C   0  0  0  0  0  0  0  0  0  0  0  0
  195.6660  169.5860  144.8070 C   0  0  0  0  0  2  0  0  0  0  0  0
  188.5160  176.0390  141.9180 C   0  0  2  0  0  3  0  0  0  0  0  0
  192.7250  174.4880  144.6050 C   0  0  0  0  0  0  0  0  0  0  0  0
  193.5370  170.3770  143.6330 C   0  0  2  0  0  3  0  0  0  0  0  0
  191.8740  173.7030  143.7920 C   0  0  0  0  0  0  0  0  0  0  0  0
  194.5200  176.0160  146.2350 C   0  0  0  0  0  3  0  0  0  0  0  0
  188.4460  173.5750  142.2310 C   0  0  0  0  0  3  0  0  0  0  0  0
  194.7890  174.7380  145.9690 C   0  0  0  0  0  3  0  0  0  0  0  0
  189.9430  173.4680  142.2040 C   0  0  0  0  0  2  0  0  0  0  0  0
  189.1260  176.3550  143.2840 C   0  0  1  0  0  3  0  0  0  0  0  0
  193.3140  176.7250  145.6840 C   0  0  0  0  0  3  0  0  0  0  0  0
  191.2220  176.3580  144.3360 C   0  0  1  0  0  3  0  0  0  0  0  0
  187.5060  177.1040  141.5080 C   0  0  0  0  0  2  0  0  0  0  0  0
  186.2140  176.9350  142.2900 C   0  0  0  0  0  2  0  0  0  0  0  0
  184.1530  178.4260  144.1620 O   0  0  0  0  0  0  0  0  0  0  0  0
  186.0990  179.2340  143.1560 C   0  0  0  0  0  2  0  0  0  0  0  0
  185.4220  178.2310  142.2800 C   0  0  2  0  0  3  0  0  0  0  0  0
  185.0430  179.5080  144.1860 C   0  0  0  0  0  2  0  0  0  0  0  0
  184.1040  178.0180  142.8630 N   0  0  0  0  0  2  0  0  0  0  0  0
  1 26  2  0  0  0  0
  3  7  1  6  0  0  0
  3 19  1  0  0  0  0
  3 16  1  0  0  0  0
  4 23  1  0  0  0  0
  5 15  1  0  0  0  0
  9 27  1  0  0  0  0
 10 22  2  0  0  0  0
 11 20  1  0  0  0  0
 11  5  2  0  0  0  0
 12  8  1  0  0  0  0
 13  9  2  0  0  0  0
 13 20  1  0  0  0  0
 14  2  1  0  0  0  0
 15  4  2  0  0  0  0
 15 12  1  0  0  0  0
 16  8  1  0  0  0  0
 17 28  1  1  0  0  0
 17 10  1  0  0  0  0
 17 25  1  0  0  0  0
 18  1  1  0  0  0  0
 18  4  1  0  0  0  0
 19  5  1  0  0  0  0
 19  6  1  1  0  0  0
 20 18  2  0  0  0  0
 23 21  2  0  0  0  0
 24 22  1  0  0  0  0
 24 13  1  0  0  0  0
 25 14  1  6  0  0  0
 25  9  1  0  0  0  0
 26 21  1  0  0  0  0
 27  2  1  6  0  0  0
 27  1  1  0  0  0  0
 28 29  1  0  0  0  0
 30 33  1  0  0  0  0
 31 33  1  0  0  0  0
 32 29  1  1  0  0  0
 32 34  1  0  0  0  0
 32 31  1  0  0  0  0
 34 30  1  0  0  0  0
M  END
>  <MODEL>
9

>  <REMARK>
 VINA RESULT:      -8.4      2.885      4.132
  Name = 
  3 active torsions:
  status: ('A' for Active; 'I' for Inactive)
    1  A    between atoms: C_17  and  C_28
    2  A    between atoms: C_28  and  C_29
    3  A    between atoms: C_29  and  C_32
                            x       y       z     vdW  Elec       q    Type
                         _______ _______ _______ _____ _____    ______ ____

>  <TORSDO>
F 3

$$$$
