=
 OpenBabel11112416223D

 30 35  0  0  1  0  0  0  0  0999 V2000
  187.5300  176.4470  145.3540 C   0  0  0  0  0  0  0  0  0  0  0  0
  185.7020  177.5880  146.6490 C   0  0  0  0  0  0  0  0  0  0  0  0
  185.9560  177.8930  141.7270 N   0  0  0  0  0  2  0  0  0  0  0  0
  188.1240  176.1520  144.0940 C   0  0  0  0  0  0  0  0  0  0  0  0
  188.0990  175.8030  146.5900 C   0  0  0  0  0  2  0  0  0  0  0  0
  191.2730  174.4560  145.2320 O   0  0  0  0  0  1  0  0  0  0  0  0
  188.4170  173.9850  142.0920 C   0  0  1  0  0  3  0  0  0  0  0  0
  189.9030  174.7270  145.2930 C   0  0  1  0  0  3  0  0  0  0  0  0
  187.7400  174.9870  141.1550 C   0  0  2  0  0  3  0  0  0  0  0  0
  186.8970  177.3020  140.8370 C   0  0  0  0  0  0  0  0  0  0  0  0
  189.6040  175.6030  146.5030 C   0  0  2  0  0  3  0  0  0  0  0  0
  189.4680  175.4290  144.0030 C   0  0  1  0  0  3  0  0  0  0  0  0
  184.5530  178.3850  146.6470 C   0  0  0  0  0  3  0  0  0  0  0  0
  188.2170  174.7110  139.8090 N   0  0  0  0  0  2  0  0  0  0  0  0
  188.7540  172.8130  141.2000 C   0  0  0  0  0  2  0  0  0  0  0  0
  186.1750  177.1490  147.8800 O   0  0  0  0  0  1  0  0  0  0  0  0
  186.3990  177.4660  143.0060 C   0  0  0  0  0  0  0  0  0  0  0  0
  184.0240  178.8710  145.4540 C   0  0  0  0  0  3  0  0  0  0  0  0
  186.3500  177.2570  145.4260 C   0  0  0  0  0  0  0  0  0  0  0  0
  187.5290  176.6840  142.9440 C   0  0  0  0  0  0  0  0  0  0  0  0
  186.8560  177.4880  139.5930 O   0  0  0  0  0  0  0  0  0  0  0  0
  187.9340  176.4620  141.5220 C   0  0  1  0  0  3  0  0  0  0  0  0
  188.4630  173.2750  139.7820 C   0  0  0  0  0  2  0  0  0  0  0  0
  190.7390  175.0740  141.8500 C   0  0  0  0  0  1  0  0  0  0  0  0
  184.6410  178.5670  144.2450 C   0  0  0  0  0  3  0  0  0  0  0  0
  185.7910  177.7720  144.2200 C   0  0  0  0  0  0  0  0  0  0  0  0
  189.6890  174.4990  142.7940 C   0  0  2  0  0  3  0  0  0  0  0  0
  190.0940  174.9340  147.7790 C   0  0  0  0  0  2  0  0  0  0  0  0
  191.3150  177.0600  148.1130 C   0  0  0  0  0  1  0  0  0  0  0  0
  191.4030  175.5530  148.2310 C   0  0  0  0  0  2  0  0  0  0  0  0
  1 19  1  0  0  0  0
  1  5  1  0  0  0  0
  2 16  1  0  0  0  0
  3 17  1  0  0  0  0
  4  1  2  0  0  0  0
  7 15  1  6  0  0  0
  7 27  1  0  0  0  0
  8  6  1  6  0  0  0
  8 11  1  0  0  0  0
  9 14  1  6  0  0  0
  9 22  1  0  0  0  0
  9  7  1  0  0  0  0
 10  3  1  0  0  0  0
 11  5  1  0  0  0  0
 11 28  1  1  0  0  0
 12  4  1  1  0  0  0
 12  8  1  0  0  0  0
 13  2  1  0  0  0  0
 17 26  1  0  0  0  0
 18 13  2  0  0  0  0
 19  2  2  0  0  0  0
 20 17  2  0  0  0  0
 20  4  1  0  0  0  0
 21 10  2  0  0  0  0
 22 10  1  6  0  0  0
 22 20  1  0  0  0  0
 23 14  1  0  0  0  0
 23 15  1  0  0  0  0
 25 18  1  0  0  0  0
 26 25  2  0  0  0  0
 26 19  1  0  0  0  0
 27 24  1  6  0  0  0
 27 12  1  0  0  0  0
 28 30  1  0  0  0  0
 29 30  1  0  0  0  0
M  END
>  <MODEL>
1

>  <REMARK>
 VINA RESULT:      -9.4      0.000      0.000
  Name = 
  2 active torsions:
  status: ('A' for Active; 'I' for Inactive)
    1  A    between atoms: C_11  and  C_28
    2  A    between atoms: C_28  and  C_30
                            x       y       z     vdW  Elec       q    Type
                         _______ _______ _______ _____ _____    ______ ____

>  <TORSDO>
F 2

$$$$
=
 OpenBabel11112416223D

 30 35  0  0  1  0  0  0  0  0999 V2000
  186.3750  177.4400  143.8520 C   0  0  0  0  0  0  0  0  0  0  0  0
  184.6150  178.5710  145.2440 C   0  0  0  0  0  0  0  0  0  0  0  0
  188.2820  175.9930  147.3160 N   0  0  0  0  0  2  0  0  0  0  0  0
  187.5570  176.6470  143.7970 C   0  0  0  0  0  0  0  0  0  0  0  0
  185.8200  178.0000  142.5700 C   0  0  0  0  0  2  0  0  0  0  0  0
  187.7860  176.0630  140.0960 O   0  0  0  0  0  1  0  0  0  0  0  0
  190.4780  176.8260  143.3230 C   0  0  1  0  0  3  0  0  0  0  0  0
  187.5420  176.8450  141.2300 C   0  0  1  0  0  3  0  0  0  0  0  0
  190.5740  176.2620  144.7410 C   0  0  2  0  0  3  0  0  0  0  0  0
  189.3650  175.3120  146.6920 C   0  0  0  0  0  0  0  0  0  0  0  0
  186.0440  177.0740  141.3840 C   0  0  2  0  0  3  0  0  0  0  0  0
  188.1060  176.1360  142.4640 C   0  0  1  0  0  3  0  0  0  0  0  0
  184.0970  178.8660  146.5100 C   0  0  0  0  0  3  0  0  0  0  0  0
  191.8090  175.4970  144.8190 N   0  0  0  0  0  2  0  0  0  0  0  0
  191.9120  176.8900  142.8520 C   0  0  0  0  0  2  0  0  0  0  0  0
  183.9340  179.0730  144.1420 O   0  0  0  0  0  1  0  0  0  0  0  0
  187.5560  176.5290  146.2200 C   0  0  0  0  0  0  0  0  0  0  0  0
  184.7170  178.3920  147.6630 C   0  0  0  0  0  3  0  0  0  0  0  0
  185.7910  177.7810  145.1150 C   0  0  0  0  0  0  0  0  0  0  0  0
  188.1130  176.2090  145.0050 C   0  0  0  0  0  0  0  0  0  0  0  0
  190.2220  174.6650  147.3500 O   0  0  0  0  0  0  0  0  0  0  0  0
  189.3730  175.4260  145.1970 C   0  0  1  0  0  3  0  0  0  0  0  0
  192.7290  176.1690  143.9110 C   0  0  0  0  0  2  0  0  0  0  0  0
  190.0370  174.5230  142.2560 C   0  0  0  0  0  1  0  0  0  0  0  0
  185.8660  177.6120  147.5640 C   0  0  0  0  0  3  0  0  0  0  0  0
  186.4030  177.3030  146.3110 C   0  0  0  0  0  0  0  0  0  0  0  0
  189.6350  175.9910  142.3390 C   0  0  2  0  0  3  0  0  0  0  0  0
  185.4710  177.7210  140.1310 C   0  0  0  0  0  2  0  0  0  0  0  0
  183.0050  177.8560  140.2700 C   0  0  0  0  0  1  0  0  0  0  0  0
  184.2970  178.6130  140.4870 C   0  0  0  0  0  2  0  0  0  0  0  0
  1 19  1  0  0  0  0
  2 13  1  0  0  0  0
  4  1  2  0  0  0  0
  4 20  1  0  0  0  0
  5  1  1  0  0  0  0
  7 15  1  6  0  0  0
  7  9  1  0  0  0  0
  8  6  1  6  0  0  0
  8 11  1  0  0  0  0
  8 12  1  0  0  0  0
  9 14  1  6  0  0  0
  9 22  1  0  0  0  0
 10  3  1  0  0  0  0
 10 21  2  0  0  0  0
 11 28  1  6  0  0  0
 11  5  1  0  0  0  0
 12  4  1  1  0  0  0
 13 18  2  0  0  0  0
 15 23  1  0  0  0  0
 16  2  1  0  0  0  0
 17 26  1  0  0  0  0
 17  3  1  0  0  0  0
 19  2  2  0  0  0  0
 19 26  1  0  0  0  0
 20 17  2  0  0  0  0
 22 20  1  1  0  0  0
 22 10  1  0  0  0  0
 23 14  1  0  0  0  0
 25 18  1  0  0  0  0
 26 25  2  0  0  0  0
 27 24  1  1  0  0  0
 27 12  1  0  0  0  0
 27  7  1  0  0  0  0
 28 30  1  0  0  0  0
 29 30  1  0  0  0  0
M  END
>  <MODEL>
2

>  <REMARK>
 VINA RESULT:      -9.0      2.394      5.431
  Name = 
  2 active torsions:
  status: ('A' for Active; 'I' for Inactive)
    1  A    between atoms: C_11  and  C_28
    2  A    between atoms: C_28  and  C_30
                            x       y       z     vdW  Elec       q    Type
                         _______ _______ _______ _____ _____    ______ ____

>  <TORSDO>
F 2

$$$$
=
 OpenBabel11112416223D

 30 35  0  0  1  0  0  0  0  0999 V2000
  188.4460  175.7140  143.8660 C   0  0  0  0  0  0  0  0  0  0  0  0
  186.2630  176.9580  143.8490 C   0  0  0  0  0  0  0  0  0  0  0  0
  189.5370  177.5400  147.4990 N   0  0  0  0  0  2  0  0  0  0  0  0
  189.6860  175.4440  144.5120 C   0  0  0  0  0  0  0  0  0  0  0  0
  188.1840  175.0950  142.5190 C   0  0  0  0  0  2  0  0  0  0  0  0
  190.9420  172.6240  142.3770 O   0  0  0  0  0  1  0  0  0  0  0  0
  192.5870  176.0340  144.3540 C   0  0  1  0  0  3  0  0  0  0  0  0
  190.3200  173.8590  142.5850 C   0  0  1  0  0  3  0  0  0  0  0  0
  192.3750  176.6180  145.7520 C   0  0  2  0  0  3  0  0  0  0  0  0
  190.8180  176.9410  147.6610 C   0  0  0  0  0  0  0  0  0  0  0  0
  188.8170  173.7200  142.3750 C   0  0  2  0  0  3  0  0  0  0  0  0
  190.6210  174.3450  144.0050 C   0  0  1  0  0  3  0  0  0  0  0  0
  185.4010  177.8700  144.4670 C   0  0  0  0  0  3  0  0  0  0  0  0
  193.6280  176.4710  146.4760 N   0  0  0  0  0  2  0  0  0  0  0  0
  194.0770  176.1480  144.1280 C   0  0  0  0  0  2  0  0  0  0  0  0
  185.8400  176.3850  142.6560 O   0  0  0  0  0  1  0  0  0  0  0  0
  189.0650  176.9840  146.2810 C   0  0  0  0  0  0  0  0  0  0  0  0
  185.7490  178.4790  145.6690 C   0  0  0  0  0  3  0  0  0  0  0  0
  187.5160  176.6390  144.4420 C   0  0  0  0  0  0  0  0  0  0  0  0
  189.9550  176.0980  145.7210 C   0  0  0  0  0  0  0  0  0  0  0  0
  191.5430  177.1620  148.6650 O   0  0  0  0  0  0  0  0  0  0  0  0
  191.2030  176.0220  146.5400 C   0  0  1  0  0  3  0  0  0  0  0  0
  194.6670  176.5750  145.4610 C   0  0  0  0  0  2  0  0  0  0  0  0
  192.7150  173.6050  145.2050 C   0  0  0  0  0  1  0  0  0  0  0  0
  186.9670  178.1810  146.2720 C   0  0  0  0  0  3  0  0  0  0  0  0
  187.8460  177.2720  145.6760 C   0  0  0  0  0  0  0  0  0  0  0  0
  192.1350  174.5710  144.1780 C   0  0  2  0  0  3  0  0  0  0  0  0
  188.5200  173.1760  140.9860 C   0  0  0  0  0  2  0  0  0  0  0  0
  188.2540  173.7330  138.5900 C   0  0  0  0  0  1  0  0  0  0  0  0
  188.6080  174.2850  139.9540 C   0  0  0  0  0  2  0  0  0  0  0  0
  1 19  2  0  0  0  0
  1  4  1  0  0  0  0
  2 19  1  0  0  0  0
  2 13  2  0  0  0  0
  3 10  1  0  0  0  0
  4 20  2  0  0  0  0
  5  1  1  0  0  0  0
  7 15  1  1  0  0  0
  7  9  1  0  0  0  0
  8  6  1  1  0  0  0
  8 12  1  0  0  0  0
  9 14  1  1  0  0  0
  9 22  1  0  0  0  0
 10 21  2  0  0  0  0
 11 28  1  6  0  0  0
 11  5  1  0  0  0  0
 11  8  1  0  0  0  0
 12 27  1  0  0  0  0
 12  4  1  6  0  0  0
 13 18  1  0  0  0  0
 15 23  1  0  0  0  0
 16  2  1  0  0  0  0
 17  3  1  0  0  0  0
 18 25  2  0  0  0  0
 19 26  1  0  0  0  0
 20 17  1  0  0  0  0
 22 20  1  6  0  0  0
 22 10  1  0  0  0  0
 23 14  1  0  0  0  0
 26 25  1  0  0  0  0
 26 17  2  0  0  0  0
 27  7  1  0  0  0  0
 27 24  1  1  0  0  0
 29 30  1  0  0  0  0
 30 28  1  0  0  0  0
M  END
>  <MODEL>
3

>  <REMARK>
 VINA RESULT:      -8.5      2.916      5.648
  Name = 
  2 active torsions:
  status: ('A' for Active; 'I' for Inactive)
    1  A    between atoms: C_11  and  C_28
    2  A    between atoms: C_28  and  C_30
                            x       y       z     vdW  Elec       q    Type
                         _______ _______ _______ _____ _____    ______ ____

>  <TORSDO>
F 2

$$$$
=
 OpenBabel11112416223D

 30 35  0  0  1  0  0  0  0  0999 V2000
  188.5030  176.8480  145.6480 C   0  0  0  0  0  0  0  0  0  0  0  0
  186.5810  178.2350  146.4830 C   0  0  0  0  0  0  0  0  0  0  0  0
  186.8250  176.7240  141.7880 N   0  0  0  0  0  2  0  0  0  0  0  0
  189.1250  176.1580  144.5690 C   0  0  0  0  0  0  0  0  0  0  0  0
  189.1200  176.7530  147.0180 C   0  0  0  0  0  2  0  0  0  0  0  0
  192.4020  175.2590  146.1620 O   0  0  0  0  0  1  0  0  0  0  0  0
  189.6070  173.4370  143.4960 C   0  0  1  0  0  3  0  0  0  0  0  0
  191.0130  175.4230  146.1570 C   0  0  1  0  0  3  0  0  0  0  0  0
  188.8510  173.9650  142.2750 C   0  0  2  0  0  3  0  0  0  0  0  0
  187.8160  175.9250  141.1530 C   0  0  0  0  0  0  0  0  0  0  0  0
  190.6370  176.6560  146.9680 C   0  0  2  0  0  3  0  0  0  0  0  0
  190.5260  175.5620  144.7120 C   0  0  1  0  0  3  0  0  0  0  0  0
  185.3680  178.8810  146.2200 C   0  0  0  0  0  3  0  0  0  0  0  0
  189.3560  173.2510  141.1120 N   0  0  0  0  0  2  0  0  0  0  0  0
  190.0460  172.0500  143.0880 C   0  0  0  0  0  2  0  0  0  0  0  0
  187.0840  178.3200  147.7760 O   0  0  0  0  0  1  0  0  0  0  0  0
  187.2990  176.8360  143.1220 C   0  0  0  0  0  0  0  0  0  0  0  0
  184.8040  178.8490  144.9480 C   0  0  0  0  0  3  0  0  0  0  0  0
  187.2580  177.5300  145.4500 C   0  0  0  0  0  0  0  0  0  0  0  0
  188.4910  176.1800  143.3210 C   0  0  0  0  0  0  0  0  0  0  0  0
  187.7650  175.6350  139.9290 O   0  0  0  0  0  0  0  0  0  0  0  0
  188.9180  175.4820  142.0690 C   0  0  1  0  0  3  0  0  0  0  0  0
  189.7220  171.9310  141.6080 C   0  0  0  0  0  2  0  0  0  0  0  0
  191.8300  174.5430  142.8060 C   0  0  0  0  0  1  0  0  0  0  0  0
  185.4490  178.1710  143.9180 C   0  0  0  0  0  3  0  0  0  0  0  0
  186.6630  177.5180  144.1550 C   0  0  0  0  0  0  0  0  0  0  0  0
  190.8290  174.2730  143.9240 C   0  0  2  0  0  3  0  0  0  0  0  0
  191.1770  176.5460  148.3870 C   0  0  0  0  0  2  0  0  0  0  0  0
  191.5660  177.8940  150.4250 C   0  0  0  0  0  1  0  0  0  0  0  0
  191.5670  177.9160  148.9110 C   0  0  0  0  0  2  0  0  0  0  0  0
  1  5  1  0  0  0  0
  2 16  1  0  0  0  0
  3 17  1  0  0  0  0
  4  1  2  0  0  0  0
  7 15  1  6  0  0  0
  7 27  1  0  0  0  0
  8  6  1  6  0  0  0
  8 11  1  0  0  0  0
  9 14  1  6  0  0  0
  9  7  1  0  0  0  0
 10  3  1  0  0  0  0
 11  5  1  0  0  0  0
 11 28  1  1  0  0  0
 12  4  1  1  0  0  0
 12  8  1  0  0  0  0
 13  2  1  0  0  0  0
 14 23  1  0  0  0  0
 17 20  2  0  0  0  0
 17 26  1  0  0  0  0
 18 13  2  0  0  0  0
 19  1  1  0  0  0  0
 19  2  2  0  0  0  0
 20  4  1  0  0  0  0
 21 10  2  0  0  0  0
 22 10  1  6  0  0  0
 22  9  1  0  0  0  0
 22 20  1  0  0  0  0
 23 15  1  0  0  0  0
 25 26  2  0  0  0  0
 25 18  1  0  0  0  0
 26 19  1  0  0  0  0
 27 24  1  6  0  0  0
 27 12  1  0  0  0  0
 28 30  1  0  0  0  0
 30 29  1  0  0  0  0
M  END
>  <MODEL>
4

>  <REMARK>
 VINA RESULT:      -8.4      1.378      1.655
  Name = 
  2 active torsions:
  status: ('A' for Active; 'I' for Inactive)
    1  A    between atoms: C_11  and  C_28
    2  A    between atoms: C_28  and  C_30
                            x       y       z     vdW  Elec       q    Type
                         _______ _______ _______ _____ _____    ______ ____

>  <TORSDO>
F 2

$$$$
=
 OpenBabel11112416223D

 30 35  0  0  1  0  0  0  0  0999 V2000
  189.9020  174.9840  143.6870 C   0  0  0  0  0  0  0  0  0  0  0  0
  191.9020  173.4690  143.8420 C   0  0  0  0  0  0  0  0  0  0  0  0
  190.9070  176.7980  147.3520 N   0  0  0  0  0  2  0  0  0  0  0  0
  189.1190  176.0260  144.2620 C   0  0  0  0  0  0  0  0  0  0  0  0
  189.4120  174.3230  142.4270 C   0  0  0  0  0  2  0  0  0  0  0  0
  186.7230  176.6780  141.4480 O   0  0  0  0  0  1  0  0  0  0  0  0
  186.5830  176.5210  145.7130 C   0  0  1  0  0  3  0  0  0  0  0  0
  187.4790  175.8520  142.2850 C   0  0  1  0  0  3  0  0  0  0  0  0
  187.5060  177.0810  146.7970 C   0  0  2  0  0  3  0  0  0  0  0  0
  189.8210  177.7140  147.4390 C   0  0  0  0  0  0  0  0  0  0  0  0
  188.6660  175.2850  141.5160 C   0  0  2  0  0  3  0  0  0  0  0  0
  187.9590  176.6600  143.4940 C   0  0  1  0  0  3  0  0  0  0  0  0
  193.0360  173.0540  144.5480 C   0  0  0  0  0  3  0  0  0  0  0  0
  186.7620  178.1070  147.5110 N   0  0  0  0  0  2  0  0  0  0  0  0
  185.1910  176.7900  146.2380 C   0  0  0  0  0  2  0  0  0  0  0  0
  191.6300  172.8350  142.6360 O   0  0  0  0  0  1  0  0  0  0  0  0
  190.6680  176.1200  146.1270 C   0  0  0  0  0  0  0  0  0  0  0  0
  193.3800  173.6460  145.7590 C   0  0  0  0  0  3  0  0  0  0  0  0
  191.0760  174.5080  144.3560 C   0  0  0  0  0  0  0  0  0  0  0  0
  189.5400  176.5690  145.4820 C   0  0  0  0  0  0  0  0  0  0  0  0
  189.7050  178.5330  148.3880 O   0  0  0  0  0  0  0  0  0  0  0  0
  188.8520  177.6160  146.2980 C   0  0  1  0  0  3  0  0  0  0  0  0
  185.3730  177.6690  147.4630 C   0  0  0  0  0  2  0  0  0  0  0  0
  186.6640  178.6730  144.2970 C   0  0  0  0  0  1  0  0  0  0  0  0
  192.5920  174.6680  146.2820 C   0  0  0  0  0  3  0  0  0  0  0  0
  191.4540  175.1020  145.5960 C   0  0  0  0  0  0  0  0  0  0  0  0
  186.7520  177.1510  144.3160 C   0  0  2  0  0  3  0  0  0  0  0  0
  188.1910  174.5360  140.2790 C   0  0  0  0  0  2  0  0  0  0  0  0
  188.8840  172.3800  139.2840 C   0  0  0  0  0  1  0  0  0  0  0  0
  188.2760  173.0380  140.5040 C   0  0  0  0  0  2  0  0  0  0  0  0
  1  4  2  0  0  0  0
  1 19  1  0  0  0  0
  2 19  2  0  0  0  0
  2 13  1  0  0  0  0
  3 10  1  0  0  0  0
  4 20  1  0  0  0  0
  5  1  1  0  0  0  0
  7 15  1  1  0  0  0
  7  9  1  0  0  0  0
  8  6  1  6  0  0  0
  8 12  1  0  0  0  0
  9 14  1  6  0  0  0
 10 21  2  0  0  0  0
 11 28  1  6  0  0  0
 11  8  1  0  0  0  0
 11  5  1  0  0  0  0
 12  4  1  1  0  0  0
 12 27  1  0  0  0  0
 13 18  2  0  0  0  0
 15 23  1  0  0  0  0
 16  2  1  0  0  0  0
 17  3  1  0  0  0  0
 18 25  1  0  0  0  0
 19 26  1  0  0  0  0
 20 17  2  0  0  0  0
 22 20  1  6  0  0  0
 22  9  1  0  0  0  0
 22 10  1  0  0  0  0
 23 14  1  0  0  0  0
 26 17  1  0  0  0  0
 26 25  2  0  0  0  0
 27 24  1  1  0  0  0
 27  7  1  0  0  0  0
 28 30  1  0  0  0  0
 29 30  1  0  0  0  0
M  END
>  <MODEL>
5

>  <REMARK>
 VINA RESULT:      -8.4      2.513      6.983
  Name = 
  2 active torsions:
  status: ('A' for Active; 'I' for Inactive)
    1  A    between atoms: C_11  and  C_28
    2  A    between atoms: C_28  and  C_30
                            x       y       z     vdW  Elec       q    Type
                         _______ _______ _______ _____ _____    ______ ____

>  <TORSDO>
F 2

$$$$
=
 OpenBabel11112416223D

 30 35  0  0  1  0  0  0  0  0999 V2000
  187.1320  176.3370  142.1010 C   0  0  0  0  0  0  0  0  0  0  0  0
  185.3740  177.5300  140.7580 C   0  0  0  0  0  0  0  0  0  0  0  0
  185.4350  177.7360  145.6910 N   0  0  0  0  0  2  0  0  0  0  0  0
  187.6770  176.0160  143.3770 C   0  0  0  0  0  0  0  0  0  0  0  0
  187.8630  175.8790  140.8670 C   0  0  0  0  0  2  0  0  0  0  0  0
  190.2720  173.4990  142.3720 O   0  0  0  0  0  1  0  0  0  0  0  0
  189.9180  176.6790  145.2000 C   0  0  1  0  0  3  0  0  0  0  0  0
  189.5520  174.6870  142.2170 C   0  0  1  0  0  3  0  0  0  0  0  0
  188.7990  177.0870  146.1590 C   0  0  2  0  0  3  0  0  0  0  0  0
  186.3550  177.1480  146.6040 C   0  0  0  0  0  0  0  0  0  0  0  0
  188.5630  174.5440  141.0670 C   0  0  2  0  0  3  0  0  0  0  0  0
  188.8150  175.0050  143.5210 C   0  0  1  0  0  3  0  0  0  0  0  0
  184.2370  178.3440  140.7300 C   0  0  0  0  0  3  0  0  0  0  0  0
  189.2910  176.8790  147.5120 N   0  0  0  0  0  2  0  0  0  0  0  0
  191.1810  176.8490  146.0130 C   0  0  0  0  0  2  0  0  0  0  0  0
  185.8800  177.0950  139.5390 O   0  0  0  0  0  1  0  0  0  0  0  0
  185.9180  177.3200  144.4230 C   0  0  0  0  0  0  0  0  0  0  0  0
  183.6650  178.8120  141.9100 C   0  0  0  0  0  3  0  0  0  0  0  0
  185.9690  177.1670  141.9980 C   0  0  0  0  0  0  0  0  0  0  0  0
  187.0370  176.5260  144.5130 C   0  0  0  0  0  0  0  0  0  0  0  0
  186.2330  177.2620  147.8510 O   0  0  0  0  0  0  0  0  0  0  0  0
  187.4580  176.3770  145.9400 C   0  0  1  0  0  3  0  0  0  0  0  0
  190.7250  177.1260  147.4350 C   0  0  0  0  0  2  0  0  0  0  0  0
  189.6910  174.1690  145.7360 C   0  0  0  0  0  1  0  0  0  0  0  0
  184.2240  178.4680  143.1370 C   0  0  0  0  0  3  0  0  0  0  0  0
  185.3610  177.6540  143.1920 C   0  0  0  0  0  0  0  0  0  0  0  0
  189.8270  175.2390  144.6590 C   0  0  2  0  0  3  0  0  0  0  0  0
  189.2890  174.1640  139.7840 C   0  0  0  0  0  2  0  0  0  0  0  0
  188.8700  173.2790  137.5120 C   0  0  0  0  0  1  0  0  0  0  0  0
  188.3250  174.1640  138.6120 C   0  0  0  0  0  2  0  0  0  0  0  0
  1  4  1  0  0  0  0
  2 19  1  0  0  0  0
  3 10  1  0  0  0  0
  4 20  2  0  0  0  0
  5 11  1  0  0  0  0
  5  1  1  0  0  0  0
  7 15  1  1  0  0  0
  7  9  1  0  0  0  0
  8  6  1  1  0  0  0
  8 12  1  0  0  0  0
  9 14  1  1  0  0  0
 10 21  2  0  0  0  0
 11 28  1  6  0  0  0
 11  8  1  0  0  0  0
 12  4  1  6  0  0  0
 12 27  1  0  0  0  0
 13  2  2  0  0  0  0
 13 18  1  0  0  0  0
 15 23  1  0  0  0  0
 16  2  1  0  0  0  0
 17 20  1  0  0  0  0
 17  3  1  0  0  0  0
 18 25  2  0  0  0  0
 19  1  2  0  0  0  0
 19 26  1  0  0  0  0
 22 20  1  6  0  0  0
 22  9  1  0  0  0  0
 22 10  1  0  0  0  0
 23 14  1  0  0  0  0
 25 26  1  0  0  0  0
 26 17  2  0  0  0  0
 27  7  1  0  0  0  0
 27 24  1  1  0  0  0
 29 30  1  0  0  0  0
 30 28  1  0  0  0  0
M  END
>  <MODEL>
6

>  <REMARK>
 VINA RESULT:      -8.0      2.013      5.680
  Name = 
  2 active torsions:
  status: ('A' for Active; 'I' for Inactive)
    1  A    between atoms: C_11  and  C_28
    2  A    between atoms: C_28  and  C_30
                            x       y       z     vdW  Elec       q    Type
                         _______ _______ _______ _____ _____    ______ ____

>  <TORSDO>
F 2

$$$$
=
 OpenBabel11112416223D

 30 35  0  0  1  0  0  0  0  0999 V2000
  188.4250  175.2570  142.7410 C   0  0  0  0  0  0  0  0  0  0  0  0
  186.7140  177.0940  142.6120 C   0  0  0  0  0  0  0  0  0  0  0  0
  189.3540  176.3100  146.7110 N   0  0  0  0  0  2  0  0  0  0  0  0
  189.4110  174.5660  143.5020 C   0  0  0  0  0  0  0  0  0  0  0  0
  188.2310  174.8800  141.2970 C   0  0  0  0  0  2  0  0  0  0  0  0
  190.1660  171.7220  141.1730 O   0  0  0  0  0  1  0  0  0  0  0  0
  192.3440  174.2720  143.8170 C   0  0  1  0  0  3  0  0  0  0  0  0
  189.8900  173.0600  141.4700 C   0  0  1  0  0  3  0  0  0  0  0  0
  192.0710  174.7540  145.2440 C   0  0  2  0  0  3  0  0  0  0  0  0
  190.3680  175.3410  146.9540 C   0  0  0  0  0  0  0  0  0  0  0  0
  188.4670  173.3990  141.0450 C   0  0  2  0  0  3  0  0  0  0  0  0
  190.0710  173.2930  142.9720 C   0  0  1  0  0  3  0  0  0  0  0  0
  186.0520  178.1580  143.2330 C   0  0  0  0  0  3  0  0  0  0  0  0
  193.0910  174.1680  146.1000 N   0  0  0  0  0  2  0  0  0  0  0  0
  193.8210  173.9550  143.8100 C   0  0  0  0  0  2  0  0  0  0  0  0
  186.3560  176.7930  141.3030 O   0  0  0  0  0  1  0  0  0  0  0  0
  188.9580  176.0420  145.3740 C   0  0  0  0  0  0  0  0  0  0  0  0
  186.3490  178.5150  144.5450 C   0  0  0  0  0  3  0  0  0  0  0  0
  187.7090  176.3580  143.3140 C   0  0  0  0  0  0  0  0  0  0  0  0
  189.6440  174.9890  144.8160 C   0  0  0  0  0  0  0  0  0  0  0  0
  190.9460  175.2370  148.0680 O   0  0  0  0  0  0  0  0  0  0  0  0
  190.6640  174.4630  145.7750 C   0  0  1  0  0  3  0  0  0  0  0  0
  194.2740  174.0550  145.2570 C   0  0  0  0  0  2  0  0  0  0  0  0
  191.6380  171.8460  144.3230 C   0  0  0  0  0  1  0  0  0  0  0  0
  187.3140  177.8080  145.2570 C   0  0  0  0  0  3  0  0  0  0  0  0
  187.9900  176.7400  144.6590 C   0  0  0  0  0  0  0  0  0  0  0  0
  191.5360  173.0360  143.3760 C   0  0  2  0  0  3  0  0  0  0  0  0
  188.2680  173.1070  139.5650 C   0  0  0  0  0  2  0  0  0  0  0  0
  188.6230  174.1270  137.3390 C   0  0  0  0  0  1  0  0  0  0  0  0
  188.2210  174.4000  138.7720 C   0  0  0  0  0  2  0  0  0  0  0  0
  1 19  2  0  0  0  0
  1  4  1  0  0  0  0
  2 13  2  0  0  0  0
  2 19  1  0  0  0  0
  3 10  1  0  0  0  0
  4 20  2  0  0  0  0
  5  1  1  0  0  0  0
  7 15  1  1  0  0  0
  7  9  1  0  0  0  0
  8  6  1  1  0  0  0
  8 12  1  0  0  0  0
  9 22  1  0  0  0  0
  9 14  1  1  0  0  0
 10 21  2  0  0  0  0
 11 28  1  6  0  0  0
 11  5  1  0  0  0  0
 11  8  1  0  0  0  0
 12 27  1  0  0  0  0
 12  4  1  6  0  0  0
 13 18  1  0  0  0  0
 15 23  1  0  0  0  0
 16  2  1  0  0  0  0
 17  3  1  0  0  0  0
 18 25  2  0  0  0  0
 19 26  1  0  0  0  0
 20 17  1  0  0  0  0
 22 20  1  6  0  0  0
 22 10  1  0  0  0  0
 23 14  1  0  0  0  0
 26 25  1  0  0  0  0
 26 17  2  0  0  0  0
 27  7  1  0  0  0  0
 27 24  1  1  0  0  0
 29 30  1  0  0  0  0
 30 28  1  0  0  0  0
M  END
>  <MODEL>
7

>  <REMARK>
 VINA RESULT:      -7.9      2.755      5.821
  Name = 
  2 active torsions:
  status: ('A' for Active; 'I' for Inactive)
    1  A    between atoms: C_11  and  C_28
    2  A    between atoms: C_28  and  C_30
                            x       y       z     vdW  Elec       q    Type
                         _______ _______ _______ _____ _____    ______ ____

>  <TORSDO>
F 2

$$$$
=
 OpenBabel11112416223D

 30 35  0  0  1  0  0  0  0  0999 V2000
  188.3950  176.0790  142.2320 C   0  0  0  0  0  0  0  0  0  0  0  0
  190.1210  174.3820  141.5560 C   0  0  0  0  0  0  0  0  0  0  0  0
  190.2580  176.5830  145.9740 N   0  0  0  0  0  2  0  0  0  0  0  0
  187.8950  176.9770  143.2180 C   0  0  0  0  0  0  0  0  0  0  0  0
  187.6070  175.8860  140.9640 C   0  0  0  0  0  2  0  0  0  0  0  0
  185.2140  178.7020  141.2370 O   0  0  0  0  0  1  0  0  0  0  0  0
  185.7400  177.2820  145.2300 C   0  0  1  0  0  3  0  0  0  0  0  0
  185.9510  177.5860  141.6430 C   0  0  1  0  0  3  0  0  0  0  0  0
  186.9030  177.3850  146.2170 C   0  0  2  0  0  3  0  0  0  0  0  0
  189.3630  177.5410  146.5290 C   0  0  0  0  0  0  0  0  0  0  0  0
  186.8900  177.1530  140.5250 C   0  0  2  0  0  3  0  0  0  0  0  0
  186.7440  177.9340  142.9050 C   0  0  1  0  0  3  0  0  0  0  0  0
  191.2720  173.6540  141.8750 C   0  0  0  0  0  3  0  0  0  0  0  0
  186.4600  178.2210  147.3220 N   0  0  0  0  0  2  0  0  0  0  0  0
  184.5130  177.5280  146.0780 C   0  0  0  0  0  2  0  0  0  0  0  0
  189.5600  174.1750  140.3020 O   0  0  0  0  0  1  0  0  0  0  0  0
  189.7180  176.3360  144.6850 C   0  0  0  0  0  0  0  0  0  0  0  0
  191.8990  173.8120  143.1080 C   0  0  0  0  0  3  0  0  0  0  0  0
  189.5690  175.3000  142.4920 C   0  0  0  0  0  0  0  0  0  0  0  0
  188.5890  177.0780  144.4290 C   0  0  0  0  0  0  0  0  0  0  0  0
  189.5370  178.0430  147.6700 O   0  0  0  0  0  0  0  0  0  0  0  0
  188.2210  177.8980  145.6250 C   0  0  1  0  0  3  0  0  0  0  0  0
  185.0300  177.9710  147.4360 C   0  0  0  0  0  2  0  0  0  0  0  0
  185.9390  179.7380  144.4780 C   0  0  0  0  0  1  0  0  0  0  0  0
  191.3810  174.7070  144.0400 C   0  0  0  0  0  3  0  0  0  0  0  0
  190.2330  175.4480  143.7450 C   0  0  0  0  0  0  0  0  0  0  0  0
  185.7810  178.2810  144.0570 C   0  0  2  0  0  3  0  0  0  0  0  0
  186.1080  176.8680  139.2510 C   0  0  0  0  0  2  0  0  0  0  0  0
  186.2750  176.0280  136.9300 C   0  0  0  0  0  1  0  0  0  0  0  0
  187.0560  176.5850  138.1010 C   0  0  0  0  0  2  0  0  0  0  0  0
  1 19  2  0  0  0  0
  1  4  1  0  0  0  0
  2 13  2  0  0  0  0
  2 19  1  0  0  0  0
  3 10  1  0  0  0  0
  4 20  2  0  0  0  0
  5  1  1  0  0  0  0
  7 15  1  1  0  0  0
  7  9  1  0  0  0  0
  8  6  1  6  0  0  0
  8 12  1  0  0  0  0
  9 14  1  1  0  0  0
 10 21  2  0  0  0  0
 11 28  1  6  0  0  0
 11  5  1  0  0  0  0
 11  8  1  0  0  0  0
 12  4  1  1  0  0  0
 12 27  1  0  0  0  0
 13 18  1  0  0  0  0
 14 23  1  0  0  0  0
 15 23  1  0  0  0  0
 16  2  1  0  0  0  0
 17  3  1  0  0  0  0
 18 25  2  0  0  0  0
 19 26  1  0  0  0  0
 20 17  1  0  0  0  0
 22 20  1  6  0  0  0
 22  9  1  0  0  0  0
 22 10  1  0  0  0  0
 26 25  1  0  0  0  0
 26 17  2  0  0  0  0
 27 24  1  1  0  0  0
 27  7  1  0  0  0  0
 29 30  1  0  0  0  0
 30 28  1  0  0  0  0
M  END
>  <MODEL>
8

>  <REMARK>
 VINA RESULT:      -7.9      2.484      7.216
  Name = 
  2 active torsions:
  status: ('A' for Active; 'I' for Inactive)
    1  A    between atoms: C_11  and  C_28
    2  A    between atoms: C_28  and  C_30
                            x       y       z     vdW  Elec       q    Type
                         _______ _______ _______ _____ _____    ______ ____

>  <TORSDO>
F 2

$$$$
=
 OpenBabel11112416223D

 30 35  0  0  1  0  0  0  0  0999 V2000
  188.7800  175.4300  143.4230 C   0  0  0  0  0  0  0  0  0  0  0  0
  186.6450  176.6150  144.0200 C   0  0  0  0  0  0  0  0  0  0  0  0
  190.6560  176.9260  146.8830 N   0  0  0  0  0  2  0  0  0  0  0  0
  190.1350  175.1310  143.7450 C   0  0  0  0  0  0  0  0  0  0  0  0
  188.2230  174.9380  142.1140 C   0  0  0  0  0  2  0  0  0  0  0  0
  190.8860  172.5630  141.1140 O   0  0  0  0  0  1  0  0  0  0  0  0
  192.9240  175.8060  143.0010 C   0  0  1  0  0  3  0  0  0  0  0  0
  190.3220  173.7550  141.5770 C   0  0  1  0  0  3  0  0  0  0  0  0
  193.0300  176.2480  144.4620 C   0  0  2  0  0  3  0  0  0  0  0  0
  191.9420  176.3460  146.6940 C   0  0  0  0  0  0  0  0  0  0  0  0
  188.8120  173.5990  141.6970 C   0  0  2  0  0  3  0  0  0  0  0  0
  190.9340  174.1100  142.9350 C   0  0  1  0  0  3  0  0  0  0  0  0
  185.9420  177.4410  144.9020 C   0  0  0  0  0  3  0  0  0  0  0  0
  194.4140  176.0630  144.8700 N   0  0  0  0  0  2  0  0  0  0  0  0
  194.3240  175.9790  142.4600 C   0  0  0  0  0  2  0  0  0  0  0  0
  185.9660  176.1490  142.9000 O   0  0  0  0  0  1  0  0  0  0  0  0
  189.9240  176.4770  145.7530 C   0  0  0  0  0  0  0  0  0  0  0  0
  186.5500  177.9400  146.0510 C   0  0  0  0  0  3  0  0  0  0  0  0
  188.0010  176.2720  144.2820 C   0  0  0  0  0  0  0  0  0  0  0  0
  190.6670  175.6720  144.9220 C   0  0  0  0  0  0  0  0  0  0  0  0
  192.8740  176.4880  147.5270 O   0  0  0  0  0  0  0  0  0  0  0  0
  192.0680  175.5490  145.4290 C   0  0  1  0  0  3  0  0  0  0  0  0
  195.1980  176.2910  143.6630 C   0  0  0  0  0  2  0  0  0  0  0  0
  193.2470  173.3110  143.5570 C   0  0  0  0  0  1  0  0  0  0  0  0
  187.8740  177.6160  146.3330 C   0  0  0  0  0  3  0  0  0  0  0  0
  188.5990  176.7910  145.4670 C   0  0  0  0  0  0  0  0  0  0  0  0
  192.4480  174.3560  142.7860 C   0  0  2  0  0  3  0  0  0  0  0  0
  188.2110  173.1840  140.3620 C   0  0  0  0  0  2  0  0  0  0  0  0
  188.7740  173.7190  138.0130 C   0  0  0  0  0  1  0  0  0  0  0  0
  188.3570  174.3020  139.3460 C   0  0  0  0  0  2  0  0  0  0  0  0
  1  4  2  0  0  0  0
  1 19  1  0  0  0  0
  2 19  2  0  0  0  0
  2 13  1  0  0  0  0
  4 20  1  0  0  0  0
  5  1  1  0  0  0  0
  7 15  1  1  0  0  0
  7  9  1  0  0  0  0
  8  6  1  1  0  0  0
  8 11  1  0  0  0  0
  8 12  1  0  0  0  0
  9 14  1  1  0  0  0
  9 22  1  0  0  0  0
 10  3  1  0  0  0  0
 10 21  2  0  0  0  0
 11 28  1  6  0  0  0
 11  5  1  0  0  0  0
 12  4  1  6  0  0  0
 13 18  2  0  0  0  0
 15 23  1  0  0  0  0
 16  2  1  0  0  0  0
 17  3  1  0  0  0  0
 18 25  1  0  0  0  0
 19 26  1  0  0  0  0
 20 17  2  0  0  0  0
 22 20  1  6  0  0  0
 22 10  1  0  0  0  0
 23 14  1  0  0  0  0
 26 17  1  0  0  0  0
 26 25  2  0  0  0  0
 27 12  1  0  0  0  0
 27  7  1  0  0  0  0
 27 24  1  1  0  0  0
 29 30  1  0  0  0  0
 30 28  1  0  0  0  0
M  END
>  <MODEL>
9

>  <REMARK>
 VINA RESULT:      -7.6      2.979      5.754
  Name = 
  2 active torsions:
  status: ('A' for Active; 'I' for Inactive)
    1  A    between atoms: C_11  and  C_28
    2  A    between atoms: C_28  and  C_30
                            x       y       z     vdW  Elec       q    Type
                         _______ _______ _______ _____ _____    ______ ____

>  <TORSDO>
F 2

$$$$
