=
 OpenBabel11112417373D

 28 31  0  0  1  0  0  0  0  0999 V2000
  187.8440  177.5740  144.4210 C   0  0  0  0  0  0  0  0  0  0  0  0
  190.6060  177.7280  147.3150 O   0  0  0  0  0  0  0  0  0  0  0  0
  185.7810  177.0630  146.2450 C   0  0  0  0  0  3  0  0  0  0  0  0
  188.8730  177.8160  143.5120 O   0  0  0  0  0  0  0  0  0  0  0  0
  190.4140  175.3340  147.8400 O   0  0  0  0  0  0  0  0  0  0  0  0
  190.9860  176.3410  146.8820 S   0  0  0  0  0  0  0  0  0  0  0  0
  193.1780  176.7760  145.5840 C   0  0  1  0  0  3  0  0  0  0  0  0
  190.4090  176.0390  145.2320 C   0  0  1  0  0  3  0  0  0  0  0  0
  186.6920  176.9880  141.4660 O   0  0  0  0  0  1  0  0  0  0  0  0
  189.0420  174.5360  143.9050 C   0  0  2  0  0  3  0  0  0  0  0  0
  192.9210  175.6630  144.1350 S   0  0  0  0  0  0  0  0  0  0  0  0
  192.7140  176.1820  146.8360 N   0  0  0  0  0  2  0  0  0  0  0  0
  188.0790  177.0800  141.3320 C   0  0  2  0  0  3  0  0  0  0  0  0
  187.9090  176.4440  145.2590 C   0  0  0  0  0  0  0  0  0  0  0  0
  194.6480  177.1180  145.6990 C   0  0  0  0  0  1  0  0  0  0  0  0
  188.7720  175.7420  141.6240 C   0  0  0  0  0  2  0  0  0  0  0  0
  186.8720  176.1960  146.1650 C   0  0  0  0  0  3  0  0  0  0  0  0
  186.7390  178.4350  144.4980 C   0  0  0  0  0  3  0  0  0  0  0  0
  185.7120  178.1820  145.4100 C   0  0  0  0  0  3  0  0  0  0  0  0
  188.6310  178.2310  142.1740 C   0  0  0  0  0  2  0  0  0  0  0  0
  190.5090  174.3870  143.4910 C   0  0  1  0  0  3  0  0  0  0  0  0
  188.0990  174.9430  142.7510 C   0  0  1  0  0  3  0  0  0  0  0  0
  191.3000  174.9840  144.6380 C   0  0  2  0  0  3  0  0  0  0  0  0
  189.0250  175.4340  145.1580 C   0  0  2  0  0  3  0  0  0  0  0  0
  188.2260  173.5220  141.0590 C   0  0  0  0  0  1  0  0  0  0  0  0
  187.4960  173.8030  142.2150 O   0  0  0  0  0  0  0  0  0  0  0  0
  190.8290  173.0360  143.3450 O   0  0  0  0  0  0  0  0  0  0  0  0
  190.2390  172.4080  144.4420 C   0  0  0  0  0  1  0  0  0  0  0  0
  1 18  2  0  0  0  0
  1 14  1  0  0  0  0
  4  1  1  0  0  0  0
  6  2  2  0  0  0  0
  6  5  2  0  0  0  0
  7 15  1  1  0  0  0
  7 12  1  0  0  0  0
  8  6  1  1  0  0  0
 10 24  1  0  0  0  0
 11 23  1  0  0  0  0
 11  7  1  0  0  0  0
 12  6  1  0  0  0  0
 13  9  1  0  0  0  0
 13 16  1  0  0  0  0
 13 20  1  0  0  0  0
 14 17  2  0  0  0  0
 16 22  1  0  0  0  0
 17  3  1  0  0  0  0
 18 19  1  0  0  0  0
 19  3  2  0  0  0  0
 20  4  1  0  0  0  0
 21 10  1  0  0  0  0
 21 23  1  0  0  0  0
 22 10  1  0  0  0  0
 23  8  1  0  0  0  0
 24  8  1  0  0  0  0
 24 14  1  0  0  0  0
 25 26  1  0  0  0  0
 26 22  1  0  0  0  0
 27 21  1  0  0  0  0
 27 28  1  0  0  0  0
M  END
>  <MODEL>
1

>  <REMARK>
 VINA RESULT:      -7.5      0.000      0.000
  Name = 
  2 active torsions:
  status: ('A' for Active; 'I' for Inactive)
    1  A    between atoms: O_5  and  C_24
    2  A    between atoms: O_17  and  C_25
                            x       y       z     vdW  Elec       q    Type
                         _______ _______ _______ _____ _____    ______ ____

>  <TORSDO>
F 2

$$$$
=
 OpenBabel11112417373D

 28 31  0  0  1  0  0  0  0  0999 V2000
  189.5030  176.1850  144.6470 C   0  0  0  0  0  0  0  0  0  0  0  0
  193.3430  176.2910  145.7770 O   0  0  0  0  0  0  0  0  0  0  0  0
  188.6750  175.1530  147.1150 C   0  0  0  0  0  3  0  0  0  0  0  0
  189.9170  176.6870  143.4130 O   0  0  0  0  0  0  0  0  0  0  0  0
  193.5460  173.8430  145.8660 O   0  0  0  0  0  0  0  0  0  0  0  0
  193.5100  175.0420  144.9600 S   0  0  0  0  0  0  0  0  0  0  0  0
  194.7190  175.9420  142.8610 C   0  0  1  0  0  3  0  0  0  0  0  0
  192.1880  174.9030  143.7840 C   0  0  1  0  0  3  0  0  0  0  0  0
  187.0380  175.8760  142.5910 O   0  0  0  0  0  1  0  0  0  0  0  0
  190.4020  173.4360  143.0450 C   0  0  2  0  0  3  0  0  0  0  0  0
  193.8090  175.0220  141.5450 S   0  0  0  0  0  0  0  0  0  0  0  0
  194.9790  175.1210  144.0410 N   0  0  0  0  0  2  0  0  0  0  0  0
  188.1600  176.1690  141.8130 C   0  0  2  0  0  3  0  0  0  0  0  0
  190.0340  174.9660  145.1140 C   0  0  0  0  0  0  0  0  0  0  0  0
  196.0270  176.4560  142.3000 C   0  0  0  0  0  1  0  0  0  0  0  0
  188.9600  174.9060  141.4670 C   0  0  0  0  0  2  0  0  0  0  0  0
  189.6110  174.4580  146.3470 C   0  0  0  0  0  3  0  0  0  0  0  0
  188.5550  176.8720  145.4180 C   0  0  0  0  0  3  0  0  0  0  0  0
  188.1450  176.3590  146.6500 C   0  0  0  0  0  3  0  0  0  0  0  0
  189.0130  177.2520  142.4740 C   0  0  0  0  0  2  0  0  0  0  0  0
  191.4610  173.5420  141.9440 C   0  0  1  0  0  3  0  0  0  0  0  0
  188.9880  173.8730  142.6050 C   0  0  1  0  0  3  0  0  0  0  0  0
  192.6980  174.0700  142.6420 C   0  0  2  0  0  3  0  0  0  0  0  0
  190.9860  174.1380  144.2880 C   0  0  2  0  0  3  0  0  0  0  0  0
  188.1060  172.8600  140.8460 C   0  0  0  0  0  1  0  0  0  0  0  0
  188.2450  172.7520  142.2310 O   0  0  0  0  0  0  0  0  0  0  0  0
  191.7200  172.2800  141.4070 O   0  0  0  0  0  0  0  0  0  0  0  0
  191.5950  172.4470  140.0270 C   0  0  0  0  0  1  0  0  0  0  0  0
  1 14  2  0  0  0  0
  1 18  1  0  0  0  0
  4  1  1  0  0  0  0
  6  2  2  0  0  0  0
  6  5  2  0  0  0  0
  7 15  1  6  0  0  0
  7 12  1  0  0  0  0
  8 24  1  0  0  0  0
  8  6  1  1  0  0  0
 10 24  1  0  0  0  0
 11 23  1  0  0  0  0
 11  7  1  0  0  0  0
 12  6  1  0  0  0  0
 13 20  1  0  0  0  0
 13  9  1  0  0  0  0
 14 17  1  0  0  0  0
 16 13  1  0  0  0  0
 16 22  1  0  0  0  0
 17  3  2  0  0  0  0
 18 19  2  0  0  0  0
 19  3  1  0  0  0  0
 20  4  1  0  0  0  0
 21 23  1  0  0  0  0
 21 10  1  0  0  0  0
 22 10  1  0  0  0  0
 23  8  1  0  0  0  0
 24 14  1  0  0  0  0
 25 26  1  0  0  0  0
 26 22  1  0  0  0  0
 27 21  1  0  0  0  0
 28 27  1  0  0  0  0
M  END
>  <MODEL>
2

>  <REMARK>
 VINA RESULT:      -6.9      2.139      2.700
  Name = 
  2 active torsions:
  status: ('A' for Active; 'I' for Inactive)
    1  A    between atoms: O_5  and  C_24
    2  A    between atoms: O_17  and  C_25
                            x       y       z     vdW  Elec       q    Type
                         _______ _______ _______ _____ _____    ______ ____

>  <TORSDO>
F 2

$$$$
=
 OpenBabel11112417373D

 28 31  0  0  1  0  0  0  0  0999 V2000
  191.5170  175.7440  145.1110 C   0  0  0  0  0  0  0  0  0  0  0  0
  191.5230  171.8320  144.2630 O   0  0  0  0  0  0  0  0  0  0  0  0
  190.8260  175.2910  147.7870 C   0  0  0  0  0  3  0  0  0  0  0  0
  191.8490  175.9710  143.7760 O   0  0  0  0  0  0  0  0  0  0  0  0
  189.0930  171.6050  144.5600 O   0  0  0  0  0  0  0  0  0  0  0  0
  190.1810  172.0720  143.6340 S   0  0  0  0  0  0  0  0  0  0  0  0
  190.7610  172.0140  141.1160 C   0  0  1  0  0  3  0  0  0  0  0  0
  189.9870  173.7940  143.2530 C   0  0  1  0  0  3  0  0  0  0  0  0
  191.1220  178.8910  144.5280 O   0  0  0  0  0  1  0  0  0  0  0  0
  188.5540  175.7120  143.6450 C   0  0  2  0  0  3  0  0  0  0  0  0
  189.7520  173.4390  140.5190 S   0  0  0  0  0  0  0  0  0  0  0  0
  190.0670  171.2190  142.1260 N   0  0  0  0  0  2  0  0  0  0  0  0
  191.2560  178.2780  143.2800 C   0  0  2  0  0  3  0  0  0  0  0  0
  190.3300  175.0520  145.4240 C   0  0  0  0  0  0  0  0  0  0  0  0
  191.1280  171.1330  139.9410 C   0  0  0  0  0  1  0  0  0  0  0  0
  189.9160  177.7360  142.7630 C   0  0  0  0  0  2  0  0  0  0  0  0
  189.9920  174.8340  146.7630 C   0  0  0  0  0  3  0  0  0  0  0  0
  192.3430  176.2110  146.1430 C   0  0  0  0  0  3  0  0  0  0  0  0
  192.0000  175.9820  147.4770 C   0  0  0  0  0  3  0  0  0  0  0  0
  192.3550  177.2150  143.3130 C   0  0  0  0  0  2  0  0  0  0  0  0
  188.4700  175.3080  142.1700 C   0  0  1  0  0  3  0  0  0  0  0  0
  189.0210  177.1670  143.8750 C   0  0  1  0  0  3  0  0  0  0  0  0
  188.9990  173.8890  142.1240 C   0  0  2  0  0  3  0  0  0  0  0  0
  189.3570  174.6080  144.3600 C   0  0  2  0  0  3  0  0  0  0  0  0
  187.3780  177.6290  145.2840 C   0  0  0  0  0  1  0  0  0  0  0  0
  187.9110  177.9950  144.0450 O   0  0  0  0  0  0  0  0  0  0  0  0
  187.1410  175.3340  141.7420 O   0  0  0  0  0  0  0  0  0  0  0  0
  187.0660  176.4250  140.8760 C   0  0  0  0  0  1  0  0  0  0  0  0
  1 14  2  0  0  0  0
  1 18  1  0  0  0  0
  4  1  1  0  0  0  0
  6  2  2  0  0  0  0
  6  5  2  0  0  0  0
  7 15  1  6  0  0  0
  7 12  1  0  0  0  0
  8  6  1  1  0  0  0
  8 24  1  0  0  0  0
 10 22  1  0  0  0  0
 10 24  1  0  0  0  0
 11  7  1  0  0  0  0
 11 23  1  0  0  0  0
 12  6  1  0  0  0  0
 13 20  1  0  0  0  0
 13  9  1  0  0  0  0
 14 17  1  0  0  0  0
 16 13  1  0  0  0  0
 16 22  1  0  0  0  0
 17  3  2  0  0  0  0
 18 19  2  0  0  0  0
 19  3  1  0  0  0  0
 20  4  1  0  0  0  0
 21 10  1  0  0  0  0
 22 26  1  0  0  0  0
 23 21  1  0  0  0  0
 23  8  1  0  0  0  0
 24 14  1  0  0  0  0
 26 25  1  0  0  0  0
 27 21  1  0  0  0  0
 28 27  1  0  0  0  0
M  END
>  <MODEL>
3

>  <REMARK>
 VINA RESULT:      -6.7      2.691      5.025
  Name = 
  2 active torsions:
  status: ('A' for Active; 'I' for Inactive)
    1  A    between atoms: O_5  and  C_24
    2  A    between atoms: O_17  and  C_25
                            x       y       z     vdW  Elec       q    Type
                         _______ _______ _______ _____ _____    ______ ____

>  <TORSDO>
F 2

$$$$
=
 OpenBabel11112417373D

 28 31  0  0  1  0  0  0  0  0999 V2000
  190.8580  176.6940  144.9370 C   0  0  0  0  0  0  0  0  0  0  0  0
  194.8300  177.1390  145.1690 O   0  0  0  0  0  0  0  0  0  0  0  0
  190.6260  176.2030  147.6840 C   0  0  0  0  0  3  0  0  0  0  0  0
  190.9750  176.9260  143.5670 O   0  0  0  0  0  0  0  0  0  0  0  0
  195.2190  174.7740  145.7180 O   0  0  0  0  0  0  0  0  0  0  0  0
  194.9140  175.7460  144.6130 S   0  0  0  0  0  0  0  0  0  0  0  0
  195.6020  176.1980  142.1630 C   0  0  1  0  0  3  0  0  0  0  0  0
  193.3930  175.3220  143.8030 C   0  0  1  0  0  3  0  0  0  0  0  0
  188.0520  175.8840  143.5680 O   0  0  0  0  0  1  0  0  0  0  0  0
  191.6020  173.6860  143.7850 C   0  0  2  0  0  3  0  0  0  0  0  0
  194.5100  174.9910  141.2930 S   0  0  0  0  0  0  0  0  0  0  0  0
  196.1560  175.6600  143.4040 N   0  0  0  0  0  2  0  0  0  0  0  0
  188.9680  176.0280  142.5230 C   0  0  2  0  0  3  0  0  0  0  0  0
  191.5570  175.6190  145.5210 C   0  0  0  0  0  0  0  0  0  0  0  0
  196.7290  176.6100  141.2410 C   0  0  0  0  0  1  0  0  0  0  0  0
  189.7680  174.7410  142.2830 C   0  0  0  0  0  2  0  0  0  0  0  0
  191.4320  175.3810  146.8940 C   0  0  0  0  0  3  0  0  0  0  0  0
  190.0410  177.5080  145.7340 C   0  0  0  0  0  3  0  0  0  0  0  0
  189.9290  177.2660  147.1040 C   0  0  0  0  0  3  0  0  0  0  0  0
  189.8600  177.2500  142.7470 C   0  0  0  0  0  2  0  0  0  0  0  0
  192.4030  173.5760  142.4840 C   0  0  1  0  0  3  0  0  0  0  0  0
  190.1000  173.9820  143.5770 C   0  0  1  0  0  3  0  0  0  0  0  0
  193.7170  174.2730  142.7760 C   0  0  2  0  0  3  0  0  0  0  0  0
  192.3760  174.6550  144.7000 C   0  0  2  0  0  3  0  0  0  0  0  0
  189.7210  172.1970  144.8300 C   0  0  0  0  0  1  0  0  0  0  0  0
  189.3770  172.7870  143.6120 O   0  0  0  0  0  0  0  0  0  0  0  0
  192.6350  172.2340  142.1780 O   0  0  0  0  0  0  0  0  0  0  0  0
  191.9880  172.0300  140.9580 C   0  0  0  0  0  1  0  0  0  0  0  0
  1 14  2  0  0  0  0
  1 18  1  0  0  0  0
  4  1  1  0  0  0  0
  6  2  2  0  0  0  0
  6  5  2  0  0  0  0
  7 15  1  6  0  0  0
  7 12  1  0  0  0  0
  8  6  1  1  0  0  0
  8 24  1  0  0  0  0
 10 24  1  0  0  0  0
 11  7  1  0  0  0  0
 11 23  1  0  0  0  0
 12  6  1  0  0  0  0
 13 20  1  0  0  0  0
 13  9  1  0  0  0  0
 14 17  1  0  0  0  0
 16 13  1  0  0  0  0
 16 22  1  0  0  0  0
 17  3  2  0  0  0  0
 18 19  2  0  0  0  0
 19  3  1  0  0  0  0
 20  4  1  0  0  0  0
 21 23  1  0  0  0  0
 21 10  1  0  0  0  0
 22 26  1  0  0  0  0
 22 10  1  0  0  0  0
 23  8  1  0  0  0  0
 24 14  1  0  0  0  0
 26 25  1  0  0  0  0
 27 21  1  0  0  0  0
 28 27  1  0  0  0  0
M  END
>  <MODEL>
4

>  <REMARK>
 VINA RESULT:      -6.6      2.778      3.656
  Name = 
  2 active torsions:
  status: ('A' for Active; 'I' for Inactive)
    1  A    between atoms: O_5  and  C_24
    2  A    between atoms: O_17  and  C_25
                            x       y       z     vdW  Elec       q    Type
                         _______ _______ _______ _____ _____    ______ ____

>  <TORSDO>
F 2

$$$$
=
 OpenBabel11112417373D

 28 31  0  0  1  0  0  0  0  0999 V2000
  189.0340  175.6660  144.7930 C   0  0  0  0  0  0  0  0  0  0  0  0
  188.4220  173.2340  141.6720 O   0  0  0  0  0  0  0  0  0  0  0  0
  188.0700  177.8980  143.4030 C   0  0  0  0  0  3  0  0  0  0  0  0
  189.5260  174.5570  145.4810 O   0  0  0  0  0  0  0  0  0  0  0  0
  190.1700  174.2930  140.3050 O   0  0  0  0  0  0  0  0  0  0  0  0
  189.9010  173.3380  141.4340 S   0  0  0  0  0  0  0  0  0  0  0  0
  190.7350  171.0480  142.2970 C   0  0  1  0  0  3  0  0  0  0  0  0
  190.7200  173.8680  142.9160 C   0  0  1  0  0  3  0  0  0  0  0  0
  190.5040  176.7420  147.4540 O   0  0  0  0  0  1  0  0  0  0  0  0
  192.1890  175.5810  143.8080 C   0  0  2  0  0  3  0  0  0  0  0  0
  192.2460  171.5800  143.2130 S   0  0  0  0  0  0  0  0  0  0  0  0
  190.5540  171.7780  141.0440 N   0  0  0  0  0  2  0  0  0  0  0  0
  190.8840  175.4060  147.3120 C   0  0  2  0  0  3  0  0  0  0  0  0
  189.6440  176.0610  143.5860 C   0  0  0  0  0  0  0  0  0  0  0  0
  190.8160  169.5640  142.0130 C   0  0  0  0  0  1  0  0  0  0  0  0
  192.0920  175.2510  146.3790 C   0  0  0  0  0  2  0  0  0  0  0  0
  189.1570  177.1790  142.9010 C   0  0  0  0  0  3  0  0  0  0  0  0
  187.9510  176.4000  145.2980 C   0  0  0  0  0  3  0  0  0  0  0  0
  187.4680  177.5100  144.6020 C   0  0  0  0  0  3  0  0  0  0  0  0
  189.6930  174.5440  146.8920 C   0  0  0  0  0  2  0  0  0  0  0  0
  192.9200  174.2360  143.8050 C   0  0  1  0  0  3  0  0  0  0  0  0
  192.0810  176.2390  145.2020 C   0  0  1  0  0  3  0  0  0  0  0  0
  192.1350  173.3670  142.8430 C   0  0  2  0  0  3  0  0  0  0  0  0
  190.8680  175.3680  143.0420 C   0  0  2  0  0  3  0  0  0  0  0  0
  193.9110  176.6380  146.3810 C   0  0  0  0  0  1  0  0  0  0  0  0
  193.1120  177.1660  145.3640 O   0  0  0  0  0  0  0  0  0  0  0  0
  194.2250  174.4030  143.3390 O   0  0  0  0  0  0  0  0  0  0  0  0
  195.0330  173.8420  144.3290 C   0  0  0  0  0  1  0  0  0  0  0  0
  1 18  1  0  0  0  0
  1  4  1  0  0  0  0
  3 19  1  0  0  0  0
  4 20  1  0  0  0  0
  5  6  2  0  0  0  0
  6  2  2  0  0  0  0
  7 15  1  6  0  0  0
  7 11  1  0  0  0  0
  8  6  1  6  0  0  0
  8 24  1  0  0  0  0
 10 22  1  0  0  0  0
 12  6  1  0  0  0  0
 12  7  1  0  0  0  0
 13  9  1  0  0  0  0
 14  1  2  0  0  0  0
 16 13  1  0  0  0  0
 17  3  2  0  0  0  0
 17 14  1  0  0  0  0
 19 18  2  0  0  0  0
 20 13  1  0  0  0  0
 21 10  1  0  0  0  0
 22 26  1  0  0  0  0
 22 16  1  0  0  0  0
 23  8  1  0  0  0  0
 23 11  1  0  0  0  0
 23 21  1  0  0  0  0
 24 14  1  0  0  0  0
 24 10  1  0  0  0  0
 26 25  1  0  0  0  0
 27 21  1  0  0  0  0
 27 28  1  0  0  0  0
M  END
>  <MODEL>
5

>  <REMARK>
 VINA RESULT:      -6.5      2.736      5.434
  Name = 
  2 active torsions:
  status: ('A' for Active; 'I' for Inactive)
    1  A    between atoms: O_5  and  C_24
    2  A    between atoms: O_17  and  C_25
                            x       y       z     vdW  Elec       q    Type
                         _______ _______ _______ _____ _____    ______ ____

>  <TORSDO>
F 2

$$$$
=
 OpenBabel11112417373D

 28 31  0  0  1  0  0  0  0  0999 V2000
  190.5210  175.9680  144.8970 C   0  0  0  0  0  0  0  0  0  0  0  0
  193.2190  173.0230  144.6250 O   0  0  0  0  0  0  0  0  0  0  0  0
  189.4500  174.9380  147.2700 C   0  0  0  0  0  3  0  0  0  0  0  0
  191.0450  176.4740  143.7080 O   0  0  0  0  0  0  0  0  0  0  0  0
  191.5220  171.2970  144.1960 O   0  0  0  0  0  0  0  0  0  0  0  0
  192.3090  172.4250  143.5910 S   0  0  0  0  0  0  0  0  0  0  0  0
  193.5670  172.9760  141.4010 C   0  0  1  0  0  3  0  0  0  0  0  0
  191.2250  173.6710  142.9410 C   0  0  1  0  0  3  0  0  0  0  0  0
  188.4750  178.2080  143.8030 O   0  0  0  0  0  1  0  0  0  0  0  0
  188.8850  174.2200  142.6160 C   0  0  2  0  0  3  0  0  0  0  0  0
  192.1510  173.5000  140.3400 S   0  0  0  0  0  0  0  0  0  0  0  0
  193.2380  171.8330  142.2500 N   0  0  0  0  0  2  0  0  0  0  0  0
  189.3500  177.9320  142.7490 C   0  0  2  0  0  3  0  0  0  0  0  0
  189.9980  174.6600  144.9230 C   0  0  0  0  0  0  0  0  0  0  0  0
  194.7510  172.6320  140.5240 C   0  0  0  0  0  1  0  0  0  0  0  0
  188.8900  176.7210  141.9270 C   0  0  0  0  0  2  0  0  0  0  0  0
  189.4630  174.1560  146.1130 C   0  0  0  0  0  3  0  0  0  0  0  0
  190.4940  176.7520  146.0580 C   0  0  0  0  0  3  0  0  0  0  0  0
  189.9630  176.2370  147.2430 C   0  0  0  0  0  3  0  0  0  0  0  0
  190.7860  177.7960  143.2580 C   0  0  0  0  0  2  0  0  0  0  0  0
  189.5470  173.9900  141.2540 C   0  0  1  0  0  3  0  0  0  0  0  0
  188.2460  175.6170  142.7790 C   0  0  1  0  0  3  0  0  0  0  0  0
  190.8200  173.2290  141.5630 C   0  0  2  0  0  3  0  0  0  0  0  0
  189.9160  173.8040  143.6840 C   0  0  2  0  0  3  0  0  0  0  0  0
  186.2490  176.0720  143.6190 C   0  0  0  0  0  1  0  0  0  0  0  0
  186.8820  175.5460  142.4910 O   0  0  0  0  0  0  0  0  0  0  0  0
  188.7140  173.2170  140.4430 O   0  0  0  0  0  0  0  0  0  0  0  0
  188.4550  174.0180  139.3310 C   0  0  0  0  0  1  0  0  0  0  0  0
  1 14  2  0  0  0  0
  1 18  1  0  0  0  0
  4  1  1  0  0  0  0
  6  5  2  0  0  0  0
  6  2  2  0  0  0  0
  7 15  1  6  0  0  0
  7 12  1  0  0  0  0
  8  6  1  1  0  0  0
  8 24  1  0  0  0  0
 10 22  1  0  0  0  0
 10 24  1  0  0  0  0
 11  7  1  0  0  0  0
 11 23  1  0  0  0  0
 12  6  1  0  0  0  0
 13 20  1  0  0  0  0
 13  9  1  0  0  0  0
 14 17  1  0  0  0  0
 16 13  1  0  0  0  0
 16 22  1  0  0  0  0
 17  3  2  0  0  0  0
 18 19  2  0  0  0  0
 19  3  1  0  0  0  0
 20  4  1  0  0  0  0
 21 23  1  0  0  0  0
 21 10  1  0  0  0  0
 23  8  1  0  0  0  0
 24 14  1  0  0  0  0
 26 22  1  0  0  0  0
 26 25  1  0  0  0  0
 27 21  1  0  0  0  0
 28 27  1  0  0  0  0
M  END
>  <MODEL>
6

>  <REMARK>
 VINA RESULT:      -6.3      2.693      4.043
  Name = 
  2 active torsions:
  status: ('A' for Active; 'I' for Inactive)
    1  A    between atoms: O_5  and  C_24
    2  A    between atoms: O_17  and  C_25
                            x       y       z     vdW  Elec       q    Type
                         _______ _______ _______ _____ _____    ______ ____

>  <TORSDO>
F 2

$$$$
=
 OpenBabel11112417373D

 28 31  0  0  1  0  0  0  0  0999 V2000
  192.4440  174.2270  143.7090 C   0  0  0  0  0  0  0  0  0  0  0  0
  189.6320  173.8700  140.8830 O   0  0  0  0  0  0  0  0  0  0  0  0
  192.7420  171.4520  143.9410 C   0  0  0  0  0  3  0  0  0  0  0  0
  192.2870  175.6090  143.6030 O   0  0  0  0  0  0  0  0  0  0  0  0
  187.9850  172.8930  142.4250 O   0  0  0  0  0  0  0  0  0  0  0  0
  188.6440  174.1670  141.9750 S   0  0  0  0  0  0  0  0  0  0  0  0
  188.0100  176.6190  141.4590 C   0  0  1  0  0  3  0  0  0  0  0  0
  189.4600  174.9680  143.3320 C   0  0  1  0  0  3  0  0  0  0  0  0
  193.9520  175.5760  146.2210 O   0  0  0  0  0  1  0  0  0  0  0  0
  189.8770  174.7900  145.7150 C   0  0  2  0  0  3  0  0  0  0  0  0
  188.0100  177.3180  143.1670 S   0  0  0  0  0  0  0  0  0  0  0  0
  187.4380  175.2760  141.4030 N   0  0  0  0  0  2  0  0  0  0  0  0
  193.1640  176.5800  145.6540 C   0  0  2  0  0  3  0  0  0  0  0  0
  191.3370  173.4270  144.0510 C   0  0  0  0  0  0  0  0  0  0  0  0
  187.2360  177.5390  140.5410 C   0  0  0  0  0  1  0  0  0  0  0  0
  191.7260  176.5480  146.1880 C   0  0  0  0  0  2  0  0  0  0  0  0
  191.4960  172.0420  144.1670 C   0  0  0  0  0  3  0  0  0  0  0  0
  193.6950  173.6300  143.4950 C   0  0  0  0  0  3  0  0  0  0  0  0
  193.8420  172.2460  143.6060 C   0  0  0  0  0  3  0  0  0  0  0  0
  193.2340  176.5290  144.1280 C   0  0  0  0  0  2  0  0  0  0  0  0
  188.9880  176.0070  145.4440 C   0  0  1  0  0  3  0  0  0  0  0  0
  191.2020  175.1240  146.4360 C   0  0  1  0  0  3  0  0  0  0  0  0
  188.4210  175.7750  144.0580 C   0  0  2  0  0  3  0  0  0  0  0  0
  189.9910  174.0210  144.3840 C   0  0  2  0  0  3  0  0  0  0  0  0
  191.1920  176.1840  148.3780 C   0  0  0  0  0  1  0  0  0  0  0  0
  191.0550  174.9170  147.8080 O   0  0  0  0  0  0  0  0  0  0  0  0
  187.9530  176.0590  146.3790 O   0  0  0  0  0  0  0  0  0  0  0  0
  187.9960  177.3580  146.8880 C   0  0  0  0  0  1  0  0  0  0  0  0
  1 14  1  0  0  0  0
  2  6  2  0  0  0  0
  3 17  1  0  0  0  0
  4  1  1  0  0  0  0
  4 20  1  0  0  0  0
  6  5  2  0  0  0  0
  7 15  1  6  0  0  0
  7 11  1  0  0  0  0
  8  6  1  6  0  0  0
  8 23  1  0  0  0  0
  8 24  1  0  0  0  0
 10 22  1  0  0  0  0
 11 23  1  0  0  0  0
 12  7  1  0  0  0  0
 12  6  1  0  0  0  0
 13 16  1  0  0  0  0
 13  9  1  0  0  0  0
 14 17  2  0  0  0  0
 14 24  1  0  0  0  0
 16 22  1  0  0  0  0
 18 19  1  0  0  0  0
 18  1  2  0  0  0  0
 19  3  2  0  0  0  0
 20 13  1  0  0  0  0
 21 10  1  0  0  0  0
 21 27  1  0  0  0  0
 22 26  1  0  0  0  0
 23 21  1  0  0  0  0
 24 10  1  0  0  0  0
 26 25  1  0  0  0  0
 27 28  1  0  0  0  0
M  END
>  <MODEL>
7

>  <REMARK>
 VINA RESULT:      -6.3      2.763      6.359
  Name = 
  2 active torsions:
  status: ('A' for Active; 'I' for Inactive)
    1  A    between atoms: O_5  and  C_24
    2  A    between atoms: O_17  and  C_25
                            x       y       z     vdW  Elec       q    Type
                         _______ _______ _______ _____ _____    ______ ____

>  <TORSDO>
F 2

$$$$
=
 OpenBabel11112417373D

 28 31  0  0  1  0  0  0  0  0999 V2000
  191.0270  173.6880  144.2500 C   0  0  0  0  0  0  0  0  0  0  0  0
  189.8310  176.7790  146.4960 O   0  0  0  0  0  0  0  0  0  0  0  0
  193.6400  174.6770  144.0590 C   0  0  0  0  0  3  0  0  0  0  0  0
  189.7230  173.2020  144.3350 O   0  0  0  0  0  0  0  0  0  0  0  0
  190.0700  178.4020  144.6650 O   0  0  0  0  0  0  0  0  0  0  0  0
  189.2060  177.3150  145.2410 S   0  0  0  0  0  0  0  0  0  0  0  0
  186.7020  176.8180  145.6450 C   0  0  1  0  0  3  0  0  0  0  0  0
  188.9780  176.0040  144.0670 C   0  0  1  0  0  3  0  0  0  0  0  0
  190.7230  171.3250  142.0770 O   0  0  0  0  0  1  0  0  0  0  0  0
  189.5190  175.3200  141.8030 C   0  0  2  0  0  3  0  0  0  0  0  0
  186.2200  176.2050  143.9730 S   0  0  0  0  0  0  0  0  0  0  0  0
  187.6260  177.9480  145.5830 N   0  0  0  0  0  2  0  0  0  0  0  0
  189.4280  171.6410  142.4920 C   0  0  2  0  0  3  0  0  0  0  0  0
  191.2580  174.9640  143.7010 C   0  0  0  0  0  0  0  0  0  0  0  0
  185.4590  177.2200  146.4090 C   0  0  0  0  0  1  0  0  0  0  0  0
  188.8430  172.8170  141.6980 C   0  0  0  0  0  2  0  0  0  0  0  0
  192.5680  175.4480  143.6070 C   0  0  0  0  0  3  0  0  0  0  0  0
  192.1100  172.9140  144.6920 C   0  0  0  0  0  3  0  0  0  0  0  0
  193.4120  173.4090  144.6000 C   0  0  0  0  0  3  0  0  0  0  0  0
  189.3810  171.8630  144.0050 C   0  0  0  0  0  2  0  0  0  0  0  0
  188.0120  175.5750  141.9100 C   0  0  1  0  0  3  0  0  0  0  0  0
  189.8850  173.8900  141.3460 C   0  0  1  0  0  3  0  0  0  0  0  0
  187.8470  176.4110  143.1640 C   0  0  2  0  0  3  0  0  0  0  0  0
  190.1440  175.8030  143.1260 C   0  0  2  0  0  3  0  0  0  0  0  0
  188.9720  173.2900  139.4210 C   0  0  0  0  0  1  0  0  0  0  0  0
  190.1130  173.8820  139.9690 O   0  0  0  0  0  0  0  0  0  0  0  0
  187.5690  176.2930  140.7990 O   0  0  0  0  0  0  0  0  0  0  0  0
  187.7470  177.6330  141.1440 C   0  0  0  0  0  1  0  0  0  0  0  0
  1  4  1  0  0  0  0
  1 18  1  0  0  0  0
  3 19  1  0  0  0  0
  5  6  2  0  0  0  0
  6 12  1  0  0  0  0
  6  2  2  0  0  0  0
  7 15  1  6  0  0  0
  8  6  1  1  0  0  0
  9 13  1  0  0  0  0
 10 21  1  0  0  0  0
 10 24  1  0  0  0  0
 11  7  1  0  0  0  0
 12  7  1  0  0  0  0
 13 20  1  0  0  0  0
 14  1  2  0  0  0  0
 16 13  1  0  0  0  0
 17 14  1  0  0  0  0
 17  3  2  0  0  0  0
 19 18  2  0  0  0  0
 20  4  1  0  0  0  0
 21 23  1  0  0  0  0
 22 16  1  0  0  0  0
 22 10  1  0  0  0  0
 23 11  1  0  0  0  0
 23  8  1  0  0  0  0
 24 14  1  0  0  0  0
 24  8  1  0  0  0  0
 25 26  1  0  0  0  0
 26 22  1  0  0  0  0
 27 28  1  0  0  0  0
 27 21  1  0  0  0  0
M  END
>  <MODEL>
8

>  <REMARK>
 VINA RESULT:      -6.3      2.226      5.403
  Name = 
  2 active torsions:
  status: ('A' for Active; 'I' for Inactive)
    1  A    between atoms: O_5  and  C_24
    2  A    between atoms: O_17  and  C_25
                            x       y       z     vdW  Elec       q    Type
                         _______ _______ _______ _____ _____    ______ ____

>  <TORSDO>
F 2

$$$$
=
 OpenBabel11112417373D

 28 31  0  0  1  0  0  0  0  0999 V2000
  189.7000  175.3680  143.9340 C   0  0  0  0  0  0  0  0  0  0  0  0
  192.6330  174.5230  141.3440 O   0  0  0  0  0  0  0  0  0  0  0  0
  188.7920  177.5250  142.3960 C   0  0  0  0  0  3  0  0  0  0  0  0
  190.1610  174.3020  144.7070 O   0  0  0  0  0  0  0  0  0  0  0  0
  193.8730  176.5900  141.8330 O   0  0  0  0  0  0  0  0  0  0  0  0
  193.5500  175.2050  142.3200 S   0  0  0  0  0  0  0  0  0  0  0  0
  194.7440  173.1910  143.4150 C   0  0  1  0  0  3  0  0  0  0  0  0
  192.7970  175.2600  143.9250 C   0  0  1  0  0  3  0  0  0  0  0  0
  188.2790  175.5710  146.8220 O   0  0  0  0  0  1  0  0  0  0  0  0
  192.1190  176.7780  145.6930 C   0  0  2  0  0  3  0  0  0  0  0  0
  194.7270  173.7270  145.1800 S   0  0  0  0  0  0  0  0  0  0  0  0
  195.0170  174.2940  142.4960 N   0  0  0  0  0  2  0  0  0  0  0  0
  189.3160  174.6460  146.9630 C   0  0  2  0  0  3  0  0  0  0  0  0
  190.5710  176.4340  143.6330 C   0  0  0  0  0  0  0  0  0  0  0  0
  195.7840  172.1070  143.2300 C   0  0  0  0  0  1  0  0  0  0  0  0
  190.6550  175.3310  147.2710 C   0  0  0  0  0  2  0  0  0  0  0  0
  190.1070  177.5080  142.8670 C   0  0  0  0  0  3  0  0  0  0  0  0
  188.3780  175.3970  143.4690 C   0  0  0  0  0  3  0  0  0  0  0  0
  187.9270  176.4710  142.6990 C   0  0  0  0  0  3  0  0  0  0  0  0
  189.3870  173.7210  145.7480 C   0  0  0  0  0  2  0  0  0  0  0  0
  193.2720  175.9000  146.1900 C   0  0  1  0  0  3  0  0  0  0  0  0
  190.8330  176.6720  146.5420 C   0  0  1  0  0  3  0  0  0  0  0  0
  193.9080  175.3430  144.9330 C   0  0  2  0  0  3  0  0  0  0  0  0
  191.9740  176.5030  144.1830 C   0  0  2  0  0  3  0  0  0  0  0  0
  191.2570  177.1470  148.6610 C   0  0  0  0  0  1  0  0  0  0  0  0
  190.7970  177.7130  147.4710 O   0  0  0  0  0  0  0  0  0  0  0  0
  194.1970  176.6780  146.8880 O   0  0  0  0  0  0  0  0  0  0  0  0
  194.7330  177.5410  145.9310 C   0  0  0  0  0  1  0  0  0  0  0  0
  1  4  1  0  0  0  0
  2  6  2  0  0  0  0
  3 19  2  0  0  0  0
  3 17  1  0  0  0  0
  4 20  1  0  0  0  0
  5  6  2  0  0  0  0
  6 12  1  0  0  0  0
  7 15  1  1  0  0  0
  7 11  1  0  0  0  0
  8  6  1  6  0  0  0
  8 24  1  0  0  0  0
  8 23  1  0  0  0  0
  9 13  1  0  0  0  0
 10 21  1  0  0  0  0
 10 22  1  0  0  0  0
 12  7  1  0  0  0  0
 13 16  1  0  0  0  0
 14  1  1  0  0  0  0
 14 24  1  0  0  0  0
 17 14  2  0  0  0  0
 18  1  2  0  0  0  0
 19 18  1  0  0  0  0
 20 13  1  0  0  0  0
 21 27  1  0  0  0  0
 22 16  1  0  0  0  0
 22 26  1  0  0  0  0
 23 11  1  0  0  0  0
 23 21  1  0  0  0  0
 24 10  1  0  0  0  0
 26 25  1  0  0  0  0
 28 27  1  0  0  0  0
M  END
>  <MODEL>
9

>  <REMARK>
 VINA RESULT:      -6.2      2.757      5.253
  Name = 
  2 active torsions:
  status: ('A' for Active; 'I' for Inactive)
    1  A    between atoms: O_5  and  C_24
    2  A    between atoms: O_17  and  C_25
                            x       y       z     vdW  Elec       q    Type
                         _______ _______ _______ _____ _____    ______ ____

>  <TORSDO>
F 2

$$$$
