=
 OpenBabel11112417493D

 34 41  0  0  1  0  0  0  0  0999 V2000
  189.7210  173.9520  143.6050 C   0  0  0  0  0  0  0  0  0  0  0  0
  191.7530  172.4610  143.8500 C   0  0  0  0  0  2  0  0  0  0  0  0
  185.7590  178.2310  145.5820 C   0  0  2  0  0  3  0  0  0  0  0  0
  188.0610  175.6300  143.1280 C   0  0  0  0  0  0  0  0  0  0  0  0
  188.0250  177.8360  144.3790 C   0  0  1  0  0  3  0  0  0  0  0  0
  186.8270  176.4490  146.0030 O   0  0  0  0  0  0  0  0  0  0  0  0
  185.4610  176.7900  145.9570 C   0  0  0  0  0  2  0  0  0  0  0  0
  185.1560  177.6040  143.3830 C   0  0  0  0  0  2  0  0  0  0  0  0
  191.4470  174.2770  145.4250 C   0  0  2  0  0  3  0  0  0  0  0  0
  194.1330  176.1020  145.7770 C   0  0  0  0  0  2  0  0  0  0  0  0
  189.5080  177.5650  144.6470 C   0  0  0  0  0  2  0  0  0  0  0  0
  186.3880  177.4030  142.5200 C   0  0  0  0  0  2  0  0  0  0  0  0
  191.2260  175.7950  145.2350 C   0  0  1  0  0  3  0  0  0  0  0  0
  192.9810  172.5070  144.7460 C   0  0  0  0  0  2  0  0  0  0  0  0
  187.5000  176.9400  143.3390 N   0  0  0  0  0  0  0  0  0  0  0  0
  185.3700  178.6700  144.2800 O   0  0  0  0  0  0  0  0  0  0  0  0
  193.9350  174.8360  144.9230 C   0  0  1  0  0  3  0  0  0  0  0  0
  189.1780  175.2150  143.8690 C   0  0  0  0  0  0  0  0  0  0  0  0
  187.2020  177.7680  145.6820 C   0  0  2  0  0  3  0  0  0  0  0  0
  189.7400  176.0860  144.9700 C   0  0  2  0  0  3  0  0  0  0  0  0
  188.0930  173.5870  141.9300 C   0  0  0  0  0  3  0  0  0  0  0  0
  193.1280  176.2570  146.9210 C   0  0  0  0  0  2  0  0  0  0  0  0
  187.5470  174.8070  142.1740 N   0  0  0  0  0  0  0  0  0  0  0  0
  191.7180  176.6110  146.4400 C   0  0  0  0  0  2  0  0  0  0  0  0
  192.9170  173.8290  145.5040 C   0  0  1  0  0  3  0  0  0  0  0  0
  189.1730  173.1690  142.6390 N   0  0  0  0  0  0  0  0  0  0  0  0
  190.8840  173.5200  144.3210 N   0  0  0  0  0  0  0  0  0  0  0  0
  193.6060  175.1960  143.6100 O   0  0  0  0  0  0  0  0  0  0  0  0
  194.6330  176.0480  143.1950 C   0  0  0  0  0  2  0  0  0  0  0  0
  197.0390  175.7660  140.5920 C   0  0  0  0  0  2  0  0  0  0  0  0
  197.0540  175.5710  142.9650 C   0  0  0  0  0  2  0  0  0  0  0  0
  195.6790  175.2550  142.4320 C   0  0  2  0  0  3  0  0  0  0  0  0
  197.9400  175.4390  141.7620 C   0  0  0  0  0  2  0  0  0  0  0  0
  195.6520  175.6070  141.0170 N   0  0  0  0  0  2  0  0  0  0  0  0
  1 18  1  0  0  0  0
  1 27  1  0  0  0  0
  2 27  1  0  0  0  0
  2 14  1  0  0  0  0
  3 19  1  0  0  0  0
  3  7  1  6  0  0  0
  4 15  1  0  0  0  0
  4 18  2  0  0  0  0
  5 11  1  1  0  0  0
  5 19  1  0  0  0  0
  7  6  1  0  0  0  0
  8 16  1  0  0  0  0
  9 27  1  6  0  0  0
  9 25  1  0  0  0  0
 10 22  1  0  0  0  0
 12 15  1  0  0  0  0
 12  8  1  0  0  0  0
 13  9  1  0  0  0  0
 13 24  1  1  0  0  0
 15  5  1  0  0  0  0
 16  3  1  0  0  0  0
 17 28  1  6  0  0  0
 17 25  1  0  0  0  0
 17 10  1  0  0  0  0
 18 20  1  0  0  0  0
 19  6  1  6  0  0  0
 20 11  1  6  0  0  0
 20 13  1  0  0  0  0
 21 23  2  0  0  0  0
 21 26  1  0  0  0  0
 23  4  1  0  0  0  0
 24 22  1  0  0  0  0
 25 14  1  6  0  0  0
 26  1  2  0  0  0  0
 29 28  1  0  0  0  0
 30 34  1  0  0  0  0
 30 33  1  0  0  0  0
 32 31  1  0  0  0  0
 32 29  1  1  0  0  0
 33 31  1  0  0  0  0
 34 32  1  0  0  0  0
M  END
>  <MODEL>
1

>  <REMARK>
 VINA RESULT:      -8.5      0.000      0.000
  Name = 
  3 active torsions:
  status: ('A' for Active; 'I' for Inactive)
    1  A    between atoms: C_17  and  O_28
    2  A    between atoms: O_28  and  C_29
    3  A    between atoms: C_29  and  C_32
                            x       y       z     vdW  Elec       q    Type
                         _______ _______ _______ _____ _____    ______ ____

>  <TORSDO>
F 3

$$$$
=
 OpenBabel11112417493D

 34 41  0  0  1  0  0  0  0  0999 V2000
  191.1230  173.0750  143.2340 C   0  0  0  0  0  0  0  0  0  0  0  0
  188.7020  173.0970  142.4920 C   0  0  0  0  0  2  0  0  0  0  0  0
  196.8070  175.4200  143.5530 C   0  0  2  0  0  3  0  0  0  0  0  0
  193.2630  173.2040  144.3320 C   0  0  0  0  0  0  0  0  0  0  0  0
  194.4500  175.4230  144.6390 C   0  0  1  0  0  3  0  0  0  0  0  0
  195.1370  174.9310  142.3410 O   0  0  0  0  0  0  0  0  0  0  0  0
  196.4910  174.5400  142.3570 C   0  0  0  0  0  2  0  0  0  0  0  0
  196.7430  173.4260  144.8210 C   0  0  0  0  0  2  0  0  0  0  0  0
  190.0040  175.1280  142.2690 C   0  0  2  0  0  3  0  0  0  0  0  0
  188.4820  177.7390  143.5070 C   0  0  0  0  0  2  0  0  0  0  0  0
  193.0570  176.0440  144.5090 C   0  0  0  0  0  2  0  0  0  0  0  0
  195.4360  173.3120  145.5860 C   0  0  0  0  0  2  0  0  0  0  0  0
  190.8410  175.9450  143.2800 C   0  0  1  0  0  3  0  0  0  0  0  0
  187.7650  174.1940  142.0110 C   0  0  0  0  0  2  0  0  0  0  0  0
  194.3680  173.9710  144.8470 N   0  0  0  0  0  0  0  0  0  0  0  0
  197.1550  174.7740  144.7770 O   0  0  0  0  0  0  0  0  0  0  0  0
  187.9740  176.2890  143.4030 C   0  0  1  0  0  3  0  0  0  0  0  0
  192.1990  173.8500  143.6830 C   0  0  0  0  0  0  0  0  0  0  0  0
  195.3400  175.7950  143.4360 C   0  0  2  0  0  3  0  0  0  0  0  0
  192.2470  175.3380  143.4190 C   0  0  2  0  0  3  0  0  0  0  0  0
  192.1580  171.1240  144.0770 C   0  0  0  0  0  3  0  0  0  0  0  0
  189.6080  178.0870  142.5310 C   0  0  0  0  0  2  0  0  0  0  0  0
  193.2150  171.8560  144.5150 N   0  0  0  0  0  0  0  0  0  0  0  0
  190.9420  177.4270  142.8900 C   0  0  0  0  0  2  0  0  0  0  0  0
  188.5170  175.5110  142.1830 C   0  0  1  0  0  3  0  0  0  0  0  0
  191.1210  171.7330  143.4460 N   0  0  0  0  0  0  0  0  0  0  0  0
  190.0070  173.7150  142.6030 N   0  0  0  0  0  0  0  0  0  0  0  0
  188.2310  175.6090  144.5990 O   0  0  0  0  0  0  0  0  0  0  0  0
  187.8450  176.4890  145.6130 C   0  0  0  0  0  2  0  0  0  0  0  0
  190.7100  175.0990  147.1940 C   0  0  0  0  0  2  0  0  0  0  0  0
  189.8150  177.2840  146.8870 C   0  0  0  0  0  2  0  0  0  0  0  0
  188.7060  176.2640  146.8420 C   0  0  2  0  0  3  0  0  0  0  0  0
  190.9460  176.5510  147.5460 C   0  0  0  0  0  2  0  0  0  0  0  0
  189.3140  174.9390  146.8020 N   0  0  0  0  0  2  0  0  0  0  0  0
  1 26  2  0  0  0  0
  1 18  1  0  0  0  0
  2 27  1  0  0  0  0
  3  7  1  6  0  0  0
  3 16  1  0  0  0  0
  4 23  1  0  0  0  0
  4 15  1  0  0  0  0
  5 11  1  6  0  0  0
  5 15  1  0  0  0  0
  6  7  1  0  0  0  0
  8 12  1  0  0  0  0
  9 27  1  1  0  0  0
  9 13  1  0  0  0  0
 13 24  1  6  0  0  0
 13 20  1  0  0  0  0
 14  2  1  0  0  0  0
 15 12  1  0  0  0  0
 16  8  1  0  0  0  0
 17 10  1  0  0  0  0
 17 28  1  1  0  0  0
 18  4  2  0  0  0  0
 19  6  1  6  0  0  0
 19  3  1  0  0  0  0
 19  5  1  0  0  0  0
 20 18  1  0  0  0  0
 20 11  1  1  0  0  0
 21 23  2  0  0  0  0
 22 24  1  0  0  0  0
 22 10  1  0  0  0  0
 25 14  1  1  0  0  0
 25  9  1  0  0  0  0
 25 17  1  0  0  0  0
 26 21  1  0  0  0  0
 27  1  1  0  0  0  0
 28 29  1  0  0  0  0
 30 33  1  0  0  0  0
 31 33  1  0  0  0  0
 32 29  1  6  0  0  0
 32 31  1  0  0  0  0
 34 32  1  0  0  0  0
 34 30  1  0  0  0  0
M  END
>  <MODEL>
2

>  <REMARK>
 VINA RESULT:      -8.1      2.100      7.282
  Name = 
  3 active torsions:
  status: ('A' for Active; 'I' for Inactive)
    1  A    between atoms: C_17  and  O_28
    2  A    between atoms: O_28  and  C_29
    3  A    between atoms: C_29  and  C_32
                            x       y       z     vdW  Elec       q    Type
                         _______ _______ _______ _____ _____    ______ ____

>  <TORSDO>
F 3

$$$$
=
 OpenBabel11112417493D

 34 41  0  0  1  0  0  0  0  0999 V2000
  189.8990  176.6210  144.7280 C   0  0  0  0  0  0  0  0  0  0  0  0
  192.0400  175.6510  143.7850 C   0  0  0  0  0  2  0  0  0  0  0  0
  184.2610  179.0430  144.2290 C   0  0  2  0  0  3  0  0  0  0  0  0
  187.7520  177.1140  145.7020 C   0  0  0  0  0  0  0  0  0  0  0  0
  185.6110  176.8310  144.3720 C   0  0  1  0  0  3  0  0  0  0  0  0
  186.2760  179.0470  143.5710 O   0  0  0  0  0  0  0  0  0  0  0  0
  185.4330  180.0060  144.1660 C   0  0  0  0  0  2  0  0  0  0  0  0
  184.7850  178.8220  146.5240 C   0  0  0  0  0  2  0  0  0  0  0  0
  190.1230  175.8800  142.3200 C   0  0  2  0  0  3  0  0  0  0  0  0
  189.4720  173.1420  140.6640 C   0  0  0  0  0  2  0  0  0  0  0  0
  186.4170  175.8460  143.5210 C   0  0  0  0  0  2  0  0  0  0  0  0
  185.5250  177.5230  146.7880 C   0  0  0  0  0  2  0  0  0  0  0  0
  188.6620  175.3890  142.4330 C   0  0  1  0  0  3  0  0  0  0  0  0
  192.4030  175.0230  142.4480 C   0  0  0  0  0  2  0  0  0  0  0  0
  186.3140  177.1530  145.6210 N   0  0  0  0  0  0  0  0  0  0  0  0
  183.8160  178.6250  145.5200 O   0  0  0  0  0  0  0  0  0  0  0  0
  190.6260  173.4220  141.6430 C   0  0  1  0  0  3  0  0  0  0  0  0
  188.5070  176.6880  144.5980 C   0  0  0  0  0  0  0  0  0  0  0  0
  185.2410  178.0920  143.5650 C   0  0  2  0  0  3  0  0  0  0  0  0
  187.8360  176.3710  143.2810 C   0  0  2  0  0  3  0  0  0  0  0  0
  189.7380  177.3590  146.9680 C   0  0  0  0  0  3  0  0  0  0  0  0
  188.8400  174.3950  140.0550 C   0  0  0  0  0  2  0  0  0  0  0  0
  188.3860  177.4370  146.8610 N   0  0  0  0  0  0  0  0  0  0  0  0
  188.0050  175.1960  141.0580 C   0  0  0  0  0  2  0  0  0  0  0  0
  191.1020  174.8930  141.6620 C   0  0  1  0  0  3  0  0  0  0  0  0
  190.4840  176.9500  145.9100 N   0  0  0  0  0  0  0  0  0  0  0  0
  190.6900  176.1520  143.6290 N   0  0  0  0  0  0  0  0  0  0  0  0
  190.2790  172.9810  142.9260 O   0  0  0  0  0  0  0  0  0  0  0  0
  190.3980  171.5890  142.8800 C   0  0  0  0  0  2  0  0  0  0  0  0
  193.9240  171.6420  143.3370 C   0  0  0  0  0  2  0  0  0  0  0  0
  192.0190  172.1960  144.6530 C   0  0  0  0  0  2  0  0  0  0  0  0
  191.6480  171.1570  143.6250 C   0  0  2  0  0  3  0  0  0  0  0  0
  193.5160  172.1190  144.7130 C   0  0  0  0  0  2  0  0  0  0  0  0
  192.7680  171.0180  142.7010 N   0  0  0  0  0  2  0  0  0  0  0  0
  1 26  1  0  0  0  0
  3  7  1  1  0  0  0
  3 16  1  0  0  0  0
  4 23  2  0  0  0  0
  5 11  1  6  0  0  0
  5 15  1  0  0  0  0
  6  7  1  0  0  0  0
  8 12  1  0  0  0  0
  9 13  1  0  0  0  0
  9 27  1  1  0  0  0
 10 17  1  0  0  0  0
 13 24  1  6  0  0  0
 13 20  1  0  0  0  0
 14  2  1  0  0  0  0
 15  4  1  0  0  0  0
 15 12  1  0  0  0  0
 16  8  1  0  0  0  0
 17 25  1  0  0  0  0
 17 28  1  1  0  0  0
 18  1  2  0  0  0  0
 18  4  1  0  0  0  0
 19  6  1  1  0  0  0
 19  3  1  0  0  0  0
 19  5  1  0  0  0  0
 20 11  1  1  0  0  0
 20 18  1  0  0  0  0
 22 10  1  0  0  0  0
 22 24  1  0  0  0  0
 23 21  1  0  0  0  0
 25  9  1  0  0  0  0
 25 14  1  1  0  0  0
 26 21  2  0  0  0  0
 27  2  1  0  0  0  0
 27  1  1  0  0  0  0
 29 28  1  0  0  0  0
 30 33  1  0  0  0  0
 31 33  1  0  0  0  0
 32 29  1  6  0  0  0
 32 31  1  0  0  0  0
 34 30  1  0  0  0  0
 34 32  1  0  0  0  0
M  END
>  <MODEL>
3

>  <REMARK>
 VINA RESULT:      -8.0      2.782      4.642
  Name = 
  3 active torsions:
  status: ('A' for Active; 'I' for Inactive)
    1  A    between atoms: C_17  and  O_28
    2  A    between atoms: O_28  and  C_29
    3  A    between atoms: C_29  and  C_32
                            x       y       z     vdW  Elec       q    Type
                         _______ _______ _______ _____ _____    ______ ____

>  <TORSDO>
F 3

$$$$
=
 OpenBabel11112417493D

 34 41  0  0  1  0  0  0  0  0999 V2000
  193.1390  175.2660  143.3520 C   0  0  0  0  0  0  0  0  0  0  0  0
  193.6230  176.5950  145.4530 C   0  0  0  0  0  2  0  0  0  0  0  0
  190.7400  170.4990  140.2800 C   0  0  2  0  0  3  0  0  0  0  0  0
  192.3500  174.3030  141.2900 C   0  0  0  0  0  0  0  0  0  0  0  0
  190.2600  172.8680  141.2250 C   0  0  1  0  0  3  0  0  0  0  0  0
  191.8740  171.1720  141.9410 O   0  0  0  0  0  0  0  0  0  0  0  0
  192.1370  170.3200  140.8490 C   0  0  0  0  0  2  0  0  0  0  0  0
  191.7480  171.9680  138.7250 C   0  0  0  0  0  2  0  0  0  0  0  0
  191.9700  174.8250  145.5520 C   0  0  2  0  0  3  0  0  0  0  0  0
  189.1710  175.7940  146.9280 C   0  0  0  0  0  2  0  0  0  0  0  0
  189.8660  173.6040  142.5090 C   0  0  0  0  0  2  0  0  0  0  0  0
  191.4930  173.4160  139.1020 C   0  0  0  0  0  2  0  0  0  0  0  0
  190.7040  174.5340  144.7140 C   0  0  1  0  0  3  0  0  0  0  0  0
  192.9940  176.6270  146.8370 C   0  0  0  0  0  2  0  0  0  0  0  0
  191.3780  173.5400  140.5490 N   0  0  0  0  0  0  0  0  0  0  0  0
  190.6160  171.1860  139.0340 O   0  0  0  0  0  0  0  0  0  0  0  0
  190.4730  176.5920  146.7300 C   0  0  1  0  0  3  0  0  0  0  0  0
  192.1980  174.4820  142.6740 C   0  0  0  0  0  0  0  0  0  0  0  0
  190.5510  171.3790  141.5030 C   0  0  2  0  0  3  0  0  0  0  0  0
  191.0810  173.7900  143.4220 C   0  0  2  0  0  3  0  0  0  0  0  0
  194.2900  175.6620  141.3260 C   0  0  0  0  0  3  0  0  0  0  0  0
  189.3500  174.2740  146.8980 C   0  0  0  0  0  2  0  0  0  0  0  0
  193.3910  174.9000  140.6490 N   0  0  0  0  0  0  0  0  0  0  0  0
  189.6570  173.7310  145.5000 C   0  0  0  0  0  2  0  0  0  0  0  0
  191.7580  175.7350  146.7740 C   0  0  1  0  0  3  0  0  0  0  0  0
  194.1590  175.8440  142.6650 N   0  0  0  0  0  0  0  0  0  0  0  0
  192.9840  175.4950  144.7580 N   0  0  0  0  0  0  0  0  0  0  0  0
  190.3970  177.3390  145.5490 O   0  0  0  0  0  0  0  0  0  0  0  0
  189.0480  177.6790  145.4160 C   0  0  0  0  0  2  0  0  0  0  0  0
  187.2980  178.3960  142.4050 C   0  0  0  0  0  2  0  0  0  0  0  0
  189.5170  177.7540  142.9840 C   0  0  0  0  0  2  0  0  0  0  0  0
  188.5520  177.2760  144.0390 C   0  0  2  0  0  3  0  0  0  0  0  0
  188.6390  178.0380  141.8020 C   0  0  0  0  0  2  0  0  0  0  0  0
  187.2530  177.8810  143.7700 N   0  0  0  0  0  2  0  0  0  0  0  0
  1 27  1  0  0  0  0
  2 14  1  0  0  0  0
  3  7  1  1  0  0  0
  3 19  1  0  0  0  0
  4 18  2  0  0  0  0
  5 19  1  0  0  0  0
  5 11  1  1  0  0  0
  7  6  1  0  0  0  0
  8 16  1  0  0  0  0
  8 12  1  0  0  0  0
  9 27  1  6  0  0  0
  9 25  1  0  0  0  0
 12 15  1  0  0  0  0
 13 24  1  1  0  0  0
 13  9  1  0  0  0  0
 15  5  1  0  0  0  0
 15  4  1  0  0  0  0
 16  3  1  0  0  0  0
 17 28  1  6  0  0  0
 17 25  1  0  0  0  0
 17 10  1  0  0  0  0
 18  1  1  0  0  0  0
 18 20  1  0  0  0  0
 19  6  1  1  0  0  0
 20 11  1  6  0  0  0
 20 13  1  0  0  0  0
 21 26  1  0  0  0  0
 22 10  1  0  0  0  0
 23  4  1  0  0  0  0
 23 21  2  0  0  0  0
 24 22  1  0  0  0  0
 25 14  1  6  0  0  0
 26  1  2  0  0  0  0
 27  2  1  0  0  0  0
 29 28  1  0  0  0  0
 30 34  1  0  0  0  0
 31 32  1  0  0  0  0
 32 29  1  1  0  0  0
 33 30  1  0  0  0  0
 33 31  1  0  0  0  0
 34 32  1  0  0  0  0
M  END
>  <MODEL>
4

>  <REMARK>
 VINA RESULT:      -7.7      2.762      6.611
  Name = 
  3 active torsions:
  status: ('A' for Active; 'I' for Inactive)
    1  A    between atoms: C_17  and  O_28
    2  A    between atoms: O_28  and  C_29
    3  A    between atoms: C_29  and  C_32
                            x       y       z     vdW  Elec       q    Type
                         _______ _______ _______ _____ _____    ______ ____

>  <TORSDO>
F 3

$$$$
=
 OpenBabel11112417493D

 34 41  0  0  1  0  0  0  0  0999 V2000
  189.9830  174.6570  142.2430 C   0  0  0  0  0  0  0  0  0  0  0  0
  189.2040  176.9700  142.9180 C   0  0  0  0  0  2  0  0  0  0  0  0
  193.9960  169.9870  142.2120 C   0  0  2  0  0  3  0  0  0  0  0  0
  190.4490  172.3140  141.9280 C   0  0  0  0  0  0  0  0  0  0  0  0
  192.0090  171.0640  143.4880 C   0  0  1  0  0  3  0  0  0  0  0  0
  193.6730  172.0720  142.0010 O   0  0  0  0  0  0  0  0  0  0  0  0
  194.1830  171.0640  141.1590 C   0  0  0  0  0  2  0  0  0  0  0  0
  192.0860  169.3480  140.9730 C   0  0  0  0  0  2  0  0  0  0  0  0
  191.0870  175.9900  144.0880 C   0  0  2  0  0  3  0  0  0  0  0  0
  190.7760  176.1580  147.3350 C   0  0  0  0  0  2  0  0  0  0  0  0
  191.6710  172.1610  144.5020 C   0  0  0  0  0  2  0  0  0  0  0  0
  190.8160  169.8470  141.6380 C   0  0  0  0  0  2  0  0  0  0  0  0
  191.2680  174.6430  144.8250 C   0  0  1  0  0  3  0  0  0  0  0  0
  189.5910  177.9160  144.0450 C   0  0  0  0  0  2  0  0  0  0  0  0
  191.0820  171.0910  142.3480 N   0  0  0  0  0  0  0  0  0  0  0  0
  193.0250  168.9720  141.9560 O   0  0  0  0  0  0  0  0  0  0  0  0
  189.8340  176.7100  146.2480 C   0  0  1  0  0  3  0  0  0  0  0  0
  190.6500  173.4970  142.6570 C   0  0  0  0  0  0  0  0  0  0  0  0
  193.4850  171.1470  143.0470 C   0  0  2  0  0  3  0  0  0  0  0  0
  191.6140  173.5310  143.8210 C   0  0  2  0  0  3  0  0  0  0  0  0
  188.9690  173.4590  140.4750 C   0  0  0  0  0  3  0  0  0  0  0  0
  192.2120  175.9170  146.8640 C   0  0  0  0  0  2  0  0  0  0  0  0
  189.6110  172.3240  140.8560 N   0  0  0  0  0  0  0  0  0  0  0  0
  192.3430  174.7190  145.9190 C   0  0  0  0  0  2  0  0  0  0  0  0
  190.5480  177.1460  144.9480 C   0  0  1  0  0  3  0  0  0  0  0  0
  189.1530  174.6120  141.1680 N   0  0  0  0  0  0  0  0  0  0  0  0
  190.1410  175.8670  142.9930 N   0  0  0  0  0  0  0  0  0  0  0  0
  188.8170  175.7840  145.9870 O   0  0  0  0  0  0  0  0  0  0  0  0
  187.8160  176.0660  146.9200 C   0  0  0  0  0  2  0  0  0  0  0  0
  184.6850  177.6720  146.4130 C   0  0  0  0  0  2  0  0  0  0  0  0
  186.6870  178.1620  147.6040 C   0  0  0  0  0  2  0  0  0  0  0  0
  186.9900  177.2480  146.4450 C   0  0  2  0  0  3  0  0  0  0  0  0
  185.3440  178.7360  147.2630 C   0  0  0  0  0  2  0  0  0  0  0  0
  185.7220  176.7910  145.8870 N   0  0  0  0  0  2  0  0  0  0  0  0
  1 18  1  0  0  0  0
  1 27  1  0  0  0  0
  2 27  1  0  0  0  0
  2 14  1  0  0  0  0
  3  7  1  6  0  0  0
  3 19  1  0  0  0  0
  4 15  1  0  0  0  0
  4 18  2  0  0  0  0
  5 11  1  1  0  0  0
  7  6  1  0  0  0  0
  8 12  1  0  0  0  0
  8 16  1  0  0  0  0
  9 27  1  6  0  0  0
  9 13  1  0  0  0  0
  9 25  1  0  0  0  0
 12 15  1  0  0  0  0
 13 24  1  1  0  0  0
 15  5  1  0  0  0  0
 16  3  1  0  0  0  0
 17 28  1  6  0  0  0
 17 10  1  0  0  0  0
 18 20  1  0  0  0  0
 19  6  1  6  0  0  0
 19  5  1  0  0  0  0
 20 11  1  1  0  0  0
 20 13  1  0  0  0  0
 21 23  2  0  0  0  0
 21 26  1  0  0  0  0
 22 10  1  0  0  0  0
 23  4  1  0  0  0  0
 24 22  1  0  0  0  0
 25 14  1  6  0  0  0
 25 17  1  0  0  0  0
 26  1  2  0  0  0  0
 28 29  1  0  0  0  0
 30 33  1  0  0  0  0
 32 29  1  1  0  0  0
 32 31  1  0  0  0  0
 33 31  1  0  0  0  0
 34 30  1  0  0  0  0
 34 32  1  0  0  0  0
M  END
>  <MODEL>
5

>  <REMARK>
 VINA RESULT:      -7.7      2.887      7.643
  Name = 
  3 active torsions:
  status: ('A' for Active; 'I' for Inactive)
    1  A    between atoms: C_17  and  O_28
    2  A    between atoms: O_28  and  C_29
    3  A    between atoms: C_29  and  C_32
                            x       y       z     vdW  Elec       q    Type
                         _______ _______ _______ _____ _____    ______ ____

>  <TORSDO>
F 3

$$$$
=
 OpenBabel11112417493D

 34 41  0  0  1  0  0  0  0  0999 V2000
  192.8560  175.7430  145.6740 C   0  0  0  0  0  0  0  0  0  0  0  0
  190.6000  175.5620  146.8110 C   0  0  0  0  0  2  0  0  0  0  0  0
  197.2500  173.8180  141.8140 C   0  0  2  0  0  3  0  0  0  0  0  0
  194.7970  176.2150  144.3270 C   0  0  0  0  0  0  0  0  0  0  0  0
  195.0670  175.2080  142.0160 C   0  0  1  0  0  3  0  0  0  0  0  0
  195.8800  173.3270  143.3560 O   0  0  0  0  0  0  0  0  0  0  0  0
  197.2820  173.2630  143.2270 C   0  0  0  0  0  2  0  0  0  0  0  0
  197.9410  175.8600  142.7840 C   0  0  0  0  0  2  0  0  0  0  0  0
  191.0460  174.1640  144.8820 C   0  0  2  0  0  3  0  0  0  0  0  0
  188.6620  174.2970  142.6550 C   0  0  0  0  0  2  0  0  0  0  0  0
  193.5420  175.0730  142.0330 C   0  0  0  0  0  2  0  0  0  0  0  0
  196.7750  176.8250  142.9060 C   0  0  0  0  0  2  0  0  0  0  0  0
  191.5200  174.4890  143.4480 C   0  0  1  0  0  3  0  0  0  0  0  0
  189.3200  174.8130  146.4780 C   0  0  0  0  0  2  0  0  0  0  0  0
  195.5350  176.0850  143.0980 N   0  0  0  0  0  0  0  0  0  0  0  0
  197.8190  175.1100  141.5970 O   0  0  0  0  0  0  0  0  0  0  0  0
  188.7330  174.9860  144.0300 C   0  0  1  0  0  3  0  0  0  0  0  0
  193.5660  175.5580  144.4820 C   0  0  0  0  0  0  0  0  0  0  0  0
  195.7490  173.8240  142.0450 C   0  0  2  0  0  3  0  0  0  0  0  0
  193.0520  174.6220  143.4110 C   0  0  2  0  0  3  0  0  0  0  0  0
  194.5500  177.1860  146.4730 C   0  0  0  0  0  3  0  0  0  0  0  0
  189.5720  173.0750  142.5110 C   0  0  0  0  0  2  0  0  0  0  0  0
  195.2570  177.0160  145.3260 N   0  0  0  0  0  0  0  0  0  0  0  0
  191.0570  173.4370  142.4290 C   0  0  0  0  0  2  0  0  0  0  0  0
  189.5240  174.1960  145.0980 C   0  0  1  0  0  3  0  0  0  0  0  0
  193.3580  176.5570  146.6400 N   0  0  0  0  0  0  0  0  0  0  0  0
  191.5800  175.1150  145.8410 N   0  0  0  0  0  0  0  0  0  0  0  0
  189.2310  176.2860  143.8830 O   0  0  0  0  0  0  0  0  0  0  0  0
  188.5980  176.7960  142.7470 C   0  0  0  0  0  2  0  0  0  0  0  0
  185.2920  177.6160  143.7670 C   0  0  0  0  0  2  0  0  0  0  0  0
  187.4790  177.9020  144.6620 C   0  0  0  0  0  2  0  0  0  0  0  0
  187.5480  177.8120  143.1580 C   0  0  2  0  0  3  0  0  0  0  0  0
  186.0400  178.2210  144.9350 C   0  0  0  0  0  2  0  0  0  0  0  0
  186.2330  177.4100  142.6710 N   0  0  0  0  0  2  0  0  0  0  0  0
  1 27  1  0  0  0  0
  1 26  1  0  0  0  0
  3 19  1  0  0  0  0
  3  7  1  1  0  0  0
  4 18  1  0  0  0  0
  4 23  2  0  0  0  0
  5 11  1  1  0  0  0
  5 19  1  0  0  0  0
  5 15  1  0  0  0  0
  7  6  1  0  0  0  0
  8 12  1  0  0  0  0
  9 25  1  0  0  0  0
  9 27  1  1  0  0  0
 10 17  1  0  0  0  0
 12 15  1  0  0  0  0
 13 24  1  6  0  0  0
 13  9  1  0  0  0  0
 14  2  1  0  0  0  0
 15  4  1  0  0  0  0
 16  3  1  0  0  0  0
 16  8  1  0  0  0  0
 17 28  1  6  0  0  0
 17 25  1  0  0  0  0
 18  1  2  0  0  0  0
 19  6  1  1  0  0  0
 20 11  1  6  0  0  0
 20 13  1  0  0  0  0
 20 18  1  0  0  0  0
 21 26  2  0  0  0  0
 22 10  1  0  0  0  0
 23 21  1  0  0  0  0
 24 22  1  0  0  0  0
 25 14  1  1  0  0  0
 27  2  1  0  0  0  0
 29 28  1  0  0  0  0
 30 33  1  0  0  0  0
 31 33  1  0  0  0  0
 32 29  1  1  0  0  0
 32 31  1  0  0  0  0
 34 32  1  0  0  0  0
 34 30  1  0  0  0  0
M  END
>  <MODEL>
6

>  <REMARK>
 VINA RESULT:      -7.6      2.067      8.166
  Name = 
  3 active torsions:
  status: ('A' for Active; 'I' for Inactive)
    1  A    between atoms: C_17  and  O_28
    2  A    between atoms: O_28  and  C_29
    3  A    between atoms: C_29  and  C_32
                            x       y       z     vdW  Elec       q    Type
                         _______ _______ _______ _____ _____    ______ ____

>  <TORSDO>
F 3

$$$$
=
 OpenBabel11112417493D

 34 41  0  0  1  0  0  0  0  0999 V2000
  188.8290  176.4150  142.2910 C   0  0  0  0  0  0  0  0  0  0  0  0
  188.8240  178.2230  144.0650 C   0  0  0  0  0  2  0  0  0  0  0  0
  191.1000  171.3860  139.5590 C   0  0  2  0  0  3  0  0  0  0  0  0
  188.5170  174.5040  140.8580 C   0  0  0  0  0  0  0  0  0  0  0  0
  189.5290  172.2520  141.4350 C   0  0  1  0  0  3  0  0  0  0  0  0
  191.4810  173.2980  140.3920 O   0  0  0  0  0  0  0  0  0  0  0  0
  191.6650  172.7250  139.1180 C   0  0  0  0  0  2  0  0  0  0  0  0
  189.1310  172.0370  138.4230 C   0  0  0  0  0  2  0  0  0  0  0  0
  190.2420  176.2840  144.3850 C   0  0  2  0  0  3  0  0  0  0  0  0
  189.8900  174.9430  147.3420 C   0  0  0  0  0  2  0  0  0  0  0  0
  189.5320  172.7630  142.8780 C   0  0  0  0  0  2  0  0  0  0  0  0
  188.0710  172.5070  139.4020 C   0  0  0  0  0  2  0  0  0  0  0  0
  189.9490  174.7670  144.3750 C   0  0  1  0  0  3  0  0  0  0  0  0
  189.4580  178.3370  145.4420 C   0  0  0  0  0  2  0  0  0  0  0  0
  188.7020  173.1050  140.5710 N   0  0  0  0  0  0  0  0  0  0  0  0
  189.8610  170.9690  138.9850 O   0  0  0  0  0  0  0  0  0  0  0  0
  189.2180  176.2060  146.7720 C   0  0  1  0  0  3  0  0  0  0  0  0
  189.0670  175.0620  142.0230 C   0  0  0  0  0  0  0  0  0  0  0  0
  190.9660  172.0890  140.8980 C   0  0  2  0  0  3  0  0  0  0  0  0
  189.9480  174.2350  142.9320 C   0  0  2  0  0  3  0  0  0  0  0  0
  187.5430  176.5940  140.3160 C   0  0  0  0  0  3  0  0  0  0  0  0
  191.1840  174.5400  146.6320 C   0  0  0  0  0  2  0  0  0  0  0  0
  187.7660  175.2840  140.0340 N   0  0  0  0  0  0  0  0  0  0  0  0
  190.9510  173.9750  145.2290 C   0  0  0  0  0  2  0  0  0  0  0  0
  190.0800  176.9780  145.7480 C   0  0  1  0  0  3  0  0  0  0  0  0
  188.0680  177.1500  141.4380 N   0  0  0  0  0  0  0  0  0  0  0  0
  189.3470  176.9990  143.4930 N   0  0  0  0  0  0  0  0  0  0  0  0
  187.9650  175.8790  146.2420 O   0  0  0  0  0  0  0  0  0  0  0  0
  187.0400  176.2900  147.2050 C   0  0  0  0  0  2  0  0  0  0  0  0
  185.4910  178.9750  145.4640 C   0  0  0  0  0  2  0  0  0  0  0  0
  185.8990  176.6690  145.0380 C   0  0  0  0  0  2  0  0  0  0  0  0
  185.8340  176.9130  146.5240 C   0  0  2  0  0  3  0  0  0  0  0  0
  185.2420  177.8810  144.4490 C   0  0  0  0  0  2  0  0  0  0  0  0
  185.8150  178.3540  146.7440 N   0  0  0  0  0  2  0  0  0  0  0  0
  1 27  1  0  0  0  0
  2 14  1  0  0  0  0
  3  7  1  6  0  0  0
  3 19  1  0  0  0  0
  4 18  2  0  0  0  0
  5 11  1  1  0  0  0
  7  6  1  0  0  0  0
  8 16  1  0  0  0  0
  8 12  1  0  0  0  0
  9 27  1  6  0  0  0
  9 25  1  0  0  0  0
 12 15  1  0  0  0  0
 13  9  1  0  0  0  0
 13 24  1  1  0  0  0
 15  4  1  0  0  0  0
 15  5  1  0  0  0  0
 16  3  1  0  0  0  0
 17 28  1  6  0  0  0
 17 10  1  0  0  0  0
 18  1  1  0  0  0  0
 18 20  1  0  0  0  0
 19  6  1  6  0  0  0
 19  5  1  0  0  0  0
 20 11  1  1  0  0  0
 20 13  1  0  0  0  0
 21 26  1  0  0  0  0
 22 10  1  0  0  0  0
 23 21  2  0  0  0  0
 23  4  1  0  0  0  0
 24 22  1  0  0  0  0
 25 14  1  6  0  0  0
 25 17  1  0  0  0  0
 26  1  2  0  0  0  0
 27  2  1  0  0  0  0
 28 29  1  0  0  0  0
 30 34  1  0  0  0  0
 31 32  1  0  0  0  0
 32 34  1  0  0  0  0
 32 29  1  1  0  0  0
 33 31  1  0  0  0  0
 33 30  1  0  0  0  0
M  END
>  <MODEL>
7

>  <REMARK>
 VINA RESULT:      -7.3      3.319      7.175
  Name = 
  3 active torsions:
  status: ('A' for Active; 'I' for Inactive)
    1  A    between atoms: C_17  and  O_28
    2  A    between atoms: O_28  and  C_29
    3  A    between atoms: C_29  and  C_32
                            x       y       z     vdW  Elec       q    Type
                         _______ _______ _______ _____ _____    ______ ____

>  <TORSDO>
F 3

$$$$
=
 OpenBabel11112417493D

 34 41  0  0  1  0  0  0  0  0999 V2000
  191.0280  173.1220  142.9560 C   0  0  0  0  0  0  0  0  0  0  0  0
  188.9730  174.2090  141.9540 C   0  0  0  0  0  2  0  0  0  0  0  0
  196.8910  173.1140  144.8380 C   0  0  2  0  0  3  0  0  0  0  0  0
  192.7810  172.1650  144.3050 C   0  0  0  0  0  0  0  0  0  0  0  0
  194.4450  173.6350  145.5300 C   0  0  1  0  0  3  0  0  0  0  0  0
  195.4980  173.6160  143.3200 O   0  0  0  0  0  0  0  0  0  0  0  0
  196.6350  172.7860  143.3780 C   0  0  0  0  0  2  0  0  0  0  0  0
  195.9480  170.9950  145.3010 C   0  0  0  0  0  2  0  0  0  0  0  0
  190.8180  175.6220  142.6370 C   0  0  2  0  0  3  0  0  0  0  0  0
  189.8600  178.1280  144.5010 C   0  0  0  0  0  2  0  0  0  0  0  0
  193.3650  174.7160  145.4430 C   0  0  0  0  0  2  0  0  0  0  0  0
  194.5190  171.1350  145.7950 C   0  0  0  0  0  2  0  0  0  0  0  0
  191.5830  175.7630  143.9730 C   0  0  1  0  0  3  0  0  0  0  0  0
  188.5390  175.6550  141.7700 C   0  0  0  0  0  2  0  0  0  0  0  0
  193.8990  172.3110  145.2000 N   0  0  0  0  0  0  0  0  0  0  0  0
  196.7290  172.0620  145.7910 O   0  0  0  0  0  0  0  0  0  0  0  0
  188.9970  177.0460  143.8250 C   0  0  1  0  0  3  0  0  0  0  0  0
  192.1400  173.3030  143.7890 C   0  0  0  0  0  0  0  0  0  0  0  0
  195.6690  173.9980  144.6660 C   0  0  2  0  0  3  0  0  0  0  0  0
  192.6760  174.6870  144.0750 C   0  0  2  0  0  3  0  0  0  0  0  0
  191.2200  170.7770  143.1880 C   0  0  0  0  0  3  0  0  0  0  0  0
  191.2410  178.3210  143.8700 C   0  0  0  0  0  2  0  0  0  0  0  0
  192.3030  170.9300  143.9930 N   0  0  0  0  0  0  0  0  0  0  0  0
  192.1980  177.1600  144.1480 C   0  0  0  0  0  2  0  0  0  0  0  0
  189.5720  176.5130  142.4930 C   0  0  1  0  0  3  0  0  0  0  0  0
  190.5880  171.8660  142.6790 N   0  0  0  0  0  0  0  0  0  0  0  0
  190.3330  174.2670  142.4490 N   0  0  0  0  0  0  0  0  0  0  0  0
  188.7490  176.0050  144.7270 O   0  0  0  0  0  0  0  0  0  0  0  0
  188.7310  176.6070  145.9880 C   0  0  0  0  0  2  0  0  0  0  0  0
  185.7450  178.2520  146.9990 C   0  0  0  0  0  2  0  0  0  0  0  0
  186.3180  176.5580  145.4270 C   0  0  0  0  0  2  0  0  0  0  0  0
  187.3220  176.5750  146.5520 C   0  0  2  0  0  3  0  0  0  0  0  0
  185.1430  177.3020  145.9880 C   0  0  0  0  0  2  0  0  0  0  0  0
  187.0710  177.7620  147.3610 N   0  0  0  0  0  2  0  0  0  0  0  0
  1 18  1  0  0  0  0
  2 27  1  0  0  0  0
  3  7  1  6  0  0  0
  3 16  1  0  0  0  0
  4 15  1  0  0  0  0
  5 11  1  6  0  0  0
  6  7  1  0  0  0  0
  8 16  1  0  0  0  0
  8 12  1  0  0  0  0
  9 27  1  1  0  0  0
  9 13  1  0  0  0  0
 13 20  1  0  0  0  0
 13 24  1  6  0  0  0
 14  2  1  0  0  0  0
 15  5  1  0  0  0  0
 15 12  1  0  0  0  0
 17 10  1  0  0  0  0
 17 28  1  1  0  0  0
 18 20  1  0  0  0  0
 18  4  2  0  0  0  0
 19  6  1  6  0  0  0
 19  3  1  0  0  0  0
 19  5  1  0  0  0  0
 20 11  1  1  0  0  0
 21 23  2  0  0  0  0
 22 24  1  0  0  0  0
 22 10  1  0  0  0  0
 23  4  1  0  0  0  0
 25 14  1  1  0  0  0
 25  9  1  0  0  0  0
 25 17  1  0  0  0  0
 26  1  2  0  0  0  0
 26 21  1  0  0  0  0
 27  1  1  0  0  0  0
 28 29  1  0  0  0  0
 30 34  1  0  0  0  0
 31 33  1  0  0  0  0
 31 32  1  0  0  0  0
 32 29  1  6  0  0  0
 32 34  1  0  0  0  0
 33 30  1  0  0  0  0
M  END
>  <MODEL>
8

>  <REMARK>
 VINA RESULT:      -7.3      2.397      7.929
  Name = 
  3 active torsions:
  status: ('A' for Active; 'I' for Inactive)
    1  A    between atoms: C_17  and  O_28
    2  A    between atoms: O_28  and  C_29
    3  A    between atoms: C_29  and  C_32
                            x       y       z     vdW  Elec       q    Type
                         _______ _______ _______ _____ _____    ______ ____

>  <TORSDO>
F 3

$$$$
=
 OpenBabel11112417493D

 34 41  0  0  1  0  0  0  0  0999 V2000
  190.2910  176.5710  144.8960 C   0  0  0  0  0  0  0  0  0  0  0  0
  192.6650  175.7190  144.6660 C   0  0  0  0  0  2  0  0  0  0  0  0
  184.8340  178.3420  142.6610 C   0  0  2  0  0  3  0  0  0  0  0  0
  187.9350  176.9540  145.2180 C   0  0  0  0  0  0  0  0  0  0  0  0
  186.2450  176.3080  143.4420 C   0  0  1  0  0  3  0  0  0  0  0  0
  186.9470  178.4730  142.5400 O   0  0  0  0  0  0  0  0  0  0  0  0
  185.9140  179.4040  142.7660 C   0  0  0  0  0  2  0  0  0  0  0  0
  184.7490  178.4390  145.0220 C   0  0  0  0  0  2  0  0  0  0  0  0
  191.1910  175.5860  142.7470 C   0  0  2  0  0  3  0  0  0  0  0  0
  191.1850  172.6240  141.3700 C   0  0  0  0  0  2  0  0  0  0  0  0
  187.3110  175.3180  142.9650 C   0  0  0  0  0  2  0  0  0  0  0  0
  185.4780  177.2600  145.6400 C   0  0  0  0  0  2  0  0  0  0  0  0
  189.7880  174.9670  142.5530 C   0  0  1  0  0  3  0  0  0  0  0  0
  193.4090  174.9820  143.5630 C   0  0  0  0  0  2  0  0  0  0  0  0
  186.5700  176.8400  144.7720 N   0  0  0  0  0  0  0  0  0  0  0  0
  184.0940  178.0310  143.8420 O   0  0  0  0  0  0  0  0  0  0  0  0
  192.0190  173.1290  142.5620 C   0  0  1  0  0  3  0  0  0  0  0  0
  188.9810  176.4820  144.4100 C   0  0  0  0  0  0  0  0  0  0  0  0
  186.0160  177.4240  142.4030 C   0  0  2  0  0  3  0  0  0  0  0  0
  188.7040  175.9510  143.0220 C   0  0  2  0  0  3  0  0  0  0  0  0
  189.4960  177.5410  146.9000 C   0  0  0  0  0  3  0  0  0  0  0  0
  190.6520  173.7300  140.4560 C   0  0  0  0  0  2  0  0  0  0  0  0
  188.2180  177.4690  146.4450 N   0  0  0  0  0  0  0  0  0  0  0  0
  189.5310  174.5530  141.0960 C   0  0  0  0  0  2  0  0  0  0  0  0
  192.3730  174.6320  142.5000 C   0  0  1  0  0  3  0  0  0  0  0  0
  190.5200  177.0900  146.1310 N   0  0  0  0  0  0  0  0  0  0  0  0
  191.3730  176.0610  144.1070 N   0  0  0  0  0  0  0  0  0  0  0  0
  191.3760  172.8050  143.7630 O   0  0  0  0  0  0  0  0  0  0  0  0
  191.7830  171.5010  144.0560 C   0  0  0  0  0  2  0  0  0  0  0  0
  194.8320  170.8760  145.7740 C   0  0  0  0  0  2  0  0  0  0  0  0
  193.7570  170.0200  143.8310 C   0  0  0  0  0  2  0  0  0  0  0  0
  193.2990  171.4330  144.0900 C   0  0  2  0  0  3  0  0  0  0  0  0
  195.0190  169.9010  144.6320 C   0  0  0  0  0  2  0  0  0  0  0  0
  193.7970  171.8340  145.4020 N   0  0  0  0  0  2  0  0  0  0  0  0
  1 26  1  0  0  0  0
  3  7  1  1  0  0  0
  3 16  1  0  0  0  0
  4 23  2  0  0  0  0
  5 11  1  6  0  0  0
  5 15  1  0  0  0  0
  6  7  1  0  0  0  0
  8 12  1  0  0  0  0
  9 27  1  1  0  0  0
 10 17  1  0  0  0  0
 13 24  1  6  0  0  0
 13  9  1  0  0  0  0
 13 20  1  0  0  0  0
 14  2  1  0  0  0  0
 15  4  1  0  0  0  0
 15 12  1  0  0  0  0
 16  8  1  0  0  0  0
 17 28  1  1  0  0  0
 18  1  2  0  0  0  0
 18  4  1  0  0  0  0
 19  6  1  1  0  0  0
 19  3  1  0  0  0  0
 19  5  1  0  0  0  0
 20 11  1  1  0  0  0
 20 18  1  0  0  0  0
 22 24  1  0  0  0  0
 22 10  1  0  0  0  0
 23 21  1  0  0  0  0
 25 17  1  0  0  0  0
 25  9  1  0  0  0  0
 25 14  1  1  0  0  0
 26 21  2  0  0  0  0
 27  2  1  0  0  0  0
 27  1  1  0  0  0  0
 28 29  1  0  0  0  0
 31 32  1  0  0  0  0
 31 33  1  0  0  0  0
 32 29  1  1  0  0  0
 32 34  1  0  0  0  0
 33 30  1  0  0  0  0
 34 30  1  0  0  0  0
M  END
>  <MODEL>
9

>  <REMARK>
 VINA RESULT:      -7.3      2.463      4.399
  Name = 
  3 active torsions:
  status: ('A' for Active; 'I' for Inactive)
    1  A    between atoms: C_17  and  O_28
    2  A    between atoms: O_28  and  C_29
    3  A    between atoms: C_29  and  C_32
                            x       y       z     vdW  Elec       q    Type
                         _______ _______ _______ _____ _____    ______ ____

>  <TORSDO>
F 3

$$$$
