=
 OpenBabel11112418043D

 34 40  0  0  1  0  0  0  0  0999 V2000
  190.8350  176.3260  146.1350 C   0  0  0  0  0  0  0  0  0  0  0  0
  188.3760  176.9450  145.9750 C   0  0  0  0  0  2  0  0  0  0  0  0
  196.6810  175.3890  143.2510 C   0  0  0  0  0  0  0  0  0  0  0  0
  193.2500  176.0900  145.9530 C   0  0  0  0  0  0  0  0  0  0  0  0
  194.2240  175.5470  143.6960 C   0  0  0  0  0  0  0  0  0  0  0  0
  194.9620  175.3590  141.3620 C   0  0  0  0  0  1  0  0  0  0  0  0
  197.7160  175.9660  142.3450 C   0  0  0  0  0  1  0  0  0  0  0  0
  196.3110  174.0650  145.3620 C   0  0  0  0  0  3  0  0  0  0  0  0
  189.3190  175.4160  144.3400 C   0  0  2  0  0  3  0  0  0  0  0  0
  188.1960  175.6680  141.2970 C   0  0  0  0  0  2  0  0  0  0  0  0
  192.8740  175.4930  143.2030 N   0  0  0  0  0  0  0  0  0  0  0  0
  195.1000  174.4780  145.7360 C   0  0  0  0  0  3  0  0  0  0  0  0
  190.4470  175.6520  143.3070 C   0  0  1  0  0  3  0  0  0  0  0  0
  187.2690  176.5890  145.0010 C   0  0  0  0  0  2  0  0  0  0  0  0
  194.4810  175.7160  145.1750 C   0  0  0  0  0  0  0  0  0  0  0  0
  197.1290  174.7290  144.3290 C   0  0  0  0  0  2  0  0  0  0  0  0
  187.8800  176.5550  142.5170 C   0  0  2  0  0  3  0  0  0  0  0  0
  191.9710  176.0030  145.3760 C   0  0  0  0  0  0  0  0  0  0  0  0
  195.2520  175.4350  142.8290 C   0  0  0  0  0  0  0  0  0  0  0  0
  191.8190  175.6470  143.9480 C   0  0  0  0  0  0  0  0  0  0  0  0
  192.2520  176.8740  148.0240 C   0  0  0  0  0  3  0  0  0  0  0  0
  188.9740  174.3900  141.6130 C   0  0  0  0  0  2  0  0  0  0  0  0
  193.3820  176.5320  147.2760 C   0  0  0  0  0  3  0  0  0  0  0  0
  190.3850  174.6570  142.1370 C   0  0  0  0  0  2  0  0  0  0  0  0
  187.8990  175.7820  143.8590 C   0  0  1  0  0  3  0  0  0  0  0  0
  190.9800  176.7700  147.4550 C   0  0  0  0  0  3  0  0  0  0  0  0
  189.5400  176.2050  145.5370 N   0  0  0  0  0  0  0  0  0  0  0  0
  186.5430  177.2450  142.2720 C   0  0  0  0  0  2  0  0  0  0  0  0
  186.7030  178.6320  142.3380 O   0  0  0  0  0  0  0  0  0  0  0  0
  184.2290  178.1410  144.4160 O   0  0  0  0  0  0  0  0  0  0  0  0
  185.5420  179.8800  143.9710 C   0  0  0  0  0  3  0  0  0  0  0  0
  185.4430  179.1180  142.6900 C   0  0  2  0  0  3  0  0  0  0  0  0
  184.8370  179.2790  144.9100 C   0  0  0  0  0  3  0  0  0  0  0  0
  184.5260  177.9490  143.0460 C   0  0  0  0  0  2  0  0  0  0  0  0
  1 26  1  0  0  0  0
  3 16  1  0  0  0  0
  4 23  2  0  0  0  0
  5 15  2  0  0  0  0
  6 19  1  0  0  0  0
  7  3  1  0  0  0  0
  8 12  2  0  0  0  0
  9 27  1  1  0  0  0
 10 22  1  0  0  0  0
 10 17  1  0  0  0  0
 11  5  1  0  0  0  0
 11 20  2  0  0  0  0
 13 24  1  6  0  0  0
 13 20  1  0  0  0  0
 13  9  1  0  0  0  0
 14  2  1  0  0  0  0
 15 12  1  0  0  0  0
 15  4  1  0  0  0  0
 16  8  1  0  0  0  0
 17 28  1  6  0  0  0
 17 25  1  0  0  0  0
 18  4  1  0  0  0  0
 18  1  2  0  0  0  0
 19  3  2  0  0  0  0
 19  5  1  0  0  0  0
 20 18  1  0  0  0  0
 22 24  1  0  0  0  0
 23 21  1  0  0  0  0
 25  9  1  0  0  0  0
 25 14  1  1  0  0  0
 26 21  2  0  0  0  0
 27  2  1  0  0  0  0
 27  1  1  0  0  0  0
 28 29  1  0  0  0  0
 30 33  1  0  0  0  0
 31 33  2  0  0  0  0
 32 29  1  1  0  0  0
 32 34  1  0  0  0  0
 32 31  1  0  0  0  0
 34 30  1  0  0  0  0
M  END
>  <MODEL>
1

>  <REMARK>
 VINA RESULT:      -8.6      0.000      0.000
  Name = 
  3 active torsions:
  status: ('A' for Active; 'I' for Inactive)
    1  A    between atoms: C_17  and  C_28
    2  A    between atoms: C_28  and  O_29
    3  A    between atoms: O_29  and  C_32
                            x       y       z     vdW  Elec       q    Type
                         _______ _______ _______ _____ _____    ______ ____

>  <TORSDO>
F 3

$$$$
=
 OpenBabel11112418043D

 34 40  0  0  1  0  0  0  0  0999 V2000
  188.0600  176.6040  146.4690 C   0  0  0  0  0  0  0  0  0  0  0  0
  190.2840  175.6740  147.2700 C   0  0  0  0  0  2  0  0  0  0  0  0
  183.9340  178.0880  141.5540 C   0  0  0  0  0  0  0  0  0  0  0  0
  185.9520  177.1290  145.3720 C   0  0  0  0  0  0  0  0  0  0  0  0
  185.9920  177.6520  142.9090 C   0  0  0  0  0  0  0  0  0  0  0  0
  186.2280  177.7890  140.4690 C   0  0  0  0  0  1  0  0  0  0  0  0
  183.2520  177.5920  140.3250 C   0  0  0  0  0  1  0  0  0  0  0  0
  183.6560  179.4800  143.6350 C   0  0  0  0  0  3  0  0  0  0  0  0
  190.2530  177.2080  145.3850 C   0  0  2  0  0  3  0  0  0  0  0  0
  192.3990  176.6340  143.0100 C   0  0  0  0  0  2  0  0  0  0  0  0
  187.4210  177.5070  142.9710 N   0  0  0  0  0  0  0  0  0  0  0  0
  184.5640  178.9430  144.4480 C   0  0  0  0  0  3  0  0  0  0  0  0
  189.5800  177.0530  144.0010 C   0  0  1  0  0  3  0  0  0  0  0  0
  191.7160  175.8300  146.7920 C   0  0  0  0  0  2  0  0  0  0  0  0
  185.1720  177.6060  144.1770 C   0  0  0  0  0  0  0  0  0  0  0  0
  183.2070  178.8630  142.3720 C   0  0  0  0  0  2  0  0  0  0  0  0
  192.1040  175.7900  144.2640 C   0  0  2  0  0  3  0  0  0  0  0  0
  187.3530  177.0200  145.3300 C   0  0  0  0  0  0  0  0  0  0  0  0
  185.3960  177.8390  141.7140 C   0  0  0  0  0  0  0  0  0  0  0  0
  188.0830  177.2680  144.0660 C   0  0  0  0  0  0  0  0  0  0  0  0
  185.9710  176.3530  147.6730 C   0  0  0  0  0  3  0  0  0  0  0  0
  191.7450  178.0160  142.9920 C   0  0  0  0  0  2  0  0  0  0  0  0
  185.2680  176.7870  146.5460 C   0  0  0  0  0  3  0  0  0  0  0  0
  190.2190  177.9590  142.9360 C   0  0  0  0  0  2  0  0  0  0  0  0
  191.6840  176.6380  145.4900 C   0  0  1  0  0  3  0  0  0  0  0  0
  187.3640  176.2620  147.6350 C   0  0  0  0  0  3  0  0  0  0  0  0
  189.4880  176.5260  146.4120 N   0  0  0  0  0  0  0  0  0  0  0  0
  193.3240  174.9240  144.5560 C   0  0  0  0  0  2  0  0  0  0  0  0
  194.3810  175.2930  143.7210 O   0  0  0  0  0  0  0  0  0  0  0  0
  196.4180  174.0910  145.9770 O   0  0  0  0  0  0  0  0  0  0  0  0
  196.7150  175.1750  144.0570 C   0  0  0  0  0  3  0  0  0  0  0  0
  195.4090  175.6630  144.5920 C   0  0  2  0  0  3  0  0  0  0  0  0
  197.2370  174.2870  144.8820 C   0  0  0  0  0  3  0  0  0  0  0  0
  195.2610  174.9010  145.9070 C   0  0  0  0  0  2  0  0  0  0  0  0
  1 26  1  0  0  0  0
  3 19  2  0  0  0  0
  3 16  1  0  0  0  0
  4 23  2  0  0  0  0
  5 11  1  0  0  0  0
  5 15  2  0  0  0  0
  6 19  1  0  0  0  0
  7  3  1  0  0  0  0
  8 12  2  0  0  0  0
  9 25  1  0  0  0  0
  9 27  1  1  0  0  0
 10 17  1  0  0  0  0
 11 20  2  0  0  0  0
 13 24  1  6  0  0  0
 13 20  1  0  0  0  0
 13  9  1  0  0  0  0
 14  2  1  0  0  0  0
 15 12  1  0  0  0  0
 15  4  1  0  0  0  0
 16  8  1  0  0  0  0
 17 28  1  1  0  0  0
 17 25  1  0  0  0  0
 18  4  1  0  0  0  0
 18  1  2  0  0  0  0
 19  5  1  0  0  0  0
 20 18  1  0  0  0  0
 22 10  1  0  0  0  0
 23 21  1  0  0  0  0
 24 22  1  0  0  0  0
 25 14  1  1  0  0  0
 26 21  2  0  0  0  0
 27  1  1  0  0  0  0
 27  2  1  0  0  0  0
 29 28  1  0  0  0  0
 31 32  1  0  0  0  0
 31 33  2  0  0  0  0
 32 29  1  6  0  0  0
 32 34  1  0  0  0  0
 33 30  1  0  0  0  0
 34 30  1  0  0  0  0
M  END
>  <MODEL>
2

>  <REMARK>
 VINA RESULT:      -8.5      2.945      8.641
  Name = 
  3 active torsions:
  status: ('A' for Active; 'I' for Inactive)
    1  A    between atoms: C_17  and  C_28
    2  A    between atoms: C_28  and  O_29
    3  A    between atoms: O_29  and  C_32
                            x       y       z     vdW  Elec       q    Type
                         _______ _______ _______ _____ _____    ______ ____

>  <TORSDO>
F 3

$$$$
=
 OpenBabel11112418043D

 34 40  0  0  1  0  0  0  0  0999 V2000
  191.8740  176.1580  145.3850 C   0  0  0  0  0  0  0  0  0  0  0  0
  189.4570  176.8010  145.8320 C   0  0  0  0  0  2  0  0  0  0  0  0
  196.8200  175.1500  141.1550 C   0  0  0  0  0  0  0  0  0  0  0  0
  194.1670  175.8960  144.6150 C   0  0  0  0  0  0  0  0  0  0  0  0
  194.5500  175.3340  142.1900 C   0  0  0  0  0  0  0  0  0  0  0  0
  194.6880  175.1290  139.7480 C   0  0  0  0  0  1  0  0  0  0  0  0
  197.6040  175.7120  140.0180 C   0  0  0  0  0  1  0  0  0  0  0  0
  196.9700  173.8380  143.3010 C   0  0  0  0  0  3  0  0  0  0  0  0
  189.9540  175.2560  144.0240 C   0  0  2  0  0  3  0  0  0  0  0  0
  188.1180  175.5070  141.3510 C   0  0  0  0  0  2  0  0  0  0  0  0
  193.1200  175.2920  142.0460 N   0  0  0  0  0  0  0  0  0  0  0  0
  195.8930  174.2650  143.9590 C   0  0  0  0  0  3  0  0  0  0  0  0
  190.7950  175.4760  142.7440 C   0  0  1  0  0  3  0  0  0  0  0  0
  188.1400  176.4520  145.1620 C   0  0  0  0  0  2  0  0  0  0  0  0
  195.1650  175.5060  143.5600 C   0  0  0  0  0  0  0  0  0  0  0  0
  197.5140  174.4890  142.0940 C   0  0  0  0  0  2  0  0  0  0  0  0
  188.1200  176.4020  142.6050 C   0  0  2  0  0  3  0  0  0  0  0  0
  192.7840  175.8200  144.3720 C   0  0  0  0  0  0  0  0  0  0  0  0
  195.3310  175.2080  141.0980 C   0  0  0  0  0  0  0  0  0  0  0  0
  192.2830  175.4590  143.0270 C   0  0  0  0  0  0  0  0  0  0  0  0
  193.7180  176.6980  146.8620 C   0  0  0  0  0  3  0  0  0  0  0  0
  188.9390  174.2220  141.4730 C   0  0  0  0  0  2  0  0  0  0  0  0
  194.6250  176.3430  145.8620 C   0  0  0  0  0  3  0  0  0  0  0  0
  190.4370  174.4770  141.6310 C   0  0  0  0  0  2  0  0  0  0  0  0
  188.4620  175.6350  143.9060 C   0  0  1  0  0  3  0  0  0  0  0  0
  192.3440  176.6060  146.6260 C   0  0  0  0  0  3  0  0  0  0  0  0
  190.4700  176.0480  145.1250 N   0  0  0  0  0  0  0  0  0  0  0  0
  186.7700  177.1050  142.6930 C   0  0  0  0  0  2  0  0  0  0  0  0
  186.9550  178.4890  142.7240 O   0  0  0  0  0  0  0  0  0  0  0  0
  184.4130  178.0500  144.7310 O   0  0  0  0  0  0  0  0  0  0  0  0
  185.7850  179.7560  144.3360 C   0  0  0  0  0  3  0  0  0  0  0  0
  185.7000  179.0080  143.0470 C   0  0  2  0  0  3  0  0  0  0  0  0
  185.0390  179.1670  145.2510 C   0  0  0  0  0  3  0  0  0  0  0  0
  184.7420  177.8620  143.3680 C   0  0  0  0  0  2  0  0  0  0  0  0
  1 26  1  0  0  0  0
  3 16  1  0  0  0  0
  4 23  2  0  0  0  0
  5 15  2  0  0  0  0
  6 19  1  0  0  0  0
  7  3  1  0  0  0  0
  8 12  2  0  0  0  0
  9 27  1  1  0  0  0
 10 22  1  0  0  0  0
 10 17  1  0  0  0  0
 11  5  1  0  0  0  0
 11 20  2  0  0  0  0
 13 24  1  6  0  0  0
 13 20  1  0  0  0  0
 13  9  1  0  0  0  0
 14  2  1  0  0  0  0
 15 12  1  0  0  0  0
 15  4  1  0  0  0  0
 16  8  1  0  0  0  0
 17 28  1  1  0  0  0
 17 25  1  0  0  0  0
 18  4  1  0  0  0  0
 18  1  2  0  0  0  0
 19  3  2  0  0  0  0
 19  5  1  0  0  0  0
 20 18  1  0  0  0  0
 22 24  1  0  0  0  0
 23 21  1  0  0  0  0
 25  9  1  0  0  0  0
 25 14  1  1  0  0  0
 26 21  2  0  0  0  0
 27  1  1  0  0  0  0
 27  2  1  0  0  0  0
 28 29  1  0  0  0  0
 30 33  1  0  0  0  0
 31 33  2  0  0  0  0
 32 29  1  1  0  0  0
 32 34  1  0  0  0  0
 32 31  1  0  0  0  0
 34 30  1  0  0  0  0
M  END
>  <MODEL>
3

>  <REMARK>
 VINA RESULT:      -8.5      0.968      1.324
  Name = 
  3 active torsions:
  status: ('A' for Active; 'I' for Inactive)
    1  A    between atoms: C_17  and  C_28
    2  A    between atoms: C_28  and  O_29
    3  A    between atoms: O_29  and  C_32
                            x       y       z     vdW  Elec       q    Type
                         _______ _______ _______ _____ _____    ______ ____

>  <TORSDO>
F 3

$$$$
=
 OpenBabel11112418043D

 34 40  0  0  1  0  0  0  0  0999 V2000
  192.0980  176.1980  145.6330 C   0  0  0  0  0  0  0  0  0  0  0  0
  189.9250  177.1690  146.5220 C   0  0  0  0  0  2  0  0  0  0  0  0
  195.9340  174.5070  140.5530 C   0  0  0  0  0  0  0  0  0  0  0  0
  194.1390  175.6220  144.4390 C   0  0  0  0  0  0  0  0  0  0  0  0
  193.9580  175.0040  142.0050 C   0  0  0  0  0  0  0  0  0  0  0  0
  193.5830  174.7750  139.5890 C   0  0  0  0  0  1  0  0  0  0  0  0
  196.5470  174.9520  139.2690 C   0  0  0  0  0  1  0  0  0  0  0  0
  196.3260  173.1940  142.6670 C   0  0  0  0  0  3  0  0  0  0  0  0
  189.8450  175.5640  144.7000 C   0  0  2  0  0  3  0  0  0  0  0  0
  187.5690  176.0560  142.4290 C   0  0  0  0  0  2  0  0  0  0  0  0
  192.5350  175.1590  142.1430 N   0  0  0  0  0  0  0  0  0  0  0  0
  195.4670  173.7670  143.5100 C   0  0  0  0  0  3  0  0  0  0  0  0
  190.4390  175.6620  143.2740 C   0  0  1  0  0  3  0  0  0  0  0  0
  188.4680  177.0020  146.1330 C   0  0  0  0  0  2  0  0  0  0  0  0
  194.8480  175.0950  143.2220 C   0  0  0  0  0  0  0  0  0  0  0  0
  196.7040  173.7610  141.3590 C   0  0  0  0  0  2  0  0  0  0  0  0
  187.9380  176.9460  143.6310 C   0  0  2  0  0  3  0  0  0  0  0  0
  192.7380  175.7350  144.4730 C   0  0  0  0  0  0  0  0  0  0  0  0
  194.4840  174.7690  140.7860 C   0  0  0  0  0  0  0  0  0  0  0  0
  191.9370  175.4430  143.2630 C   0  0  0  0  0  0  0  0  0  0  0  0
  194.2520  176.4860  146.7060 C   0  0  0  0  0  3  0  0  0  0  0  0
  188.2180  174.6710  142.4280 C   0  0  0  0  0  2  0  0  0  0  0  0
  194.8890  176.0050  145.5590 C   0  0  0  0  0  3  0  0  0  0  0  0
  189.7380  174.7180  142.2840 C   0  0  0  0  0  2  0  0  0  0  0  0
  188.4230  176.1440  144.8630 C   0  0  1  0  0  3  0  0  0  0  0  0
  192.8590  176.5810  146.7440 C   0  0  0  0  0  3  0  0  0  0  0  0
  190.6690  176.2810  145.6550 N   0  0  0  0  0  0  0  0  0  0  0  0
  186.7380  177.8280  143.9590 C   0  0  0  0  0  2  0  0  0  0  0  0
  185.6860  177.0440  144.4380 O   0  0  0  0  0  0  0  0  0  0  0  0
  185.0680  178.2940  147.3940 O   0  0  0  0  0  0  0  0  0  0  0  0
  185.6090  179.1850  145.4290 C   0  0  0  0  0  3  0  0  0  0  0  0
  184.8500  177.9410  145.1050 C   0  0  2  0  0  3  0  0  0  0  0  0
  185.7020  179.3300  146.7370 C   0  0  0  0  0  3  0  0  0  0  0  0
  184.4940  177.3790  146.4800 C   0  0  0  0  0  2  0  0  0  0  0  0
  1 27  1  0  0  0  0
  1 26  1  0  0  0  0
  3 19  2  0  0  0  0
  3 16  1  0  0  0  0
  4 18  1  0  0  0  0
  4 23  2  0  0  0  0
  5 11  1  0  0  0  0
  5 15  2  0  0  0  0
  6 19  1  0  0  0  0
  7  3  1  0  0  0  0
  8 12  2  0  0  0  0
  9 25  1  0  0  0  0
  9 27  1  1  0  0  0
 10 17  1  0  0  0  0
 11 20  2  0  0  0  0
 13 24  1  6  0  0  0
 13  9  1  0  0  0  0
 14  2  1  0  0  0  0
 15 12  1  0  0  0  0
 15  4  1  0  0  0  0
 16  8  1  0  0  0  0
 17 28  1  1  0  0  0
 17 25  1  0  0  0  0
 18  1  2  0  0  0  0
 19  5  1  0  0  0  0
 20 13  1  0  0  0  0
 20 18  1  0  0  0  0
 21 26  2  0  0  0  0
 22 10  1  0  0  0  0
 23 21  1  0  0  0  0
 24 22  1  0  0  0  0
 25 14  1  1  0  0  0
 27  2  1  0  0  0  0
 28 29  1  0  0  0  0
 31 33  2  0  0  0  0
 32 29  1  1  0  0  0
 32 31  1  0  0  0  0
 32 34  1  0  0  0  0
 33 30  1  0  0  0  0
 34 30  1  0  0  0  0
M  END
>  <MODEL>
4

>  <REMARK>
 VINA RESULT:      -8.2      1.483      2.080
  Name = 
  3 active torsions:
  status: ('A' for Active; 'I' for Inactive)
    1  A    between atoms: C_17  and  C_28
    2  A    between atoms: C_28  and  O_29
    3  A    between atoms: O_29  and  C_32
                            x       y       z     vdW  Elec       q    Type
                         _______ _______ _______ _____ _____    ______ ____

>  <TORSDO>
F 3

$$$$
=
 OpenBabel11112418043D

 34 40  0  0  1  0  0  0  0  0999 V2000
  188.2010  176.5300  146.5820 C   0  0  0  0  0  0  0  0  0  0  0  0
  190.4070  175.5170  147.3300 C   0  0  0  0  0  2  0  0  0  0  0  0
  184.0590  178.2540  141.7600 C   0  0  0  0  0  0  0  0  0  0  0  0
  186.0960  177.1420  145.5260 C   0  0  0  0  0  0  0  0  0  0  0  0
  186.1200  177.7260  143.0770 C   0  0  0  0  0  0  0  0  0  0  0  0
  186.3290  177.9170  140.6380 C   0  0  0  0  0  1  0  0  0  0  0  0
  183.3470  177.8090  140.5280 C   0  0  0  0  0  1  0  0  0  0  0  0
  183.8480  179.6010  143.8780 C   0  0  0  0  0  3  0  0  0  0  0  0
  190.3970  177.0970  145.4850 C   0  0  2  0  0  3  0  0  0  0  0  0
  192.4960  176.5210  143.0670 C   0  0  0  0  0  2  0  0  0  0  0  0
  187.5450  177.5380  143.1170 N   0  0  0  0  0  0  0  0  0  0  0  0
  184.7500  179.0180  144.6660 C   0  0  0  0  0  3  0  0  0  0  0  0
  189.7030  176.9960  144.1060 C   0  0  1  0  0  3  0  0  0  0  0  0
  191.8370  175.6430  146.8370 C   0  0  0  0  0  2  0  0  0  0  0  0
  185.3150  177.6710  144.3550 C   0  0  0  0  0  0  0  0  0  0  0  0
  183.3650  179.0290  142.6070 C   0  0  0  0  0  2  0  0  0  0  0  0
  192.1910  175.6560  144.3040 C   0  0  2  0  0  3  0  0  0  0  0  0
  187.4930  176.9950  145.4630 C   0  0  0  0  0  0  0  0  0  0  0  0
  185.5150  177.9590  141.8940 C   0  0  0  0  0  0  0  0  0  0  0  0
  188.2130  177.2530  144.1960 C   0  0  0  0  0  0  0  0  0  0  0  0
  186.1210  176.3090  147.8070 C   0  0  0  0  0  3  0  0  0  0  0  0
  191.8820  177.9220  143.0930 C   0  0  0  0  0  2  0  0  0  0  0  0
  185.4170  176.7910  146.7010 C   0  0  0  0  0  3  0  0  0  0  0  0
  190.3540  177.9110  143.0560 C   0  0  0  0  0  2  0  0  0  0  0  0
  191.8130  176.4840  145.5560 C   0  0  1  0  0  3  0  0  0  0  0  0
  187.5110  176.1790  147.7490 C   0  0  0  0  0  3  0  0  0  0  0  0
  189.6260  176.4120  146.5040 N   0  0  0  0  0  0  0  0  0  0  0  0
  193.3900  174.7480  144.5590 C   0  0  0  0  0  2  0  0  0  0  0  0
  193.2230  173.5370  143.8820 O   0  0  0  0  0  0  0  0  0  0  0  0
  193.3600  170.3470  144.5780 O   0  0  0  0  0  0  0  0  0  0  0  0
  194.1780  172.1710  145.5530 C   0  0  0  0  0  3  0  0  0  0  0  0
  192.9200  172.6100  144.8810 C   0  0  2  0  0  3  0  0  0  0  0  0
  194.3760  170.8830  145.3460 C   0  0  0  0  0  3  0  0  0  0  0  0
  192.3960  171.3260  144.2420 C   0  0  0  0  0  2  0  0  0  0  0  0
  1 26  1  0  0  0  0
  3 19  2  0  0  0  0
  3 16  1  0  0  0  0
  4 23  2  0  0  0  0
  5 11  1  0  0  0  0
  5 15  2  0  0  0  0
  6 19  1  0  0  0  0
  7  3  1  0  0  0  0
  8 12  2  0  0  0  0
  9 25  1  0  0  0  0
  9 27  1  1  0  0  0
 10 22  1  0  0  0  0
 10 17  1  0  0  0  0
 11 20  2  0  0  0  0
 13 24  1  6  0  0  0
 13 20  1  0  0  0  0
 13  9  1  0  0  0  0
 14  2  1  0  0  0  0
 15 12  1  0  0  0  0
 15  4  1  0  0  0  0
 16  8  1  0  0  0  0
 17 28  1  1  0  0  0
 17 25  1  0  0  0  0
 18  4  1  0  0  0  0
 18  1  2  0  0  0  0
 19  5  1  0  0  0  0
 20 18  1  0  0  0  0
 23 21  1  0  0  0  0
 24 22  1  0  0  0  0
 25 14  1  1  0  0  0
 26 21  2  0  0  0  0
 27  1  1  0  0  0  0
 27  2  1  0  0  0  0
 29 28  1  0  0  0  0
 30 33  1  0  0  0  0
 32 29  1  6  0  0  0
 32 31  1  0  0  0  0
 33 31  2  0  0  0  0
 34 30  1  0  0  0  0
 34 32  1  0  0  0  0
M  END
>  <MODEL>
5

>  <REMARK>
 VINA RESULT:      -8.1      3.192      8.436
  Name = 
  3 active torsions:
  status: ('A' for Active; 'I' for Inactive)
    1  A    between atoms: C_17  and  C_28
    2  A    between atoms: C_28  and  O_29
    3  A    between atoms: O_29  and  C_32
                            x       y       z     vdW  Elec       q    Type
                         _______ _______ _______ _____ _____    ______ ____

>  <TORSDO>
F 3

$$$$
=
 OpenBabel11112418043D

 34 40  0  0  1  0  0  0  0  0999 V2000
  190.8000  173.8000  141.5720 C   0  0  0  0  0  0  0  0  0  0  0  0
  188.3040  174.2630  141.4840 C   0  0  0  0  0  2  0  0  0  0  0  0
  196.4930  173.8200  144.8850 C   0  0  0  0  0  0  0  0  0  0  0  0
  193.0970  173.2080  142.1170 C   0  0  0  0  0  0  0  0  0  0  0  0
  194.1920  174.3660  144.0670 C   0  0  0  0  0  0  0  0  0  0  0  0
  194.9250  175.3590  146.1890 C   0  0  0  0  0  1  0  0  0  0  0  0
  197.1910  173.4150  146.1380 C   0  0  0  0  0  1  0  0  0  0  0  0
  196.7150  174.0160  142.3830 C   0  0  0  0  0  3  0  0  0  0  0  0
  189.7810  175.9280  142.4560 C   0  0  2  0  0  3  0  0  0  0  0  0
  188.6320  177.5730  145.0170 C   0  0  0  0  0  2  0  0  0  0  0  0
  192.9810  175.1280  144.2060 N   0  0  0  0  0  0  0  0  0  0  0  0
  195.4450  173.9410  141.9870 C   0  0  0  0  0  3  0  0  0  0  0  0
  190.7040  175.8230  143.6940 C   0  0  1  0  0  3  0  0  0  0  0  0
  187.4340  175.4090  141.9660 C   0  0  0  0  0  2  0  0  0  0  0  0
  194.3670  173.4360  142.8890 C   0  0  2  0  0  3  0  0  0  0  0  0
  197.1810  173.6780  143.7420 C   0  0  0  0  0  3  0  0  0  0  0  0
  187.9870  176.3950  144.2600 C   0  0  2  0  0  3  0  0  0  0  0  0
  191.9630  174.0120  142.3290 C   0  0  0  0  0  0  0  0  0  0  0  0
  195.1680  174.4970  144.9880 C   0  0  0  0  0  0  0  0  0  0  0  0
  191.9610  175.0300  143.4030 C   0  0  0  0  0  0  0  0  0  0  0  0
  191.8800  171.9550  140.4300 C   0  0  0  0  0  3  0  0  0  0  0  0
  189.8700  178.1710  144.3460 C   0  0  0  0  0  2  0  0  0  0  0  0
  193.0440  172.1780  141.1690 C   0  0  0  0  0  3  0  0  0  0  0  0
  191.0490  177.2000  144.2840 C   0  0  0  0  0  2  0  0  0  0  0  0
  188.3320  176.3730  142.7510 C   0  0  1  0  0  3  0  0  0  0  0  0
  190.7590  172.7650  140.6300 C   0  0  0  0  0  3  0  0  0  0  0  0
  189.6660  174.6470  141.7860 N   0  0  0  0  0  0  0  0  0  0  0  0
  186.4830  176.4370  144.5040 C   0  0  0  0  0  2  0  0  0  0  0  0
  186.0000  177.7300  144.2870 O   0  0  0  0  0  0  0  0  0  0  0  0
  185.5560  177.6500  147.5240 O   0  0  0  0  0  0  0  0  0  0  0  0
  185.2730  179.2170  145.9700 C   0  0  0  0  0  3  0  0  0  0  0  0
  185.0310  177.9180  145.2740 C   0  0  2  0  0  3  0  0  0  0  0  0
  185.5670  179.0020  147.2380 C   0  0  0  0  0  3  0  0  0  0  0  0
  185.2250  176.8840  146.3820 C   0  0  0  0  0  2  0  0  0  0  0  0
  1 27  1  0  0  0  0
  1 18  1  0  0  0  0
  2 27  1  0  0  0  0
  2 14  1  0  0  0  0
  3 19  1  0  0  0  0
  3  7  1  0  0  0  0
  4 18  2  0  0  0  0
  4 15  1  0  0  0  0
  5 11  1  0  0  0  0
  5 19  2  0  0  0  0
  8 16  1  0  0  0  0
  9 27  1  1  0  0  0
  9 25  1  0  0  0  0
  9 13  1  0  0  0  0
 12  8  2  0  0  0  0
 13 24  1  6  0  0  0
 15 12  1  6  0  0  0
 15  5  1  0  0  0  0
 16  3  2  0  0  0  0
 17 28  1  6  0  0  0
 17 10  1  0  0  0  0
 18 20  1  0  0  0  0
 19  6  1  0  0  0  0
 20 13  1  0  0  0  0
 20 11  2  0  0  0  0
 21 26  1  0  0  0  0
 21 23  2  0  0  0  0
 22 10  1  0  0  0  0
 23  4  1  0  0  0  0
 24 22  1  0  0  0  0
 25 14  1  6  0  0  0
 25 17  1  0  0  0  0
 26  1  2  0  0  0  0
 29 28  1  0  0  0  0
 31 33  2  0  0  0  0
 32 29  1  6  0  0  0
 32 31  1  0  0  0  0
 32 34  1  0  0  0  0
 33 30  1  0  0  0  0
 34 30  1  0  0  0  0
M  END
>  <MODEL>
6

>  <REMARK>
 VINA RESULT:      -8.0      1.901      3.940
  Name = 
  3 active torsions:
  status: ('A' for Active; 'I' for Inactive)
    1  A    between atoms: C_17  and  C_28
    2  A    between atoms: C_28  and  O_29
    3  A    between atoms: O_29  and  C_32
                            x       y       z     vdW  Elec       q    Type
                         _______ _______ _______ _____ _____    ______ ____

>  <TORSDO>
F 3

$$$$
=
 OpenBabel11112418043D

 34 40  0  0  1  0  0  0  0  0999 V2000
  192.1580  175.9690  145.1870 C   0  0  0  0  0  0  0  0  0  0  0  0
  190.1710  177.5420  145.3640 C   0  0  0  0  0  2  0  0  0  0  0  0
  196.0990  172.1420  141.5550 C   0  0  0  0  0  0  0  0  0  0  0  0
  194.1440  174.6960  144.5920 C   0  0  0  0  0  0  0  0  0  0  0  0
  194.1260  173.4090  142.4270 C   0  0  0  0  0  0  0  0  0  0  0  0
  194.0070  172.5260  140.1400 C   0  0  0  0  0  1  0  0  0  0  0  0
  196.9500  172.0550  140.3330 C   0  0  0  0  0  1  0  0  0  0  0  0
  195.9210  171.4880  143.9810 C   0  0  0  0  0  3  0  0  0  0  0  0
  189.9510  175.5010  144.0650 C   0  0  2  0  0  3  0  0  0  0  0  0
  188.1420  175.6830  141.3680 C   0  0  0  0  0  2  0  0  0  0  0  0
  192.7700  173.8530  142.2540 N   0  0  0  0  0  0  0  0  0  0  0  0
  195.1180  172.4360  144.4630 C   0  0  0  0  0  3  0  0  0  0  0  0
  190.7210  175.0500  142.8000 C   0  0  1  0  0  3  0  0  0  0  0  0
  188.7730  177.5320  144.7740 C   0  0  0  0  0  2  0  0  0  0  0  0
  194.8580  173.7030  143.7160 C   0  0  0  0  0  0  0  0  0  0  0  0
  196.5750  171.5500  142.6600 C   0  0  0  0  0  2  0  0  0  0  0  0
  188.5540  176.8140  142.3290 C   0  0  2  0  0  3  0  0  0  0  0  0
  192.8120  175.0660  144.3350 C   0  0  0  0  0  0  0  0  0  0  0  0
  194.7300  172.7210  141.4370 C   0  0  0  0  0  0  0  0  0  0  0  0
  192.1200  174.5690  143.1250 C   0  0  0  0  0  0  0  0  0  0  0  0
  194.1730  176.1740  146.5180 C   0  0  0  0  0  3  0  0  0  0  0  0
  188.4540  174.2690  141.8630 C   0  0  0  0  0  2  0  0  0  0  0  0
  194.8190  175.2590  145.6830 C   0  0  0  0  0  3  0  0  0  0  0  0
  189.9510  173.9930  141.9930 C   0  0  0  0  0  2  0  0  0  0  0  0
  188.6900  176.3510  143.8000 C   0  0  1  0  0  3  0  0  0  0  0  0
  192.8450  176.5280  146.2720 C   0  0  0  0  0  3  0  0  0  0  0  0
  190.7940  176.3130  144.9220 N   0  0  0  0  0  0  0  0  0  0  0  0
  187.5560  177.9560  142.1770 C   0  0  0  0  0  2  0  0  0  0  0  0
  186.2520  177.4690  142.2930 O   0  0  0  0  0  0  0  0  0  0  0  0
  183.7040  178.7920  143.8560 O   0  0  0  0  0  0  0  0  0  0  0  0
  185.8060  179.4370  143.5180 C   0  0  0  0  0  3  0  0  0  0  0  0
  185.4480  178.6100  142.3280 C   0  0  2  0  0  3  0  0  0  0  0  0
  184.7820  179.5020  144.3480 C   0  0  0  0  0  3  0  0  0  0  0  0
  184.0000  178.2060  142.6030 C   0  0  0  0  0  2  0  0  0  0  0  0
  1 26  1  0  0  0  0
  3 16  1  0  0  0  0
  4 23  2  0  0  0  0
  5 15  2  0  0  0  0
  6 19  1  0  0  0  0
  7  3  1  0  0  0  0
  8 12  2  0  0  0  0
  9 27  1  1  0  0  0
 10 22  1  0  0  0  0
 10 17  1  0  0  0  0
 11  5  1  0  0  0  0
 11 20  2  0  0  0  0
 13 24  1  1  0  0  0
 13 20  1  0  0  0  0
 13  9  1  0  0  0  0
 14  2  1  0  0  0  0
 15 12  1  0  0  0  0
 15  4  1  0  0  0  0
 16  8  1  0  0  0  0
 17 28  1  1  0  0  0
 17 25  1  0  0  0  0
 18  4  1  0  0  0  0
 18  1  2  0  0  0  0
 19  3  2  0  0  0  0
 19  5  1  0  0  0  0
 20 18  1  0  0  0  0
 22 24  1  0  0  0  0
 23 21  1  0  0  0  0
 25  9  1  0  0  0  0
 25 14  1  1  0  0  0
 26 21  2  0  0  0  0
 27  1  1  0  0  0  0
 27  2  1  0  0  0  0
 28 29  1  0  0  0  0
 30 33  1  0  0  0  0
 31 33  2  0  0  0  0
 32 29  1  1  0  0  0
 32 34  1  0  0  0  0
 32 31  1  0  0  0  0
 34 30  1  0  0  0  0
M  END
>  <MODEL>
7

>  <REMARK>
 VINA RESULT:      -7.9      1.782      2.071
  Name = 
  3 active torsions:
  status: ('A' for Active; 'I' for Inactive)
    1  A    between atoms: C_17  and  C_28
    2  A    between atoms: C_28  and  O_29
    3  A    between atoms: O_29  and  C_32
                            x       y       z     vdW  Elec       q    Type
                         _______ _______ _______ _____ _____    ______ ____

>  <TORSDO>
F 3

$$$$
=
 OpenBabel11112418043D

 34 40  0  0  1  0  0  0  0  0999 V2000
  189.4660  175.9050  146.3050 C   0  0  0  0  0  0  0  0  0  0  0  0
  191.5910  174.6150  146.8270 C   0  0  0  0  0  2  0  0  0  0  0  0
  185.1670  178.2840  141.9190 C   0  0  0  0  0  0  0  0  0  0  0  0
  187.3670  176.7970  145.4570 C   0  0  0  0  0  0  0  0  0  0  0  0
  187.2540  177.4700  143.0330 C   0  0  0  0  0  0  0  0  0  0  0  0
  187.2790  177.7300  140.5920 C   0  0  0  0  0  1  0  0  0  0  0  0
  184.3060  177.9730  140.7420 C   0  0  0  0  0  1  0  0  0  0  0  0
  185.2960  179.5630  144.0860 C   0  0  0  0  0  3  0  0  0  0  0  0
  191.6140  176.2570  145.0350 C   0  0  2  0  0  3  0  0  0  0  0  0
  193.4180  175.5370  142.4270 C   0  0  0  0  0  2  0  0  0  0  0  0
  188.6450  177.1170  142.9420 N   0  0  0  0  0  0  0  0  0  0  0  0
  186.1860  178.8490  144.7740 C   0  0  0  0  0  3  0  0  0  0  0  0
  190.7990  176.2910  143.7210 C   0  0  1  0  0  3  0  0  0  0  0  0
  192.9800  174.5940  146.2130 C   0  0  0  0  0  2  0  0  0  0  0  0
  186.5590  177.4590  144.3750 C   0  0  0  0  0  0  0  0  0  0  0  0
  184.6430  179.1000  142.8460 C   0  0  0  0  0  2  0  0  0  0  0  0
  193.1190  174.6650  143.6610 C   0  0  2  0  0  3  0  0  0  0  0  0
  188.7260  176.4920  145.2670 C   0  0  0  0  0  0  0  0  0  0  0  0
  186.5830  177.8180  141.9160 C   0  0  0  0  0  0  0  0  0  0  0  0
  189.3630  176.7140  143.9490 C   0  0  0  0  0  0  0  0  0  0  0  0
  187.4850  175.8780  147.7020 C   0  0  0  0  0  3  0  0  0  0  0  0
  192.9790  176.9980  142.5470 C   0  0  0  0  0  2  0  0  0  0  0  0
  186.7530  176.4820  146.6770 C   0  0  0  0  0  3  0  0  0  0  0  0
  191.4630  177.1640  142.6440 C   0  0  0  0  0  2  0  0  0  0  0  0
  192.9470  175.4820  144.9640 C   0  0  1  0  0  3  0  0  0  0  0  0
  188.8400  175.5910  147.5180 C   0  0  0  0  0  3  0  0  0  0  0  0
  190.8550  175.6260  146.0990 N   0  0  0  0  0  0  0  0  0  0  0  0
  194.2180  173.6150  143.7820 C   0  0  0  0  0  2  0  0  0  0  0  0
  195.4190  174.1220  143.2800 O   0  0  0  0  0  0  0  0  0  0  0  0
  197.9410  174.1070  145.3580 O   0  0  0  0  0  0  0  0  0  0  0  0
  196.0540  172.9380  145.2200 C   0  0  0  0  0  3  0  0  0  0  0  0
  196.4060  173.2910  143.8130 C   0  0  2  0  0  3  0  0  0  0  0  0
  196.9560  173.4270  146.0490 C   0  0  0  0  0  3  0  0  0  0  0  0
  197.7070  174.0770  143.9630 C   0  0  0  0  0  2  0  0  0  0  0  0
  1 26  1  0  0  0  0
  3 16  1  0  0  0  0
  4 23  2  0  0  0  0
  5 15  2  0  0  0  0
  6 19  1  0  0  0  0
  7  3  1  0  0  0  0
  8 12  2  0  0  0  0
  9 27  1  1  0  0  0
 10 22  1  0  0  0  0
 10 17  1  0  0  0  0
 11  5  1  0  0  0  0
 11 20  2  0  0  0  0
 13 24  1  6  0  0  0
 13 20  1  0  0  0  0
 13  9  1  0  0  0  0
 14  2  1  0  0  0  0
 15 12  1  0  0  0  0
 15  4  1  0  0  0  0
 16  8  1  0  0  0  0
 17 28  1  1  0  0  0
 17 25  1  0  0  0  0
 18  4  1  0  0  0  0
 18  1  2  0  0  0  0
 19  3  2  0  0  0  0
 19  5  1  0  0  0  0
 20 18  1  0  0  0  0
 22 24  1  0  0  0  0
 23 21  1  0  0  0  0
 25  9  1  0  0  0  0
 25 14  1  1  0  0  0
 26 21  2  0  0  0  0
 27  1  1  0  0  0  0
 27  2  1  0  0  0  0
 29 28  1  0  0  0  0
 30 33  1  0  0  0  0
 31 33  2  0  0  0  0
 32 29  1  1  0  0  0
 32 34  1  0  0  0  0
 32 31  1  0  0  0  0
 34 30  1  0  0  0  0
M  END
>  <MODEL>
8

>  <REMARK>
 VINA RESULT:      -7.6      3.147      8.441
  Name = 
  3 active torsions:
  status: ('A' for Active; 'I' for Inactive)
    1  A    between atoms: C_17  and  C_28
    2  A    between atoms: C_28  and  O_29
    3  A    between atoms: O_29  and  C_32
                            x       y       z     vdW  Elec       q    Type
                         _______ _______ _______ _____ _____    ______ ____

>  <TORSDO>
F 3

$$$$
=
 OpenBabel11112418043D

 34 40  0  0  1  0  0  0  0  0999 V2000
  192.9830  176.1540  144.5180 C   0  0  0  0  0  0  0  0  0  0  0  0
  190.8780  176.7750  145.7970 C   0  0  0  0  0  2  0  0  0  0  0  0
  196.0160  174.8220  138.8250 C   0  0  0  0  0  0  0  0  0  0  0  0
  194.8260  175.8720  142.9540 C   0  0  0  0  0  0  0  0  0  0  0  0
  194.3000  175.0570  140.6300 C   0  0  0  0  0  0  0  0  0  0  0  0
  193.5160  174.5880  138.3510 C   0  0  0  0  0  1  0  0  0  0  0  0
  196.2710  175.2770  137.4280 C   0  0  0  0  0  1  0  0  0  0  0  0
  197.0550  173.7600  140.8590 C   0  0  0  0  0  3  0  0  0  0  0  0
  190.7570  175.0540  144.0860 C   0  0  2  0  0  3  0  0  0  0  0  0
  188.0330  174.9590  142.3110 C   0  0  0  0  0  2  0  0  0  0  0  0
  192.9280  174.9590  141.0500 N   0  0  0  0  0  0  0  0  0  0  0  0
  196.2810  174.2270  141.8380 C   0  0  0  0  0  3  0  0  0  0  0  0
  191.0340  175.1550  142.5660 C   0  0  1  0  0  3  0  0  0  0  0  0
  189.4330  176.3180  145.7180 C   0  0  0  0  0  2  0  0  0  0  0  0
  195.3750  175.3960  141.6370 C   0  0  0  0  0  0  0  0  0  0  0  0
  197.0570  174.2890  139.4820 C   0  0  0  0  0  2  0  0  0  0  0  0
  188.4490  175.9850  143.3810 C   0  0  2  0  0  3  0  0  0  0  0  0
  193.4630  175.7310  143.2680 C   0  0  0  0  0  0  0  0  0  0  0  0
  194.6160  174.8330  139.3390 C   0  0  0  0  0  0  0  0  0  0  0  0
  192.5150  175.2110  142.2580 C   0  0  0  0  0  0  0  0  0  0  0  0
  195.2080  176.9050  145.1180 C   0  0  0  0  0  3  0  0  0  0  0  0
  188.9240  173.7180  142.2260 C   0  0  0  0  0  2  0  0  0  0  0  0
  195.6910  176.4660  143.8830 C   0  0  0  0  0  3  0  0  0  0  0  0
  190.3500  174.0300  141.7730 C   0  0  0  0  0  2  0  0  0  0  0  0
  189.3100  175.3760  144.5150 C   0  0  1  0  0  3  0  0  0  0  0  0
  193.8570  176.7480  145.4360 C   0  0  0  0  0  3  0  0  0  0  0  0
  191.5970  175.9770  144.8270 N   0  0  0  0  0  0  0  0  0  0  0  0
  187.1890  176.6560  143.9150 C   0  0  0  0  0  2  0  0  0  0  0  0
  186.1970  176.6600  142.9310 O   0  0  0  0  0  0  0  0  0  0  0  0
  183.6870  178.6860  143.4590 O   0  0  0  0  0  0  0  0  0  0  0  0
  185.7940  178.6280  144.1700 C   0  0  0  0  0  3  0  0  0  0  0  0
  185.8140  177.9970  142.8170 C   0  0  2  0  0  3  0  0  0  0  0  0
  184.5660  178.9950  144.4800 C   0  0  0  0  0  3  0  0  0  0  0  0
  184.3550  178.0730  142.3720 C   0  0  0  0  0  2  0  0  0  0  0  0
  1 27  1  0  0  0  0
  1 26  1  0  0  0  0
  3 19  2  0  0  0  0
  3 16  1  0  0  0  0
  4 18  1  0  0  0  0
  4 23  2  0  0  0  0
  5 11  1  0  0  0  0
  5 15  2  0  0  0  0
  6 19  1  0  0  0  0
  7  3  1  0  0  0  0
  8 12  2  0  0  0  0
  9 25  1  0  0  0  0
  9 27  1  1  0  0  0
 10 17  1  0  0  0  0
 11 20  2  0  0  0  0
 13 24  1  6  0  0  0
 13  9  1  0  0  0  0
 14  2  1  0  0  0  0
 15 12  1  0  0  0  0
 15  4  1  0  0  0  0
 16  8  1  0  0  0  0
 17 28  1  1  0  0  0
 17 25  1  0  0  0  0
 18  1  2  0  0  0  0
 19  5  1  0  0  0  0
 20 13  1  0  0  0  0
 20 18  1  0  0  0  0
 21 26  2  0  0  0  0
 22 10  1  0  0  0  0
 23 21  1  0  0  0  0
 24 22  1  0  0  0  0
 25 14  1  1  0  0  0
 27  2  1  0  0  0  0
 29 28  1  0  0  0  0
 30 33  1  0  0  0  0
 31 33  2  0  0  0  0
 32 29  1  1  0  0  0
 32 31  1  0  0  0  0
 34 32  1  0  0  0  0
 34 30  1  0  0  0  0
M  END
>  <MODEL>
9

>  <REMARK>
 VINA RESULT:      -7.6      1.730      2.852
  Name = 
  3 active torsions:
  status: ('A' for Active; 'I' for Inactive)
    1  A    between atoms: C_17  and  C_28
    2  A    between atoms: C_28  and  O_29
    3  A    between atoms: O_29  and  C_32
                            x       y       z     vdW  Elec       q    Type
                         _______ _______ _______ _____ _____    ______ ____

>  <TORSDO>
F 3

$$$$
