=
 OpenBabel11112416183D

 30 34  0  0  1  0  0  0  0  0999 V2000
  187.7820  176.6780  144.7130 C   0  0  0  0  0  0  0  0  0  0  0  0
  186.3800  178.3520  145.9470 C   0  0  0  0  0  0  0  0  0  0  0  0
  186.1590  177.9070  141.0350 N   0  0  0  0  0  2  0  0  0  0  0  0
  188.1970  176.1100  143.4710 C   0  0  0  0  0  0  0  0  0  0  0  0
  188.3140  176.1550  145.8960 C   0  0  0  0  0  3  0  0  0  0  0  0
  190.5070  173.4560  144.6880 O   0  0  0  0  0  1  0  0  0  0  0  0
  188.7170  174.0490  141.0070 C   0  0  2  0  0  3  0  0  0  0  0  0
  189.6180  174.5290  144.6720 C   0  0  0  0  0  0  0  0  0  0  0  0
  187.5280  174.8060  140.8820 O   0  0  0  0  0  0  0  0  0  0  0  0
  186.8480  176.9890  140.1930 C   0  0  0  0  0  0  0  0  0  0  0  0
  189.2200  175.1000  145.8850 C   0  0  0  0  0  0  0  0  0  0  0  0
  189.1180  175.0230  143.4470 C   0  0  0  0  0  0  0  0  0  0  0  0
  185.4210  179.3680  145.9120 C   0  0  0  0  0  3  0  0  0  0  0  0
  186.8550  177.9800  147.1610 F   0  0  0  0  0  0  0  0  0  0  0  0
  186.7010  177.6400  142.3200 C   0  0  0  0  0  0  0  0  0  0  0  0
  184.8860  179.8020  144.7010 C   0  0  0  0  0  3  0  0  0  0  0  0
  186.8280  177.7460  144.7410 C   0  0  0  0  0  0  0  0  0  0  0  0
  187.6600  176.6530  142.2970 C   0  0  0  0  0  0  0  0  0  0  0  0
  186.6250  176.9040  138.9580 O   0  0  0  0  0  0  0  0  0  0  0  0
  187.8670  176.1650  140.9110 C   0  0  1  0  0  3  0  0  0  0  0  0
  190.8520  174.1400  142.0930 O   0  0  0  0  0  0  0  0  0  0  0  0
  185.3110  179.2260  143.5070 C   0  0  0  0  0  3  0  0  0  0  0  0
  186.2750  178.2130  143.5160 C   0  0  0  0  0  0  0  0  0  0  0  0
  189.6250  174.4230  142.1750 C   0  0  0  0  0  0  0  0  0  0  0  0
  189.5610  173.5420  137.2950 C   0  0  0  0  0  1  0  0  0  0  0  0
  189.4530  173.9670  139.6970 C   0  0  0  0  0  3  0  0  0  0  0  0
  188.8170  173.6160  138.5830 C   0  0  0  0  0  3  0  0  0  0  0  0
  189.7340  174.5770  147.1890 C   0  0  0  0  0  2  0  0  0  0  0  0
  192.1080  175.3530  147.1020 C   0  0  0  0  0  1  0  0  0  0  0  0
  190.7670  175.5180  147.7920 C   0  0  0  0  0  2  0  0  0  0  0  0
  1 17  1  0  0  0  0
  1  5  1  0  0  0  0
  2 14  1  0  0  0  0
  3 15  1  0  0  0  0
  4  1  2  0  0  0  0
  7 26  1  6  0  0  0
  7 24  1  0  0  0  0
  8  6  1  0  0  0  0
  8 11  1  0  0  0  0
  9 20  1  0  0  0  0
  9  7  1  0  0  0  0
 10  3  1  0  0  0  0
 11  5  2  0  0  0  0
 11 28  1  0  0  0  0
 12  4  1  0  0  0  0
 12  8  2  0  0  0  0
 13  2  1  0  0  0  0
 15 23  1  0  0  0  0
 16 13  2  0  0  0  0
 17  2  2  0  0  0  0
 18 15  2  0  0  0  0
 18  4  1  0  0  0  0
 19 10  2  0  0  0  0
 20 10  1  6  0  0  0
 20 18  1  0  0  0  0
 21 24  2  0  0  0  0
 22 23  2  0  0  0  0
 22 16  1  0  0  0  0
 23 17  1  0  0  0  0
 24 12  1  0  0  0  0
 25 27  1  0  0  0  0
 27 26  2  0  0  0  0
 28 30  1  0  0  0  0
 29 30  1  0  0  0  0
M  END
>  <MODEL>
1

>  <REMARK>
 VINA RESULT:      -8.6      0.000      0.000
  Name = 
  3 active torsions:
  status: ('A' for Active; 'I' for Inactive)
    1  A    between atoms: C_7  and  C_15
    2  A    between atoms: C_11  and  C_28
    3  A    between atoms: C_28  and  C_30
                            x       y       z     vdW  Elec       q    Type
                         _______ _______ _______ _____ _____    ______ ____

>  <TORSDO>
F 3

$$$$
=
 OpenBabel11112416183D

 30 34  0  0  1  0  0  0  0  0999 V2000
  186.2440  177.2460  143.7770 C   0  0  0  0  0  0  0  0  0  0  0  0
  184.6740  178.3120  145.4150 C   0  0  0  0  0  0  0  0  0  0  0  0
  188.8000  176.0360  146.8880 N   0  0  0  0  0  2  0  0  0  0  0  0
  187.4320  176.4920  143.5350 C   0  0  0  0  0  0  0  0  0  0  0  0
  185.4940  177.6770  142.6780 C   0  0  0  0  0  3  0  0  0  0  0  0
  187.4370  176.4250  139.8130 O   0  0  0  0  0  1  0  0  0  0  0  0
  190.4040  175.5840  142.5690 C   0  0  2  0  0  3  0  0  0  0  0  0
  187.0540  176.6710  141.1300 C   0  0  0  0  0  0  0  0  0  0  0  0
  190.3640  176.1210  143.8780 O   0  0  0  0  0  0  0  0  0  0  0  0
  189.8100  175.4230  146.0940 C   0  0  0  0  0  0  0  0  0  0  0  0
  185.8830  177.3960  141.3730 C   0  0  0  0  0  0  0  0  0  0  0  0
  187.8460  176.2050  142.2020 C   0  0  0  0  0  0  0  0  0  0  0  0
  184.3560  178.6240  146.7400 C   0  0  0  0  0  3  0  0  0  0  0  0
  183.8260  178.7450  144.4490 F   0  0  0  0  0  0  0  0  0  0  0  0
  187.8190  176.4150  145.9330 C   0  0  0  0  0  0  0  0  0  0  0  0
  185.1810  178.2140  147.7860 C   0  0  0  0  0  3  0  0  0  0  0  0
  185.8470  177.5680  145.1140 C   0  0  0  0  0  0  0  0  0  0  0  0
  188.1650  176.0620  144.6490 C   0  0  0  0  0  0  0  0  0  0  0  0
  190.8740  174.9660  146.5850 O   0  0  0  0  0  0  0  0  0  0  0  0
  189.4710  175.3560  144.6390 C   0  0  1  0  0  3  0  0  0  0  0  0
  188.9700  174.5190  140.9710 O   0  0  0  0  0  0  0  0  0  0  0  0
  186.3330  177.4810  147.5170 C   0  0  0  0  0  3  0  0  0  0  0  0
  186.6680  177.1510  146.2000 C   0  0  0  0  0  0  0  0  0  0  0  0
  189.0520  175.3770  141.8920 C   0  0  0  0  0  0  0  0  0  0  0  0
  193.4170  173.2130  142.7900 C   0  0  0  0  0  1  0  0  0  0  0  0
  191.2820  174.3640  142.5060 C   0  0  0  0  0  3  0  0  0  0  0  0
  192.5630  174.4310  142.8580 C   0  0  0  0  0  3  0  0  0  0  0  0
  185.0430  177.9060  140.2440 C   0  0  0  0  0  2  0  0  0  0  0  0
  182.5460  177.8710  140.3420 C   0  0  0  0  0  1  0  0  0  0  0  0
  183.8000  178.6160  140.7600 C   0  0  0  0  0  2  0  0  0  0  0  0
  1 17  1  0  0  0  0
  2 13  1  0  0  0  0
  4  1  1  0  0  0  0
  4 18  1  0  0  0  0
  5  1  2  0  0  0  0
  6  8  1  0  0  0  0
  7 26  1  1  0  0  0
  7  9  1  0  0  0  0
  8 11  2  0  0  0  0
  8 12  1  0  0  0  0
 10 19  2  0  0  0  0
 10  3  1  0  0  0  0
 11  5  1  0  0  0  0
 12  4  2  0  0  0  0
 13 16  2  0  0  0  0
 14  2  1  0  0  0  0
 15 23  1  0  0  0  0
 15  3  1  0  0  0  0
 17  2  2  0  0  0  0
 17 23  1  0  0  0  0
 18 15  2  0  0  0  0
 20  9  1  6  0  0  0
 20 18  1  0  0  0  0
 20 10  1  0  0  0  0
 21 24  2  0  0  0  0
 22 16  1  0  0  0  0
 23 22  2  0  0  0  0
 24 12  1  0  0  0  0
 24  7  1  0  0  0  0
 25 27  1  0  0  0  0
 26 27  2  0  0  0  0
 28 30  1  0  0  0  0
 28 11  1  0  0  0  0
 29 30  1  0  0  0  0
M  END
>  <MODEL>
2

>  <REMARK>
 VINA RESULT:      -8.5      2.363      5.357
  Name = 
  3 active torsions:
  status: ('A' for Active; 'I' for Inactive)
    1  A    between atoms: C_7  and  C_15
    2  A    between atoms: C_11  and  C_28
    3  A    between atoms: C_28  and  C_30
                            x       y       z     vdW  Elec       q    Type
                         _______ _______ _______ _____ _____    ______ ____

>  <TORSDO>
F 3

$$$$
=
 OpenBabel11112416183D

 30 34  0  0  1  0  0  0  0  0999 V2000
  187.4330  176.7210  143.6290 C   0  0  0  0  0  0  0  0  0  0  0  0
  185.8950  178.0450  142.1560 C   0  0  0  0  0  0  0  0  0  0  0  0
  188.9110  174.5980  140.3150 N   0  0  0  0  0  2  0  0  0  0  0  0
  188.4570  175.7330  143.7540 C   0  0  0  0  0  0  0  0  0  0  0  0
  186.9420  177.3220  144.7930 C   0  0  0  0  0  3  0  0  0  0  0  0
  188.8550  175.6460  147.4540 O   0  0  0  0  0  1  0  0  0  0  0  0
  190.1000  173.0270  144.5040 C   0  0  2  0  0  3  0  0  0  0  0  0
  188.4110  175.9950  146.1800 C   0  0  0  0  0  0  0  0  0  0  0  0
  189.4540  172.9760  143.2470 O   0  0  0  0  0  0  0  0  0  0  0  0
  189.8060  173.7360  141.0100 C   0  0  0  0  0  0  0  0  0  0  0  0
  187.4190  176.9740  146.0510 C   0  0  0  0  0  0  0  0  0  0  0  0
  188.9470  175.3620  145.0380 C   0  0  0  0  0  0  0  0  0  0  0  0
  185.4020  178.3170  140.8770 C   0  0  0  0  0  3  0  0  0  0  0  0
  185.3680  178.7440  143.1930 F   0  0  0  0  0  0  0  0  0  0  0  0
  188.4050  175.4380  141.3420 C   0  0  0  0  0  0  0  0  0  0  0  0
  185.8940  177.6380  139.7650 C   0  0  0  0  0  3  0  0  0  0  0  0
  186.9110  177.0690  142.3420 C   0  0  0  0  0  0  0  0  0  0  0  0
  188.9410  175.1500  142.5760 C   0  0  0  0  0  0  0  0  0  0  0  0
  190.4480  172.8190  140.4340 O   0  0  0  0  0  0  0  0  0  0  0  0
  189.9240  174.0420  142.4680 C   0  0  1  0  0  3  0  0  0  0  0  0
  190.9480  174.6260  146.0760 O   0  0  0  0  0  0  0  0  0  0  0  0
  186.8910  176.6800  139.9200 C   0  0  0  0  0  3  0  0  0  0  0  0
  187.4050  176.3950  141.1890 C   0  0  0  0  0  0  0  0  0  0  0  0
  190.0530  174.3710  145.2240 C   0  0  0  0  0  0  0  0  0  0  0  0
  193.0790  170.6980  143.8350 C   0  0  0  0  0  1  0  0  0  0  0  0
  191.4890  172.4530  144.4280 C   0  0  0  0  0  3  0  0  0  0  0  0
  191.6980  171.2490  143.9040 C   0  0  0  0  0  3  0  0  0  0  0  0
  186.8350  177.6430  147.2560 C   0  0  0  0  0  2  0  0  0  0  0  0
  184.4480  178.3490  147.0270 C   0  0  0  0  0  1  0  0  0  0  0  0
  185.8950  178.7720  146.8560 C   0  0  0  0  0  2  0  0  0  0  0  0
  1  4  1  0  0  0  0
  1  5  2  0  0  0  0
  2 17  1  0  0  0  0
  2 14  1  0  0  0  0
  3 10  1  0  0  0  0
  3 15  1  0  0  0  0
  4 12  2  0  0  0  0
  5 11  1  0  0  0  0
  7 26  1  6  0  0  0
  7 24  1  0  0  0  0
  8  6  1  0  0  0  0
  9  7  1  0  0  0  0
 11  8  2  0  0  0  0
 11 28  1  0  0  0  0
 12 24  1  0  0  0  0
 12  8  1  0  0  0  0
 13  2  2  0  0  0  0
 15 18  2  0  0  0  0
 16 22  2  0  0  0  0
 16 13  1  0  0  0  0
 17  1  1  0  0  0  0
 18  4  1  0  0  0  0
 19 10  2  0  0  0  0
 20 10  1  6  0  0  0
 20 18  1  0  0  0  0
 20  9  1  0  0  0  0
 22 23  1  0  0  0  0
 23 15  1  0  0  0  0
 23 17  2  0  0  0  0
 24 21  2  0  0  0  0
 25 27  1  0  0  0  0
 27 26  2  0  0  0  0
 30 29  1  0  0  0  0
 30 28  1  0  0  0  0
M  END
>  <MODEL>
3

>  <REMARK>
 VINA RESULT:      -7.9      2.293      4.356
  Name = 
  3 active torsions:
  status: ('A' for Active; 'I' for Inactive)
    1  A    between atoms: C_7  and  C_15
    2  A    between atoms: C_11  and  C_28
    3  A    between atoms: C_28  and  C_30
                            x       y       z     vdW  Elec       q    Type
                         _______ _______ _______ _____ _____    ______ ____

>  <TORSDO>
F 3

$$$$
=
 OpenBabel11112416183D

 30 34  0  0  1  0  0  0  0  0999 V2000
  188.2460  175.9420  143.6650 C   0  0  0  0  0  0  0  0  0  0  0  0
  185.9700  176.9510  143.9710 C   0  0  0  0  0  0  0  0  0  0  0  0
  189.4540  177.3150  147.4510 N   0  0  0  0  0  2  0  0  0  0  0  0
  189.5430  175.6690  144.1940 C   0  0  0  0  0  0  0  0  0  0  0  0
  187.9540  175.5180  142.3650 C   0  0  0  0  0  3  0  0  0  0  0  0
  191.1050  173.9500  141.2850 O   0  0  0  0  0  1  0  0  0  0  0  0
  192.7600  175.6180  144.6890 C   0  0  2  0  0  3  0  0  0  0  0  0
  190.1720  174.5960  142.0940 C   0  0  0  0  0  0  0  0  0  0  0  0
  192.0820  176.6250  145.4170 O   0  0  0  0  0  0  0  0  0  0  0  0
  190.7960  176.8430  147.4190 C   0  0  0  0  0  0  0  0  0  0  0  0
  188.8940  174.8520  141.5860 C   0  0  0  0  0  0  0  0  0  0  0  0
  190.5180  174.9960  143.4030 C   0  0  0  0  0  0  0  0  0  0  0  0
  185.0800  177.6770  144.7660 C   0  0  0  0  0  3  0  0  0  0  0  0
  185.5360  176.5500  142.7500 F   0  0  0  0  0  0  0  0  0  0  0  0
  188.9070  176.8260  146.2340 C   0  0  0  0  0  0  0  0  0  0  0  0
  185.4560  178.1230  146.0320 C   0  0  0  0  0  3  0  0  0  0  0  0
  187.2770  176.6530  144.4440 C   0  0  0  0  0  0  0  0  0  0  0  0
  189.8130  176.0950  145.5010 C   0  0  0  0  0  0  0  0  0  0  0  0
  191.6250  177.0920  148.3320 O   0  0  0  0  0  0  0  0  0  0  0  0
  191.1110  176.0090  146.2180 C   0  0  1  0  0  3  0  0  0  0  0  0
  192.3410  173.4990  143.6500 O   0  0  0  0  0  0  0  0  0  0  0  0
  186.7290  177.8410  146.5190 C   0  0  0  0  0  3  0  0  0  0  0  0
  187.6350  177.1100  145.7440 C   0  0  0  0  0  0  0  0  0  0  0  0
  191.8740  174.6390  143.9240 C   0  0  0  0  0  0  0  0  0  0  0  0
  196.0820  174.2410  146.0350 C   0  0  0  0  0  1  0  0  0  0  0  0
  193.7920  174.9310  145.5390 C   0  0  0  0  0  3  0  0  0  0  0  0
  195.0730  174.9250  145.1800 C   0  0  0  0  0  3  0  0  0  0  0  0
  188.5210  174.4440  140.1950 C   0  0  0  0  0  2  0  0  0  0  0  0
  188.8440  172.2850  138.9780 C   0  0  0  0  0  1  0  0  0  0  0  0
  188.1440  172.9700  140.1370 C   0  0  0  0  0  2  0  0  0  0  0  0
  1  4  1  0  0  0  0
  1 17  1  0  0  0  0
  2 17  2  0  0  0  0
  2 13  1  0  0  0  0
  4 18  1  0  0  0  0
  5  1  2  0  0  0  0
  6  8  1  0  0  0  0
  7  9  1  0  0  0  0
  7 26  1  1  0  0  0
  8 12  1  0  0  0  0
 10  3  1  0  0  0  0
 10 19  2  0  0  0  0
 11  8  2  0  0  0  0
 11  5  1  0  0  0  0
 12 24  1  0  0  0  0
 12  4  2  0  0  0  0
 13 16  2  0  0  0  0
 14  2  1  0  0  0  0
 15  3  1  0  0  0  0
 16 22  1  0  0  0  0
 17 23  1  0  0  0  0
 18 20  1  0  0  0  0
 18 15  2  0  0  0  0
 20  9  1  6  0  0  0
 20 10  1  0  0  0  0
 21 24  2  0  0  0  0
 23 15  1  0  0  0  0
 23 22  2  0  0  0  0
 24  7  1  0  0  0  0
 27 26  2  0  0  0  0
 27 25  1  0  0  0  0
 28 11  1  0  0  0  0
 29 30  1  0  0  0  0
 30 28  1  0  0  0  0
M  END
>  <MODEL>
4

>  <REMARK>
 VINA RESULT:      -7.9      2.553      5.722
  Name = 
  3 active torsions:
  status: ('A' for Active; 'I' for Inactive)
    1  A    between atoms: C_7  and  C_15
    2  A    between atoms: C_11  and  C_28
    3  A    between atoms: C_28  and  C_30
                            x       y       z     vdW  Elec       q    Type
                         _______ _______ _______ _____ _____    ______ ____

>  <TORSDO>
F 3

$$$$
=
 OpenBabel11112416183D

 30 34  0  0  1  0  0  0  0  0999 V2000
  188.8120  177.0890  145.7880 C   0  0  0  0  0  0  0  0  0  0  0  0
  186.7940  178.1690  146.8140 C   0  0  0  0  0  0  0  0  0  0  0  0
  186.7840  176.5770  142.1410 N   0  0  0  0  0  2  0  0  0  0  0  0
  189.4390  176.5080  144.6450 C   0  0  0  0  0  0  0  0  0  0  0  0
  189.5320  177.1480  146.9850 C   0  0  0  0  0  3  0  0  0  0  0  0
  192.7290  175.5510  146.1000 O   0  0  0  0  0  1  0  0  0  0  0  0
  190.8530  174.4150  142.5930 C   0  0  2  0  0  3  0  0  0  0  0  0
  191.4410  176.0660  145.9700 C   0  0  0  0  0  0  0  0  0  0  0  0
  189.4470  174.4960  142.4530 O   0  0  0  0  0  0  0  0  0  0  0  0
  187.8190  175.9110  141.4260 C   0  0  0  0  0  0  0  0  0  0  0  0
  190.8270  176.6500  147.0830 C   0  0  0  0  0  0  0  0  0  0  0  0
  190.7610  175.9870  144.7350 C   0  0  0  0  0  0  0  0  0  0  0  0
  185.4710  178.5990  146.6860 C   0  0  0  0  0  3  0  0  0  0  0  0
  187.3940  178.3390  148.0190 F   0  0  0  0  0  0  0  0  0  0  0  0
  187.3940  176.8840  143.3860 C   0  0  0  0  0  0  0  0  0  0  0  0
  184.7890  178.4550  145.4790 C   0  0  0  0  0  3  0  0  0  0  0  0
  187.4680  177.5790  145.7100 C   0  0  0  0  0  0  0  0  0  0  0  0
  188.7030  176.4670  143.4530 C   0  0  0  0  0  0  0  0  0  0  0  0
  187.6560  175.4570  140.2640 O   0  0  0  0  0  0  0  0  0  0  0  0
  189.1090  175.8280  142.1760 C   0  0  1  0  0  3  0  0  0  0  0  0
  192.7010  175.7110  143.3990 O   0  0  0  0  0  0  0  0  0  0  0  0
  185.4280  177.8840  144.3830 C   0  0  0  0  0  3  0  0  0  0  0  0
  186.7550  177.4530  144.4850 C   0  0  0  0  0  0  0  0  0  0  0  0
  191.4850  175.4140  143.5570 C   0  0  0  0  0  0  0  0  0  0  0  0
  191.9440  173.4120  139.0510 C   0  0  0  0  0  1  0  0  0  0  0  0
  191.5340  174.3850  141.2520 C   0  0  0  0  0  3  0  0  0  0  0  0
  191.2600  173.4250  140.3730 C   0  0  0  0  0  3  0  0  0  0  0  0
  191.5330  176.7280  148.4010 C   0  0  0  0  0  2  0  0  0  0  0  0
  191.5660  177.9160  150.5990 C   0  0  0  0  0  1  0  0  0  0  0  0
  191.1910  178.0180  149.1330 C   0  0  0  0  0  2  0  0  0  0  0  0
  1  5  1  0  0  0  0
  2 14  1  0  0  0  0
  3 15  1  0  0  0  0
  4 12  1  0  0  0  0
  4  1  2  0  0  0  0
  5 11  2  0  0  0  0
  7 26  1  6  0  0  0
  7 24  1  0  0  0  0
  8  6  1  0  0  0  0
  8 11  1  0  0  0  0
  9  7  1  0  0  0  0
 10  3  1  0  0  0  0
 11 28  1  0  0  0  0
 12  8  2  0  0  0  0
 13  2  1  0  0  0  0
 15 18  2  0  0  0  0
 15 23  1  0  0  0  0
 16 13  2  0  0  0  0
 17  1  1  0  0  0  0
 17  2  2  0  0  0  0
 18  4  1  0  0  0  0
 19 10  2  0  0  0  0
 20 10  1  6  0  0  0
 20  9  1  0  0  0  0
 20 18  1  0  0  0  0
 21 24  2  0  0  0  0
 22 23  2  0  0  0  0
 22 16  1  0  0  0  0
 23 17  1  0  0  0  0
 24 12  1  0  0  0  0
 25 27  1  0  0  0  0
 27 26  2  0  0  0  0
 28 30  1  0  0  0  0
 30 29  1  0  0  0  0
M  END
>  <MODEL>
5

>  <REMARK>
 VINA RESULT:      -7.9      1.825      2.307
  Name = 
  3 active torsions:
  status: ('A' for Active; 'I' for Inactive)
    1  A    between atoms: C_7  and  C_15
    2  A    between atoms: C_11  and  C_28
    3  A    between atoms: C_28  and  C_30
                            x       y       z     vdW  Elec       q    Type
                         _______ _______ _______ _____ _____    ______ ____

>  <TORSDO>
F 3

$$$$
=
 OpenBabel11112416183D

 30 34  0  0  1  0  0  0  0  0999 V2000
  190.4080  174.3330  143.2250 C   0  0  0  0  0  0  0  0  0  0  0  0
  191.0460  173.3730  140.9980 C   0  0  0  0  0  0  0  0  0  0  0  0
  186.8570  175.9100  141.6180 N   0  0  0  0  0  2  0  0  0  0  0  0
  189.4610  175.0440  144.0240 C   0  0  0  0  0  0  0  0  0  0  0  0
  191.6010  173.9120  143.8210 C   0  0  0  0  0  3  0  0  0  0  0  0
  191.2820  175.1630  147.2690 O   0  0  0  0  0  1  0  0  0  0  0  0
  188.0170  177.2910  145.8820 C   0  0  2  0  0  3  0  0  0  0  0  0
  190.9660  174.8870  145.9400 C   0  0  0  0  0  0  0  0  0  0  0  0
  187.7810  177.4530  144.4970 O   0  0  0  0  0  0  0  0  0  0  0  0
  186.3710  176.5520  142.7930 C   0  0  0  0  0  0  0  0  0  0  0  0
  191.8820  174.1770  145.1570 C   0  0  0  0  0  0  0  0  0  0  0  0
  189.7430  175.3300  145.3910 C   0  0  0  0  0  0  0  0  0  0  0  0
  190.7480  173.1840  139.6460 C   0  0  0  0  0  3  0  0  0  0  0  0
  192.2150  172.8620  141.4590 F   0  0  0  0  0  0  0  0  0  0  0  0
  188.0350  175.2560  142.0680 C   0  0  0  0  0  0  0  0  0  0  0  0
  189.5670  173.6830  139.1000 C   0  0  0  0  0  3  0  0  0  0  0  0
  190.1440  174.0780  141.8410 C   0  0  0  0  0  0  0  0  0  0  0  0
  188.2690  175.4490  143.4100 C   0  0  0  0  0  0  0  0  0  0  0  0
  185.3330  177.2620  142.7960 O   0  0  0  0  0  0  0  0  0  0  0  0
  187.1940  176.2780  144.0100 C   0  0  1  0  0  3  0  0  0  0  0  0
  188.6170  175.5910  147.4610 O   0  0  0  0  0  0  0  0  0  0  0  0
  188.6660  174.3730  139.9050 C   0  0  0  0  0  3  0  0  0  0  0  0
  188.9390  174.5680  141.2630 C   0  0  0  0  0  0  0  0  0  0  0  0
  188.7680  176.0260  146.2860 C   0  0  0  0  0  0  0  0  0  0  0  0
  184.6030  178.5780  147.0780 C   0  0  0  0  0  1  0  0  0  0  0  0
  186.7590  177.5050  146.6790 C   0  0  0  0  0  3  0  0  0  0  0  0
  185.8420  178.3800  146.2770 C   0  0  0  0  0  3  0  0  0  0  0  0
  193.1870  173.7150  145.7250 C   0  0  0  0  0  2  0  0  0  0  0  0
  194.6200  175.6830  146.2890 C   0  0  0  0  0  1  0  0  0  0  0  0
  194.3340  174.6030  145.2630 C   0  0  0  0  0  2  0  0  0  0  0  0
  1  5  2  0  0  0  0
  1  4  1  0  0  0  0
  2 14  1  0  0  0  0
  2 17  1  0  0  0  0
  3 15  1  0  0  0  0
  3 10  1  0  0  0  0
  4 12  2  0  0  0  0
  5 11  1  0  0  0  0
  7 24  1  0  0  0  0
  7 26  1  1  0  0  0
  8  6  1  0  0  0  0
  9  7  1  0  0  0  0
 10 19  2  0  0  0  0
 11 28  1  0  0  0  0
 11  8  2  0  0  0  0
 12  8  1  0  0  0  0
 12 24  1  0  0  0  0
 13  2  2  0  0  0  0
 15 18  2  0  0  0  0
 16 13  1  0  0  0  0
 16 22  2  0  0  0  0
 17  1  1  0  0  0  0
 18 20  1  0  0  0  0
 18  4  1  0  0  0  0
 20 10  1  6  0  0  0
 20  9  1  0  0  0  0
 22 23  1  0  0  0  0
 23 17  2  0  0  0  0
 23 15  1  0  0  0  0
 24 21  2  0  0  0  0
 27 26  2  0  0  0  0
 27 25  1  0  0  0  0
 30 28  1  0  0  0  0
 30 29  1  0  0  0  0
M  END
>  <MODEL>
6

>  <REMARK>
 VINA RESULT:      -7.5      2.666      5.866
  Name = 
  3 active torsions:
  status: ('A' for Active; 'I' for Inactive)
    1  A    between atoms: C_7  and  C_15
    2  A    between atoms: C_11  and  C_28
    3  A    between atoms: C_28  and  C_30
                            x       y       z     vdW  Elec       q    Type
                         _______ _______ _______ _____ _____    ______ ____

>  <TORSDO>
F 3

$$$$
=
 OpenBabel11112416183D

 30 34  0  0  1  0  0  0  0  0999 V2000
  188.9460  176.7460  145.5560 C   0  0  0  0  0  0  0  0  0  0  0  0
  189.6320  177.8550  147.6980 C   0  0  0  0  0  0  0  0  0  0  0  0
  192.4900  174.4840  145.4980 N   0  0  0  0  0  2  0  0  0  0  0  0
  189.2220  175.7910  144.5310 C   0  0  0  0  0  0  0  0  0  0  0  0
  187.7810  177.5130  145.4560 C   0  0  0  0  0  3  0  0  0  0  0  0
  186.2960  176.3440  142.2970 O   0  0  0  0  0  1  0  0  0  0  0  0
  189.8930  174.4020  141.6660 C   0  0  2  0  0  3  0  0  0  0  0  0
  187.1770  176.4490  143.3710 C   0  0  0  0  0  0  0  0  0  0  0  0
  191.0390  174.7090  142.4380 O   0  0  0  0  0  0  0  0  0  0  0  0
  192.2720  173.7980  144.2700 C   0  0  0  0  0  0  0  0  0  0  0  0
  186.9040  177.3720  144.3870 C   0  0  0  0  0  0  0  0  0  0  0  0
  188.3360  175.6430  143.4260 C   0  0  0  0  0  0  0  0  0  0  0  0
  190.5730  178.0060  148.7200 C   0  0  0  0  0  3  0  0  0  0  0  0
  188.5160  178.6240  147.7550 F   0  0  0  0  0  0  0  0  0  0  0  0
  191.2940  175.2300  145.6710 C   0  0  0  0  0  0  0  0  0  0  0  0
  191.7440  177.2510  148.7280 C   0  0  0  0  0  3  0  0  0  0  0  0
  189.8550  176.9230  146.6490 C   0  0  0  0  0  0  0  0  0  0  0  0
  190.3890  175.0260  144.6540 C   0  0  0  0  0  0  0  0  0  0  0  0
  193.1310  173.0350  143.7580 O   0  0  0  0  0  0  0  0  0  0  0  0
  190.9260  174.0530  143.6710 C   0  0  1  0  0  3  0  0  0  0  0  0
  187.5510  173.9730  141.9360 O   0  0  0  0  0  0  0  0  0  0  0  0
  191.9840  176.3300  147.7130 C   0  0  0  0  0  3  0  0  0  0  0  0
  191.0530  176.1550  146.6830 C   0  0  0  0  0  0  0  0  0  0  0  0
  188.5490  174.6250  142.3510 C   0  0  0  0  0  0  0  0  0  0  0  0
  191.0790  171.4260  139.5480 C   0  0  0  0  0  1  0  0  0  0  0  0
  190.0090  173.0420  141.0340 C   0  0  0  0  0  3  0  0  0  0  0  0
  190.9790  172.7790  140.1630 C   0  0  0  0  0  3  0  0  0  0  0  0
  185.6860  178.2400  144.3320 C   0  0  0  0  0  2  0  0  0  0  0  0
  184.1960  178.5690  146.3110 C   0  0  0  0  0  1  0  0  0  0  0  0
  185.4880  178.9930  145.6400 C   0  0  0  0  0  2  0  0  0  0  0  0
  1 17  1  0  0  0  0
  2 14  1  0  0  0  0
  2 13  1  0  0  0  0
  3 15  1  0  0  0  0
  4 18  1  0  0  0  0
  4  1  2  0  0  0  0
  5  1  1  0  0  0  0
  6  8  1  0  0  0  0
  7 26  1  1  0  0  0
  7 24  1  0  0  0  0
  7  9  1  0  0  0  0
  8 12  2  0  0  0  0
  8 11  1  0  0  0  0
 10  3  1  0  0  0  0
 11  5  2  0  0  0  0
 12  4  1  0  0  0  0
 13 16  2  0  0  0  0
 15 23  1  0  0  0  0
 17 23  1  0  0  0  0
 17  2  2  0  0  0  0
 18 15  2  0  0  0  0
 19 10  2  0  0  0  0
 20  9  1  6  0  0  0
 20 10  1  0  0  0  0
 20 18  1  0  0  0  0
 21 24  2  0  0  0  0
 22 16  1  0  0  0  0
 23 22  2  0  0  0  0
 24 12  1  0  0  0  0
 25 27  1  0  0  0  0
 27 26  2  0  0  0  0
 28 11  1  0  0  0  0
 28 30  1  0  0  0  0
 30 29  1  0  0  0  0
M  END
>  <MODEL>
7

>  <REMARK>
 VINA RESULT:      -7.4      2.309      5.162
  Name = 
  3 active torsions:
  status: ('A' for Active; 'I' for Inactive)
    1  A    between atoms: C_7  and  C_15
    2  A    between atoms: C_11  and  C_28
    3  A    between atoms: C_28  and  C_30
                            x       y       z     vdW  Elec       q    Type
                         _______ _______ _______ _____ _____    ______ ____

>  <TORSDO>
F 3

$$$$
=
 OpenBabel11112416183D

 30 34  0  0  1  0  0  0  0  0999 V2000
  189.3530  176.1430  144.2430 C   0  0  0  0  0  0  0  0  0  0  0  0
  189.8140  177.0480  146.5360 C   0  0  0  0  0  0  0  0  0  0  0  0
  192.2430  173.1340  144.7620 N   0  0  0  0  0  2  0  0  0  0  0  0
  189.6150  175.1590  143.2420 C   0  0  0  0  0  0  0  0  0  0  0  0
  188.4330  177.1560  143.9570 C   0  0  0  0  0  3  0  0  0  0  0  0
  187.4060  176.3840  140.5070 O   0  0  0  0  0  1  0  0  0  0  0  0
  190.5340  173.6790  140.4940 C   0  0  2  0  0  3  0  0  0  0  0  0
  188.0490  176.2760  141.7390 C   0  0  0  0  0  0  0  0  0  0  0  0
  191.5360  173.7090  141.4920 O   0  0  0  0  0  0  0  0  0  0  0  0
  192.1350  172.5260  143.4790 C   0  0  0  0  0  0  0  0  0  0  0  0
  187.7840  177.2280  142.7290 C   0  0  0  0  0  0  0  0  0  0  0  0
  188.9630  175.2270  141.9770 C   0  0  0  0  0  0  0  0  0  0  0  0
  190.5350  176.9720  147.7300 C   0  0  0  0  0  3  0  0  0  0  0  0
  188.9090  178.0510  146.4130 F   0  0  0  0  0  0  0  0  0  0  0  0
  191.2320  174.1320  144.7350 C   0  0  0  0  0  0  0  0  0  0  0  0
  191.4830  175.9700  147.9280 C   0  0  0  0  0  3  0  0  0  0  0  0
  190.0350  176.0990  145.5010 C   0  0  0  0  0  0  0  0  0  0  0  0
  190.5330  174.1480  143.5510 C   0  0  0  0  0  0  0  0  0  0  0  0
  192.8900  171.5920  143.1060 O   0  0  0  0  0  0  0  0  0  0  0  0
  191.0310  173.0860  142.6410 C   0  0  1  0  0  3  0  0  0  0  0  0
  188.1510  173.7930  140.2720 O   0  0  0  0  0  0  0  0  0  0  0  0
  191.7150  175.0270  146.9310 C   0  0  0  0  0  3  0  0  0  0  0  0
  191.0010  175.0780  145.7300 C   0  0  0  0  0  0  0  0  0  0  0  0
  189.1610  174.1960  140.9110 C   0  0  0  0  0  0  0  0  0  0  0  0
  191.4080  170.5650  138.4230 C   0  0  0  0  0  1  0  0  0  0  0  0
  190.4730  172.3330  139.8230 C   0  0  0  0  0  3  0  0  0  0  0  0
  191.4860  171.9000  139.0780 C   0  0  0  0  0  3  0  0  0  0  0  0
  186.8270  178.3510  142.4830 C   0  0  0  0  0  2  0  0  0  0  0  0
  185.5580  179.7200  144.1450 C   0  0  0  0  0  1  0  0  0  0  0  0
  185.7020  178.3510  143.5090 C   0  0  0  0  0  2  0  0  0  0  0  0
  1 17  1  0  0  0  0
  2 13  1  0  0  0  0
  4 18  1  0  0  0  0
  4  1  2  0  0  0  0
  5  1  1  0  0  0  0
  6  8  1  0  0  0  0
  7 26  1  1  0  0  0
  7 24  1  0  0  0  0
  7  9  1  0  0  0  0
  8 12  2  0  0  0  0
  8 11  1  0  0  0  0
 10  3  1  0  0  0  0
 11  5  2  0  0  0  0
 12  4  1  0  0  0  0
 13 16  2  0  0  0  0
 14  2  1  0  0  0  0
 15  3  1  0  0  0  0
 15 23  1  0  0  0  0
 17 23  1  0  0  0  0
 17  2  2  0  0  0  0
 18 15  2  0  0  0  0
 19 10  2  0  0  0  0
 20  9  1  6  0  0  0
 20 10  1  0  0  0  0
 20 18  1  0  0  0  0
 21 24  2  0  0  0  0
 22 16  1  0  0  0  0
 23 22  2  0  0  0  0
 24 12  1  0  0  0  0
 25 27  1  0  0  0  0
 27 26  2  0  0  0  0
 28 11  1  0  0  0  0
 28 30  1  0  0  0  0
 30 29  1  0  0  0  0
M  END
>  <MODEL>
8

>  <REMARK>
 VINA RESULT:      -7.2      2.333      5.311
  Name = 
  3 active torsions:
  status: ('A' for Active; 'I' for Inactive)
    1  A    between atoms: C_7  and  C_15
    2  A    between atoms: C_11  and  C_28
    3  A    between atoms: C_28  and  C_30
                            x       y       z     vdW  Elec       q    Type
                         _______ _______ _______ _____ _____    ______ ____

>  <TORSDO>
F 3

$$$$
=
 OpenBabel11112416183D

 30 34  0  0  1  0  0  0  0  0999 V2000
  191.3960  175.1320  143.4520 C   0  0  0  0  0  0  0  0  0  0  0  0
  193.7510  174.5950  144.1270 C   0  0  0  0  0  0  0  0  0  0  0  0
  190.7420  177.1810  147.0640 N   0  0  0  0  0  2  0  0  0  0  0  0
  190.1580  175.7780  143.7460 C   0  0  0  0  0  0  0  0  0  0  0  0
  191.5030  174.4040  142.2620 C   0  0  0  0  0  3  0  0  0  0  0  0
  188.1530  174.7610  140.7790 O   0  0  0  0  0  1  0  0  0  0  0  0
  187.0280  176.3510  144.4270 C   0  0  2  0  0  3  0  0  0  0  0  0
  189.2150  174.9090  141.6680 C   0  0  0  0  0  0  0  0  0  0  0  0
  187.8500  176.2180  145.5710 O   0  0  0  0  0  0  0  0  0  0  0  0
  189.3780  177.5320  146.8530 C   0  0  0  0  0  0  0  0  0  0  0  0
  190.4360  174.2920  141.3770 C   0  0  0  0  0  0  0  0  0  0  0  0
  189.0540  175.6630  142.8520 C   0  0  0  0  0  0  0  0  0  0  0  0
  194.7750  174.6840  145.0740 C   0  0  0  0  0  3  0  0  0  0  0  0
  194.0090  173.9050  142.9880 F   0  0  0  0  0  0  0  0  0  0  0  0
  191.1060  176.5460  145.8470 C   0  0  0  0  0  0  0  0  0  0  0  0
  194.5830  175.3750  146.2680 C   0  0  0  0  0  3  0  0  0  0  0  0
  192.4950  175.2150  144.3670 C   0  0  0  0  0  0  0  0  0  0  0  0
  190.0740  176.5090  144.9370 C   0  0  0  0  0  0  0  0  0  0  0  0
  188.6830  178.1060  147.7300 O   0  0  0  0  0  0  0  0  0  0  0  0
  188.8700  177.1750  145.4930 C   0  0  1  0  0  3  0  0  0  0  0  0
  187.1840  176.9130  142.1030 O   0  0  0  0  0  0  0  0  0  0  0  0
  193.3620  175.9930  146.5260 C   0  0  0  0  0  3  0  0  0  0  0  0
  192.3250  175.9250  145.5890 C   0  0  0  0  0  0  0  0  0  0  0  0
  187.7510  176.3590  143.0840 C   0  0  0  0  0  0  0  0  0  0  0  0
  184.2510  178.6660  145.7220 C   0  0  0  0  0  1  0  0  0  0  0  0
  186.0630  177.4960  144.5790 C   0  0  0  0  0  3  0  0  0  0  0  0
  185.1970  177.5250  145.5870 C   0  0  0  0  0  3  0  0  0  0  0  0
  190.6120  173.4800  140.1330 C   0  0  0  0  0  2  0  0  0  0  0  0
  190.4420  171.1240  140.9460 C   0  0  0  0  0  1  0  0  0  0  0  0
  191.3770  172.1950  140.4170 C   0  0  0  0  0  2  0  0  0  0  0  0
  1  4  1  0  0  0  0
  1 17  1  0  0  0  0
  2 17  2  0  0  0  0
  2 13  1  0  0  0  0
  4 18  1  0  0  0  0
  5  1  2  0  0  0  0
  6  8  1  0  0  0  0
  7 26  1  1  0  0  0
  7  9  1  0  0  0  0
  8 12  1  0  0  0  0
 10  3  1  0  0  0  0
 10 19  2  0  0  0  0
 11  8  2  0  0  0  0
 11  5  1  0  0  0  0
 12 24  1  0  0  0  0
 12  4  2  0  0  0  0
 13 16  2  0  0  0  0
 14  2  1  0  0  0  0
 15  3  1  0  0  0  0
 16 22  1  0  0  0  0
 17 23  1  0  0  0  0
 18 15  2  0  0  0  0
 20 18  1  6  0  0  0
 20  9  1  0  0  0  0
 20 10  1  0  0  0  0
 21 24  2  0  0  0  0
 23 15  1  0  0  0  0
 23 22  2  0  0  0  0
 24  7  1  0  0  0  0
 26 27  2  0  0  0  0
 27 25  1  0  0  0  0
 28 30  1  0  0  0  0
 28 11  1  0  0  0  0
 30 29  1  0  0  0  0
M  END
>  <MODEL>
9

>  <REMARK>
 VINA RESULT:      -7.2      3.132      6.869
  Name = 
  3 active torsions:
  status: ('A' for Active; 'I' for Inactive)
    1  A    between atoms: C_7  and  C_15
    2  A    between atoms: C_11  and  C_28
    3  A    between atoms: C_28  and  C_30
                            x       y       z     vdW  Elec       q    Type
                         _______ _______ _______ _____ _____    ______ ____

>  <TORSDO>
F 3

$$$$
