=
 OpenBabel11112416223D

 30 36  0  0  1  0  0  0  0  0999 V2000
  186.6500  177.7310  144.0750 C   0  0  0  0  0  0  0  0  0  0  0  0
  184.9190  178.6520  145.5530 C   0  0  0  0  0  0  0  0  0  0  0  0
  188.2960  175.5720  147.2840 N   0  0  0  0  0  2  0  0  0  0  0  0
  187.9490  176.9660  143.8620 C   0  0  2  0  0  3  0  0  0  0  0  0
  186.1480  178.4730  142.8700 C   0  0  0  0  0  2  0  0  0  0  0  0
  188.4720  178.0440  141.1420 C   0  0  0  0  0  1  0  0  0  0  0  0
  190.4500  175.8390  142.9060 C   0  0  1  0  0  3  0  0  0  0  0  0
  187.4920  176.9810  141.3900 N   0  0  0  0  0  0  0  0  0  0  0  0
  190.5940  175.5470  144.4080 C   0  0  2  0  0  3  0  0  0  0  0  0
  189.4400  174.8950  146.6790 C   0  0  2  0  0  3  0  0  0  0  0  0
  186.1560  177.5450  141.6520 C   0  0  2  0  0  3  0  0  0  0  0  0
  187.8960  176.1590  142.5430 C   0  0  1  0  0  3  0  0  0  0  0  0
  184.3860  178.7660  146.8380 C   0  0  0  0  0  3  0  0  0  0  0  0
  191.6390  174.4660  144.4680 C   0  0  0  0  0  2  0  0  0  0  0  0
  191.6160  175.2920  142.2170 N   0  0  0  0  0  2  0  0  0  0  0  0
  184.2810  179.3590  144.5400 O   0  0  0  0  0  1  0  0  0  0  0  0
  187.6590  176.3090  146.2590 C   0  0  0  0  0  0  0  0  0  0  0  0
  184.9540  178.0880  147.9110 C   0  0  0  0  0  3  0  0  0  0  0  0
  186.0700  177.8420  145.3140 C   0  0  0  0  0  0  0  0  0  0  0  0
  188.2290  176.0930  144.9960 N   0  0  0  0  0  0  0  0  0  0  0  0
  190.6640  175.4750  147.2140 N   0  0  0  0  0  1  0  0  0  0  0  0
  189.3070  175.1240  145.1420 C   0  0  1  0  0  3  0  0  0  0  0  0
  192.4770  174.7070  143.2380 C   0  0  0  0  0  2  0  0  0  0  0  0
  188.9160  173.8500  142.3670 C   0  0  0  0  0  1  0  0  0  0  0  0
  186.0610  177.2740  147.7050 C   0  0  0  0  0  3  0  0  0  0  0  0
  186.6190  177.1320  146.4280 C   0  0  0  0  0  0  0  0  0  0  0  0
  189.1600  175.3440  142.2190 C   0  0  2  0  0  3  0  0  0  0  0  0
  185.5910  178.2480  140.4240 C   0  0  0  0  0  3  0  0  0  0  0  0
  184.4540  177.4240  139.8510 C   0  0  0  0  0  2  0  0  0  0  0  0
  184.1530  178.6470  140.6900 C   0  0  0  0  0  2  0  0  0  0  0  0
  1 19  2  0  0  0  0
  2 13  2  0  0  0  0
  4  1  1  1  0  0  0
  4 20  1  0  0  0  0
  5  1  1  0  0  0  0
  6  8  1  0  0  0  0
  7 15  1  6  0  0  0
  7  9  1  0  0  0  0
  8 11  1  0  0  0  0
  9 14  1  6  0  0  0
  9 22  1  0  0  0  0
 10 21  1  1  0  0  0
 10  3  1  0  0  0  0
 11 28  1  6  0  0  0
 11  5  1  0  0  0  0
 12  8  1  6  0  0  0
 12  4  1  0  0  0  0
 13 18  1  0  0  0  0
 15 23  1  0  0  0  0
 16  2  1  0  0  0  0
 17 26  2  0  0  0  0
 17  3  1  0  0  0  0
 19  2  1  0  0  0  0
 19 26  1  0  0  0  0
 20 17  1  0  0  0  0
 22 20  1  1  0  0  0
 22 10  1  0  0  0  0
 23 14  1  0  0  0  0
 25 18  2  0  0  0  0
 26 25  1  0  0  0  0
 27 24  1  1  0  0  0
 27 12  1  0  0  0  0
 27  7  1  0  0  0  0
 28 30  1  0  0  0  0
 29 28  1  0  0  0  0
 29 30  1  0  0  0  0
M  END
>  <MODEL>
1

>  <REMARK>
 VINA RESULT:      -8.5      0.000      0.000
  Name = 
  1 active torsions:
  status: ('A' for Active; 'I' for Inactive)
    1  A    between atoms: C_11  and  C_28
                            x       y       z     vdW  Elec       q    Type
                         _______ _______ _______ _____ _____    ______ ____

>  <TORSDO>
F 1

$$$$
=
 OpenBabel11112416223D

 30 36  0  0  1  0  0  0  0  0999 V2000
  187.9660  176.1790  142.2340 C   0  0  0  0  0  0  0  0  0  0  0  0
  186.0210  177.3790  141.3360 C   0  0  0  0  0  0  0  0  0  0  0  0
  186.9810  177.4170  146.1290 N   0  0  0  0  0  2  0  0  0  0  0  0
  188.9200  175.8560  143.3760 C   0  0  2  0  0  3  0  0  0  0  0  0
  188.4110  175.6980  140.8840 C   0  0  0  0  0  2  0  0  0  0  0  0
  191.0920  174.8030  141.6430 C   0  0  0  0  0  1  0  0  0  0  0  0
  191.1440  175.0830  145.0780 C   0  0  1  0  0  3  0  0  0  0  0  0
  189.8980  174.0160  141.9700 N   0  0  0  0  0  0  0  0  0  0  0  0
  190.3680  175.9790  146.0580 C   0  0  2  0  0  3  0  0  0  0  0  0
  188.0460  176.8390  146.9430 C   0  0  2  0  0  3  0  0  0  0  0  0
  188.8350  174.2300  140.9720 C   0  0  2  0  0  3  0  0  0  0  0  0
  189.3820  174.3820  143.3000 C   0  0  1  0  0  3  0  0  0  0  0  0
  184.9280  178.2180  141.5640 C   0  0  0  0  0  3  0  0  0  0  0  0
  190.8900  175.5720  147.4100 C   0  0  0  0  0  2  0  0  0  0  0  0
  192.3060  174.5380  145.7750 N   0  0  0  0  0  2  0  0  0  0  0  0
  186.2440  176.9750  140.0250 O   0  0  0  0  0  1  0  0  0  0  0  0
  187.2180  177.0250  144.7910 C   0  0  0  0  0  0  0  0  0  0  0  0
  184.6250  178.6660  142.8450 C   0  0  0  0  0  3  0  0  0  0  0  0
  186.8600  176.9710  142.4170 C   0  0  0  0  0  0  0  0  0  0  0  0
  188.3020  176.1440  144.6650 N   0  0  0  0  0  0  0  0  0  0  0  0
  188.8860  177.9160  147.4490 N   0  0  0  0  0  1  0  0  0  0  0  0
  188.8320  175.8800  145.9970 C   0  0  1  0  0  3  0  0  0  0  0  0
  192.2890  175.0860  147.1250 C   0  0  0  0  0  2  0  0  0  0  0  0
  189.6910  172.9870  145.3880 C   0  0  0  0  0  1  0  0  0  0  0  0
  185.4090  178.2660  143.9200 C   0  0  0  0  0  3  0  0  0  0  0  0
  186.5100  177.4210  143.7290 C   0  0  0  0  0  0  0  0  0  0  0  0
  190.3560  173.9400  144.4060 C   0  0  2  0  0  3  0  0  0  0  0  0
  189.2320  173.6900  139.6030 C   0  0  0  0  0  3  0  0  0  0  0  0
  188.1910  172.6920  139.1340 C   0  0  0  0  0  2  0  0  0  0  0  0
  188.1910  174.1000  138.5800 C   0  0  0  0  0  2  0  0  0  0  0  0
  1 19  2  0  0  0  0
  2 13  2  0  0  0  0
  2 19  1  0  0  0  0
  3 10  1  0  0  0  0
  4  1  1  6  0  0  0
  4 20  1  0  0  0  0
  5 11  1  0  0  0  0
  5  1  1  0  0  0  0
  6  8  1  0  0  0  0
  7 15  1  1  0  0  0
  7  9  1  0  0  0  0
  9 14  1  1  0  0  0
 10 21  1  6  0  0  0
 11 28  1  6  0  0  0
 11  8  1  0  0  0  0
 12  8  1  6  0  0  0
 12  4  1  0  0  0  0
 12 27  1  0  0  0  0
 13 18  1  0  0  0  0
 15 23  1  0  0  0  0
 16  2  1  0  0  0  0
 17  3  1  0  0  0  0
 18 25  2  0  0  0  0
 19 26  1  0  0  0  0
 20 17  1  0  0  0  0
 22 20  1  6  0  0  0
 22  9  1  0  0  0  0
 22 10  1  0  0  0  0
 23 14  1  0  0  0  0
 26 25  1  0  0  0  0
 26 17  2  0  0  0  0
 27  7  1  0  0  0  0
 27 24  1  1  0  0  0
 29 28  1  0  0  0  0
 30 29  1  0  0  0  0
 30 28  1  0  0  0  0
M  END
>  <MODEL>
2

>  <REMARK>
 VINA RESULT:      -8.0      2.072      3.775
  Name = 
  1 active torsions:
  status: ('A' for Active; 'I' for Inactive)
    1  A    between atoms: C_11  and  C_28
                            x       y       z     vdW  Elec       q    Type
                         _______ _______ _______ _____ _____    ______ ____

>  <TORSDO>
F 1

$$$$
=
 OpenBabel11112416223D

 30 36  0  0  1  0  0  0  0  0999 V2000
  189.2430  176.3190  144.7950 C   0  0  0  0  0  0  0  0  0  0  0  0
  190.2090  176.9290  146.9680 C   0  0  0  0  0  0  0  0  0  0  0  0
  192.2090  173.3900  144.2530 N   0  0  0  0  0  2  0  0  0  0  0  0
  189.3130  175.5750  143.4690 C   0  0  2  0  0  3  0  0  0  0  0  0
  188.1530  177.3470  144.8860 C   0  0  0  0  0  2  0  0  0  0  0  0
  187.2800  177.2510  142.0940 C   0  0  0  0  0  1  0  0  0  0  0  0
  189.0360  174.6100  140.7420 C   0  0  1  0  0  3  0  0  0  0  0  0
  186.9140  176.2000  143.0500 N   0  0  0  0  0  0  0  0  0  0  0  0
  190.3800  173.9610  141.1100 C   0  0  2  0  0  3  0  0  0  0  0  0
  191.8910  172.8320  142.9420 C   0  0  2  0  0  3  0  0  0  0  0  0
  186.8280  176.7390  144.4190 C   0  0  2  0  0  3  0  0  0  0  0  0
  187.9050  175.1100  143.0290 C   0  0  1  0  0  3  0  0  0  0  0  0
  191.2210  176.7530  147.9150 C   0  0  0  0  0  3  0  0  0  0  0  0
  190.5370  172.8560  140.1010 C   0  0  0  0  0  2  0  0  0  0  0  0
  188.6800  174.1970  139.3870 N   0  0  0  0  0  2  0  0  0  0  0  0
  189.2390  177.8830  147.2520 O   0  0  0  0  0  1  0  0  0  0  0  0
  191.2350  174.3760  144.5330 C   0  0  0  0  0  0  0  0  0  0  0  0
  192.2290  175.8160  147.7180 C   0  0  0  0  0  3  0  0  0  0  0  0
  190.1950  176.1540  145.7700 C   0  0  0  0  0  0  0  0  0  0  0  0
  190.2320  174.4460  143.5550 N   0  0  0  0  0  0  0  0  0  0  0  0
  192.9360  173.2180  142.0030 N   0  0  0  0  0  1  0  0  0  0  0  0
  190.5040  173.4270  142.5490 C   0  0  1  0  0  3  0  0  0  0  0  0
  189.7640  173.3500  138.9030 C   0  0  0  0  0  2  0  0  0  0  0  0
  187.5450  172.8710  141.9060 C   0  0  0  0  0  1  0  0  0  0  0  0
  192.2280  175.0300  146.5720 C   0  0  0  0  0  3  0  0  0  0  0  0
  191.2270  175.1760  145.6040 C   0  0  0  0  0  0  0  0  0  0  0  0
  187.8510  174.3460  141.6950 C   0  0  2  0  0  3  0  0  0  0  0  0
  185.6860  177.7370  144.5600 C   0  0  0  0  0  3  0  0  0  0  0  0
  184.9440  177.4750  145.8570 C   0  0  0  0  0  2  0  0  0  0  0  0
  185.9330  178.6170  145.7680 C   0  0  0  0  0  2  0  0  0  0  0  0
  1  5  1  0  0  0  0
  1 19  2  0  0  0  0
  2 16  1  0  0  0  0
  2 13  2  0  0  0  0
  3 17  1  0  0  0  0
  4 20  1  0  0  0  0
  4  1  1  1  0  0  0
  6  8  1  0  0  0  0
  7 15  1  6  0  0  0
  7  9  1  0  0  0  0
  7 27  1  0  0  0  0
  8 11  1  0  0  0  0
  9 14  1  6  0  0  0
  9 22  1  0  0  0  0
 10 21  1  6  0  0  0
 10  3  1  0  0  0  0
 11 28  1  6  0  0  0
 11  5  1  0  0  0  0
 12  8  1  6  0  0  0
 12  4  1  0  0  0  0
 17 26  2  0  0  0  0
 18 13  1  0  0  0  0
 19  2  1  0  0  0  0
 20 17  1  0  0  0  0
 22 10  1  0  0  0  0
 22 20  1  1  0  0  0
 23 15  1  0  0  0  0
 23 14  1  0  0  0  0
 25 18  2  0  0  0  0
 26 19  1  0  0  0  0
 26 25  1  0  0  0  0
 27 24  1  1  0  0  0
 27 12  1  0  0  0  0
 28 30  1  0  0  0  0
 28 29  1  0  0  0  0
 30 29  1  0  0  0  0
M  END
>  <MODEL>
3

>  <REMARK>
 VINA RESULT:      -7.9      2.321      4.531
  Name = 
  1 active torsions:
  status: ('A' for Active; 'I' for Inactive)
    1  A    between atoms: C_11  and  C_28
                            x       y       z     vdW  Elec       q    Type
                         _______ _______ _______ _____ _____    ______ ____

>  <TORSDO>
F 1

$$$$
=
 OpenBabel11112416223D

 30 36  0  0  1  0  0  0  0  0999 V2000
  186.3490  177.1820  144.3770 C   0  0  0  0  0  0  0  0  0  0  0  0
  184.4410  178.3350  143.3490 C   0  0  0  0  0  0  0  0  0  0  0  0
  187.7720  176.0660  140.5820 N   0  0  0  0  0  2  0  0  0  0  0  0
  187.5520  176.2540  144.2820 C   0  0  2  0  0  3  0  0  0  0  0  0
  185.9180  177.5160  145.7760 C   0  0  0  0  0  2  0  0  0  0  0  0
  187.6890  175.6660  147.1920 C   0  0  0  0  0  1  0  0  0  0  0  0
  189.7440  174.4000  144.7310 C   0  0  1  0  0  3  0  0  0  0  0  0
  188.1870  176.9210  146.6210 N   0  0  0  0  0  0  0  0  0  0  0  0
  189.5570  174.2160  143.2160 C   0  0  2  0  0  3  0  0  0  0  0  0
  188.9700  175.2910  140.8890 C   0  0  2  0  0  3  0  0  0  0  0  0
  187.1320  177.9490  146.6020 C   0  0  2  0  0  3  0  0  0  0  0  0
  188.6720  176.7110  145.2460 C   0  0  1  0  0  3  0  0  0  0  0  0
  183.7290  178.6660  142.1940 C   0  0  0  0  0  3  0  0  0  0  0  0
  190.8560  173.6050  142.7630 C   0  0  0  0  0  2  0  0  0  0  0  0
  190.8650  173.5680  145.1610 N   0  0  0  0  0  2  0  0  0  0  0  0
  183.9280  178.7890  144.5580 O   0  0  0  0  0  1  0  0  0  0  0  0
  187.2360  176.5100  141.8130 C   0  0  0  0  0  0  0  0  0  0  0  0
  184.1730  178.2600  140.9400 C   0  0  0  0  0  3  0  0  0  0  0  0
  185.6390  177.5620  143.2670 C   0  0  0  0  0  0  0  0  0  0  0  0
  188.0430  176.1780  142.9110 N   0  0  0  0  0  0  0  0  0  0  0  0
  188.7240  173.8950  140.5540 N   0  0  0  0  0  1  0  0  0  0  0  0
  189.2270  175.4890  142.4140 C   0  0  1  0  0  3  0  0  0  0  0  0
  191.3490  172.8630  143.9800 C   0  0  0  0  0  2  0  0  0  0  0  0
  191.1130  176.5690  144.5950 C   0  0  0  0  0  1  0  0  0  0  0  0
  185.3470  177.5270  140.8260 C   0  0  0  0  0  3  0  0  0  0  0  0
  186.0900  177.1820  141.9630 C   0  0  0  0  0  0  0  0  0  0  0  0
  189.9420  175.8430  145.2390 C   0  0  2  0  0  3  0  0  0  0  0  0
  186.7190  178.3580  148.0100 C   0  0  0  0  0  3  0  0  0  0  0  0
  186.3160  179.8200  148.0130 C   0  0  0  0  0  2  0  0  0  0  0  0
  185.2530  178.7430  148.0130 C   0  0  0  0  0  2  0  0  0  0  0  0
  1  5  1  0  0  0  0
  2 16  1  0  0  0  0
  3 10  1  0  0  0  0
  3 17  1  0  0  0  0
  4  1  1  6  0  0  0
  4 12  1  0  0  0  0
  5 11  1  0  0  0  0
  7 15  1  6  0  0  0
  7 27  1  0  0  0  0
  8  6  1  0  0  0  0
  9 14  1  6  0  0  0
  9  7  1  0  0  0  0
 10 21  1  1  0  0  0
 10 22  1  0  0  0  0
 11  8  1  0  0  0  0
 11 28  1  1  0  0  0
 12  8  1  1  0  0  0
 13  2  2  0  0  0  0
 14 23  1  0  0  0  0
 17 26  2  0  0  0  0
 17 20  1  0  0  0  0
 18 13  1  0  0  0  0
 19  2  1  0  0  0  0
 19  1  2  0  0  0  0
 20  4  1  0  0  0  0
 22 20  1  1  0  0  0
 22  9  1  0  0  0  0
 23 15  1  0  0  0  0
 25 18  2  0  0  0  0
 25 26  1  0  0  0  0
 26 19  1  0  0  0  0
 27 24  1  6  0  0  0
 27 12  1  0  0  0  0
 28 29  1  0  0  0  0
 28 30  1  0  0  0  0
 29 30  1  0  0  0  0
M  END
>  <MODEL>
4

>  <REMARK>
 VINA RESULT:      -7.6      1.454      4.744
  Name = 
  1 active torsions:
  status: ('A' for Active; 'I' for Inactive)
    1  A    between atoms: C_11  and  C_28
                            x       y       z     vdW  Elec       q    Type
                         _______ _______ _______ _____ _____    ______ ____

>  <TORSDO>
F 1

$$$$
=
 OpenBabel11112416223D

 30 36  0  0  1  0  0  0  0  0999 V2000
  190.4920  173.6820  143.2960 C   0  0  0  0  0  0  0  0  0  0  0  0
  192.5910  172.7000  144.1080 C   0  0  0  0  0  0  0  0  0  0  0  0
  190.8160  176.7940  146.1050 N   0  0  0  0  0  2  0  0  0  0  0  0
  189.3470  174.6770  143.4330 C   0  0  2  0  0  3  0  0  0  0  0  0
  190.2760  172.6080  142.2700 C   0  0  0  0  0  2  0  0  0  0  0  0
  187.4840  173.2150  141.6370 C   0  0  0  0  0  1  0  0  0  0  0  0
  186.8440  176.1490  143.3310 C   0  0  1  0  0  3  0  0  0  0  0  0
  188.5840  174.0380  141.1240 N   0  0  0  0  0  0  0  0  0  0  0  0
  187.4590  176.7730  144.5950 C   0  0  2  0  0  3  0  0  0  0  0  0
  189.6130  177.5850  145.8670 C   0  0  2  0  0  3  0  0  0  0  0  0
  189.8090  173.2360  140.9540 C   0  0  2  0  0  3  0  0  0  0  0  0
  188.8710  175.1550  142.0410 C   0  0  1  0  0  3  0  0  0  0  0  0
  193.6470  172.7310  145.0210 C   0  0  0  0  0  3  0  0  0  0  0  0
  186.7020  178.0620  144.7670 C   0  0  0  0  0  2  0  0  0  0  0  0
  185.5660  176.8060  143.0690 N   0  0  0  0  0  2  0  0  0  0  0  0
  192.5890  171.6650  143.1790 O   0  0  0  0  0  1  0  0  0  0  0  0
  190.8050  175.7280  145.1750 C   0  0  0  0  0  0  0  0  0  0  0  0
  193.7340  173.7330  145.9800 C   0  0  0  0  0  3  0  0  0  0  0  0
  191.5680  173.6950  144.1480 C   0  0  0  0  0  0  0  0  0  0  0  0
  189.7390  175.8070  144.2670 N   0  0  0  0  0  0  0  0  0  0  0  0
  188.7230  177.4410  147.0110 N   0  0  0  0  0  1  0  0  0  0  0  0
  188.9800  177.0170  144.5600 C   0  0  1  0  0  3  0  0  0  0  0  0
  185.3620  177.7800  144.1340 C   0  0  0  0  0  2  0  0  0  0  0  0
  188.1710  177.5530  141.6380 C   0  0  0  0  0  1  0  0  0  0  0  0
  192.7660  174.7290  146.0280 C   0  0  0  0  0  3  0  0  0  0  0  0
  191.6960  174.7320  145.1250 C   0  0  0  0  0  0  0  0  0  0  0  0
  187.7100  176.1650  142.0540 C   0  0  2  0  0  3  0  0  0  0  0  0
  189.6430  172.1790  139.8700 C   0  0  0  0  0  3  0  0  0  0  0  0
  190.6490  172.4290  138.7640 C   0  0  0  0  0  2  0  0  0  0  0  0
  190.9040  171.3420  139.7860 C   0  0  0  0  0  2  0  0  0  0  0  0
  1 19  2  0  0  0  0
  2 19  1  0  0  0  0
  2 13  2  0  0  0  0
  4  1  1  6  0  0  0
  4 20  1  0  0  0  0
  5  1  1  0  0  0  0
  7 15  1  6  0  0  0
  7  9  1  0  0  0  0
  8  6  1  0  0  0  0
  9 14  1  6  0  0  0
 10  3  1  0  0  0  0
 10 21  1  1  0  0  0
 11 28  1  6  0  0  0
 11  8  1  0  0  0  0
 11  5  1  0  0  0  0
 12  8  1  6  0  0  0
 12 27  1  0  0  0  0
 12  4  1  0  0  0  0
 13 18  1  0  0  0  0
 15 23  1  0  0  0  0
 16  2  1  0  0  0  0
 17  3  1  0  0  0  0
 18 25  2  0  0  0  0
 19 26  1  0  0  0  0
 20 17  1  0  0  0  0
 22 20  1  1  0  0  0
 22  9  1  0  0  0  0
 22 10  1  0  0  0  0
 23 14  1  0  0  0  0
 26 17  2  0  0  0  0
 26 25  1  0  0  0  0
 27 24  1  1  0  0  0
 27  7  1  0  0  0  0
 29 30  1  0  0  0  0
 29 28  1  0  0  0  0
 30 28  1  0  0  0  0
M  END
>  <MODEL>
5

>  <REMARK>
 VINA RESULT:      -7.5      2.951      6.296
  Name = 
  1 active torsions:
  status: ('A' for Active; 'I' for Inactive)
    1  A    between atoms: C_11  and  C_28
                            x       y       z     vdW  Elec       q    Type
                         _______ _______ _______ _____ _____    ______ ____

>  <TORSDO>
F 1

$$$$
=
 OpenBabel11112416223D

 30 36  0  0  1  0  0  0  0  0999 V2000
  188.4550  175.6640  143.7030 C   0  0  0  0  0  0  0  0  0  0  0  0
  186.9910  177.6290  143.5430 C   0  0  0  0  0  0  0  0  0  0  0  0
  188.1400  175.0410  139.5570 N   0  0  0  0  0  2  0  0  0  0  0  0
  189.0830  174.4190  143.0930 C   0  0  2  0  0  3  0  0  0  0  0  0
  188.6190  175.7910  145.1900 C   0  0  0  0  0  2  0  0  0  0  0  0
  189.7870  173.1540  145.6890 C   0  0  0  0  0  1  0  0  0  0  0  0
  190.3370  171.8560  142.5430 C   0  0  1  0  0  3  0  0  0  0  0  0
  190.5760  174.2470  145.1090 N   0  0  0  0  0  0  0  0  0  0  0  0
  189.6680  172.1130  141.1830 C   0  0  2  0  0  3  0  0  0  0  0  0
  188.9420  173.8410  139.3380 C   0  0  2  0  0  3  0  0  0  0  0  0
  190.0840  175.5560  145.5710 C   0  0  2  0  0  3  0  0  0  0  0  0
  190.5160  174.2080  143.6370 C   0  0  1  0  0  3  0  0  0  0  0  0
  186.1830  178.4520  142.7560 C   0  0  0  0  0  3  0  0  0  0  0  0
  190.4080  171.2050  140.2380 C   0  0  0  0  0  2  0  0  0  0  0  0
  191.0840  170.6040  142.4590 N   0  0  0  0  0  2  0  0  0  0  0  0
  187.0800  177.9370  144.8950 O   0  0  0  0  0  1  0  0  0  0  0  0
  188.2120  175.3440  140.9370 C   0  0  0  0  0  0  0  0  0  0  0  0
  186.0410  178.2230  141.3920 C   0  0  0  0  0  3  0  0  0  0  0  0
  187.6820  176.5220  142.9620 C   0  0  0  0  0  0  0  0  0  0  0  0
  189.0850  174.4980  141.6370 N   0  0  0  0  0  0  0  0  0  0  0  0
  188.0550  172.7450  138.9730 N   0  0  0  0  0  1  0  0  0  0  0  0
  189.6820  173.5700  140.6850 C   0  0  1  0  0  3  0  0  0  0  0  0
  190.8730  170.0710  141.1180 C   0  0  0  0  0  2  0  0  0  0  0  0
  192.3810  173.3630  142.1500 C   0  0  0  0  0  1  0  0  0  0  0  0
  186.7200  177.1680  140.7950 C   0  0  0  0  0  3  0  0  0  0  0  0
  187.5420  176.3250  141.5520 C   0  0  0  0  0  0  0  0  0  0  0  0
  191.2520  172.9710  143.0910 C   0  0  2  0  0  3  0  0  0  0  0  0
  190.2980  175.7430  147.0670 C   0  0  0  0  0  3  0  0  0  0  0  0
  191.5700  176.5350  147.3000 C   0  0  0  0  0  2  0  0  0  0  0  0
  190.2230  177.2180  147.4070 C   0  0  0  0  0  2  0  0  0  0  0  0
  1  5  1  0  0  0  0
  2 16  1  0  0  0  0
  3 17  1  0  0  0  0
  4 12  1  0  0  0  0
  4  1  1  1  0  0  0
  5 11  1  0  0  0  0
  7 15  1  6  0  0  0
  7 27  1  0  0  0  0
  8 11  1  0  0  0  0
  8  6  1  0  0  0  0
  9 14  1  6  0  0  0
  9  7  1  0  0  0  0
 10 21  1  1  0  0  0
 10  3  1  0  0  0  0
 10 22  1  0  0  0  0
 11 28  1  1  0  0  0
 12  8  1  1  0  0  0
 13  2  2  0  0  0  0
 14 23  1  0  0  0  0
 17 26  2  0  0  0  0
 17 20  1  0  0  0  0
 18 13  1  0  0  0  0
 19  2  1  0  0  0  0
 19  1  2  0  0  0  0
 20  4  1  0  0  0  0
 22  9  1  0  0  0  0
 22 20  1  1  0  0  0
 23 15  1  0  0  0  0
 25 18  2  0  0  0  0
 25 26  1  0  0  0  0
 26 19  1  0  0  0  0
 27 24  1  6  0  0  0
 27 12  1  0  0  0  0
 28 29  1  0  0  0  0
 28 30  1  0  0  0  0
 29 30  1  0  0  0  0
M  END
>  <MODEL>
6

>  <REMARK>
 VINA RESULT:      -7.5      2.411      5.760
  Name = 
  1 active torsions:
  status: ('A' for Active; 'I' for Inactive)
    1  A    between atoms: C_11  and  C_28
                            x       y       z     vdW  Elec       q    Type
                         _______ _______ _______ _____ _____    ______ ____

>  <TORSDO>
F 1

$$$$
=
 OpenBabel11112416223D

 30 36  0  0  1  0  0  0  0  0999 V2000
  189.7770  174.9860  144.0630 C   0  0  0  0  0  0  0  0  0  0  0  0
  187.9550  176.3990  144.9070 C   0  0  0  0  0  0  0  0  0  0  0  0
  187.9610  174.8400  140.2740 N   0  0  0  0  0  2  0  0  0  0  0  0
  190.3780  174.0890  142.9890 C   0  0  2  0  0  3  0  0  0  0  0  0
  190.4970  174.9640  145.3800 C   0  0  0  0  0  2  0  0  0  0  0  0
  192.3530  172.7810  144.7840 C   0  0  0  0  0  1  0  0  0  0  0  0
  191.8670  172.1400  141.4320 C   0  0  1  0  0  3  0  0  0  0  0  0
  192.5550  174.1310  144.2460 N   0  0  0  0  0  0  0  0  0  0  0  0
  190.6620  172.3500  140.4990 C   0  0  2  0  0  3  0  0  0  0  0  0
  188.8640  173.9890  139.5040 C   0  0  2  0  0  3  0  0  0  0  0  0
  191.9990  175.1500  145.1530 C   0  0  2  0  0  3  0  0  0  0  0  0
  191.9130  174.2660  142.9270 C   0  0  1  0  0  3  0  0  0  0  0  0
  186.7280  177.0250  144.6790 C   0  0  0  0  0  3  0  0  0  0  0  0
  191.1460  171.8480  139.1650 C   0  0  0  0  0  2  0  0  0  0  0  0
  192.7880  171.2050  140.7910 N   0  0  0  0  0  2  0  0  0  0  0  0
  188.5110  176.5420  146.1730 O   0  0  0  0  0  1  0  0  0  0  0  0
  188.5140  174.9690  141.5700 C   0  0  0  0  0  0  0  0  0  0  0  0
  186.1030  176.9420  143.4400 C   0  0  0  0  0  3  0  0  0  0  0  0
  188.5910  175.6490  143.8720 C   0  0  0  0  0  0  0  0  0  0  0  0
  189.7680  174.3540  141.6910 N   0  0  0  0  0  0  0  0  0  0  0  0
  188.1910  172.7290  139.2210 N   0  0  0  0  0  1  0  0  0  0  0  0
  190.1280  173.7900  140.3960 C   0  0  1  0  0  3  0  0  0  0  0  0
  192.1820  170.8120  139.5240 C   0  0  0  0  0  2  0  0  0  0  0  0
  193.1550  174.2460  140.7210 C   0  0  0  0  0  1  0  0  0  0  0  0
  186.7080  176.2390  142.4060 C   0  0  0  0  0  3  0  0  0  0  0  0
  187.9410  175.6030  142.5980 C   0  0  0  0  0  0  0  0  0  0  0  0
  192.6330  173.4030  141.8750 C   0  0  2  0  0  3  0  0  0  0  0  0
  192.7530  175.1980  146.4760 C   0  0  0  0  0  3  0  0  0  0  0  0
  193.6260  176.4360  146.5140 C   0  0  0  0  0  2  0  0  0  0  0  0
  192.3110  176.4150  147.2630 C   0  0  0  0  0  2  0  0  0  0  0  0
  1  5  1  0  0  0  0
  2 16  1  0  0  0  0
  3 17  1  0  0  0  0
  4  1  1  1  0  0  0
  7 15  1  6  0  0  0
  7 27  1  0  0  0  0
  8  6  1  0  0  0  0
  8 11  1  0  0  0  0
  9 14  1  6  0  0  0
  9  7  1  0  0  0  0
 10 21  1  1  0  0  0
 10  3  1  0  0  0  0
 10 22  1  0  0  0  0
 11  5  1  0  0  0  0
 11 28  1  1  0  0  0
 12  4  1  0  0  0  0
 12  8  1  1  0  0  0
 13  2  2  0  0  0  0
 14 23  1  0  0  0  0
 17 20  1  0  0  0  0
 17 26  2  0  0  0  0
 18 13  1  0  0  0  0
 19  1  2  0  0  0  0
 19  2  1  0  0  0  0
 20  4  1  0  0  0  0
 22  9  1  0  0  0  0
 22 20  1  1  0  0  0
 23 15  1  0  0  0  0
 25 26  1  0  0  0  0
 25 18  2  0  0  0  0
 26 19  1  0  0  0  0
 27 24  1  6  0  0  0
 27 12  1  0  0  0  0
 28 29  1  0  0  0  0
 28 30  1  0  0  0  0
 29 30  1  0  0  0  0
M  END
>  <MODEL>
7

>  <REMARK>
 VINA RESULT:      -7.4      2.748      6.143
  Name = 
  1 active torsions:
  status: ('A' for Active; 'I' for Inactive)
    1  A    between atoms: C_11  and  C_28
                            x       y       z     vdW  Elec       q    Type
                         _______ _______ _______ _____ _____    ______ ____

>  <TORSDO>
F 1

$$$$
=
 OpenBabel11112416223D

 30 36  0  0  1  0  0  0  0  0999 V2000
  190.3650  175.9680  144.4470 C   0  0  0  0  0  0  0  0  0  0  0  0
  191.9360  176.4250  146.2780 C   0  0  0  0  0  0  0  0  0  0  0  0
  192.9230  172.9910  142.9420 N   0  0  0  0  0  2  0  0  0  0  0  0
  190.0210  175.2980  143.1240 C   0  0  2  0  0  3  0  0  0  0  0  0
  189.3910  177.0190  144.8950 C   0  0  0  0  0  2  0  0  0  0  0  0
  187.7550  177.1060  142.4690 C   0  0  0  0  0  1  0  0  0  0  0  0
  188.9360  174.4980  140.5500 C   0  0  1  0  0  3  0  0  0  0  0  0
  187.6320  176.0140  143.4400 N   0  0  0  0  0  0  0  0  0  0  0  0
  190.3010  173.7910  140.4860 C   0  0  2  0  0  3  0  0  0  0  0  0
  192.2210  172.5180  141.7520 C   0  0  2  0  0  3  0  0  0  0  0  0
  187.9630  176.4760  144.8000 C   0  0  2  0  0  3  0  0  0  0  0  0
  188.5270  174.8990  143.0860 C   0  0  1  0  0  3  0  0  0  0  0  0
  193.1670  176.1680  146.8840 C   0  0  0  0  0  3  0  0  0  0  0  0
  190.1150  172.7410  139.4240 C   0  0  0  0  0  2  0  0  0  0  0  0
  188.1920  174.1720  139.3370 N   0  0  0  0  0  2  0  0  0  0  0  0
  191.1290  177.3890  146.8710 O   0  0  0  0  0  1  0  0  0  0  0  0
  192.1130  173.9870  143.5350 C   0  0  0  0  0  0  0  0  0  0  0  0
  194.0350  175.2150  146.3640 C   0  0  0  0  0  3  0  0  0  0  0  0
  191.5470  175.7210  145.0990 C   0  0  0  0  0  0  0  0  0  0  0  0
  190.8770  174.1410  142.8900 N   0  0  0  0  0  0  0  0  0  0  0  0
  192.9700  172.9270  140.5720 N   0  0  0  0  0  1  0  0  0  0  0  0
  190.8070  173.1730  141.8030 C   0  0  1  0  0  3  0  0  0  0  0  0
  189.0550  173.3240  138.5230 C   0  0  0  0  0  2  0  0  0  0  0  0
  187.7660  172.7380  142.0110 C   0  0  0  0  0  1  0  0  0  0  0  0
  193.6740  174.4970  145.2310 C   0  0  0  0  0  3  0  0  0  0  0  0
  192.4450  174.7250  144.5990 C   0  0  0  0  0  0  0  0  0  0  0  0
  188.0620  174.2140  141.7890 C   0  0  2  0  0  3  0  0  0  0  0  0
  186.9530  177.4960  145.3090 C   0  0  0  0  0  3  0  0  0  0  0  0
  185.8980  176.7900  146.1390 C   0  0  0  0  0  2  0  0  0  0  0  0
  187.0130  177.5520  146.8220 C   0  0  0  0  0  2  0  0  0  0  0  0
  1  5  1  0  0  0  0
  1 19  2  0  0  0  0
  2 16  1  0  0  0  0
  2 13  2  0  0  0  0
  3 17  1  0  0  0  0
  4  1  1  1  0  0  0
  6  8  1  0  0  0  0
  7 15  1  6  0  0  0
  7 27  1  0  0  0  0
  8 11  1  0  0  0  0
  9 14  1  6  0  0  0
  9  7  1  0  0  0  0
  9 22  1  0  0  0  0
 10 21  1  6  0  0  0
 10 22  1  0  0  0  0
 10  3  1  0  0  0  0
 11  5  1  0  0  0  0
 11 28  1  6  0  0  0
 12  4  1  0  0  0  0
 12  8  1  6  0  0  0
 17 26  2  0  0  0  0
 18 13  1  0  0  0  0
 19  2  1  0  0  0  0
 20  4  1  0  0  0  0
 20 17  1  0  0  0  0
 22 20  1  1  0  0  0
 23 15  1  0  0  0  0
 23 14  1  0  0  0  0
 25 18  2  0  0  0  0
 26 19  1  0  0  0  0
 26 25  1  0  0  0  0
 27 24  1  1  0  0  0
 27 12  1  0  0  0  0
 28 29  1  0  0  0  0
 28 30  1  0  0  0  0
 29 30  1  0  0  0  0
M  END
>  <MODEL>
8

>  <REMARK>
 VINA RESULT:      -7.3      2.585      5.615
  Name = 
  1 active torsions:
  status: ('A' for Active; 'I' for Inactive)
    1  A    between atoms: C_11  and  C_28
                            x       y       z     vdW  Elec       q    Type
                         _______ _______ _______ _____ _____    ______ ____

>  <TORSDO>
F 1

$$$$
=
 OpenBabel11112416223D

 30 36  0  0  1  0  0  0  0  0999 V2000
  189.5310  175.2920  143.1120 C   0  0  0  0  0  0  0  0  0  0  0  0
  187.2620  176.1780  143.4240 C   0  0  0  0  0  0  0  0  0  0  0  0
  190.4370  176.0840  147.1400 N   0  0  0  0  0  2  0  0  0  0  0  0
  190.9540  175.0740  143.6060 C   0  0  2  0  0  3  0  0  0  0  0  0
  189.3120  174.9860  141.6590 C   0  0  0  0  0  2  0  0  0  0  0  0
  192.1100  174.5410  140.9200 C   0  0  0  0  0  1  0  0  0  0  0  0
  193.8050  174.6070  143.9210 C   0  0  1  0  0  3  0  0  0  0  0  0
  191.3400  173.5330  141.6580 N   0  0  0  0  0  0  0  0  0  0  0  0
  193.5040  175.2850  145.2680 C   0  0  2  0  0  3  0  0  0  0  0  0
  191.8280  175.6560  147.2600 C   0  0  2  0  0  3  0  0  0  0  0  0
  189.9070  173.6150  141.3240 C   0  0  2  0  0  3  0  0  0  0  0  0
  191.5010  173.7150  143.1110 C   0  0  1  0  0  3  0  0  0  0  0  0
  186.3260  176.7910  144.2600 C   0  0  0  0  0  3  0  0  0  0  0  0
  194.6680  174.8940  146.1380 C   0  0  0  0  0  2  0  0  0  0  0  0
  195.2170  174.2370  143.8980 N   0  0  0  0  0  2  0  0  0  0  0  0
  186.8620  175.9040  142.1220 O   0  0  0  0  0  1  0  0  0  0  0  0
  190.0350  175.8260  145.8090 C   0  0  0  0  0  0  0  0  0  0  0  0
  186.6370  177.0940  145.5800 C   0  0  0  0  0  3  0  0  0  0  0  0
  188.5670  175.8590  143.9080 C   0  0  0  0  0  0  0  0  0  0  0  0
  191.0180  175.1640  145.0600 N   0  0  0  0  0  0  0  0  0  0  0  0
  192.6640  176.8320  147.4560 N   0  0  0  0  0  1  0  0  0  0  0  0
  192.1620  174.9160  145.9290 C   0  0  1  0  0  3  0  0  0  0  0  0
  195.7960  174.6870  145.1580 C   0  0  0  0  0  2  0  0  0  0  0  0
  192.9690  172.2690  144.5800 C   0  0  0  0  0  1  0  0  0  0  0  0
  187.8910  176.7750  146.0860 C   0  0  0  0  0  3  0  0  0  0  0  0
  188.8520  176.1550  145.2780 C   0  0  0  0  0  0  0  0  0  0  0  0
  192.9400  173.3860  143.5470 C   0  0  2  0  0  3  0  0  0  0  0  0
  189.6450  173.2430  139.8700 C   0  0  0  0  0  3  0  0  0  0  0  0
  188.2490  172.6660  139.7410 C   0  0  0  0  0  2  0  0  0  0  0  0
  188.5160  174.0970  139.3280 C   0  0  0  0  0  2  0  0  0  0  0  0
  1 19  2  0  0  0  0
  2 19  1  0  0  0  0
  2 13  2  0  0  0  0
  3 10  1  0  0  0  0
  4  1  1  1  0  0  0
  4 20  1  0  0  0  0
  5  1  1  0  0  0  0
  6  8  1  0  0  0  0
  7 15  1  1  0  0  0
  7  9  1  0  0  0  0
  9 22  1  0  0  0  0
  9 14  1  1  0  0  0
 10 21  1  6  0  0  0
 11 28  1  6  0  0  0
 11  8  1  0  0  0  0
 11  5  1  0  0  0  0
 12  8  1  6  0  0  0
 12 27  1  0  0  0  0
 12  4  1  0  0  0  0
 13 18  1  0  0  0  0
 15 23  1  0  0  0  0
 16  2  1  0  0  0  0
 17  3  1  0  0  0  0
 18 25  2  0  0  0  0
 19 26  1  0  0  0  0
 20 17  1  0  0  0  0
 22 20  1  6  0  0  0
 22 10  1  0  0  0  0
 23 14  1  0  0  0  0
 26 17  2  0  0  0  0
 26 25  1  0  0  0  0
 27  7  1  0  0  0  0
 27 24  1  1  0  0  0
 29 28  1  0  0  0  0
 30 29  1  0  0  0  0
 30 28  1  0  0  0  0
M  END
>  <MODEL>
9

>  <REMARK>
 VINA RESULT:      -7.3      2.548      4.141
  Name = 
  1 active torsions:
  status: ('A' for Active; 'I' for Inactive)
    1  A    between atoms: C_11  and  C_28
                            x       y       z     vdW  Elec       q    Type
                         _______ _______ _______ _____ _____    ______ ____

>  <TORSDO>
F 1

$$$$
