=
 OpenBabel11112416463D

 31 35  0  0  1  0  0  0  0  0999 V2000
  186.6900  177.5150  140.8110 C   0  0  0  0  0  0  0  0  0  0  0  0
  188.2720  177.4380  144.2430 N   0  0  0  0  0  0  0  0  0  0  0  0
  187.2810  177.7350  145.2600 C   0  0  0  0  0  0  0  0  0  0  0  0
  185.0480  178.4600  145.9100 C   0  0  0  0  0  0  0  0  0  0  0  0
  187.8990  177.1080  142.8900 C   0  0  0  0  0  0  0  0  0  0  0  0
  187.1330  176.2070  140.2150 C   0  0  0  0  0  2  0  0  0  0  0  0
  185.9920  178.1790  144.9200 C   0  0  0  0  0  3  0  0  0  0  0  0
  190.0300  175.7170  144.2380 C   0  0  0  0  0  0  0  0  0  0  0  0
  185.9630  178.2910  140.1380 O   0  0  0  0  0  0  0  0  0  0  0  0
  188.9390  177.0420  147.0240 C   0  0  0  0  0  2  0  0  0  0  0  0
  183.6910  178.9310  145.5300 C   0  0  0  0  0  1  0  0  0  0  0  0
  189.5110  175.1950  143.0060 N   0  0  0  0  0  0  0  0  0  0  0  0
  189.6680  177.1380  144.6160 C   0  0  2  0  0  3  0  0  0  0  0  0
  190.9020  175.0160  144.9720 C   0  0  0  0  0  2  0  0  0  0  0  0
  187.0580  177.8750  142.1870 C   0  0  0  0  0  3  0  0  0  0  0  0
  185.3780  178.2940  147.2560 C   0  0  0  0  0  3  0  0  0  0  0  0
  188.5210  175.9160  142.2700 C   0  0  0  0  0  0  0  0  0  0  0  0
  188.1840  175.5120  141.0410 C   0  0  0  0  0  3  0  0  0  0  0  0
  190.0050  177.5410  146.0610 C   0  0  0  0  0  2  0  0  0  0  0  0
  187.6050  177.5790  146.6240 C   0  0  0  0  0  0  0  0  0  0  0  0
  186.6540  177.8480  147.6110 C   0  0  0  0  0  3  0  0  0  0  0  0
  190.5850  172.6760  144.6380 O   0  0  0  0  0  0  0  0  0  0  0  0
  191.3840  173.6480  144.6880 C   0  0  0  0  0  0  0  0  0  0  0  0
  194.5450  175.6690  145.0050 C   0  0  1  0  0  3  0  0  0  0  0  0
  193.6610  173.5910  145.7570 C   0  0  0  0  0  2  0  0  0  0  0  0
  192.6670  174.1300  142.1750 O   0  0  0  0  0  1  0  0  0  0  0  0
  194.8110  177.1090  145.3880 C   0  0  0  0  0  1  0  0  0  0  0  0
  193.7920  175.0140  146.0730 N   0  0  0  0  0  2  0  0  0  0  0  0
  193.4730  174.1820  143.3140 C   0  0  2  0  0  3  0  0  0  0  0  0
  192.8490  173.3850  144.4730 C   0  0  2  0  0  3  0  0  0  0  0  0
  193.7490  175.6320  143.7030 C   0  0  0  0  0  2  0  0  0  0  0  0
  1 15  1  0  0  0  0
  2 13  1  0  0  0  0
  2  3  1  0  0  0  0
  3 20  1  0  0  0  0
  4 16  2  0  0  0  0
  5  2  1  0  0  0  0
  6  1  1  0  0  0  0
  6 18  1  0  0  0  0
  7  3  2  0  0  0  0
  7  4  1  0  0  0  0
  8 13  1  0  0  0  0
  8 14  1  0  0  0  0
  9  1  2  0  0  0  0
 11  4  1  0  0  0  0
 12  8  2  0  0  0  0
 13 19  1  1  0  0  0
 15  5  2  0  0  0  0
 16 21  1  0  0  0  0
 17  5  1  0  0  0  0
 17 12  1  0  0  0  0
 18 17  2  0  0  0  0
 19 10  1  0  0  0  0
 20 10  1  0  0  0  0
 20 21  2  0  0  0  0
 22 23  2  0  0  0  0
 23 14  1  0  0  0  0
 24 27  1  1  0  0  0
 24 28  1  0  0  0  0
 25 28  1  0  0  0  0
 29 26  1  6  0  0  0
 29 31  1  0  0  0  0
 29 30  1  0  0  0  0
 30 23  1  1  0  0  0
 30 25  1  0  0  0  0
 31 24  1  0  0  0  0
M  END
>  <MODEL>
1

>  <REMARK>
 VINA RESULT:      -8.6      0.000      0.000
  Name = 
  2 active torsions:
  status: ('A' for Active; 'I' for Inactive)
    1  A    between atoms: C_5  and  C_16
    2  A    between atoms: C_5  and  C_30
                            x       y       z     vdW  Elec       q    Type
                         _______ _______ _______ _____ _____    ______ ____

>  <TORSDO>
F 2

$$$$
=
 OpenBabel11112416463D

 31 35  0  0  1  0  0  0  0  0999 V2000
  191.0940  171.1140  142.9070 C   0  0  0  0  0  0  0  0  0  0  0  0
  191.3290  173.9670  145.3760 N   0  0  0  0  0  0  0  0  0  0  0  0
  192.7160  174.3260  145.6000 C   0  0  0  0  0  0  0  0  0  0  0  0
  195.0980  173.8990  145.3160 C   0  0  0  0  0  0  0  0  0  0  0  0
  190.9280  173.1270  144.2750 C   0  0  0  0  0  0  0  0  0  0  0  0
  190.0910  171.6240  141.9090 C   0  0  0  0  0  2  0  0  0  0  0  0
  193.7660  173.5410  145.0940 C   0  0  0  0  0  3  0  0  0  0  0  0
  189.3770  175.4280  145.0440 C   0  0  0  0  0  0  0  0  0  0  0  0
  191.6050  169.9760  142.7490 O   0  0  0  0  0  0  0  0  0  0  0  0
  191.9470  176.3810  146.8330 C   0  0  0  0  0  2  0  0  0  0  0  0
  196.1940  173.0550  144.7760 C   0  0  0  0  0  1  0  0  0  0  0  0
  189.1030  174.7760  143.7960 N   0  0  0  0  0  0  0  0  0  0  0  0
  190.2420  174.7020  146.0530 C   0  0  2  0  0  3  0  0  0  0  0  0
  188.7920  176.5900  145.3590 C   0  0  0  0  0  2  0  0  0  0  0  0
  191.5190  171.9510  144.0380 C   0  0  0  0  0  3  0  0  0  0  0  0
  195.3980  175.0520  146.0430 C   0  0  0  0  0  3  0  0  0  0  0  0
  189.7930  173.5770  143.4360 C   0  0  0  0  0  0  0  0  0  0  0  0
  189.3990  172.8820  142.3640 C   0  0  0  0  0  3  0  0  0  0  0  0
  190.7360  175.5540  147.2330 C   0  0  0  0  0  2  0  0  0  0  0  0
  193.0330  175.4840  146.3390 C   0  0  0  0  0  0  0  0  0  0  0  0
  194.3660  175.8470  146.5480 C   0  0  0  0  0  3  0  0  0  0  0  0
  188.3250  178.2900  143.7520 O   0  0  0  0  0  0  0  0  0  0  0  0
  187.8840  177.3740  144.4960 C   0  0  0  0  0  0  0  0  0  0  0  0
  185.0530  177.8970  142.0700 C   0  0  1  0  0  3  0  0  0  0  0  0
  185.9910  176.1460  143.3820 C   0  0  0  0  0  2  0  0  0  0  0  0
  185.9870  179.3240  145.3860 O   0  0  0  0  0  1  0  0  0  0  0  0
  184.9850  178.5000  140.6840 C   0  0  0  0  0  1  0  0  0  0  0  0
  186.0330  176.8130  142.0800 N   0  0  0  0  0  2  0  0  0  0  0  0
  185.5310  178.3730  144.4710 C   0  0  2  0  0  3  0  0  0  0  0  0
  186.4040  177.1070  144.5040 C   0  0  2  0  0  3  0  0  0  0  0  0
  185.4550  178.9760  143.0710 C   0  0  0  0  0  2  0  0  0  0  0  0
  1 15  1  0  0  0  0
  2  3  1  0  0  0  0
  2 13  1  0  0  0  0
  3 20  1  0  0  0  0
  4 16  2  0  0  0  0
  5  2  1  0  0  0  0
  6 18  1  0  0  0  0
  6  1  1  0  0  0  0
  7  4  1  0  0  0  0
  7  3  2  0  0  0  0
  8 14  1  0  0  0  0
  8 13  1  0  0  0  0
  9  1  2  0  0  0  0
 10 19  1  0  0  0  0
 11  4  1  0  0  0  0
 12  8  2  0  0  0  0
 13 19  1  1  0  0  0
 15  5  2  0  0  0  0
 16 21  1  0  0  0  0
 17 12  1  0  0  0  0
 17  5  1  0  0  0  0
 18 17  2  0  0  0  0
 20 21  2  0  0  0  0
 20 10  1  0  0  0  0
 22 23  2  0  0  0  0
 23 14  1  0  0  0  0
 24 27  1  6  0  0  0
 24 28  1  0  0  0  0
 24 31  1  0  0  0  0
 25 30  1  0  0  0  0
 28 25  1  0  0  0  0
 29 30  1  0  0  0  0
 29 26  1  1  0  0  0
 30 23  1  6  0  0  0
 31 29  1  0  0  0  0
M  END
>  <MODEL>
2

>  <REMARK>
 VINA RESULT:      -8.5      2.379      7.514
  Name = 
  2 active torsions:
  status: ('A' for Active; 'I' for Inactive)
    1  A    between atoms: C_5  and  C_16
    2  A    between atoms: C_5  and  C_30
                            x       y       z     vdW  Elec       q    Type
                         _______ _______ _______ _____ _____    ______ ____

>  <TORSDO>
F 2

$$$$
=
 OpenBabel11112416463D

 31 35  0  0  1  0  0  0  0  0999 V2000
  191.7430  171.2450  143.1980 C   0  0  0  0  0  0  0  0  0  0  0  0
  191.0350  174.1820  145.4710 N   0  0  0  0  0  0  0  0  0  0  0  0
  192.2690  174.8650  145.8090 C   0  0  0  0  0  0  0  0  0  0  0  0
  194.7020  174.9950  145.8010 C   0  0  0  0  0  0  0  0  0  0  0  0
  190.9660  173.2220  144.3960 C   0  0  0  0  0  0  0  0  0  0  0  0
  190.7730  171.4610  142.0700 C   0  0  0  0  0  2  0  0  0  0  0  0
  193.5210  174.3250  145.4700 C   0  0  0  0  0  3  0  0  0  0  0  0
  188.8540  175.1300  144.8400 C   0  0  0  0  0  0  0  0  0  0  0  0
  192.5150  170.2520  143.1740 O   0  0  0  0  0  0  0  0  0  0  0  0
  190.9150  176.7370  146.8090 C   0  0  0  0  0  2  0  0  0  0  0  0
  196.0160  174.4080  145.4360 C   0  0  0  0  0  1  0  0  0  0  0  0
  188.8820  174.3750  143.6200 N   0  0  0  0  0  0  0  0  0  0  0  0
  189.7390  174.6710  145.9800 C   0  0  2  0  0  3  0  0  0  0  0  0
  187.9870  176.1350  145.0100 C   0  0  0  0  0  2  0  0  0  0  0  0
  191.8320  172.2080  144.3050 C   0  0  0  0  0  3  0  0  0  0  0  0
  194.6450  176.2180  146.4720 C   0  0  0  0  0  3  0  0  0  0  0  0
  189.8630  173.3560  143.4170 C   0  0  0  0  0  0  0  0  0  0  0  0
  189.7640  172.5410  142.3620 C   0  0  0  0  0  3  0  0  0  0  0  0
  189.8860  175.6680  147.1410 C   0  0  0  0  0  2  0  0  0  0  0  0
  192.2260  176.0970  146.4940 C   0  0  0  0  0  0  0  0  0  0  0  0
  193.4080  176.7710  146.8120 C   0  0  0  0  0  3  0  0  0  0  0  0
  186.0280  175.9650  143.6600 O   0  0  0  0  0  0  0  0  0  0  0  0
  187.0310  176.6450  144.0060 C   0  0  0  0  0  0  0  0  0  0  0  0
  185.3110  178.6240  141.3050 C   0  0  1  0  0  3  0  0  0  0  0  0
  186.0410  178.9130  143.5520 C   0  0  0  0  0  2  0  0  0  0  0  0
  188.6310  176.9630  141.6540 O   0  0  0  0  0  1  0  0  0  0  0  0
  184.1160  178.3360  140.4220 C   0  0  0  0  0  1  0  0  0  0  0  0
  184.9190  178.4990  142.7080 N   0  0  0  0  0  2  0  0  0  0  0  0
  187.6340  177.9170  141.8720 C   0  0  2  0  0  3  0  0  0  0  0  0
  187.2460  177.9860  143.3590 C   0  0  2  0  0  3  0  0  0  0  0  0
  186.4270  177.6350  140.9810 C   0  0  0  0  0  2  0  0  0  0  0  0
  1 15  1  0  0  0  0
  2  3  1  0  0  0  0
  2 13  1  0  0  0  0
  3 20  1  0  0  0  0
  4 16  2  0  0  0  0
  5  2  1  0  0  0  0
  6 18  1  0  0  0  0
  6  1  1  0  0  0  0
  7  4  1  0  0  0  0
  7  3  2  0  0  0  0
  8 14  1  0  0  0  0
  8 13  1  0  0  0  0
  9  1  2  0  0  0  0
 10 19  1  0  0  0  0
 11  4  1  0  0  0  0
 12  8  2  0  0  0  0
 13 19  1  1  0  0  0
 15  5  2  0  0  0  0
 16 21  1  0  0  0  0
 17 12  1  0  0  0  0
 17  5  1  0  0  0  0
 18 17  2  0  0  0  0
 20 10  1  0  0  0  0
 20 21  2  0  0  0  0
 22 23  2  0  0  0  0
 23 14  1  0  0  0  0
 24 27  1  6  0  0  0
 24 28  1  0  0  0  0
 28 25  1  0  0  0  0
 29 26  1  1  0  0  0
 29 30  1  0  0  0  0
 30 25  1  0  0  0  0
 30 23  1  6  0  0  0
 31 24  1  0  0  0  0
 31 29  1  0  0  0  0
M  END
>  <MODEL>
3

>  <REMARK>
 VINA RESULT:      -8.4      2.256      7.242
  Name = 
  2 active torsions:
  status: ('A' for Active; 'I' for Inactive)
    1  A    between atoms: C_5  and  C_16
    2  A    between atoms: C_5  and  C_30
                            x       y       z     vdW  Elec       q    Type
                         _______ _______ _______ _____ _____    ______ ____

>  <TORSDO>
F 2

$$$$
=
 OpenBabel11112416463D

 31 35  0  0  1  0  0  0  0  0999 V2000
  190.0140  171.8410  142.3570 C   0  0  0  0  0  0  0  0  0  0  0  0
  189.9450  174.7720  144.7420 N   0  0  0  0  0  0  0  0  0  0  0  0
  191.2540  174.9680  145.3370 C   0  0  0  0  0  0  0  0  0  0  0  0
  193.5430  174.2350  145.7330 C   0  0  0  0  0  0  0  0  0  0  0  0
  189.7510  173.9290  143.5880 C   0  0  0  0  0  0  0  0  0  0  0  0
  189.3990  172.4160  141.1100 C   0  0  0  0  0  2  0  0  0  0  0  0
  192.2870  174.0330  145.1560 C   0  0  0  0  0  3  0  0  0  0  0  0
  188.3720  176.4430  143.8570 C   0  0  0  0  0  0  0  0  0  0  0  0
  190.3920  170.6410  142.3670 O   0  0  0  0  0  0  0  0  0  0  0  0
  190.4590  177.1660  146.2710 C   0  0  0  0  0  2  0  0  0  0  0  0
  194.6220  173.2340  145.5340 C   0  0  0  0  0  1  0  0  0  0  0  0
  188.3640  175.7630  142.5930 N   0  0  0  0  0  0  0  0  0  0  0  0
  188.8230  175.6710  145.0780 C   0  0  2  0  0  3  0  0  0  0  0  0
  187.8840  177.6840  143.9750 C   0  0  0  0  0  2  0  0  0  0  0  0
  190.2210  172.6780  143.5460 C   0  0  0  0  0  3  0  0  0  0  0  0
  193.7840  175.3800  146.4950 C   0  0  0  0  0  3  0  0  0  0  0  0
  188.9590  174.4710  142.4600 C   0  0  0  0  0  0  0  0  0  0  0  0
  188.7830  173.7730  141.3330 C   0  0  0  0  0  3  0  0  0  0  0  0
  189.0860  176.5180  146.3340 C   0  0  0  0  0  2  0  0  0  0  0  0
  191.5080  176.1160  146.1150 C   0  0  0  0  0  0  0  0  0  0  0  0
  192.7690  176.3220  146.6790 C   0  0  0  0  0  3  0  0  0  0  0  0
  188.0920  178.8660  141.9140 O   0  0  0  0  0  0  0  0  0  0  0  0
  187.3590  178.5260  142.8810 C   0  0  0  0  0  0  0  0  0  0  0  0
  184.6420  178.7190  145.4790 C   0  0  1  0  0  3  0  0  0  0  0  0
  185.7420  180.1470  143.9250 C   0  0  0  0  0  2  0  0  0  0  0  0
  185.1430  176.8040  142.3190 O   0  0  0  0  0  1  0  0  0  0  0  0
  184.5740  178.2910  146.9290 C   0  0  0  0  0  1  0  0  0  0  0  0
  185.7680  179.6320  145.2950 N   0  0  0  0  0  2  0  0  0  0  0  0
  184.8910  177.9100  143.1330 C   0  0  2  0  0  3  0  0  0  0  0  0
  185.9370  179.0150  142.9090 C   0  0  2  0  0  3  0  0  0  0  0  0
  184.8160  177.4850  144.5970 C   0  0  0  0  0  2  0  0  0  0  0  0
  1  9  2  0  0  0  0
  1 15  1  0  0  0  0
  2 13  1  0  0  0  0
  2  3  1  0  0  0  0
  3 20  1  0  0  0  0
  4 16  2  0  0  0  0
  5  2  1  0  0  0  0
  6 18  1  0  0  0  0
  6  1  1  0  0  0  0
  7  3  2  0  0  0  0
  7  4  1  0  0  0  0
  8 14  1  0  0  0  0
  8 13  1  0  0  0  0
 10 19  1  0  0  0  0
 11  4  1  0  0  0  0
 12  8  2  0  0  0  0
 13 19  1  1  0  0  0
 15  5  2  0  0  0  0
 16 21  1  0  0  0  0
 17 12  1  0  0  0  0
 17  5  1  0  0  0  0
 18 17  2  0  0  0  0
 20 10  1  0  0  0  0
 20 21  2  0  0  0  0
 22 23  2  0  0  0  0
 23 14  1  0  0  0  0
 24 27  1  1  0  0  0
 25 28  1  0  0  0  0
 28 24  1  0  0  0  0
 29 26  1  6  0  0  0
 29 31  1  0  0  0  0
 30 23  1  1  0  0  0
 30 29  1  0  0  0  0
 30 25  1  0  0  0  0
 31 24  1  0  0  0  0
M  END
>  <MODEL>
4

>  <REMARK>
 VINA RESULT:      -8.3      2.008      7.031
  Name = 
  2 active torsions:
  status: ('A' for Active; 'I' for Inactive)
    1  A    between atoms: C_5  and  C_16
    2  A    between atoms: C_5  and  C_30
                            x       y       z     vdW  Elec       q    Type
                         _______ _______ _______ _____ _____    ______ ____

>  <TORSDO>
F 2

$$$$
=
 OpenBabel11112416463D

 31 35  0  0  1  0  0  0  0  0999 V2000
  184.9380  178.1250  146.5900 C   0  0  0  0  0  0  0  0  0  0  0  0
  187.2400  176.4030  144.1360 N   0  0  0  0  0  0  0  0  0  0  0  0
  186.9020  176.7840  142.7770 C   0  0  0  0  0  0  0  0  0  0  0  0
  185.4300  177.8850  141.1780 C   0  0  0  0  0  0  0  0  0  0  0  0
  186.7330  177.1250  145.2770 C   0  0  0  0  0  0  0  0  0  0  0  0
  185.8990  178.7300  147.5750 C   0  0  0  0  0  2  0  0  0  0  0  0
  185.7430  177.5240  142.4910 C   0  0  0  0  0  3  0  0  0  0  0  0
  189.4540  176.1860  145.1860 C   0  0  0  0  0  0  0  0  0  0  0  0
  183.7000  178.2880  146.7480 O   0  0  0  0  0  0  0  0  0  0  0  0
  189.0220  175.6830  141.9810 C   0  0  0  0  0  2  0  0  0  0  0  0
  184.1990  178.6660  140.8950 C   0  0  0  0  0  1  0  0  0  0  0  0
  189.0600  177.1180  146.2030 N   0  0  0  0  0  2  0  0  0  0  0  0
  188.3640  175.4850  144.4030 C   0  0  2  0  0  3  0  0  0  0  0  0
  190.7390  175.8550  145.0130 C   0  0  0  0  0  3  0  0  0  0  0  0
  185.4290  177.3840  145.4190 C   0  0  0  0  0  3  0  0  0  0  0  0
  186.2780  177.5140  140.1330 C   0  0  0  0  0  3  0  0  0  0  0  0
  187.6960  177.5250  146.3280 C   0  0  0  0  0  0  0  0  0  0  0  0
  187.3130  178.2450  147.3870 C   0  0  0  0  0  3  0  0  0  0  0  0
  188.8350  174.7290  143.1500 C   0  0  0  0  0  2  0  0  0  0  0  0
  187.7450  176.4080  141.7110 C   0  0  0  0  0  0  0  0  0  0  0  0
  187.4370  176.7820  140.4010 C   0  0  0  0  0  3  0  0  0  0  0  0
  191.8440  176.6030  146.9900 O   0  0  0  0  0  0  0  0  0  0  0  0
  191.8930  176.4160  145.7450 C   0  0  0  0  0  0  0  0  0  0  0  0
  195.0850  174.6540  144.8080 C   0  0  1  0  0  3  0  0  0  0  0  0
  193.3680  175.9310  143.7660 C   0  0  0  0  0  2  0  0  0  0  0  0
  194.1910  177.4580  147.0980 O   0  0  0  0  0  1  0  0  0  0  0  0
  195.6000  173.2540  145.0650 C   0  0  0  0  0  1  0  0  0  0  0  0
  193.7910  174.5780  144.1330 N   0  0  0  0  0  2  0  0  0  0  0  0
  194.4170  176.8010  145.8870 C   0  0  2  0  0  3  0  0  0  0  0  0
  193.1510  176.7960  145.0130 C   0  0  2  0  0  3  0  0  0  0  0  0
  194.9410  175.3900  146.1380 C   0  0  0  0  0  2  0  0  0  0  0  0
  1  9  2  0  0  0  0
  1  6  1  0  0  0  0
  2 13  1  0  0  0  0
  2  5  1  0  0  0  0
  3  2  1  0  0  0  0
  4  7  2  0  0  0  0
  5 15  2  0  0  0  0
  5 17  1  0  0  0  0
  7  3  1  0  0  0  0
  8 12  1  0  0  0  0
 10 19  1  0  0  0  0
 11  4  1  0  0  0  0
 12 17  1  0  0  0  0
 13 19  1  6  0  0  0
 13  8  1  0  0  0  0
 14  8  2  0  0  0  0
 14 23  1  0  0  0  0
 15  1  1  0  0  0  0
 16 21  2  0  0  0  0
 16  4  1  0  0  0  0
 17 18  2  0  0  0  0
 18  6  1  0  0  0  0
 20 10  1  0  0  0  0
 20  3  2  0  0  0  0
 21 20  1  0  0  0  0
 23 22  2  0  0  0  0
 24 27  1  1  0  0  0
 24 31  1  0  0  0  0
 25 28  1  0  0  0  0
 25 30  1  0  0  0  0
 28 24  1  0  0  0  0
 29 31  1  0  0  0  0
 29 26  1  1  0  0  0
 30 23  1  1  0  0  0
 30 29  1  0  0  0  0
M  END
>  <MODEL>
5

>  <REMARK>
 VINA RESULT:      -8.3      2.273      4.499
  Name = 
  2 active torsions:
  status: ('A' for Active; 'I' for Inactive)
    1  A    between atoms: C_5  and  C_16
    2  A    between atoms: C_5  and  C_30
                            x       y       z     vdW  Elec       q    Type
                         _______ _______ _______ _____ _____    ______ ____

>  <TORSDO>
F 2

$$$$
=
 OpenBabel11112416463D

 31 35  0  0  1  0  0  0  0  0999 V2000
  185.5390  178.1860  140.6590 C   0  0  0  0  0  0  0  0  0  0  0  0
  188.1130  177.9220  143.4140 N   0  0  0  0  0  0  0  0  0  0  0  0
  187.4640  177.9160  144.7100 C   0  0  0  0  0  0  0  0  0  0  0  0
  185.4780  178.1720  146.0980 C   0  0  0  0  0  0  0  0  0  0  0  0
  187.3760  177.7150  142.1920 C   0  0  0  0  0  0  0  0  0  0  0  0
  185.9210  177.0580  139.7410 C   0  0  0  0  0  2  0  0  0  0  0  0
  186.0910  178.1830  144.8430 C   0  0  0  0  0  3  0  0  0  0  0  0
  189.9690  176.5280  142.5960 C   0  0  0  0  0  0  0  0  0  0  0  0
  184.5520  178.9140  140.3730 O   0  0  0  0  0  0  0  0  0  0  0  0
  189.6590  177.2800  145.7660 C   0  0  0  0  0  2  0  0  0  0  0  0
  184.0260  178.4600  146.2180 C   0  0  0  0  0  1  0  0  0  0  0  0
  189.1550  176.0940  141.4970 N   0  0  0  0  0  0  0  0  0  0  0  0
  189.5810  177.8080  143.3060 C   0  0  2  0  0  3  0  0  0  0  0  0
  191.1020  175.8900  142.9100 C   0  0  0  0  0  2  0  0  0  0  0  0
  186.2740  178.4190  141.9100 C   0  0  0  0  0  3  0  0  0  0  0  0
  186.2300  177.8880  147.2390 C   0  0  0  0  0  3  0  0  0  0  0  0
  187.9070  176.7320  141.2190 C   0  0  0  0  0  0  0  0  0  0  0  0
  187.2510  176.4440  140.0900 C   0  0  0  0  0  3  0  0  0  0  0  0
  190.3040  178.0680  144.6370 C   0  0  0  0  0  2  0  0  0  0  0  0
  188.2140  177.6380  145.8720 C   0  0  0  0  0  0  0  0  0  0  0  0
  187.5960  177.6150  147.1240 C   0  0  0  0  0  3  0  0  0  0  0  0
  192.1050  174.7050  141.0980 O   0  0  0  0  0  0  0  0  0  0  0  0
  191.6270  174.6690  142.2630 C   0  0  0  0  0  0  0  0  0  0  0  0
  190.1400  173.4160  145.4870 C   0  0  1  0  0  3  0  0  0  0  0  0
  190.1450  172.8510  143.1740 C   0  0  0  0  0  2  0  0  0  0  0  0
  193.6020  173.9130  144.1930 O   0  0  0  0  0  1  0  0  0  0  0  0
  189.3580  174.0940  146.5900 C   0  0  0  0  0  1  0  0  0  0  0  0
  189.4600  173.6250  144.2100 N   0  0  0  0  0  2  0  0  0  0  0  0
  192.3420  173.3250  144.3180 C   0  0  2  0  0  3  0  0  0  0  0  0
  191.5830  173.3470  142.9790 C   0  0  2  0  0  3  0  0  0  0  0  0
  191.5480  174.0020  145.4330 C   0  0  0  0  0  2  0  0  0  0  0  0
  1 15  1  0  0  0  0
  2  3  1  0  0  0  0
  3  7  2  0  0  0  0
  3 20  1  0  0  0  0
  4 11  1  0  0  0  0
  4 16  2  0  0  0  0
  5  2  1  0  0  0  0
  6 18  1  0  0  0  0
  6  1  1  0  0  0  0
  7  4  1  0  0  0  0
  8 14  1  0  0  0  0
  8 13  1  0  0  0  0
  9  1  2  0  0  0  0
 10 20  1  0  0  0  0
 12  8  2  0  0  0  0
 13  2  1  0  0  0  0
 13 19  1  1  0  0  0
 15  5  2  0  0  0  0
 17 12  1  0  0  0  0
 17  5  1  0  0  0  0
 18 17  2  0  0  0  0
 19 10  1  0  0  0  0
 20 21  2  0  0  0  0
 21 16  1  0  0  0  0
 22 23  2  0  0  0  0
 23 14  1  0  0  0  0
 24 27  1  1  0  0  0
 25 28  1  0  0  0  0
 28 24  1  0  0  0  0
 29 26  1  6  0  0  0
 29 31  1  0  0  0  0
 30 23  1  1  0  0  0
 30 25  1  0  0  0  0
 30 29  1  0  0  0  0
 31 24  1  0  0  0  0
M  END
>  <MODEL>
6

>  <REMARK>
 VINA RESULT:      -8.2      1.867      2.504
  Name = 
  2 active torsions:
  status: ('A' for Active; 'I' for Inactive)
    1  A    between atoms: C_5  and  C_16
    2  A    between atoms: C_5  and  C_30
                            x       y       z     vdW  Elec       q    Type
                         _______ _______ _______ _____ _____    ______ ____

>  <TORSDO>
F 2

$$$$
=
 OpenBabel11112416463D

 31 35  0  0  1  0  0  0  0  0999 V2000
  186.6470  177.5130  140.7250 C   0  0  0  0  0  0  0  0  0  0  0  0
  188.2560  177.4390  144.1450 N   0  0  0  0  0  0  0  0  0  0  0  0
  187.2750  177.7470  145.1680 C   0  0  0  0  0  0  0  0  0  0  0  0
  185.0520  178.4880  145.8330 C   0  0  0  0  0  0  0  0  0  0  0  0
  187.8690  177.1060  142.7960 C   0  0  0  0  0  0  0  0  0  0  0  0
  187.0760  176.2000  140.1310 C   0  0  0  0  0  2  0  0  0  0  0  0
  185.9860  178.1980  144.8360 C   0  0  0  0  0  3  0  0  0  0  0  0
  190.0020  175.7070  144.1320 C   0  0  0  0  0  0  0  0  0  0  0  0
  185.9200  178.2910  140.0540 O   0  0  0  0  0  0  0  0  0  0  0  0
  188.9420  177.0500  146.9220 C   0  0  0  0  0  2  0  0  0  0  0  0
  183.6950  178.9670  145.4620 C   0  0  0  0  0  1  0  0  0  0  0  0
  189.4700  175.1830  142.9070 N   0  0  0  0  0  0  0  0  0  0  0  0
  189.6530  177.1310  144.5080 C   0  0  2  0  0  3  0  0  0  0  0  0
  190.8760  175.0030  144.8620 C   0  0  0  0  0  2  0  0  0  0  0  0
  187.0280  177.8760  142.0970 C   0  0  0  0  0  3  0  0  0  0  0  0
  185.3920  178.3250  147.1770 C   0  0  0  0  0  3  0  0  0  0  0  0
  188.4790  175.9070  142.1760 C   0  0  0  0  0  0  0  0  0  0  0  0
  188.1300  175.5010  140.9510 C   0  0  0  0  0  3  0  0  0  0  0  0
  190.0040  177.5370  145.9480 C   0  0  0  0  0  2  0  0  0  0  0  0
  187.6080  177.5940  146.5300 C   0  0  0  0  0  0  0  0  0  0  0  0
  186.6670  177.8730  147.5240 C   0  0  0  0  0  3  0  0  0  0  0  0
  190.6850  172.6270  144.9560 O   0  0  0  0  0  0  0  0  0  0  0  0
  191.3470  173.6310  144.5800 C   0  0  0  0  0  0  0  0  0  0  0  0
  193.7920  170.7840  144.2860 C   0  0  1  0  0  3  0  0  0  0  0  0
  192.5470  172.2340  142.8670 C   0  0  0  0  0  2  0  0  0  0  0  0
  193.8850  174.2020  145.7730 O   0  0  0  0  0  1  0  0  0  0  0  0
  193.8410  169.4030  144.9030 C   0  0  0  0  0  1  0  0  0  0  0  0
  192.5270  170.9520  143.5740 N   0  0  0  0  0  2  0  0  0  0  0  0
  193.8640  173.2290  144.7720 C   0  0  2  0  0  3  0  0  0  0  0  0
  192.6430  173.4040  143.8530 C   0  0  2  0  0  3  0  0  0  0  0  0
  193.9180  171.8330  145.3870 C   0  0  0  0  0  2  0  0  0  0  0  0
  1 15  1  0  0  0  0
  2 13  1  0  0  0  0
  2  3  1  0  0  0  0
  3 20  1  0  0  0  0
  4 16  2  0  0  0  0
  5  2  1  0  0  0  0
  6  1  1  0  0  0  0
  6 18  1  0  0  0  0
  7  3  2  0  0  0  0
  7  4  1  0  0  0  0
  8 13  1  0  0  0  0
  8 14  1  0  0  0  0
  9  1  2  0  0  0  0
 11  4  1  0  0  0  0
 12  8  2  0  0  0  0
 13 19  1  1  0  0  0
 15  5  2  0  0  0  0
 16 21  1  0  0  0  0
 17  5  1  0  0  0  0
 17 12  1  0  0  0  0
 18 17  2  0  0  0  0
 19 10  1  0  0  0  0
 20 10  1  0  0  0  0
 20 21  2  0  0  0  0
 23 14  1  0  0  0  0
 23 22  2  0  0  0  0
 24 27  1  1  0  0  0
 24 31  1  0  0  0  0
 25 28  1  0  0  0  0
 25 30  1  0  0  0  0
 28 24  1  0  0  0  0
 29 31  1  0  0  0  0
 29 26  1  1  0  0  0
 30 23  1  1  0  0  0
 30 29  1  0  0  0  0
M  END
>  <MODEL>
7

>  <REMARK>
 VINA RESULT:      -8.1      1.531      2.250
  Name = 
  2 active torsions:
  status: ('A' for Active; 'I' for Inactive)
    1  A    between atoms: C_5  and  C_16
    2  A    between atoms: C_5  and  C_30
                            x       y       z     vdW  Elec       q    Type
                         _______ _______ _______ _____ _____    ______ ____

>  <TORSDO>
F 2

$$$$
=
 OpenBabel11112416463D

 31 35  0  0  1  0  0  0  0  0999 V2000
  185.8730  178.1930  140.8270 C   0  0  0  0  0  0  0  0  0  0  0  0
  188.0190  177.6430  143.8900 N   0  0  0  0  0  0  0  0  0  0  0  0
  187.2100  177.7190  145.0910 C   0  0  0  0  0  0  0  0  0  0  0  0
  185.1030  178.2110  146.2120 C   0  0  0  0  0  0  0  0  0  0  0  0
  187.4280  177.5180  142.5810 C   0  0  0  0  0  0  0  0  0  0  0  0
  186.2390  177.0240  139.9540 C   0  0  0  0  0  2  0  0  0  0  0  0
  185.8710  178.1440  145.0470 C   0  0  0  0  0  3  0  0  0  0  0  0
  189.7910  176.0400  143.3050 C   0  0  0  0  0  0  0  0  0  0  0  0
  185.0230  179.0280  140.4230 O   0  0  0  0  0  0  0  0  0  0  0  0
  189.1600  176.8370  146.4160 C   0  0  0  0  0  2  0  0  0  0  0  0
  183.6910  178.6660  146.1450 C   0  0  0  0  0  1  0  0  0  0  0  0
  189.0830  175.6980  142.1050 N   0  0  0  0  0  0  0  0  0  0  0  0
  189.4650  177.3600  143.9730 C   0  0  2  0  0  3  0  0  0  0  0  0
  190.7930  175.2760  143.7570 C   0  0  0  0  0  2  0  0  0  0  0  0
  186.4620  178.3440  142.1650 C   0  0  0  0  0  3  0  0  0  0  0  0
  185.6620  177.8460  147.4380 C   0  0  0  0  0  3  0  0  0  0  0  0
  187.9650  176.4760  141.6740 C   0  0  0  0  0  0  0  0  0  0  0  0
  187.4320  176.2600  140.4670 C   0  0  0  0  0  3  0  0  0  0  0  0
  190.0340  177.5400  145.3890 C   0  0  0  0  0  2  0  0  0  0  0  0
  187.7650  177.3610  146.3370 C   0  0  0  0  0  0  0  0  0  0  0  0
  186.9900  177.4160  147.4980 C   0  0  0  0  0  3  0  0  0  0  0  0
  191.9030  173.9770  142.0930 O   0  0  0  0  0  0  0  0  0  0  0  0
  191.2520  174.0000  143.1720 C   0  0  0  0  0  0  0  0  0  0  0  0
  192.0010  170.3760  142.4780 C   0  0  1  0  0  3  0  0  0  0  0  0
  192.2030  171.9410  144.2610 C   0  0  0  0  0  2  0  0  0  0  0  0
  188.9190  172.4760  142.5160 O   0  0  0  0  0  1  0  0  0  0  0  0
  192.7420  169.6750  141.3600 C   0  0  0  0  0  1  0  0  0  0  0  0
  192.8790  171.3680  143.0960 N   0  0  0  0  0  2  0  0  0  0  0  0
  190.0080  171.7710  143.0320 C   0  0  2  0  0  3  0  0  0  0  0  0
  190.9340  172.6930  143.8440 C   0  0  2  0  0  3  0  0  0  0  0  0
  190.7580  171.0570  141.9100 C   0  0  0  0  0  2  0  0  0  0  0  0
  1 15  1  0  0  0  0
  2 13  1  0  0  0  0
  2  3  1  0  0  0  0
  3 20  1  0  0  0  0
  4 16  2  0  0  0  0
  5  2  1  0  0  0  0
  6 18  1  0  0  0  0
  6  1  1  0  0  0  0
  7  3  2  0  0  0  0
  7  4  1  0  0  0  0
  8 14  1  0  0  0  0
  8 13  1  0  0  0  0
  9  1  2  0  0  0  0
 11  4  1  0  0  0  0
 12  8  2  0  0  0  0
 13 19  1  1  0  0  0
 15  5  2  0  0  0  0
 16 21  1  0  0  0  0
 17 12  1  0  0  0  0
 17  5  1  0  0  0  0
 18 17  2  0  0  0  0
 19 10  1  0  0  0  0
 20 10  1  0  0  0  0
 20 21  2  0  0  0  0
 22 23  2  0  0  0  0
 23 14  1  0  0  0  0
 24 27  1  6  0  0  0
 24 28  1  0  0  0  0
 28 25  1  0  0  0  0
 29 26  1  6  0  0  0
 29 30  1  0  0  0  0
 30 23  1  6  0  0  0
 30 25  1  0  0  0  0
 31 24  1  0  0  0  0
 31 29  1  0  0  0  0
M  END
>  <MODEL>
8

>  <REMARK>
 VINA RESULT:      -8.1      1.886      2.818
  Name = 
  2 active torsions:
  status: ('A' for Active; 'I' for Inactive)
    1  A    between atoms: C_5  and  C_16
    2  A    between atoms: C_5  and  C_30
                            x       y       z     vdW  Elec       q    Type
                         _______ _______ _______ _____ _____    ______ ____

>  <TORSDO>
F 2

$$$$
=
 OpenBabel11112416463D

 31 35  0  0  1  0  0  0  0  0999 V2000
  191.1000  171.5250  142.4370 C   0  0  0  0  0  0  0  0  0  0  0  0
  191.8280  174.0380  145.1650 N   0  0  0  0  0  0  0  0  0  0  0  0
  193.1930  174.5170  145.0570 C   0  0  0  0  0  0  0  0  0  0  0  0
  195.4180  174.4000  144.0740 C   0  0  0  0  0  0  0  0  0  0  0  0
  191.1890  173.3100  144.0970 C   0  0  0  0  0  0  0  0  0  0  0  0
  189.8210  172.0460  141.8420 C   0  0  0  0  0  2  0  0  0  0  0  0
  194.1070  173.9270  144.1680 C   0  0  0  0  0  3  0  0  0  0  0  0
  189.7650  175.3030  145.6110 C   0  0  0  0  0  0  0  0  0  0  0  0
  191.6240  170.4810  141.9690 O   0  0  0  0  0  0  0  0  0  0  0  0
  192.6640  176.2940  146.7600 C   0  0  0  0  0  2  0  0  0  0  0  0
  196.3720  173.7620  143.1300 C   0  0  0  0  0  1  0  0  0  0  0  0
  189.1930  174.7930  144.3980 N   0  0  0  0  0  0  0  0  0  0  0  0
  190.9310  174.5510  146.2190 C   0  0  2  0  0  3  0  0  0  0  0  0
  189.2130  176.3410  146.2510 C   0  0  0  0  0  2  0  0  0  0  0  0
  191.7700  172.2480  143.5270 C   0  0  0  0  0  3  0  0  0  0  0  0
  195.8310  175.4740  144.8640 C   0  0  0  0  0  3  0  0  0  0  0  0
  189.8340  173.7370  143.6800 C   0  0  0  0  0  0  0  0  0  0  0  0
  189.2000  173.1480  142.6600 C   0  0  0  0  0  3  0  0  0  0  0  0
  191.6790  175.2910  147.3390 C   0  0  0  0  0  2  0  0  0  0  0  0
  193.6250  175.5960  145.8560 C   0  0  0  0  0  0  0  0  0  0  0  0
  194.9330  176.0750  145.7490 C   0  0  0  0  0  3  0  0  0  0  0  0
  188.1550  177.9970  144.9000 O   0  0  0  0  0  0  0  0  0  0  0  0
  188.0440  177.1250  145.8020 C   0  0  0  0  0  0  0  0  0  0  0  0
  184.5910  178.5320  145.2830 C   0  0  1  0  0  3  0  0  0  0  0  0
  185.6630  176.4110  145.4130 C   0  0  0  0  0  2  0  0  0  0  0  0
  187.1260  178.6940  148.0140 O   0  0  0  0  0  1  0  0  0  0  0  0
  184.0400  179.5820  144.3420 C   0  0  0  0  0  1  0  0  0  0  0  0
  185.2560  177.4870  144.5080 N   0  0  0  0  0  2  0  0  0  0  0  0
  186.1480  178.1320  147.1900 C   0  0  2  0  0  3  0  0  0  0  0  0
  186.6950  176.9110  146.4310 C   0  0  2  0  0  3  0  0  0  0  0  0
  185.5840  179.1860  146.2410 C   0  0  0  0  0  2  0  0  0  0  0  0
  1 15  1  0  0  0  0
  2 13  1  0  0  0  0
  3  2  1  0  0  0  0
  3 20  1  0  0  0  0
  4  7  1  0  0  0  0
  4 16  2  0  0  0  0
  5  2  1  0  0  0  0
  6  1  1  0  0  0  0
  6 18  1  0  0  0  0
  7  3  2  0  0  0  0
  8 13  1  0  0  0  0
  8 14  1  0  0  0  0
  9  1  2  0  0  0  0
 10 19  1  0  0  0  0
 11  4  1  0  0  0  0
 12  8  2  0  0  0  0
 13 19  1  1  0  0  0
 15  5  2  0  0  0  0
 16 21  1  0  0  0  0
 17  5  1  0  0  0  0
 17 12  1  0  0  0  0
 18 17  2  0  0  0  0
 20 10  1  0  0  0  0
 21 20  2  0  0  0  0
 22 23  2  0  0  0  0
 23 14  1  0  0  0  0
 24 27  1  6  0  0  0
 24 31  1  0  0  0  0
 25 30  1  0  0  0  0
 28 24  1  0  0  0  0
 28 25  1  0  0  0  0
 29 26  1  6  0  0  0
 30 23  1  6  0  0  0
 30 29  1  0  0  0  0
 31 29  1  0  0  0  0
M  END
>  <MODEL>
9

>  <REMARK>
 VINA RESULT:      -8.1      2.554      7.607
  Name = 
  2 active torsions:
  status: ('A' for Active; 'I' for Inactive)
    1  A    between atoms: C_5  and  C_16
    2  A    between atoms: C_5  and  C_30
                            x       y       z     vdW  Elec       q    Type
                         _______ _______ _______ _____ _____    ______ ____

>  <TORSDO>
F 2

$$$$
