=
 OpenBabel11112417413D

 28 32  0  0  1  0  0  0  0  0999 V2000
  188.0030  177.6580  144.6470 C   0  0  0  0  0  0  0  0  0  0  0  0
  190.8410  177.2080  147.3960 O   0  0  0  0  0  0  0  0  0  0  0  0
  191.9880  175.2340  141.9280 N   0  0  0  0  0  1  0  0  0  0  0  0
  186.5510  176.9300  146.9270 C   0  0  0  0  0  3  0  0  0  0  0  0
  190.8370  173.2850  142.8150 C   0  0  1  0  0  3  0  0  0  0  0  0
  188.7010  177.9830  143.4830 O   0  0  0  0  0  0  0  0  0  0  0  0
  191.1490  175.0860  148.6010 O   0  0  0  0  0  0  0  0  0  0  0  0
  191.2660  175.7720  147.2700 S   0  0  0  0  0  0  0  0  0  0  0  0
  193.2140  175.0540  145.4890 C   0  0  0  0  0  0  0  0  0  0  0  0
  190.2590  174.9170  146.0790 C   0  0  2  0  0  3  0  0  0  0  0  0
  186.4010  176.3110  141.8920 O   0  0  0  0  0  0  0  0  0  0  0  0
  189.3110  174.8480  143.8650 C   0  0  2  0  0  3  0  0  0  0  0  0
  192.3610  174.3010  144.8590 N   0  0  0  0  0  0  0  0  0  0  0  0
  192.8940  175.6910  146.7230 N   0  0  0  0  0  2  0  0  0  0  0  0
  187.6010  176.5290  141.9280 C   0  0  0  0  0  0  0  0  0  0  0  0
  188.4480  176.5890  145.4440 C   0  0  0  0  0  0  0  0  0  0  0  0
  190.7100  174.5470  141.9810 C   0  0  1  0  0  3  0  0  0  0  0  0
  194.5440  175.3040  144.8770 C   0  0  0  0  0  1  0  0  0  0  0  0
  188.5540  175.3970  141.6780 C   0  0  0  0  0  2  0  0  0  0  0  0
  187.7040  176.2220  146.5770 C   0  0  0  0  0  3  0  0  0  0  0  0
  186.8420  178.3600  144.9970 C   0  0  0  0  0  3  0  0  0  0  0  0
  186.1220  178.0000  146.1390 C   0  0  0  0  0  3  0  0  0  0  0  0
  188.0800  177.9250  142.2040 C   0  0  0  0  0  2  0  0  0  0  0  0
  190.1140  173.5790  144.1090 C   0  0  2  0  0  3  0  0  0  0  0  0
  189.7060  175.4280  142.5770 N   0  0  1  0  0  0  0  0  0  0  0  0
  191.0310  173.8540  145.3130 C   0  0  2  0  0  3  0  0  0  0  0  0
  190.1490  172.1390  142.1020 C   0  0  0  0  0  1  0  0  0  0  0  0
  189.6580  175.8040  145.0040 C   0  0  1  0  0  3  0  0  0  0  0  0
  1 21  2  0  0  0  0
  1 16  1  0  0  0  0
  3 17  1  0  0  0  0
  5 27  1  6  0  0  0
  5 24  1  0  0  0  0
  6  1  1  0  0  0  0
  8  2  2  0  0  0  0
  8  7  2  0  0  0  0
  9 14  1  0  0  0  0
 10  8  1  1  0  0  0
 11 15  2  0  0  0  0
 12 24  1  0  0  0  0
 12 28  1  0  0  0  0
 13 26  1  0  0  0  0
 13  9  2  0  0  0  0
 14  8  1  0  0  0  0
 15 23  1  0  0  0  0
 16 20  2  0  0  0  0
 17 25  1  0  0  0  0
 17  5  1  0  0  0  0
 18  9  1  0  0  0  0
 19 15  1  0  0  0  0
 19 25  1  0  0  0  0
 20  4  1  0  0  0  0
 21 22  1  0  0  0  0
 22  4  2  0  0  0  0
 23  6  1  0  0  0  0
 24 26  1  0  0  0  0
 25 12  1  0  0  0  0
 26 10  1  0  0  0  0
 28 16  1  0  0  0  0
 28 10  1  0  0  0  0
M  END
>  <MODEL>
1

>  <REMARK>
 VINA RESULT:      -8.3      0.000      0.000
  Name = 
  0 active torsions:
  status: ('A' for Active; 'I' for Inactive)
                            x       y       z     vdW  Elec       q    Type
                         _______ _______ _______ _____ _____    ______ ____

>  <TORSDO>
F 0

$$$$
=
 OpenBabel11112417413D

 28 32  0  0  1  0  0  0  0  0999 V2000
  185.5700  177.1330  144.1070 C   0  0  0  0  0  0  0  0  0  0  0  0
  187.2460  174.3850  141.7700 O   0  0  0  0  0  0  0  0  0  0  0  0
  188.8230  174.4530  147.4820 N   0  0  0  0  0  1  0  0  0  0  0  0
  186.0490  178.5410  141.7350 C   0  0  0  0  0  3  0  0  0  0  0  0
  190.3790  176.1130  146.6260 C   0  0  1  0  0  3  0  0  0  0  0  0
  185.3550  176.4710  145.3170 O   0  0  0  0  0  0  0  0  0  0  0  0
  189.4790  174.7090  140.7920 O   0  0  0  0  0  0  0  0  0  0  0  0
  188.7160  174.4830  142.0660 S   0  0  0  0  0  0  0  0  0  0  0  0
  189.8150  173.0560  144.1240 C   0  0  0  0  0  0  0  0  0  0  0  0
  189.0480  175.8200  143.1920 C   0  0  2  0  0  3  0  0  0  0  0  0
  185.9820  179.3290  146.7490 O   0  0  0  0  0  0  0  0  0  0  0  0
  188.5390  176.9240  145.2720 C   0  0  2  0  0  3  0  0  0  0  0  0
  190.1670  174.1640  144.7060 N   0  0  0  0  0  0  0  0  0  0  0  0
  189.2590  173.0330  142.8120 N   0  0  0  0  0  2  0  0  0  0  0  0
  186.1740  178.1280  146.8400 C   0  0  0  0  0  0  0  0  0  0  0  0
  186.8120  177.0070  143.4610 C   0  0  0  0  0  0  0  0  0  0  0  0
  189.0550  175.8790  147.3300 C   0  0  1  0  0  3  0  0  0  0  0  0
  189.9420  171.7780  144.8710 C   0  0  0  0  0  1  0  0  0  0  0  0
  187.5180  177.6390  147.2980 C   0  0  0  0  0  2  0  0  0  0  0  0
  187.0470  177.7310  142.2810 C   0  0  0  0  0  3  0  0  0  0  0  0
  184.5740  177.9530  143.5620 C   0  0  0  0  0  3  0  0  0  0  0  0
  184.8120  178.6500  142.3740 C   0  0  0  0  0  3  0  0  0  0  0  0
  185.0550  177.1840  146.5100 C   0  0  0  0  0  2  0  0  0  0  0  0
  190.0200  176.5790  145.2330 C   0  0  2  0  0  3  0  0  0  0  0  0
  187.9720  176.4700  146.5460 N   0  0  1  0  0  0  0  0  0  0  0  0
  190.2060  175.5220  144.1310 C   0  0  2  0  0  3  0  0  0  0  0  0
  191.1440  177.2070  147.3420 C   0  0  0  0  0  1  0  0  0  0  0  0
  187.8910  176.1770  144.1090 C   0  0  1  0  0  3  0  0  0  0  0  0
  1  6  1  0  0  0  0
  2  8  2  0  0  0  0
  4 20  2  0  0  0  0
  4 22  1  0  0  0  0
  5 17  1  0  0  0  0
  5 27  1  1  0  0  0
  6 23  1  0  0  0  0
  7  8  2  0  0  0  0
  8 14  1  0  0  0  0
  9 13  2  0  0  0  0
  9 18  1  0  0  0  0
 10  8  1  1  0  0  0
 10 28  1  0  0  0  0
 10 26  1  0  0  0  0
 11 15  2  0  0  0  0
 12 25  1  0  0  0  0
 14  9  1  0  0  0  0
 15 19  1  0  0  0  0
 16  1  2  0  0  0  0
 16 28  1  0  0  0  0
 17  3  1  0  0  0  0
 20 16  1  0  0  0  0
 21  1  1  0  0  0  0
 22 21  2  0  0  0  0
 23 15  1  0  0  0  0
 24 12  1  0  0  0  0
 24  5  1  0  0  0  0
 25 19  1  0  0  0  0
 25 17  1  0  0  0  0
 26 13  1  0  0  0  0
 26 24  1  0  0  0  0
 28 12  1  0  0  0  0
M  END
>  <MODEL>
2

>  <REMARK>
 VINA RESULT:      -7.8      2.898      4.941
  Name = 
  0 active torsions:
  status: ('A' for Active; 'I' for Inactive)
                            x       y       z     vdW  Elec       q    Type
                         _______ _______ _______ _____ _____    ______ ____

>  <TORSDO>
F 0

$$$$
=
 OpenBabel11112417413D

 28 32  0  0  1  0  0  0  0  0999 V2000
  188.5230  175.7410  145.7920 C   0  0  0  0  0  0  0  0  0  0  0  0
  187.3630  174.1080  142.3560 O   0  0  0  0  0  0  0  0  0  0  0  0
  192.5270  172.3070  144.6380 N   0  0  0  0  0  1  0  0  0  0  0  0
  187.4360  177.9160  144.4040 C   0  0  0  0  0  3  0  0  0  0  0  0
  193.2950  174.2720  143.4300 C   0  0  1  0  0  3  0  0  0  0  0  0
  189.1090  174.6860  146.4930 O   0  0  0  0  0  0  0  0  0  0  0  0
  188.2050  174.9160  140.1910 O   0  0  0  0  0  0  0  0  0  0  0  0
  188.5680  174.2060  141.4640 S   0  0  0  0  0  0  0  0  0  0  0  0
  190.4690  172.2400  141.4790 C   0  0  0  0  0  0  0  0  0  0  0  0
  189.8830  175.0900  142.2730 C   0  0  2  0  0  3  0  0  0  0  0  0
  191.1650  176.9080  147.6970 O   0  0  0  0  0  0  0  0  0  0  0  0
  191.2800  175.3630  144.2180 C   0  0  2  0  0  3  0  0  0  0  0  0
  191.3570  173.1000  141.8800 N   0  0  0  0  0  0  0  0  0  0  0  0
  189.1530  172.6320  141.0970 N   0  0  0  0  0  2  0  0  0  0  0  0
  191.1010  175.7680  147.2680 C   0  0  0  0  0  0  0  0  0  0  0  0
  188.8530  175.9400  144.4400 C   0  0  0  0  0  0  0  0  0  0  0  0
  192.8760  173.7100  144.7760 C   0  0  1  0  0  3  0  0  0  0  0  0
  190.8160  170.7950  141.4720 C   0  0  0  0  0  1  0  0  0  0  0  0
  192.2140  175.2510  146.4020 C   0  0  0  0  0  2  0  0  0  0  0  0
  188.3150  177.0430  143.7580 C   0  0  0  0  0  3  0  0  0  0  0  0
  187.6480  176.6230  146.4390 C   0  0  0  0  0  3  0  0  0  0  0  0
  187.1010  177.7040  145.7440 C   0  0  0  0  0  3  0  0  0  0  0  0
  189.9220  174.9160  147.6380 C   0  0  0  0  0  2  0  0  0  0  0  0
  192.1570  175.1640  142.9910 C   0  0  2  0  0  3  0  0  0  0  0  0
  191.7230  174.4540  145.2790 N   0  0  1  0  0  0  0  0  0  0  0  0
  191.2600  174.5720  141.8900 C   0  0  2  0  0  3  0  0  0  0  0  0
  194.5500  175.1030  143.6000 C   0  0  0  0  0  1  0  0  0  0  0  0
  189.8550  175.0190  143.7900 C   0  0  1  0  0  3  0  0  0  0  0  0
  1 21  1  0  0  0  0
  1  6  1  0  0  0  0
  3 17  1  0  0  0  0
  4 22  1  0  0  0  0
  5 27  1  1  0  0  0
  5 17  1  0  0  0  0
  6 23  1  0  0  0  0
  7  8  2  0  0  0  0
  8  2  2  0  0  0  0
  9 13  2  0  0  0  0
 10  8  1  6  0  0  0
 10 28  1  0  0  0  0
 12 25  1  0  0  0  0
 13 26  1  0  0  0  0
 14  8  1  0  0  0  0
 14  9  1  0  0  0  0
 15 23  1  0  0  0  0
 15 11  2  0  0  0  0
 16  1  2  0  0  0  0
 17 25  1  0  0  0  0
 18  9  1  0  0  0  0
 19 15  1  0  0  0  0
 20  4  2  0  0  0  0
 20 16  1  0  0  0  0
 22 21  2  0  0  0  0
 24  5  1  0  0  0  0
 24 12  1  0  0  0  0
 25 19  1  0  0  0  0
 26 10  1  0  0  0  0
 26 24  1  0  0  0  0
 28 12  1  0  0  0  0
 28 16  1  0  0  0  0
M  END
>  <MODEL>
3

>  <REMARK>
 VINA RESULT:      -7.7      2.092      4.860
  Name = 
  0 active torsions:
  status: ('A' for Active; 'I' for Inactive)
                            x       y       z     vdW  Elec       q    Type
                         _______ _______ _______ _____ _____    ______ ____

>  <TORSDO>
F 0

$$$$
=
 OpenBabel11112417413D

 28 32  0  0  1  0  0  0  0  0999 V2000
  190.4330  172.9680  144.1670 C   0  0  0  0  0  0  0  0  0  0  0  0
  189.8390  174.9530  147.5620 O   0  0  0  0  0  0  0  0  0  0  0  0
  186.0890  175.9900  143.0920 N   0  0  0  0  0  1  0  0  0  0  0  0
  193.0340  173.6130  144.9750 C   0  0  0  0  0  3  0  0  0  0  0  0
  187.8500  177.5560  142.4980 C   0  0  1  0  0  3  0  0  0  0  0  0
  189.1460  172.6670  143.7160 O   0  0  0  0  0  0  0  0  0  0  0  0
  190.6500  177.2550  147.8730 O   0  0  0  0  0  0  0  0  0  0  0  0
  189.6690  176.3850  147.1380 S   0  0  0  0  0  0  0  0  0  0  0  0
  187.2060  177.3400  146.4310 C   0  0  0  0  0  0  0  0  0  0  0  0
  189.9270  176.5610  145.3870 C   0  0  2  0  0  3  0  0  0  0  0  0
  190.3400  173.0520  140.7100 O   0  0  0  0  0  0  0  0  0  0  0  0
  189.4110  175.8220  143.1520 C   0  0  2  0  0  3  0  0  0  0  0  0
  187.6470  177.5950  145.2350 N   0  0  0  0  0  0  0  0  0  0  0  0
  188.0680  176.9090  147.4800 N   0  0  0  0  0  2  0  0  0  0  0  0
  189.3690  173.2790  141.4110 C   0  0  0  0  0  0  0  0  0  0  0  0
  190.7200  174.2680  144.6160 C   0  0  0  0  0  0  0  0  0  0  0  0
  187.2550  176.1830  142.2490 C   0  0  1  0  0  3  0  0  0  0  0  0
  185.7480  177.4440  146.6970 C   0  0  0  0  0  1  0  0  0  0  0  0
  188.6540  174.5920  141.2630 C   0  0  0  0  0  2  0  0  0  0  0  0
  192.0320  174.5860  145.0040 C   0  0  0  0  0  3  0  0  0  0  0  0
  191.4420  171.9980  144.1310 C   0  0  0  0  0  3  0  0  0  0  0  0
  192.7380  172.3190  144.5410 C   0  0  0  0  0  3  0  0  0  0  0  0
  188.9100  172.2310  142.3830 C   0  0  0  0  0  2  0  0  0  0  0  0
  189.1270  177.3120  143.2690 C   0  0  2  0  0  3  0  0  0  0  0  0
  188.2520  175.1570  142.5500 N   0  0  1  0  0  0  0  0  0  0  0  0
  189.0470  177.6370  144.7700 C   0  0  2  0  0  3  0  0  0  0  0  0
  188.1790  178.2110  141.1720 C   0  0  0  0  0  1  0  0  0  0  0  0
  189.6330  175.3130  144.5750 C   0  0  1  0  0  3  0  0  0  0  0  0
  1 16  1  0  0  0  0
  4 20  1  0  0  0  0
  5 27  1  6  0  0  0
  5 24  1  0  0  0  0
  6  1  1  0  0  0  0
  8 14  1  0  0  0  0
  8  2  2  0  0  0  0
  8  7  2  0  0  0  0
  9 18  1  0  0  0  0
  9 14  1  0  0  0  0
 10  8  1  1  0  0  0
 11 15  2  0  0  0  0
 12 24  1  0  0  0  0
 12 28  1  0  0  0  0
 13  9  2  0  0  0  0
 15 23  1  0  0  0  0
 16 20  2  0  0  0  0
 17  5  1  0  0  0  0
 17 25  1  0  0  0  0
 17  3  1  0  0  0  0
 19 15  1  0  0  0  0
 19 25  1  0  0  0  0
 21  1  2  0  0  0  0
 21 22  1  0  0  0  0
 22  4  2  0  0  0  0
 23  6  1  0  0  0  0
 24 26  1  0  0  0  0
 25 12  1  0  0  0  0
 26 13  1  0  0  0  0
 26 10  1  0  0  0  0
 28 16  1  0  0  0  0
 28 10  1  0  0  0  0
M  END
>  <MODEL>
4

>  <REMARK>
 VINA RESULT:      -7.6      2.308      5.097
  Name = 
  0 active torsions:
  status: ('A' for Active; 'I' for Inactive)
                            x       y       z     vdW  Elec       q    Type
                         _______ _______ _______ _____ _____    ______ ____

>  <TORSDO>
F 0

$$$$
=
 OpenBabel11112417413D

 28 32  0  0  1  0  0  0  0  0999 V2000
  185.9420  178.6660  145.8220 C   0  0  0  0  0  0  0  0  0  0  0  0
  189.3810  177.6340  147.5340 O   0  0  0  0  0  0  0  0  0  0  0  0
  189.3290  178.2310  141.6380 N   0  0  0  0  0  1  0  0  0  0  0  0
  185.1350  176.8560  147.7990 C   0  0  0  0  0  3  0  0  0  0  0  0
  188.5680  175.9280  141.8070 C   0  0  1  0  0  3  0  0  0  0  0  0
  186.3160  179.5400  144.8000 O   0  0  0  0  0  0  0  0  0  0  0  0
  190.1210  175.2910  147.6380 O   0  0  0  0  0  0  0  0  0  0  0  0
  189.8660  176.4610  146.7310 S   0  0  0  0  0  0  0  0  0  0  0  0
  191.3790  176.8490  144.4850 C   0  0  0  0  0  0  0  0  0  0  0  0
  188.6690  175.9980  145.4990 C   0  0  2  0  0  3  0  0  0  0  0  0
  183.8310  178.2860  143.1070 O   0  0  0  0  0  0  0  0  0  0  0  0
  187.2270  176.6630  143.6870 C   0  0  2  0  0  3  0  0  0  0  0  0
  190.4580  176.2810  143.7650 N   0  0  0  0  0  0  0  0  0  0  0  0
  191.3180  176.8770  145.9090 N   0  0  0  0  0  2  0  0  0  0  0  0
  184.9860  178.6670  143.0090 C   0  0  0  0  0  0  0  0  0  0  0  0
  186.6420  177.4580  145.9880 C   0  0  0  0  0  0  0  0  0  0  0  0
  188.1540  177.3770  141.6310 C   0  0  1  0  0  3  0  0  0  0  0  0
  192.5030  177.5410  143.8020 C   0  0  0  0  0  1  0  0  0  0  0  0
  185.9320  177.9050  142.1260 C   0  0  0  0  0  2  0  0  0  0  0  0
  186.2180  176.5500  146.9730 C   0  0  0  0  0  3  0  0  0  0  0  0
  184.8510  178.9650  146.6470 C   0  0  0  0  0  3  0  0  0  0  0  0
  184.4530  178.0650  147.6380 C   0  0  0  0  0  3  0  0  0  0  0  0
  185.4140  179.8950  143.7590 C   0  0  0  0  0  2  0  0  0  0  0  0
  188.1560  175.5550  143.2130 C   0  0  2  0  0  3  0  0  0  0  0  0
  187.2600  177.7660  142.7210 N   0  0  1  0  0  0  0  0  0  0  0  0
  189.3110  175.4740  144.2240 C   0  0  2  0  0  3  0  0  0  0  0  0
  187.8150  175.0650  140.8150 C   0  0  0  0  0  1  0  0  0  0  0  0
  187.7660  177.1280  145.0380 C   0  0  1  0  0  3  0  0  0  0  0  0
  1 16  2  0  0  0  0
  1 21  1  0  0  0  0
  5 27  1  6  0  0  0
  5 24  1  0  0  0  0
  6  1  1  0  0  0  0
  8  2  2  0  0  0  0
  8  7  2  0  0  0  0
  9 14  1  0  0  0  0
 10  8  1  1  0  0  0
 12 28  1  0  0  0  0
 13 26  1  0  0  0  0
 13  9  2  0  0  0  0
 14  8  1  0  0  0  0
 15 11  2  0  0  0  0
 15 23  1  0  0  0  0
 16 20  1  0  0  0  0
 17  3  1  0  0  0  0
 17  5  1  0  0  0  0
 17 25  1  0  0  0  0
 18  9  1  0  0  0  0
 19 25  1  0  0  0  0
 19 15  1  0  0  0  0
 20  4  2  0  0  0  0
 21 22  2  0  0  0  0
 22  4  1  0  0  0  0
 23  6  1  0  0  0  0
 24 12  1  0  0  0  0
 24 26  1  0  0  0  0
 25 12  1  0  0  0  0
 26 10  1  0  0  0  0
 28 10  1  0  0  0  0
 28 16  1  0  0  0  0
M  END
>  <MODEL>
5

>  <REMARK>
 VINA RESULT:      -7.5      2.112      2.873
  Name = 
  0 active torsions:
  status: ('A' for Active; 'I' for Inactive)
                            x       y       z     vdW  Elec       q    Type
                         _______ _______ _______ _____ _____    ______ ____

>  <TORSDO>
F 0

$$$$
=
 OpenBabel11112417413D

 28 32  0  0  1  0  0  0  0  0999 V2000
  185.7370  177.7930  145.3260 C   0  0  0  0  0  0  0  0  0  0  0  0
  185.8930  176.5790  141.5420 O   0  0  0  0  0  0  0  0  0  0  0  0
  189.9260  174.3860  145.2880 N   0  0  0  0  0  1  0  0  0  0  0  0
  185.1910  180.1370  143.8970 C   0  0  0  0  0  3  0  0  0  0  0  0
  191.0530  176.4470  144.6610 C   0  0  1  0  0  3  0  0  0  0  0  0
  186.0470  176.6500  146.0660 O   0  0  0  0  0  0  0  0  0  0  0  0
  187.4410  177.5930  139.9210 O   0  0  0  0  0  0  0  0  0  0  0  0
  187.3350  176.7380  141.1520 S   0  0  0  0  0  0  0  0  0  0  0  0
  189.1270  174.7250  141.6190 C   0  0  0  0  0  0  0  0  0  0  0  0
  188.2670  177.4880  142.4690 C   0  0  2  0  0  3  0  0  0  0  0  0
  187.5160  178.6650  148.1620 O   0  0  0  0  0  0  0  0  0  0  0  0
  188.8770  177.5060  144.8000 C   0  0  2  0  0  3  0  0  0  0  0  0
  189.8060  175.5090  142.4030 N   0  0  0  0  0  0  0  0  0  0  0  0
  188.0290  175.1960  140.8420 N   0  0  0  0  0  2  0  0  0  0  0  0
  187.6210  177.5810  147.6140 C   0  0  0  0  0  0  0  0  0  0  0  0
  186.5240  178.1280  144.2110 C   0  0  0  0  0  0  0  0  0  0  0  0
  190.1890  175.7540  145.6990 C   0  0  1  0  0  3  0  0  0  0  0  0
  189.4700  173.2800  141.5740 C   0  0  0  0  0  1  0  0  0  0  0  0
  188.9750  177.1290  147.1460 C   0  0  0  0  0  2  0  0  0  0  0  0
  186.2520  179.3140  143.5110 C   0  0  0  0  0  3  0  0  0  0  0  0
  184.6800  178.6250  145.7160 C   0  0  0  0  0  3  0  0  0  0  0  0
  184.4040  179.7910  144.9980 C   0  0  0  0  0  3  0  0  0  0  0  0
  186.3960  176.7300  147.4420 C   0  0  0  0  0  2  0  0  0  0  0  0
  190.1360  177.4150  143.9500 C   0  0  2  0  0  3  0  0  0  0  0  0
  188.9240  176.4730  145.8400 N   0  0  1  0  0  0  0  0  0  0  0  0
  189.6960  176.9740  142.5430 C   0  0  2  0  0  3  0  0  0  0  0  0
  192.1570  177.2170  145.3570 C   0  0  0  0  0  1  0  0  0  0  0  0
  187.7020  177.2530  143.8580 C   0  0  1  0  0  3  0  0  0  0  0  0
  1 21  1  0  0  0  0
  1  6  1  0  0  0  0
  3 17  1  0  0  0  0
  4 22  1  0  0  0  0
  5 27  1  1  0  0  0
  5 17  1  0  0  0  0
  6 23  1  0  0  0  0
  7  8  2  0  0  0  0
  8  2  2  0  0  0  0
  9 13  2  0  0  0  0
 10  8  1  6  0  0  0
 10 26  1  0  0  0  0
 10 28  1  0  0  0  0
 12 25  1  0  0  0  0
 13 26  1  0  0  0  0
 14  8  1  0  0  0  0
 14  9  1  0  0  0  0
 15 11  2  0  0  0  0
 16  1  2  0  0  0  0
 17 25  1  0  0  0  0
 18  9  1  0  0  0  0
 19 15  1  0  0  0  0
 20  4  2  0  0  0  0
 20 16  1  0  0  0  0
 22 21  2  0  0  0  0
 23 15  1  0  0  0  0
 24  5  1  0  0  0  0
 24 12  1  0  0  0  0
 25 19  1  0  0  0  0
 26 24  1  0  0  0  0
 28 16  1  0  0  0  0
 28 12  1  0  0  0  0
M  END
>  <MODEL>
6

>  <REMARK>
 VINA RESULT:      -7.4      2.555      5.184
  Name = 
  0 active torsions:
  status: ('A' for Active; 'I' for Inactive)
                            x       y       z     vdW  Elec       q    Type
                         _______ _______ _______ _____ _____    ______ ____

>  <TORSDO>
F 0

$$$$
=
 OpenBabel11112417413D

 28 32  0  0  1  0  0  0  0  0999 V2000
  194.2640  174.8510  143.2780 C   0  0  0  0  0  0  0  0  0  0  0  0
  191.6860  173.8340  140.4250 O   0  0  0  0  0  0  0  0  0  0  0  0
  189.6900  177.2730  144.8200 N   0  0  0  0  0  1  0  0  0  0  0  0
  194.9120  172.1740  142.7780 C   0  0  0  0  0  3  0  0  0  0  0  0
  189.3850  175.0950  145.8560 C   0  0  1  0  0  3  0  0  0  0  0  0
  193.9380  176.1750  143.5800 O   0  0  0  0  0  0  0  0  0  0  0  0
  190.1140  171.9630  140.7100 O   0  0  0  0  0  0  0  0  0  0  0  0
  190.4730  173.3490  141.1670 S   0  0  0  0  0  0  0  0  0  0  0  0
  188.5340  175.1090  141.9570 C   0  0  0  0  0  0  0  0  0  0  0  0
  190.7690  173.3290  142.9210 C   0  0  2  0  0  3  0  0  0  0  0  0
  194.7630  175.4550  146.6480 O   0  0  0  0  0  0  0  0  0  0  0  0
  191.5250  174.4980  144.8880 C   0  0  2  0  0  3  0  0  0  0  0  0
  188.7590  174.8020  143.2000 N   0  0  0  0  0  0  0  0  0  0  0  0
  189.1500  174.4080  140.8800 N   0  0  0  0  0  2  0  0  0  0  0  0
  193.9490  176.0620  145.9730 C   0  0  0  0  0  0  0  0  0  0  0  0
  193.2390  173.8960  143.1650 C   0  0  0  0  0  0  0  0  0  0  0  0
  190.2770  176.3170  145.7420 C   0  0  1  0  0  3  0  0  0  0  0  0
  187.6510  176.2640  141.6490 C   0  0  0  0  0  1  0  0  0  0  0  0
  192.5070  176.0570  146.3920 C   0  0  0  0  0  2  0  0  0  0  0  0
  193.5760  172.5530  142.9300 C   0  0  0  0  0  3  0  0  0  0  0  0
  195.6030  174.4660  143.1340 C   0  0  0  0  0  3  0  0  0  0  0  0
  195.9250  173.1310  142.8780 C   0  0  0  0  0  3  0  0  0  0  0  0
  194.4210  176.8080  144.7580 C   0  0  0  0  0  2  0  0  0  0  0  0
  190.1070  173.9940  145.1140 C   0  0  2  0  0  3  0  0  0  0  0  0
  191.5960  175.9150  145.2570 N   0  0  1  0  0  0  0  0  0  0  0  0
  189.5250  173.6580  143.7310 C   0  0  2  0  0  3  0  0  0  0  0  0
  189.2410  174.7100  147.3140 C   0  0  0  0  0  1  0  0  0  0  0  0
  191.8120  174.3240  143.3980 C   0  0  1  0  0  3  0  0  0  0  0  0
  1  6  1  0  0  0  0
  2  8  2  0  0  0  0
  3 17  1  0  0  0  0
  4 22  2  0  0  0  0
  4 20  1  0  0  0  0
  5 27  1  1  0  0  0
  6 23  1  0  0  0  0
  7  8  2  0  0  0  0
  9 13  2  0  0  0  0
 10  8  1  6  0  0  0
 10 28  1  0  0  0  0
 10 26  1  0  0  0  0
 12 24  1  0  0  0  0
 12 25  1  0  0  0  0
 13 26  1  0  0  0  0
 14  8  1  0  0  0  0
 14  9  1  0  0  0  0
 15 19  1  0  0  0  0
 15 11  2  0  0  0  0
 16  1  1  0  0  0  0
 16 28  1  0  0  0  0
 17  5  1  0  0  0  0
 18  9  1  0  0  0  0
 20 16  2  0  0  0  0
 21  1  2  0  0  0  0
 22 21  1  0  0  0  0
 23 15  1  0  0  0  0
 24  5  1  0  0  0  0
 25 17  1  0  0  0  0
 25 19  1  0  0  0  0
 26 24  1  0  0  0  0
 28 12  1  0  0  0  0
M  END
>  <MODEL>
7

>  <REMARK>
 VINA RESULT:      -7.2      2.954      6.586
  Name = 
  0 active torsions:
  status: ('A' for Active; 'I' for Inactive)
                            x       y       z     vdW  Elec       q    Type
                         _______ _______ _______ _____ _____    ______ ____

>  <TORSDO>
F 0

$$$$
=
 OpenBabel11112417413D

 28 32  0  0  1  0  0  0  0  0999 V2000
  188.2970  177.9970  142.3590 C   0  0  0  0  0  0  0  0  0  0  0  0
  185.4590  179.8730  144.4180 O   0  0  0  0  0  0  0  0  0  0  0  0
  190.0100  177.6080  147.4650 N   0  0  0  0  0  1  0  0  0  0  0  0
  185.9490  177.1660  141.0820 C   0  0  0  0  0  3  0  0  0  0  0  0
  188.5980  175.6330  147.3420 C   0  0  1  0  0  3  0  0  0  0  0  0
  189.4840  178.3600  143.0000 O   0  0  0  0  0  0  0  0  0  0  0  0
  183.6470  178.6420  145.5390 O   0  0  0  0  0  0  0  0  0  0  0  0
  185.1210  178.9320  145.5410 S   0  0  0  0  0  0  0  0  0  0  0  0
  186.5320  179.0040  147.8830 C   0  0  0  0  0  0  0  0  0  0  0  0
  186.0190  177.4050  145.3780 C   0  0  2  0  0  3  0  0  0  0  0  0
  190.5480  175.3700  142.2610 O   0  0  0  0  0  0  0  0  0  0  0  0
  188.1310  176.2900  145.0560 C   0  0  2  0  0  3  0  0  0  0  0  0
  186.9240  177.7800  147.6860 N   0  0  0  0  0  0  0  0  0  0  0  0
  185.5660  179.6340  147.0450 N   0  0  0  0  0  2  0  0  0  0  0  0
  190.5440  176.2160  143.1400 C   0  0  0  0  0  0  0  0  0  0  0  0
  187.1960  177.5840  143.1270 C   0  0  0  0  0  0  0  0  0  0  0  0
  189.7850  176.3670  146.7460 C   0  0  1  0  0  3  0  0  0  0  0  0
  187.1510  179.7910  148.9810 C   0  0  0  0  0  1  0  0  0  0  0  0
  190.4020  175.7790  144.5700 C   0  0  0  0  0  2  0  0  0  0  0  0
  186.0280  177.1540  142.4760 C   0  0  0  0  0  3  0  0  0  0  0  0
  188.2180  178.0000  140.9610 C   0  0  0  0  0  3  0  0  0  0  0  0
  187.0430  177.5920  140.3240 C   0  0  0  0  0  3  0  0  0  0  0  0
  190.6990  177.6610  142.7620 C   0  0  0  0  0  2  0  0  0  0  0  0
  187.4800  175.7810  146.3350 C   0  0  2  0  0  3  0  0  0  0  0  0
  189.5220  176.6590  145.3370 N   0  0  1  0  0  0  0  0  0  0  0  0
  186.3940  176.7980  146.7210 C   0  0  2  0  0  3  0  0  0  0  0  0
  188.9410  174.1660  147.5020 C   0  0  0  0  0  1  0  0  0  0  0  0
  187.3340  177.5200  144.6280 C   0  0  1  0  0  3  0  0  0  0  0  0
  1  6  1  0  0  0  0
  1 16  1  0  0  0  0
  2  8  2  0  0  0  0
  4 20  1  0  0  0  0
  5 27  1  6  0  0  0
  7  8  2  0  0  0  0
  8 14  1  0  0  0  0
  9 18  1  0  0  0  0
 10  8  1  1  0  0  0
 10 26  1  0  0  0  0
 11 15  2  0  0  0  0
 12 25  1  0  0  0  0
 12 24  1  0  0  0  0
 13  9  2  0  0  0  0
 14  9  1  0  0  0  0
 15 19  1  0  0  0  0
 16 28  1  0  0  0  0
 17  5  1  0  0  0  0
 17  3  1  0  0  0  0
 19 25  1  0  0  0  0
 20 16  2  0  0  0  0
 21  1  2  0  0  0  0
 22 21  1  0  0  0  0
 22  4  2  0  0  0  0
 23  6  1  0  0  0  0
 23 15  1  0  0  0  0
 24 26  1  0  0  0  0
 24  5  1  0  0  0  0
 25 17  1  0  0  0  0
 26 13  1  0  0  0  0
 28 12  1  0  0  0  0
 28 10  1  0  0  0  0
M  END
>  <MODEL>
8

>  <REMARK>
 VINA RESULT:      -7.1      3.131      5.509
  Name = 
  0 active torsions:
  status: ('A' for Active; 'I' for Inactive)
                            x       y       z     vdW  Elec       q    Type
                         _______ _______ _______ _____ _____    ______ ____

>  <TORSDO>
F 0

$$$$
=
 OpenBabel11112417413D

 28 32  0  0  1  0  0  0  0  0999 V2000
  187.2710  176.6030  146.7030 C   0  0  0  0  0  0  0  0  0  0  0  0
  185.1920  176.7900  143.3190 O   0  0  0  0  0  0  0  0  0  0  0  0
  190.7230  174.6840  143.0200 N   0  0  0  0  0  1  0  0  0  0  0  0
  185.9180  179.0410  146.9390 C   0  0  0  0  0  3  0  0  0  0  0  0
  191.1990  177.0610  142.8460 C   0  0  1  0  0  3  0  0  0  0  0  0
  187.9930  175.4120  146.5980 O   0  0  0  0  0  0  0  0  0  0  0  0
  185.4500  178.6630  141.7450 O   0  0  0  0  0  0  0  0  0  0  0  0
  186.1190  177.4570  142.3420 S   0  0  0  0  0  0  0  0  0  0  0  0
  187.8970  175.9760  140.8840 C   0  0  0  0  0  0  0  0  0  0  0  0
  187.6270  177.9580  143.1410 C   0  0  2  0  0  3  0  0  0  0  0  0
  190.3580  176.9480  148.2280 O   0  0  0  0  0  0  0  0  0  0  0  0
  189.4980  177.3760  144.5430 C   0  0  2  0  0  3  0  0  0  0  0  0
  188.8850  176.6130  141.4400 N   0  0  0  0  0  0  0  0  0  0  0  0
  186.5390  176.3550  141.0910 N   0  0  0  0  0  2  0  0  0  0  0  0
  190.1490  176.1770  147.3070 C   0  0  0  0  0  0  0  0  0  0  0  0
  187.2360  177.4870  145.6120 C   0  0  0  0  0  0  0  0  0  0  0  0
  191.1370  175.8580  143.7680 C   0  0  1  0  0  3  0  0  0  0  0  0
  188.1880  174.7780  140.0540 C   0  0  0  0  0  1  0  0  0  0  0  0
  190.9760  176.2920  146.0580 C   0  0  0  0  0  2  0  0  0  0  0  0
  186.5670  178.7150  145.7460 C   0  0  0  0  0  3  0  0  0  0  0  0
  186.6270  176.9370  147.9010 C   0  0  0  0  0  3  0  0  0  0  0  0
  185.9450  178.1510  148.0150 C   0  0  0  0  0  3  0  0  0  0  0  0
  189.0870  175.1280  147.4610 C   0  0  0  0  0  2  0  0  0  0  0  0
  190.0100  177.9190  143.2180 C   0  0  2  0  0  3  0  0  0  0  0  0
  190.1810  176.1150  144.8440 N   0  0  1  0  0  0  0  0  0  0  0  0
  188.8370  177.8610  142.2250 C   0  0  2  0  0  3  0  0  0  0  0  0
  192.4770  177.8310  143.1070 C   0  0  0  0  0  1  0  0  0  0  0  0
  188.0010  177.1350  144.3610 C   0  0  1  0  0  3  0  0  0  0  0  0
  1 21  1  0  0  0  0
  3 17  1  0  0  0  0
  4 22  1  0  0  0  0
  5 27  1  1  0  0  0
  5 24  1  0  0  0  0
  5 17  1  0  0  0  0
  6  1  1  0  0  0  0
  6 23  1  0  0  0  0
  7  8  2  0  0  0  0
  8  2  2  0  0  0  0
  9 14  1  0  0  0  0
  9 13  2  0  0  0  0
 10  8  1  6  0  0  0
 10 28  1  0  0  0  0
 12 25  1  0  0  0  0
 13 26  1  0  0  0  0
 14  8  1  0  0  0  0
 15 23  1  0  0  0  0
 15 11  2  0  0  0  0
 16 20  1  0  0  0  0
 16  1  2  0  0  0  0
 17 25  1  0  0  0  0
 18  9  1  0  0  0  0
 19 15  1  0  0  0  0
 20  4  2  0  0  0  0
 21 22  2  0  0  0  0
 24 12  1  0  0  0  0
 25 19  1  0  0  0  0
 26 10  1  0  0  0  0
 26 24  1  0  0  0  0
 28 12  1  0  0  0  0
 28 16  1  0  0  0  0
M  END
>  <MODEL>
9

>  <REMARK>
 VINA RESULT:      -7.0      2.511      5.246
  Name = 
  0 active torsions:
  status: ('A' for Active; 'I' for Inactive)
                            x       y       z     vdW  Elec       q    Type
                         _______ _______ _______ _____ _____    ______ ____

>  <TORSDO>
F 0

$$$$
