=
 OpenBabel11112418053D

 34 40  0  0  1  0  0  0  0  0999 V2000
  186.0240  177.7780  145.4110 C   0  0  0  0  0  0  0  0  0  0  0  0
  184.0300  178.9640  144.4760 C   0  0  0  0  0  2  0  0  0  0  0  0
  191.8690  175.5020  144.9580 C   0  0  0  0  0  0  0  0  0  0  0  0
  187.7740  176.3020  146.1850 C   0  0  0  0  0  0  0  0  0  0  0  0
  189.4150  175.3030  144.5720 C   0  0  2  0  0  3  0  0  0  0  0  0
  190.8560  176.7270  143.0230 C   0  0  0  0  0  1  0  0  0  0  0  0
  192.7430  175.0760  144.1560 O   0  0  0  0  0  0  0  0  0  0  0  0
  190.9170  175.8530  147.5800 S   0  0  0  0  0  0  0  0  0  0  0  0
  185.7350  178.2170  142.9930 C   0  0  1  0  0  3  0  0  0  0  0  0
  185.0730  177.5270  140.1350 O   0  0  0  0  0  0  0  0  0  0  0  0
  188.4160  175.6260  143.5970 O   0  0  0  0  0  0  0  0  0  0  0  0
  189.5650  174.7660  147.0360 C   0  0  0  0  0  2  0  0  0  0  0  0
  186.6130  177.0690  142.7460 N   0  0  0  0  0  0  0  0  0  0  0  0
  183.4890  178.8710  143.2630 C   0  0  0  0  0  2  0  0  0  0  0  0
  188.8570  175.3930  145.9270 N   0  0  0  0  0  0  0  0  0  0  0  0
  192.0120  175.2100  146.3500 N   0  0  0  0  0  2  0  0  0  0  0  0
  184.4640  178.5430  140.8900 C   0  0  2  0  0  3  0  0  0  0  0  0
  187.0880  176.8950  145.1170 C   0  0  0  0  0  0  0  0  0  0  0  0
  190.6470  176.2170  144.4460 C   0  0  2  0  0  3  0  0  0  0  0  0
  187.3820  176.5390  143.8450 C   0  0  0  0  0  0  0  0  0  0  0  0
  186.3330  177.3890  147.7240 C   0  0  0  0  0  3  0  0  0  0  0  0
  186.4600  177.6660  140.3080 C   0  0  0  0  0  2  0  0  0  0  0  0
  187.3790  176.5620  147.4620 N   0  0  0  0  0  0  0  0  0  0  0  0
  186.9750  176.6830  141.3720 C   0  0  0  0  0  2  0  0  0  0  0  0
  184.3780  178.0800  142.3420 C   0  0  1  0  0  3  0  0  0  0  0  0
  185.6610  177.9840  146.7040 N   0  0  0  0  0  0  0  0  0  0  0  0
  185.3510  178.3570  144.4130 C   0  0  0  0  0  0  0  0  0  0  0  0
  183.1650  178.7970  140.3640 O   0  0  0  0  0  0  0  0  0  0  0  0
  182.0260  178.0990  140.7370 N   0  0  0  0  0  0  0  0  0  0  0  0
  178.5470  178.6530  141.4270 N   0  0  0  0  0  2  0  0  0  0  0  0
  180.4200  179.9760  140.6220 C   0  0  0  0  0  2  0  0  0  0  0  0
  180.8280  178.5880  140.8860 C   0  0  0  0  0  0  0  0  0  0  0  0
  178.9150  179.9250  140.7980 C   0  0  0  0  0  2  0  0  0  0  0  0
  179.6900  177.7540  141.3000 C   0  0  0  0  0  2  0  0  0  0  0  0
  1 26  1  0  0  0  0
  3 16  1  0  0  0  0
  4 23  2  0  0  0  0
  5 11  1  6  0  0  0
  5 15  1  0  0  0  0
  7  3  2  0  0  0  0
  9 27  1  1  0  0  0
 10 22  1  0  0  0  0
 10 17  1  0  0  0  0
 11 20  1  0  0  0  0
 12  8  1  0  0  0  0
 13  9  1  0  0  0  0
 13 20  1  0  0  0  0
 14  2  1  0  0  0  0
 15  4  1  0  0  0  0
 15 12  1  0  0  0  0
 16  8  1  0  0  0  0
 17 28  1  6  0  0  0
 17 25  1  0  0  0  0
 18  1  1  0  0  0  0
 18  4  1  0  0  0  0
 19  6  1  6  0  0  0
 19  5  1  0  0  0  0
 19  3  1  0  0  0  0
 20 18  2  0  0  0  0
 22 24  1  0  0  0  0
 23 21  1  0  0  0  0
 24 13  1  0  0  0  0
 25  9  1  0  0  0  0
 25 14  1  1  0  0  0
 26 21  2  0  0  0  0
 27  2  1  0  0  0  0
 27  1  2  0  0  0  0
 28 29  1  0  0  0  0
 29 32  2  0  0  0  0
 31 33  1  0  0  0  0
 31 32  1  0  0  0  0
 32 34  1  0  0  0  0
 33 30  1  0  0  0  0
 34 30  1  0  0  0  0
M  END
>  <MODEL>
1

>  <REMARK>
 VINA RESULT:      -9.9      0.000      0.000
  Name = 
  2 active torsions:
  status: ('A' for Active; 'I' for Inactive)
    1  A    between atoms: C_17  and  O_28
    2  A    between atoms: O_28  and  N_29
                            x       y       z     vdW  Elec       q    Type
                         _______ _______ _______ _____ _____    ______ ____

>  <TORSDO>
F 2

$$$$
=
 OpenBabel11112418053D

 34 40  0  0  1  0  0  0  0  0999 V2000
  188.7330  177.0260  146.2130 C   0  0  0  0  0  0  0  0  0  0  0  0
  190.5730  176.1680  147.6750 C   0  0  0  0  0  2  0  0  0  0  0  0
  185.7870  177.5190  140.6790 C   0  0  0  0  0  0  0  0  0  0  0  0
  187.1910  178.1680  144.7450 C   0  0  0  0  0  0  0  0  0  0  0  0
  187.5790  178.2140  142.2660 C   0  0  2  0  0  3  0  0  0  0  0  0
  187.8350  176.0900  140.8770 C   0  0  0  0  0  1  0  0  0  0  0  0
  185.9390  177.4620  139.4290 O   0  0  0  0  0  0  0  0  0  0  0  0
  184.2370  178.1840  142.9280 S   0  0  0  0  0  0  0  0  0  0  0  0
  190.7970  176.0030  145.3120 C   0  0  1  0  0  3  0  0  0  0  0  0
  193.5290  175.9920  144.0390 O   0  0  0  0  0  0  0  0  0  0  0  0
  188.9270  177.8910  142.6280 O   0  0  0  0  0  0  0  0  0  0  0  0
  185.5680  179.3770  143.2620 C   0  0  0  0  0  2  0  0  0  0  0  0
  190.5640  176.7710  144.0840 N   0  0  0  0  0  0  0  0  0  0  0  0
  191.8710  176.0450  147.4080 C   0  0  0  0  0  2  0  0  0  0  0  0
  186.8240  178.6590  143.4440 N   0  0  0  0  0  0  0  0  0  0  0  0
  184.6160  178.1490  141.2020 N   0  0  0  0  0  2  0  0  0  0  0  0
  193.2070  175.4230  145.2820 C   0  0  2  0  0  3  0  0  0  0  0  0
  188.4040  177.4890  144.9190 C   0  0  0  0  0  0  0  0  0  0  0  0
  186.8670  177.0210  141.6030 C   0  0  2  0  0  3  0  0  0  0  0  0
  189.2710  177.3790  143.8860 C   0  0  0  0  0  0  0  0  0  0  0  0
  186.7360  177.9670  147.0630 C   0  0  0  0  0  3  0  0  0  0  0  0
  192.5500  175.5620  143.1270 C   0  0  0  0  0  2  0  0  0  0  0  0
  186.3880  178.3920  145.8200 N   0  0  0  0  0  0  0  0  0  0  0  0
  191.4750  176.6430  142.9350 C   0  0  0  0  0  2  0  0  0  0  0  0
  192.1390  176.2880  145.9460 C   0  0  1  0  0  3  0  0  0  0  0  0
  187.9020  177.2970  147.2540 N   0  0  0  0  0  0  0  0  0  0  0  0
  189.8840  176.3760  146.4110 C   0  0  0  0  0  0  0  0  0  0  0  0
  194.3820  175.3680  146.0840 O   0  0  0  0  0  0  0  0  0  0  0  0
  195.6560  175.1420  145.5840 N   0  0  0  0  0  0  0  0  0  0  0  0
  197.8720  172.4350  144.7830 N   0  0  0  0  0  2  0  0  0  0  0  0
  195.5700  172.6720  145.5240 C   0  0  0  0  0  2  0  0  0  0  0  0
  196.2090  173.9850  145.3580 C   0  0  0  0  0  0  0  0  0  0  0  0
  196.6060  171.7180  144.9620 C   0  0  0  0  0  2  0  0  0  0  0  0
  197.5790  173.8630  144.8370 C   0  0  0  0  0  2  0  0  0  0  0  0
  1 27  2  0  0  0  0
  1 26  1  0  0  0  0
  3 16  1  0  0  0  0
  3 19  1  0  0  0  0
  4 18  1  0  0  0  0
  4 23  2  0  0  0  0
  5 11  1  1  0  0  0
  5 15  1  0  0  0  0
  7  3  2  0  0  0  0
  8 12  1  0  0  0  0
  9 25  1  0  0  0  0
  9 27  1  1  0  0  0
 10 17  1  0  0  0  0
 11 20  1  0  0  0  0
 12 15  1  0  0  0  0
 13  9  1  0  0  0  0
 14  2  1  0  0  0  0
 15  4  1  0  0  0  0
 16  8  1  0  0  0  0
 17 25  1  0  0  0  0
 17 28  1  1  0  0  0
 18  1  1  0  0  0  0
 19  6  1  6  0  0  0
 19  5  1  0  0  0  0
 20 13  1  0  0  0  0
 20 18  2  0  0  0  0
 21 26  2  0  0  0  0
 22 10  1  0  0  0  0
 23 21  1  0  0  0  0
 24 22  1  0  0  0  0
 24 13  1  0  0  0  0
 25 14  1  1  0  0  0
 27  2  1  0  0  0  0
 29 28  1  0  0  0  0
 30 34  1  0  0  0  0
 30 33  1  0  0  0  0
 32 31  1  0  0  0  0
 32 29  2  0  0  0  0
 33 31  1  0  0  0  0
 34 32  1  0  0  0  0
M  END
>  <MODEL>
2

>  <REMARK>
 VINA RESULT:      -9.7      3.173      9.680
  Name = 
  2 active torsions:
  status: ('A' for Active; 'I' for Inactive)
    1  A    between atoms: C_17  and  O_28
    2  A    between atoms: O_28  and  N_29
                            x       y       z     vdW  Elec       q    Type
                         _______ _______ _______ _____ _____    ______ ____

>  <TORSDO>
F 2

$$$$
=
 OpenBabel11112418053D

 34 40  0  0  1  0  0  0  0  0999 V2000
  189.8030  177.5710  143.4000 C   0  0  0  0  0  0  0  0  0  0  0  0
  192.2610  177.1660  143.1730 C   0  0  0  0  0  2  0  0  0  0  0  0
  184.6040  178.4960  146.8150 C   0  0  0  0  0  0  0  0  0  0  0  0
  187.3960  177.5680  143.6110 C   0  0  0  0  0  0  0  0  0  0  0  0
  186.3020  176.9850  145.7930 C   0  0  2  0  0  3  0  0  0  0  0  0
  186.8150  178.2280  147.9600 C   0  0  0  0  0  1  0  0  0  0  0  0
  184.0640  178.2910  147.9350 O   0  0  0  0  0  0  0  0  0  0  0  0
  184.4300  179.2910  144.1240 S   0  0  0  0  0  0  0  0  0  0  0  0
  191.2280  176.8610  145.2940 C   0  0  1  0  0  3  0  0  0  0  0  0
  192.3820  174.9160  147.2860 O   0  0  0  0  0  0  0  0  0  0  0  0
  187.5660  176.3780  146.0860 O   0  0  0  0  0  0  0  0  0  0  0  0
  184.8930  177.5670  143.7780 C   0  0  0  0  0  2  0  0  0  0  0  0
  190.0190  176.3000  145.9080 N   0  0  0  0  0  0  0  0  0  0  0  0
  193.0520  176.3690  143.8880 C   0  0  0  0  0  2  0  0  0  0  0  0
  186.2000  177.2920  144.3610 N   0  0  0  0  0  0  0  0  0  0  0  0
  183.7760  178.8630  145.7090 N   0  0  0  0  0  2  0  0  0  0  0  0
  193.1250  175.6970  146.3850 C   0  0  2  0  0  3  0  0  0  0  0  0
  188.6510  177.2920  144.1700 C   0  0  0  0  0  0  0  0  0  0  0  0
  186.0790  178.2620  146.6230 C   0  0  2  0  0  3  0  0  0  0  0  0
  188.7340  176.6790  145.3730 C   0  0  0  0  0  0  0  0  0  0  0  0
  188.4380  178.2910  141.6070 C   0  0  0  0  0  3  0  0  0  0  0  0
  191.4570  175.7730  147.9030 C   0  0  0  0  0  2  0  0  0  0  0  0
  187.3200  178.0590  142.3440 N   0  0  0  0  0  0  0  0  0  0  0  0
  190.0790  175.6580  147.2310 C   0  0  0  0  0  2  0  0  0  0  0  0
  192.3230  175.8390  145.0940 C   0  0  1  0  0  3  0  0  0  0  0  0
  189.6650  178.0410  142.1330 N   0  0  0  0  0  0  0  0  0  0  0  0
  191.0130  177.3170  143.9050 C   0  0  0  0  0  0  0  0  0  0  0  0
  194.3720  175.0580  146.1360 O   0  0  0  0  0  0  0  0  0  0  0  0
  194.5040  173.7280  145.7630 N   0  0  0  0  0  0  0  0  0  0  0  0
  196.9060  171.4850  144.3200 N   0  0  0  0  0  2  0  0  0  0  0  0
  196.8750  173.7970  145.0670 C   0  0  0  0  0  2  0  0  0  0  0  0
  195.5660  173.1600  145.2690 C   0  0  0  0  0  0  0  0  0  0  0  0
  197.7530  172.6390  144.6380 C   0  0  0  0  0  2  0  0  0  0  0  0
  195.5880  171.7380  144.8930 C   0  0  0  0  0  2  0  0  0  0  0  0
  1 27  2  0  0  0  0
  1 18  1  0  0  0  0
  2 14  1  0  0  0  0
  2 27  1  0  0  0  0
  3  7  2  0  0  0  0
  4 18  1  0  0  0  0
  4 15  1  0  0  0  0
  5 11  1  6  0  0  0
  5 19  1  0  0  0  0
  8 16  1  0  0  0  0
  9 27  1  6  0  0  0
  9 13  1  0  0  0  0
 10 22  1  0  0  0  0
 12  8  1  0  0  0  0
 12 15  1  0  0  0  0
 13 24  1  0  0  0  0
 15  5  1  0  0  0  0
 16  3  1  0  0  0  0
 17 28  1  6  0  0  0
 17 10  1  0  0  0  0
 18 20  2  0  0  0  0
 19  3  1  0  0  0  0
 19  6  1  1  0  0  0
 20 13  1  0  0  0  0
 20 11  1  0  0  0  0
 21 26  2  0  0  0  0
 21 23  1  0  0  0  0
 23  4  2  0  0  0  0
 24 22  1  0  0  0  0
 25 14  1  6  0  0  0
 25  9  1  0  0  0  0
 25 17  1  0  0  0  0
 26  1  1  0  0  0  0
 29 28  1  0  0  0  0
 30 33  1  0  0  0  0
 30 34  1  0  0  0  0
 31 32  1  0  0  0  0
 32 29  2  0  0  0  0
 33 31  1  0  0  0  0
 34 32  1  0  0  0  0
M  END
>  <MODEL>
3

>  <REMARK>
 VINA RESULT:      -9.2      3.717      9.981
  Name = 
  2 active torsions:
  status: ('A' for Active; 'I' for Inactive)
    1  A    between atoms: C_17  and  O_28
    2  A    between atoms: O_28  and  N_29
                            x       y       z     vdW  Elec       q    Type
                         _______ _______ _______ _____ _____    ______ ____

>  <TORSDO>
F 2

$$$$
=
 OpenBabel11112418053D

 34 40  0  0  1  0  0  0  0  0999 V2000
  192.3020  176.2810  145.1000 C   0  0  0  0  0  0  0  0  0  0  0  0
  190.0250  177.0980  145.7400 C   0  0  0  0  0  2  0  0  0  0  0  0
  196.5220  174.2810  140.8890 C   0  0  0  0  0  0  0  0  0  0  0  0
  194.3590  175.1320  144.5650 C   0  0  0  0  0  0  0  0  0  0  0  0
  194.5950  173.8630  142.4130 C   0  0  2  0  0  3  0  0  0  0  0  0
  194.2280  174.9470  140.1340 C   0  0  0  0  0  1  0  0  0  0  0  0
  196.6650  173.7220  139.7680 O   0  0  0  0  0  0  0  0  0  0  0  0
  197.5940  175.2020  143.3190 S   0  0  0  0  0  0  0  0  0  0  0  0
  190.3430  176.1080  143.5990 C   0  0  1  0  0  3  0  0  0  0  0  0
  188.0590  174.7150  142.2110 O   0  0  0  0  0  0  0  0  0  0  0  0
  193.1630  173.8870  142.4230 O   0  0  0  0  0  0  0  0  0  0  0  0
  196.5100  173.9450  144.0600 C   0  0  0  0  0  2  0  0  0  0  0  0
  191.0230  174.9830  142.9490 N   0  0  0  0  0  0  0  0  0  0  0  0
  188.8340  176.6870  145.3120 C   0  0  0  0  0  2  0  0  0  0  0  0
  195.1230  174.2470  143.7290 N   0  0  0  0  0  0  0  0  0  0  0  0
  197.6410  174.3420  141.7750 N   0  0  0  0  0  2  0  0  0  0  0  0
  187.9440  175.8490  143.0320 C   0  0  2  0  0  3  0  0  0  0  0  0
  193.0220  175.4120  144.2500 C   0  0  0  0  0  0  0  0  0  0  0  0
  195.1710  174.7850  141.3240 C   0  0  2  0  0  3  0  0  0  0  0  0
  192.4250  174.7760  143.2160 C   0  0  0  0  0  0  0  0  0  0  0  0
  194.1910  176.4790  146.5100 C   0  0  0  0  0  3  0  0  0  0  0  0
  189.1110  174.9660  141.3140 C   0  0  0  0  0  2  0  0  0  0  0  0
  194.9100  175.6710  145.6870 N   0  0  0  0  0  0  0  0  0  0  0  0
  190.4080  174.2980  141.8000 C   0  0  0  0  0  2  0  0  0  0  0  0
  188.9820  175.7450  144.1460 C   0  0  1  0  0  3  0  0  0  0  0  0
  192.8980  176.7730  146.2180 N   0  0  0  0  0  0  0  0  0  0  0  0
  191.0250  176.5660  144.8270 C   0  0  0  0  0  0  0  0  0  0  0  0
  186.6270  175.8980  143.5730 O   0  0  0  0  0  0  0  0  0  0  0  0
  185.8160  177.0230  143.5440 N   0  0  0  0  0  0  0  0  0  0  0  0
  183.7480  178.9960  145.7140 N   0  0  0  0  0  2  0  0  0  0  0  0
  185.2560  177.1050  145.9510 C   0  0  0  0  0  2  0  0  0  0  0  0
  185.1850  177.5520  144.5520 C   0  0  0  0  0  0  0  0  0  0  0  0
  184.4730  178.1740  146.6880 C   0  0  0  0  0  2  0  0  0  0  0  0
  184.3360  178.7440  144.4030 C   0  0  0  0  0  2  0  0  0  0  0  0
  1 26  1  0  0  0  0
  3 19  1  0  0  0  0
  3 16  1  0  0  0  0
  4 23  2  0  0  0  0
  5 11  1  1  0  0  0
  5 15  1  0  0  0  0
  7  3  2  0  0  0  0
  8 12  1  0  0  0  0
  9 25  1  0  0  0  0
  9 27  1  1  0  0  0
 10 17  1  0  0  0  0
 11 20  1  0  0  0  0
 13 20  1  0  0  0  0
 13  9  1  0  0  0  0
 14  2  1  0  0  0  0
 15 12  1  0  0  0  0
 15  4  1  0  0  0  0
 16  8  1  0  0  0  0
 17 28  1  1  0  0  0
 17 25  1  0  0  0  0
 18  4  1  0  0  0  0
 18  1  1  0  0  0  0
 19  6  1  6  0  0  0
 19  5  1  0  0  0  0
 20 18  2  0  0  0  0
 22 24  1  0  0  0  0
 22 10  1  0  0  0  0
 23 21  1  0  0  0  0
 24 13  1  0  0  0  0
 25 14  1  1  0  0  0
 26 21  2  0  0  0  0
 27  1  2  0  0  0  0
 27  2  1  0  0  0  0
 29 28  1  0  0  0  0
 29 32  2  0  0  0  0
 30 33  1  0  0  0  0
 31 33  1  0  0  0  0
 32 31  1  0  0  0  0
 34 32  1  0  0  0  0
 34 30  1  0  0  0  0
M  END
>  <MODEL>
4

>  <REMARK>
 VINA RESULT:      -8.7      3.530      6.213
  Name = 
  2 active torsions:
  status: ('A' for Active; 'I' for Inactive)
    1  A    between atoms: C_17  and  O_28
    2  A    between atoms: O_28  and  N_29
                            x       y       z     vdW  Elec       q    Type
                         _______ _______ _______ _____ _____    ______ ____

>  <TORSDO>
F 2

$$$$
=
 OpenBabel11112418053D

 34 40  0  0  1  0  0  0  0  0999 V2000
  192.6310  175.8540  144.0540 C   0  0  0  0  0  0  0  0  0  0  0  0
  191.5660  178.0550  143.5210 C   0  0  0  0  0  2  0  0  0  0  0  0
  193.2980  169.6520  143.2560 C   0  0  0  0  0  0  0  0  0  0  0  0
  193.3800  173.6990  144.8490 C   0  0  0  0  0  0  0  0  0  0  0  0
  192.1240  171.6080  144.2590 C   0  0  2  0  0  3  0  0  0  0  0  0
  191.6610  170.9200  141.8470 C   0  0  0  0  0  1  0  0  0  0  0  0
  192.7160  168.5990  142.8830 O   0  0  0  0  0  0  0  0  0  0  0  0
  195.4550  170.9390  144.5200 S   0  0  0  0  0  0  0  0  0  0  0  0
  190.5300  176.0510  142.7620 C   0  0  1  0  0  3  0  0  0  0  0  0
  187.5490  175.9480  142.3320 O   0  0  0  0  0  0  0  0  0  0  0  0
  191.0500  172.5160  143.9870 O   0  0  0  0  0  0  0  0  0  0  0  0
  194.1910  171.4860  145.7080 C   0  0  0  0  0  2  0  0  0  0  0  0
  190.2050  174.6920  143.2070 N   0  0  0  0  0  0  0  0  0  0  0  0
  190.2860  178.3340  143.2870 C   0  0  0  0  0  2  0  0  0  0  0  0
  193.1880  172.2830  145.0130 N   0  0  0  0  0  0  0  0  0  0  0  0
  194.4880  169.5390  144.0400 N   0  0  0  0  0  2  0  0  0  0  0  0
  188.3670  177.0670  142.1050 C   0  0  2  0  0  3  0  0  0  0  0  0
  192.4090  174.4640  144.1900 C   0  0  0  0  0  0  0  0  0  0  0  0
  192.6970  171.0020  142.9660 C   0  0  2  0  0  3  0  0  0  0  0  0
  191.2500  173.8900  143.7940 C   0  0  0  0  0  0  0  0  0  0  0  0
  194.6610  175.6530  145.2520 C   0  0  0  0  0  3  0  0  0  0  0  0
  188.1800  174.8500  141.7240 C   0  0  0  0  0  2  0  0  0  0  0  0
  194.4810  174.3120  145.3650 N   0  0  0  0  0  0  0  0  0  0  0  0
  188.9660  174.0330  142.7620 C   0  0  0  0  0  2  0  0  0  0  0  0
  189.4820  177.0700  143.1470 C   0  0  1  0  0  3  0  0  0  0  0  0
  193.7380  176.4140  144.6080 N   0  0  0  0  0  0  0  0  0  0  0  0
  191.7220  176.6110  143.4330 C   0  0  0  0  0  0  0  0  0  0  0  0
  187.5770  178.2470  142.2080 O   0  0  0  0  0  0  0  0  0  0  0  0
  186.2430  178.2590  142.5890 N   0  0  0  0  0  0  0  0  0  0  0  0
  184.2110  178.5150  145.5360 N   0  0  0  0  0  2  0  0  0  0  0  0
  186.5770  178.6660  145.0040 C   0  0  0  0  0  2  0  0  0  0  0  0
  185.7800  178.4090  143.7960 C   0  0  0  0  0  0  0  0  0  0  0  0
  185.5190  178.9170  146.0610 C   0  0  0  0  0  2  0  0  0  0  0  0
  184.3380  178.3910  144.0880 C   0  0  0  0  0  2  0  0  0  0  0  0
  1 18  1  0  0  0  0
  1 26  1  0  0  0  0
  3 16  1  0  0  0  0
  4 15  1  0  0  0  0
  4 23  2  0  0  0  0
  5 11  1  6  0  0  0
  5 15  1  0  0  0  0
  7  3  2  0  0  0  0
  8 12  1  0  0  0  0
  9 25  1  0  0  0  0
  9 13  1  0  0  0  0
  9 27  1  1  0  0  0
 13 20  1  0  0  0  0
 14  2  1  0  0  0  0
 15 12  1  0  0  0  0
 16  8  1  0  0  0  0
 17 28  1  1  0  0  0
 17 10  1  0  0  0  0
 17 25  1  0  0  0  0
 18  4  1  0  0  0  0
 19  6  1  6  0  0  0
 19  3  1  0  0  0  0
 19  5  1  0  0  0  0
 20 11  1  0  0  0  0
 20 18  2  0  0  0  0
 21 23  1  0  0  0  0
 22 10  1  0  0  0  0
 22 24  1  0  0  0  0
 24 13  1  0  0  0  0
 25 14  1  6  0  0  0
 26 21  2  0  0  0  0
 27  2  1  0  0  0  0
 27  1  2  0  0  0  0
 28 29  1  0  0  0  0
 29 32  2  0  0  0  0
 30 33  1  0  0  0  0
 31 33  1  0  0  0  0
 32 34  1  0  0  0  0
 32 31  1  0  0  0  0
 34 30  1  0  0  0  0
M  END
>  <MODEL>
5

>  <REMARK>
 VINA RESULT:      -8.3      3.468      6.128
  Name = 
  2 active torsions:
  status: ('A' for Active; 'I' for Inactive)
    1  A    between atoms: C_17  and  O_28
    2  A    between atoms: O_28  and  N_29
                            x       y       z     vdW  Elec       q    Type
                         _______ _______ _______ _____ _____    ______ ____

>  <TORSDO>
F 2

$$$$
=
 OpenBabel11112418053D

 34 40  0  0  1  0  0  0  0  0999 V2000
  190.4370  172.9370  142.7930 C   0  0  0  0  0  0  0  0  0  0  0  0
  188.1750  173.8690  142.2670 C   0  0  0  0  0  2  0  0  0  0  0  0
  196.0630  173.2160  145.5890 C   0  0  0  0  0  0  0  0  0  0  0  0
  192.7370  172.2200  142.9680 C   0  0  0  0  0  0  0  0  0  0  0  0
  194.5230  173.8130  143.7230 C   0  0  2  0  0  3  0  0  0  0  0  0
  194.4020  175.0570  145.9470 C   0  0  0  0  0  1  0  0  0  0  0  0
  196.9380  173.9950  146.0540 O   0  0  0  0  0  0  0  0  0  0  0  0
  195.2600  170.6530  144.7600 S   0  0  0  0  0  0  0  0  0  0  0  0
  189.8250  175.2970  143.2180 C   0  0  1  0  0  3  0  0  0  0  0  0
  189.7680  178.2610  142.6780 O   0  0  0  0  0  0  0  0  0  0  0  0
  193.5690  174.8150  143.3490 O   0  0  0  0  0  0  0  0  0  0  0  0
  195.1140  171.4310  143.1230 C   0  0  0  0  0  2  0  0  0  0  0  0
  191.2530  175.6160  143.1230 N   0  0  0  0  0  0  0  0  0  0  0  0
  187.8280  175.1220  141.9820 C   0  0  0  0  0  2  0  0  0  0  0  0
  194.1300  172.5050  143.1850 N   0  0  0  0  0  0  0  0  0  0  0  0
  196.4270  171.8650  145.3010 N   0  0  0  0  0  2  0  0  0  0  0  0
  188.6400  177.4340  142.8080 C   0  0  2  0  0  3  0  0  0  0  0  0
  191.7960  173.2560  143.0170 C   0  0  0  0  0  0  0  0  0  0  0  0
  194.6870  173.7280  145.2510 C   0  0  2  0  0  3  0  0  0  0  0  0
  192.2070  174.5350  143.1730 C   0  0  0  0  0  0  0  0  0  0  0  0
  191.0220  170.6740  142.4300 C   0  0  0  0  0  3  0  0  0  0  0  0
  190.6170  177.9660  143.7570 C   0  0  0  0  0  2  0  0  0  0  0  0
  192.3280  170.9550  142.6750 N   0  0  0  0  0  0  0  0  0  0  0  0
  191.7280  176.9950  143.3230 C   0  0  0  0  0  2  0  0  0  0  0  0
  188.9770  176.0630  142.2300 C   0  0  1  0  0  3  0  0  0  0  0  0
  190.0900  171.6610  142.4830 N   0  0  0  0  0  0  0  0  0  0  0  0
  189.5160  173.9050  142.8310 C   0  0  0  0  0  0  0  0  0  0  0  0
  187.5500  178.0240  142.1060 O   0  0  0  0  0  0  0  0  0  0  0  0
  186.6330  178.8920  142.6810 N   0  0  0  0  0  0  0  0  0  0  0  0
  184.1650  178.9810  145.2850 N   0  0  0  0  0  2  0  0  0  0  0  0
  185.8300  177.4030  144.4830 C   0  0  0  0  0  2  0  0  0  0  0  0
  185.8530  178.6420  143.6920 C   0  0  0  0  0  0  0  0  0  0  0  0
  184.8710  177.7380  145.6090 C   0  0  0  0  0  2  0  0  0  0  0  0
  184.9040  179.6380  144.2120 C   0  0  0  0  0  2  0  0  0  0  0  0
  1 27  2  0  0  0  0
  1 18  1  0  0  0  0
  2 27  1  0  0  0  0
  3  7  2  0  0  0  0
  4 18  1  0  0  0  0
  4 15  1  0  0  0  0
  5 11  1  1  0  0  0
  5 19  1  0  0  0  0
  8 16  1  0  0  0  0
  9 27  1  6  0  0  0
 10 17  1  0  0  0  0
 10 22  1  0  0  0  0
 12 15  1  0  0  0  0
 12  8  1  0  0  0  0
 13 20  1  0  0  0  0
 13  9  1  0  0  0  0
 13 24  1  0  0  0  0
 14  2  1  0  0  0  0
 15  5  1  0  0  0  0
 16  3  1  0  0  0  0
 17 28  1  6  0  0  0
 18 20  2  0  0  0  0
 19  3  1  0  0  0  0
 19  6  1  1  0  0  0
 20 11  1  0  0  0  0
 21 26  2  0  0  0  0
 21 23  1  0  0  0  0
 23  4  2  0  0  0  0
 24 22  1  0  0  0  0
 25 14  1  1  0  0  0
 25 17  1  0  0  0  0
 25  9  1  0  0  0  0
 26  1  1  0  0  0  0
 28 29  1  0  0  0  0
 29 32  2  0  0  0  0
 30 33  1  0  0  0  0
 31 33  1  0  0  0  0
 32 34  1  0  0  0  0
 32 31  1  0  0  0  0
 34 30  1  0  0  0  0
M  END
>  <MODEL>
6

>  <REMARK>
 VINA RESULT:      -8.2      3.653      6.280
  Name = 
  2 active torsions:
  status: ('A' for Active; 'I' for Inactive)
    1  A    between atoms: C_17  and  O_28
    2  A    between atoms: O_28  and  N_29
                            x       y       z     vdW  Elec       q    Type
                         _______ _______ _______ _____ _____    ______ ____

>  <TORSDO>
F 2

$$$$
=
 OpenBabel11112418053D

 34 40  0  0  1  0  0  0  0  0999 V2000
  188.5410  174.5020  140.1150 C   0  0  0  0  0  0  0  0  0  0  0  0
  187.4600  176.3430  141.4200 C   0  0  0  0  0  2  0  0  0  0  0  0
  191.5210  168.9810  139.6960 C   0  0  0  0  0  0  0  0  0  0  0  0
  189.9140  172.9410  138.8860 C   0  0  0  0  0  0  0  0  0  0  0  0
  191.5350  171.4430  140.0800 C   0  0  2  0  0  3  0  0  0  0  0  0
  190.8170  169.8490  141.9380 C   0  0  0  0  0  1  0  0  0  0  0  0
  192.2660  168.1700  140.3090 O   0  0  0  0  0  0  0  0  0  0  0  0
  190.2950  169.8660  137.3260 S   0  0  0  0  0  0  0  0  0  0  0  0
  188.8110  174.7510  142.5620 C   0  0  1  0  0  3  0  0  0  0  0  0
  190.2380  175.5100  145.1060 O   0  0  0  0  0  0  0  0  0  0  0  0
  191.4020  172.4010  141.1360 O   0  0  0  0  0  0  0  0  0  0  0  0
  191.3280  171.3440  137.5640 C   0  0  0  0  0  2  0  0  0  0  0  0
  190.0760  174.0210  142.4310 N   0  0  0  0  0  0  0  0  0  0  0  0
  187.8450  176.8990  142.5660 C   0  0  0  0  0  2  0  0  0  0  0  0
  190.9800  171.9770  138.8300 N   0  0  0  0  0  0  0  0  0  0  0  0
  191.4000  168.8650  138.2770 N   0  0  0  0  0  2  0  0  0  0  0  0
  188.9780  175.9860  144.7050 C   0  0  2  0  0  3  0  0  0  0  0  0
  189.5910  173.5550  140.1020 C   0  0  0  0  0  0  0  0  0  0  0  0
  190.8520  170.1100  140.4340 C   0  0  2  0  0  3  0  0  0  0  0  0
  190.3410  173.3150  141.2020 C   0  0  0  0  0  0  0  0  0  0  0  0
  188.2570  174.2290  137.7830 C   0  0  0  0  0  3  0  0  0  0  0  0
  190.2180  174.1150  144.9400 C   0  0  0  0  0  2  0  0  0  0  0  0
  189.2410  173.2930  137.7560 N   0  0  0  0  0  0  0  0  0  0  0  0
  190.8930  173.7170  143.6170 C   0  0  0  0  0  2  0  0  0  0  0  0
  188.9750  176.1190  143.1840 C   0  0  1  0  0  3  0  0  0  0  0  0
  187.9180  174.8290  138.9530 N   0  0  0  0  0  0  0  0  0  0  0  0
  188.2100  175.1070  141.2600 C   0  0  0  0  0  0  0  0  0  0  0  0
  188.7420  177.2470  145.3210 O   0  0  0  0  0  0  0  0  0  0  0  0
  187.9840  177.4220  146.4700 N   0  0  0  0  0  0  0  0  0  0  0  0
  184.7160  178.5030  147.4890 N   0  0  0  0  0  2  0  0  0  0  0  0
  185.8670  178.1000  145.3870 C   0  0  0  0  0  2  0  0  0  0  0  0
  186.7460  177.8190  146.5320 C   0  0  0  0  0  0  0  0  0  0  0  0
  184.5240  178.3490  146.0440 C   0  0  0  0  0  2  0  0  0  0  0  0
  186.0410  177.9830  147.8130 C   0  0  0  0  0  2  0  0  0  0  0  0
  1 27  2  0  0  0  0
  2 14  1  0  0  0  0
  3  7  2  0  0  0  0
  3 19  1  0  0  0  0
  4 18  1  0  0  0  0
  5 19  1  0  0  0  0
  5 11  1  1  0  0  0
  8 12  1  0  0  0  0
  8 16  1  0  0  0  0
  9 27  1  6  0  0  0
  9 25  1  0  0  0  0
 11 20  1  0  0  0  0
 12 15  1  0  0  0  0
 13  9  1  0  0  0  0
 13 24  1  0  0  0  0
 15  4  1  0  0  0  0
 15  5  1  0  0  0  0
 16  3  1  0  0  0  0
 17 10  1  0  0  0  0
 17 28  1  1  0  0  0
 18  1  1  0  0  0  0
 18 20  2  0  0  0  0
 19  6  1  1  0  0  0
 20 13  1  0  0  0  0
 21 26  2  0  0  0  0
 22 10  1  0  0  0  0
 23 21  1  0  0  0  0
 23  4  2  0  0  0  0
 24 22  1  0  0  0  0
 25 14  1  1  0  0  0
 25 17  1  0  0  0  0
 26  1  1  0  0  0  0
 27  2  1  0  0  0  0
 28 29  1  0  0  0  0
 29 32  2  0  0  0  0
 30 34  1  0  0  0  0
 31 33  1  0  0  0  0
 31 32  1  0  0  0  0
 32 34  1  0  0  0  0
 33 30  1  0  0  0  0
M  END
>  <MODEL>
7

>  <REMARK>
 VINA RESULT:      -8.1      5.013      7.650
  Name = 
  2 active torsions:
  status: ('A' for Active; 'I' for Inactive)
    1  A    between atoms: C_17  and  O_28
    2  A    between atoms: O_28  and  N_29
                            x       y       z     vdW  Elec       q    Type
                         _______ _______ _______ _____ _____    ______ ____

>  <TORSDO>
F 2

$$$$
=
 OpenBabel11112418053D

 34 40  0  0  1  0  0  0  0  0999 V2000
  191.5070  173.2900  141.6030 C   0  0  0  0  0  0  0  0  0  0  0  0
  189.0520  172.9270  141.9230 C   0  0  0  0  0  2  0  0  0  0  0  0
  196.9530  176.0950  143.0240 C   0  0  0  0  0  0  0  0  0  0  0  0
  193.7690  173.9070  141.0240 C   0  0  0  0  0  0  0  0  0  0  0  0
  194.7590  176.0630  141.8420 C   0  0  2  0  0  3  0  0  0  0  0  0
  194.8850  176.6620  144.3180 C   0  0  0  0  0  1  0  0  0  0  0  0
  197.4730  177.1340  143.5120 O   0  0  0  0  0  0  0  0  0  0  0  0
  197.1810  173.6790  141.6040 S   0  0  0  0  0  0  0  0  0  0  0  0
  190.0770  174.8400  142.8980 C   0  0  1  0  0  3  0  0  0  0  0  0
  188.4760  177.3470  143.3790 O   0  0  0  0  0  0  0  0  0  0  0  0
  193.3900  176.4380  142.0350 O   0  0  0  0  0  0  0  0  0  0  0  0
  196.1190  174.5110  140.3850 C   0  0  0  0  0  2  0  0  0  0  0  0
  191.0580  175.8890  142.6000 N   0  0  0  0  0  0  0  0  0  0  0  0
  188.0920  173.8210  142.1460 C   0  0  0  0  0  2  0  0  0  0  0  0
  194.8480  174.8580  141.0080 N   0  0  0  0  0  0  0  0  0  0  0  0
  197.7670  175.2210  142.2380 N   0  0  0  0  0  2  0  0  0  0  0  0
  187.9850  176.0350  143.4790 C   0  0  2  0  0  3  0  0  0  0  0  0
  192.5450  174.2490  141.6140 C   0  0  0  0  0  0  0  0  0  0  0  0
  195.4780  175.8320  143.1830 C   0  0  2  0  0  3  0  0  0  0  0  0
  192.3480  175.5020  142.0830 C   0  0  0  0  0  0  0  0  0  0  0  0
  192.8920  171.7940  140.4040 C   0  0  0  0  0  3  0  0  0  0  0  0
  189.6890  177.3850  144.0880 C   0  0  0  0  0  2  0  0  0  0  0  0
  193.9120  172.6900  140.4320 N   0  0  0  0  0  0  0  0  0  0  0  0
  190.8820  177.2520  143.1280 C   0  0  0  0  0  2  0  0  0  0  0  0
  188.6820  175.1780  142.4260 C   0  0  1  0  0  3  0  0  0  0  0  0
  191.7000  172.0980  140.9800 N   0  0  0  0  0  0  0  0  0  0  0  0
  190.3270  173.5860  142.1570 C   0  0  0  0  0  0  0  0  0  0  0  0
  186.5770  176.0490  143.2670 O   0  0  0  0  0  0  0  0  0  0  0  0
  185.7910  177.1900  143.3430 N   0  0  0  0  0  0  0  0  0  0  0  0
  183.8250  179.0400  145.7080 N   0  0  0  0  0  2  0  0  0  0  0  0
  185.2960  177.1070  145.7640 C   0  0  0  0  0  2  0  0  0  0  0  0
  185.1980  177.6570  144.4040 C   0  0  0  0  0  0  0  0  0  0  0  0
  184.5570  178.1340  146.5980 C   0  0  0  0  0  2  0  0  0  0  0  0
  184.3720  178.8730  144.3660 C   0  0  0  0  0  2  0  0  0  0  0  0
  1 18  1  0  0  0  0
  1 27  2  0  0  0  0
  2 14  1  0  0  0  0
  2 27  1  0  0  0  0
  3 19  1  0  0  0  0
  3  7  2  0  0  0  0
  4 18  1  0  0  0  0
  5 11  1  1  0  0  0
  5 19  1  0  0  0  0
  8 16  1  0  0  0  0
  9 27  1  6  0  0  0
 10 17  1  0  0  0  0
 10 22  1  0  0  0  0
 11 20  1  0  0  0  0
 12 15  1  0  0  0  0
 12  8  1  0  0  0  0
 13  9  1  0  0  0  0
 13 24  1  0  0  0  0
 15  4  1  0  0  0  0
 15  5  1  0  0  0  0
 16  3  1  0  0  0  0
 17 28  1  6  0  0  0
 18 20  2  0  0  0  0
 19  6  1  1  0  0  0
 20 13  1  0  0  0  0
 21 23  1  0  0  0  0
 21 26  2  0  0  0  0
 23  4  2  0  0  0  0
 24 22  1  0  0  0  0
 25 14  1  1  0  0  0
 25  9  1  0  0  0  0
 25 17  1  0  0  0  0
 26  1  1  0  0  0  0
 28 29  1  0  0  0  0
 29 32  2  0  0  0  0
 30 33  1  0  0  0  0
 31 33  1  0  0  0  0
 32 31  1  0  0  0  0
 34 32  1  0  0  0  0
 34 30  1  0  0  0  0
M  END
>  <MODEL>
8

>  <REMARK>
 VINA RESULT:      -8.0      4.064      6.897
  Name = 
  2 active torsions:
  status: ('A' for Active; 'I' for Inactive)
    1  A    between atoms: C_17  and  O_28
    2  A    between atoms: O_28  and  N_29
                            x       y       z     vdW  Elec       q    Type
                         _______ _______ _______ _____ _____    ______ ____

>  <TORSDO>
F 2

$$$$
=
 OpenBabel11112418053D

 34 40  0  0  1  0  0  0  0  0999 V2000
  191.0880  174.4740  142.2430 C   0  0  0  0  0  0  0  0  0  0  0  0
  188.6350  174.5620  142.7260 C   0  0  0  0  0  2  0  0  0  0  0  0
  197.1120  174.2550  144.0330 C   0  0  0  0  0  0  0  0  0  0  0  0
  193.4370  174.7830  141.7680 C   0  0  0  0  0  0  0  0  0  0  0  0
  195.0210  175.5270  143.5660 C   0  0  2  0  0  3  0  0  0  0  0  0
  195.2990  174.2560  145.7600 C   0  0  0  0  0  1  0  0  0  0  0  0
  197.9160  174.5400  144.9600 O   0  0  0  0  0  0  0  0  0  0  0  0
  196.6170  173.4540  141.3840 S   0  0  0  0  0  0  0  0  0  0  0  0
  190.1790  175.0220  144.4770 C   0  0  1  0  0  3  0  0  0  0  0  0
  189.4000  176.8310  146.7590 O   0  0  0  0  0  0  0  0  0  0  0  0
  193.8250  175.9730  144.2180 O   0  0  0  0  0  0  0  0  0  0  0  0
  195.8650  175.1020  141.2230 C   0  0  0  0  0  2  0  0  0  0  0  0
  191.4320  175.7380  144.7390 N   0  0  0  0  0  0  0  0  0  0  0  0
  187.9860  175.2620  143.6530 C   0  0  0  0  0  2  0  0  0  0  0  0
  194.7510  175.2170  142.1570 N   0  0  0  0  0  0  0  0  0  0  0  0
  197.6340  173.9810  142.7300 N   0  0  0  0  0  2  0  0  0  0  0  0
  188.5370  175.9500  146.0850 C   0  0  2  0  0  3  0  0  0  0  0  0
  192.3660  174.9050  142.6640 C   0  0  0  0  0  0  0  0  0  0  0  0
  195.6260  174.2990  144.2700 C   0  0  2  0  0  3  0  0  0  0  0  0
  192.5500  175.5180  143.8550 C   0  0  0  0  0  0  0  0  0  0  0  0
  191.9700  173.9100  140.1220 C   0  0  0  0  0  3  0  0  0  0  0  0
  190.5610  176.1040  147.0700 C   0  0  0  0  0  2  0  0  0  0  0  0
  193.2130  174.2900  140.5190 N   0  0  0  0  0  0  0  0  0  0  0  0
  191.6690  176.3840  146.0410 C   0  0  0  0  0  2  0  0  0  0  0  0
  188.9530  175.8950  144.6180 C   0  0  1  0  0  3  0  0  0  0  0  0
  190.9200  174.0090  140.9770 N   0  0  0  0  0  0  0  0  0  0  0  0
  190.0470  174.5790  143.0740 C   0  0  0  0  0  0  0  0  0  0  0  0
  187.2000  176.4240  146.2120 O   0  0  0  0  0  0  0  0  0  0  0  0
  186.8250  177.7490  146.0400 N   0  0  0  0  0  0  0  0  0  0  0  0
  184.7940  179.7900  143.8980 N   0  0  0  0  0  2  0  0  0  0  0  0
  185.2380  177.4170  144.1730 C   0  0  0  0  0  2  0  0  0  0  0  0
  186.0000  178.2130  145.1460 C   0  0  0  0  0  0  0  0  0  0  0  0
  184.3360  178.4490  143.5240 C   0  0  0  0  0  2  0  0  0  0  0  0
  185.6840  179.6460  145.0450 C   0  0  0  0  0  2  0  0  0  0  0  0
  1 18  1  0  0  0  0
  1 27  2  0  0  0  0
  2 27  1  0  0  0  0
  2 14  1  0  0  0  0
  3 19  1  0  0  0  0
  3  7  2  0  0  0  0
  4 15  1  0  0  0  0
  4 18  1  0  0  0  0
  5 11  1  1  0  0  0
  5 19  1  0  0  0  0
  8 16  1  0  0  0  0
  9 27  1  6  0  0  0
  9 25  1  0  0  0  0
  9 13  1  0  0  0  0
 10 22  1  0  0  0  0
 12  8  1  0  0  0  0
 12 15  1  0  0  0  0
 13 24  1  0  0  0  0
 15  5  1  0  0  0  0
 16  3  1  0  0  0  0
 17 28  1  6  0  0  0
 17 10  1  0  0  0  0
 18 20  2  0  0  0  0
 19  6  1  1  0  0  0
 20 11  1  0  0  0  0
 20 13  1  0  0  0  0
 21 23  1  0  0  0  0
 21 26  2  0  0  0  0
 23  4  2  0  0  0  0
 24 22  1  0  0  0  0
 25 14  1  6  0  0  0
 25 17  1  0  0  0  0
 26  1  1  0  0  0  0
 29 28  1  0  0  0  0
 30 34  1  0  0  0  0
 31 32  1  0  0  0  0
 32 29  2  0  0  0  0
 33 30  1  0  0  0  0
 33 31  1  0  0  0  0
 34 32  1  0  0  0  0
M  END
>  <MODEL>
9

>  <REMARK>
 VINA RESULT:      -7.9      3.661      6.906
  Name = 
  2 active torsions:
  status: ('A' for Active; 'I' for Inactive)
    1  A    between atoms: C_17  and  O_28
    2  A    between atoms: O_28  and  N_29
                            x       y       z     vdW  Elec       q    Type
                         _______ _______ _______ _____ _____    ______ ____

>  <TORSDO>
F 2

$$$$
