=
 OpenBabel11112417283D

 37 43  0  0  1  0  0  0  0  0999 V2000
  194.0510  174.1420  142.1590 C   0  0  0  0  0  0  0  0  0  0  0  0
  191.1980  174.7680  144.6680 N   0  0  1  0  0  0  0  0  0  0  0  0
  188.0570  174.8580  143.7100 O   0  0  0  0  0  0  0  0  0  0  0  0
  193.4800  173.6120  144.3270 C   0  0  2  0  0  3  0  0  0  0  0  0
  190.4150  175.2840  143.5290 C   0  0  2  0  0  3  0  0  0  0  0  0
  191.9660  173.6600  144.0500 C   0  0  2  0  0  3  0  0  0  0  0  0
  189.0380  175.8420  143.9110 C   0  0  2  0  0  3  0  0  0  0  0  0
  193.6950  173.9530  145.7810 C   0  0  0  0  0  2  0  0  0  0  0  0
  191.6080  173.6030  142.5730 C   0  0  2  0  0  3  0  0  0  0  0  0
  194.3830  172.8120  141.9430 F   0  0  0  0  0  0  0  0  0  0  0  0
  191.2440  176.7660  146.1540 C   0  0  0  0  0  2  0  0  0  0  0  0
  193.2190  175.3700  146.0720 C   0  0  0  0  0  2  0  0  0  0  0  0
  192.6150  174.4140  141.7310 C   0  0  0  0  0  2  0  0  0  0  0  0
  187.8010  176.1560  141.5220 C   0  0  0  0  0  2  0  0  0  0  0  0
  187.3560  175.0570  142.4850 C   0  0  1  0  0  3  0  0  0  0  0  0
  192.0410  175.8620  145.2100 C   0  0  1  0  0  3  0  0  0  0  0  0
  190.2720  174.1940  142.5580 N   0  0  2  0  0  0  0  0  0  0  0  0
  194.2160  174.5010  143.5120 O   0  0  0  0  0  0  0  0  0  0  0  0
  188.9400  176.4680  145.2990 C   0  0  1  0  0  3  0  0  0  0  0  0
  194.8860  174.9290  141.3900 F   0  0  0  0  0  0  0  0  0  0  0  0
  188.2050  174.7200  141.2370 C   0  0  2  0  0  3  0  0  0  0  0  0
  189.7520  174.6860  141.2640 C   0  0  2  0  0  3  0  0  0  0  0  0
  190.0670  177.4670  145.5050 C   0  0  0  0  0  2  0  0  0  0  0  0
  186.8030  176.7410  146.5660 C   0  0  0  0  0  3  0  0  0  0  0  0
  187.6130  177.1360  145.4950 C   0  0  0  0  0  0  0  0  0  0  0  0
  187.1640  178.1370  144.6190 C   0  0  0  0  0  3  0  0  0  0  0  0
  185.4460  179.7950  143.8880 C   0  0  0  0  0  1  0  0  0  0  0  0
  185.1140  178.3390  145.8900 C   0  0  0  0  0  3  0  0  0  0  0  0
  185.9170  178.7370  144.8180 C   0  0  0  0  0  0  0  0  0  0  0  0
  185.5560  177.3420  146.7640 C   0  0  0  0  0  3  0  0  0  0  0  0
  190.1860  173.7910  140.0920 C   0  0  0  0  0  2  0  0  0  0  0  0
  189.0120  173.2890  139.2430 C   0  0  1  0  0  3  0  0  0  0  0  0
  187.8170  174.6200  137.6600 O   0  0  0  0  0  1  0  0  0  0  0  0
  188.9980  173.9030  137.8520 C   0  0  0  0  0  2  0  0  0  0  0  0
  189.0260  171.8360  139.1450 N   0  0  0  0  0  2  0  0  0  0  0  0
  189.9140  171.4820  138.0490 C   0  0  0  0  0  2  0  0  0  0  0  0
  189.6910  170.0370  137.6530 C   0  0  0  0  0  1  0  0  0  0  0  0
  1 18  1  0  0  0  0
  2 16  1  0  0  0  0
  3  7  1  0  0  0  0
  4  8  1  0  0  0  0
  5  7  1  0  0  0  0
  5  2  1  0  0  0  0
  6  4  1  0  0  0  0
  6  2  1  0  0  0  0
  7 19  1  0  0  0  0
  8 12  1  0  0  0  0
  9  6  1  0  0  0  0
 10  1  1  0  0  0  0
 13  1  1  0  0  0  0
 13  9  1  0  0  0  0
 14 15  1  0  0  0  0
 15  3  1  0  0  0  0
 16 12  1  0  0  0  0
 16 11  1  0  0  0  0
 17  9  1  0  0  0  0
 17  5  1  0  0  0  0
 18  4  1  0  0  0  0
 19 25  1  0  0  0  0
 19 23  1  0  0  0  0
 20  1  1  0  0  0  0
 21 22  1  0  0  0  0
 21 14  1  0  0  0  0
 21 15  1  0  0  0  0
 22 17  1  0  0  0  0
 23 11  1  0  0  0  0
 24 30  1  0  0  0  0
 25 24  2  0  0  0  0
 26 29  2  0  0  0  0
 26 25  1  0  0  0  0
 27 29  1  0  0  0  0
 28 30  2  0  0  0  0
 29 28  1  0  0  0  0
 31 22  1  0  0  0  0
 32 31  1  0  0  0  0
 33 34  1  0  0  0  0
 34 32  1  0  0  0  0
 35 32  1  0  0  0  0
 36 35  1  0  0  0  0
 37 36  1  0  0  0  0
M  END
>  <MODEL>
1

>  <REMARK>
 VINA RESULT:      -7.9      0.000      0.000
  Name = 
  6 active torsions:
  status: ('A' for Active; 'I' for Inactive)
    1  A    between atoms: C_1  and  CA_4
    2  A    between atoms: C_1  and  C_27
    3  A    between atoms: CA_4  and  N_12
    4  A    between atoms: CA_4  and  C_37
    5  A    between atoms: C_8  and  N_12
    6  A    between atoms: C_23  and  C_30
                            x       y       z     vdW  Elec       q    Type
                         _______ _______ _______ _____ _____    ______ ____

>  <TORSDO>
F 6

$$$$
=
 OpenBabel11112417283D

 37 43  0  0  1  0  0  0  0  0999 V2000
  193.3960  172.3290  143.0290 C   0  0  0  0  0  0  0  0  0  0  0  0
  190.5030  174.2460  141.3580 N   0  0  1  0  0  0  0  0  0  0  0  0
  189.7180  177.3030  142.2660 O   0  0  0  0  0  0  0  0  0  0  0  0
  192.4440  172.5950  140.9470 C   0  0  2  0  0  3  0  0  0  0  0  0
  190.4030  175.0260  142.6050 C   0  0  2  0  0  3  0  0  0  0  0  0
  191.9650  174.0300  141.2340 C   0  0  2  0  0  3  0  0  0  0  0  0
  189.2470  176.0320  142.6290 C   0  0  2  0  0  3  0  0  0  0  0  0
  191.5090  171.9900  139.9290 C   0  0  0  0  0  2  0  0  0  0  0  0
  192.6420  174.6770  142.4330 C   0  0  2  0  0  3  0  0  0  0  0  0
  194.6480  172.5090  142.4560 F   0  0  0  0  0  0  0  0  0  0  0  0
  188.2280  173.2410  141.2440 C   0  0  0  0  0  2  0  0  0  0  0  0
  190.0960  171.9010  140.4900 C   0  0  0  0  0  2  0  0  0  0  0  0
  192.8560  173.6490  143.5640 C   0  0  0  0  0  2  0  0  0  0  0  0
  189.7760  177.5500  144.8100 C   0  0  0  0  0  2  0  0  0  0  0  0
  189.9350  178.1300  143.4050 C   0  0  1  0  0  3  0  0  0  0  0  0
  189.7160  172.9960  141.5040 C   0  0  1  0  0  3  0  0  0  0  0  0
  191.6820  175.7150  142.8030 N   0  0  2  0  0  0  0  0  0  0  0  0
  192.4800  171.7860  142.1050 O   0  0  0  0  0  0  0  0  0  0  0  0
  188.0070  175.6350  141.8320 C   0  0  1  0  0  3  0  0  0  0  0  0
  193.5240  171.4540  144.0890 F   0  0  0  0  0  0  0  0  0  0  0  0
  191.1720  177.7110  144.2340 C   0  0  2  0  0  3  0  0  0  0  0  0
  191.7840  176.2920  144.1610 C   0  0  2  0  0  3  0  0  0  0  0  0
  187.5780  174.2240  142.1970 C   0  0  0  0  0  2  0  0  0  0  0  0
  186.3550  177.3100  140.9870 C   0  0  0  0  0  3  0  0  0  0  0  0
  186.8830  176.5970  142.0700 C   0  0  0  0  0  0  0  0  0  0  0  0
  186.3620  176.8060  143.3570 C   0  0  0  0  0  3  0  0  0  0  0  0
  184.7730  177.9350  144.9170 C   0  0  0  0  0  1  0  0  0  0  0  0
  184.7960  178.4240  142.4680 C   0  0  0  0  0  3  0  0  0  0  0  0
  185.3200  177.7170  143.5540 C   0  0  0  0  0  0  0  0  0  0  0  0
  185.3130  178.2210  141.1860 C   0  0  0  0  0  3  0  0  0  0  0  0
  193.2440  176.4240  144.6230 C   0  0  0  0  0  2  0  0  0  0  0  0
  193.4050  176.3820  146.1470 C   0  0  1  0  0  3  0  0  0  0  0  0
  191.5540  176.2440  147.6520 O   0  0  0  0  0  1  0  0  0  0  0  0
  192.3730  175.4860  146.8150 C   0  0  0  0  0  2  0  0  0  0  0  0
  194.7470  175.9540  146.5170 N   0  0  0  0  0  2  0  0  0  0  0  0
  195.3500  175.3490  145.3400 C   0  0  0  0  0  2  0  0  0  0  0  0
  196.0130  174.0400  145.7190 C   0  0  0  0  0  1  0  0  0  0  0  0
  1 13  1  0  0  0  0
  1 20  1  0  0  0  0
  2 16  1  0  0  0  0
  2  5  1  0  0  0  0
  3  7  1  0  0  0  0
  3 15  1  0  0  0  0
  4  6  1  0  0  0  0
  4 18  1  0  0  0  0
  5  7  1  0  0  0  0
  5 17  1  0  0  0  0
  6  2  1  0  0  0  0
  6  9  1  0  0  0  0
  8 12  1  0  0  0  0
  8  4  1  0  0  0  0
  9 17  1  0  0  0  0
  9 13  1  0  0  0  0
 10  1  1  0  0  0  0
 11 16  1  0  0  0  0
 11 23  1  0  0  0  0
 12 16  1  0  0  0  0
 15 21  1  0  0  0  0
 15 14  1  0  0  0  0
 17 22  1  0  0  0  0
 18  1  1  0  0  0  0
 19 25  1  0  0  0  0
 19 23  1  0  0  0  0
 19  7  1  0  0  0  0
 21 14  1  0  0  0  0
 22 21  1  0  0  0  0
 22 31  1  0  0  0  0
 24 30  2  0  0  0  0
 24 25  1  0  0  0  0
 25 26  2  0  0  0  0
 26 29  1  0  0  0  0
 28 29  2  0  0  0  0
 29 27  1  0  0  0  0
 30 28  1  0  0  0  0
 31 32  1  0  0  0  0
 32 35  1  0  0  0  0
 32 34  1  0  0  0  0
 34 33  1  0  0  0  0
 36 37  1  0  0  0  0
 36 35  1  0  0  0  0
M  END
>  <MODEL>
2

>  <REMARK>
 VINA RESULT:      -7.9      2.184      5.522
  Name = 
  6 active torsions:
  status: ('A' for Active; 'I' for Inactive)
    1  A    between atoms: C_1  and  CA_4
    2  A    between atoms: C_1  and  C_27
    3  A    between atoms: CA_4  and  N_12
    4  A    between atoms: CA_4  and  C_37
    5  A    between atoms: C_8  and  N_12
    6  A    between atoms: C_23  and  C_30
                            x       y       z     vdW  Elec       q    Type
                         _______ _______ _______ _____ _____    ______ ____

>  <TORSDO>
F 6

$$$$
=
 OpenBabel11112417283D

 37 43  0  0  1  0  0  0  0  0999 V2000
  191.2630  175.8030  147.7190 C   0  0  0  0  0  0  0  0  0  0  0  0
  191.8020  175.2870  143.9420 N   0  0  1  0  0  0  0  0  0  0  0  0
  189.4670  176.0350  141.7560 O   0  0  0  0  0  0  0  0  0  0  0  0
  192.9380  175.9950  146.1480 C   0  0  2  0  0  3  0  0  0  0  0  0
  190.3350  175.1810  143.8260 C   0  0  2  0  0  3  0  0  0  0  0  0
  191.9640  176.3150  144.9980 C   0  0  2  0  0  3  0  0  0  0  0  0
  189.8360  174.8520  142.4140 C   0  0  2  0  0  3  0  0  0  0  0  0
  194.1560  175.3340  145.5530 C   0  0  0  0  0  2  0  0  0  0  0  0
  190.5790  176.7380  145.4630 C   0  0  2  0  0  3  0  0  0  0  0  0
  191.6110  177.0530  148.2130 F   0  0  0  0  0  0  0  0  0  0  0  0
  192.5080  173.0660  143.0630 C   0  0  0  0  0  2  0  0  0  0  0  0
  193.7770  174.0160  144.8910 C   0  0  0  0  0  2  0  0  0  0  0  0
  190.1410  175.9230  146.6970 C   0  0  0  0  0  2  0  0  0  0  0  0
  187.1660  175.2810  142.5750 C   0  0  0  0  0  2  0  0  0  0  0  0
  188.0570  176.2330  141.7780 C   0  0  1  0  0  3  0  0  0  0  0  0
  192.3570  173.9570  144.2990 C   0  0  1  0  0  3  0  0  0  0  0  0
  189.7600  176.4480  144.2880 N   0  0  2  0  0  0  0  0  0  0  0  0
  192.3690  175.1550  147.1320 O   0  0  0  0  0  0  0  0  0  0  0  0
  190.7690  173.9940  141.5650 C   0  0  1  0  0  3  0  0  0  0  0  0
  190.8090  175.0320  148.7710 F   0  0  0  0  0  0  0  0  0  0  0  0
  187.5200  176.6310  143.1730 C   0  0  2  0  0  3  0  0  0  0  0  0
  188.2980  176.3420  144.4800 C   0  0  2  0  0  3  0  0  0  0  0  0
  191.2080  172.7660  142.3440 C   0  0  0  0  0  2  0  0  0  0  0  0
  188.8530  172.9690  140.3300 C   0  0  0  0  0  3  0  0  0  0  0  0
  190.1090  173.5870  140.2830 C   0  0  0  0  0  0  0  0  0  0  0  0
  190.7300  173.8010  139.0420 C   0  0  0  0  0  3  0  0  0  0  0  0
  190.7590  173.6310  136.5510 C   0  0  0  0  0  1  0  0  0  0  0  0
  188.8430  172.7880  137.9140 C   0  0  0  0  0  3  0  0  0  0  0  0
  190.0970  173.4020  137.8610 C   0  0  0  0  0  0  0  0  0  0  0  0
  188.2210  172.5710  139.1470 C   0  0  0  0  0  3  0  0  0  0  0  0
  187.7790  177.3440  145.5230 C   0  0  0  0  0  2  0  0  0  0  0  0
  186.2600  177.5410  145.4740 C   0  0  1  0  0  3  0  0  0  0  0  0
  186.3450  176.7880  147.7400 O   0  0  0  0  0  1  0  0  0  0  0  0
  185.5430  176.8090  146.5990 C   0  0  0  0  0  2  0  0  0  0  0  0
  185.9170  178.9560  145.5060 N   0  0  0  0  0  2  0  0  0  0  0  0
  184.4890  179.0640  145.2560 C   0  0  0  0  0  2  0  0  0  0  0  0
  184.2000  178.7830  143.7960 C   0  0  0  0  0  1  0  0  0  0  0  0
  1 10  1  0  0  0  0
  1 20  1  0  0  0  0
  2 16  1  0  0  0  0
  2  6  1  0  0  0  0
  3 15  1  0  0  0  0
  3  7  1  0  0  0  0
  4 18  1  0  0  0  0
  5  2  1  0  0  0  0
  5 17  1  0  0  0  0
  6  9  1  0  0  0  0
  6  4  1  0  0  0  0
  7  5  1  0  0  0  0
  8  4  1  0  0  0  0
  9 13  1  0  0  0  0
 11 16  1  0  0  0  0
 12  8  1  0  0  0  0
 13  1  1  0  0  0  0
 14 21  1  0  0  0  0
 15 14  1  0  0  0  0
 15 21  1  0  0  0  0
 16 12  1  0  0  0  0
 17 22  1  0  0  0  0
 17  9  1  0  0  0  0
 18  1  1  0  0  0  0
 19 23  1  0  0  0  0
 19  7  1  0  0  0  0
 21 22  1  0  0  0  0
 22 31  1  0  0  0  0
 23 11  1  0  0  0  0
 25 24  1  0  0  0  0
 25 19  1  0  0  0  0
 26 25  2  0  0  0  0
 27 29  1  0  0  0  0
 28 30  1  0  0  0  0
 29 28  2  0  0  0  0
 29 26  1  0  0  0  0
 30 24  2  0  0  0  0
 32 35  1  0  0  0  0
 32 31  1  0  0  0  0
 32 34  1  0  0  0  0
 34 33  1  0  0  0  0
 36 35  1  0  0  0  0
 37 36  1  0  0  0  0
M  END
>  <MODEL>
3

>  <REMARK>
 VINA RESULT:      -7.8      2.671      6.744
  Name = 
  6 active torsions:
  status: ('A' for Active; 'I' for Inactive)
    1  A    between atoms: C_1  and  CA_4
    2  A    between atoms: C_1  and  C_27
    3  A    between atoms: CA_4  and  N_12
    4  A    between atoms: CA_4  and  C_37
    5  A    between atoms: C_8  and  N_12
    6  A    between atoms: C_23  and  C_30
                            x       y       z     vdW  Elec       q    Type
                         _______ _______ _______ _____ _____    ______ ____

>  <TORSDO>
F 6

$$$$
=
 OpenBabel11112417283D

 37 43  0  0  1  0  0  0  0  0999 V2000
  191.9190  171.9270  142.6040 C   0  0  0  0  0  0  0  0  0  0  0  0
  189.6980  175.0310  142.0900 N   0  0  1  0  0  0  0  0  0  0  0  0
  189.6650  177.4970  144.2590 O   0  0  0  0  0  0  0  0  0  0  0  0
  191.1770  173.2850  140.8960 C   0  0  2  0  0  3  0  0  0  0  0  0
  189.7330  175.2020  143.5550 C   0  0  2  0  0  3  0  0  0  0  0  0
  191.0620  174.5300  141.7960 C   0  0  2  0  0  3  0  0  0  0  0  0
  188.8690  176.3560  144.0760 C   0  0  2  0  0  3  0  0  0  0  0  0
  190.1750  173.4280  139.7780 C   0  0  0  0  0  2  0  0  0  0  0  0
  191.8160  174.4100  143.1120 C   0  0  2  0  0  3  0  0  0  0  0  0
  193.2040  172.0130  142.0860 F   0  0  0  0  0  0  0  0  0  0  0  0
  187.2520  174.7770  141.7000 C   0  0  0  0  0  2  0  0  0  0  0  0
  188.7570  173.4660  140.3340 C   0  0  0  0  0  2  0  0  0  0  0  0
  191.7030  172.9810  143.6820 C   0  0  0  0  0  2  0  0  0  0  0  0
  189.6480  176.6120  146.6570 C   0  0  0  0  0  2  0  0  0  0  0  0
  190.0230  177.6750  145.6260 C   0  0  1  0  0  3  0  0  0  0  0  0
  188.6140  174.0800  141.7390 C   0  0  1  0  0  3  0  0  0  0  0  0
  191.1320  175.3950  143.9470 N   0  0  2  0  0  0  0  0  0  0  0  0
  190.9460  172.0790  141.5950 O   0  0  0  0  0  0  0  0  0  0  0  0
  187.6130  176.6620  143.2640 C   0  0  1  0  0  3  0  0  0  0  0  0
  191.7650  170.6820  143.1810 F   0  0  0  0  0  0  0  0  0  0  0  0
  191.0680  176.6480  146.1200 C   0  0  2  0  0  3  0  0  0  0  0  0
  191.3040  175.2920  145.4120 C   0  0  2  0  0  3  0  0  0  0  0  0
  186.8220  175.3880  143.0190 C   0  0  0  0  0  2  0  0  0  0  0  0
  186.3560  178.8230  143.2580 C   0  0  0  0  0  3  0  0  0  0  0  0
  186.7580  177.6780  143.9580 C   0  0  0  0  0  0  0  0  0  0  0  0
  186.3660  177.5100  145.2960 C   0  0  0  0  0  3  0  0  0  0  0  0
  185.1640  178.2970  147.3380 C   0  0  0  0  0  1  0  0  0  0  0  0
  185.1780  179.6180  145.2190 C   0  0  0  0  0  3  0  0  0  0  0  0
  185.5760  178.4790  145.9230 C   0  0  0  0  0  0  0  0  0  0  0  0
  185.5670  179.7900  143.8870 C   0  0  0  0  0  3  0  0  0  0  0  0
  192.7240  174.8430  145.7950 C   0  0  0  0  0  2  0  0  0  0  0  0
  193.8120  175.8290  145.3540 C   0  0  1  0  0  3  0  0  0  0  0  0
  194.9390  177.8230  146.0320 O   0  0  0  0  0  1  0  0  0  0  0  0
  194.3540  176.6520  146.5130 C   0  0  0  0  0  2  0  0  0  0  0  0
  194.9040  175.1340  144.6860 N   0  0  0  0  0  2  0  0  0  0  0  0
  195.0800  173.8550  145.3550 C   0  0  0  0  0  2  0  0  0  0  0  0
  196.4480  173.7990  146.0040 C   0  0  0  0  0  1  0  0  0  0  0  0
  1 20  1  0  0  0  0
  1 13  1  0  0  0  0
  2  5  1  0  0  0  0
  3 15  1  0  0  0  0
  4 18  1  0  0  0  0
  4  6  1  0  0  0  0
  5 17  1  0  0  0  0
  5  7  1  0  0  0  0
  6  2  1  0  0  0  0
  6  9  1  0  0  0  0
  7  3  1  0  0  0  0
  8 12  1  0  0  0  0
  8  4  1  0  0  0  0
  9 13  1  0  0  0  0
  9 17  1  0  0  0  0
 10  1  1  0  0  0  0
 11 16  1  0  0  0  0
 11 23  1  0  0  0  0
 12 16  1  0  0  0  0
 15 21  1  0  0  0  0
 15 14  1  0  0  0  0
 16  2  1  0  0  0  0
 17 22  1  0  0  0  0
 18  1  1  0  0  0  0
 19 25  1  0  0  0  0
 19  7  1  0  0  0  0
 21 14  1  0  0  0  0
 22 31  1  0  0  0  0
 22 21  1  0  0  0  0
 23 19  1  0  0  0  0
 24 30  2  0  0  0  0
 24 25  1  0  0  0  0
 25 26  2  0  0  0  0
 26 29  1  0  0  0  0
 28 29  2  0  0  0  0
 29 27  1  0  0  0  0
 30 28  1  0  0  0  0
 32 31  1  0  0  0  0
 32 34  1  0  0  0  0
 33 34  1  0  0  0  0
 35 32  1  0  0  0  0
 35 36  1  0  0  0  0
 36 37  1  0  0  0  0
M  END
>  <MODEL>
4

>  <REMARK>
 VINA RESULT:      -7.7      2.065      5.501
  Name = 
  6 active torsions:
  status: ('A' for Active; 'I' for Inactive)
    1  A    between atoms: C_1  and  CA_4
    2  A    between atoms: C_1  and  C_27
    3  A    between atoms: CA_4  and  N_12
    4  A    between atoms: CA_4  and  C_37
    5  A    between atoms: C_8  and  N_12
    6  A    between atoms: C_23  and  C_30
                            x       y       z     vdW  Elec       q    Type
                         _______ _______ _______ _____ _____    ______ ____

>  <TORSDO>
F 6

$$$$
=
 OpenBabel11112417283D

 37 43  0  0  1  0  0  0  0  0999 V2000
  194.1020  173.8960  142.6200 C   0  0  0  0  0  0  0  0  0  0  0  0
  191.0310  175.0550  144.6330 N   0  0  1  0  0  0  0  0  0  0  0  0
  188.0050  174.9560  143.3580 O   0  0  0  0  0  0  0  0  0  0  0  0
  193.3030  173.8410  144.7810 C   0  0  2  0  0  3  0  0  0  0  0  0
  190.3790  175.3210  143.3360 C   0  0  2  0  0  3  0  0  0  0  0  0
  191.8260  173.8370  144.3450 C   0  0  2  0  0  3  0  0  0  0  0  0
  188.9870  175.9540  143.4480 C   0  0  2  0  0  3  0  0  0  0  0  0
  193.3820  174.4810  146.1440 C   0  0  0  0  0  2  0  0  0  0  0  0
  191.6160  173.4690  142.8840 C   0  0  2  0  0  3  0  0  0  0  0  0
  194.4180  172.5480  142.7240 F   0  0  0  0  0  0  0  0  0  0  0  0
  190.9820  177.3220  145.6610 C   0  0  0  0  0  2  0  0  0  0  0  0
  192.9170  175.9300  146.0800 C   0  0  0  0  0  2  0  0  0  0  0  0
  192.7230  174.0780  141.9990 C   0  0  0  0  0  2  0  0  0  0  0  0
  188.0040  175.7620  140.9310 C   0  0  0  0  0  2  0  0  0  0  0  0
  187.4360  174.8940  142.0540 C   0  0  1  0  0  3  0  0  0  0  0  0
  191.8450  176.2340  145.0160 C   0  0  1  0  0  3  0  0  0  0  0  0
  190.3050  174.0510  142.6070 N   0  0  2  0  0  0  0  0  0  0  0  0
  194.1400  174.5320  143.8770 O   0  0  0  0  0  0  0  0  0  0  0  0
  188.7680  176.8620  144.6550 C   0  0  1  0  0  3  0  0  0  0  0  0
  195.0310  174.4970  141.7930 F   0  0  0  0  0  0  0  0  0  0  0  0
  188.3950  174.2960  140.9980 C   0  0  2  0  0  3  0  0  0  0  0  0
  189.9300  174.2590  141.1920 C   0  0  2  0  0  3  0  0  0  0  0  0
  189.8950  177.8750  144.7620 C   0  0  0  0  0  2  0  0  0  0  0  0
  187.1580  178.3360  143.4370 C   0  0  0  0  0  3  0  0  0  0  0  0
  187.4460  177.5630  144.5680 C   0  0  0  0  0  0  0  0  0  0  0  0
  186.5020  177.4690  145.6030 C   0  0  0  0  0  3  0  0  0  0  0  0
  184.2850  178.0400  146.5990 C   0  0  0  0  0  1  0  0  0  0  0  0
  184.9980  178.9110  144.3700 C   0  0  0  0  0  3  0  0  0  0  0  0
  185.2800  178.1420  145.5020 C   0  0  0  0  0  0  0  0  0  0  0  0
  185.9360  179.0070  143.3380 C   0  0  0  0  0  3  0  0  0  0  0  0
  190.4550  173.1350  140.2850 C   0  0  0  0  0  2  0  0  0  0  0  0
  189.7390  173.0610  138.9320 C   0  0  1  0  0  3  0  0  0  0  0  0
  191.8710  173.8790  138.2290 O   0  0  0  0  0  1  0  0  0  0  0  0
  190.5550  173.6840  137.8090 C   0  0  0  0  0  2  0  0  0  0  0  0
  189.4020  171.6850  138.5950 N   0  0  0  0  0  2  0  0  0  0  0  0
  190.3370  170.8230  139.3020 C   0  0  0  0  0  2  0  0  0  0  0  0
  190.9750  169.8520  138.3300 C   0  0  0  0  0  1  0  0  0  0  0  0
  1 10  1  0  0  0  0
  1 18  1  0  0  0  0
  2 16  1  0  0  0  0
  3  7  1  0  0  0  0
  4  8  1  0  0  0  0
  5  7  1  0  0  0  0
  5  2  1  0  0  0  0
  6  2  1  0  0  0  0
  6  4  1  0  0  0  0
  7 19  1  0  0  0  0
  9  6  1  0  0  0  0
 12  8  1  0  0  0  0
 13  1  1  0  0  0  0
 13  9  1  0  0  0  0
 14 21  1  0  0  0  0
 14 15  1  0  0  0  0
 15  3  1  0  0  0  0
 16 11  1  0  0  0  0
 16 12  1  0  0  0  0
 17  9  1  0  0  0  0
 17  5  1  0  0  0  0
 18  4  1  0  0  0  0
 19 23  1  0  0  0  0
 20  1  1  0  0  0  0
 21 22  1  0  0  0  0
 21 15  1  0  0  0  0
 22 17  1  0  0  0  0
 23 11  1  0  0  0  0
 24 25  1  0  0  0  0
 25 19  1  0  0  0  0
 25 26  2  0  0  0  0
 28 29  2  0  0  0  0
 29 26  1  0  0  0  0
 29 27  1  0  0  0  0
 30 24  2  0  0  0  0
 30 28  1  0  0  0  0
 31 22  1  0  0  0  0
 32 31  1  0  0  0  0
 34 33  1  0  0  0  0
 34 32  1  0  0  0  0
 35 32  1  0  0  0  0
 35 36  1  0  0  0  0
 37 36  1  0  0  0  0
M  END
>  <MODEL>
5

>  <REMARK>
 VINA RESULT:      -7.6      1.046      1.457
  Name = 
  6 active torsions:
  status: ('A' for Active; 'I' for Inactive)
    1  A    between atoms: C_1  and  CA_4
    2  A    between atoms: C_1  and  C_27
    3  A    between atoms: CA_4  and  N_12
    4  A    between atoms: CA_4  and  C_37
    5  A    between atoms: C_8  and  N_12
    6  A    between atoms: C_23  and  C_30
                            x       y       z     vdW  Elec       q    Type
                         _______ _______ _______ _____ _____    ______ ____

>  <TORSDO>
F 6

$$$$
=
 OpenBabel11112417283D

 37 43  0  0  1  0  0  0  0  0999 V2000
  187.8630  176.3690  141.5930 C   0  0  0  0  0  0  0  0  0  0  0  0
  190.4270  173.7800  142.8390 N   0  0  1  0  0  0  0  0  0  0  0  0
  191.9870  174.1510  145.7050 O   0  0  0  0  0  0  0  0  0  0  0  0
  188.1860  174.0870  141.5960 C   0  0  2  0  0  3  0  0  0  0  0  0
  191.0320  174.8730  143.6230 C   0  0  2  0  0  3  0  0  0  0  0  0
  188.9800  174.0970  142.9160 C   0  0  2  0  0  3  0  0  0  0  0  0
  192.3060  174.4760  144.3780 C   0  0  2  0  0  3  0  0  0  0  0  0
  188.6500  172.9030  140.7850 C   0  0  0  0  0  2  0  0  0  0  0  0
  188.8190  175.3770  143.7220 C   0  0  2  0  0  3  0  0  0  0  0  0
  186.5520  176.1630  142.0000 F   0  0  0  0  0  0  0  0  0  0  0  0
  192.3440  173.1120  141.3970 C   0  0  0  0  0  2  0  0  0  0  0  0
  190.1250  173.0440  140.4340 C   0  0  0  0  0  2  0  0  0  0  0  0
  188.7680  176.6080  142.7940 C   0  0  0  0  0  2  0  0  0  0  0  0
  192.7330  176.5730  146.0390 C   0  0  0  0  0  2  0  0  0  0  0  0
  192.2720  175.2270  146.5940 C   0  0  1  0  0  3  0  0  0  0  0  0
  190.9810  173.8060  141.4620 C   0  0  1  0  0  3  0  0  0  0  0  0
  190.0170  175.3640  144.5590 N   0  0  2  0  0  0  0  0  0  0  0  0
  188.3490  175.2740  140.8480 O   0  0  0  0  0  0  0  0  0  0  0  0
  193.1600  173.3980  143.7160 C   0  0  1  0  0  3  0  0  0  0  0  0
  187.8980  177.4950  140.7940 F   0  0  0  0  0  0  0  0  0  0  0  0
  191.2830  176.4070  146.4580 C   0  0  2  0  0  3  0  0  0  0  0  0
  190.4290  176.6380  145.1870 C   0  0  2  0  0  3  0  0  0  0  0  0
  193.4140  173.7490  142.2600 C   0  0  0  0  0  2  0  0  0  0  0  0
  195.3080  174.3210  144.6010 C   0  0  0  0  0  3  0  0  0  0  0  0
  194.4590  173.2190  144.4420 C   0  0  0  0  0  0  0  0  0  0  0  0
  194.8440  171.9680  144.9510 C   0  0  0  0  0  3  0  0  0  0  0  0
  196.4690  170.5010  146.1510 C   0  0  0  0  0  1  0  0  0  0  0  0
  196.9080  172.9300  145.7710 C   0  0  0  0  0  3  0  0  0  0  0  0
  196.0660  171.8260  145.6140 C   0  0  0  0  0  0  0  0  0  0  0  0
  196.5300  174.1770  145.2650 C   0  0  0  0  0  3  0  0  0  0  0  0
  189.2220  177.4830  145.6230 C   0  0  0  0  0  2  0  0  0  0  0  0
  188.6750  177.0960  147.0020 C   0  0  1  0  0  3  0  0  0  0  0  0
  189.6460  178.7620  148.4110 O   0  0  0  0  0  1  0  0  0  0  0  0
  188.4350  178.3060  147.8920 C   0  0  0  0  0  2  0  0  0  0  0  0
  187.4480  176.3210  146.8760 N   0  0  0  0  0  2  0  0  0  0  0  0
  186.3450  177.1870  147.2600 C   0  0  0  0  0  2  0  0  0  0  0  0
  185.2520  177.1210  146.2140 C   0  0  0  0  0  1  0  0  0  0  0  0
  1 10  1  0  0  0  0
  1 13  1  0  0  0  0
  2  6  1  0  0  0  0
  2  5  1  0  0  0  0
  3 15  1  0  0  0  0
  4  6  1  0  0  0  0
  5  7  1  0  0  0  0
  5 17  1  0  0  0  0
  6  9  1  0  0  0  0
  7  3  1  0  0  0  0
  8  4  1  0  0  0  0
  9 17  1  0  0  0  0
 11 16  1  0  0  0  0
 11 23  1  0  0  0  0
 12  8  1  0  0  0  0
 12 16  1  0  0  0  0
 13  9  1  0  0  0  0
 14 21  1  0  0  0  0
 14 15  1  0  0  0  0
 16  2  1  0  0  0  0
 17 22  1  0  0  0  0
 18  1  1  0  0  0  0
 18  4  1  0  0  0  0
 19  7  1  0  0  0  0
 19 25  1  0  0  0  0
 20  1  1  0  0  0  0
 21 15  1  0  0  0  0
 22 31  1  0  0  0  0
 22 21  1  0  0  0  0
 23 19  1  0  0  0  0
 24 30  1  0  0  0  0
 25 24  2  0  0  0  0
 25 26  1  0  0  0  0
 26 29  2  0  0  0  0
 29 28  1  0  0  0  0
 29 27  1  0  0  0  0
 30 28  2  0  0  0  0
 31 32  1  0  0  0  0
 32 34  1  0  0  0  0
 34 33  1  0  0  0  0
 35 32  1  0  0  0  0
 35 36  1  0  0  0  0
 37 36  1  0  0  0  0
M  END
>  <MODEL>
6

>  <REMARK>
 VINA RESULT:      -7.5      2.850      7.956
  Name = 
  6 active torsions:
  status: ('A' for Active; 'I' for Inactive)
    1  A    between atoms: C_1  and  CA_4
    2  A    between atoms: C_1  and  C_27
    3  A    between atoms: CA_4  and  N_12
    4  A    between atoms: CA_4  and  C_37
    5  A    between atoms: C_8  and  N_12
    6  A    between atoms: C_23  and  C_30
                            x       y       z     vdW  Elec       q    Type
                         _______ _______ _______ _____ _____    ______ ____

>  <TORSDO>
F 6

$$$$
=
 OpenBabel11112417283D

 37 43  0  0  1  0  0  0  0  0999 V2000
  194.5730  173.1520  142.5680 C   0  0  0  0  0  0  0  0  0  0  0  0
  191.7460  175.0630  144.3520 N   0  0  1  0  0  0  0  0  0  0  0  0
  188.6070  174.7290  143.4420 O   0  0  0  0  0  0  0  0  0  0  0  0
  193.9910  173.8360  144.6900 C   0  0  2  0  0  3  0  0  0  0  0  0
  190.9760  174.9360  143.1000 C   0  0  2  0  0  3  0  0  0  0  0  0
  192.4780  173.7740  144.4070 C   0  0  2  0  0  3  0  0  0  0  0  0
  189.6180  175.6480  143.1200 C   0  0  2  0  0  3  0  0  0  0  0  0
  194.2200  174.8730  145.7610 C   0  0  0  0  0  2  0  0  0  0  0  0
  192.1150  172.9710  143.1670 C   0  0  2  0  0  3  0  0  0  0  0  0
  194.8640  171.8930  143.0750 F   0  0  0  0  0  0  0  0  0  0  0  0
  191.8560  177.5390  144.5910 C   0  0  0  0  0  2  0  0  0  0  0  0
  193.7870  176.2490  145.2710 C   0  0  0  0  0  2  0  0  0  0  0  0
  193.1450  173.2020  142.0420 C   0  0  0  0  0  2  0  0  0  0  0  0
  188.3860  174.7150  140.8950 C   0  0  0  0  0  2  0  0  0  0  0  0
  187.9100  174.2850  142.2820 C   0  0  1  0  0  3  0  0  0  0  0  0
  192.6240  176.2560  144.2620 C   0  0  1  0  0  3  0  0  0  0  0  0
  190.7980  173.5050  142.8310 N   0  0  2  0  0  0  0  0  0  0  0  0
  194.7520  174.1540  143.5430 O   0  0  0  0  0  0  0  0  0  0  0  0
  189.5420  176.9040  143.9820 C   0  0  1  0  0  3  0  0  0  0  0  0
  195.4300  173.4040  141.5150 F   0  0  0  0  0  0  0  0  0  0  0  0
  188.7450  173.3280  141.3990 C   0  0  2  0  0  3  0  0  0  0  0  0
  190.2900  173.2700  141.4620 C   0  0  2  0  0  3  0  0  0  0  0  0
  190.6990  177.8350  143.6580 C   0  0  0  0  0  2  0  0  0  0  0  0
  187.8520  177.9900  142.4940 C   0  0  0  0  0  3  0  0  0  0  0  0
  188.2360  177.6130  143.7860 C   0  0  0  0  0  0  0  0  0  0  0  0
  187.4010  177.9160  144.8740 C   0  0  0  0  0  3  0  0  0  0  0  0
  185.3130  178.9060  145.8180 C   0  0  0  0  0  1  0  0  0  0  0  0
  185.8140  178.9600  143.3720 C   0  0  0  0  0  3  0  0  0  0  0  0
  186.1930  178.5870  144.6650 C   0  0  0  0  0  0  0  0  0  0  0  0
  186.6430  178.6610  142.2870 C   0  0  0  0  0  3  0  0  0  0  0  0
  190.6950  171.8870  140.9270 C   0  0  0  0  0  2  0  0  0  0  0  0
  191.0210  171.8870  139.4290 C   0  0  1  0  0  3  0  0  0  0  0  0
  190.0830  169.7670  138.8520 O   0  0  0  0  0  1  0  0  0  0  0  0
  189.9810  171.1370  138.6090 C   0  0  0  0  0  2  0  0  0  0  0  0
  191.1610  173.2470  138.9270 N   0  0  0  0  0  2  0  0  0  0  0  0
  190.2170  173.4070  137.8320 C   0  0  0  0  0  2  0  0  0  0  0  0
  190.8780  174.1470  136.6880 C   0  0  0  0  0  1  0  0  0  0  0  0
  1 10  1  0  0  0  0
  1 18  1  0  0  0  0
  2  6  1  0  0  0  0
  4  8  1  0  0  0  0
  5  7  1  0  0  0  0
  5  2  1  0  0  0  0
  6  4  1  0  0  0  0
  7  3  1  0  0  0  0
  7 19  1  0  0  0  0
  9  6  1  0  0  0  0
 12  8  1  0  0  0  0
 13  1  1  0  0  0  0
 13  9  1  0  0  0  0
 14 21  1  0  0  0  0
 14 15  1  0  0  0  0
 15  3  1  0  0  0  0
 16  2  1  0  0  0  0
 16 11  1  0  0  0  0
 16 12  1  0  0  0  0
 17  5  1  0  0  0  0
 17  9  1  0  0  0  0
 18  4  1  0  0  0  0
 20  1  1  0  0  0  0
 21 22  1  0  0  0  0
 21 15  1  0  0  0  0
 22 17  1  0  0  0  0
 23 19  1  0  0  0  0
 23 11  1  0  0  0  0
 24 25  1  0  0  0  0
 25 19  1  0  0  0  0
 25 26  2  0  0  0  0
 28 29  2  0  0  0  0
 29 26  1  0  0  0  0
 29 27  1  0  0  0  0
 30 24  2  0  0  0  0
 30 28  1  0  0  0  0
 31 22  1  0  0  0  0
 32 31  1  0  0  0  0
 34 33  1  0  0  0  0
 34 32  1  0  0  0  0
 35 32  1  0  0  0  0
 36 35  1  0  0  0  0
 37 36  1  0  0  0  0
M  END
>  <MODEL>
7

>  <REMARK>
 VINA RESULT:      -7.4      1.612      2.165
  Name = 
  6 active torsions:
  status: ('A' for Active; 'I' for Inactive)
    1  A    between atoms: C_1  and  CA_4
    2  A    between atoms: C_1  and  C_27
    3  A    between atoms: CA_4  and  N_12
    4  A    between atoms: CA_4  and  C_37
    5  A    between atoms: C_8  and  N_12
    6  A    between atoms: C_23  and  C_30
                            x       y       z     vdW  Elec       q    Type
                         _______ _______ _______ _____ _____    ______ ____

>  <TORSDO>
F 6

$$$$
=
 OpenBabel11112417283D

 37 43  0  0  1  0  0  0  0  0999 V2000
  187.3700  176.9960  146.8690 C   0  0  0  0  0  0  0  0  0  0  0  0
  190.4470  175.7360  144.9280 N   0  0  1  0  0  0  0  0  0  0  0  0
  190.2680  174.9600  141.7410 O   0  0  0  0  0  0  0  0  0  0  0  0
  189.6410  177.3720  146.7540 C   0  0  2  0  0  3  0  0  0  0  0  0
  189.5010  175.0690  144.0150 C   0  0  2  0  0  3  0  0  0  0  0  0
  189.7330  176.9910  145.2640 C   0  0  2  0  0  3  0  0  0  0  0  0
  190.1670  174.2170  142.9270 C   0  0  2  0  0  3  0  0  0  0  0  0
  190.9760  177.0770  147.3900 C   0  0  0  0  0  2  0  0  0  0  0  0
  188.3910  176.9780  144.5480 C   0  0  2  0  0  3  0  0  0  0  0  0
  187.1630  178.3690  146.8460 F   0  0  0  0  0  0  0  0  0  0  0  0
  191.7530  173.7880  145.7650 C   0  0  0  0  0  2  0  0  0  0  0  0
  191.2860  175.5880  147.3130 C   0  0  0  0  0  2  0  0  0  0  0  0
  187.2840  176.4160  145.4630 C   0  0  0  0  0  2  0  0  0  0  0  0
  188.1300  173.6530  141.2330 C   0  0  0  0  0  2  0  0  0  0  0  0
  189.2380  174.6190  140.8180 C   0  0  1  0  0  3  0  0  0  0  0  0
  190.7030  174.8530  146.0920 C   0  0  1  0  0  3  0  0  0  0  0  0
  188.6620  176.1060  143.4070 N   0  0  2  0  0  0  0  0  0  0  0  0
  188.6200  176.6730  147.4370 O   0  0  0  0  0  0  0  0  0  0  0  0
  191.4970  173.5740  143.3120 C   0  0  1  0  0  3  0  0  0  0  0  0
  186.3760  176.4200  147.6350 F   0  0  0  0  0  0  0  0  0  0  0  0
  187.8460  175.1440  141.2380 C   0  0  2  0  0  3  0  0  0  0  0  0
  187.5020  175.5210  142.7000 C   0  0  2  0  0  3  0  0  0  0  0  0
  191.3650  172.8490  144.6400 C   0  0  0  0  0  2  0  0  0  0  0  0
  191.1770  171.5140  141.9330 C   0  0  0  0  0  3  0  0  0  0  0  0
  191.9640  172.6280  142.2480 C   0  0  0  0  0  0  0  0  0  0  0  0
  193.1800  172.8310  141.5750 C   0  0  0  0  0  3  0  0  0  0  0  0
  194.8850  172.1460  139.8850 C   0  0  0  0  0  1  0  0  0  0  0  0
  192.8070  170.8180  140.2820 C   0  0  0  0  0  3  0  0  0  0  0  0
  193.5980  171.9270  140.5940 C   0  0  0  0  0  0  0  0  0  0  0  0
  191.5980  170.6120  140.9510 C   0  0  0  0  0  3  0  0  0  0  0  0
  186.3170  176.4970  142.6300 C   0  0  0  0  0  2  0  0  0  0  0  0
  186.5680  177.6900  141.7000 C   0  0  1  0  0  3  0  0  0  0  0  0
  186.3040  177.5360  139.3310 O   0  0  0  0  0  1  0  0  0  0  0  0
  185.6040  177.7220  140.5240 C   0  0  0  0  0  2  0  0  0  0  0  0
  186.4950  178.9460  142.4350 N   0  0  0  0  0  2  0  0  0  0  0  0
  185.2920  178.9030  143.2510 C   0  0  0  0  0  2  0  0  0  0  0  0
  185.4670  179.7850  144.4710 C   0  0  0  0  0  1  0  0  0  0  0  0
  1 18  1  0  0  0  0
  1 20  1  0  0  0  0
  2  6  1  0  0  0  0
  2 16  1  0  0  0  0
  3  7  1  0  0  0  0
  4  8  1  0  0  0  0
  4 18  1  0  0  0  0
  5  2  1  0  0  0  0
  6  4  1  0  0  0  0
  7 19  1  0  0  0  0
  7  5  1  0  0  0  0
  9  6  1  0  0  0  0
  9 13  1  0  0  0  0
 10  1  1  0  0  0  0
 11 16  1  0  0  0  0
 12  8  1  0  0  0  0
 13  1  1  0  0  0  0
 14 21  1  0  0  0  0
 15 14  1  0  0  0  0
 15 21  1  0  0  0  0
 15  3  1  0  0  0  0
 16 12  1  0  0  0  0
 17  5  1  0  0  0  0
 17  9  1  0  0  0  0
 19 23  1  0  0  0  0
 21 22  1  0  0  0  0
 22 17  1  0  0  0  0
 23 11  1  0  0  0  0
 24 25  1  0  0  0  0
 25 19  1  0  0  0  0
 26 25  2  0  0  0  0
 27 29  1  0  0  0  0
 28 29  2  0  0  0  0
 28 30  1  0  0  0  0
 29 26  1  0  0  0  0
 30 24  2  0  0  0  0
 31 22  1  0  0  0  0
 32 35  1  0  0  0  0
 32 31  1  0  0  0  0
 33 34  1  0  0  0  0
 34 32  1  0  0  0  0
 35 36  1  0  0  0  0
 36 37  1  0  0  0  0
M  END
>  <MODEL>
8

>  <REMARK>
 VINA RESULT:      -7.2      3.233      6.926
  Name = 
  6 active torsions:
  status: ('A' for Active; 'I' for Inactive)
    1  A    between atoms: C_1  and  CA_4
    2  A    between atoms: C_1  and  C_27
    3  A    between atoms: CA_4  and  N_12
    4  A    between atoms: CA_4  and  C_37
    5  A    between atoms: C_8  and  N_12
    6  A    between atoms: C_23  and  C_30
                            x       y       z     vdW  Elec       q    Type
                         _______ _______ _______ _____ _____    ______ ____

>  <TORSDO>
F 6

$$$$
=
 OpenBabel11112417283D

 37 43  0  0  1  0  0  0  0  0999 V2000
  192.1100  171.6650  141.7070 C   0  0  0  0  0  0  0  0  0  0  0  0
  189.9110  174.8260  141.6920 N   0  0  1  0  0  0  0  0  0  0  0  0
  190.0680  177.0380  144.1160 O   0  0  0  0  0  0  0  0  0  0  0  0
  191.2750  173.2100  140.2140 C   0  0  2  0  0  3  0  0  0  0  0  0
  190.0490  174.8340  143.1610 C   0  0  2  0  0  3  0  0  0  0  0  0
  191.2430  174.3480  141.2510 C   0  0  2  0  0  3  0  0  0  0  0  0
  189.2420  175.9310  143.8650 C   0  0  2  0  0  3  0  0  0  0  0  0
  190.2020  173.4850  139.1910 C   0  0  0  0  0  2  0  0  0  0  0  0
  192.0830  174.0770  142.4900 C   0  0  2  0  0  3  0  0  0  0  0  0
  193.3580  171.7960  141.1130 F   0  0  0  0  0  0  0  0  0  0  0  0
  187.4400  174.6400  141.4490 C   0  0  0  0  0  2  0  0  0  0  0  0
  188.8270  173.4730  139.8460 C   0  0  0  0  0  2  0  0  0  0  0  0
  191.9860  172.5950  142.9060 C   0  0  0  0  0  2  0  0  0  0  0  0
  190.2000  175.8930  146.3980 C   0  0  0  0  0  2  0  0  0  0  0  0
  190.5210  177.0600  145.4660 C   0  0  1  0  0  3  0  0  0  0  0  0
  188.7900  173.9300  141.3160 C   0  0  1  0  0  3  0  0  0  0  0  0
  191.4750  174.9700  143.4730 N   0  0  2  0  0  0  0  0  0  0  0  0
  191.0720  171.9360  140.7910 O   0  0  0  0  0  0  0  0  0  0  0  0
  187.9390  176.3360  143.1810 C   0  0  1  0  0  3  0  0  0  0  0  0
  191.9750  170.3650  142.1530 F   0  0  0  0  0  0  0  0  0  0  0  0
  191.5810  175.9750  145.7700 C   0  0  2  0  0  3  0  0  0  0  0  0
  191.7450  174.7030  144.9030 C   0  0  2  0  0  3  0  0  0  0  0  0
  187.1120  175.1050  142.8540 C   0  0  0  0  0  2  0  0  0  0  0  0
  186.6720  178.4700  143.4840 C   0  0  0  0  0  3  0  0  0  0  0  0
  187.1500  177.2780  144.0400 C   0  0  0  0  0  0  0  0  0  0  0  0
  186.8950  176.9920  145.3910 C   0  0  0  0  0  3  0  0  0  0  0  0
  185.9000  177.5860  147.6020 C   0  0  0  0  0  1  0  0  0  0  0  0
  185.6910  179.0800  145.6120 C   0  0  0  0  0  3  0  0  0  0  0  0
  186.1660  177.8920  146.1730 C   0  0  0  0  0  0  0  0  0  0  0  0
  185.9430  179.3690  144.2680 C   0  0  0  0  0  3  0  0  0  0  0  0
  193.1800  174.2030  145.1340 C   0  0  0  0  0  2  0  0  0  0  0  0
  194.1980  175.3360  145.3080 C   0  0  1  0  0  3  0  0  0  0  0  0
  195.8400  173.6560  145.7440 O   0  0  0  0  0  1  0  0  0  0  0  0
  195.3950  174.9160  146.1460 C   0  0  0  0  0  2  0  0  0  0  0  0
  194.6470  175.8330  144.0150 N   0  0  0  0  0  2  0  0  0  0  0  0
  195.7150  176.7890  144.2630 C   0  0  0  0  0  2  0  0  0  0  0  0
  196.7470  176.7050  143.1580 C   0  0  0  0  0  1  0  0  0  0  0  0
  1 20  1  0  0  0  0
  1 13  1  0  0  0  0
  2  5  1  0  0  0  0
  3 15  1  0  0  0  0
  4 18  1  0  0  0  0
  4  6  1  0  0  0  0
  5 17  1  0  0  0  0
  5  7  1  0  0  0  0
  6  2  1  0  0  0  0
  6  9  1  0  0  0  0
  7  3  1  0  0  0  0
  8 12  1  0  0  0  0
  8  4  1  0  0  0  0
  9 13  1  0  0  0  0
  9 17  1  0  0  0  0
 10  1  1  0  0  0  0
 11 23  1  0  0  0  0
 12 16  1  0  0  0  0
 15 21  1  0  0  0  0
 15 14  1  0  0  0  0
 16 11  1  0  0  0  0
 16  2  1  0  0  0  0
 17 22  1  0  0  0  0
 18  1  1  0  0  0  0
 19  7  1  0  0  0  0
 19 25  1  0  0  0  0
 21 14  1  0  0  0  0
 22 31  1  0  0  0  0
 22 21  1  0  0  0  0
 23 19  1  0  0  0  0
 24 25  2  0  0  0  0
 24 30  1  0  0  0  0
 25 26  1  0  0  0  0
 26 29  2  0  0  0  0
 28 29  1  0  0  0  0
 29 27  1  0  0  0  0
 30 28  2  0  0  0  0
 31 32  1  0  0  0  0
 32 34  1  0  0  0  0
 33 34  1  0  0  0  0
 35 36  1  0  0  0  0
 35 32  1  0  0  0  0
 37 36  1  0  0  0  0
M  END
>  <MODEL>
9

>  <REMARK>
 VINA RESULT:      -7.1      1.884      5.536
  Name = 
  6 active torsions:
  status: ('A' for Active; 'I' for Inactive)
    1  A    between atoms: C_1  and  CA_4
    2  A    between atoms: C_1  and  C_27
    3  A    between atoms: CA_4  and  N_12
    4  A    between atoms: CA_4  and  C_37
    5  A    between atoms: C_8  and  N_12
    6  A    between atoms: C_23  and  C_30
                            x       y       z     vdW  Elec       q    Type
                         _______ _______ _______ _____ _____    ______ ____

>  <TORSDO>
F 6

$$$$
