=
 OpenBabel11112416593D

 31 35  0  0  1  0  0  0  0  0999 V2000
  185.4220  177.6970  141.2390 C   0  0  0  0  0  0  0  0  0  0  0  0
  187.4330  176.6340  144.1660 C   0  0  0  0  0  0  0  0  0  0  0  0
  186.6260  176.9230  145.3100 C   0  0  0  0  0  0  0  0  0  0  0  0
  184.9410  178.5210  146.2180 C   0  0  1  0  0  3  0  0  0  0  0  0
  186.9950  176.7730  142.8780 C   0  0  2  0  0  3  0  0  0  0  0  0
  186.4500  177.5550  140.1920 C   0  0  0  0  0  3  0  0  0  0  0  0
  185.1870  177.3630  145.2490 C   0  0  0  0  0  2  0  0  0  0  0  0
  189.6380  176.0040  143.3800 C   0  0  2  0  0  3  0  0  0  0  0  0
  184.1830  178.2340  140.9180 O   0  0  0  0  0  1  0  0  0  0  0  0
  188.4180  176.2860  146.7680 N   0  0  0  0  0  0  0  0  0  0  0  0
  183.4640  178.8490  146.2610 C   0  0  0  0  0  1  0  0  0  0  0  0
  189.2090  176.1980  142.0660 O   0  0  0  0  0  0  0  0  0  0  0  0
  188.7750  176.1980  144.3990 C   0  0  0  0  0  0  0  0  0  0  0  0
  185.6840  177.3510  142.5010 C   0  0  0  0  0  3  0  0  0  0  0  0
  185.4620  178.2630  147.6430 C   0  0  0  0  0  2  0  0  0  0  0  0
  187.8270  176.2100  141.7440 C   0  0  2  0  0  3  0  0  0  0  0  0
  187.5910  176.9060  140.4310 C   0  0  0  0  0  3  0  0  0  0  0  0
  189.2260  176.0270  145.7150 C   0  0  0  0  0  3  0  0  0  0  0  0
  187.1540  176.7350  146.5990 C   0  0  0  0  0  0  0  0  0  0  0  0
  186.2900  176.9800  147.7980 C   0  0  0  0  0  2  0  0  0  0  0  0
  191.8590  177.7950  143.8720 O   0  0  0  0  0  0  0  0  0  0  0  0
  192.0780  176.5530  143.8820 C   0  0  0  0  0  0  0  0  0  0  0  0
  191.0020  175.6360  143.6380 N   0  0  0  0  0  2  0  0  0  0  0  0
  196.0550  175.0280  144.4850 C   0  0  0  0  0  0  0  0  0  0  0  0
  194.2960  175.8400  143.0420 C   0  0  0  0  0  3  0  0  0  0  0  0
  193.1010  175.8540  146.6710 C   0  0  0  0  0  1  0  0  0  0  0  0
  197.3410  174.5370  144.6550 O   0  0  0  0  0  1  0  0  0  0  0  0
  195.5920  175.3470  143.2100 C   0  0  0  0  0  3  0  0  0  0  0  0
  193.9230  175.6970  145.4370 C   0  0  0  0  0  0  0  0  0  0  0  0
  193.4420  176.0240  144.1420 C   0  0  0  0  0  0  0  0  0  0  0  0
  195.2230  175.2030  145.5920 C   0  0  0  0  0  3  0  0  0  0  0  0
  1 14  2  0  0  0  0
  2 13  2  0  0  0  0
  2  3  1  0  0  0  0
  3 19  2  0  0  0  0
  4 11  1  1  0  0  0
  4 15  1  0  0  0  0
  5 14  1  1  0  0  0
  5  2  1  0  0  0  0
  6 17  2  0  0  0  0
  6  1  1  0  0  0  0
  7  3  1  0  0  0  0
  7  4  1  0  0  0  0
  8 23  1  1  0  0  0
  8 13  1  0  0  0  0
  9  1  1  0  0  0  0
 12  8  1  0  0  0  0
 13 18  1  0  0  0  0
 15 20  1  0  0  0  0
 16 17  1  6  0  0  0
 16 12  1  0  0  0  0
 16  5  1  0  0  0  0
 18 10  2  0  0  0  0
 19 10  1  0  0  0  0
 19 20  1  0  0  0  0
 21 22  2  0  0  0  0
 22 30  1  0  0  0  0
 23 22  1  0  0  0  0
 24 27  1  0  0  0  0
 24 31  1  0  0  0  0
 25 28  1  0  0  0  0
 25 30  2  0  0  0  0
 28 24  2  0  0  0  0
 29 31  2  0  0  0  0
 29 26  1  0  0  0  0
 30 29  1  0  0  0  0
M  END
>  <MODEL>
1

>  <REMARK>
 VINA RESULT:      -9.3      0.000      0.000
  Name = 
  2 active torsions:
  status: ('A' for Active; 'I' for Inactive)
    1  A    between atoms: C_5  and  C_30
    2  A    between atoms: C_10  and  N_16
                            x       y       z     vdW  Elec       q    Type
                         _______ _______ _______ _____ _____    ______ ____

>  <TORSDO>
F 2

$$$$
=
 OpenBabel11112416593D

 31 35  0  0  1  0  0  0  0  0999 V2000
  184.6500  178.3860  146.4570 C   0  0  0  0  0  0  0  0  0  0  0  0
  187.4020  177.9110  144.0190 C   0  0  0  0  0  0  0  0  0  0  0  0
  186.8060  178.0840  142.7310 C   0  0  0  0  0  0  0  0  0  0  0  0
  184.7100  177.7220  141.4320 C   0  0  1  0  0  3  0  0  0  0  0  0
  186.7360  178.1260  145.1940 C   0  0  2  0  0  3  0  0  0  0  0  0
  185.3530  177.9600  147.6810 C   0  0  0  0  0  3  0  0  0  0  0  0
  185.4000  178.5700  142.5010 C   0  0  0  0  0  2  0  0  0  0  0  0
  189.3700  177.1800  145.2330 C   0  0  2  0  0  3  0  0  0  0  0  0
  183.2980  178.6910  146.5120 O   0  0  0  0  0  1  0  0  0  0  0  0
  188.8660  177.4740  141.6670 N   0  0  0  0  0  0  0  0  0  0  0  0
  183.3570  178.3140  141.0990 C   0  0  0  0  0  1  0  0  0  0  0  0
  188.6740  177.3460  146.4310 O   0  0  0  0  0  0  0  0  0  0  0  0
  188.7610  177.4690  144.0630 C   0  0  0  0  0  0  0  0  0  0  0  0
  185.2930  178.4440  145.2880 C   0  0  0  0  0  3  0  0  0  0  0  0
  185.5360  177.5470  140.1440 C   0  0  0  0  0  2  0  0  0  0  0  0
  187.5130  178.1600  146.4950 C   0  0  2  0  0  3  0  0  0  0  0  0
  186.6790  177.8070  147.6950 C   0  0  0  0  0  3  0  0  0  0  0  0
  189.4610  177.2710  142.8650 C   0  0  0  0  0  3  0  0  0  0  0  0
  187.5720  177.8570  141.5740 C   0  0  0  0  0  0  0  0  0  0  0  0
  186.9680  178.0950  140.2250 C   0  0  0  0  0  2  0  0  0  0  0  0
  190.3280  174.8640  146.6830 O   0  0  0  0  0  0  0  0  0  0  0  0
  191.1500  175.5130  145.9810 C   0  0  0  0  0  0  0  0  0  0  0  0
  190.7110  176.6680  145.2520 N   0  0  0  0  0  2  0  0  0  0  0  0
  195.3110  174.4360  145.8130 C   0  0  0  0  0  0  0  0  0  0  0  0
  193.5420  175.9570  146.4410 C   0  0  0  0  0  3  0  0  0  0  0  0
  192.0600  172.8960  144.6990 C   0  0  0  0  0  1  0  0  0  0  0  0
  196.6590  174.1110  145.7700 O   0  0  0  0  0  1  0  0  0  0  0  0
  194.9000  175.6320  146.3990 C   0  0  0  0  0  3  0  0  0  0  0  0
  193.0030  173.8810  145.3030 C   0  0  0  0  0  0  0  0  0  0  0  0
  192.5730  175.0960  145.8980 C   0  0  0  0  0  0  0  0  0  0  0  0
  194.3660  173.5660  145.2690 C   0  0  0  0  0  3  0  0  0  0  0  0
  1  9  1  0  0  0  0
  1  6  1  0  0  0  0
  2 13  1  0  0  0  0
  2  5  1  0  0  0  0
  3  2  2  0  0  0  0
  4 11  1  6  0  0  0
  4  7  1  0  0  0  0
  5 14  1  6  0  0  0
  5 16  1  0  0  0  0
  6 17  2  0  0  0  0
  7  3  1  0  0  0  0
  8 23  1  6  0  0  0
  8 12  1  0  0  0  0
 10 18  1  0  0  0  0
 12 16  1  0  0  0  0
 13  8  1  0  0  0  0
 14  1  2  0  0  0  0
 15 20  1  0  0  0  0
 15  4  1  0  0  0  0
 16 17  1  1  0  0  0
 18 13  2  0  0  0  0
 19 10  2  0  0  0  0
 19  3  1  0  0  0  0
 20 19  1  0  0  0  0
 22 21  2  0  0  0  0
 23 22  1  0  0  0  0
 24 28  1  0  0  0  0
 26 29  1  0  0  0  0
 27 24  1  0  0  0  0
 28 25  2  0  0  0  0
 29 30  2  0  0  0  0
 30 22  1  0  0  0  0
 30 25  1  0  0  0  0
 31 29  1  0  0  0  0
 31 24  2  0  0  0  0
M  END
>  <MODEL>
2

>  <REMARK>
 VINA RESULT:      -8.4      2.128      4.304
  Name = 
  2 active torsions:
  status: ('A' for Active; 'I' for Inactive)
    1  A    between atoms: C_5  and  C_30
    2  A    between atoms: C_10  and  N_16
                            x       y       z     vdW  Elec       q    Type
                         _______ _______ _______ _____ _____    ______ ____

>  <TORSDO>
F 2

$$$$
=
 OpenBabel11112416593D

 31 35  0  0  1  0  0  0  0  0999 V2000
  191.3370  176.5760  147.5020 C   0  0  0  0  0  0  0  0  0  0  0  0
  189.1930  176.0960  144.5160 C   0  0  0  0  0  0  0  0  0  0  0  0
  187.9480  176.7210  144.8350 C   0  0  0  0  0  0  0  0  0  0  0  0
  186.3700  177.2000  146.7050 C   0  0  1  0  0  3  0  0  0  0  0  0
  190.2980  176.1590  145.3200 C   0  0  2  0  0  3  0  0  0  0  0  0
  192.4620  175.7030  147.1190 C   0  0  0  0  0  3  0  0  0  0  0  0
  187.7070  177.5660  146.0580 C   0  0  0  0  0  2  0  0  0  0  0  0
  190.3660  174.6430  142.9690 C   0  0  2  0  0  3  0  0  0  0  0  0
  191.3220  177.1650  148.7580 O   0  0  0  0  0  1  0  0  0  0  0  0
  186.9960  175.9330  142.7810 N   0  0  0  0  0  0  0  0  0  0  0  0
  186.0670  178.1570  147.8380 C   0  0  0  0  0  1  0  0  0  0  0  0
  191.4750  174.6610  143.8160 O   0  0  0  0  0  0  0  0  0  0  0  0
  189.2650  175.3510  143.2980 C   0  0  0  0  0  0  0  0  0  0  0  0
  190.3130  176.7720  146.6680 C   0  0  0  0  0  3  0  0  0  0  0  0
  185.1880  177.1650  145.7180 C   0  0  0  0  0  2  0  0  0  0  0  0
  191.6340  175.6820  144.7880 C   0  0  2  0  0  3  0  0  0  0  0  0
  192.5830  175.2450  145.8710 C   0  0  0  0  0  3  0  0  0  0  0  0
  188.1470  175.3020  142.4530 C   0  0  0  0  0  3  0  0  0  0  0  0
  186.8690  176.6190  143.9400 C   0  0  0  0  0  0  0  0  0  0  0  0
  185.5830  177.3240  144.2430 C   0  0  0  0  0  2  0  0  0  0  0  0
  189.5860  171.8650  142.7210 O   0  0  0  0  0  0  0  0  0  0  0  0
  189.9920  172.4670  141.6910 C   0  0  0  0  0  0  0  0  0  0  0  0
  190.3910  173.8420  141.7770 N   0  0  0  0  0  2  0  0  0  0  0  0
  190.3200  170.3560  137.9580 C   0  0  0  0  0  0  0  0  0  0  0  0
  191.0170  170.7430  140.2380 C   0  0  0  0  0  3  0  0  0  0  0  0
  188.1910  173.1460  139.3220 C   0  0  0  0  0  1  0  0  0  0  0  0
  190.4450  169.6610  136.7630 O   0  0  0  0  0  1  0  0  0  0  0  0
  191.1440  170.0420  139.0370 C   0  0  0  0  0  3  0  0  0  0  0  0
  189.2320  172.0790  139.2770 C   0  0  0  0  0  0  0  0  0  0  0  0
  190.0670  171.7680  140.3820 C   0  0  0  0  0  0  0  0  0  0  0  0
  189.3690  171.3690  138.0790 C   0  0  0  0  0  3  0  0  0  0  0  0
  1  9  1  0  0  0  0
  2  3  1  0  0  0  0
  2  5  1  0  0  0  0
  3  7  1  0  0  0  0
  4 11  1  1  0  0  0
  5 14  1  6  0  0  0
  6  1  1  0  0  0  0
  7  4  1  0  0  0  0
  8 23  1  1  0  0  0
  8 13  1  0  0  0  0
  8 12  1  0  0  0  0
 10 19  1  0  0  0  0
 12 16  1  0  0  0  0
 13  2  2  0  0  0  0
 14  1  2  0  0  0  0
 15  4  1  0  0  0  0
 16  5  1  0  0  0  0
 16 17  1  1  0  0  0
 17  6  2  0  0  0  0
 18 10  2  0  0  0  0
 18 13  1  0  0  0  0
 19 20  1  0  0  0  0
 19  3  2  0  0  0  0
 20 15  1  0  0  0  0
 22 23  1  0  0  0  0
 22 21  2  0  0  0  0
 24 31  2  0  0  0  0
 24 28  1  0  0  0  0
 25 30  1  0  0  0  0
 27 24  1  0  0  0  0
 28 25  2  0  0  0  0
 29 26  1  0  0  0  0
 29 30  2  0  0  0  0
 30 22  1  0  0  0  0
 31 29  1  0  0  0  0
M  END
>  <MODEL>
3

>  <REMARK>
 VINA RESULT:      -8.3      3.787      6.311
  Name = 
  2 active torsions:
  status: ('A' for Active; 'I' for Inactive)
    1  A    between atoms: C_5  and  C_30
    2  A    between atoms: C_10  and  N_16
                            x       y       z     vdW  Elec       q    Type
                         _______ _______ _______ _____ _____    ______ ____

>  <TORSDO>
F 2

$$$$
=
 OpenBabel11112416593D

 31 35  0  0  1  0  0  0  0  0999 V2000
  191.2370  173.7210  141.7170 C   0  0  0  0  0  0  0  0  0  0  0  0
  189.1540  176.0500  143.7120 C   0  0  0  0  0  0  0  0  0  0  0  0
  189.8890  176.2860  144.9150 C   0  0  0  0  0  0  0  0  0  0  0  0
  191.4370  175.2230  146.5540 C   0  0  1  0  0  3  0  0  0  0  0  0
  189.6430  175.3320  142.6570 C   0  0  2  0  0  3  0  0  0  0  0  0
  190.2680  173.4040  140.6510 C   0  0  0  0  0  3  0  0  0  0  0  0
  191.3020  175.8250  145.1550 C   0  0  0  0  0  2  0  0  0  0  0  0
  187.0270  176.3220  142.5800 C   0  0  2  0  0  3  0  0  0  0  0  0
  192.4560  173.0610  141.7560 O   0  0  0  0  0  1  0  0  0  0  0  0
  188.0690  177.5660  145.8070 N   0  0  0  0  0  0  0  0  0  0  0  0
  192.8900  174.9060  146.8400 C   0  0  0  0  0  1  0  0  0  0  0  0
  187.5050  175.5420  141.5260 O   0  0  0  0  0  0  0  0  0  0  0  0
  187.8290  176.5840  143.6330 C   0  0  0  0  0  0  0  0  0  0  0  0
  190.9360  174.6080  142.6680 C   0  0  0  0  0  3  0  0  0  0  0  0
  190.8650  176.1130  147.6740 C   0  0  0  0  0  2  0  0  0  0  0  0
  188.8980  175.3450  141.3370 C   0  0  2  0  0  3  0  0  0  0  0  0
  189.1550  174.1250  140.4970 C   0  0  0  0  0  3  0  0  0  0  0  0
  187.3280  177.3440  144.6980 C   0  0  0  0  0  3  0  0  0  0  0  0
  189.3130  177.0520  145.9430 C   0  0  0  0  0  0  0  0  0  0  0  0
  190.1040  177.3510  147.1790 C   0  0  0  0  0  2  0  0  0  0  0  0
  185.9380  178.3440  140.8170 O   0  0  0  0  0  0  0  0  0  0  0  0
  185.1690  177.8090  141.6610 C   0  0  0  0  0  0  0  0  0  0  0  0
  185.6750  176.8060  142.5530 N   0  0  0  0  0  2  0  0  0  0  0  0
  181.0130  178.9110  141.7620 C   0  0  0  0  0  0  0  0  0  0  0  0
  182.9360  178.0160  140.6090 C   0  0  0  0  0  3  0  0  0  0  0  0
  183.9070  179.0050  144.1690 C   0  0  0  0  0  1  0  0  0  0  0  0
  179.6690  179.2600  141.7710 O   0  0  0  0  0  1  0  0  0  0  0  0
  181.5850  178.3650  140.6150 C   0  0  0  0  0  3  0  0  0  0  0  0
  183.1470  178.7620  142.9090 C   0  0  0  0  0  0  0  0  0  0  0  0
  183.7400  178.2050  141.7460 C   0  0  0  0  0  0  0  0  0  0  0  0
  181.7920  179.1080  142.9030 C   0  0  0  0  0  3  0  0  0  0  0  0
  1  9  1  0  0  0  0
  1 14  2  0  0  0  0
  2  3  1  0  0  0  0
  3  7  1  0  0  0  0
  3 19  2  0  0  0  0
  4 11  1  1  0  0  0
  4 15  1  0  0  0  0
  5 14  1  6  0  0  0
  5  2  1  0  0  0  0
  6  1  1  0  0  0  0
  7  4  1  0  0  0  0
  8 23  1  1  0  0  0
  8 13  1  0  0  0  0
 10 19  1  0  0  0  0
 12  8  1  0  0  0  0
 13  2  2  0  0  0  0
 13 18  1  0  0  0  0
 16 17  1  1  0  0  0
 16 12  1  0  0  0  0
 16  5  1  0  0  0  0
 17  6  2  0  0  0  0
 18 10  2  0  0  0  0
 19 20  1  0  0  0  0
 20 15  1  0  0  0  0
 21 22  2  0  0  0  0
 22 30  1  0  0  0  0
 22 23  1  0  0  0  0
 24 27  1  0  0  0  0
 24 31  1  0  0  0  0
 25 28  1  0  0  0  0
 25 30  2  0  0  0  0
 28 24  2  0  0  0  0
 29 26  1  0  0  0  0
 30 29  1  0  0  0  0
 31 29  2  0  0  0  0
M  END
>  <MODEL>
4

>  <REMARK>
 VINA RESULT:      -7.9      2.638      8.301
  Name = 
  2 active torsions:
  status: ('A' for Active; 'I' for Inactive)
    1  A    between atoms: C_5  and  C_30
    2  A    between atoms: C_10  and  N_16
                            x       y       z     vdW  Elec       q    Type
                         _______ _______ _______ _____ _____    ______ ____

>  <TORSDO>
F 2

$$$$
=
 OpenBabel11112416593D

 31 35  0  0  1  0  0  0  0  0999 V2000
  187.3620  176.7560  146.8880 C   0  0  0  0  0  0  0  0  0  0  0  0
  187.6120  176.4880  143.1990 C   0  0  0  0  0  0  0  0  0  0  0  0
  186.5780  177.3300  142.6830 C   0  0  0  0  0  0  0  0  0  0  0  0
  184.2710  178.1640  143.1250 C   0  0  1  0  0  3  0  0  0  0  0  0
  187.9280  176.4060  144.5270 C   0  0  2  0  0  3  0  0  0  0  0  0
  188.3080  175.6870  147.2590 C   0  0  0  0  0  3  0  0  0  0  0  0
  185.7460  178.2660  143.5180 C   0  0  0  0  0  2  0  0  0  0  0  0
  189.2510  174.7800  142.6740 C   0  0  2  0  0  3  0  0  0  0  0  0
  186.6360  177.4040  147.8760 O   0  0  0  0  0  1  0  0  0  0  0  0
  187.0660  176.6070  140.4510 N   0  0  0  0  0  0  0  0  0  0  0  0
  183.4690  179.2170  143.8600 C   0  0  0  0  0  1  0  0  0  0  0  0
  189.5350  174.6550  144.0350 O   0  0  0  0  0  0  0  0  0  0  0  0
  188.3320  175.6800  142.2640 C   0  0  0  0  0  0  0  0  0  0  0  0
  187.1680  177.0780  145.6070 C   0  0  0  0  0  3  0  0  0  0  0  0
  184.0200  178.2780  141.6100 C   0  0  0  0  0  2  0  0  0  0  0  0
  189.1910  175.6840  144.9490 C   0  0  2  0  0  3  0  0  0  0  0  0
  189.1300  175.1510  146.3540 C   0  0  0  0  0  3  0  0  0  0  0  0
  188.0340  175.7750  140.8980 C   0  0  0  0  0  3  0  0  0  0  0  0
  186.3340  177.3640  141.2990 C   0  0  0  0  0  0  0  0  0  0  0  0
  185.2930  178.2910  140.7510 C   0  0  0  0  0  2  0  0  0  0  0  0
  188.9300  171.9160  142.3960 O   0  0  0  0  0  0  0  0  0  0  0  0
  189.7220  172.5080  141.6140 C   0  0  0  0  0  0  0  0  0  0  0  0
  189.9100  173.9250  141.7260 N   0  0  0  0  0  2  0  0  0  0  0  0
  191.9910  170.2840  138.7140 C   0  0  0  0  0  0  0  0  0  0  0  0
  191.6440  171.0860  140.9660 C   0  0  0  0  0  3  0  0  0  0  0  0
  188.8370  172.3410  138.6980 C   0  0  0  0  0  1  0  0  0  0  0  0
  192.7400  169.5610  137.7970 O   0  0  0  0  0  1  0  0  0  0  0  0
  192.3990  170.3570  140.0450 C   0  0  0  0  0  3  0  0  0  0  0  0
  190.0640  171.6720  139.2190 C   0  0  0  0  0  0  0  0  0  0  0  0
  190.4710  171.7530  140.5760 C   0  0  0  0  0  0  0  0  0  0  0  0
  190.8290  170.9390  138.3050 C   0  0  0  0  0  3  0  0  0  0  0  0
  1  6  1  0  0  0  0
  1  9  1  0  0  0  0
  2  5  1  0  0  0  0
  3  2  1  0  0  0  0
  3  7  1  0  0  0  0
  4  7  1  0  0  0  0
  4 11  1  1  0  0  0
  5 16  1  0  0  0  0
  5 14  1  6  0  0  0
  8 23  1  1  0  0  0
  8 12  1  0  0  0  0
 10 18  2  0  0  0  0
 10 19  1  0  0  0  0
 12 16  1  0  0  0  0
 13  8  1  0  0  0  0
 13  2  2  0  0  0  0
 14  1  2  0  0  0  0
 15  4  1  0  0  0  0
 16 17  1  1  0  0  0
 17  6  2  0  0  0  0
 18 13  1  0  0  0  0
 19  3  2  0  0  0  0
 20 19  1  0  0  0  0
 20 15  1  0  0  0  0
 22 23  1  0  0  0  0
 22 21  2  0  0  0  0
 24 28  1  0  0  0  0
 26 29  1  0  0  0  0
 27 24  1  0  0  0  0
 28 25  2  0  0  0  0
 29 30  2  0  0  0  0
 30 25  1  0  0  0  0
 30 22  1  0  0  0  0
 31 24  2  0  0  0  0
 31 29  1  0  0  0  0
M  END
>  <MODEL>
5

>  <REMARK>
 VINA RESULT:      -7.9      3.938      5.859
  Name = 
  2 active torsions:
  status: ('A' for Active; 'I' for Inactive)
    1  A    between atoms: C_5  and  C_30
    2  A    between atoms: C_10  and  N_16
                            x       y       z     vdW  Elec       q    Type
                         _______ _______ _______ _____ _____    ______ ____

>  <TORSDO>
F 2

$$$$
=
 OpenBabel11112416593D

 31 35  0  0  1  0  0  0  0  0999 V2000
  195.3630  174.2720  145.6000 C   0  0  0  0  0  0  0  0  0  0  0  0
  191.8970  173.4000  144.6150 C   0  0  0  0  0  0  0  0  0  0  0  0
  192.0170  172.2580  143.7640 C   0  0  0  0  0  0  0  0  0  0  0  0
  193.4760  171.1840  142.0500 C   0  0  1  0  0  3  0  0  0  0  0  0
  192.9510  173.9560  145.2850 C   0  0  2  0  0  3  0  0  0  0  0  0
  195.0950  175.5620  146.2620 C   0  0  0  0  0  3  0  0  0  0  0  0
  193.2950  171.4940  143.5370 C   0  0  0  0  0  2  0  0  0  0  0  0
  190.4170  175.1330  145.4430 C   0  0  2  0  0  3  0  0  0  0  0  0
  196.6730  173.8440  145.4340 O   0  0  0  0  0  1  0  0  0  0  0  0
  189.6650  172.3160  143.3090 N   0  0  0  0  0  0  0  0  0  0  0  0
  194.6790  170.2860  141.8550 C   0  0  0  0  0  1  0  0  0  0  0  0
  191.5020  175.7330  146.0830 O   0  0  0  0  0  0  0  0  0  0  0  0
  190.6030  173.9930  144.7450 C   0  0  0  0  0  0  0  0  0  0  0  0
  194.3610  173.5300  145.1240 C   0  0  0  0  0  3  0  0  0  0  0  0
  192.2370  170.5510  141.3900 C   0  0  0  0  0  2  0  0  0  0  0  0
  192.6880  175.0010  146.3510 C   0  0  2  0  0  3  0  0  0  0  0  0
  193.8500  175.9300  146.5730 C   0  0  0  0  0  3  0  0  0  0  0  0
  189.5100  173.4150  144.0830 C   0  0  0  0  0  3  0  0  0  0  0  0
  190.8760  171.7420  143.1270 C   0  0  0  0  0  0  0  0  0  0  0  0
  190.9890  170.5100  142.2830 C   0  0  0  0  0  2  0  0  0  0  0  0
  189.7490  177.8430  144.6750 O   0  0  0  0  0  0  0  0  0  0  0  0
  188.8270  177.1000  145.1070 C   0  0  0  0  0  0  0  0  0  0  0  0
  189.1230  175.7520  145.5010 N   0  0  0  0  0  2  0  0  0  0  0  0
  184.7990  178.5310  145.5750 C   0  0  0  0  0  0  0  0  0  0  0  0
  186.8480  177.6420  146.4930 C   0  0  0  0  0  3  0  0  0  0  0  0
  187.1910  178.0420  142.7090 C   0  0  0  0  0  1  0  0  0  0  0  0
  183.5000  178.9880  145.7510 O   0  0  0  0  0  1  0  0  0  0  0  0
  185.5420  178.1020  146.6730 C   0  0  0  0  0  3  0  0  0  0  0  0
  186.6680  178.0410  144.1050 C   0  0  0  0  0  0  0  0  0  0  0  0
  187.4340  177.6020  145.2170 C   0  0  0  0  0  0  0  0  0  0  0  0
  185.3600  178.5000  144.2980 C   0  0  0  0  0  3  0  0  0  0  0  0
  1  6  1  0  0  0  0
  2 13  1  0  0  0  0
  2  5  1  0  0  0  0
  3  2  2  0  0  0  0
  4 11  1  1  0  0  0
  4  7  1  0  0  0  0
  5 14  1  1  0  0  0
  5 16  1  0  0  0  0
  6 17  2  0  0  0  0
  7  3  1  0  0  0  0
  8 23  1  6  0  0  0
  8 12  1  0  0  0  0
  9  1  1  0  0  0  0
 10 18  1  0  0  0  0
 12 16  1  0  0  0  0
 13  8  1  0  0  0  0
 14  1  2  0  0  0  0
 15  4  1  0  0  0  0
 15 20  1  0  0  0  0
 16 17  1  6  0  0  0
 18 13  2  0  0  0  0
 19 10  2  0  0  0  0
 19  3  1  0  0  0  0
 20 19  1  0  0  0  0
 21 22  2  0  0  0  0
 22 30  1  0  0  0  0
 22 23  1  0  0  0  0
 24 27  1  0  0  0  0
 24 28  1  0  0  0  0
 25 28  2  0  0  0  0
 26 29  1  0  0  0  0
 29 31  1  0  0  0  0
 29 30  2  0  0  0  0
 30 25  1  0  0  0  0
 31 24  2  0  0  0  0
M  END
>  <MODEL>
6

>  <REMARK>
 VINA RESULT:      -7.9      3.001      8.904
  Name = 
  2 active torsions:
  status: ('A' for Active; 'I' for Inactive)
    1  A    between atoms: C_5  and  C_30
    2  A    between atoms: C_10  and  N_16
                            x       y       z     vdW  Elec       q    Type
                         _______ _______ _______ _____ _____    ______ ____

>  <TORSDO>
F 2

$$$$
=
 OpenBabel11112416593D

 31 35  0  0  1  0  0  0  0  0999 V2000
  194.8610  174.6750  146.0180 C   0  0  0  0  0  0  0  0  0  0  0  0
  191.5890  173.8300  144.4930 C   0  0  0  0  0  0  0  0  0  0  0  0
  191.7930  172.5900  143.8120 C   0  0  0  0  0  0  0  0  0  0  0  0
  193.4740  171.2600  142.5380 C   0  0  1  0  0  3  0  0  0  0  0  0
  192.5330  174.4210  145.2860 C   0  0  2  0  0  3  0  0  0  0  0  0
  194.5560  176.0450  146.4690 C   0  0  0  0  0  3  0  0  0  0  0  0
  193.0410  171.7540  143.9190 C   0  0  0  0  0  2  0  0  0  0  0  0
  190.0920  175.7080  144.8260 C   0  0  2  0  0  3  0  0  0  0  0  0
  196.1490  174.1780  146.1530 O   0  0  0  0  0  1  0  0  0  0  0  0
  189.5730  172.6880  142.9140 N   0  0  0  0  0  0  0  0  0  0  0  0
  194.6340  170.2980  142.6760 C   0  0  0  0  0  1  0  0  0  0  0  0
  191.0760  176.3380  145.5910 O   0  0  0  0  0  0  0  0  0  0  0  0
  190.3320  174.4860  144.3070 C   0  0  0  0  0  0  0  0  0  0  0  0
  193.9190  173.9220  145.4450 C   0  0  0  0  0  3  0  0  0  0  0  0
  192.3410  170.6030  141.7280 C   0  0  0  0  0  2  0  0  0  0  0  0
  192.1430  175.5960  146.1590 C   0  0  2  0  0  3  0  0  0  0  0  0
  193.3000  176.4980  146.4940 C   0  0  0  0  0  3  0  0  0  0  0  0
  189.3470  173.8770  143.5170 C   0  0  0  0  0  3  0  0  0  0  0  0
  190.7590  172.0470  143.0300 C   0  0  0  0  0  0  0  0  0  0  0  0
  190.9490  170.7190  142.3650 C   0  0  0  0  0  2  0  0  0  0  0  0
  187.8370  175.9540  146.6260 O   0  0  0  0  0  0  0  0  0  0  0  0
  187.7540  176.4860  145.4860 C   0  0  0  0  0  0  0  0  0  0  0  0
  188.8500  176.3810  144.5670 N   0  0  0  0  0  2  0  0  0  0  0  0
  184.2170  178.5510  144.1730 C   0  0  0  0  0  0  0  0  0  0  0  0
  186.0330  177.0070  143.7830 C   0  0  0  0  0  3  0  0  0  0  0  0
  186.2800  178.4300  147.3210 C   0  0  0  0  0  1  0  0  0  0  0  0
  183.0780  179.2060  143.7260 O   0  0  0  0  0  1  0  0  0  0  0  0
  184.8870  177.6640  143.3320 C   0  0  0  0  0  3  0  0  0  0  0  0
  185.8400  178.1280  145.9280 C   0  0  0  0  0  0  0  0  0  0  0  0
  186.5300  177.2230  145.0800 C   0  0  0  0  0  0  0  0  0  0  0  0
  184.6920  178.7810  145.4640 C   0  0  0  0  0  3  0  0  0  0  0  0
  1  9  1  0  0  0  0
  1  6  1  0  0  0  0
  2  5  1  0  0  0  0
  3  7  1  0  0  0  0
  3  2  2  0  0  0  0
  4 11  1  1  0  0  0
  4  7  1  0  0  0  0
  5 14  1  1  0  0  0
  5 16  1  0  0  0  0
  6 17  2  0  0  0  0
  8 23  1  6  0  0  0
  8 12  1  0  0  0  0
 10 19  2  0  0  0  0
 10 18  1  0  0  0  0
 12 16  1  0  0  0  0
 13  2  1  0  0  0  0
 13  8  1  0  0  0  0
 14  1  2  0  0  0  0
 15 20  1  0  0  0  0
 15  4  1  0  0  0  0
 16 17  1  6  0  0  0
 18 13  2  0  0  0  0
 19  3  1  0  0  0  0
 20 19  1  0  0  0  0
 22 21  2  0  0  0  0
 23 22  1  0  0  0  0
 24 31  1  0  0  0  0
 25 30  2  0  0  0  0
 27 24  1  0  0  0  0
 28 25  1  0  0  0  0
 28 24  2  0  0  0  0
 29 26  1  0  0  0  0
 30 22  1  0  0  0  0
 30 29  1  0  0  0  0
 31 29  2  0  0  0  0
M  END
>  <MODEL>
7

>  <REMARK>
 VINA RESULT:      -7.8      2.897      8.863
  Name = 
  2 active torsions:
  status: ('A' for Active; 'I' for Inactive)
    1  A    between atoms: C_5  and  C_30
    2  A    between atoms: C_10  and  N_16
                            x       y       z     vdW  Elec       q    Type
                         _______ _______ _______ _____ _____    ______ ____

>  <TORSDO>
F 2

$$$$
=
 OpenBabel11112416593D

 31 35  0  0  1  0  0  0  0  0999 V2000
  186.6630  177.9590  146.6780 C   0  0  0  0  0  0  0  0  0  0  0  0
  189.2790  175.9460  144.9900 C   0  0  0  0  0  0  0  0  0  0  0  0
  190.3690  175.8830  145.9140 C   0  0  0  0  0  0  0  0  0  0  0  0
  191.5680  177.1650  147.6840 C   0  0  1  0  0  3  0  0  0  0  0  0
  188.0670  176.5050  145.2890 C   0  0  2  0  0  3  0  0  0  0  0  0
  185.7340  178.1230  145.5450 C   0  0  0  0  0  3  0  0  0  0  0  0
  190.3080  176.3700  147.3380 C   0  0  0  0  0  2  0  0  0  0  0  0
  188.5560  175.5230  142.7150 C   0  0  2  0  0  3  0  0  0  0  0  0
  186.4090  178.6140  147.8750 O   0  0  0  0  0  1  0  0  0  0  0  0
  191.7160  174.7500  144.2870 N   0  0  0  0  0  0  0  0  0  0  0  0
  191.5660  177.5150  149.1570 C   0  0  0  0  0  1  0  0  0  0  0  0
  187.3390  176.1420  143.0020 O   0  0  0  0  0  0  0  0  0  0  0  0
  189.4920  175.4110  143.6810 C   0  0  0  0  0  0  0  0  0  0  0  0
  187.7660  177.2180  146.5520 C   0  0  0  0  0  3  0  0  0  0  0  0
  192.8800  176.4470  147.3180 C   0  0  0  0  0  2  0  0  0  0  0  0
  186.9010  176.3050  144.3420 C   0  0  2  0  0  3  0  0  0  0  0  0
  185.8650  177.3910  144.4360 C   0  0  0  0  0  3  0  0  0  0  0  0
  190.7210  174.8140  143.3730 C   0  0  0  0  0  3  0  0  0  0  0  0
  191.5750  175.2740  145.5260 C   0  0  0  0  0  0  0  0  0  0  0  0
  192.6960  175.1530  146.5120 C   0  0  0  0  0  2  0  0  0  0  0  0
  187.8330  172.9410  141.6220 O   0  0  0  0  0  0  0  0  0  0  0  0
  188.4400  173.7570  140.8770 C   0  0  0  0  0  0  0  0  0  0  0  0
  188.8180  175.0440  141.3860 N   0  0  0  0  0  2  0  0  0  0  0  0
  189.3160  172.8430  136.7660 C   0  0  0  0  0  0  0  0  0  0  0  0
  188.1930  174.1650  138.4470 C   0  0  0  0  0  3  0  0  0  0  0  0
  190.3130  171.4670  140.1260 C   0  0  0  0  0  1  0  0  0  0  0  0
  189.5830  172.5670  135.4330 O   0  0  0  0  0  1  0  0  0  0  0  0
  188.4600  173.8900  137.1050 C   0  0  0  0  0  3  0  0  0  0  0  0
  189.6440  172.3380  139.1190 C   0  0  0  0  0  0  0  0  0  0  0  0
  188.7740  173.4020  139.4740 C   0  0  0  0  0  0  0  0  0  0  0  0
  189.9040  172.0720  137.7690 C   0  0  0  0  0  3  0  0  0  0  0  0
  1  9  1  0  0  0  0
  2  5  1  0  0  0  0
  2  3  1  0  0  0  0
  3  7  1  0  0  0  0
  4 11  1  1  0  0  0
  5 14  1  1  0  0  0
  6  1  1  0  0  0  0
  7  4  1  0  0  0  0
  8 23  1  6  0  0  0
  8 12  1  0  0  0  0
  8 13  1  0  0  0  0
 10 19  1  0  0  0  0
 12 16  1  0  0  0  0
 13  2  2  0  0  0  0
 14  1  2  0  0  0  0
 15  4  1  0  0  0  0
 16 17  1  6  0  0  0
 16  5  1  0  0  0  0
 17  6  2  0  0  0  0
 18 13  1  0  0  0  0
 18 10  2  0  0  0  0
 19  3  2  0  0  0  0
 19 20  1  0  0  0  0
 20 15  1  0  0  0  0
 22 23  1  0  0  0  0
 22 21  2  0  0  0  0
 24 28  2  0  0  0  0
 24 31  1  0  0  0  0
 25 30  2  0  0  0  0
 27 24  1  0  0  0  0
 28 25  1  0  0  0  0
 29 30  1  0  0  0  0
 29 26  1  0  0  0  0
 30 22  1  0  0  0  0
 31 29  2  0  0  0  0
M  END
>  <MODEL>
8

>  <REMARK>
 VINA RESULT:      -7.8      3.363      6.457
  Name = 
  2 active torsions:
  status: ('A' for Active; 'I' for Inactive)
    1  A    between atoms: C_5  and  C_30
    2  A    between atoms: C_10  and  N_16
                            x       y       z     vdW  Elec       q    Type
                         _______ _______ _______ _____ _____    ______ ____

>  <TORSDO>
F 2

$$$$
=
 OpenBabel11112416593D

 31 35  0  0  1  0  0  0  0  0999 V2000
  195.6840  174.5550  144.5720 C   0  0  0  0  0  0  0  0  0  0  0  0
  192.3520  174.3780  142.9570 C   0  0  0  0  0  0  0  0  0  0  0  0
  192.5890  173.8610  141.6450 C   0  0  0  0  0  0  0  0  0  0  0  0
  194.2290  173.8440  139.7680 C   0  0  1  0  0  3  0  0  0  0  0  0
  193.3220  174.4820  143.9150 C   0  0  2  0  0  3  0  0  0  0  0  0
  195.3090  175.3000  145.7880 C   0  0  0  0  0  3  0  0  0  0  0  0
  193.9110  173.3190  141.1690 C   0  0  0  0  0  2  0  0  0  0  0  0
  190.7390  175.4240  144.4340 C   0  0  2  0  0  3  0  0  0  0  0  0
  197.0190  174.2660  144.3270 O   0  0  0  0  0  1  0  0  0  0  0  0
  190.2830  174.1780  141.0740 N   0  0  0  0  0  0  0  0  0  0  0  0
  195.4790  173.1730  139.2400 C   0  0  0  0  0  1  0  0  0  0  0  0
  191.7410  175.5810  145.3930 O   0  0  0  0  0  0  0  0  0  0  0  0
  191.0280  174.8260  143.2600 C   0  0  0  0  0  0  0  0  0  0  0  0
  194.7560  174.1900  143.6840 C   0  0  0  0  0  3  0  0  0  0  0  0
  193.0770  173.6720  138.7610 C   0  0  0  0  0  2  0  0  0  0  0  0
  192.9280  174.8050  145.3420 C   0  0  2  0  0  3  0  0  0  0  0  0
  194.0290  175.4610  146.1290 C   0  0  0  0  0  3  0  0  0  0  0  0
  190.0200  174.7000  142.2940 C   0  0  0  0  0  3  0  0  0  0  0  0
  191.5270  173.7740  140.7290 C   0  0  0  0  0  0  0  0  0  0  0  0
  191.7600  173.1770  139.3750 C   0  0  0  0  0  2  0  0  0  0  0  0
  189.9390  178.2050  144.5490 O   0  0  0  0  0  0  0  0  0  0  0  0
  189.0590  177.3210  144.7360 C   0  0  0  0  0  0  0  0  0  0  0  0
  189.4200  175.9330  144.6900 N   0  0  0  0  0  2  0  0  0  0  0  0
  184.9950  178.3790  145.6640 C   0  0  0  0  0  0  0  0  0  0  0  0
  187.1820  177.5980  146.3270 C   0  0  0  0  0  3  0  0  0  0  0  0
  187.1410  178.2950  142.5710 C   0  0  0  0  0  1  0  0  0  0  0  0
  183.6880  178.7140  145.9880 O   0  0  0  0  0  1  0  0  0  0  0  0
  185.8670  177.9350  146.6560 C   0  0  0  0  0  3  0  0  0  0  0  0
  186.7510  178.1520  144.0030 C   0  0  0  0  0  0  0  0  0  0  0  0
  187.6480  177.6980  145.0060 C   0  0  0  0  0  0  0  0  0  0  0  0
  185.4360  178.4860  144.3450 C   0  0  0  0  0  3  0  0  0  0  0  0
  1  6  1  0  0  0  0
  2 13  1  0  0  0  0
  2  5  1  0  0  0  0
  3  2  2  0  0  0  0
  4 11  1  6  0  0  0
  4  7  1  0  0  0  0
  5 14  1  1  0  0  0
  5 16  1  0  0  0  0
  6 17  2  0  0  0  0
  7  3  1  0  0  0  0
  8 23  1  6  0  0  0
  8 12  1  0  0  0  0
  9  1  1  0  0  0  0
 10 18  1  0  0  0  0
 13  8  1  0  0  0  0
 14  1  2  0  0  0  0
 15 20  1  0  0  0  0
 15  4  1  0  0  0  0
 16 12  1  0  0  0  0
 16 17  1  6  0  0  0
 18 13  2  0  0  0  0
 19 10  2  0  0  0  0
 19  3  1  0  0  0  0
 20 19  1  0  0  0  0
 21 22  2  0  0  0  0
 22 30  1  0  0  0  0
 23 22  1  0  0  0  0
 24 27  1  0  0  0  0
 24 28  1  0  0  0  0
 25 28  2  0  0  0  0
 26 29  1  0  0  0  0
 29 31  1  0  0  0  0
 29 30  2  0  0  0  0
 30 25  1  0  0  0  0
 31 24  2  0  0  0  0
M  END
>  <MODEL>
9

>  <REMARK>
 VINA RESULT:      -7.7      2.582      8.949
  Name = 
  2 active torsions:
  status: ('A' for Active; 'I' for Inactive)
    1  A    between atoms: C_5  and  C_30
    2  A    between atoms: C_10  and  N_16
                            x       y       z     vdW  Elec       q    Type
                         _______ _______ _______ _____ _____    ______ ____

>  <TORSDO>
F 2

$$$$
