=
 OpenBabel11112417033D

 31 35  0  0  1  0  0  0  0  0999 V2000
  184.7400  178.0980  146.9050 C   0  0  0  0  0  0  0  0  0  0  0  0
  187.2620  175.9320  145.0460 C   0  0  2  0  0  3  0  0  0  0  0  0
  187.2780  176.3820  143.5930 C   0  0  0  0  0  0  0  0  0  0  0  0
  186.1330  177.4260  141.7130 C   0  0  0  0  0  0  0  0  0  0  0  0
  186.6760  176.9610  145.9830 C   0  0  0  0  0  0  0  0  0  0  0  0
  185.5760  178.8850  147.7010 C   0  0  0  0  0  3  0  0  0  0  0  0
  186.1760  177.0750  143.0630 C   0  0  0  0  0  3  0  0  0  0  0  0
  189.5420  176.6590  145.8790 C   0  0  2  0  0  3  0  0  0  0  0  0
  183.3970  178.2680  146.9600 F   0  0  0  0  0  0  0  0  0  0  0  0
  189.5360  175.2610  143.2050 C   0  0  0  0  0  2  0  0  0  0  0  0
  184.9650  178.1740  141.1780 C   0  0  0  0  0  1  0  0  0  0  0  0
  188.8980  177.5410  146.7980 O   0  0  0  0  0  0  0  0  0  0  0  0
  188.6410  175.4580  145.5490 C   0  0  2  0  0  3  0  0  0  0  0  0
  185.2870  177.1370  146.0510 C   0  0  0  0  0  3  0  0  0  0  0  0
  187.1810  177.0690  140.8660 C   0  0  0  0  0  3  0  0  0  0  0  0
  187.5150  177.7450  146.7980 C   0  0  0  0  0  0  0  0  0  0  0  0
  186.9610  178.7050  147.6510 C   0  0  0  0  0  3  0  0  0  0  0  0
  189.2810  174.5280  144.5180 C   0  0  0  0  0  2  0  0  0  0  0  0
  188.3190  175.9900  142.7170 C   0  0  0  0  0  0  0  0  0  0  0  0
  188.2700  176.3550  141.3670 C   0  0  0  0  0  3  0  0  0  0  0  0
  192.0990  177.0140  144.6790 O   0  0  0  0  0  0  0  0  0  0  0  0
  192.0560  176.4210  145.7910 C   0  0  0  0  0  0  0  0  0  0  0  0
  190.8040  176.2040  146.4440 N   0  0  0  0  0  2  0  0  0  0  0  0
  195.6690  175.9450  144.7320 N   0  0  0  0  0  0  0  0  0  0  0  0
  194.3790  177.0250  146.5190 C   0  0  0  0  0  2  0  0  0  0  0  0
  192.8810  173.7070  145.5760 O   0  0  0  0  0  1  0  0  0  0  0  0
  196.3020  176.2020  143.4520 C   0  0  0  0  0  1  0  0  0  0  0  0
  195.0700  177.2050  145.1650 C   0  0  0  0  0  2  0  0  0  0  0  0
  193.8830  174.6540  145.7940 C   0  0  2  0  0  3  0  0  0  0  0  0
  193.3130  175.9260  146.4440 C   0  0  2  0  0  3  0  0  0  0  0  0
  194.5980  174.9820  144.4850 C   0  0  0  0  0  2  0  0  0  0  0  0
  1  9  1  0  0  0  0
  1  6  1  0  0  0  0
  2  3  1  6  0  0  0
  2 13  1  0  0  0  0
  2  5  1  0  0  0  0
  4  7  2  0  0  0  0
  5 14  1  0  0  0  0
  5 16  2  0  0  0  0
  7  3  1  0  0  0  0
  8 23  1  1  0  0  0
  8 12  1  0  0  0  0
 10 18  1  0  0  0  0
 11  4  1  0  0  0  0
 13 18  1  6  0  0  0
 13  8  1  0  0  0  0
 14  1  2  0  0  0  0
 15 20  2  0  0  0  0
 15  4  1  0  0  0  0
 16 12  1  0  0  0  0
 16 17  1  0  0  0  0
 17  6  2  0  0  0  0
 19 10  1  0  0  0  0
 19  3  2  0  0  0  0
 20 19  1  0  0  0  0
 21 22  2  0  0  0  0
 22 23  1  0  0  0  0
 24 28  1  0  0  0  0
 27 24  1  0  0  0  0
 28 25  1  0  0  0  0
 29 26  1  6  0  0  0
 29 30  1  0  0  0  0
 30 22  1  6  0  0  0
 30 25  1  0  0  0  0
 31 24  1  0  0  0  0
 31 29  1  0  0  0  0
M  END
>  <MODEL>
1

>  <REMARK>
 VINA RESULT:      -9.1      0.000      0.000
  Name = 
  2 active torsions:
  status: ('A' for Active; 'I' for Inactive)
    1  A    between atoms: C_5  and  C_30
    2  A    between atoms: C_10  and  N_16
                            x       y       z     vdW  Elec       q    Type
                         _______ _______ _______ _____ _____    ______ ____

>  <TORSDO>
F 2

$$$$
=
 OpenBabel11112417033D

 31 35  0  0  1  0  0  0  0  0999 V2000
  187.0930  177.5190  140.8500 C   0  0  0  0  0  0  0  0  0  0  0  0
  188.5400  177.7890  144.3630 C   0  0  2  0  0  3  0  0  0  0  0  0
  187.3760  177.8230  145.3420 C   0  0  0  0  0  0  0  0  0  0  0  0
  185.0370  178.3270  145.7960 C   0  0  0  0  0  0  0  0  0  0  0  0
  188.1650  177.2360  143.0090 C   0  0  0  0  0  0  0  0  0  0  0  0
  187.4410  176.2110  140.5010 C   0  0  0  0  0  3  0  0  0  0  0  0
  186.1000  178.2110  144.9000 C   0  0  0  0  0  3  0  0  0  0  0  0
  189.6090  175.5440  144.8440 C   0  0  2  0  0  3  0  0  0  0  0  0
  186.4010  178.2910  139.9770 F   0  0  0  0  0  0  0  0  0  0  0  0
  188.9070  177.1810  147.2800 C   0  0  0  0  0  2  0  0  0  0  0  0
  183.6910  178.7230  145.3040 C   0  0  0  0  0  1  0  0  0  0  0  0
  189.2930  175.1360  143.5130 O   0  0  0  0  0  0  0  0  0  0  0  0
  189.7830  177.0700  144.9230 C   0  0  2  0  0  3  0  0  0  0  0  0
  187.4560  178.0320  142.0980 C   0  0  0  0  0  3  0  0  0  0  0  0
  185.2380  178.0800  147.1540 C   0  0  0  0  0  3  0  0  0  0  0  0
  188.5270  175.9240  142.6490 C   0  0  0  0  0  0  0  0  0  0  0  0
  188.1620  175.4170  141.3980 C   0  0  0  0  0  3  0  0  0  0  0  0
  190.0620  177.5410  146.3500 C   0  0  0  0  0  2  0  0  0  0  0  0
  187.5800  177.6110  146.7280 C   0  0  0  0  0  0  0  0  0  0  0  0
  186.5050  177.7210  147.6160 C   0  0  0  0  0  3  0  0  0  0  0  0
  192.1990  175.9500  143.7340 O   0  0  0  0  0  0  0  0  0  0  0  0
  192.0960  175.1280  144.6860 C   0  0  0  0  0  0  0  0  0  0  0  0
  190.8240  174.8730  145.2830 N   0  0  0  0  0  2  0  0  0  0  0  0
  195.8560  175.4620  144.2890 N   0  0  0  0  0  0  0  0  0  0  0  0
  194.1780  175.3060  146.0740 C   0  0  0  0  0  2  0  0  0  0  0  0
  193.3230  173.0350  143.2010 O   0  0  0  0  0  1  0  0  0  0  0  0
  196.6260  176.4160  143.5130 C   0  0  0  0  0  1  0  0  0  0  0  0
  195.0260  176.2390  145.2070 C   0  0  0  0  0  2  0  0  0  0  0  0
  194.1370  173.7330  144.0950 C   0  0  2  0  0  3  0  0  0  0  0  0
  193.3030  174.3990  145.2010 C   0  0  2  0  0  3  0  0  0  0  0  0
  194.9810  174.7650  143.3490 C   0  0  0  0  0  2  0  0  0  0  0  0
  1 14  1  0  0  0  0
  2  5  1  6  0  0  0
  2 13  1  0  0  0  0
  2  3  1  0  0  0  0
  3 19  1  0  0  0  0
  4 15  2  0  0  0  0
  6  1  2  0  0  0  0
  6 17  1  0  0  0  0
  7  3  2  0  0  0  0
  7  4  1  0  0  0  0
  8 13  1  0  0  0  0
  8 23  1  6  0  0  0
  9  1  1  0  0  0  0
 11  4  1  0  0  0  0
 12  8  1  0  0  0  0
 13 18  1  1  0  0  0
 14  5  2  0  0  0  0
 15 20  1  0  0  0  0
 16  5  1  0  0  0  0
 16 12  1  0  0  0  0
 17 16  2  0  0  0  0
 18 10  1  0  0  0  0
 19 10  1  0  0  0  0
 19 20  2  0  0  0  0
 21 22  2  0  0  0  0
 22 23  1  0  0  0  0
 24 28  1  0  0  0  0
 27 24  1  0  0  0  0
 28 25  1  0  0  0  0
 29 26  1  6  0  0  0
 29 30  1  0  0  0  0
 30 22  1  6  0  0  0
 30 25  1  0  0  0  0
 31 29  1  0  0  0  0
 31 24  1  0  0  0  0
M  END
>  <MODEL>
2

>  <REMARK>
 VINA RESULT:      -8.6      2.006      4.072
  Name = 
  2 active torsions:
  status: ('A' for Active; 'I' for Inactive)
    1  A    between atoms: C_5  and  C_30
    2  A    between atoms: C_10  and  N_16
                            x       y       z     vdW  Elec       q    Type
                         _______ _______ _______ _____ _____    ______ ____

>  <TORSDO>
F 2

$$$$
=
 OpenBabel11112417033D

 31 35  0  0  1  0  0  0  0  0999 V2000
  184.8880  177.6880  146.7530 C   0  0  0  0  0  0  0  0  0  0  0  0
  187.1730  175.9980  144.2170 C   0  0  2  0  0  3  0  0  0  0  0  0
  186.8870  176.6120  142.8540 C   0  0  0  0  0  0  0  0  0  0  0  0
  185.3420  177.7530  141.3550 C   0  0  0  0  0  0  0  0  0  0  0  0
  186.6970  176.8520  145.3680 C   0  0  0  0  0  0  0  0  0  0  0  0
  185.7980  178.4530  147.4870 C   0  0  0  0  0  3  0  0  0  0  0  0
  185.6590  177.2550  142.6200 C   0  0  0  0  0  3  0  0  0  0  0  0
  189.5080  176.8360  144.7260 C   0  0  2  0  0  3  0  0  0  0  0  0
  183.5700  177.7230  147.0630 F   0  0  0  0  0  0  0  0  0  0  0  0
  189.1090  175.7610  141.9350 C   0  0  0  0  0  2  0  0  0  0  0  0
  184.0450  178.4440  141.1340 C   0  0  0  0  0  1  0  0  0  0  0  0
  188.9840  177.5410  145.8500 O   0  0  0  0  0  0  0  0  0  0  0  0
  188.6510  175.6010  144.4050 C   0  0  2  0  0  3  0  0  0  0  0  0
  185.3350  176.8870  145.6990 C   0  0  0  0  0  3  0  0  0  0  0  0
  186.2390  177.5960  140.2990 C   0  0  0  0  0  3  0  0  0  0  0  0
  187.6140  177.6130  146.1190 C   0  0  0  0  0  0  0  0  0  0  0  0
  187.1600  178.4120  147.1730 C   0  0  0  0  0  3  0  0  0  0  0  0
  189.1550  174.8600  143.1660 C   0  0  0  0  0  2  0  0  0  0  0  0
  187.7740  176.4230  141.7670 C   0  0  0  0  0  0  0  0  0  0  0  0
  187.4500  176.9350  140.5050 C   0  0  0  0  0  3  0  0  0  0  0  0
  191.8230  178.1120  143.6680 O   0  0  0  0  0  0  0  0  0  0  0  0
  192.0010  177.1290  144.4390 C   0  0  0  0  0  0  0  0  0  0  0  0
  190.8830  176.4400  144.9980 N   0  0  0  0  0  2  0  0  0  0  0  0
  193.7050  173.7690  144.9010 N   0  0  0  0  0  0  0  0  0  0  0  0
  194.0000  175.8480  143.6300 C   0  0  0  0  0  2  0  0  0  0  0  0
  192.7730  176.5490  147.1140 O   0  0  0  0  0  1  0  0  0  0  0  0
  193.1550  172.4300  144.8070 C   0  0  0  0  0  1  0  0  0  0  0  0
  193.4460  174.4210  143.6190 C   0  0  0  0  0  2  0  0  0  0  0  0
  193.4700  175.8880  146.1010 C   0  0  2  0  0  3  0  0  0  0  0  0
  193.3880  176.6610  144.7750 C   0  0  2  0  0  3  0  0  0  0  0  0
  192.9430  174.4630  145.9370 C   0  0  0  0  0  2  0  0  0  0  0  0
  1  9  1  0  0  0  0
  1  6  1  0  0  0  0
  2  3  1  6  0  0  0
  2 13  1  0  0  0  0
  2  5  1  0  0  0  0
  4  7  2  0  0  0  0
  5 14  1  0  0  0  0
  5 16  2  0  0  0  0
  7  3  1  0  0  0  0
  8 23  1  1  0  0  0
  8 12  1  0  0  0  0
 10 18  1  0  0  0  0
 11  4  1  0  0  0  0
 12 16  1  0  0  0  0
 13 18  1  6  0  0  0
 13  8  1  0  0  0  0
 14  1  2  0  0  0  0
 15 20  2  0  0  0  0
 15  4  1  0  0  0  0
 16 17  1  0  0  0  0
 17  6  2  0  0  0  0
 19 10  1  0  0  0  0
 19  3  2  0  0  0  0
 20 19  1  0  0  0  0
 21 22  2  0  0  0  0
 22 23  1  0  0  0  0
 24 31  1  0  0  0  0
 25 30  1  0  0  0  0
 27 24  1  0  0  0  0
 28 25  1  0  0  0  0
 28 24  1  0  0  0  0
 29 26  1  1  0  0  0
 30 22  1  6  0  0  0
 30 29  1  0  0  0  0
 31 29  1  0  0  0  0
M  END
>  <MODEL>
3

>  <REMARK>
 VINA RESULT:      -8.5      1.300      1.822
  Name = 
  2 active torsions:
  status: ('A' for Active; 'I' for Inactive)
    1  A    between atoms: C_5  and  C_30
    2  A    between atoms: C_10  and  N_16
                            x       y       z     vdW  Elec       q    Type
                         _______ _______ _______ _____ _____    ______ ____

>  <TORSDO>
F 2

$$$$
=
 OpenBabel11112417033D

 31 35  0  0  1  0  0  0  0  0999 V2000
  185.0160  177.7930  146.8360 C   0  0  0  0  0  0  0  0  0  0  0  0
  187.1850  175.9320  144.3190 C   0  0  2  0  0  3  0  0  0  0  0  0
  186.9240  176.5350  142.9460 C   0  0  0  0  0  0  0  0  0  0  0  0
  185.4350  177.7320  141.4350 C   0  0  0  0  0  0  0  0  0  0  0  0
  186.7650  176.8330  145.4560 C   0  0  0  0  0  0  0  0  0  0  0  0
  185.9720  178.5200  147.5490 C   0  0  0  0  0  3  0  0  0  0  0  0
  185.7330  177.2410  142.7070 C   0  0  0  0  0  3  0  0  0  0  0  0
  189.5670  176.6470  144.7980 C   0  0  2  0  0  3  0  0  0  0  0  0
  183.7030  177.9080  147.1530 F   0  0  0  0  0  0  0  0  0  0  0  0
  189.0900  175.5440  142.0300 C   0  0  0  0  0  2  0  0  0  0  0  0
  184.1770  178.4900  141.2080 C   0  0  0  0  0  1  0  0  0  0  0  0
  189.0910  177.4020  145.9120 O   0  0  0  0  0  0  0  0  0  0  0  0
  188.6400  175.4570  144.5050 C   0  0  2  0  0  3  0  0  0  0  0  0
  185.4100  176.9500  145.7940 C   0  0  0  0  0  3  0  0  0  0  0  0
  186.3140  177.5050  140.3760 C   0  0  0  0  0  3  0  0  0  0  0  0
  187.7280  177.5550  146.1870 C   0  0  0  0  0  0  0  0  0  0  0  0
  187.3270  178.3970  147.2280 C   0  0  0  0  0  3  0  0  0  0  0  0
  189.0940  174.6660  143.2780 C   0  0  0  0  0  2  0  0  0  0  0  0
  187.7920  176.2770  141.8570 C   0  0  0  0  0  0  0  0  0  0  0  0
  187.4880  176.7820  140.5880 C   0  0  0  0  0  3  0  0  0  0  0  0
  190.3290  175.0230  147.0080 O   0  0  0  0  0  0  0  0  0  0  0  0
  191.2330  175.3610  146.1960 C   0  0  0  0  0  0  0  0  0  0  0  0
  190.9190  176.1810  145.0690 N   0  0  0  0  0  2  0  0  0  0  0  0
  194.4820  175.6410  144.2550 N   0  0  0  0  0  0  0  0  0  0  0  0
  193.6070  176.1100  146.4990 C   0  0  0  0  0  2  0  0  0  0  0  0
  192.1950  172.9040  145.1330 O   0  0  0  0  0  1  0  0  0  0  0  0
  194.7430  176.2590  142.9680 C   0  0  0  0  0  1  0  0  0  0  0  0
  193.9120  176.6790  145.1110 C   0  0  0  0  0  2  0  0  0  0  0  0
  193.1390  173.9110  145.3440 C   0  0  2  0  0  3  0  0  0  0  0  0
  192.6520  174.9160  146.4010 C   0  0  2  0  0  3  0  0  0  0  0  0
  193.4660  174.6160  144.0280 C   0  0  0  0  0  2  0  0  0  0  0  0
  1  9  1  0  0  0  0
  1  6  1  0  0  0  0
  2  3  1  6  0  0  0
  2 13  1  0  0  0  0
  2  5  1  0  0  0  0
  4  7  2  0  0  0  0
  5 14  1  0  0  0  0
  5 16  2  0  0  0  0
  7  3  1  0  0  0  0
  8 23  1  1  0  0  0
  8 12  1  0  0  0  0
 10 18  1  0  0  0  0
 11  4  1  0  0  0  0
 12 16  1  0  0  0  0
 13 18  1  6  0  0  0
 13  8  1  0  0  0  0
 14  1  2  0  0  0  0
 15 20  2  0  0  0  0
 15  4  1  0  0  0  0
 16 17  1  0  0  0  0
 17  6  2  0  0  0  0
 19 10  1  0  0  0  0
 19  3  2  0  0  0  0
 20 19  1  0  0  0  0
 22 21  2  0  0  0  0
 23 22  1  0  0  0  0
 24 28  1  0  0  0  0
 27 24  1  0  0  0  0
 28 25  1  0  0  0  0
 29 26  1  6  0  0  0
 29 30  1  0  0  0  0
 30 22  1  6  0  0  0
 30 25  1  0  0  0  0
 31 24  1  0  0  0  0
 31 29  1  0  0  0  0
M  END
>  <MODEL>
4

>  <REMARK>
 VINA RESULT:      -8.3      1.104      1.197
  Name = 
  2 active torsions:
  status: ('A' for Active; 'I' for Inactive)
    1  A    between atoms: C_5  and  C_30
    2  A    between atoms: C_10  and  N_16
                            x       y       z     vdW  Elec       q    Type
                         _______ _______ _______ _____ _____    ______ ____

>  <TORSDO>
F 2

$$$$
=
 OpenBabel11112417033D

 31 35  0  0  1  0  0  0  0  0999 V2000
  191.6320  173.1180  141.5170 C   0  0  0  0  0  0  0  0  0  0  0  0
  191.2280  174.1210  145.1690 C   0  0  2  0  0  3  0  0  0  0  0  0
  192.3650  175.0700  145.5180 C   0  0  0  0  0  0  0  0  0  0  0  0
  194.6260  175.8710  145.0950 C   0  0  0  0  0  0  0  0  0  0  0  0
  190.9860  174.0000  143.6830 C   0  0  0  0  0  0  0  0  0  0  0  0
  190.5610  173.7880  140.9200 C   0  0  0  0  0  3  0  0  0  0  0  0
  193.5390  175.0690  144.7460 C   0  0  0  0  0  3  0  0  0  0  0  0
  189.1970  175.6330  145.2490 C   0  0  2  0  0  3  0  0  0  0  0  0
  192.4690  172.3690  140.7590 F   0  0  0  0  0  0  0  0  0  0  0  0
  191.1070  175.9240  147.5660 C   0  0  0  0  0  2  0  0  0  0  0  0
  195.8520  175.8660  144.2550 C   0  0  0  0  0  1  0  0  0  0  0  0
  188.9920  175.3900  143.8570 O   0  0  0  0  0  0  0  0  0  0  0  0
  189.9170  174.4470  145.9120 C   0  0  2  0  0  3  0  0  0  0  0  0
  191.8430  173.2200  142.8950 C   0  0  0  0  0  3  0  0  0  0  0  0
  194.5650  176.6710  146.2360 C   0  0  0  0  0  3  0  0  0  0  0  0
  189.8990  174.6620  143.0810 C   0  0  0  0  0  0  0  0  0  0  0  0
  189.6930  174.5550  141.7020 C   0  0  0  0  0  3  0  0  0  0  0  0
  190.2040  174.7070  147.3910 C   0  0  0  0  0  2  0  0  0  0  0  0
  192.3270  175.8560  146.6950 C   0  0  0  0  0  0  0  0  0  0  0  0
  193.4180  176.6640  147.0310 C   0  0  0  0  0  3  0  0  0  0  0  0
  188.5930  177.8530  146.9260 O   0  0  0  0  0  0  0  0  0  0  0  0
  187.6750  177.0120  146.7210 C   0  0  0  0  0  0  0  0  0  0  0  0
  187.9140  175.8710  145.8950 N   0  0  0  0  0  2  0  0  0  0  0  0
  184.4420  178.7560  145.7670 N   0  0  0  0  0  0  0  0  0  0  0  0
  185.2210  176.5450  146.4950 C   0  0  0  0  0  2  0  0  0  0  0  0
  187.0460  179.2920  148.3010 O   0  0  0  0  0  1  0  0  0  0  0  0
  184.1210  179.5310  144.5830 C   0  0  0  0  0  1  0  0  0  0  0  0
  184.8640  177.4360  145.3030 C   0  0  0  0  0  2  0  0  0  0  0  0
  185.9800  178.6530  147.6670 C   0  0  2  0  0  3  0  0  0  0  0  0
  186.3220  177.1880  147.3460 C   0  0  2  0  0  3  0  0  0  0  0  0
  185.5830  179.4120  146.4020 C   0  0  0  0  0  2  0  0  0  0  0  0
  1 14  1  0  0  0  0
  2  5  1  6  0  0  0
  2  3  1  0  0  0  0
  2 13  1  0  0  0  0
  3 19  1  0  0  0  0
  4 15  2  0  0  0  0
  6  1  2  0  0  0  0
  6 17  1  0  0  0  0
  7  4  1  0  0  0  0
  7  3  2  0  0  0  0
  8 23  1  1  0  0  0
  8 13  1  0  0  0  0
  9  1  1  0  0  0  0
 11  4  1  0  0  0  0
 12  8  1  0  0  0  0
 13 18  1  1  0  0  0
 14  5  2  0  0  0  0
 15 20  1  0  0  0  0
 16  5  1  0  0  0  0
 16 12  1  0  0  0  0
 17 16  2  0  0  0  0
 18 10  1  0  0  0  0
 19 20  2  0  0  0  0
 19 10  1  0  0  0  0
 22 21  2  0  0  0  0
 23 22  1  0  0  0  0
 24 31  1  0  0  0  0
 25 30  1  0  0  0  0
 27 24  1  0  0  0  0
 28 24  1  0  0  0  0
 28 25  1  0  0  0  0
 29 26  1  6  0  0  0
 30 22  1  6  0  0  0
 30 29  1  0  0  0  0
 31 29  1  0  0  0  0
M  END
>  <MODEL>
5

>  <REMARK>
 VINA RESULT:      -8.1      3.348      7.909
  Name = 
  2 active torsions:
  status: ('A' for Active; 'I' for Inactive)
    1  A    between atoms: C_5  and  C_30
    2  A    between atoms: C_10  and  N_16
                            x       y       z     vdW  Elec       q    Type
                         _______ _______ _______ _____ _____    ______ ____

>  <TORSDO>
F 2

$$$$
=
 OpenBabel11112417033D

 31 35  0  0  1  0  0  0  0  0999 V2000
  194.2720  176.6710  145.2650 C   0  0  0  0  0  0  0  0  0  0  0  0
  190.9650  176.8020  143.3800 C   0  0  2  0  0  3  0  0  0  0  0  0
  190.8550  175.5320  142.5480 C   0  0  0  0  0  0  0  0  0  0  0  0
  191.9470  173.6930  141.3830 C   0  0  0  0  0  0  0  0  0  0  0  0
  191.9680  176.6940  144.5040 C   0  0  0  0  0  0  0  0  0  0  0  0
  193.8400  176.4700  146.5790 C   0  0  0  0  0  3  0  0  0  0  0  0
  192.0140  174.8130  142.2120 C   0  0  0  0  0  3  0  0  0  0  0  0
  189.1610  176.4810  145.1280 C   0  0  2  0  0  3  0  0  0  0  0  0
  195.5970  176.7520  144.9930 F   0  0  0  0  0  0  0  0  0  0  0  0
  188.3350  175.8410  142.2970 C   0  0  0  0  0  2  0  0  0  0  0  0
  193.1830  172.9360  141.0540 C   0  0  0  0  0  1  0  0  0  0  0  0
  190.1710  176.4800  146.1360 O   0  0  0  0  0  0  0  0  0  0  0  0
  189.6050  177.3010  143.9060 C   0  0  2  0  0  3  0  0  0  0  0  0
  193.3400  176.7850  144.2310 C   0  0  0  0  0  3  0  0  0  0  0  0
  190.7200  173.2870  140.8570 C   0  0  0  0  0  3  0  0  0  0  0  0
  191.5350  176.5060  145.8310 C   0  0  0  0  0  0  0  0  0  0  0  0
  192.4740  176.3930  146.8610 C   0  0  0  0  0  3  0  0  0  0  0  0
  188.5660  177.2680  142.7860 C   0  0  0  0  0  2  0  0  0  0  0  0
  189.6210  175.1360  141.9790 C   0  0  0  0  0  0  0  0  0  0  0  0
  189.5620  174.0050  141.1560 C   0  0  0  0  0  3  0  0  0  0  0  0
  187.8300  175.4990  147.4450 O   0  0  0  0  0  0  0  0  0  0  0  0
  187.3120  176.4840  146.8510 C   0  0  0  0  0  0  0  0  0  0  0  0
  187.9260  177.0210  145.6780 N   0  0  0  0  0  2  0  0  0  0  0  0
  184.8550  179.0830  145.5820 N   0  0  0  0  0  0  0  0  0  0  0  0
  184.8560  176.7830  146.4410 C   0  0  0  0  0  2  0  0  0  0  0  0
  187.3200  178.9300  148.3010 O   0  0  0  0  0  1  0  0  0  0  0  0
  184.8710  179.8530  144.3520 C   0  0  0  0  0  1  0  0  0  0  0  0
  184.8760  177.6730  145.1960 C   0  0  0  0  0  2  0  0  0  0  0  0
  186.1530  178.6170  147.6030 C   0  0  2  0  0  3  0  0  0  0  0  0
  186.0420  177.1030  147.3570 C   0  0  2  0  0  3  0  0  0  0  0  0
  186.0980  179.3900  146.2860 C   0  0  0  0  0  2  0  0  0  0  0  0
  1  6  1  0  0  0  0
  2  3  1  1  0  0  0
  2 13  1  0  0  0  0
  2  5  1  0  0  0  0
  4  7  2  0  0  0  0
  5 16  2  0  0  0  0
  6 17  2  0  0  0  0
  7  3  1  0  0  0  0
  8 23  1  1  0  0  0
  8 12  1  0  0  0  0
  9  1  1  0  0  0  0
 10 18  1  0  0  0  0
 11  4  1  0  0  0  0
 13 18  1  6  0  0  0
 13  8  1  0  0  0  0
 14  5  1  0  0  0  0
 14  1  2  0  0  0  0
 15 20  2  0  0  0  0
 15  4  1  0  0  0  0
 16 12  1  0  0  0  0
 16 17  1  0  0  0  0
 19 10  1  0  0  0  0
 19  3  2  0  0  0  0
 20 19  1  0  0  0  0
 22 21  2  0  0  0  0
 23 22  1  0  0  0  0
 24 31  1  0  0  0  0
 25 30  1  0  0  0  0
 27 24  1  0  0  0  0
 28 24  1  0  0  0  0
 28 25  1  0  0  0  0
 29 26  1  6  0  0  0
 30 22  1  6  0  0  0
 30 29  1  0  0  0  0
 31 29  1  0  0  0  0
M  END
>  <MODEL>
6

>  <REMARK>
 VINA RESULT:      -8.1      3.222      7.136
  Name = 
  2 active torsions:
  status: ('A' for Active; 'I' for Inactive)
    1  A    between atoms: C_5  and  C_30
    2  A    between atoms: C_10  and  N_16
                            x       y       z     vdW  Elec       q    Type
                         _______ _______ _______ _____ _____    ______ ____

>  <TORSDO>
F 2

$$$$
=
 OpenBabel11112417033D

 31 35  0  0  1  0  0  0  0  0999 V2000
  190.4530  172.0070  142.7120 C   0  0  0  0  0  0  0  0  0  0  0  0
  189.7250  174.6800  145.3260 C   0  0  2  0  0  3  0  0  0  0  0  0
  191.0520  175.3000  145.7370 C   0  0  0  0  0  0  0  0  0  0  0  0
  193.4680  175.1050  145.9760 C   0  0  0  0  0  0  0  0  0  0  0  0
  189.7900  173.9510  144.0050 C   0  0  0  0  0  0  0  0  0  0  0  0
  189.9390  172.5980  141.5540 C   0  0  0  0  0  3  0  0  0  0  0  0
  192.2480  174.5920  145.5340 C   0  0  0  0  0  3  0  0  0  0  0  0
  188.5870  176.5710  144.0820 C   0  0  2  0  0  3  0  0  0  0  0  0
  191.0270  170.7820  142.6490 F   0  0  0  0  0  0  0  0  0  0  0  0
  189.8690  177.3440  146.7020 C   0  0  0  0  0  2  0  0  0  0  0  0
  194.7240  174.3460  145.7360 C   0  0  0  0  0  1  0  0  0  0  0  0
  188.6110  175.7740  142.8980 O   0  0  0  0  0  0  0  0  0  0  0  0
  188.5560  175.6850  145.3390 C   0  0  2  0  0  3  0  0  0  0  0  0
  190.3760  172.6790  143.9340 C   0  0  0  0  0  3  0  0  0  0  0  0
  193.5080  176.3260  146.6500 C   0  0  0  0  0  3  0  0  0  0  0  0
  189.2610  174.5370  142.8390 C   0  0  0  0  0  0  0  0  0  0  0  0
  189.3400  173.8590  141.6190 C   0  0  0  0  0  3  0  0  0  0  0  0
  188.5920  176.5130  146.6230 C   0  0  0  0  0  2  0  0  0  0  0  0
  191.0980  176.5200  146.4550 C   0  0  0  0  0  0  0  0  0  0  0  0
  192.3270  177.0300  146.8860 C   0  0  0  0  0  3  0  0  0  0  0  0
  187.9100  178.3250  141.9440 O   0  0  0  0  0  0  0  0  0  0  0  0
  187.1420  178.3020  142.9440 C   0  0  0  0  0  0  0  0  0  0  0  0
  187.4270  177.4490  144.0540 N   0  0  0  0  0  2  0  0  0  0  0  0
  184.2790  178.8530  145.3740 N   0  0  0  0  0  0  0  0  0  0  0  0
  185.9730  180.1540  144.1660 C   0  0  0  0  0  2  0  0  0  0  0  0
  184.6130  177.3770  142.0270 O   0  0  0  0  0  1  0  0  0  0  0  0
  184.0100  178.2150  146.6500 C   0  0  0  0  0  1  0  0  0  0  0  0
  185.6080  179.4530  145.4760 C   0  0  0  0  0  2  0  0  0  0  0  0
  184.6010  178.3820  142.9960 C   0  0  2  0  0  3  0  0  0  0  0  0
  185.9200  179.1730  142.9900 C   0  0  2  0  0  3  0  0  0  0  0  0
  184.3260  177.7870  144.3760 C   0  0  0  0  0  2  0  0  0  0  0  0
  1 14  1  0  0  0  0
  2  5  1  6  0  0  0
  2 13  1  0  0  0  0
  2  3  1  0  0  0  0
  3 19  1  0  0  0  0
  4 15  2  0  0  0  0
  6 17  1  0  0  0  0
  6  1  2  0  0  0  0
  7  3  2  0  0  0  0
  7  4  1  0  0  0  0
  8 23  1  6  0  0  0
  8 13  1  0  0  0  0
  9  1  1  0  0  0  0
 11  4  1  0  0  0  0
 12  8  1  0  0  0  0
 13 18  1  1  0  0  0
 14  5  2  0  0  0  0
 15 20  1  0  0  0  0
 16 12  1  0  0  0  0
 16  5  1  0  0  0  0
 17 16  2  0  0  0  0
 18 10  1  0  0  0  0
 19 10  1  0  0  0  0
 19 20  2  0  0  0  0
 21 22  2  0  0  0  0
 22 23  1  0  0  0  0
 24 28  1  0  0  0  0
 24 27  1  0  0  0  0
 25 28  1  0  0  0  0
 29 26  1  6  0  0  0
 29 31  1  0  0  0  0
 30 22  1  1  0  0  0
 30 29  1  0  0  0  0
 30 25  1  0  0  0  0
 31 24  1  0  0  0  0
M  END
>  <MODEL>
7

>  <REMARK>
 VINA RESULT:      -7.6      3.423      7.868
  Name = 
  2 active torsions:
  status: ('A' for Active; 'I' for Inactive)
    1  A    between atoms: C_5  and  C_30
    2  A    between atoms: C_10  and  N_16
                            x       y       z     vdW  Elec       q    Type
                         _______ _______ _______ _____ _____    ______ ____

>  <TORSDO>
F 2

$$$$
=
 OpenBabel11112417033D

 31 35  0  0  1  0  0  0  0  0999 V2000
  185.3520  177.7370  146.6880 C   0  0  0  0  0  0  0  0  0  0  0  0
  187.2550  175.7340  144.0660 C   0  0  2  0  0  3  0  0  0  0  0  0
  186.9870  176.3720  142.7110 C   0  0  0  0  0  0  0  0  0  0  0  0
  185.5400  177.7040  141.2740 C   0  0  0  0  0  0  0  0  0  0  0  0
  186.9580  176.6530  145.2280 C   0  0  0  0  0  0  0  0  0  0  0  0
  186.3940  178.3750  147.3670 C   0  0  0  0  0  3  0  0  0  0  0  0
  185.8490  177.1750  142.5280 C   0  0  0  0  0  3  0  0  0  0  0  0
  189.7060  176.2470  144.4500 C   0  0  2  0  0  3  0  0  0  0  0  0
  184.0680  177.9550  147.0610 F   0  0  0  0  0  0  0  0  0  0  0  0
  189.0240  175.2180  141.6960 C   0  0  0  0  0  2  0  0  0  0  0  0
  184.3400  178.5640  141.1070 C   0  0  0  0  0  1  0  0  0  0  0  0
  189.3390  177.0250  145.5890 O   0  0  0  0  0  0  0  0  0  0  0  0
  188.6720  175.1390  144.1870 C   0  0  2  0  0  3  0  0  0  0  0  0
  185.6330  176.8760  145.6240 C   0  0  0  0  0  3  0  0  0  0  0  0
  186.3530  177.4180  140.1770 C   0  0  0  0  0  3  0  0  0  0  0  0
  188.0070  177.2860  145.9230 C   0  0  0  0  0  0  0  0  0  0  0  0
  187.7190  178.1460  146.9870 C   0  0  0  0  0  3  0  0  0  0  0  0
  189.0080  174.3290  142.9360 C   0  0  0  0  0  2  0  0  0  0  0  0
  187.7850  176.0570  141.5840 C   0  0  0  0  0  0  0  0  0  0  0  0
  187.4720  176.5990  140.3330 C   0  0  0  0  0  3  0  0  0  0  0  0
  191.9720  176.6820  142.7830 O   0  0  0  0  0  0  0  0  0  0  0  0
  192.1230  175.9340  143.7870 C   0  0  0  0  0  0  0  0  0  0  0  0
  191.0250  175.6690  144.6600 N   0  0  0  0  0  2  0  0  0  0  0  0
  195.1150  174.8180  141.7350 N   0  0  0  0  0  0  0  0  0  0  0  0
  194.6130  176.2250  143.6820 C   0  0  0  0  0  2  0  0  0  0  0  0
  192.4970  173.1170  143.6700 O   0  0  0  0  0  1  0  0  0  0  0  0
  195.3270  174.8700  140.3000 C   0  0  0  0  0  1  0  0  0  0  0  0
  194.8460  176.1870  142.1700 C   0  0  0  0  0  2  0  0  0  0  0  0
  193.6240  173.9100  143.4490 C   0  0  2  0  0  3  0  0  0  0  0  0
  193.4540  175.3030  144.0780 C   0  0  2  0  0  3  0  0  0  0  0  0
  193.9120  174.0170  141.9520 C   0  0  0  0  0  2  0  0  0  0  0  0
  1  9  1  0  0  0  0
  1  6  1  0  0  0  0
  2  3  1  6  0  0  0
  2 13  1  0  0  0  0
  2  5  1  0  0  0  0
  4  7  2  0  0  0  0
  5 14  1  0  0  0  0
  5 16  2  0  0  0  0
  7  3  1  0  0  0  0
  8 23  1  1  0  0  0
  8 12  1  0  0  0  0
 10 18  1  0  0  0  0
 11  4  1  0  0  0  0
 12 16  1  0  0  0  0
 13 18  1  6  0  0  0
 13  8  1  0  0  0  0
 14  1  2  0  0  0  0
 15 20  2  0  0  0  0
 15  4  1  0  0  0  0
 16 17  1  0  0  0  0
 17  6  2  0  0  0  0
 19 10  1  0  0  0  0
 19  3  2  0  0  0  0
 20 19  1  0  0  0  0
 21 22  2  0  0  0  0
 22 23  1  0  0  0  0
 24 31  1  0  0  0  0
 24 28  1  0  0  0  0
 25 30  1  0  0  0  0
 27 24  1  0  0  0  0
 28 25  1  0  0  0  0
 29 26  1  6  0  0  0
 29 30  1  0  0  0  0
 30 22  1  6  0  0  0
 31 29  1  0  0  0  0
M  END
>  <MODEL>
8

>  <REMARK>
 VINA RESULT:      -7.6      1.555      1.820
  Name = 
  2 active torsions:
  status: ('A' for Active; 'I' for Inactive)
    1  A    between atoms: C_5  and  C_30
    2  A    between atoms: C_10  and  N_16
                            x       y       z     vdW  Elec       q    Type
                         _______ _______ _______ _____ _____    ______ ____

>  <TORSDO>
F 2

$$$$
=
 OpenBabel11112417033D

 31 35  0  0  1  0  0  0  0  0999 V2000
  185.6170  177.2440  146.9430 C   0  0  0  0  0  0  0  0  0  0  0  0
  186.7920  176.2410  143.4610 C   0  0  2  0  0  3  0  0  0  0  0  0
  185.9800  177.0390  142.4500 C   0  0  0  0  0  0  0  0  0  0  0  0
  183.9390  178.2450  141.8900 C   0  0  0  0  0  0  0  0  0  0  0  0
  186.7720  176.8400  144.8470 C   0  0  0  0  0  0  0  0  0  0  0  0
  186.7160  177.9680  147.4140 C   0  0  0  0  0  3  0  0  0  0  0  0
  184.7380  177.5810  142.8220 C   0  0  0  0  0  3  0  0  0  0  0  0
  189.1140  177.2200  143.2070 C   0  0  2  0  0  3  0  0  0  0  0  0
  184.5220  177.0910  147.7250 F   0  0  0  0  0  0  0  0  0  0  0  0
  187.6980  176.5850  140.6200 C   0  0  0  0  0  2  0  0  0  0  0  0
  182.6360  178.8250  142.3090 C   0  0  0  0  0  1  0  0  0  0  0  0
  189.0440  177.6730  144.5590 O   0  0  0  0  0  0  0  0  0  0  0  0
  188.2380  175.9740  143.0000 C   0  0  2  0  0  3  0  0  0  0  0  0
  185.6460  176.6790  145.6650 C   0  0  0  0  0  3  0  0  0  0  0  0
  184.3600  178.3580  140.5650 C   0  0  0  0  0  3  0  0  0  0  0  0
  187.8840  177.5580  145.3300 C   0  0  0  0  0  0  0  0  0  0  0  0
  187.8490  178.1200  146.6100 C   0  0  0  0  0  3  0  0  0  0  0  0
  188.2460  175.5040  141.5460 C   0  0  0  0  0  2  0  0  0  0  0  0
  186.3810  177.1250  141.0950 C   0  0  0  0  0  0  0  0  0  0  0  0
  185.5770  177.8010  140.1710 C   0  0  0  0  0  3  0  0  0  0  0  0
  190.8070  175.4090  144.6060 O   0  0  0  0  0  0  0  0  0  0  0  0
  191.2910  176.0020  143.6040 C   0  0  0  0  0  0  0  0  0  0  0  0
  190.4980  176.9290  142.8620 N   0  0  0  0  0  2  0  0  0  0  0  0
  194.0240  173.5410  144.5410 N   0  0  0  0  0  0  0  0  0  0  0  0
  192.8700  174.3690  142.5400 C   0  0  0  0  0  2  0  0  0  0  0  0
  193.4910  177.1460  144.9980 O   0  0  0  0  0  1  0  0  0  0  0  0
  194.0090  172.4660  145.5170 C   0  0  0  0  0  1  0  0  0  0  0  0
  192.9270  173.2790  143.6120 C   0  0  0  0  0  2  0  0  0  0  0  0
  193.7340  175.9580  144.3070 C   0  0  2  0  0  3  0  0  0  0  0  0
  192.7090  175.7530  143.1780 C   0  0  2  0  0  3  0  0  0  0  0  0
  193.7310  174.7730  145.2700 C   0  0  0  0  0  2  0  0  0  0  0  0
  1  6  1  0  0  0  0
  1  9  1  0  0  0  0
  2  3  1  6  0  0  0
  2  5  1  0  0  0  0
  3  7  1  0  0  0  0
  4 11  1  0  0  0  0
  4  7  2  0  0  0  0
  5 16  2  0  0  0  0
  5 14  1  0  0  0  0
  8 23  1  1  0  0  0
  8 12  1  0  0  0  0
 10 19  1  0  0  0  0
 10 18  1  0  0  0  0
 12 16  1  0  0  0  0
 13 18  1  6  0  0  0
 13  8  1  0  0  0  0
 13  2  1  0  0  0  0
 14  1  2  0  0  0  0
 15  4  1  0  0  0  0
 16 17  1  0  0  0  0
 17  6  2  0  0  0  0
 19  3  2  0  0  0  0
 20 15  2  0  0  0  0
 20 19  1  0  0  0  0
 22 21  2  0  0  0  0
 23 22  1  0  0  0  0
 24 31  1  0  0  0  0
 24 27  1  0  0  0  0
 25 30  1  0  0  0  0
 25 28  1  0  0  0  0
 28 24  1  0  0  0  0
 29 26  1  1  0  0  0
 29 31  1  0  0  0  0
 30 22  1  1  0  0  0
 30 29  1  0  0  0  0
M  END
>  <MODEL>
9

>  <REMARK>
 VINA RESULT:      -7.5      1.757      2.764
  Name = 
  2 active torsions:
  status: ('A' for Active; 'I' for Inactive)
    1  A    between atoms: C_5  and  C_30
    2  A    between atoms: C_10  and  N_16
                            x       y       z     vdW  Elec       q    Type
                         _______ _______ _______ _____ _____    ______ ____

>  <TORSDO>
F 2

$$$$
