=
 OpenBabel11112416203D

 30 35  0  0  1  0  0  0  0  0999 V2000
  186.2740  177.0660  143.7960 C   0  0  0  0  0  0  0  0  0  0  0  0
  184.9620  178.1480  145.6450 C   0  0  0  0  0  0  0  0  0  0  0  0
  189.0450  175.6210  146.4800 N   0  0  0  0  0  2  0  0  0  0  0  0
  187.3860  176.2720  143.3910 C   0  0  0  0  0  0  0  0  0  0  0  0
  185.2790  177.4750  142.7430 C   0  0  0  0  0  2  0  0  0  0  0  0
  187.1410  176.5620  139.7740 O   0  0  0  0  0  0  0  0  0  0  0  0
  189.7610  174.9750  141.7430 C   0  0  1  0  0  3  0  0  0  0  0  0
  186.8850  176.7370  140.9980 C   0  0  0  0  0  0  0  0  0  0  0  0
  190.2970  174.7510  143.1470 C   0  0  2  0  0  3  0  0  0  0  0  0
  189.8660  175.0410  145.5800 C   0  0  0  0  0  0  0  0  0  0  0  0
  185.9620  177.8430  141.4280 C   0  0  1  0  0  3  0  0  0  0  0  0
  187.5290  175.9290  141.9970 N   0  0  0  0  0  0  0  0  0  0  0  0
  184.8080  178.4000  147.0120 C   0  0  0  0  0  3  0  0  0  0  0  0
  190.7170  173.2960  143.1980 C   0  0  0  0  0  2  0  0  0  0  0  0
  190.5250  173.9930  140.8670 C   0  0  0  0  0  2  0  0  0  0  0  0
  184.0180  178.6890  144.7800 O   0  0  0  0  0  1  0  0  0  0  0  0
  188.0630  176.1180  145.7080 C   0  0  0  0  0  0  0  0  0  0  0  0
  185.7200  177.9000  147.9380 C   0  0  0  0  0  3  0  0  0  0  0  0
  186.0580  177.3690  145.1790 C   0  0  0  0  0  0  0  0  0  0  0  0
  188.2870  175.8340  144.3850 C   0  0  0  0  0  0  0  0  0  0  0  0
  190.9480  174.4910  145.9190 O   0  0  0  0  0  0  0  0  0  0  0  0
  189.4470  175.1320  144.2900 N   0  0  0  0  0  0  0  0  0  0  0  0
  191.1770  172.9740  141.7910 C   0  0  0  0  0  2  0  0  0  0  0  0
  187.7070  173.4700  142.1740 C   0  0  0  0  0  1  0  0  0  0  0  0
  186.8020  177.1390  147.5050 C   0  0  0  0  0  3  0  0  0  0  0  0
  186.9770  176.8710  146.1440 C   0  0  0  0  0  0  0  0  0  0  0  0
  188.2670  174.7540  141.5640 C   0  0  2  0  0  3  0  0  0  0  0  0
  184.9290  178.2220  140.3620 C   0  0  0  0  0  2  0  0  0  0  0  0
  182.5130  177.8590  140.1890 C   0  0  0  0  0  2  0  0  0  0  0  0
  183.5380  178.2990  140.9120 C   0  0  0  0  0  3  0  0  0  0  0  0
  1 19  1  0  0  0  0
  2 13  1  0  0  0  0
  4  1  2  0  0  0  0
  4 20  1  0  0  0  0
  5  1  1  0  0  0  0
  6  8  2  0  0  0  0
  7 15  1  6  0  0  0
  7  9  1  0  0  0  0
  8 11  1  0  0  0  0
  8 12  1  0  0  0  0
  9 14  1  1  0  0  0
  9 22  1  0  0  0  0
 10 21  2  0  0  0  0
 10  3  1  0  0  0  0
 11 28  1  6  0  0  0
 11  5  1  0  0  0  0
 12  4  1  0  0  0  0
 13 18  2  0  0  0  0
 15 23  1  0  0  0  0
 16  2  1  0  0  0  0
 17 26  1  0  0  0  0
 17  3  1  0  0  0  0
 19  2  2  0  0  0  0
 19 26  1  0  0  0  0
 20 17  2  0  0  0  0
 22 20  1  0  0  0  0
 22 10  1  0  0  0  0
 23 14  1  0  0  0  0
 25 18  1  0  0  0  0
 26 25  2  0  0  0  0
 27  7  1  0  0  0  0
 27 12  1  0  0  0  0
 27 24  1  1  0  0  0
 28 30  1  0  0  0  0
 29 30  2  0  0  0  0
M  END
>  <MODEL>
1

>  <REMARK>
 VINA RESULT:      -8.8      0.000      0.000
  Name = 
  2 active torsions:
  status: ('A' for Active; 'I' for Inactive)
    1  A    between atoms: C_11  and  C_28
    2  A    between atoms: C_28  and  C_30
                            x       y       z     vdW  Elec       q    Type
                         _______ _______ _______ _____ _____    ______ ____

>  <TORSDO>
F 2

$$$$
=
 OpenBabel11112416203D

 30 35  0  0  1  0  0  0  0  0999 V2000
  189.2900  174.9480  143.8270 C   0  0  0  0  0  0  0  0  0  0  0  0
  190.5080  173.1490  142.5670 C   0  0  0  0  0  0  0  0  0  0  0  0
  187.3380  176.1530  140.4050 N   0  0  0  0  0  2  0  0  0  0  0  0
  188.3420  176.0120  143.8240 C   0  0  0  0  0  0  0  0  0  0  0  0
  189.8850  174.5380  145.1480 C   0  0  0  0  0  2  0  0  0  0  0  0
  188.7810  177.3170  147.1910 O   0  0  0  0  0  0  0  0  0  0  0  0
  186.7350  178.6600  144.4950 C   0  0  1  0  0  3  0  0  0  0  0  0
  188.9560  176.6060  146.1620 C   0  0  0  0  0  0  0  0  0  0  0  0
  186.3840  178.5370  143.0210 C   0  0  2  0  0  3  0  0  0  0  0  0
  186.6630  177.1860  140.9500 C   0  0  0  0  0  0  0  0  0  0  0  0
  190.1810  175.7430  146.0370 C   0  0  1  0  0  3  0  0  0  0  0  0
  188.0240  176.6690  145.0690 N   0  0  0  0  0  0  0  0  0  0  0  0
  190.7390  172.4810  141.3600 C   0  0  0  0  0  3  0  0  0  0  0  0
  184.8800  178.7010  142.9430 C   0  0  0  0  0  2  0  0  0  0  0  0
  185.6720  179.5780  145.0780 C   0  0  0  0  0  2  0  0  0  0  0  0
  191.2200  172.7250  143.6830 O   0  0  0  0  0  1  0  0  0  0  0  0
  188.0090  175.6510  141.4560 C   0  0  0  0  0  0  0  0  0  0  0  0
  190.0710  172.8570  140.1980 C   0  0  0  0  0  3  0  0  0  0  0  0
  189.5800  174.2250  142.6260 C   0  0  0  0  0  0  0  0  0  0  0  0
  187.7350  176.3590  142.5990 C   0  0  0  0  0  0  0  0  0  0  0  0
  185.9370  177.9500  140.2590 O   0  0  0  0  0  0  0  0  0  0  0  0
  186.8600  177.3500  142.2850 N   0  0  0  0  0  0  0  0  0  0  0  0
  184.5330  179.6520  144.0710 C   0  0  0  0  0  2  0  0  0  0  0  0
  185.5640  176.4300  145.0670 C   0  0  0  0  0  1  0  0  0  0  0  0
  189.1610  173.9100  140.2290 C   0  0  0  0  0  3  0  0  0  0  0  0
  188.9120  174.5920  141.4240 C   0  0  0  0  0  0  0  0  0  0  0  0
  186.7610  177.3560  145.2780 C   0  0  2  0  0  3  0  0  0  0  0  0
  190.7530  175.3000  147.3870 C   0  0  0  0  0  2  0  0  0  0  0  0
  192.8870  176.2630  146.6660 C   0  0  0  0  0  2  0  0  0  0  0  0
  192.0920  175.9070  147.6710 C   0  0  0  0  0  3  0  0  0  0  0  0
  1  5  1  0  0  0  0
  2 19  1  0  0  0  0
  2 16  1  0  0  0  0
  3 10  1  0  0  0  0
  3 17  1  0  0  0  0
  4  1  1  0  0  0  0
  4 12  1  0  0  0  0
  5 11  1  0  0  0  0
  7 15  1  1  0  0  0
  7 27  1  0  0  0  0
  8  6  2  0  0  0  0
  9 14  1  1  0  0  0
  9  7  1  0  0  0  0
 10 22  1  0  0  0  0
 11  8  1  0  0  0  0
 11 28  1  1  0  0  0
 12 27  1  0  0  0  0
 12  8  1  0  0  0  0
 13  2  2  0  0  0  0
 14 23  1  0  0  0  0
 17 20  1  0  0  0  0
 18 25  2  0  0  0  0
 18 13  1  0  0  0  0
 19  1  2  0  0  0  0
 20  4  2  0  0  0  0
 21 10  2  0  0  0  0
 22 20  1  0  0  0  0
 22  9  1  0  0  0  0
 23 15  1  0  0  0  0
 25 26  1  0  0  0  0
 26 17  2  0  0  0  0
 26 19  1  0  0  0  0
 27 24  1  6  0  0  0
 28 30  1  0  0  0  0
 29 30  2  0  0  0  0
M  END
>  <MODEL>
2

>  <REMARK>
 VINA RESULT:      -8.3      1.945      7.231
  Name = 
  2 active torsions:
  status: ('A' for Active; 'I' for Inactive)
    1  A    between atoms: C_11  and  C_28
    2  A    between atoms: C_28  and  C_30
                            x       y       z     vdW  Elec       q    Type
                         _______ _______ _______ _____ _____    ______ ____

>  <TORSDO>
F 2

$$$$
=
 OpenBabel11112416203D

 30 35  0  0  1  0  0  0  0  0999 V2000
  187.4600  176.8040  144.3290 C   0  0  0  0  0  0  0  0  0  0  0  0
  185.3660  177.9460  145.1190 C   0  0  0  0  0  0  0  0  0  0  0  0
  189.3300  177.5350  147.9260 N   0  0  0  0  0  2  0  0  0  0  0  0
  188.7890  176.3690  144.6000 C   0  0  0  0  0  0  0  0  0  0  0  0
  186.8450  176.4140  143.0110 C   0  0  0  0  0  2  0  0  0  0  0  0
  189.8010  175.2010  141.3070 O   0  0  0  0  0  0  0  0  0  0  0  0
  191.8220  175.4930  144.3210 C   0  0  1  0  0  3  0  0  0  0  0  0
  189.0910  175.7090  142.2180 C   0  0  0  0  0  0  0  0  0  0  0  0
  191.8540  176.0080  145.7510 C   0  0  2  0  0  3  0  0  0  0  0  0
  190.5250  176.9990  147.6070 C   0  0  0  0  0  0  0  0  0  0  0  0
  187.8540  176.4890  141.8680 C   0  0  1  0  0  3  0  0  0  0  0  0
  189.4950  175.6120  143.5940 N   0  0  0  0  0  0  0  0  0  0  0  0
  184.6800  178.6110  146.1410 C   0  0  0  0  0  3  0  0  0  0  0  0
  192.5390  174.9260  146.5610 C   0  0  0  0  0  2  0  0  0  0  0  0
  193.0460  174.6000  144.1960 C   0  0  0  0  0  2  0  0  0  0  0  0
  184.7010  177.7570  143.9130 O   0  0  0  0  0  1  0  0  0  0  0  0
  188.6060  177.3290  146.8120 C   0  0  0  0  0  0  0  0  0  0  0  0
  185.2860  178.8460  147.3720 C   0  0  0  0  0  3  0  0  0  0  0  0
  186.7000  177.4960  145.3260 C   0  0  0  0  0  0  0  0  0  0  0  0
  189.3470  176.6780  145.8580 C   0  0  0  0  0  0  0  0  0  0  0  0
  191.5070  177.0350  148.3970 O   0  0  0  0  0  0  0  0  0  0  0  0
  190.5880  176.4530  146.3630 N   0  0  0  0  0  0  0  0  0  0  0  0
  193.5330  174.2960  145.6070 C   0  0  0  0  0  2  0  0  0  0  0  0
  190.1390  173.6280  144.9200 C   0  0  0  0  0  1  0  0  0  0  0  0
  186.5910  178.4180  147.5970 C   0  0  0  0  0  3  0  0  0  0  0  0
  187.2980  177.7500  146.5920 C   0  0  0  0  0  0  0  0  0  0  0  0
  190.5810  174.7060  143.9320 C   0  0  2  0  0  3  0  0  0  0  0  0
  187.2150  176.0560  140.5450 C   0  0  0  0  0  2  0  0  0  0  0  0
  185.5960  177.8630  140.2110 C   0  0  0  0  0  2  0  0  0  0  0  0
  186.6660  177.2110  139.7660 C   0  0  0  0  0  3  0  0  0  0  0  0
  1  4  2  0  0  0  0
  1 19  1  0  0  0  0
  2 19  2  0  0  0  0
  2 13  1  0  0  0  0
  4 20  1  0  0  0  0
  5  1  1  0  0  0  0
  6  8  2  0  0  0  0
  7 15  1  1  0  0  0
  7  9  1  0  0  0  0
  8 12  1  0  0  0  0
  9 22  1  0  0  0  0
  9 14  1  1  0  0  0
 10  3  1  0  0  0  0
 10 21  2  0  0  0  0
 11 28  1  6  0  0  0
 11  8  1  0  0  0  0
 11  5  1  0  0  0  0
 12 27  1  0  0  0  0
 12  4  1  0  0  0  0
 13 18  2  0  0  0  0
 15 23  1  0  0  0  0
 16  2  1  0  0  0  0
 17  3  1  0  0  0  0
 18 25  1  0  0  0  0
 19 26  1  0  0  0  0
 20 22  1  0  0  0  0
 20 17  2  0  0  0  0
 22 10  1  0  0  0  0
 23 14  1  0  0  0  0
 26 17  1  0  0  0  0
 26 25  2  0  0  0  0
 27  7  1  0  0  0  0
 27 24  1  1  0  0  0
 30 29  2  0  0  0  0
 30 28  1  0  0  0  0
M  END
>  <MODEL>
3

>  <REMARK>
 VINA RESULT:      -8.3      1.866      2.734
  Name = 
  2 active torsions:
  status: ('A' for Active; 'I' for Inactive)
    1  A    between atoms: C_11  and  C_28
    2  A    between atoms: C_28  and  C_30
                            x       y       z     vdW  Elec       q    Type
                         _______ _______ _______ _____ _____    ______ ____

>  <TORSDO>
F 2

$$$$
=
 OpenBabel11112416203D

 30 35  0  0  1  0  0  0  0  0999 V2000
  191.3690  175.4010  143.3710 C   0  0  0  0  0  0  0  0  0  0  0  0
  193.6860  175.1100  144.2960 C   0  0  0  0  0  0  0  0  0  0  0  0
  190.1190  177.2540  146.8300 N   0  0  0  0  0  2  0  0  0  0  0  0
  190.0410  175.8900  143.5360 C   0  0  0  0  0  0  0  0  0  0  0  0
  191.7420  174.8110  142.0360 C   0  0  0  0  0  2  0  0  0  0  0  0
  188.4450  174.5310  140.5640 O   0  0  0  0  0  0  0  0  0  0  0  0
  186.9070  176.3170  143.3400 C   0  0  1  0  0  3  0  0  0  0  0  0
  189.3340  174.7750  141.4260 C   0  0  0  0  0  0  0  0  0  0  0  0
  187.1390  176.8960  144.7260 C   0  0  2  0  0  3  0  0  0  0  0  0
  188.8290  177.4240  146.4750 C   0  0  0  0  0  0  0  0  0  0  0  0
  190.6080  173.9760  141.4470 C   0  0  1  0  0  3  0  0  0  0  0  0
  189.1090  175.7670  142.4420 N   0  0  0  0  0  0  0  0  0  0  0  0
  194.5890  175.3110  145.3450 C   0  0  0  0  0  3  0  0  0  0  0  0
  186.4270  178.2330  144.7360 C   0  0  0  0  0  2  0  0  0  0  0  0
  185.5660  176.8800  142.8960 C   0  0  0  0  0  2  0  0  0  0  0  0
  194.1510  174.4470  143.1660 O   0  0  0  0  0  1  0  0  0  0  0  0
  190.6500  176.6660  145.7450 C   0  0  0  0  0  0  0  0  0  0  0  0
  194.1920  175.9580  146.5130 C   0  0  0  0  0  3  0  0  0  0  0  0
  192.3440  175.5670  144.4060 C   0  0  0  0  0  0  0  0  0  0  0  0
  189.7060  176.4990  144.7640 C   0  0  0  0  0  0  0  0  0  0  0  0
  187.9760  177.9160  147.2620 O   0  0  0  0  0  0  0  0  0  0  0  0
  188.5250  176.9910  145.2220 N   0  0  0  0  0  0  0  0  0  0  0  0
  185.2370  178.0470  143.8170 C   0  0  0  0  0  2  0  0  0  0  0  0
  188.3830  178.1200  142.2260 C   0  0  0  0  0  1  0  0  0  0  0  0
  192.8830  176.4110  146.6460 C   0  0  0  0  0  3  0  0  0  0  0  0
  191.9620  176.2230  145.6100 C   0  0  0  0  0  0  0  0  0  0  0  0
  187.9650  176.6520  142.3000 C   0  0  2  0  0  3  0  0  0  0  0  0
  190.9970  173.4160  140.0750 C   0  0  0  0  0  2  0  0  0  0  0  0
  190.4780  171.2420  141.0770 C   0  0  0  0  0  2  0  0  0  0  0  0
  190.8710  171.9250  140.0060 C   0  0  0  0  0  3  0  0  0  0  0  0
  1  4  2  0  0  0  0
  1 19  1  0  0  0  0
  2 19  2  0  0  0  0
  2 13  1  0  0  0  0
  4 20  1  0  0  0  0
  5  1  1  0  0  0  0
  6  8  2  0  0  0  0
  7 15  1  6  0  0  0
  7  9  1  0  0  0  0
  8 11  1  0  0  0  0
  8 12  1  0  0  0  0
  9 14  1  6  0  0  0
  9 22  1  0  0  0  0
 10  3  1  0  0  0  0
 10 21  2  0  0  0  0
 11 28  1  6  0  0  0
 11  5  1  0  0  0  0
 12  4  1  0  0  0  0
 13 18  2  0  0  0  0
 15 23  1  0  0  0  0
 16  2  1  0  0  0  0
 17  3  1  0  0  0  0
 18 25  1  0  0  0  0
 19 26  1  0  0  0  0
 20 22  1  0  0  0  0
 20 17  2  0  0  0  0
 22 10  1  0  0  0  0
 23 14  1  0  0  0  0
 26 17  1  0  0  0  0
 26 25  2  0  0  0  0
 27 24  1  1  0  0  0
 27 12  1  0  0  0  0
 27  7  1  0  0  0  0
 30 28  1  0  0  0  0
 30 29  2  0  0  0  0
M  END
>  <MODEL>
4

>  <REMARK>
 VINA RESULT:      -8.0      2.414      6.217
  Name = 
  2 active torsions:
  status: ('A' for Active; 'I' for Inactive)
    1  A    between atoms: C_11  and  C_28
    2  A    between atoms: C_28  and  C_30
                            x       y       z     vdW  Elec       q    Type
                         _______ _______ _______ _____ _____    ______ ____

>  <TORSDO>
F 2

$$$$
=
 OpenBabel11112416203D

 30 35  0  0  1  0  0  0  0  0999 V2000
  187.3400  177.0160  143.5830 C   0  0  0  0  0  0  0  0  0  0  0  0
  185.6860  178.3240  142.2180 C   0  0  0  0  0  0  0  0  0  0  0  0
  188.5660  174.9160  140.2590 N   0  0  0  0  0  2  0  0  0  0  0  0
  188.3660  176.0290  143.6410 C   0  0  0  0  0  0  0  0  0  0  0  0
  187.0250  177.7800  144.8430 C   0  0  0  0  0  2  0  0  0  0  0  0
  188.8490  175.7650  147.2360 O   0  0  0  0  0  0  0  0  0  0  0  0
  190.3480  173.7500  144.6000 C   0  0  1  0  0  3  0  0  0  0  0  0
  188.3710  176.1350  146.1270 C   0  0  0  0  0  0  0  0  0  0  0  0
  190.3360  173.4430  143.1110 C   0  0  2  0  0  3  0  0  0  0  0  0
  189.4510  174.1120  140.8840 C   0  0  0  0  0  0  0  0  0  0  0  0
  187.0680  176.8830  146.0770 C   0  0  1  0  0  3  0  0  0  0  0  0
  189.0270  175.7800  144.8990 N   0  0  0  0  0  0  0  0  0  0  0  0
  185.1170  178.5970  140.9700 C   0  0  0  0  0  3  0  0  0  0  0  0
  191.7910  173.3090  142.7090 C   0  0  0  0  0  2  0  0  0  0  0  0
  191.6050  173.0790  145.1310 C   0  0  0  0  0  2  0  0  0  0  0  0
  185.2100  179.0360  143.3130 O   0  0  0  0  0  1  0  0  0  0  0  0
  188.1070  175.6850  141.2610 C   0  0  0  0  0  0  0  0  0  0  0  0
  185.5350  177.9160  139.8300 C   0  0  0  0  0  3  0  0  0  0  0  0
  186.7080  177.3420  142.3400 C   0  0  0  0  0  0  0  0  0  0  0  0
  188.7070  175.3550  142.4490 C   0  0  0  0  0  0  0  0  0  0  0  0
  190.0740  173.2010  140.2740 O   0  0  0  0  0  0  0  0  0  0  0  0
  189.5840  174.3430  142.2170 N   0  0  0  0  0  0  0  0  0  0  0  0
  192.4830  172.7460  143.9320 C   0  0  0  0  0  2  0  0  0  0  0  0
  191.3830  176.0840  144.2160 C   0  0  0  0  0  1  0  0  0  0  0  0
  186.5310  176.9480  139.9250 C   0  0  0  0  0  3  0  0  0  0  0  0
  187.1170  176.6580  141.1620 C   0  0  0  0  0  0  0  0  0  0  0  0
  190.3690  175.2250  144.9680 C   0  0  2  0  0  3  0  0  0  0  0  0
  186.7780  177.6880  147.3480 C   0  0  0  0  0  2  0  0  0  0  0  0
  184.4410  178.2910  146.9310 C   0  0  0  0  0  2  0  0  0  0  0  0
  185.6880  178.6950  147.1540 C   0  0  0  0  0  3  0  0  0  0  0  0
  1  4  1  0  0  0  0
  1  5  1  0  0  0  0
  2 19  1  0  0  0  0
  2 16  1  0  0  0  0
  3 10  1  0  0  0  0
  3 17  1  0  0  0  0
  4 12  1  0  0  0  0
  5 11  1  0  0  0  0
  7 27  1  0  0  0  0
  7 15  1  6  0  0  0
  8  6  2  0  0  0  0
  9 14  1  6  0  0  0
  9  7  1  0  0  0  0
 10 22  1  0  0  0  0
 11  8  1  0  0  0  0
 11 28  1  1  0  0  0
 12 27  1  0  0  0  0
 12  8  1  0  0  0  0
 13  2  2  0  0  0  0
 14 23  1  0  0  0  0
 17 20  1  0  0  0  0
 18 25  2  0  0  0  0
 18 13  1  0  0  0  0
 19  1  2  0  0  0  0
 20  4  2  0  0  0  0
 21 10  2  0  0  0  0
 22 20  1  0  0  0  0
 22  9  1  0  0  0  0
 23 15  1  0  0  0  0
 25 26  1  0  0  0  0
 26 17  2  0  0  0  0
 26 19  1  0  0  0  0
 27 24  1  6  0  0  0
 29 30  2  0  0  0  0
 30 28  1  0  0  0  0
M  END
>  <MODEL>
5

>  <REMARK>
 VINA RESULT:      -8.0      1.563      4.808
  Name = 
  2 active torsions:
  status: ('A' for Active; 'I' for Inactive)
    1  A    between atoms: C_11  and  C_28
    2  A    between atoms: C_28  and  C_30
                            x       y       z     vdW  Elec       q    Type
                         _______ _______ _______ _____ _____    ______ ____

>  <TORSDO>
F 2

$$$$
=
 OpenBabel11112416203D

 30 35  0  0  1  0  0  0  0  0999 V2000
  189.7860  175.5900  143.9630 C   0  0  0  0  0  0  0  0  0  0  0  0
  191.8050  174.9130  145.2960 C   0  0  0  0  0  0  0  0  0  0  0  0
  188.0840  177.3680  147.2650 N   0  0  0  0  0  2  0  0  0  0  0  0
  188.5250  176.2490  143.9080 C   0  0  0  0  0  0  0  0  0  0  0  0
  190.3520  175.0420  142.6790 C   0  0  0  0  0  2  0  0  0  0  0  0
  187.4260  175.3290  140.5650 O   0  0  0  0  0  0  0  0  0  0  0  0
  185.5790  177.1270  143.1370 C   0  0  1  0  0  3  0  0  0  0  0  0
  188.1390  175.3870  141.6050 C   0  0  0  0  0  0  0  0  0  0  0  0
  185.5870  177.5750  144.5900 C   0  0  2  0  0  3  0  0  0  0  0  0
  186.9280  177.7420  146.6790 C   0  0  0  0  0  0  0  0  0  0  0  0
  189.2700  174.4170  141.8020 C   0  0  1  0  0  3  0  0  0  0  0  0
  187.8330  176.3320  142.6440 N   0  0  0  0  0  0  0  0  0  0  0  0
  192.4870  174.9150  146.5170 C   0  0  0  0  0  3  0  0  0  0  0  0
  185.0620  178.9960  144.5830 C   0  0  0  0  0  2  0  0  0  0  0  0
  184.4410  177.9030  142.4920 C   0  0  0  0  0  2  0  0  0  0  0  0
  192.4080  174.2670  144.2230 O   0  0  0  0  0  1  0  0  0  0  0  0
  188.7530  176.7840  146.2560 C   0  0  0  0  0  0  0  0  0  0  0  0
  191.9400  175.5320  147.6390 C   0  0  0  0  0  3  0  0  0  0  0  0
  190.5370  175.5470  145.1810 C   0  0  0  0  0  0  0  0  0  0  0  0
  188.0200  176.8180  145.0960 C   0  0  0  0  0  0  0  0  0  0  0  0
  185.9990  178.2960  147.3250 O   0  0  0  0  0  0  0  0  0  0  0  0
  186.8400  177.4400  145.3560 N   0  0  0  0  0  0  0  0  0  0  0  0
  184.0760  179.0410  143.4350 C   0  0  0  0  0  2  0  0  0  0  0  0
  187.4680  178.7730  142.5110 C   0  0  0  0  0  1  0  0  0  0  0  0
  190.6990  176.1560  147.5520 C   0  0  0  0  0  3  0  0  0  0  0  0
  189.9980  176.1690  146.3420 C   0  0  0  0  0  0  0  0  0  0  0  0
  186.8640  177.3780  142.3630 C   0  0  2  0  0  3  0  0  0  0  0  0
  189.8630  173.8990  140.4880 C   0  0  0  0  0  2  0  0  0  0  0  0
  190.5170  171.5510  140.7300 C   0  0  0  0  0  2  0  0  0  0  0  0
  189.6270  172.4340  140.2880 C   0  0  0  0  0  3  0  0  0  0  0  0
  1 19  1  0  0  0  0
  2 13  1  0  0  0  0
  4  1  2  0  0  0  0
  4 20  1  0  0  0  0
  5  1  1  0  0  0  0
  6  8  2  0  0  0  0
  7 15  1  6  0  0  0
  7  9  1  0  0  0  0
  8 11  1  0  0  0  0
  8 12  1  0  0  0  0
  9 14  1  6  0  0  0
  9 22  1  0  0  0  0
 10  3  1  0  0  0  0
 10 21  2  0  0  0  0
 11 28  1  6  0  0  0
 11  5  1  0  0  0  0
 12  4  1  0  0  0  0
 13 18  2  0  0  0  0
 15 23  1  0  0  0  0
 16  2  1  0  0  0  0
 17 26  1  0  0  0  0
 17  3  1  0  0  0  0
 19  2  2  0  0  0  0
 19 26  1  0  0  0  0
 20 22  1  0  0  0  0
 20 17  2  0  0  0  0
 22 10  1  0  0  0  0
 23 14  1  0  0  0  0
 25 18  1  0  0  0  0
 26 25  2  0  0  0  0
 27 24  1  1  0  0  0
 27 12  1  0  0  0  0
 27  7  1  0  0  0  0
 30 28  1  0  0  0  0
 30 29  2  0  0  0  0
M  END
>  <MODEL>
6

>  <REMARK>
 VINA RESULT:      -7.9      1.733      5.753
  Name = 
  2 active torsions:
  status: ('A' for Active; 'I' for Inactive)
    1  A    between atoms: C_11  and  C_28
    2  A    between atoms: C_28  and  C_30
                            x       y       z     vdW  Elec       q    Type
                         _______ _______ _______ _____ _____    ______ ____

>  <TORSDO>
F 2

$$$$
=
 OpenBabel11112416203D

 30 35  0  0  1  0  0  0  0  0999 V2000
  189.1740  176.4090  145.3630 C   0  0  0  0  0  0  0  0  0  0  0  0
  187.0510  177.6080  145.9640 C   0  0  0  0  0  0  0  0  0  0  0  0
  187.6100  175.2640  141.7290 N   0  0  0  0  0  2  0  0  0  0  0  0
  189.9210  175.6480  144.4180 C   0  0  0  0  0  0  0  0  0  0  0  0
  189.8700  176.8420  146.6270 C   0  0  0  0  0  2  0  0  0  0  0  0
  192.8520  174.7990  146.3970 O   0  0  0  0  0  0  0  0  0  0  0  0
  191.9730  173.6560  143.0530 C   0  0  1  0  0  3  0  0  0  0  0  0
  191.7220  175.2740  146.0940 C   0  0  0  0  0  0  0  0  0  0  0  0
  190.8870  173.6440  141.9890 C   0  0  2  0  0  3  0  0  0  0  0  0
  188.6690  174.5420  141.3090 C   0  0  0  0  0  0  0  0  0  0  0  0
  190.7880  175.7510  147.1720 C   0  0  1  0  0  3  0  0  0  0  0  0
  191.2860  175.2960  144.7250 N   0  0  0  0  0  0  0  0  0  0  0  0
  185.7560  178.0000  145.6060 C   0  0  0  0  0  3  0  0  0  0  0  0
  191.6020  173.8750  140.6730 C   0  0  0  0  0  2  0  0  0  0  0  0
  193.2230  173.1530  142.3480 C   0  0  0  0  0  2  0  0  0  0  0  0
  187.5160  177.9920  147.2170 O   0  0  0  0  0  1  0  0  0  0  0  0
  188.0200  175.7220  142.9240 C   0  0  0  0  0  0  0  0  0  0  0  0
  185.2190  177.6440  144.3730 C   0  0  0  0  0  3  0  0  0  0  0  0
  187.8410  176.8390  145.0660 C   0  0  0  0  0  0  0  0  0  0  0  0
  189.2920  175.2940  143.2050 C   0  0  0  0  0  0  0  0  0  0  0  0
  188.6550  173.9030  140.2220 O   0  0  0  0  0  0  0  0  0  0  0  0
  189.7250  174.5350  142.1640 N   0  0  0  0  0  0  0  0  0  0  0  0
  192.9620  173.2330  140.8500 C   0  0  0  0  0  2  0  0  0  0  0  0
  192.4220  176.1770  142.7140 C   0  0  0  0  0  1  0  0  0  0  0  0
  185.9710  176.8880  143.4790 C   0  0  0  0  0  3  0  0  0  0  0  0
  187.2690  176.4860  143.8120 C   0  0  0  0  0  0  0  0  0  0  0  0
  192.2610  175.0090  143.6860 C   0  0  2  0  0  3  0  0  0  0  0  0
  191.5100  176.2250  148.4370 C   0  0  0  0  0  2  0  0  0  0  0  0
  191.5540  178.1460  149.9570 C   0  0  0  0  0  2  0  0  0  0  0  0
  191.2030  177.6520  148.7740 C   0  0  0  0  0  3  0  0  0  0  0  0
  1  5  1  0  0  0  0
  2 16  1  0  0  0  0
  3 17  1  0  0  0  0
  4 12  1  0  0  0  0
  4  1  2  0  0  0  0
  5 11  1  0  0  0  0
  7 15  1  6  0  0  0
  7 27  1  0  0  0  0
  8  6  2  0  0  0  0
  8 11  1  0  0  0  0
  9 14  1  6  0  0  0
  9 22  1  0  0  0  0
  9  7  1  0  0  0  0
 10  3  1  0  0  0  0
 10 22  1  0  0  0  0
 11 28  1  1  0  0  0
 12  8  1  0  0  0  0
 13  2  1  0  0  0  0
 14 23  1  0  0  0  0
 17 20  2  0  0  0  0
 17 26  1  0  0  0  0
 18 13  2  0  0  0  0
 19  1  1  0  0  0  0
 19  2  2  0  0  0  0
 20  4  1  0  0  0  0
 21 10  2  0  0  0  0
 22 20  1  0  0  0  0
 23 15  1  0  0  0  0
 25 26  2  0  0  0  0
 25 18  1  0  0  0  0
 26 19  1  0  0  0  0
 27 24  1  6  0  0  0
 27 12  1  0  0  0  0
 28 30  1  0  0  0  0
 30 29  2  0  0  0  0
M  END
>  <MODEL>
7

>  <REMARK>
 VINA RESULT:      -7.9      2.212      5.560
  Name = 
  2 active torsions:
  status: ('A' for Active; 'I' for Inactive)
    1  A    between atoms: C_11  and  C_28
    2  A    between atoms: C_28  and  C_30
                            x       y       z     vdW  Elec       q    Type
                         _______ _______ _______ _____ _____    ______ ____

>  <TORSDO>
F 2

$$$$
=
 OpenBabel11112416203D

 30 35  0  0  1  0  0  0  0  0999 V2000
  191.6290  174.7280  143.8760 C   0  0  0  0  0  0  0  0  0  0  0  0
  192.4910  173.4430  141.8980 C   0  0  0  0  0  0  0  0  0  0  0  0
  187.9230  175.1260  142.1220 N   0  0  0  0  0  2  0  0  0  0  0  0
  190.5490  175.3960  144.5210 C   0  0  0  0  0  0  0  0  0  0  0  0
  192.9170  174.5710  144.6410 C   0  0  0  0  0  2  0  0  0  0  0  0
  192.2570  176.8250  147.3960 O   0  0  0  0  0  0  0  0  0  0  0  0
  188.8120  177.3320  146.3320 C   0  0  1  0  0  3  0  0  0  0  0  0
  192.0760  176.2030  146.3130 C   0  0  0  0  0  0  0  0  0  0  0  0
  187.8020  177.0720  145.2260 C   0  0  2  0  0  3  0  0  0  0  0  0
  187.3550  175.8690  143.0940 C   0  0  0  0  0  0  0  0  0  0  0  0
  193.2500  175.8170  145.4560 C   0  0  1  0  0  3  0  0  0  0  0  0
  190.7440  175.9220  145.8500 N   0  0  0  0  0  0  0  0  0  0  0  0
  192.2490  172.8780  140.6410 C   0  0  0  0  0  3  0  0  0  0  0  0
  186.5110  176.7030  145.9300 C   0  0  0  0  0  2  0  0  0  0  0  0
  187.9890  177.8340  147.5080 C   0  0  0  0  0  2  0  0  0  0  0  0
  193.7700  173.3100  142.4270 O   0  0  0  0  0  1  0  0  0  0  0  0
  189.1590  174.9050  142.6030 C   0  0  0  0  0  0  0  0  0  0  0  0
  190.9960  172.9800  140.0420 C   0  0  0  0  0  3  0  0  0  0  0  0
  191.4540  174.1320  142.5860 C   0  0  0  0  0  0  0  0  0  0  0  0
  189.3210  175.4910  143.8330 C   0  0  0  0  0  0  0  0  0  0  0  0
  186.1840  176.3220  142.9920 O   0  0  0  0  0  0  0  0  0  0  0  0
  188.1580  176.1130  144.1640 N   0  0  0  0  0  0  0  0  0  0  0  0
  186.5330  177.4920  147.2230 C   0  0  0  0  0  2  0  0  0  0  0  0
  188.8540  174.8440  147.0230 C   0  0  0  0  0  1  0  0  0  0  0  0
  189.9670  173.6520  140.6950 C   0  0  0  0  0  3  0  0  0  0  0  0
  190.1840  174.2240  141.9530 C   0  0  0  0  0  0  0  0  0  0  0  0
  189.6370  176.1310  146.7680 C   0  0  2  0  0  3  0  0  0  0  0  0
  194.5450  175.6210  146.2510 C   0  0  0  0  0  2  0  0  0  0  0  0
  196.3730  174.0030  146.0600 C   0  0  0  0  0  2  0  0  0  0  0  0
  195.5990  174.9040  145.4650 C   0  0  0  0  0  3  0  0  0  0  0  0
  1  4  1  0  0  0  0
  1  5  1  0  0  0  0
  2 16  1  0  0  0  0
  2 19  1  0  0  0  0
  3 17  1  0  0  0  0
  3 10  1  0  0  0  0
  4 12  1  0  0  0  0
  5 11  1  0  0  0  0
  7 27  1  0  0  0  0
  7 15  1  1  0  0  0
  8  6  2  0  0  0  0
  9 14  1  1  0  0  0
  9  7  1  0  0  0  0
 10 22  1  0  0  0  0
 11 28  1  1  0  0  0
 11  8  1  0  0  0  0
 12  8  1  0  0  0  0
 12 27  1  0  0  0  0
 13  2  2  0  0  0  0
 14 23  1  0  0  0  0
 17 20  1  0  0  0  0
 18 13  1  0  0  0  0
 18 25  2  0  0  0  0
 19  1  2  0  0  0  0
 20 22  1  0  0  0  0
 20  4  2  0  0  0  0
 21 10  2  0  0  0  0
 22  9  1  0  0  0  0
 23 15  1  0  0  0  0
 25 26  1  0  0  0  0
 26 19  1  0  0  0  0
 26 17  2  0  0  0  0
 27 24  1  6  0  0  0
 30 29  2  0  0  0  0
 30 28  1  0  0  0  0
M  END
>  <MODEL>
8

>  <REMARK>
 VINA RESULT:      -7.9      2.578      7.917
  Name = 
  2 active torsions:
  status: ('A' for Active; 'I' for Inactive)
    1  A    between atoms: C_11  and  C_28
    2  A    between atoms: C_28  and  C_30
                            x       y       z     vdW  Elec       q    Type
                         _______ _______ _______ _____ _____    ______ ____

>  <TORSDO>
F 2

$$$$
=
 OpenBabel11112416203D

 30 35  0  0  1  0  0  0  0  0999 V2000
  187.5310  176.9420  142.2530 C   0  0  0  0  0  0  0  0  0  0  0  0
  186.6570  176.9660  139.8980 C   0  0  0  0  0  0  0  0  0  0  0  0
  189.8280  173.6140  141.4660 N   0  0  0  0  0  2  0  0  0  0  0  0
  188.3760  176.3490  143.2350 C   0  0  0  0  0  0  0  0  0  0  0  0
  186.7950  178.2030  142.6240 C   0  0  0  0  0  2  0  0  0  0  0  0
  187.3650  178.1980  146.2000 O   0  0  0  0  0  0  0  0  0  0  0  0
  189.6430  175.3660  145.9680 C   0  0  1  0  0  3  0  0  0  0  0  0
  187.3960  177.8040  145.0010 C   0  0  0  0  0  0  0  0  0  0  0  0
  190.2030  174.2940  145.0480 C   0  0  2  0  0  3  0  0  0  0  0  0
  190.3300  173.4580  142.7080 C   0  0  0  0  0  0  0  0  0  0  0  0
  186.2780  178.1570  144.0590 C   0  0  1  0  0  3  0  0  0  0  0  0
  188.4610  176.9550  144.5420 N   0  0  0  0  0  0  0  0  0  0  0  0
  186.6530  176.4020  138.6180 C   0  0  0  0  0  3  0  0  0  0  0  0
  191.6840  174.2200  145.3600 C   0  0  0  0  0  2  0  0  0  0  0  0
  190.5320  175.3320  147.2010 C   0  0  0  0  0  2  0  0  0  0  0  0
  185.8360  178.0660  140.1190 O   0  0  0  0  0  1  0  0  0  0  0  0
  189.0630  174.7120  141.5920 C   0  0  0  0  0  0  0  0  0  0  0  0
  187.4410  175.2920  138.3260 C   0  0  0  0  0  3  0  0  0  0  0  0
  187.4720  176.4130  140.9240 C   0  0  0  0  0  0  0  0  0  0  0  0
  189.1150  175.2040  142.8720 C   0  0  0  0  0  0  0  0  0  0  0  0
  191.0770  172.4890  143.0110 O   0  0  0  0  0  0  0  0  0  0  0  0
  189.9370  174.4040  143.6020 N   0  0  0  0  0  0  0  0  0  0  0  0
  191.7890  174.5560  146.8330 C   0  0  0  0  0  2  0  0  0  0  0  0
  190.9090  177.2430  144.7260 C   0  0  0  0  0  1  0  0  0  0  0  0
  188.2450  174.7310  139.3130 C   0  0  0  0  0  3  0  0  0  0  0  0
  188.2670  175.2780  140.6010 C   0  0  0  0  0  0  0  0  0  0  0  0
  189.6200  176.7770  145.4010 C   0  0  2  0  0  3  0  0  0  0  0  0
  185.5640  179.4630  144.4250 C   0  0  0  0  0  2  0  0  0  0  0  0
  184.0060  178.6660  146.1380 C   0  0  0  0  0  2  0  0  0  0  0  0
  184.1800  179.2330  144.9490 C   0  0  0  0  0  3  0  0  0  0  0  0
  1  5  1  0  0  0  0
  1  4  1  0  0  0  0
  2 16  1  0  0  0  0
  2 19  1  0  0  0  0
  3 17  1  0  0  0  0
  3 10  1  0  0  0  0
  4 12  1  0  0  0  0
  5 11  1  0  0  0  0
  7 15  1  1  0  0  0
  8  6  2  0  0  0  0
  9 14  1  6  0  0  0
  9  7  1  0  0  0  0
 10 21  2  0  0  0  0
 10 22  1  0  0  0  0
 11 28  1  1  0  0  0
 11  8  1  0  0  0  0
 12  8  1  0  0  0  0
 12 27  1  0  0  0  0
 13  2  2  0  0  0  0
 14 23  1  0  0  0  0
 17 20  1  0  0  0  0
 18 13  1  0  0  0  0
 18 25  2  0  0  0  0
 19  1  2  0  0  0  0
 20  4  2  0  0  0  0
 20 22  1  0  0  0  0
 22  9  1  0  0  0  0
 23 15  1  0  0  0  0
 25 26  1  0  0  0  0
 26 19  1  0  0  0  0
 26 17  2  0  0  0  0
 27 24  1  6  0  0  0
 27  7  1  0  0  0  0
 28 30  1  0  0  0  0
 30 29  2  0  0  0  0
M  END
>  <MODEL>
9

>  <REMARK>
 VINA RESULT:      -7.8      2.054      5.036
  Name = 
  2 active torsions:
  status: ('A' for Active; 'I' for Inactive)
    1  A    between atoms: C_11  and  C_28
    2  A    between atoms: C_28  and  C_30
                            x       y       z     vdW  Elec       q    Type
                         _______ _______ _______ _____ _____    ______ ____

>  <TORSDO>
F 2

$$$$
