=
 OpenBabel11112417383D

 28 32  0  0  1  0  0  0  0  0999 V2000
  186.5470  178.2770  144.3370 C   0  0  0  0  0  0  0  0  0  0  0  0
  190.0670  178.4170  144.8430 O   0  0  0  0  0  0  0  0  0  0  0  0
  188.4890  174.3380  139.7130 O   0  0  0  0  0  0  0  0  0  0  0  0
  185.3580  176.8970  146.4680 C   0  0  0  0  0  3  0  0  0  0  0  0
  189.1190  173.7240  141.8920 N   0  0  0  0  0  0  0  0  0  0  0  0
  187.1310  179.0290  143.1840 C   0  0  0  0  0  2  0  0  0  0  0  0
  190.3810  177.1360  146.9140 O   0  0  0  0  0  0  0  0  0  0  0  0
  190.4040  177.0680  145.4140 S   0  0  0  0  0  0  0  0  0  0  0  0
  191.9000  176.0660  143.4610 C   0  0  0  0  0  0  0  0  0  0  0  0
  189.2490  175.8230  144.8480 C   0  0  2  0  0  3  0  0  0  0  0  0
  185.8560  177.5530  140.0770 O   0  0  0  0  0  0  0  0  0  0  0  0
  187.6800  175.1950  143.1100 C   0  0  2  0  0  3  0  0  0  0  0  0
  190.9390  175.2650  143.1110 N   0  0  0  0  0  0  0  0  0  0  0  0
  192.0170  176.5740  144.8610 C   0  0  0  0  0  2  0  0  0  0  0  0
  186.6400  177.7480  141.0430 C   0  0  0  0  0  0  0  0  0  0  0  0
  187.0310  177.0070  144.7080 C   0  0  0  0  0  0  0  0  0  0  0  0
  188.3960  174.5000  140.9590 C   0  0  0  0  0  0  0  0  0  0  0  0
  192.8430  176.4960  142.4880 N   0  0  0  0  0  1  0  0  0  0  0  0
  187.8670  176.9030  141.1680 C   0  0  0  0  0  2  0  0  0  0  0  0
  186.4240  176.3220  145.7730 C   0  0  0  0  0  3  0  0  0  0  0  0
  185.4760  178.8440  145.0370 C   0  0  0  0  0  3  0  0  0  0  0  0
  184.8850  178.1580  146.1010 C   0  0  0  0  0  3  0  0  0  0  0  0
  186.3470  178.7870  141.9800 N   0  0  0  0  0  2  0  0  0  0  0  0
  188.7570  174.1000  143.2470 C   0  0  2  0  0  3  0  0  0  0  0  0
  187.4940  175.4850  141.5980 C   0  0  2  0  0  3  0  0  0  0  0  0
  189.9220  174.7240  144.0280 C   0  0  2  0  0  3  0  0  0  0  0  0
  189.9380  172.5710  141.5530 C   0  0  0  0  0  1  0  0  0  0  0  0
  188.1620  176.3760  143.9480 C   0  0  1  0  0  3  0  0  0  0  0  0
  1 16  2  0  0  0  0
  1 21  1  0  0  0  0
  2  8  2  0  0  0  0
  3 17  2  0  0  0  0
  5 24  1  0  0  0  0
  6  1  1  0  0  0  0
  8  7  2  0  0  0  0
  9 14  1  0  0  0  0
 10  8  1  6  0  0  0
 11 15  2  0  0  0  0
 12 24  1  0  0  0  0
 12 28  1  0  0  0  0
 13  9  2  0  0  0  0
 13 26  1  0  0  0  0
 14  8  1  0  0  0  0
 15 19  1  0  0  0  0
 15 23  1  0  0  0  0
 16 20  1  0  0  0  0
 17 25  1  0  0  0  0
 17  5  1  0  0  0  0
 18  9  1  0  0  0  0
 19 25  1  0  0  0  0
 20  4  2  0  0  0  0
 21 22  2  0  0  0  0
 22  4  1  0  0  0  0
 23  6  1  0  0  0  0
 24 26  1  0  0  0  0
 25 12  1  0  0  0  0
 26 10  1  0  0  0  0
 27  5  1  0  0  0  0
 28 16  1  0  0  0  0
 28 10  1  0  0  0  0
M  END
>  <MODEL>
1

>  <REMARK>
 VINA RESULT:      -8.1      0.000      0.000
  Name = 
  0 active torsions:
  status: ('A' for Active; 'I' for Inactive)
                            x       y       z     vdW  Elec       q    Type
                         _______ _______ _______ _____ _____    ______ ____

>  <TORSDO>
F 0

$$$$
=
 OpenBabel11112417383D

 28 32  0  0  1  0  0  0  0  0999 V2000
  192.1120  174.5010  145.3720 C   0  0  0  0  0  0  0  0  0  0  0  0
  189.3160  175.7060  147.2150 O   0  0  0  0  0  0  0  0  0  0  0  0
  187.8850  175.1890  140.6470 O   0  0  0  0  0  0  0  0  0  0  0  0
  194.1000  176.4750  145.3050 C   0  0  0  0  0  3  0  0  0  0  0  0
  188.3690  177.1420  141.8600 N   0  0  0  0  0  0  0  0  0  0  0  0
  191.0880  173.4100  145.3880 C   0  0  0  0  0  2  0  0  0  0  0  0
  189.9770  178.0000  147.7870 O   0  0  0  0  0  0  0  0  0  0  0  0
  189.2130  177.1510  146.8120 S   0  0  0  0  0  0  0  0  0  0  0  0
  186.8860  177.1430  145.5320 C   0  0  0  0  0  0  0  0  0  0  0  0
  189.8530  177.4050  145.1600 C   0  0  2  0  0  3  0  0  0  0  0  0
  190.5650  172.2670  141.9410 O   0  0  0  0  0  0  0  0  0  0  0  0
  190.3170  176.3750  143.0150 C   0  0  2  0  0  3  0  0  0  0  0  0
  187.4940  177.2520  144.3880 N   0  0  0  0  0  0  0  0  0  0  0  0
  187.5080  177.6450  146.7930 C   0  0  0  0  0  2  0  0  0  0  0  0
  190.3730  172.9290  142.9950 C   0  0  0  0  0  0  0  0  0  0  0  0
  191.7890  175.8070  144.9560 C   0  0  0  0  0  0  0  0  0  0  0  0
  188.5890  175.7950  141.4980 C   0  0  0  0  0  0  0  0  0  0  0  0
  185.6180  176.5040  145.5920 N   0  0  0  0  0  1  0  0  0  0  0  0
  189.3130  173.9830  143.0110 C   0  0  0  0  0  2  0  0  0  0  0  0
  192.7940  176.7870  144.9210 C   0  0  0  0  0  3  0  0  0  0  0  0
  193.4240  174.1960  145.7510 C   0  0  0  0  0  3  0  0  0  0  0  0
  194.4140  175.1810  145.7210 C   0  0  0  0  0  3  0  0  0  0  0  0
  191.1590  172.6390  144.1540 N   0  0  0  0  0  2  0  0  0  0  0  0
  189.3760  177.5790  142.8100 C   0  0  2  0  0  3  0  0  0  0  0  0
  189.7530  175.1910  142.1850 C   0  0  2  0  0  3  0  0  0  0  0  0
  188.7920  177.9190  144.1890 C   0  0  2  0  0  3  0  0  0  0  0  0
  187.4140  178.0290  141.2140 C   0  0  0  0  0  1  0  0  0  0  0  0
  190.3910  176.1400  144.5210 C   0  0  1  0  0  3  0  0  0  0  0  0
  1  6  1  0  0  0  0
  1 21  1  0  0  0  0
  3 17  2  0  0  0  0
  4 22  1  0  0  0  0
  5 24  1  0  0  0  0
  8  2  2  0  0  0  0
  8  7  2  0  0  0  0
  9 18  1  0  0  0  0
  9 14  1  0  0  0  0
 10  8  1  1  0  0  0
 11 15  2  0  0  0  0
 12 28  1  0  0  0  0
 13  9  2  0  0  0  0
 14  8  1  0  0  0  0
 15 19  1  0  0  0  0
 15 23  1  0  0  0  0
 16  1  2  0  0  0  0
 17  5  1  0  0  0  0
 17 25  1  0  0  0  0
 20 16  1  0  0  0  0
 20  4  2  0  0  0  0
 22 21  2  0  0  0  0
 23  6  1  0  0  0  0
 24 12  1  0  0  0  0
 24 26  1  0  0  0  0
 25 19  1  0  0  0  0
 25 12  1  0  0  0  0
 26 13  1  0  0  0  0
 26 10  1  0  0  0  0
 27  5  1  0  0  0  0
 28 16  1  0  0  0  0
 28 10  1  0  0  0  0
M  END
>  <MODEL>
2

>  <REMARK>
 VINA RESULT:      -7.8      2.123      5.522
  Name = 
  0 active torsions:
  status: ('A' for Active; 'I' for Inactive)
                            x       y       z     vdW  Elec       q    Type
                         _______ _______ _______ _____ _____    ______ ____

>  <TORSDO>
F 0

$$$$
=
 OpenBabel11112417383D

 28 32  0  0  1  0  0  0  0  0999 V2000
  188.9000  175.5970  146.3150 C   0  0  0  0  0  0  0  0  0  0  0  0
  189.6920  172.4330  144.8920 O   0  0  0  0  0  0  0  0  0  0  0  0
  194.9700  176.6190  144.6470 O   0  0  0  0  0  0  0  0  0  0  0  0
  187.1040  176.9440  144.6370 C   0  0  0  0  0  3  0  0  0  0  0  0
  193.5270  176.0260  142.8910 N   0  0  0  0  0  0  0  0  0  0  0  0
  189.8480  174.9160  147.2490 C   0  0  0  0  0  2  0  0  0  0  0  0
  188.4580  172.4550  142.7690 O   0  0  0  0  0  0  0  0  0  0  0  0
  189.7880  172.7120  143.4180 S   0  0  0  0  0  0  0  0  0  0  0  0
  192.3680  172.2410  142.9940 C   0  0  0  0  0  0  0  0  0  0  0  0
  190.2900  174.4040  143.1160 C   0  0  2  0  0  3  0  0  0  0  0  0
  192.5850  177.2370  148.0130 O   0  0  0  0  0  0  0  0  0  0  0  0
  191.4410  176.3380  144.0160 C   0  0  2  0  0  3  0  0  0  0  0  0
  192.5990  173.5140  142.8740 N   0  0  0  0  0  0  0  0  0  0  0  0
  191.0240  171.6640  142.6920 C   0  0  0  0  0  2  0  0  0  0  0  0
  191.9660  176.3130  147.4220 C   0  0  0  0  0  0  0  0  0  0  0  0
  189.1950  175.7460  144.9450 C   0  0  0  0  0  0  0  0  0  0  0  0
  193.8020  176.4160  144.2200 C   0  0  0  0  0  0  0  0  0  0  0  0
  193.4020  171.3820  143.4540 N   0  0  0  0  0  1  0  0  0  0  0  0
  192.5960  175.6570  146.2360 C   0  0  0  0  0  2  0  0  0  0  0  0
  188.2920  176.4280  144.1150 C   0  0  0  0  0  3  0  0  0  0  0  0
  187.7100  176.1220  146.8300 C   0  0  0  0  0  3  0  0  0  0  0  0
  186.8130  176.7910  145.9930 C   0  0  0  0  0  3  0  0  0  0  0  0
  190.6890  175.9010  147.9150 N   0  0  0  0  0  2  0  0  0  0  0  0
  192.0940  175.9320  142.6800 C   0  0  2  0  0  3  0  0  0  0  0  0
  192.5810  176.6020  145.0350 C   0  0  2  0  0  3  0  0  0  0  0  0
  191.6250  174.5010  142.3800 C   0  0  2  0  0  3  0  0  0  0  0  0
  194.5170  175.9450  141.8280 C   0  0  0  0  0  1  0  0  0  0  0  0
  190.4820  175.2100  144.3860 C   0  0  1  0  0  3  0  0  0  0  0  0
  1 21  1  0  0  0  0
  1  6  1  0  0  0  0
  4 22  1  0  0  0  0
  5 17  1  0  0  0  0
  6 23  1  0  0  0  0
  7  8  2  0  0  0  0
  8  2  2  0  0  0  0
  9 18  1  0  0  0  0
 10  8  1  1  0  0  0
 10 28  1  0  0  0  0
 12 28  1  0  0  0  0
 12 25  1  0  0  0  0
 13  9  2  0  0  0  0
 14  9  1  0  0  0  0
 14  8  1  0  0  0  0
 15 23  1  0  0  0  0
 15 11  2  0  0  0  0
 16  1  2  0  0  0  0
 17  3  2  0  0  0  0
 17 25  1  0  0  0  0
 19 15  1  0  0  0  0
 20  4  2  0  0  0  0
 20 16  1  0  0  0  0
 22 21  2  0  0  0  0
 24  5  1  0  0  0  0
 24 12  1  0  0  0  0
 25 19  1  0  0  0  0
 26 24  1  0  0  0  0
 26 13  1  0  0  0  0
 26 10  1  0  0  0  0
 27  5  1  0  0  0  0
 28 16  1  0  0  0  0
M  END
>  <MODEL>
3

>  <REMARK>
 VINA RESULT:      -7.8      3.004      5.449
  Name = 
  0 active torsions:
  status: ('A' for Active; 'I' for Inactive)
                            x       y       z     vdW  Elec       q    Type
                         _______ _______ _______ _____ _____    ______ ____

>  <TORSDO>
F 0

$$$$
=
 OpenBabel11112417383D

 28 32  0  0  1  0  0  0  0  0999 V2000
  188.4890  176.1270  145.5140 C   0  0  0  0  0  0  0  0  0  0  0  0
  189.3220  173.0660  143.9010 O   0  0  0  0  0  0  0  0  0  0  0  0
  194.8510  176.3830  145.8690 O   0  0  0  0  0  0  0  0  0  0  0  0
  187.4650  177.9240  143.6220 C   0  0  0  0  0  3  0  0  0  0  0  0
  193.9670  176.2300  143.6980 N   0  0  0  0  0  0  0  0  0  0  0  0
  189.0180  175.2020  146.5640 C   0  0  0  0  0  2  0  0  0  0  0  0
  188.8180  173.5270  141.5430 O   0  0  0  0  0  0  0  0  0  0  0  0
  189.9020  173.4980  142.5830 S   0  0  0  0  0  0  0  0  0  0  0  0
  192.4150  172.6850  142.8590 C   0  0  0  0  0  0  0  0  0  0  0  0
  190.6590  175.1150  142.7120 C   0  0  2  0  0  3  0  0  0  0  0  0
  191.6250  176.9660  148.4490 O   0  0  0  0  0  0  0  0  0  0  0  0
  191.6840  176.7280  144.2020 C   0  0  2  0  0  3  0  0  0  0  0  0
  192.8140  173.9120  143.0150 N   0  0  0  0  0  0  0  0  0  0  0  0
  191.1750  172.3620  142.0920 C   0  0  0  0  0  2  0  0  0  0  0  0
  191.1210  176.2250  147.5650 C   0  0  0  0  0  0  0  0  0  0  0  0
  189.2090  176.3870  144.3310 C   0  0  0  0  0  0  0  0  0  0  0  0
  193.8590  176.4150  145.0940 C   0  0  0  0  0  0  0  0  0  0  0  0
  193.1530  171.6270  143.4570 N   0  0  0  0  0  1  0  0  0  0  0  0
  192.0100  175.6210  146.5250 C   0  0  0  0  0  2  0  0  0  0  0  0
  188.6900  177.2930  143.3930 C   0  0  0  0  0  3  0  0  0  0  0  0
  187.2650  176.7670  145.7370 C   0  0  0  0  0  3  0  0  0  0  0  0
  186.7520  177.6600  144.7920 C   0  0  0  0  0  3  0  0  0  0  0  0
  189.7160  175.9610  147.5930 N   0  0  0  0  0  2  0  0  0  0  0  0
  192.6690  176.3840  143.0680 C   0  0  2  0  0  3  0  0  0  0  0  0
  192.4740  176.6910  145.5370 C   0  0  2  0  0  3  0  0  0  0  0  0
  192.1590  175.0890  142.4210 C   0  0  2  0  0  3  0  0  0  0  0  0
  195.2220  176.1210  142.9710 C   0  0  0  0  0  1  0  0  0  0  0  0
  190.5370  175.7270  144.0940 C   0  0  1  0  0  3  0  0  0  0  0  0
  1 21  1  0  0  0  0
  1  6  1  0  0  0  0
  4 22  1  0  0  0  0
  5 17  1  0  0  0  0
  6 23  1  0  0  0  0
  7  8  2  0  0  0  0
  8  2  2  0  0  0  0
  9 13  2  0  0  0  0
  9 18  1  0  0  0  0
 10  8  1  1  0  0  0
 10 28  1  0  0  0  0
 12 25  1  0  0  0  0
 14  8  1  0  0  0  0
 14  9  1  0  0  0  0
 15 23  1  0  0  0  0
 15 11  2  0  0  0  0
 16  1  2  0  0  0  0
 17 25  1  0  0  0  0
 17  3  2  0  0  0  0
 19 15  1  0  0  0  0
 20  4  2  0  0  0  0
 20 16  1  0  0  0  0
 22 21  2  0  0  0  0
 24  5  1  0  0  0  0
 24 12  1  0  0  0  0
 25 19  1  0  0  0  0
 26 10  1  0  0  0  0
 26 13  1  0  0  0  0
 26 24  1  0  0  0  0
 27  5  1  0  0  0  0
 28 12  1  0  0  0  0
 28 16  1  0  0  0  0
M  END
>  <MODEL>
4

>  <REMARK>
 VINA RESULT:      -7.8      2.741      5.430
  Name = 
  0 active torsions:
  status: ('A' for Active; 'I' for Inactive)
                            x       y       z     vdW  Elec       q    Type
                         _______ _______ _______ _____ _____    ______ ____

>  <TORSDO>
F 0

$$$$
=
 OpenBabel11112417383D

 28 32  0  0  1  0  0  0  0  0999 V2000
  188.5950  177.1240  144.4070 C   0  0  0  0  0  0  0  0  0  0  0  0
  192.1300  177.3790  144.7210 O   0  0  0  0  0  0  0  0  0  0  0  0
  190.3770  172.0040  141.0490 O   0  0  0  0  0  0  0  0  0  0  0  0
  187.4910  176.4260  146.8880 C   0  0  0  0  0  3  0  0  0  0  0  0
  191.0900  172.0410  143.2870 N   0  0  0  0  0  0  0  0  0  0  0  0
  189.1320  177.5070  143.0650 C   0  0  0  0  0  2  0  0  0  0  0  0
  192.5260  176.7480  147.0610 O   0  0  0  0  0  0  0  0  0  0  0  0
  192.4940  176.2490  145.6450 S   0  0  0  0  0  0  0  0  0  0  0  0
  193.9200  174.7150  144.0100 C   0  0  0  0  0  0  0  0  0  0  0  0
  191.3230  174.9020  145.5050 C   0  0  2  0  0  3  0  0  0  0  0  0
  187.7480  175.2060  140.5660 O   0  0  0  0  0  0  0  0  0  0  0  0
  189.6930  173.8100  144.0820 C   0  0  2  0  0  3  0  0  0  0  0  0
  192.9490  173.8540  143.9420 N   0  0  0  0  0  0  0  0  0  0  0  0
  194.0870  175.6040  145.1990 C   0  0  0  0  0  2  0  0  0  0  0  0
  188.5660  175.6660  141.4050 C   0  0  0  0  0  0  0  0  0  0  0  0
  189.0960  176.0110  145.1110 C   0  0  0  0  0  0  0  0  0  0  0  0
  190.3310  172.5200  142.1980 C   0  0  0  0  0  0  0  0  0  0  0  0
  194.8240  174.8390  142.9210 N   0  0  0  0  0  1  0  0  0  0  0  0
  189.8000  174.8840  141.7230 C   0  0  0  0  0  2  0  0  0  0  0  0
  188.5320  175.6670  146.3490 C   0  0  0  0  0  3  0  0  0  0  0  0
  187.5480  177.8760  144.9520 C   0  0  0  0  0  3  0  0  0  0  0  0
  187.0000  177.5310  146.1900 C   0  0  0  0  0  3  0  0  0  0  0  0
  188.3050  176.9330  142.0130 N   0  0  0  0  0  2  0  0  0  0  0  0
  190.7780  172.7930  144.4880 C   0  0  2  0  0  3  0  0  0  0  0  0
  189.4490  173.6530  142.5570 C   0  0  2  0  0  3  0  0  0  0  0  0
  191.9690  173.6080  145.0130 C   0  0  2  0  0  3  0  0  0  0  0  0
  191.9010  170.8330  143.2660 C   0  0  0  0  0  1  0  0  0  0  0  0
  190.2010  175.1800  144.5240 C   0  0  1  0  0  3  0  0  0  0  0  0
  1 21  2  0  0  0  0
  1 16  1  0  0  0  0
  2  8  2  0  0  0  0
  3 17  2  0  0  0  0
  5 24  1  0  0  0  0
  6  1  1  0  0  0  0
  8  7  2  0  0  0  0
  9 14  1  0  0  0  0
 10  8  1  6  0  0  0
 11 15  2  0  0  0  0
 12 24  1  0  0  0  0
 12 28  1  0  0  0  0
 13  9  2  0  0  0  0
 13 26  1  0  0  0  0
 14  8  1  0  0  0  0
 15 19  1  0  0  0  0
 15 23  1  0  0  0  0
 16 20  2  0  0  0  0
 17 25  1  0  0  0  0
 17  5  1  0  0  0  0
 18  9  1  0  0  0  0
 19 25  1  0  0  0  0
 20  4  1  0  0  0  0
 21 22  1  0  0  0  0
 22  4  2  0  0  0  0
 23  6  1  0  0  0  0
 24 26  1  0  0  0  0
 25 12  1  0  0  0  0
 26 10  1  0  0  0  0
 27  5  1  0  0  0  0
 28 16  1  0  0  0  0
 28 10  1  0  0  0  0
M  END
>  <MODEL>
5

>  <REMARK>
 VINA RESULT:      -7.6      2.010      2.602
  Name = 
  0 active torsions:
  status: ('A' for Active; 'I' for Inactive)
                            x       y       z     vdW  Elec       q    Type
                         _______ _______ _______ _____ _____    ______ ____

>  <TORSDO>
F 0

$$$$
=
 OpenBabel11112417383D

 28 32  0  0  1  0  0  0  0  0999 V2000
  186.1450  176.7960  143.0590 C   0  0  0  0  0  0  0  0  0  0  0  0
  187.3390  173.4990  142.4510 O   0  0  0  0  0  0  0  0  0  0  0  0
  191.3760  176.8230  146.7060 O   0  0  0  0  0  0  0  0  0  0  0  0
  186.4660  178.3390  140.7420 C   0  0  0  0  0  3  0  0  0  0  0  0
  191.7390  176.3930  144.4250 N   0  0  0  0  0  0  0  0  0  0  0  0
  185.9410  176.0120  144.3160 C   0  0  0  0  0  2  0  0  0  0  0  0
  188.1910  173.6320  140.1530 O   0  0  0  0  0  0  0  0  0  0  0  0
  188.5640  173.7080  141.6060 S   0  0  0  0  0  0  0  0  0  0  0  0
  190.4560  172.8340  143.2530 C   0  0  0  0  0  0  0  0  0  0  0  0
  189.3230  175.2910  141.9530 C   0  0  2  0  0  3  0  0  0  0  0  0
  187.3710  177.9160  147.1080 O   0  0  0  0  0  0  0  0  0  0  0  0
  189.6000  177.0590  143.5890 C   0  0  2  0  0  3  0  0  0  0  0  0
  190.8530  174.0530  143.4720 N   0  0  0  0  0  0  0  0  0  0  0  0
  189.7690  172.4580  141.9820 C   0  0  0  0  0  2  0  0  0  0  0  0
  187.3180  177.0760  146.1710 C   0  0  0  0  0  0  0  0  0  0  0  0
  187.3990  176.8480  142.4190 C   0  0  0  0  0  0  0  0  0  0  0  0
  190.9420  176.7840  145.5240 C   0  0  0  0  0  0  0  0  0  0  0  0
  190.6490  171.8450  144.2550 N   0  0  0  0  0  1  0  0  0  0  0  0
  188.5420  176.2900  145.8280 C   0  0  0  0  0  2  0  0  0  0  0  0
  187.5500  177.6300  141.2630 C   0  0  0  0  0  3  0  0  0  0  0  0
  185.0660  177.5140  142.5320 C   0  0  0  0  0  3  0  0  0  0  0  0
  185.2240  178.2800  141.3760 C   0  0  0  0  0  3  0  0  0  0  0  0
  186.0840  176.8810  145.4760 N   0  0  0  0  0  2  0  0  0  0  0  0
  190.9850  176.5100  143.1900 C   0  0  2  0  0  3  0  0  0  0  0  0
  189.5710  177.1830  145.1350 C   0  0  2  0  0  3  0  0  0  0  0  0
  190.7410  175.1580  142.5060 C   0  0  2  0  0  3  0  0  0  0  0  0
  193.1670  176.1250  144.4900 C   0  0  0  0  0  1  0  0  0  0  0  0
  188.5710  176.1040  142.9900 C   0  0  1  0  0  3  0  0  0  0  0  0
  1  6  1  0  0  0  0
  4 20  2  0  0  0  0
  4 22  1  0  0  0  0
  5 27  1  0  0  0  0
  5 17  1  0  0  0  0
  6 23  1  0  0  0  0
  7  8  2  0  0  0  0
  8 14  1  0  0  0  0
  8  2  2  0  0  0  0
  9 13  2  0  0  0  0
  9 18  1  0  0  0  0
 10  8  1  1  0  0  0
 10 26  1  0  0  0  0
 10 28  1  0  0  0  0
 12 25  1  0  0  0  0
 14  9  1  0  0  0  0
 15 11  2  0  0  0  0
 16 28  1  0  0  0  0
 16  1  2  0  0  0  0
 17  3  2  0  0  0  0
 19 15  1  0  0  0  0
 20 16  1  0  0  0  0
 21  1  1  0  0  0  0
 22 21  2  0  0  0  0
 23 15  1  0  0  0  0
 24 12  1  0  0  0  0
 24  5  1  0  0  0  0
 25 17  1  0  0  0  0
 25 19  1  0  0  0  0
 26 24  1  0  0  0  0
 26 13  1  0  0  0  0
 28 12  1  0  0  0  0
M  END
>  <MODEL>
6

>  <REMARK>
 VINA RESULT:      -7.5      2.236      4.747
  Name = 
  0 active torsions:
  status: ('A' for Active; 'I' for Inactive)
                            x       y       z     vdW  Elec       q    Type
                         _______ _______ _______ _____ _____    ______ ____

>  <TORSDO>
F 0

$$$$
=
 OpenBabel11112417383D

 28 32  0  0  1  0  0  0  0  0999 V2000
  188.5000  175.9740  144.0900 C   0  0  0  0  0  0  0  0  0  0  0  0
  191.7680  176.8190  142.9640 O   0  0  0  0  0  0  0  0  0  0  0  0
  190.4610  170.2750  142.0060 O   0  0  0  0  0  0  0  0  0  0  0  0
  188.4210  176.1040  146.8880 C   0  0  0  0  0  3  0  0  0  0  0  0
  191.7810  171.2420  143.6920 N   0  0  0  0  0  0  0  0  0  0  0  0
  188.4870  175.9020  142.5960 C   0  0  0  0  0  2  0  0  0  0  0  0
  193.0030  177.1670  145.0570 O   0  0  0  0  0  0  0  0  0  0  0  0
  192.6770  176.1770  143.9760 S   0  0  0  0  0  0  0  0  0  0  0  0
  193.8920  174.3610  142.4660 C   0  0  0  0  0  0  0  0  0  0  0  0
  191.9150  174.7260  144.6950 C   0  0  2  0  0  3  0  0  0  0  0  0
  187.0660  172.6660  141.6090 O   0  0  0  0  0  0  0  0  0  0  0  0
  190.2770  172.9660  144.3830 C   0  0  2  0  0  3  0  0  0  0  0  0
  193.2070  173.4090  143.0270 N   0  0  0  0  0  0  0  0  0  0  0  0
  194.1710  175.6420  143.1800 C   0  0  0  0  0  2  0  0  0  0  0  0
  187.9490  173.5150  141.9010 C   0  0  0  0  0  0  0  0  0  0  0  0
  189.4640  175.2860  144.8520 C   0  0  0  0  0  0  0  0  0  0  0  0
  190.6300  171.1700  142.8770 C   0  0  0  0  0  0  0  0  0  0  0  0
  194.3590  174.1950  141.1340 N   0  0  0  0  0  1  0  0  0  0  0  0
  189.3810  173.0880  141.9520 C   0  0  0  0  0  2  0  0  0  0  0  0
  189.4110  175.3520  146.2530 C   0  0  0  0  0  3  0  0  0  0  0  0
  187.5080  176.7210  144.7350 C   0  0  0  0  0  3  0  0  0  0  0  0
  187.4710  176.7890  146.1290 C   0  0  0  0  0  3  0  0  0  0  0  0
  187.5610  174.8680  142.1530 N   0  0  0  0  0  2  0  0  0  0  0  0
  191.6600  172.3360  144.6380 C   0  0  2  0  0  3  0  0  0  0  0  0
  189.6340  172.2200  143.1840 C   0  0  2  0  0  3  0  0  0  0  0  0
  192.6970  173.4450  144.4080 C   0  0  2  0  0  3  0  0  0  0  0  0
  192.8340  170.2400  143.7310 C   0  0  0  0  0  1  0  0  0  0  0  0
  190.5170  174.4590  144.1720 C   0  0  1  0  0  3  0  0  0  0  0  0
  1 21  2  0  0  0  0
  1 16  1  0  0  0  0
  2  8  2  0  0  0  0
  3 17  2  0  0  0  0
  5 27  1  0  0  0  0
  5 24  1  0  0  0  0
  6  1  1  0  0  0  0
  8  7  2  0  0  0  0
  9 13  2  0  0  0  0
  9 14  1  0  0  0  0
 10  8  1  6  0  0  0
 11 15  2  0  0  0  0
 12 24  1  0  0  0  0
 13 26  1  0  0  0  0
 14  8  1  0  0  0  0
 15 19  1  0  0  0  0
 15 23  1  0  0  0  0
 16 20  2  0  0  0  0
 17 25  1  0  0  0  0
 17  5  1  0  0  0  0
 18  9  1  0  0  0  0
 19 25  1  0  0  0  0
 20  4  1  0  0  0  0
 21 22  1  0  0  0  0
 22  4  2  0  0  0  0
 23  6  1  0  0  0  0
 25 12  1  0  0  0  0
 26 24  1  0  0  0  0
 26 10  1  0  0  0  0
 28 12  1  0  0  0  0
 28 10  1  0  0  0  0
 28 16  1  0  0  0  0
M  END
>  <MODEL>
7

>  <REMARK>
 VINA RESULT:      -7.3      2.513      3.604
  Name = 
  0 active torsions:
  status: ('A' for Active; 'I' for Inactive)
                            x       y       z     vdW  Elec       q    Type
                         _______ _______ _______ _____ _____    ______ ____

>  <TORSDO>
F 0

$$$$
=
 OpenBabel11112417383D

 28 32  0  0  1  0  0  0  0  0999 V2000
  189.1820  176.6210  144.9590 C   0  0  0  0  0  0  0  0  0  0  0  0
  192.5160  176.4810  143.7210 O   0  0  0  0  0  0  0  0  0  0  0  0
  188.1910  173.5630  139.4510 O   0  0  0  0  0  0  0  0  0  0  0  0
  188.9410  174.9160  147.1700 C   0  0  0  0  0  3  0  0  0  0  0  0
  189.6700  172.5060  140.9400 N   0  0  0  0  0  0  0  0  0  0  0  0
  189.2610  177.5530  143.7910 C   0  0  0  0  0  2  0  0  0  0  0  0
  193.5760  174.8070  145.1720 O   0  0  0  0  0  0  0  0  0  0  0  0
  192.8900  175.0310  143.8540 S   0  0  0  0  0  0  0  0  0  0  0  0
  193.1540  174.3530  141.2990 C   0  0  0  0  0  0  0  0  0  0  0  0
  191.4460  173.9800  143.7390 C   0  0  2  0  0  3  0  0  0  0  0  0
  186.5000  176.7760  141.5040 O   0  0  0  0  0  0  0  0  0  0  0  0
  189.1790  173.7830  142.9010 C   0  0  2  0  0  3  0  0  0  0  0  0
  192.0400  173.6860  141.3430 N   0  0  0  0  0  0  0  0  0  0  0  0
  193.9770  174.5720  142.5270 C   0  0  0  0  0  2  0  0  0  0  0  0
  187.6610  176.7390  141.9900 C   0  0  0  0  0  0  0  0  0  0  0  0
  189.6020  175.2800  144.8600 C   0  0  0  0  0  0  0  0  0  0  0  0
  188.7110  173.4850  140.5960 C   0  0  0  0  0  0  0  0  0  0  0  0
  193.5860  174.9160  140.0680 N   0  0  0  0  0  1  0  0  0  0  0  0
  188.6760  175.8240  141.3830 C   0  0  0  0  0  2  0  0  0  0  0  0
  189.4710  174.4330  145.9720 C   0  0  0  0  0  3  0  0  0  0  0  0
  188.6470  177.0940  146.1620 C   0  0  0  0  0  3  0  0  0  0  0  0
  188.5310  176.2460  147.2650 C   0  0  0  0  0  3  0  0  0  0  0  0
  187.9830  177.5890  143.0930 N   0  0  0  0  0  2  0  0  0  0  0  0
  190.0340  172.6290  142.3400 C   0  0  2  0  0  3  0  0  0  0  0  0
  188.3540  174.3710  141.7260 C   0  0  2  0  0  3  0  0  0  0  0  0
  191.5020  173.0290  142.5450 C   0  0  2  0  0  3  0  0  0  0  0  0
  190.0710  171.4010  140.0840 C   0  0  0  0  0  1  0  0  0  0  0  0
  190.1520  174.7530  143.5660 C   0  0  1  0  0  3  0  0  0  0  0  0
  1 21  1  0  0  0  0
  2  8  2  0  0  0  0
  3 17  2  0  0  0  0
  4 22  1  0  0  0  0
  5 24  1  0  0  0  0
  6  1  1  0  0  0  0
  8  7  2  0  0  0  0
  9 13  2  0  0  0  0
  9 14  1  0  0  0  0
 10  8  1  6  0  0  0
 11 15  2  0  0  0  0
 12 28  1  0  0  0  0
 13 26  1  0  0  0  0
 14  8  1  0  0  0  0
 15 23  1  0  0  0  0
 16  1  2  0  0  0  0
 16 20  1  0  0  0  0
 17  5  1  0  0  0  0
 17 25  1  0  0  0  0
 18  9  1  0  0  0  0
 19 25  1  0  0  0  0
 19 15  1  0  0  0  0
 20  4  2  0  0  0  0
 21 22  2  0  0  0  0
 23  6  1  0  0  0  0
 24 26  1  0  0  0  0
 24 12  1  0  0  0  0
 25 12  1  0  0  0  0
 26 10  1  0  0  0  0
 27  5  1  0  0  0  0
 28 10  1  0  0  0  0
 28 16  1  0  0  0  0
M  END
>  <MODEL>
8

>  <REMARK>
 VINA RESULT:      -7.2      2.373      2.844
  Name = 
  0 active torsions:
  status: ('A' for Active; 'I' for Inactive)
                            x       y       z     vdW  Elec       q    Type
                         _______ _______ _______ _____ _____    ______ ____

>  <TORSDO>
F 0

$$$$
=
 OpenBabel11112417383D

 28 32  0  0  1  0  0  0  0  0999 V2000
  194.5630  174.0190  144.2280 C   0  0  0  0  0  0  0  0  0  0  0  0
  192.1760  174.6190  141.6580 O   0  0  0  0  0  0  0  0  0  0  0  0
  190.3480  177.5680  147.4390 O   0  0  0  0  0  0  0  0  0  0  0  0
  194.4580  171.3200  144.9790 C   0  0  0  0  0  3  0  0  0  0  0  0
  189.4970  175.5870  146.5080 N   0  0  0  0  0  0  0  0  0  0  0  0
  194.6660  175.4640  143.8560 C   0  0  0  0  0  2  0  0  0  0  0  0
  191.0760  172.4390  141.4030 O   0  0  0  0  0  0  0  0  0  0  0  0
  190.9910  173.7860  142.0620 S   0  0  0  0  0  0  0  0  0  0  0  0
  189.2000  175.6830  142.5600 C   0  0  0  0  0  0  0  0  0  0  0  0
  190.9230  173.5850  143.8400 C   0  0  2  0  0  3  0  0  0  0  0  0
  194.4870  177.4620  146.9280 O   0  0  0  0  0  0  0  0  0  0  0  0
  191.5690  174.5160  145.9830 C   0  0  2  0  0  3  0  0  0  0  0  0
  189.3110  175.4780  143.8390 N   0  0  0  0  0  0  0  0  0  0  0  0
  189.4930  174.6030  141.5720 C   0  0  0  0  0  2  0  0  0  0  0  0
  194.0820  176.8720  145.8920 C   0  0  0  0  0  0  0  0  0  0  0  0
  193.3290  173.4330  144.5720 C   0  0  0  0  0  0  0  0  0  0  0  0
  190.5450  176.4610  146.8700 C   0  0  0  0  0  0  0  0  0  0  0  0
  188.8240  176.9690  142.0880 N   0  0  0  0  0  1  0  0  0  0  0  0
  192.6180  176.8540  145.5890 C   0  0  0  0  0  2  0  0  0  0  0  0
  193.2890  172.0830  144.9530 C   0  0  0  0  0  3  0  0  0  0  0  0
  195.7310  173.2480  144.2620 C   0  0  0  0  0  3  0  0  0  0  0  0
  195.6780  171.9030  144.6330 C   0  0  0  0  0  3  0  0  0  0  0  0
  195.0350  176.2550  145.0220 N   0  0  0  0  0  2  0  0  0  0  0  0
  190.0350  174.3680  145.9320 C   0  0  2  0  0  3  0  0  0  0  0  0
  191.8870  175.9230  146.5540 C   0  0  2  0  0  3  0  0  0  0  0  0
  189.6610  174.1870  144.4540 C   0  0  2  0  0  3  0  0  0  0  0  0
  188.0990  175.7770  146.8590 C   0  0  0  0  0  1  0  0  0  0  0  0
  192.0730  174.2560  144.5660 C   0  0  1  0  0  3  0  0  0  0  0  0
  1 21  2  0  0  0  0
  1 16  1  0  0  0  0
  2  8  2  0  0  0  0
  5 27  1  0  0  0  0
  5 17  1  0  0  0  0
  6  1  1  0  0  0  0
  6 23  1  0  0  0  0
  7  8  2  0  0  0  0
  9 13  2  0  0  0  0
 10  8  1  6  0  0  0
 10 26  1  0  0  0  0
 10 28  1  0  0  0  0
 12 25  1  0  0  0  0
 13 26  1  0  0  0  0
 14  8  1  0  0  0  0
 14  9  1  0  0  0  0
 15 11  2  0  0  0  0
 16 20  2  0  0  0  0
 17  3  2  0  0  0  0
 18  9  1  0  0  0  0
 19 15  1  0  0  0  0
 19 25  1  0  0  0  0
 20  4  1  0  0  0  0
 21 22  1  0  0  0  0
 22  4  2  0  0  0  0
 23 15  1  0  0  0  0
 24 12  1  0  0  0  0
 24  5  1  0  0  0  0
 25 17  1  0  0  0  0
 26 24  1  0  0  0  0
 28 16  1  0  0  0  0
 28 12  1  0  0  0  0
M  END
>  <MODEL>
9

>  <REMARK>
 VINA RESULT:      -7.1      3.193      7.219
  Name = 
  0 active torsions:
  status: ('A' for Active; 'I' for Inactive)
                            x       y       z     vdW  Elec       q    Type
                         _______ _______ _______ _____ _____    ______ ____

>  <TORSDO>
F 0

$$$$
