=
 OpenBabel11112417033D

 31 35  0  0  1  0  0  0  0  0999 V2000
  195.6270  175.4450  144.4430 C   0  0  0  0  0  0  0  0  0  0  0  0
  192.1970  176.4190  143.1290 C   0  0  2  0  0  3  0  0  0  0  0  0
  191.3710  175.2490  142.6310 C   0  0  0  0  0  0  0  0  0  0  0  0
  191.1670  172.9470  141.9180 C   0  0  0  0  0  0  0  0  0  0  0  0
  193.3060  176.0190  144.0590 C   0  0  0  0  0  0  0  0  0  0  0  0
  195.3610  175.2800  145.8060 C   0  0  0  0  0  3  0  0  0  0  0  0
  191.9470  173.9890  142.4210 C   0  0  0  0  0  3  0  0  0  0  0  0
  190.8900  177.1880  145.2660 C   0  0  1  0  0  3  0  0  0  0  0  0
  196.9430  175.2370  143.9450 N   0  0  0  0  0  1  0  0  0  0  0  0
  189.4040  176.7260  142.4570 N   0  0  0  0  0  2  0  0  0  0  0  0
  191.7430  171.6610  141.7180 N   0  0  0  0  0  1  0  0  0  0  0  0
  191.6450  176.0250  145.9350 C   0  0  0  0  0  2  0  0  0  0  0  0
  191.3180  177.4960  143.7960 C   0  0  2  0  0  3  0  0  0  0  0  0
  194.6000  175.8130  143.5680 C   0  0  0  0  0  3  0  0  0  0  0  0
  189.8580  173.1590  141.6170 N   0  0  0  0  0  0  0  0  0  0  0  0
  193.0430  175.8650  145.4270 C   0  0  0  0  0  0  0  0  0  0  0  0
  194.0680  175.4850  146.2980 C   0  0  0  0  0  3  0  0  0  0  0  0
  190.1740  177.9010  142.8600 C   0  0  0  0  0  2  0  0  0  0  0  0
  190.0230  175.4480  142.2780 C   0  0  0  0  0  0  0  0  0  0  0  0
  189.2760  174.3760  141.7850 C   0  0  0  0  0  3  0  0  0  0  0  0
  189.2180  177.9920  147.4620 O   0  0  0  0  0  0  0  0  0  0  0  0
  188.6810  177.3600  146.5120 C   0  0  0  0  0  0  0  0  0  0  0  0
  189.4560  176.9570  145.3800 N   0  0  0  0  0  2  0  0  0  0  0  0
  185.6440  178.8600  144.9870 C   0  0  0  0  0  0  0  0  0  0  0  0
  186.6790  176.6000  145.2200 C   0  0  0  0  0  2  0  0  0  0  0  0
  186.4260  178.3770  148.3870 O   0  0  0  0  0  0  0  0  0  0  0  0
  184.8380  179.7900  144.1560 C   0  0  0  0  0  1  0  0  0  0  0  0
  186.4770  177.8100  144.3080 C   0  0  0  0  0  2  0  0  0  0  0  0
  186.4250  178.1600  147.1470 C   0  0  0  0  0  0  0  0  0  0  0  0
  187.2260  177.0190  146.5890 C   0  0  2  0  0  3  0  0  0  0  0  0
  185.6690  179.0160  146.2780 N   0  0  0  0  0  0  0  0  0  0  0  0
  1  6  1  0  0  0  0
  2  3  1  1  0  0  0
  2 13  1  0  0  0  0
  2  5  1  0  0  0  0
  4  7  2  0  0  0  0
  5 16  2  0  0  0  0
  6 17  2  0  0  0  0
  7  3  1  0  0  0  0
  8 23  1  6  0  0  0
  8 12  1  0  0  0  0
  9  1  1  0  0  0  0
 10 18  1  0  0  0  0
 11  4  1  0  0  0  0
 13 18  1  6  0  0  0
 13  8  1  0  0  0  0
 14  5  1  0  0  0  0
 14  1  2  0  0  0  0
 15 20  2  0  0  0  0
 15  4  1  0  0  0  0
 16 12  1  0  0  0  0
 16 17  1  0  0  0  0
 19 10  1  0  0  0  0
 19  3  2  0  0  0  0
 20 19  1  0  0  0  0
 22 21  2  0  0  0  0
 23 22  1  0  0  0  0
 24 31  2  0  0  0  0
 25 30  1  0  0  0  0
 27 24  1  0  0  0  0
 28 24  1  0  0  0  0
 28 25  1  0  0  0  0
 29 26  2  0  0  0  0
 30 22  1  6  0  0  0
 30 29  1  0  0  0  0
 31 29  1  0  0  0  0
M  END
>  <MODEL>
1

>  <REMARK>
 VINA RESULT:      -8.7      0.000      0.000
  Name = 
  2 active torsions:
  status: ('A' for Active; 'I' for Inactive)
    1  A    between atoms: C_5  and  C_30
    2  A    between atoms: C_10  and  N_16
                            x       y       z     vdW  Elec       q    Type
                         _______ _______ _______ _____ _____    ______ ____

>  <TORSDO>
F 2

$$$$
=
 OpenBabel11112417033D

 31 35  0  0  1  0  0  0  0  0999 V2000
  196.4550  170.4240  145.8600 C   0  0  0  0  0  0  0  0  0  0  0  0
  195.6990  174.1350  145.5510 C   0  0  2  0  0  3  0  0  0  0  0  0
  196.0430  174.7260  144.1970 C   0  0  0  0  0  0  0  0  0  0  0  0
  197.1610  174.6130  142.0560 C   0  0  0  0  0  0  0  0  0  0  0  0
  195.5400  172.6430  145.5330 C   0  0  0  0  0  0  0  0  0  0  0  0
  195.2250  169.8640  145.4990 C   0  0  0  0  0  3  0  0  0  0  0  0
  196.8250  174.0190  143.2740 C   0  0  0  0  0  3  0  0  0  0  0  0
  193.0820  174.2590  145.5920 C   0  0  1  0  0  3  0  0  0  0  0  0
  197.5450  169.5810  146.2090 N   0  0  0  0  0  1  0  0  0  0  0  0
  194.8760  176.8070  144.8200 N   0  0  0  0  0  2  0  0  0  0  0  0
  197.9410  173.8940  141.1080 N   0  0  0  0  0  1  0  0  0  0  0  0
  193.1800  172.9700  144.7560 C   0  0  0  0  0  2  0  0  0  0  0  0
  194.4380  174.7880  146.1550 C   0  0  2  0  0  3  0  0  0  0  0  0
  196.6140  171.8140  145.8750 C   0  0  0  0  0  3  0  0  0  0  0  0
  196.7460  175.8770  141.7750 N   0  0  0  0  0  0  0  0  0  0  0  0
  194.3040  172.0800  145.1820 C   0  0  0  0  0  0  0  0  0  0  0  0
  194.1510  170.6910  145.1550 C   0  0  0  0  0  3  0  0  0  0  0  0
  194.5840  176.3140  146.1650 C   0  0  0  0  0  2  0  0  0  0  0  0
  195.6570  176.0450  143.8940 C   0  0  0  0  0  0  0  0  0  0  0  0
  196.0090  176.5980  142.6610 C   0  0  0  0  0  3  0  0  0  0  0  0
  190.2330  174.4450  145.2480 O   0  0  0  0  0  0  0  0  0  0  0  0
  190.9540  175.3010  144.6670 C   0  0  0  0  0  0  0  0  0  0  0  0
  192.3760  175.2750  144.8220 N   0  0  0  0  0  2  0  0  0  0  0  0
  187.7100  177.1010  144.8520 C   0  0  0  0  0  0  0  0  0  0  0  0
  190.1250  177.6570  144.5490 C   0  0  0  0  0  2  0  0  0  0  0  0
  188.9770  175.0440  142.2900 O   0  0  0  0  0  0  0  0  0  0  0  0
  186.3890  177.5040  145.4000 C   0  0  0  0  0  1  0  0  0  0  0  0
  188.9600  177.5790  145.5360 C   0  0  0  0  0  2  0  0  0  0  0  0
  188.9950  175.8510  143.2560 C   0  0  0  0  0  0  0  0  0  0  0  0
  190.3100  176.3350  143.7980 C   0  0  2  0  0  3  0  0  0  0  0  0
  187.7590  176.2870  143.8380 N   0  0  0  0  0  0  0  0  0  0  0  0
  1 14  1  0  0  0  0
  1  9  1  0  0  0  0
  2  3  1  6  0  0  0
  2 13  1  0  0  0  0
  4  7  1  0  0  0  0
  5  2  1  0  0  0  0
  5 14  2  0  0  0  0
  6  1  2  0  0  0  0
  7  3  2  0  0  0  0
  8 23  1  6  0  0  0
  8 13  1  0  0  0  0
 10 18  1  0  0  0  0
 11  4  1  0  0  0  0
 12 16  1  0  0  0  0
 12  8  1  0  0  0  0
 13 18  1  6  0  0  0
 15  4  2  0  0  0  0
 15 20  1  0  0  0  0
 16  5  1  0  0  0  0
 17 16  2  0  0  0  0
 17  6  1  0  0  0  0
 19  3  1  0  0  0  0
 19 10  1  0  0  0  0
 20 19  2  0  0  0  0
 22 23  1  0  0  0  0
 22 21  2  0  0  0  0
 24 27  1  0  0  0  0
 24 28  1  0  0  0  0
 25 28  1  0  0  0  0
 26 29  2  0  0  0  0
 29 30  1  0  0  0  0
 29 31  1  0  0  0  0
 30 25  1  0  0  0  0
 30 22  1  1  0  0  0
 31 24  2  0  0  0  0
M  END
>  <MODEL>
2

>  <REMARK>
 VINA RESULT:      -7.9      3.033      5.049
  Name = 
  2 active torsions:
  status: ('A' for Active; 'I' for Inactive)
    1  A    between atoms: C_5  and  C_30
    2  A    between atoms: C_10  and  N_16
                            x       y       z     vdW  Elec       q    Type
                         _______ _______ _______ _____ _____    ______ ____

>  <TORSDO>
F 2

$$$$
=
 OpenBabel11112417033D

 31 35  0  0  1  0  0  0  0  0999 V2000
  189.9760  171.4280  138.5310 C   0  0  0  0  0  0  0  0  0  0  0  0
  190.4970  172.9870  141.9570 C   0  0  2  0  0  3  0  0  0  0  0  0
  191.6210  174.0040  142.0100 C   0  0  0  0  0  0  0  0  0  0  0  0
  193.5910  175.0390  141.0630 C   0  0  0  0  0  0  0  0  0  0  0  0
  189.9800  172.7340  140.5710 C   0  0  0  0  0  0  0  0  0  0  0  0
  189.0010  172.2730  137.9910 C   0  0  0  0  0  3  0  0  0  0  0  0
  192.5420  174.1240  140.9610 C   0  0  0  0  0  3  0  0  0  0  0  0
  188.3600  174.4600  142.3190 C   0  0  1  0  0  3  0  0  0  0  0  0
  190.4720  170.3350  137.7680 N   0  0  0  0  0  1  0  0  0  0  0  0
  190.9000  174.6680  144.2720 N   0  0  0  0  0  2  0  0  0  0  0  0
  194.5200  175.1760  139.9950 N   0  0  0  0  0  1  0  0  0  0  0  0
  188.5210  174.7560  140.8170 C   0  0  0  0  0  2  0  0  0  0  0  0
  189.3300  173.3770  142.8870 C   0  0  2  0  0  3  0  0  0  0  0  0
  190.4680  171.6590  139.8200 C   0  0  0  0  0  3  0  0  0  0  0  0
  193.7270  175.7980  142.1840 N   0  0  0  0  0  0  0  0  0  0  0  0
  188.9930  173.5730  140.0340 C   0  0  0  0  0  0  0  0  0  0  0  0
  188.5120  173.3490  138.7400 C   0  0  0  0  0  3  0  0  0  0  0  0
  189.8490  173.6510  144.3030 C   0  0  0  0  0  2  0  0  0  0  0  0
  191.8070  174.7770  143.1710 C   0  0  0  0  0  0  0  0  0  0  0  0
  192.8650  175.6860  143.2290 C   0  0  0  0  0  3  0  0  0  0  0  0
  186.1360  176.1030  143.1070 O   0  0  0  0  0  0  0  0  0  0  0  0
  187.2950  176.4970  143.4070 C   0  0  0  0  0  0  0  0  0  0  0  0
  188.4390  175.7100  143.0640 N   0  0  0  0  0  2  0  0  0  0  0  0
  185.4470  178.1490  146.1730 C   0  0  0  0  0  0  0  0  0  0  0  0
  187.8120  177.6070  145.5870 C   0  0  0  0  0  2  0  0  0  0  0  0
  186.0330  179.2850  142.8910 O   0  0  0  0  0  0  0  0  0  0  0  0
  184.4250  178.3150  147.2380 C   0  0  0  0  0  1  0  0  0  0  0  0
  186.5830  177.1910  146.3950 C   0  0  0  0  0  2  0  0  0  0  0  0
  186.2420  178.6670  143.9680 C   0  0  0  0  0  0  0  0  0  0  0  0
  187.4660  177.8080  144.1080 C   0  0  2  0  0  3  0  0  0  0  0  0
  185.3010  178.7790  145.0440 N   0  0  0  0  0  0  0  0  0  0  0  0
  1 14  1  0  0  0  0
  2  5  1  6  0  0  0
  2  3  1  0  0  0  0
  2 13  1  0  0  0  0
  3 19  1  0  0  0  0
  4 15  2  0  0  0  0
  6  1  2  0  0  0  0
  6 17  1  0  0  0  0
  7  4  1  0  0  0  0
  7  3  2  0  0  0  0
  8 13  1  0  0  0  0
  8 23  1  1  0  0  0
  9  1  1  0  0  0  0
 10 18  1  0  0  0  0
 11  4  1  0  0  0  0
 12  8  1  0  0  0  0
 13 18  1  1  0  0  0
 14  5  2  0  0  0  0
 15 20  1  0  0  0  0
 16  5  1  0  0  0  0
 16 12  1  0  0  0  0
 17 16  2  0  0  0  0
 19 20  2  0  0  0  0
 19 10  1  0  0  0  0
 21 22  2  0  0  0  0
 23 22  1  0  0  0  0
 24 28  1  0  0  0  0
 24 27  1  0  0  0  0
 25 28  1  0  0  0  0
 26 29  2  0  0  0  0
 29 30  1  0  0  0  0
 29 31  1  0  0  0  0
 30 22  1  1  0  0  0
 30 25  1  0  0  0  0
 31 24  2  0  0  0  0
M  END
>  <MODEL>
3

>  <REMARK>
 VINA RESULT:      -7.8      2.692      5.256
  Name = 
  2 active torsions:
  status: ('A' for Active; 'I' for Inactive)
    1  A    between atoms: C_5  and  C_30
    2  A    between atoms: C_10  and  N_16
                            x       y       z     vdW  Elec       q    Type
                         _______ _______ _______ _____ _____    ______ ____

>  <TORSDO>
F 2

$$$$
=
 OpenBabel11112417033D

 31 35  0  0  1  0  0  0  0  0999 V2000
  192.3630  171.0180  141.2980 C   0  0  0  0  0  0  0  0  0  0  0  0
  191.2750  173.3300  144.1110 C   0  0  2  0  0  3  0  0  0  0  0  0
  192.1920  174.5190  144.3240 C   0  0  0  0  0  0  0  0  0  0  0  0
  194.2910  175.6680  143.9780 C   0  0  0  0  0  0  0  0  0  0  0  0
  191.4090  172.7030  142.7540 C   0  0  0  0  0  0  0  0  0  0  0  0
  191.6430  171.5430  140.2200 C   0  0  0  0  0  3  0  0  0  0  0  0
  193.4560  174.5790  143.7230 C   0  0  0  0  0  3  0  0  0  0  0  0
  189.0780  174.4390  143.2120 C   0  0  1  0  0  3  0  0  0  0  0  0
  193.2150  169.8960  141.1060 N   0  0  0  0  0  1  0  0  0  0  0  0
  190.5380  175.5040  145.8660 N   0  0  0  0  0  2  0  0  0  0  0  0
  195.5700  175.7420  143.3580 N   0  0  0  0  0  1  0  0  0  0  0  0
  189.8320  174.4380  141.8690 C   0  0  0  0  0  2  0  0  0  0  0  0
  189.7990  173.6910  144.3760 C   0  0  2  0  0  3  0  0  0  0  0  0
  192.2490  171.5990  142.5660 C   0  0  0  0  0  3  0  0  0  0  0  0
  193.8860  176.6570  144.8190 N   0  0  0  0  0  0  0  0  0  0  0  0
  190.6780  173.2200  141.6750 C   0  0  0  0  0  0  0  0  0  0  0  0
  190.8040  172.6470  140.4060 C   0  0  0  0  0  3  0  0  0  0  0  0
  189.6530  174.3460  145.7550 C   0  0  0  0  0  2  0  0  0  0  0  0
  191.8130  175.5400  145.2160 C   0  0  0  0  0  0  0  0  0  0  0  0
  192.6760  176.6150  145.4370 C   0  0  0  0  0  3  0  0  0  0  0  0
  186.5740  175.7540  142.6980 O   0  0  0  0  0  0  0  0  0  0  0  0
  187.4830  176.4190  143.2640 C   0  0  0  0  0  0  0  0  0  0  0  0
  188.7410  175.8120  143.5690 N   0  0  0  0  0  2  0  0  0  0  0  0
  185.1120  178.1220  145.5610 C   0  0  0  0  0  0  0  0  0  0  0  0
  187.5590  178.1500  145.0670 C   0  0  0  0  0  2  0  0  0  0  0  0
  185.5060  178.4980  142.0820 O   0  0  0  0  0  0  0  0  0  0  0  0
  184.0360  178.2550  146.5770 C   0  0  0  0  0  1  0  0  0  0  0  0
  186.4620  177.6200  145.9910 C   0  0  0  0  0  2  0  0  0  0  0  0
  185.8310  178.2640  143.2750 C   0  0  0  0  0  0  0  0  0  0  0  0
  187.2410  177.8570  143.5980 C   0  0  2  0  0  3  0  0  0  0  0  0
  184.8470  178.3720  144.3130 N   0  0  0  0  0  0  0  0  0  0  0  0
  1 14  1  0  0  0  0
  2  5  1  6  0  0  0
  2  3  1  0  0  0  0
  2 13  1  0  0  0  0
  3 19  1  0  0  0  0
  4 15  2  0  0  0  0
  6 17  1  0  0  0  0
  6  1  2  0  0  0  0
  7  4  1  0  0  0  0
  7  3  2  0  0  0  0
  8 23  1  1  0  0  0
  8 13  1  0  0  0  0
  9  1  1  0  0  0  0
 11  4  1  0  0  0  0
 12  8  1  0  0  0  0
 13 18  1  1  0  0  0
 14  5  2  0  0  0  0
 15 20  1  0  0  0  0
 16 12  1  0  0  0  0
 16  5  1  0  0  0  0
 17 16  2  0  0  0  0
 18 10  1  0  0  0  0
 19 20  2  0  0  0  0
 19 10  1  0  0  0  0
 21 22  2  0  0  0  0
 22 23  1  0  0  0  0
 24 28  1  0  0  0  0
 24 27  1  0  0  0  0
 25 28  1  0  0  0  0
 26 29  2  0  0  0  0
 29 30  1  0  0  0  0
 29 31  1  0  0  0  0
 30 22  1  1  0  0  0
 30 25  1  0  0  0  0
 31 24  2  0  0  0  0
M  END
>  <MODEL>
4

>  <REMARK>
 VINA RESULT:      -7.6      2.334      4.598
  Name = 
  2 active torsions:
  status: ('A' for Active; 'I' for Inactive)
    1  A    between atoms: C_5  and  C_30
    2  A    between atoms: C_10  and  N_16
                            x       y       z     vdW  Elec       q    Type
                         _______ _______ _______ _____ _____    ______ ____

>  <TORSDO>
F 2

$$$$
=
 OpenBabel11112417033D

 31 35  0  0  1  0  0  0  0  0999 V2000
  186.8470  177.1710  140.2450 C   0  0  0  0  0  0  0  0  0  0  0  0
  189.1350  177.6720  143.2370 C   0  0  2  0  0  3  0  0  0  0  0  0
  188.4850  177.3610  144.5710 C   0  0  0  0  0  0  0  0  0  0  0  0
  186.5310  176.9480  145.9340 C   0  0  0  0  0  0  0  0  0  0  0  0
  188.4370  177.0410  142.0670 C   0  0  0  0  0  0  0  0  0  0  0  0
  187.1500  175.8530  139.8860 C   0  0  0  0  0  3  0  0  0  0  0  0
  187.1000  177.1870  144.6820 C   0  0  0  0  0  3  0  0  0  0  0  0
  190.9210  175.7690  143.0000 C   0  0  1  0  0  3  0  0  0  0  0  0
  185.8840  177.9060  139.5010 N   0  0  0  0  0  1  0  0  0  0  0  0
  190.6860  177.5350  145.6710 N   0  0  0  0  0  2  0  0  0  0  0  0
  185.1260  176.7550  146.0500 N   0  0  0  0  0  1  0  0  0  0  0  0
  189.7170  174.9360  142.5220 C   0  0  0  0  0  2  0  0  0  0  0  0
  190.6290  177.2850  143.2250 C   0  0  2  0  0  3  0  0  0  0  0  0
  187.4890  177.7650  141.3360 C   0  0  0  0  0  3  0  0  0  0  0  0
  187.3170  176.9000  147.0420 N   0  0  0  0  0  0  0  0  0  0  0  0
  188.7500  175.7250  141.6990 C   0  0  0  0  0  0  0  0  0  0  0  0
  188.0980  175.1270  140.6160 C   0  0  0  0  0  3  0  0  0  0  0  0
  191.3480  177.9130  144.4240 C   0  0  0  0  0  2  0  0  0  0  0  0
  189.2690  177.3400  145.7400 C   0  0  0  0  0  0  0  0  0  0  0  0
  188.6610  177.0900  146.9710 C   0  0  0  0  0  3  0  0  0  0  0  0
  193.2660  174.1060  143.0610 O   0  0  0  0  0  0  0  0  0  0  0  0
  192.6550  174.3030  144.1460 C   0  0  0  0  0  0  0  0  0  0  0  0
  191.4970  175.1420  144.1830 N   0  0  0  0  0  2  0  0  0  0  0  0
  196.0430  173.7240  145.5530 C   0  0  0  0  0  0  0  0  0  0  0  0
  193.8460  174.6300  146.3200 C   0  0  0  0  0  2  0  0  0  0  0  0
  193.5540  171.3840  144.6980 O   0  0  0  0  0  0  0  0  0  0  0  0
  197.5250  173.7840  145.6430 C   0  0  0  0  0  1  0  0  0  0  0  0
  195.2450  174.9720  145.8070 C   0  0  0  0  0  2  0  0  0  0  0  0
  194.0470  172.4790  145.0770 C   0  0  0  0  0  0  0  0  0  0  0  0
  193.1410  173.6350  145.3930 C   0  0  2  0  0  3  0  0  0  0  0  0
  195.4700  172.6140  145.1890 N   0  0  0  0  0  0  0  0  0  0  0  0
  1 14  1  0  0  0  0
  2  5  1  6  0  0  0
  2  3  1  0  0  0  0
  3  7  2  0  0  0  0
  3 19  1  0  0  0  0
  4 11  1  0  0  0  0
  4 15  2  0  0  0  0
  6  1  2  0  0  0  0
  6 17  1  0  0  0  0
  7  4  1  0  0  0  0
  8 13  1  0  0  0  0
  8 23  1  1  0  0  0
  9  1  1  0  0  0  0
 10 19  1  0  0  0  0
 12  8  1  0  0  0  0
 13  2  1  0  0  0  0
 13 18  1  1  0  0  0
 14  5  2  0  0  0  0
 16  5  1  0  0  0  0
 16 12  1  0  0  0  0
 17 16  2  0  0  0  0
 18 10  1  0  0  0  0
 19 20  2  0  0  0  0
 20 15  1  0  0  0  0
 21 22  2  0  0  0  0
 22 23  1  0  0  0  0
 24 27  1  0  0  0  0
 24 28  1  0  0  0  0
 26 29  2  0  0  0  0
 28 25  1  0  0  0  0
 29 31  1  0  0  0  0
 29 30  1  0  0  0  0
 30 22  1  6  0  0  0
 30 25  1  0  0  0  0
 31 24  2  0  0  0  0
M  END
>  <MODEL>
5

>  <REMARK>
 VINA RESULT:      -7.6      2.923      7.726
  Name = 
  2 active torsions:
  status: ('A' for Active; 'I' for Inactive)
    1  A    between atoms: C_5  and  C_30
    2  A    between atoms: C_10  and  N_16
                            x       y       z     vdW  Elec       q    Type
                         _______ _______ _______ _____ _____    ______ ____

>  <TORSDO>
F 2

$$$$
=
 OpenBabel11112417033D

 31 35  0  0  1  0  0  0  0  0999 V2000
  186.1520  177.3680  142.5670 C   0  0  0  0  0  0  0  0  0  0  0  0
  188.6750  174.5330  142.7680 C   0  0  2  0  0  3  0  0  0  0  0  0
  189.1130  173.9980  141.4180 C   0  0  0  0  0  0  0  0  0  0  0  0
  188.8290  173.7880  139.0260 C   0  0  0  0  0  0  0  0  0  0  0  0
  188.0820  175.9110  142.7050 C   0  0  0  0  0  0  0  0  0  0  0  0
  186.9930  178.4850  142.5930 C   0  0  0  0  0  3  0  0  0  0  0  0
  188.4260  174.3360  140.2450 C   0  0  0  0  0  3  0  0  0  0  0  0
  190.8510  175.6790  143.6750 C   0  0  1  0  0  3  0  0  0  0  0  0
  184.7440  177.5410  142.4820 N   0  0  0  0  0  1  0  0  0  0  0  0
  190.8790  172.6810  142.5260 N   0  0  0  0  0  2  0  0  0  0  0  0
  188.1450  174.1400  137.8290 N   0  0  0  0  0  1  0  0  0  0  0  0
  190.4070  176.8430  142.7700 C   0  0  0  0  0  2  0  0  0  0  0  0
  189.8260  174.5070  143.7940 C   0  0  2  0  0  3  0  0  0  0  0  0
  186.6960  176.0800  142.6200 C   0  0  0  0  0  3  0  0  0  0  0  0
  189.8720  172.9170  138.9810 N   0  0  0  0  0  0  0  0  0  0  0  0
  188.9240  177.0320  142.7440 C   0  0  0  0  0  0  0  0  0  0  0  0
  188.3800  178.3180  142.6760 C   0  0  0  0  0  3  0  0  0  0  0  0
  190.4490  173.1070  143.8560 C   0  0  0  0  0  2  0  0  0  0  0  0
  190.1670  173.0680  141.3460 C   0  0  0  0  0  0  0  0  0  0  0  0
  190.5420  172.5490  140.1060 C   0  0  0  0  0  3  0  0  0  0  0  0
  193.3800  176.7050  144.5760 O   0  0  0  0  0  0  0  0  0  0  0  0
  193.3910  175.7840  143.7160 C   0  0  0  0  0  0  0  0  0  0  0  0
  192.1650  175.2150  143.2480 N   0  0  0  0  0  2  0  0  0  0  0  0
  196.1060  173.6860  145.1390 C   0  0  0  0  0  0  0  0  0  0  0  0
  194.7270  173.7750  143.0590 C   0  0  0  0  0  2  0  0  0  0  0  0
  196.2510  176.9750  143.8880 O   0  0  0  0  0  0  0  0  0  0  0  0
  196.8160  172.8470  146.1380 C   0  0  0  0  0  1  0  0  0  0  0  0
  194.9100  173.1190  144.4280 C   0  0  0  0  0  2  0  0  0  0  0  0
  195.8500  175.7880  144.0070 C   0  0  0  0  0  0  0  0  0  0  0  0
  194.6990  175.3020  143.1720 C   0  0  2  0  0  3  0  0  0  0  0  0
  196.4870  174.9160  144.9510 N   0  0  0  0  0  0  0  0  0  0  0  0
  1  6  2  0  0  0  0
  1 14  1  0  0  0  0
  2  3  1  6  0  0  0
  2 13  1  0  0  0  0
  4  7  1  0  0  0  0
  5 16  1  0  0  0  0
  5  2  1  0  0  0  0
  6 17  1  0  0  0  0
  7  3  2  0  0  0  0
  8 23  1  6  0  0  0
  8 13  1  0  0  0  0
  9  1  1  0  0  0  0
 10 18  1  0  0  0  0
 11  4  1  0  0  0  0
 12  8  1  0  0  0  0
 13 18  1  6  0  0  0
 14  5  2  0  0  0  0
 15  4  2  0  0  0  0
 15 20  1  0  0  0  0
 16 12  1  0  0  0  0
 17 16  2  0  0  0  0
 19  3  1  0  0  0  0
 19 10  1  0  0  0  0
 20 19  2  0  0  0  0
 22 21  2  0  0  0  0
 23 22  1  0  0  0  0
 24 27  1  0  0  0  0
 25 30  1  0  0  0  0
 25 28  1  0  0  0  0
 26 29  2  0  0  0  0
 28 24  1  0  0  0  0
 29 31  1  0  0  0  0
 30 22  1  1  0  0  0
 30 29  1  0  0  0  0
 31 24  2  0  0  0  0
M  END
>  <MODEL>
6

>  <REMARK>
 VINA RESULT:      -7.6      2.911      7.414
  Name = 
  2 active torsions:
  status: ('A' for Active; 'I' for Inactive)
    1  A    between atoms: C_5  and  C_30
    2  A    between atoms: C_10  and  N_16
                            x       y       z     vdW  Elec       q    Type
                         _______ _______ _______ _____ _____    ______ ____

>  <TORSDO>
F 2

$$$$
=
 OpenBabel11112417033D

 31 35  0  0  1  0  0  0  0  0999 V2000
  186.3380  177.4020  142.4900 C   0  0  0  0  0  0  0  0  0  0  0  0
  188.8730  174.8550  143.7250 C   0  0  2  0  0  3  0  0  0  0  0  0
  189.2710  173.8240  142.6860 C   0  0  0  0  0  0  0  0  0  0  0  0
  188.9160  172.6870  140.5820 C   0  0  0  0  0  0  0  0  0  0  0  0
  188.2750  176.1000  143.1380 C   0  0  0  0  0  0  0  0  0  0  0  0
  187.1770  178.4300  142.0470 C   0  0  0  0  0  3  0  0  0  0  0  0
  188.5490  173.6770  141.4950 C   0  0  0  0  0  3  0  0  0  0  0  0
  191.0720  176.2440  144.0420 C   0  0  1  0  0  3  0  0  0  0  0  0
  184.9270  177.5410  142.3840 N   0  0  0  0  0  1  0  0  0  0  0  0
  191.0730  173.0360  144.1740 N   0  0  0  0  0  2  0  0  0  0  0  0
  188.1960  172.5430  139.3640 N   0  0  0  0  0  1  0  0  0  0  0  0
  190.5990  176.9590  142.7630 C   0  0  0  0  0  2  0  0  0  0  0  0
  190.0550  175.2250  144.6450 C   0  0  2  0  0  3  0  0  0  0  0  0
  186.8860  176.2360  143.0330 C   0  0  0  0  0  3  0  0  0  0  0  0
  189.9600  171.8590  140.8560 N   0  0  0  0  0  0  0  0  0  0  0  0
  189.1150  177.1370  142.7060 C   0  0  0  0  0  0  0  0  0  0  0  0
  188.5660  178.2960  142.1500 C   0  0  0  0  0  3  0  0  0  0  0  0
  190.6820  173.9590  145.2390 C   0  0  0  0  0  2  0  0  0  0  0  0
  190.3250  172.9310  142.9580 C   0  0  0  0  0  0  0  0  0  0  0  0
  190.6640  171.9600  142.0150 C   0  0  0  0  0  3  0  0  0  0  0  0
  193.5820  177.1290  145.1280 O   0  0  0  0  0  0  0  0  0  0  0  0
  193.5940  176.1390  144.3480 C   0  0  0  0  0  0  0  0  0  0  0  0
  192.3740  175.6370  143.7960 N   0  0  0  0  0  2  0  0  0  0  0  0
  195.0590  175.0130  141.1260 C   0  0  0  0  0  0  0  0  0  0  0  0
  195.7310  176.4160  143.0780 C   0  0  0  0  0  2  0  0  0  0  0  0
  194.4210  173.1630  144.0540 O   0  0  0  0  0  0  0  0  0  0  0  0
  195.1460  174.7770  139.6610 C   0  0  0  0  0  1  0  0  0  0  0  0
  195.1920  176.4160  141.6480 C   0  0  0  0  0  2  0  0  0  0  0  0
  194.6970  174.1630  143.3420 C   0  0  0  0  0  0  0  0  0  0  0  0
  194.9000  175.5040  143.9870 C   0  0  2  0  0  3  0  0  0  0  0  0
  194.7990  174.0150  141.9190 N   0  0  0  0  0  0  0  0  0  0  0  0
  1 14  1  0  0  0  0
  2  3  1  6  0  0  0
  2 13  1  0  0  0  0
  3 19  1  0  0  0  0
  4 15  2  0  0  0  0
  4  7  1  0  0  0  0
  5  2  1  0  0  0  0
  6 17  1  0  0  0  0
  6  1  2  0  0  0  0
  7  3  2  0  0  0  0
  8 23  1  6  0  0  0
  8 13  1  0  0  0  0
  9  1  1  0  0  0  0
 10 18  1  0  0  0  0
 11  4  1  0  0  0  0
 12  8  1  0  0  0  0
 13 18  1  6  0  0  0
 14  5  2  0  0  0  0
 15 20  1  0  0  0  0
 16 12  1  0  0  0  0
 16  5  1  0  0  0  0
 17 16  2  0  0  0  0
 19 10  1  0  0  0  0
 20 19  2  0  0  0  0
 22 21  2  0  0  0  0
 23 22  1  0  0  0  0
 24 28  1  0  0  0  0
 24 31  2  0  0  0  0
 25 30  1  0  0  0  0
 27 24  1  0  0  0  0
 28 25  1  0  0  0  0
 29 30  1  0  0  0  0
 29 26  2  0  0  0  0
 30 22  1  6  0  0  0
 31 29  1  0  0  0  0
M  END
>  <MODEL>
7

>  <REMARK>
 VINA RESULT:      -7.5      2.863      7.083
  Name = 
  2 active torsions:
  status: ('A' for Active; 'I' for Inactive)
    1  A    between atoms: C_5  and  C_30
    2  A    between atoms: C_10  and  N_16
                            x       y       z     vdW  Elec       q    Type
                         _______ _______ _______ _____ _____    ______ ____

>  <TORSDO>
F 2

$$$$
=
 OpenBabel11112417033D

 31 35  0  0  1  0  0  0  0  0999 V2000
  187.5490  176.9290  145.2210 C   0  0  0  0  0  0  0  0  0  0  0  0
  190.8370  175.1340  145.8560 C   0  0  2  0  0  3  0  0  0  0  0  0
  191.0430  173.8990  145.0000 C   0  0  0  0  0  0  0  0  0  0  0  0
  190.2030  172.1750  143.5270 C   0  0  0  0  0  0  0  0  0  0  0  0
  189.8180  176.0870  145.3010 C   0  0  0  0  0  0  0  0  0  0  0  0
  187.9330  177.8720  144.2620 C   0  0  0  0  0  3  0  0  0  0  0  0
  189.9890  173.3390  144.2670 C   0  0  0  0  0  3  0  0  0  0  0  0
  192.6540  176.7870  144.9410 C   0  0  1  0  0  3  0  0  0  0  0  0
  186.2000  176.8780  145.6660 N   0  0  0  0  0  1  0  0  0  0  0  0
  193.3840  173.7710  145.7660 N   0  0  0  0  0  2  0  0  0  0  0  0
  189.1400  171.6100  142.7680 N   0  0  0  0  0  1  0  0  0  0  0  0
  191.6110  177.0500  143.8390 C   0  0  0  0  0  2  0  0  0  0  0  0
  192.1640  175.8790  146.1120 C   0  0  2  0  0  3  0  0  0  0  0  0
  188.4910  176.0340  145.7390 C   0  0  0  0  0  3  0  0  0  0  0  0
  191.4260  171.5790  143.5310 N   0  0  0  0  0  0  0  0  0  0  0  0
  190.2050  177.0410  144.3490 C   0  0  0  0  0  0  0  0  0  0  0  0
  189.2600  177.9260  143.8220 C   0  0  0  0  0  3  0  0  0  0  0  0
  193.2170  174.9110  146.6660 C   0  0  0  0  0  2  0  0  0  0  0  0
  192.2880  173.2410  145.0130 C   0  0  0  0  0  0  0  0  0  0  0  0
  192.4610  172.0840  144.2520 C   0  0  0  0  0  3  0  0  0  0  0  0
  195.3090  177.7940  145.3870 O   0  0  0  0  0  0  0  0  0  0  0  0
  195.1700  176.8400  144.5750 C   0  0  0  0  0  0  0  0  0  0  0  0
  193.8770  176.2800  144.3310 N   0  0  0  0  0  2  0  0  0  0  0  0
  195.5720  174.5450  141.6820 C   0  0  0  0  0  0  0  0  0  0  0  0
  196.3970  176.7910  142.3970 C   0  0  0  0  0  2  0  0  0  0  0  0
  196.8220  174.2420  144.9610 O   0  0  0  0  0  0  0  0  0  0  0  0
  195.1640  173.6560  140.5640 C   0  0  0  0  0  1  0  0  0  0  0  0
  195.3860  176.0300  141.5390 C   0  0  0  0  0  2  0  0  0  0  0  0
  196.4240  174.8110  143.9110 C   0  0  0  0  0  0  0  0  0  0  0  0
  196.3680  176.3110  143.8510 C   0  0  2  0  0  3  0  0  0  0  0  0
  196.0140  174.0200  142.7870 N   0  0  0  0  0  0  0  0  0  0  0  0
  1  9  1  0  0  0  0
  1 14  1  0  0  0  0
  2  3  1  6  0  0  0
  2 13  1  0  0  0  0
  3 19  1  0  0  0  0
  4 15  2  0  0  0  0
  4  7  1  0  0  0  0
  5 14  2  0  0  0  0
  5  2  1  0  0  0  0
  6  1  2  0  0  0  0
  7  3  2  0  0  0  0
  8 23  1  6  0  0  0
  8 13  1  0  0  0  0
 10 18  1  0  0  0  0
 11  4  1  0  0  0  0
 12 16  1  0  0  0  0
 12  8  1  0  0  0  0
 13 18  1  6  0  0  0
 15 20  1  0  0  0  0
 16  5  1  0  0  0  0
 17  6  1  0  0  0  0
 17 16  2  0  0  0  0
 19 10  1  0  0  0  0
 20 19  2  0  0  0  0
 22 21  2  0  0  0  0
 23 22  1  0  0  0  0
 24 31  2  0  0  0  0
 25 30  1  0  0  0  0
 27 24  1  0  0  0  0
 28 24  1  0  0  0  0
 28 25  1  0  0  0  0
 29 26  2  0  0  0  0
 30 29  1  0  0  0  0
 30 22  1  6  0  0  0
 31 29  1  0  0  0  0
M  END
>  <MODEL>
8

>  <REMARK>
 VINA RESULT:      -7.5      2.890      7.201
  Name = 
  2 active torsions:
  status: ('A' for Active; 'I' for Inactive)
    1  A    between atoms: C_5  and  C_30
    2  A    between atoms: C_10  and  N_16
                            x       y       z     vdW  Elec       q    Type
                         _______ _______ _______ _____ _____    ______ ____

>  <TORSDO>
F 2

$$$$
=
 OpenBabel11112417033D

 31 35  0  0  1  0  0  0  0  0999 V2000
  187.1390  177.2570  141.4970 C   0  0  0  0  0  0  0  0  0  0  0  0
  188.9610  174.1860  142.7950 C   0  0  2  0  0  3  0  0  0  0  0  0
  189.7820  173.4630  141.7440 C   0  0  0  0  0  0  0  0  0  0  0  0
  190.3720  173.0350  139.4380 C   0  0  0  0  0  0  0  0  0  0  0  0
  188.6440  175.6090  142.4360 C   0  0  0  0  0  0  0  0  0  0  0  0
  188.0670  178.2650  141.7800 C   0  0  0  0  0  3  0  0  0  0  0  0
  189.6340  173.7530  140.3810 C   0  0  0  0  0  3  0  0  0  0  0  0
  190.7930  175.1600  144.3970 C   0  0  1  0  0  3  0  0  0  0  0  0
  185.9040  177.5830  140.8740 N   0  0  0  0  0  1  0  0  0  0  0  0
  190.7990  172.0740  143.5090 N   0  0  0  0  0  2  0  0  0  0  0  0
  190.2390  173.3350  138.0540 N   0  0  0  0  0  1  0  0  0  0  0  0
  190.8910  176.2650  143.3290 C   0  0  0  0  0  2  0  0  0  0  0  0
  189.6360  174.1340  144.1810 C   0  0  2  0  0  3  0  0  0  0  0  0
  187.4280  175.9280  141.8230 C   0  0  0  0  0  3  0  0  0  0  0  0
  191.2180  172.0490  139.8410 N   0  0  0  0  0  0  0  0  0  0  0  0
  189.5680  176.6210  142.7310 C   0  0  0  0  0  0  0  0  0  0  0  0
  189.2840  177.9480  142.3930 C   0  0  0  0  0  3  0  0  0  0  0  0
  189.9770  172.6860  144.5510 C   0  0  0  0  0  2  0  0  0  0  0  0
  190.6380  172.4140  142.1280 C   0  0  0  0  0  0  0  0  0  0  0  0
  191.3630  171.7270  141.1530 C   0  0  0  0  0  3  0  0  0  0  0  0
  192.4180  175.0830  146.7670 O   0  0  0  0  0  0  0  0  0  0  0  0
  192.8620  174.5210  145.7290 C   0  0  0  0  0  0  0  0  0  0  0  0
  192.0870  174.5040  144.5270 N   0  0  0  0  0  2  0  0  0  0  0  0
  195.7820  174.6730  143.4390 C   0  0  0  0  0  0  0  0  0  0  0  0
  195.3230  174.9410  145.8780 C   0  0  0  0  0  2  0  0  0  0  0  0
  193.9230  171.8770  144.5000 O   0  0  0  0  0  0  0  0  0  0  0  0
  196.5870  175.0880  142.2610 C   0  0  0  0  0  1  0  0  0  0  0  0
  195.5500  175.6600  144.5480 C   0  0  0  0  0  2  0  0  0  0  0  0
  194.4440  173.0220  144.5540 C   0  0  0  0  0  0  0  0  0  0  0  0
  194.2170  173.8870  145.7610 C   0  0  2  0  0  3  0  0  0  0  0  0
  195.2360  173.4930  143.4550 N   0  0  0  0  0  0  0  0  0  0  0  0
  1  6  2  0  0  0  0
  1 14  1  0  0  0  0
  2  3  1  6  0  0  0
  2 13  1  0  0  0  0
  3 19  1  0  0  0  0
  4 15  2  0  0  0  0
  4  7  1  0  0  0  0
  5 16  1  0  0  0  0
  5  2  1  0  0  0  0
  6 17  1  0  0  0  0
  7  3  2  0  0  0  0
  8 23  1  6  0  0  0
  9  1  1  0  0  0  0
 10 18  1  0  0  0  0
 11  4  1  0  0  0  0
 12  8  1  0  0  0  0
 13  8  1  0  0  0  0
 13 18  1  6  0  0  0
 14  5  2  0  0  0  0
 15 20  1  0  0  0  0
 16 12  1  0  0  0  0
 17 16  2  0  0  0  0
 19 10  1  0  0  0  0
 20 19  2  0  0  0  0
 22 21  2  0  0  0  0
 23 22  1  0  0  0  0
 24 31  2  0  0  0  0
 24 28  1  0  0  0  0
 26 29  2  0  0  0  0
 27 24  1  0  0  0  0
 28 25  1  0  0  0  0
 29 30  1  0  0  0  0
 30 22  1  6  0  0  0
 30 25  1  0  0  0  0
 31 29  1  0  0  0  0
M  END
>  <MODEL>
9

>  <REMARK>
 VINA RESULT:      -7.4      3.107      7.000
  Name = 
  2 active torsions:
  status: ('A' for Active; 'I' for Inactive)
    1  A    between atoms: C_5  and  C_30
    2  A    between atoms: C_10  and  N_16
                            x       y       z     vdW  Elec       q    Type
                         _______ _______ _______ _____ _____    ______ ____

>  <TORSDO>
F 2

$$$$
