=
 OpenBabel11112416243D

 30 35  0  0  1  0  0  0  0  0999 V2000
  189.4250  174.9590  144.7360 C   0  0  2  0  0  3  0  0  0  0  0  0
  190.5270  172.9320  143.6560 C   0  0  0  0  0  0  0  0  0  0  0  0
  187.6820  175.8710  141.3000 O   0  0  0  0  0  0  0  0  0  0  0  0
  188.7020  176.2520  144.3090 C   0  0  2  0  0  3  0  0  0  0  0  0
  190.6870  175.3030  145.2500 O   0  0  0  0  0  0  0  0  0  0  0  0
  189.9490  177.9300  147.3710 O   0  0  0  0  0  0  0  0  0  0  0  0
  186.4810  178.3970  145.1220 C   0  0  0  0  0  0  0  0  0  0  0  0
  189.7370  177.0690  146.5300 C   0  0  0  0  0  0  0  0  0  0  0  0
  186.7780  178.5060  143.6640 C   0  0  2  0  0  3  0  0  0  0  0  0
  187.1150  177.0900  141.5970 C   0  0  0  0  0  0  0  0  0  0  0  0
  190.4700  175.7510  146.5620 C   0  0  2  0  0  3  0  0  0  0  0  0
  188.6800  177.2930  145.4770 C   0  0  2  0  0  3  0  0  0  0  0  0
  190.6370  172.0140  142.6080 C   0  0  0  0  0  3  0  0  0  0  0  0
  185.7260  179.4020  143.2070 N   0  0  0  0  0  0  0  0  0  0  0  0
  185.4310  179.1310  145.4440 C   0  0  0  0  0  3  0  0  0  0  0  0
  191.3660  172.7850  144.7540 O   0  0  0  0  0  1  0  0  0  0  0  0
  187.5590  175.0070  142.4170 C   0  0  2  0  0  3  0  0  0  0  0  0
  189.7860  172.0960  141.5080 C   0  0  0  0  0  3  0  0  0  0  0  0
  189.5730  173.9750  143.5950 C   0  0  0  0  0  0  0  0  0  0  0  0
  187.3420  175.9270  143.6380 C   0  0  2  0  0  3  0  0  0  0  0  0
  186.9910  178.0150  140.7520 O   0  0  0  0  0  0  0  0  0  0  0  0
  186.6220  177.1400  142.9930 C   0  0  1  0  0  3  0  0  0  0  0  0
  184.9780  179.7450  144.2050 C   0  0  0  0  0  3  0  0  0  0  0  0
  186.5930  176.4160  146.6410 C   0  0  0  0  0  1  0  0  0  0  0  0
  188.8070  173.0870  141.4600 C   0  0  0  0  0  3  0  0  0  0  0  0
  188.6850  174.0190  142.4960 C   0  0  0  0  0  0  0  0  0  0  0  0
  187.3200  177.6380  146.0980 C   0  0  2  0  0  3  0  0  0  0  0  0
  191.8060  175.8690  147.2840 C   0  0  0  0  0  2  0  0  0  0  0  0
  193.9300  176.8650  146.9010 O   0  0  0  0  0  1  0  0  0  0  0  0
  192.9190  176.1270  146.2880 C   0  0  0  0  0  2  0  0  0  0  0  0
  1 19  1  6  0  0  0
  1  5  1  0  0  0  0
  2 16  1  0  0  0  0
  3 10  1  0  0  0  0
  3 17  1  0  0  0  0
  4  1  1  0  0  0  0
  4 12  1  0  0  0  0
  5 11  1  0  0  0  0
  7 15  2  0  0  0  0
  7 27  1  0  0  0  0
  8 11  1  0  0  0  0
  8  6  2  0  0  0  0
  9  7  1  0  0  0  0
 10 22  1  0  0  0  0
 11 28  1  0  0  0  0
 12 27  1  0  0  0  0
 12  8  1  0  0  0  0
 13  2  2  0  0  0  0
 14  9  1  0  0  0  0
 14 23  2  0  0  0  0
 17 26  1  0  0  0  0
 17 20  1  0  0  0  0
 18 13  1  0  0  0  0
 19  2  1  0  0  0  0
 20  4  1  0  0  0  0
 21 10  2  0  0  0  0
 22 20  1  0  0  0  0
 22  9  1  0  0  0  0
 23 15  1  0  0  0  0
 25 18  2  0  0  0  0
 25 26  1  0  0  0  0
 26 19  2  0  0  0  0
 27 24  1  0  0  0  0
 30 29  1  0  0  0  0
 30 28  1  0  0  0  0
M  END
>  <MODEL>
1

>  <REMARK>
 VINA RESULT:      -9.0      0.000      0.000
  Name = 
  2 active torsions:
  status: ('A' for Active; 'I' for Inactive)
    1  A    between atoms: C_11  and  C_28
    2  A    between atoms: C_28  and  C_30
                            x       y       z     vdW  Elec       q    Type
                         _______ _______ _______ _____ _____    ______ ____

>  <TORSDO>
F 2

$$$$
=
 OpenBabel11112416243D

 30 35  0  0  1  0  0  0  0  0999 V2000
  186.3170  177.2330  143.6030 C   0  0  2  0  0  3  0  0  0  0  0  0
  184.9450  178.3340  145.4450 C   0  0  0  0  0  0  0  0  0  0  0  0
  189.4860  177.1580  145.9750 O   0  0  0  0  0  0  0  0  0  0  0  0
  187.7960  176.9520  143.2660 C   0  0  2  0  0  3  0  0  0  0  0  0
  185.8420  178.2260  142.7300 O   0  0  0  0  0  0  0  0  0  0  0  0
  186.9820  177.1380  139.6540 O   0  0  0  0  0  0  0  0  0  0  0  0
  189.8110  174.9630  141.7920 C   0  0  0  0  0  0  0  0  0  0  0  0
  186.8520  177.1410  140.8690 C   0  0  0  0  0  0  0  0  0  0  0  0
  190.5640  175.8240  142.7490 C   0  0  2  0  0  3  0  0  0  0  0  0
  190.4640  176.7210  145.1100 C   0  0  0  0  0  0  0  0  0  0  0  0
  185.5630  177.5830  141.5140 C   0  0  2  0  0  3  0  0  0  0  0  0
  187.9730  176.6370  141.7440 C   0  0  2  0  0  3  0  0  0  0  0  0
  184.7650  178.7020  146.7810 C   0  0  0  0  0  3  0  0  0  0  0  0
  191.8760  175.1960  142.7550 N   0  0  0  0  0  0  0  0  0  0  0  0
  190.5830  174.0010  141.3170 C   0  0  0  0  0  3  0  0  0  0  0  0
  183.9400  178.6370  144.5350 O   0  0  0  0  0  1  0  0  0  0  0  0
  188.2770  176.4680  145.7100 C   0  0  2  0  0  3  0  0  0  0  0  0
  185.7270  178.3790  147.7360 C   0  0  0  0  0  3  0  0  0  0  0  0
  186.1220  177.6610  145.0420 C   0  0  0  0  0  0  0  0  0  0  0  0
  188.4050  175.9350  144.2660 C   0  0  2  0  0  3  0  0  0  0  0  0
  191.6660  177.0890  145.1890 O   0  0  0  0  0  0  0  0  0  0  0  0
  189.9380  175.7310  144.1420 C   0  0  1  0  0  3  0  0  0  0  0  0
  191.8790  174.1790  141.9560 C   0  0  0  0  0  3  0  0  0  0  0  0
  187.4500  174.1490  141.8760 C   0  0  0  0  0  1  0  0  0  0  0  0
  186.8670  177.6700  147.3610 C   0  0  0  0  0  3  0  0  0  0  0  0
  187.0680  177.2990  146.0270 C   0  0  0  0  0  0  0  0  0  0  0  0
  188.4030  175.2160  141.3570 C   0  0  2  0  0  3  0  0  0  0  0  0
  184.7770  178.5250  140.6120 C   0  0  0  0  0  2  0  0  0  0  0  0
  182.6270  178.1840  141.5660 O   0  0  0  0  0  1  0  0  0  0  0  0
  183.3710  177.9990  140.4030 C   0  0  0  0  0  2  0  0  0  0  0  0
  1  5  1  6  0  0  0
  1 19  1  0  0  0  0
  2 13  1  0  0  0  0
  4  1  1  0  0  0  0
  4 20  1  0  0  0  0
  6  8  2  0  0  0  0
  7  9  1  0  0  0  0
  8 11  1  0  0  0  0
  8 12  1  0  0  0  0
  9 14  1  0  0  0  0
  9 22  1  0  0  0  0
 10 21  2  0  0  0  0
 10  3  1  0  0  0  0
 11  5  1  0  0  0  0
 12  4  1  0  0  0  0
 13 18  2  0  0  0  0
 15  7  2  0  0  0  0
 15 23  1  0  0  0  0
 16  2  1  0  0  0  0
 17  3  1  0  0  0  0
 17 26  1  0  0  0  0
 19  2  2  0  0  0  0
 19 26  1  0  0  0  0
 20 17  1  0  0  0  0
 22 20  1  0  0  0  0
 22 10  1  0  0  0  0
 23 14  2  0  0  0  0
 25 18  1  0  0  0  0
 26 25  2  0  0  0  0
 27 12  1  0  0  0  0
 27  7  1  0  0  0  0
 27 24  1  0  0  0  0
 28 11  1  0  0  0  0
 30 28  1  0  0  0  0
 30 29  1  0  0  0  0
M  END
>  <MODEL>
2

>  <REMARK>
 VINA RESULT:      -8.9      2.464      7.131
  Name = 
  2 active torsions:
  status: ('A' for Active; 'I' for Inactive)
    1  A    between atoms: C_11  and  C_28
    2  A    between atoms: C_28  and  C_30
                            x       y       z     vdW  Elec       q    Type
                         _______ _______ _______ _____ _____    ______ ____

>  <TORSDO>
F 2

$$$$
=
 OpenBabel11112416243D

 30 35  0  0  1  0  0  0  0  0999 V2000
  190.0530  175.6710  143.8780 C   0  0  2  0  0  3  0  0  0  0  0  0
  191.8420  175.1140  145.6030 C   0  0  0  0  0  0  0  0  0  0  0  0
  187.5690  176.7490  146.7660 O   0  0  0  0  0  0  0  0  0  0  0  0
  188.5350  175.9430  143.8250 C   0  0  2  0  0  3  0  0  0  0  0  0
  190.3010  174.4160  143.2950 O   0  0  0  0  0  0  0  0  0  0  0  0
  188.4310  174.5470  140.3920 O   0  0  0  0  0  0  0  0  0  0  0  0
  186.2110  177.5070  142.2930 C   0  0  0  0  0  0  0  0  0  0  0  0
  188.8570  174.9230  141.4730 C   0  0  0  0  0  0  0  0  0  0  0  0
  185.7220  177.0590  143.6300 C   0  0  2  0  0  3  0  0  0  0  0  0
  186.4060  176.9610  146.0620 C   0  0  0  0  0  0  0  0  0  0  0  0
  190.2680  174.6120  141.9060 C   0  0  2  0  0  3  0  0  0  0  0  0
  187.9860  175.7670  142.3710 C   0  0  2  0  0  3  0  0  0  0  0  0
  192.3480  175.1800  146.9030 C   0  0  0  0  0  3  0  0  0  0  0  0
  184.4490  177.7570  143.7360 N   0  0  0  0  0  0  0  0  0  0  0  0
  185.3420  178.3230  141.7230 C   0  0  0  0  0  3  0  0  0  0  0  0
  192.5920  174.4580  144.6340 O   0  0  0  0  0  1  0  0  0  0  0  0
  188.6730  177.2220  146.0120 C   0  0  2  0  0  3  0  0  0  0  0  0
  191.6520  175.8670  147.8960 C   0  0  0  0  0  3  0  0  0  0  0  0
  190.5990  175.7120  145.2890 C   0  0  0  0  0  0  0  0  0  0  0  0
  188.1890  177.2720  144.5460 C   0  0  2  0  0  3  0  0  0  0  0  0
  185.2630  176.7330  146.5370 O   0  0  0  0  0  0  0  0  0  0  0  0
  186.6720  177.5440  144.7260 C   0  0  1  0  0  3  0  0  0  0  0  0
  184.2450  178.4610  142.6710 C   0  0  0  0  0  3  0  0  0  0  0  0
  188.5160  178.1170  141.5480 C   0  0  0  0  0  1  0  0  0  0  0  0
  190.4520  176.5050  147.5880 C   0  0  0  0  0  3  0  0  0  0  0  0
  189.9250  176.4440  146.2920 C   0  0  0  0  0  0  0  0  0  0  0  0
  187.4680  177.0180  141.6490 C   0  0  2  0  0  3  0  0  0  0  0  0
  190.8090  173.3720  141.2070 C   0  0  0  0  0  2  0  0  0  0  0  0
  189.7470  171.3970  141.9950 O   0  0  0  0  0  1  0  0  0  0  0  0
  190.8660  172.2070  142.1760 C   0  0  0  0  0  2  0  0  0  0  0  0
  1  5  1  1  0  0  0
  1 19  1  0  0  0  0
  2 13  1  0  0  0  0
  4  1  1  0  0  0  0
  4 20  1  0  0  0  0
  6  8  2  0  0  0  0
  7  9  1  0  0  0  0
  8 11  1  0  0  0  0
  8 12  1  0  0  0  0
  9 14  1  0  0  0  0
  9 22  1  0  0  0  0
 10 21  2  0  0  0  0
 10  3  1  0  0  0  0
 11  5  1  0  0  0  0
 12  4  1  0  0  0  0
 13 18  2  0  0  0  0
 15  7  2  0  0  0  0
 15 23  1  0  0  0  0
 16  2  1  0  0  0  0
 17 26  1  0  0  0  0
 17  3  1  0  0  0  0
 19  2  2  0  0  0  0
 19 26  1  0  0  0  0
 20 22  1  0  0  0  0
 20 17  1  0  0  0  0
 22 10  1  0  0  0  0
 23 14  2  0  0  0  0
 24 27  1  0  0  0  0
 25 18  1  0  0  0  0
 26 25  2  0  0  0  0
 27  7  1  0  0  0  0
 27 12  1  0  0  0  0
 28 11  1  0  0  0  0
 28 30  1  0  0  0  0
 29 30  1  0  0  0  0
M  END
>  <MODEL>
3

>  <REMARK>
 VINA RESULT:      -8.8      1.793      4.748
  Name = 
  2 active torsions:
  status: ('A' for Active; 'I' for Inactive)
    1  A    between atoms: C_11  and  C_28
    2  A    between atoms: C_28  and  C_30
                            x       y       z     vdW  Elec       q    Type
                         _______ _______ _______ _____ _____    ______ ____

>  <TORSDO>
F 2

$$$$
=
 OpenBabel11112416243D

 30 35  0  0  1  0  0  0  0  0999 V2000
  186.9090  177.2470  143.9730 C   0  0  2  0  0  3  0  0  0  0  0  0
  184.8520  178.2130  142.8210 C   0  0  0  0  0  0  0  0  0  0  0  0
  187.9110  175.3510  140.6450 O   0  0  0  0  0  0  0  0  0  0  0  0
  187.9480  176.1300  143.7480 C   0  0  2  0  0  3  0  0  0  0  0  0
  186.0690  176.8670  145.0350 O   0  0  0  0  0  0  0  0  0  0  0  0
  188.3150  175.7670  147.4200 O   0  0  0  0  0  0  0  0  0  0  0  0
  190.9670  175.2250  144.2610 C   0  0  0  0  0  0  0  0  0  0  0  0
  187.9400  176.1760  146.3310 C   0  0  0  0  0  0  0  0  0  0  0  0
  190.3700  174.3960  143.1730 C   0  0  2  0  0  3  0  0  0  0  0  0
  188.9720  174.5860  141.0750 C   0  0  0  0  0  0  0  0  0  0  0  0
  186.7800  177.1320  146.2150 C   0  0  2  0  0  3  0  0  0  0  0  0
  188.6850  175.7750  145.0820 C   0  0  2  0  0  3  0  0  0  0  0  0
  184.1180  178.4950  141.6670 C   0  0  0  0  0  3  0  0  0  0  0  0
  191.5330  173.6890  142.6580 N   0  0  0  0  0  0  0  0  0  0  0  0
  192.2670  175.0090  144.3570 C   0  0  0  0  0  3  0  0  0  0  0  0
  184.3410  178.6230  144.0480 O   0  0  0  0  0  1  0  0  0  0  0  0
  187.9670  176.6270  141.2600 C   0  0  2  0  0  3  0  0  0  0  0  0
  184.6130  178.1420  140.4140 C   0  0  0  0  0  3  0  0  0  0  0  0
  186.0900  177.5350  142.7320 C   0  0  0  0  0  0  0  0  0  0  0  0
  188.8420  176.4480  142.5210 C   0  0  2  0  0  3  0  0  0  0  0  0
  189.2290  173.4440  140.6120 O   0  0  0  0  0  0  0  0  0  0  0  0
  189.7890  175.3000  142.0840 C   0  0  1  0  0  3  0  0  0  0  0  0
  192.5870  174.0370  143.3220 C   0  0  0  0  0  3  0  0  0  0  0  0
  190.4760  177.5790  144.9420 C   0  0  0  0  0  1  0  0  0  0  0  0
  185.8550  177.5200  140.3080 C   0  0  0  0  0  3  0  0  0  0  0  0
  186.6030  177.2230  141.4530 C   0  0  0  0  0  0  0  0  0  0  0  0
  190.1810  176.1040  145.1790 C   0  0  2  0  0  3  0  0  0  0  0  0
  185.8390  177.0210  147.4080 C   0  0  0  0  0  2  0  0  0  0  0  0
  185.7920  179.3890  147.2070 O   0  0  0  0  0  1  0  0  0  0  0  0
  185.0120  178.2840  147.5430 C   0  0  0  0  0  2  0  0  0  0  0  0
  1 19  1  6  0  0  0
  1  5  1  0  0  0  0
  2 16  1  0  0  0  0
  3 10  1  0  0  0  0
  3 17  1  0  0  0  0
  4  1  1  0  0  0  0
  4 12  1  0  0  0  0
  5 11  1  0  0  0  0
  7 15  2  0  0  0  0
  7 27  1  0  0  0  0
  8  6  2  0  0  0  0
  9  7  1  0  0  0  0
 10 22  1  0  0  0  0
 11  8  1  0  0  0  0
 11 28  1  0  0  0  0
 12 27  1  0  0  0  0
 12  8  1  0  0  0  0
 13  2  2  0  0  0  0
 14  9  1  0  0  0  0
 14 23  2  0  0  0  0
 17 26  1  0  0  0  0
 17 20  1  0  0  0  0
 18 13  1  0  0  0  0
 19  2  1  0  0  0  0
 20  4  1  0  0  0  0
 21 10  2  0  0  0  0
 22 20  1  0  0  0  0
 22  9  1  0  0  0  0
 23 15  1  0  0  0  0
 24 27  1  0  0  0  0
 25 18  2  0  0  0  0
 25 26  1  0  0  0  0
 26 19  2  0  0  0  0
 28 30  1  0  0  0  0
 29 30  1  0  0  0  0
M  END
>  <MODEL>
4

>  <REMARK>
 VINA RESULT:      -8.5      2.657      5.726
  Name = 
  2 active torsions:
  status: ('A' for Active; 'I' for Inactive)
    1  A    between atoms: C_11  and  C_28
    2  A    between atoms: C_28  and  C_30
                            x       y       z     vdW  Elec       q    Type
                         _______ _______ _______ _____ _____    ______ ____

>  <TORSDO>
F 2

$$$$
=
 OpenBabel11112416243D

 30 35  0  0  1  0  0  0  0  0999 V2000
  191.3830  174.8470  144.2470 C   0  0  2  0  0  3  0  0  0  0  0  0
  192.5290  173.6780  142.2950 C   0  0  0  0  0  0  0  0  0  0  0  0
  188.5190  176.1250  141.8300 O   0  0  0  0  0  0  0  0  0  0  0  0
  190.2930  175.9130  144.4840 C   0  0  2  0  0  3  0  0  0  0  0  0
  192.6310  175.4060  144.5750 O   0  0  0  0  0  0  0  0  0  0  0  0
  192.0040  176.9270  147.6140 O   0  0  0  0  0  0  0  0  0  0  0  0
  188.0040  176.9130  146.4710 C   0  0  0  0  0  0  0  0  0  0  0  0
  191.7450  176.3280  146.5810 C   0  0  0  0  0  0  0  0  0  0  0  0
  187.8100  177.5310  145.1280 C   0  0  2  0  0  3  0  0  0  0  0  0
  187.8110  176.9610  142.6640 C   0  0  0  0  0  0  0  0  0  0  0  0
  192.7290  175.3600  145.9740 C   0  0  2  0  0  3  0  0  0  0  0  0
  190.3950  176.5050  145.9290 C   0  0  2  0  0  3  0  0  0  0  0  0
  192.5180  173.1900  140.9860 C   0  0  0  0  0  3  0  0  0  0  0  0
  186.4960  178.1420  145.2610 N   0  0  0  0  0  0  0  0  0  0  0  0
  186.9650  177.1510  147.2530 C   0  0  0  0  0  3  0  0  0  0  0  0
  193.6740  173.4900  143.0620 O   0  0  0  0  0  1  0  0  0  0  0  0
  188.9380  174.9800  142.5530 C   0  0  2  0  0  3  0  0  0  0  0  0
  191.3770  173.3170  140.1970 C   0  0  0  0  0  3  0  0  0  0  0  0
  191.3940  174.3380  142.8210 C   0  0  0  0  0  0  0  0  0  0  0  0
  188.9030  175.3860  144.0430 C   0  0  2  0  0  3  0  0  0  0  0  0
  187.2310  178.0030  142.2620 O   0  0  0  0  0  0  0  0  0  0  0  0
  187.7680  176.4430  144.0520 C   0  0  1  0  0  3  0  0  0  0  0  0
  186.0300  177.9250  146.4480 C   0  0  0  0  0  3  0  0  0  0  0  0
  189.0140  174.7160  147.1010 C   0  0  0  0  0  1  0  0  0  0  0  0
  190.2340  173.9180  140.7210 C   0  0  0  0  0  3  0  0  0  0  0  0
  190.2280  174.4190  142.0270 C   0  0  0  0  0  0  0  0  0  0  0  0
  189.2480  176.2070  146.9030 C   0  0  2  0  0  3  0  0  0  0  0  0
  194.1590  175.6760  146.3920 C   0  0  0  0  0  2  0  0  0  0  0  0
  194.8740  177.8400  145.7170 O   0  0  0  0  0  1  0  0  0  0  0  0
  194.8460  176.5030  145.3240 C   0  0  0  0  0  2  0  0  0  0  0  0
  1 19  1  6  0  0  0
  1  4  1  0  0  0  0
  1  5  1  0  0  0  0
  2 19  1  0  0  0  0
  2 16  1  0  0  0  0
  3 17  1  0  0  0  0
  3 10  1  0  0  0  0
  4 12  1  0  0  0  0
  5 11  1  0  0  0  0
  7 27  1  0  0  0  0
  7 15  2  0  0  0  0
  8  6  2  0  0  0  0
  9 14  1  0  0  0  0
  9  7  1  0  0  0  0
 10 22  1  0  0  0  0
 11 28  1  0  0  0  0
 11  8  1  0  0  0  0
 12  8  1  0  0  0  0
 12 27  1  0  0  0  0
 13  2  2  0  0  0  0
 14 23  2  0  0  0  0
 17 20  1  0  0  0  0
 18 25  2  0  0  0  0
 18 13  1  0  0  0  0
 20 22  1  0  0  0  0
 20  4  1  0  0  0  0
 21 10  2  0  0  0  0
 22  9  1  0  0  0  0
 23 15  1  0  0  0  0
 25 26  1  0  0  0  0
 26 17  1  0  0  0  0
 26 19  2  0  0  0  0
 27 24  1  0  0  0  0
 30 29  1  0  0  0  0
 30 28  1  0  0  0  0
M  END
>  <MODEL>
5

>  <REMARK>
 VINA RESULT:      -8.2      1.710      2.215
  Name = 
  2 active torsions:
  status: ('A' for Active; 'I' for Inactive)
    1  A    between atoms: C_11  and  C_28
    2  A    between atoms: C_28  and  C_30
                            x       y       z     vdW  Elec       q    Type
                         _______ _______ _______ _____ _____    ______ ____

>  <TORSDO>
F 2

$$$$
=
 OpenBabel11112416243D

 30 35  0  0  1  0  0  0  0  0999 V2000
  187.6940  175.9160  144.0310 C   0  0  2  0  0  3  0  0  0  0  0  0
  185.7550  177.3870  144.7820 C   0  0  0  0  0  0  0  0  0  0  0  0
  189.7210  176.8820  147.2920 O   0  0  0  0  0  0  0  0  0  0  0  0
  189.1820  175.6940  144.3710 C   0  0  2  0  0  3  0  0  0  0  0  0
  187.6130  176.5440  142.7750 O   0  0  0  0  0  0  0  0  0  0  0  0
  189.8070  174.6860  140.8570 O   0  0  0  0  0  0  0  0  0  0  0  0
  191.5530  173.5580  144.4610 C   0  0  0  0  0  0  0  0  0  0  0  0
  189.2260  175.0470  141.8700 C   0  0  0  0  0  0  0  0  0  0  0  0
  191.9080  174.7400  145.2980 C   0  0  2  0  0  3  0  0  0  0  0  0
  190.9430  176.3010  147.0360 C   0  0  0  0  0  0  0  0  0  0  0  0
  187.8000  175.5350  141.8170 C   0  0  2  0  0  3  0  0  0  0  0  0
  189.9160  174.9470  143.2080 C   0  0  2  0  0  3  0  0  0  0  0  0
  185.0910  178.1260  145.7640 C   0  0  0  0  0  3  0  0  0  0  0  0
  193.1030  174.2760  145.9870 N   0  0  0  0  0  0  0  0  0  0  0  0
  192.4220  172.5780  144.6380 C   0  0  0  0  0  3  0  0  0  0  0  0
  185.1790  177.2960  143.5200 O   0  0  0  0  0  1  0  0  0  0  0  0
  188.6860  176.0280  146.8360 C   0  0  2  0  0  3  0  0  0  0  0  0
  185.6090  178.2060  147.0550 C   0  0  0  0  0  3  0  0  0  0  0  0
  186.9790  176.7420  145.0780 C   0  0  0  0  0  0  0  0  0  0  0  0
  189.3390  175.0950  145.7930 C   0  0  2  0  0  3  0  0  0  0  0  0
  192.0330  176.7920  147.4290 O   0  0  0  0  0  0  0  0  0  0  0  0
  190.7980  175.0160  146.3140 C   0  0  1  0  0  3  0  0  0  0  0  0
  193.3820  173.0690  145.6160 C   0  0  0  0  0  3  0  0  0  0  0  0
  189.3160  172.5800  143.9260 C   0  0  0  0  0  1  0  0  0  0  0  0
  186.7860  177.5330  147.3740 C   0  0  0  0  0  3  0  0  0  0  0  0
  187.4700  176.7930  146.4020 C   0  0  0  0  0  0  0  0  0  0  0  0
  190.4240  173.5260  143.4820 C   0  0  2  0  0  3  0  0  0  0  0  0
  187.4410  176.0750  140.4390 C   0  0  0  0  0  2  0  0  0  0  0  0
  185.7400  177.7070  140.1380 O   0  0  0  0  0  1  0  0  0  0  0  0
  187.0660  177.5410  140.5310 C   0  0  0  0  0  2  0  0  0  0  0  0
  1  5  1  6  0  0  0
  1  4  1  0  0  0  0
  1 19  1  0  0  0  0
  2 19  2  0  0  0  0
  2 13  1  0  0  0  0
  4 20  1  0  0  0  0
  6  8  2  0  0  0  0
  7 15  2  0  0  0  0
  7  9  1  0  0  0  0
  8 12  1  0  0  0  0
  9 14  1  0  0  0  0
  9 22  1  0  0  0  0
 10  3  1  0  0  0  0
 10 21  2  0  0  0  0
 11  8  1  0  0  0  0
 11  5  1  0  0  0  0
 12 27  1  0  0  0  0
 12  4  1  0  0  0  0
 13 18  2  0  0  0  0
 15 23  1  0  0  0  0
 16  2  1  0  0  0  0
 17  3  1  0  0  0  0
 18 25  1  0  0  0  0
 19 26  1  0  0  0  0
 20 22  1  0  0  0  0
 20 17  1  0  0  0  0
 22 10  1  0  0  0  0
 23 14  2  0  0  0  0
 26 17  1  0  0  0  0
 26 25  2  0  0  0  0
 27 24  1  0  0  0  0
 27  7  1  0  0  0  0
 28 30  1  0  0  0  0
 28 11  1  0  0  0  0
 29 30  1  0  0  0  0
M  END
>  <MODEL>
6

>  <REMARK>
 VINA RESULT:      -8.2      2.413      6.916
  Name = 
  2 active torsions:
  status: ('A' for Active; 'I' for Inactive)
    1  A    between atoms: C_11  and  C_28
    2  A    between atoms: C_28  and  C_30
                            x       y       z     vdW  Elec       q    Type
                         _______ _______ _______ _____ _____    ______ ____

>  <TORSDO>
F 2

$$$$
=
 OpenBabel11112416243D

 30 35  0  0  1  0  0  0  0  0999 V2000
  190.3540  174.9240  143.7310 C   0  0  2  0  0  3  0  0  0  0  0  0
  192.6330  174.5640  144.8110 C   0  0  0  0  0  0  0  0  0  0  0  0
  189.1970  177.0860  146.8390 O   0  0  0  0  0  0  0  0  0  0  0  0
  188.9440  175.4050  144.1290 C   0  0  2  0  0  3  0  0  0  0  0  0
  190.3040  173.5380  143.5010 O   0  0  0  0  0  0  0  0  0  0  0  0
  187.4870  173.2000  141.5280 O   0  0  0  0  0  0  0  0  0  0  0  0
  186.2910  176.8580  143.1070 C   0  0  0  0  0  0  0  0  0  0  0  0
  188.3060  173.7730  142.2300 C   0  0  0  0  0  0  0  0  0  0  0  0
  186.3200  176.8540  144.5980 C   0  0  2  0  0  3  0  0  0  0  0  0
  187.8650  177.2850  146.5530 C   0  0  0  0  0  0  0  0  0  0  0  0
  189.7590  173.3700  142.2180 C   0  0  2  0  0  3  0  0  0  0  0  0
  187.8790  174.9450  143.0780 C   0  0  2  0  0  3  0  0  0  0  0  0
  193.5940  174.8860  145.7720 C   0  0  0  0  0  3  0  0  0  0  0  0
  185.2170  177.7440  144.9260 N   0  0  0  0  0  0  0  0  0  0  0  0
  185.3110  177.6230  142.6580 C   0  0  0  0  0  3  0  0  0  0  0  0
  192.9300  173.5700  143.8850 O   0  0  0  0  0  1  0  0  0  0  0  0
  189.9560  177.1690  145.6450 C   0  0  2  0  0  3  0  0  0  0  0  0
  193.3570  175.9050  146.6910 C   0  0  0  0  0  3  0  0  0  0  0  0
  191.3930  175.2450  144.7840 C   0  0  0  0  0  0  0  0  0  0  0  0
  188.9580  176.9120  144.4940 C   0  0  2  0  0  3  0  0  0  0  0  0
  186.9750  177.3680  147.4390 O   0  0  0  0  0  0  0  0  0  0  0  0
  187.6360  177.4540  145.0990 C   0  0  1  0  0  3  0  0  0  0  0  0
  184.6610  178.1710  143.8390 C   0  0  0  0  0  3  0  0  0  0  0  0
  188.1720  176.8900  141.4620 C   0  0  0  0  0  1  0  0  0  0  0  0
  192.1610  176.6190  146.6430 C   0  0  0  0  0  3  0  0  0  0  0  0
  191.1830  176.3070  145.6920 C   0  0  0  0  0  0  0  0  0  0  0  0
  187.1880  176.0310  142.2430 C   0  0  2  0  0  3  0  0  0  0  0  0
  189.9370  171.9230  141.7790 C   0  0  0  0  0  2  0  0  0  0  0  0
  190.7860  172.6670  139.6880 O   0  0  0  0  0  1  0  0  0  0  0  0
  191.0540  171.8180  140.7590 C   0  0  0  0  0  2  0  0  0  0  0  0
  1  5  1  1  0  0  0
  1  4  1  0  0  0  0
  1 19  1  0  0  0  0
  2 13  1  0  0  0  0
  4 20  1  0  0  0  0
  6  8  2  0  0  0  0
  7  9  1  0  0  0  0
  8 12  1  0  0  0  0
  9 14  1  0  0  0  0
  9 22  1  0  0  0  0
 10  3  1  0  0  0  0
 10 21  2  0  0  0  0
 11  8  1  0  0  0  0
 11  5  1  0  0  0  0
 12  4  1  0  0  0  0
 13 18  2  0  0  0  0
 15  7  2  0  0  0  0
 15 23  1  0  0  0  0
 16  2  1  0  0  0  0
 17 26  1  0  0  0  0
 17  3  1  0  0  0  0
 19  2  2  0  0  0  0
 19 26  1  0  0  0  0
 20 22  1  0  0  0  0
 20 17  1  0  0  0  0
 22 10  1  0  0  0  0
 23 14  2  0  0  0  0
 24 27  1  0  0  0  0
 25 18  1  0  0  0  0
 26 25  2  0  0  0  0
 27 12  1  0  0  0  0
 27  7  1  0  0  0  0
 28 11  1  0  0  0  0
 29 30  1  0  0  0  0
 30 28  1  0  0  0  0
M  END
>  <MODEL>
7

>  <REMARK>
 VINA RESULT:      -7.9      1.842      4.847
  Name = 
  2 active torsions:
  status: ('A' for Active; 'I' for Inactive)
    1  A    between atoms: C_11  and  C_28
    2  A    between atoms: C_28  and  C_30
                            x       y       z     vdW  Elec       q    Type
                         _______ _______ _______ _____ _____    ______ ____

>  <TORSDO>
F 2

$$$$
=
 OpenBabel11112416243D

 30 35  0  0  1  0  0  0  0  0999 V2000
  188.1310  176.2040  141.7590 C   0  0  2  0  0  3  0  0  0  0  0  0
  187.8160  175.1980  139.4390 C   0  0  0  0  0  0  0  0  0  0  0  0
  189.5800  172.7640  143.0790 O   0  0  0  0  0  0  0  0  0  0  0  0
  188.3890  175.7310  143.2040 C   0  0  2  0  0  3  0  0  0  0  0  0
  186.8100  176.6770  141.6740 O   0  0  0  0  0  0  0  0  0  0  0  0
  186.5450  178.6860  144.4730 O   0  0  0  0  0  0  0  0  0  0  0  0
  189.7260  176.4860  146.0030 C   0  0  0  0  0  0  0  0  0  0  0  0
  187.0640  177.8910  143.7040 C   0  0  0  0  0  0  0  0  0  0  0  0
  189.4600  175.0190  145.9510 C   0  0  2  0  0  3  0  0  0  0  0  0
  189.6920  173.0140  144.4280 C   0  0  0  0  0  0  0  0  0  0  0  0
  186.8180  177.9700  142.2180 C   0  0  2  0  0  3  0  0  0  0  0  0
  188.0180  176.8490  144.2330 C   0  0  2  0  0  3  0  0  0  0  0  0
  188.0570  174.1930  138.5000 C   0  0  0  0  0  3  0  0  0  0  0  0
  190.1630  174.5410  147.1320 N   0  0  0  0  0  0  0  0  0  0  0  0
  190.4560  176.7940  147.0610 C   0  0  0  0  0  3  0  0  0  0  0  0
  187.0380  176.2850  139.0590 O   0  0  0  0  0  1  0  0  0  0  0  0
  189.9500  173.9220  142.3500 C   0  0  2  0  0  3  0  0  0  0  0  0
  188.8680  173.1070  138.8250 C   0  0  0  0  0  3  0  0  0  0  0  0
  188.3630  175.1070  140.7410 C   0  0  0  0  0  0  0  0  0  0  0  0
  189.8010  175.1030  143.3340 C   0  0  2  0  0  3  0  0  0  0  0  0
  189.5260  172.1290  145.3080 O   0  0  0  0  0  0  0  0  0  0  0  0
  190.0910  174.4160  144.6940 C   0  0  1  0  0  3  0  0  0  0  0  0
  190.7170  175.5360  147.7450 C   0  0  0  0  0  3  0  0  0  0  0  0
  190.2380  178.0930  144.1590 C   0  0  0  0  0  1  0  0  0  0  0  0
  189.4560  173.0310  140.0860 C   0  0  0  0  0  3  0  0  0  0  0  0
  189.2200  174.0250  141.0420 C   0  0  0  0  0  0  0  0  0  0  0  0
  189.1600  177.4800  145.0410 C   0  0  2  0  0  3  0  0  0  0  0  0
  185.4970  178.6590  141.9030 C   0  0  0  0  0  2  0  0  0  0  0  0
  183.6390  178.2940  140.4660 O   0  0  0  0  0  1  0  0  0  0  0  0
  185.0320  178.2900  140.5090 C   0  0  0  0  0  2  0  0  0  0  0  0
  1 19  1  6  0  0  0
  1  4  1  0  0  0  0
  2 19  1  0  0  0  0
  3 10  1  0  0  0  0
  4 20  1  0  0  0  0
  4 12  1  0  0  0  0
  5  1  1  0  0  0  0
  5 11  1  0  0  0  0
  7 15  2  0  0  0  0
  8 12  1  0  0  0  0
  8  6  2  0  0  0  0
  9  7  1  0  0  0  0
  9 14  1  0  0  0  0
 10 22  1  0  0  0  0
 10 21  2  0  0  0  0
 11  8  1  0  0  0  0
 12 27  1  0  0  0  0
 13 18  1  0  0  0  0
 13  2  2  0  0  0  0
 14 23  2  0  0  0  0
 15 23  1  0  0  0  0
 16  2  1  0  0  0  0
 17  3  1  0  0  0  0
 17 20  1  0  0  0  0
 18 25  2  0  0  0  0
 19 26  2  0  0  0  0
 20 22  1  0  0  0  0
 22  9  1  0  0  0  0
 24 27  1  0  0  0  0
 25 26  1  0  0  0  0
 26 17  1  0  0  0  0
 27  7  1  0  0  0  0
 28 11  1  0  0  0  0
 29 30  1  0  0  0  0
 30 28  1  0  0  0  0
M  END
>  <MODEL>
8

>  <REMARK>
 VINA RESULT:      -7.8      2.608      5.654
  Name = 
  2 active torsions:
  status: ('A' for Active; 'I' for Inactive)
    1  A    between atoms: C_11  and  C_28
    2  A    between atoms: C_28  and  C_30
                            x       y       z     vdW  Elec       q    Type
                         _______ _______ _______ _____ _____    ______ ____

>  <TORSDO>
F 2

$$$$
=
 OpenBabel11112416243D

 30 35  0  0  1  0  0  0  0  0999 V2000
  189.1100  176.7170  145.3180 C   0  0  2  0  0  3  0  0  0  0  0  0
  186.9750  177.7120  146.2870 C   0  0  0  0  0  0  0  0  0  0  0  0
  187.0190  174.9640  142.4490 O   0  0  0  0  0  0  0  0  0  0  0  0
  189.5310  175.6180  144.3200 C   0  0  2  0  0  3  0  0  0  0  0  0
  189.4360  176.2880  146.6160 O   0  0  0  0  0  0  0  0  0  0  0  0
  192.6630  175.1110  146.2380 O   0  0  0  0  0  0  0  0  0  0  0  0
  191.7420  174.7170  142.2010 C   0  0  0  0  0  0  0  0  0  0  0  0
  191.5810  175.5610  145.8900 C   0  0  0  0  0  0  0  0  0  0  0  0
  190.4930  173.9280  141.9920 C   0  0  2  0  0  3  0  0  0  0  0  0
  187.9830  174.1910  141.8420 C   0  0  0  0  0  0  0  0  0  0  0  0
  190.8120  176.5110  146.7730 C   0  0  2  0  0  3  0  0  0  0  0  0
  191.0280  175.2150  144.5300 C   0  0  2  0  0  3  0  0  0  0  0  0
  185.6200  178.0340  146.1820 C   0  0  0  0  0  3  0  0  0  0  0  0
  190.7680  173.2510  140.7340 N   0  0  0  0  0  0  0  0  0  0  0  0
  192.6000  174.5080  141.2180 C   0  0  0  0  0  3  0  0  0  0  0  0
  187.6520  178.0680  147.4480 O   0  0  0  0  0  1  0  0  0  0  0  0
  187.5770  176.2140  142.8160 C   0  0  2  0  0  3  0  0  0  0  0  0
  184.9140  177.7360  145.0180 C   0  0  0  0  0  3  0  0  0  0  0  0
  187.6360  177.0470  145.2270 C   0  0  0  0  0  0  0  0  0  0  0  0
  189.1040  175.9920  142.8760 C   0  0  2  0  0  3  0  0  0  0  0  0
  187.7400  173.0710  141.3210 O   0  0  0  0  0  0  0  0  0  0  0  0
  189.3000  174.8700  141.8230 C   0  0  1  0  0  3  0  0  0  0  0  0
  191.9440  173.5810  140.3070 C   0  0  0  0  0  3  0  0  0  0  0  0
  192.0500  177.0380  143.0750 C   0  0  0  0  0  1  0  0  0  0  0  0
  185.5650  177.1280  143.9470 C   0  0  0  0  0  3  0  0  0  0  0  0
  186.9200  176.7910  144.0360 C   0  0  0  0  0  0  0  0  0  0  0  0
  192.0200  175.5530  143.4080 C   0  0  2  0  0  3  0  0  0  0  0  0
  191.1880  176.3440  148.2390 C   0  0  0  0  0  2  0  0  0  0  0  0
  190.5680  178.4810  149.0760 O   0  0  0  0  0  1  0  0  0  0  0  0
  191.6660  177.6640  148.8110 C   0  0  0  0  0  2  0  0  0  0  0  0
  1 19  1  1  0  0  0
  1  5  1  0  0  0  0
  2 16  1  0  0  0  0
  3 17  1  0  0  0  0
  4 12  1  0  0  0  0
  4  1  1  0  0  0  0
  5 11  1  0  0  0  0
  7 27  1  0  0  0  0
  8  6  2  0  0  0  0
  8 11  1  0  0  0  0
  9  7  1  0  0  0  0
 10  3  1  0  0  0  0
 11 28  1  0  0  0  0
 12  8  1  0  0  0  0
 13  2  1  0  0  0  0
 14  9  1  0  0  0  0
 15  7  2  0  0  0  0
 17 20  1  0  0  0  0
 17 26  1  0  0  0  0
 18 13  2  0  0  0  0
 19  2  2  0  0  0  0
 20  4  1  0  0  0  0
 21 10  2  0  0  0  0
 22 10  1  0  0  0  0
 22  9  1  0  0  0  0
 22 20  1  0  0  0  0
 23 14  2  0  0  0  0
 23 15  1  0  0  0  0
 24 27  1  0  0  0  0
 25 26  2  0  0  0  0
 25 18  1  0  0  0  0
 26 19  1  0  0  0  0
 27 12  1  0  0  0  0
 28 30  1  0  0  0  0
 30 29  1  0  0  0  0
M  END
>  <MODEL>
9

>  <REMARK>
 VINA RESULT:      -7.7      2.420      5.325
  Name = 
  2 active torsions:
  status: ('A' for Active; 'I' for Inactive)
    1  A    between atoms: C_11  and  C_28
    2  A    between atoms: C_28  and  C_30
                            x       y       z     vdW  Elec       q    Type
                         _______ _______ _______ _____ _____    ______ ____

>  <TORSDO>
F 2

$$$$
