=
 OpenBabel11112417013D

 31 35  0  0  1  0  0  0  0  0999 V2000
  184.6750  178.2180  146.8390 C   0  0  0  0  0  0  0  0  0  0  0  0
  187.1690  176.0770  144.9160 C   0  0  2  0  0  3  0  0  0  0  0  0
  187.2070  176.5900  143.4890 C   0  0  0  0  0  0  0  0  0  0  0  0
  186.1040  177.6830  141.6150 C   0  0  0  0  0  0  0  0  0  0  0  0
  186.5960  177.0720  145.8970 C   0  0  0  0  0  0  0  0  0  0  0  0
  185.5130  178.9120  147.7140 C   0  0  0  0  0  3  0  0  0  0  0  0
  186.1070  177.2770  142.9520 C   0  0  0  0  0  3  0  0  0  0  0  0
  189.4580  176.6970  145.8410 C   0  0  2  0  0  3  0  0  0  0  0  0
  183.3380  178.4370  146.8650 F   0  0  0  0  0  0  0  0  0  0  0  0
  189.4900  175.5420  143.1690 C   0  0  0  0  0  2  0  0  0  0  0  0
  185.0160  178.3750  141.1030 O   0  0  0  0  0  1  0  0  0  0  0  0
  188.8110  177.5090  146.8190 O   0  0  0  0  0  0  0  0  0  0  0  0
  188.5400  175.5500  145.3860 C   0  0  2  0  0  3  0  0  0  0  0  0
  185.2140  177.2980  145.9360 C   0  0  0  0  0  3  0  0  0  0  0  0
  187.1950  177.3900  140.7950 C   0  0  0  0  0  3  0  0  0  0  0  0
  187.4370  177.7630  146.7920 C   0  0  0  0  0  0  0  0  0  0  0  0
  186.8910  178.6830  147.6940 C   0  0  0  0  0  3  0  0  0  0  0  0
  189.1630  174.7270  144.3430 N   0  0  0  0  0  2  0  0  0  0  0  0
  188.2870  176.2620  142.6410 C   0  0  0  0  0  0  0  0  0  0  0  0
  188.2840  176.6830  141.3070 C   0  0  0  0  0  3  0  0  0  0  0  0
  192.0620  177.1870  144.7970 O   0  0  0  0  0  0  0  0  0  0  0  0
  191.9710  176.4540  145.8210 C   0  0  0  0  0  0  0  0  0  0  0  0
  190.6950  176.1630  146.3900 N   0  0  0  0  0  2  0  0  0  0  0  0
  195.5350  176.0930  144.7590 C   0  0  1  0  0  3  0  0  0  0  0  0
  194.3040  176.9220  146.6210 C   0  0  0  0  0  2  0  0  0  0  0  0
  192.7320  173.7290  145.4240 O   0  0  0  0  0  1  0  0  0  0  0  0
  196.2690  176.4780  143.4920 C   0  0  0  0  0  1  0  0  0  0  0  0
  194.8920  177.2760  145.3270 N   0  0  0  0  0  2  0  0  0  0  0  0
  193.7500  174.6400  145.7110 C   0  0  2  0  0  3  0  0  0  0  0  0
  193.2020  175.8700  146.4530 C   0  0  2  0  0  3  0  0  0  0  0  0
  194.4850  175.0340  144.4330 C   0  0  0  0  0  2  0  0  0  0  0  0
  1  9  1  0  0  0  0
  1  6  1  0  0  0  0
  2  3  1  6  0  0  0
  2 13  1  0  0  0  0
  2  5  1  0  0  0  0
  4  7  2  0  0  0  0
  5 14  1  0  0  0  0
  5 16  2  0  0  0  0
  7  3  1  0  0  0  0
  8 23  1  1  0  0  0
  8 12  1  0  0  0  0
 10 18  1  0  0  0  0
 11  4  1  0  0  0  0
 13 18  1  6  0  0  0
 13  8  1  0  0  0  0
 14  1  2  0  0  0  0
 15 20  2  0  0  0  0
 15  4  1  0  0  0  0
 16 12  1  0  0  0  0
 16 17  1  0  0  0  0
 17  6  2  0  0  0  0
 19 10  1  0  0  0  0
 19  3  2  0  0  0  0
 20 19  1  0  0  0  0
 21 22  2  0  0  0  0
 22 23  1  0  0  0  0
 24 27  1  6  0  0  0
 24 28  1  0  0  0  0
 28 25  1  0  0  0  0
 29 26  1  6  0  0  0
 29 30  1  0  0  0  0
 30 22  1  6  0  0  0
 30 25  1  0  0  0  0
 31 24  1  0  0  0  0
 31 29  1  0  0  0  0
M  END
>  <MODEL>
1

>  <REMARK>
 VINA RESULT:      -8.9      0.000      0.000
  Name = 
  2 active torsions:
  status: ('A' for Active; 'I' for Inactive)
    1  A    between atoms: C_5  and  C_30
    2  A    between atoms: C_10  and  N_16
                            x       y       z     vdW  Elec       q    Type
                         _______ _______ _______ _____ _____    ______ ____

>  <TORSDO>
F 2

$$$$
=
 OpenBabel11112417013D

 31 35  0  0  1  0  0  0  0  0999 V2000
  187.0160  177.5400  140.8880 C   0  0  0  0  0  0  0  0  0  0  0  0
  188.4100  177.8220  144.4200 C   0  0  2  0  0  3  0  0  0  0  0  0
  187.2330  177.8250  145.3770 C   0  0  0  0  0  0  0  0  0  0  0  0
  184.8970  178.3250  145.8380 C   0  0  0  0  0  0  0  0  0  0  0  0
  188.0730  177.2700  143.0550 C   0  0  0  0  0  0  0  0  0  0  0  0
  187.4410  176.2630  140.5160 C   0  0  0  0  0  3  0  0  0  0  0  0
  185.9660  178.2450  144.9430 C   0  0  0  0  0  3  0  0  0  0  0  0
  189.5570  175.5960  144.8820 C   0  0  2  0  0  3  0  0  0  0  0  0
  186.2930  178.2910  140.0220 F   0  0  0  0  0  0  0  0  0  0  0  0
  188.7550  177.0750  147.2580 C   0  0  0  0  0  2  0  0  0  0  0  0
  183.6460  178.7280  145.3910 O   0  0  0  0  0  1  0  0  0  0  0  0
  189.3080  175.2200  143.5290 O   0  0  0  0  0  0  0  0  0  0  0  0
  189.6500  177.1250  145.0180 C   0  0  2  0  0  3  0  0  0  0  0  0
  187.3330  178.0430  142.1510 C   0  0  0  0  0  3  0  0  0  0  0  0
  185.0870  178.0030  147.1830 C   0  0  0  0  0  3  0  0  0  0  0  0
  188.5140  175.9870  142.6720 C   0  0  0  0  0  0  0  0  0  0  0  0
  188.1930  175.4880  141.4050 C   0  0  0  0  0  3  0  0  0  0  0  0
  189.8560  177.5420  146.4100 N   0  0  0  0  0  2  0  0  0  0  0  0
  187.4260  177.5410  146.7460 C   0  0  0  0  0  0  0  0  0  0  0  0
  186.3480  177.6100  147.6350 C   0  0  0  0  0  3  0  0  0  0  0  0
  192.1650  176.2060  143.9160 O   0  0  0  0  0  0  0  0  0  0  0  0
  192.0670  175.3320  144.8210 C   0  0  0  0  0  0  0  0  0  0  0  0
  190.7880  174.9750  145.3440 N   0  0  0  0  0  2  0  0  0  0  0  0
  195.7420  175.8020  144.3470 C   0  0  1  0  0  3  0  0  0  0  0  0
  194.1850  175.6210  146.1380 C   0  0  0  0  0  2  0  0  0  0  0  0
  193.2920  173.1340  143.4700 O   0  0  0  0  0  1  0  0  0  0  0  0
  196.5500  176.7660  143.5040 C   0  0  0  0  0  1  0  0  0  0  0  0
  194.8570  176.5550  145.2320 N   0  0  0  0  0  2  0  0  0  0  0  0
  194.1120  173.9210  144.2820 C   0  0  2  0  0  3  0  0  0  0  0  0
  193.2920  174.6490  145.3590 C   0  0  2  0  0  3  0  0  0  0  0  0
  194.9210  174.8970  143.4330 C   0  0  0  0  0  2  0  0  0  0  0  0
  1 14  1  0  0  0  0
  2  5  1  6  0  0  0
  2 13  1  0  0  0  0
  2  3  1  0  0  0  0
  3 19  1  0  0  0  0
  4 15  2  0  0  0  0
  6  1  2  0  0  0  0
  6 17  1  0  0  0  0
  7  3  2  0  0  0  0
  7  4  1  0  0  0  0
  8 13  1  0  0  0  0
  8 23  1  6  0  0  0
  9  1  1  0  0  0  0
 11  4  1  0  0  0  0
 12  8  1  0  0  0  0
 13 18  1  1  0  0  0
 14  5  2  0  0  0  0
 15 20  1  0  0  0  0
 16  5  1  0  0  0  0
 16 12  1  0  0  0  0
 17 16  2  0  0  0  0
 18 10  1  0  0  0  0
 19 10  1  0  0  0  0
 19 20  2  0  0  0  0
 21 22  2  0  0  0  0
 22 23  1  0  0  0  0
 24 27  1  6  0  0  0
 24 28  1  0  0  0  0
 28 25  1  0  0  0  0
 29 26  1  6  0  0  0
 29 30  1  0  0  0  0
 30 22  1  6  0  0  0
 30 25  1  0  0  0  0
 31 29  1  0  0  0  0
 31 24  1  0  0  0  0
M  END
>  <MODEL>
2

>  <REMARK>
 VINA RESULT:      -8.6      2.065      4.022
  Name = 
  2 active torsions:
  status: ('A' for Active; 'I' for Inactive)
    1  A    between atoms: C_5  and  C_30
    2  A    between atoms: C_10  and  N_16
                            x       y       z     vdW  Elec       q    Type
                         _______ _______ _______ _____ _____    ______ ____

>  <TORSDO>
F 2

$$$$
=
 OpenBabel11112417013D

 31 35  0  0  1  0  0  0  0  0999 V2000
  184.8250  177.8620  146.8850 C   0  0  0  0  0  0  0  0  0  0  0  0
  186.9210  176.1740  144.1910 C   0  0  2  0  0  3  0  0  0  0  0  0
  186.5860  176.8380  142.8690 C   0  0  0  0  0  0  0  0  0  0  0  0
  185.0010  178.0190  141.4480 C   0  0  0  0  0  0  0  0  0  0  0  0
  186.5360  177.0030  145.3930 C   0  0  0  0  0  0  0  0  0  0  0  0
  185.8010  178.5330  147.6250 C   0  0  0  0  0  3  0  0  0  0  0  0
  185.3480  177.4750  142.6870 C   0  0  0  0  0  3  0  0  0  0  0  0
  189.3200  176.8990  144.6370 C   0  0  2  0  0  3  0  0  0  0  0  0
  183.5220  177.9540  147.2440 F   0  0  0  0  0  0  0  0  0  0  0  0
  188.7890  176.0430  141.9060 C   0  0  0  0  0  2  0  0  0  0  0  0
  183.7800  178.6590  141.2890 O   0  0  0  0  0  1  0  0  0  0  0  0
  188.8740  177.5400  145.8310 O   0  0  0  0  0  0  0  0  0  0  0  0
  188.3960  175.7280  144.2650 C   0  0  2  0  0  3  0  0  0  0  0  0
  185.1910  177.0970  145.7750 C   0  0  0  0  0  3  0  0  0  0  0  0
  185.8810  177.9160  140.3700 C   0  0  0  0  0  3  0  0  0  0  0  0
  187.5200  177.6690  146.1500 C   0  0  0  0  0  0  0  0  0  0  0  0
  187.1470  178.4340  147.2610 C   0  0  0  0  0  3  0  0  0  0  0  0
  188.8040  175.0820  143.0120 N   0  0  0  0  0  2  0  0  0  0  0  0
  187.4520  176.7020  141.7620 C   0  0  0  0  0  0  0  0  0  0  0  0
  187.1040  177.2610  140.5270 C   0  0  0  0  0  3  0  0  0  0  0  0
  191.6650  178.3170  143.8620 O   0  0  0  0  0  0  0  0  0  0  0  0
  191.8180  177.1910  144.4110 C   0  0  0  0  0  0  0  0  0  0  0  0
  190.6840  176.4260  144.8170 N   0  0  0  0  0  2  0  0  0  0  0  0
  193.2290  173.7430  144.6960 C   0  0  1  0  0  3  0  0  0  0  0  0
  193.6460  175.7450  143.4770 C   0  0  0  0  0  2  0  0  0  0  0  0
  192.8020  176.6170  147.0300 O   0  0  0  0  0  1  0  0  0  0  0  0
  192.5940  172.3700  144.6380 C   0  0  0  0  0  1  0  0  0  0  0  0
  192.9140  174.4760  143.4710 N   0  0  0  0  0  2  0  0  0  0  0  0
  193.3370  175.8790  145.9720 C   0  0  2  0  0  3  0  0  0  0  0  0
  193.1940  176.6340  144.6410 C   0  0  2  0  0  3  0  0  0  0  0  0
  192.6920  174.4980  145.9090 C   0  0  0  0  0  2  0  0  0  0  0  0
  1  9  1  0  0  0  0
  1  6  1  0  0  0  0
  2  3  1  6  0  0  0
  2 13  1  0  0  0  0
  2  5  1  0  0  0  0
  4  7  2  0  0  0  0
  5 14  1  0  0  0  0
  5 16  2  0  0  0  0
  7  3  1  0  0  0  0
  8 23  1  1  0  0  0
  8 12  1  0  0  0  0
 10 18  1  0  0  0  0
 11  4  1  0  0  0  0
 12 16  1  0  0  0  0
 13 18  1  6  0  0  0
 13  8  1  0  0  0  0
 14  1  2  0  0  0  0
 15 20  2  0  0  0  0
 15  4  1  0  0  0  0
 16 17  1  0  0  0  0
 17  6  2  0  0  0  0
 19 10  1  0  0  0  0
 19  3  2  0  0  0  0
 20 19  1  0  0  0  0
 21 22  2  0  0  0  0
 22 23  1  0  0  0  0
 24 27  1  6  0  0  0
 24 31  1  0  0  0  0
 25 30  1  0  0  0  0
 28 25  1  0  0  0  0
 28 24  1  0  0  0  0
 29 26  1  1  0  0  0
 30 22  1  6  0  0  0
 30 29  1  0  0  0  0
 31 29  1  0  0  0  0
M  END
>  <MODEL>
3

>  <REMARK>
 VINA RESULT:      -8.6      1.487      1.971
  Name = 
  2 active torsions:
  status: ('A' for Active; 'I' for Inactive)
    1  A    between atoms: C_5  and  C_30
    2  A    between atoms: C_10  and  N_16
                            x       y       z     vdW  Elec       q    Type
                         _______ _______ _______ _____ _____    ______ ____

>  <TORSDO>
F 2

$$$$
=
 OpenBabel11112417013D

 31 35  0  0  1  0  0  0  0  0999 V2000
  194.2270  176.6200  145.1860 C   0  0  0  0  0  0  0  0  0  0  0  0
  190.8880  176.8210  143.3650 C   0  0  2  0  0  3  0  0  0  0  0  0
  190.7630  175.5800  142.5010 C   0  0  0  0  0  0  0  0  0  0  0  0
  191.8070  173.8010  141.2100 C   0  0  0  0  0  0  0  0  0  0  0  0
  191.9090  176.6840  144.4700 C   0  0  0  0  0  0  0  0  0  0  0  0
  193.8180  176.4350  146.5080 C   0  0  0  0  0  3  0  0  0  0  0  0
  191.9110  174.8970  142.0690 C   0  0  0  0  0  3  0  0  0  0  0  0
  189.1110  176.4900  145.1570 C   0  0  2  0  0  3  0  0  0  0  0  0
  195.5470  176.6750  144.8880 F   0  0  0  0  0  0  0  0  0  0  0  0
  188.2470  175.8650  142.4480 C   0  0  0  0  0  2  0  0  0  0  0  0
  192.9490  173.1260  140.8030 O   0  0  0  0  0  1  0  0  0  0  0  0
  190.1420  176.5090  146.1430 O   0  0  0  0  0  0  0  0  0  0  0  0
  189.5270  177.2930  143.9130 C   0  0  2  0  0  3  0  0  0  0  0  0
  193.2760  176.7470  144.1710 C   0  0  0  0  0  3  0  0  0  0  0  0
  190.5530  173.3850  140.7580 C   0  0  0  0  0  3  0  0  0  0  0  0
  191.4990  176.5110  145.8070 C   0  0  0  0  0  0  0  0  0  0  0  0
  192.4560  176.3840  146.8200 C   0  0  0  0  0  3  0  0  0  0  0  0
  188.5030  177.2480  142.8620 N   0  0  0  0  0  2  0  0  0  0  0  0
  189.5040  175.1780  142.0060 C   0  0  0  0  0  0  0  0  0  0  0  0
  189.4050  174.0720  141.1570 C   0  0  0  0  0  3  0  0  0  0  0  0
  187.7960  175.5050  147.4830 O   0  0  0  0  0  0  0  0  0  0  0  0
  187.2810  176.4970  146.8960 C   0  0  0  0  0  0  0  0  0  0  0  0
  187.8850  177.0340  145.7210 N   0  0  0  0  0  2  0  0  0  0  0  0
  184.8560  179.0040  145.5570 C   0  0  1  0  0  3  0  0  0  0  0  0
  184.8210  176.8240  146.5130 C   0  0  0  0  0  2  0  0  0  0  0  0
  187.3030  178.9450  148.3670 O   0  0  0  0  0  1  0  0  0  0  0  0
  184.8040  179.7870  144.2630 C   0  0  0  0  0  1  0  0  0  0  0  0
  184.9120  177.5740  145.2580 N   0  0  0  0  0  2  0  0  0  0  0  0
  186.1390  178.6370  147.6600 C   0  0  2  0  0  3  0  0  0  0  0  0
  186.0200  177.1230  147.4190 C   0  0  2  0  0  3  0  0  0  0  0  0
  186.0910  179.4210  146.3510 C   0  0  0  0  0  2  0  0  0  0  0  0
  1  6  1  0  0  0  0
  2  3  1  1  0  0  0
  2 13  1  0  0  0  0
  2  5  1  0  0  0  0
  4  7  2  0  0  0  0
  5 16  2  0  0  0  0
  6 17  2  0  0  0  0
  7  3  1  0  0  0  0
  8 23  1  1  0  0  0
  8 12  1  0  0  0  0
  9  1  1  0  0  0  0
 10 18  1  0  0  0  0
 11  4  1  0  0  0  0
 13 18  1  6  0  0  0
 13  8  1  0  0  0  0
 14  5  1  0  0  0  0
 14  1  2  0  0  0  0
 15 20  2  0  0  0  0
 15  4  1  0  0  0  0
 16 12  1  0  0  0  0
 16 17  1  0  0  0  0
 19 10  1  0  0  0  0
 19  3  2  0  0  0  0
 20 19  1  0  0  0  0
 22 21  2  0  0  0  0
 23 22  1  0  0  0  0
 24 27  1  6  0  0  0
 24 31  1  0  0  0  0
 25 30  1  0  0  0  0
 28 24  1  0  0  0  0
 28 25  1  0  0  0  0
 29 26  1  6  0  0  0
 30 22  1  6  0  0  0
 30 29  1  0  0  0  0
 31 29  1  0  0  0  0
M  END
>  <MODEL>
4

>  <REMARK>
 VINA RESULT:      -8.1      3.403      7.095
  Name = 
  2 active torsions:
  status: ('A' for Active; 'I' for Inactive)
    1  A    between atoms: C_5  and  C_30
    2  A    between atoms: C_10  and  N_16
                            x       y       z     vdW  Elec       q    Type
                         _______ _______ _______ _____ _____    ______ ____

>  <TORSDO>
F 2

$$$$
=
 OpenBabel11112417013D

 31 35  0  0  1  0  0  0  0  0999 V2000
  185.6500  178.2900  140.8750 C   0  0  0  0  0  0  0  0  0  0  0  0
  188.2030  178.2210  143.7010 C   0  0  2  0  0  3  0  0  0  0  0  0
  187.4790  177.7850  144.9600 C   0  0  0  0  0  0  0  0  0  0  0  0
  185.4350  177.6580  146.2760 C   0  0  0  0  0  0  0  0  0  0  0  0
  187.4650  177.8690  142.4310 C   0  0  0  0  0  0  0  0  0  0  0  0
  186.0840  177.2310  140.0750 C   0  0  0  0  0  3  0  0  0  0  0  0
  186.0960  177.9850  145.0890 C   0  0  0  0  0  3  0  0  0  0  0  0
  189.7430  176.2620  143.1820 C   0  0  2  0  0  3  0  0  0  0  0  0
  184.5590  179.0070  140.5150 F   0  0  0  0  0  0  0  0  0  0  0  0
  189.6810  177.0620  145.9810 C   0  0  0  0  0  2  0  0  0  0  0  0
  184.0650  177.8460  146.3830 O   0  0  0  0  0  1  0  0  0  0  0  0
  189.0660  176.0950  141.9380 O   0  0  0  0  0  0  0  0  0  0  0  0
  189.6610  177.7220  143.6600 C   0  0  2  0  0  3  0  0  0  0  0  0
  186.3400  178.6100  142.0470 C   0  0  0  0  0  3  0  0  0  0  0  0
  186.1560  177.1450  147.3560 C   0  0  0  0  0  3  0  0  0  0  0  0
  187.9090  176.8100  141.6140 C   0  0  0  0  0  0  0  0  0  0  0  0
  187.2140  176.4950  140.4410 C   0  0  0  0  0  3  0  0  0  0  0  0
  190.3080  177.9110  144.9640 N   0  0  0  0  0  2  0  0  0  0  0  0
  188.2050  177.3050  146.0710 C   0  0  0  0  0  0  0  0  0  0  0  0
  187.5370  176.9670  147.2520 C   0  0  0  0  0  3  0  0  0  0  0  0
  190.9790  174.1150  144.5870 O   0  0  0  0  0  0  0  0  0  0  0  0
  191.6890  174.7650  143.7700 C   0  0  0  0  0  0  0  0  0  0  0  0
  191.1330  175.8570  143.0400 N   0  0  0  0  0  2  0  0  0  0  0  0
  193.6410  171.5840  143.9370 C   0  0  1  0  0  3  0  0  0  0  0  0
  193.3010  173.3890  142.4230 C   0  0  0  0  0  2  0  0  0  0  0  0
  193.5750  174.7410  145.9150 O   0  0  0  0  0  1  0  0  0  0  0  0
  193.2490  170.1600  144.2700 C   0  0  0  0  0  1  0  0  0  0  0  0
  192.8200  172.0660  142.8280 N   0  0  0  0  0  2  0  0  0  0  0  0
  193.8330  173.9000  144.8310 C   0  0  2  0  0  3  0  0  0  0  0  0
  193.1320  174.4050  143.5590 C   0  0  2  0  0  3  0  0  0  0  0  0
  193.4310  172.4660  145.1640 C   0  0  0  0  0  2  0  0  0  0  0  0
  1 14  1  0  0  0  0
  2  5  1  6  0  0  0
  2  3  1  0  0  0  0
  3  7  2  0  0  0  0
  3 19  1  0  0  0  0
  4 11  1  0  0  0  0
  4 15  2  0  0  0  0
  6 17  1  0  0  0  0
  6  1  2  0  0  0  0
  7  4  1  0  0  0  0
  8 23  1  6  0  0  0
  8 13  1  0  0  0  0
  9  1  1  0  0  0  0
 10 19  1  0  0  0  0
 12  8  1  0  0  0  0
 13  2  1  0  0  0  0
 13 18  1  1  0  0  0
 14  5  2  0  0  0  0
 16 12  1  0  0  0  0
 16  5  1  0  0  0  0
 17 16  2  0  0  0  0
 18 10  1  0  0  0  0
 19 20  2  0  0  0  0
 20 15  1  0  0  0  0
 22 21  2  0  0  0  0
 23 22  1  0  0  0  0
 24 27  1  1  0  0  0
 24 31  1  0  0  0  0
 25 28  1  0  0  0  0
 25 30  1  0  0  0  0
 28 24  1  0  0  0  0
 29 31  1  0  0  0  0
 29 26  1  1  0  0  0
 30 22  1  1  0  0  0
 30 29  1  0  0  0  0
M  END
>  <MODEL>
5

>  <REMARK>
 VINA RESULT:      -8.1      2.592      4.669
  Name = 
  2 active torsions:
  status: ('A' for Active; 'I' for Inactive)
    1  A    between atoms: C_5  and  C_30
    2  A    between atoms: C_10  and  N_16
                            x       y       z     vdW  Elec       q    Type
                         _______ _______ _______ _____ _____    ______ ____

>  <TORSDO>
F 2

$$$$
=
 OpenBabel11112417013D

 31 35  0  0  1  0  0  0  0  0999 V2000
  191.7400  173.1550  141.5060 C   0  0  0  0  0  0  0  0  0  0  0  0
  191.3320  174.1220  145.1670 C   0  0  2  0  0  3  0  0  0  0  0  0
  192.4600  175.0740  145.5170 C   0  0  0  0  0  0  0  0  0  0  0  0
  194.7310  175.8700  145.1530 C   0  0  0  0  0  0  0  0  0  0  0  0
  191.0830  174.0060  143.6820 C   0  0  0  0  0  0  0  0  0  0  0  0
  190.6330  173.7780  140.9230 C   0  0  0  0  0  3  0  0  0  0  0  0
  193.6590  175.0520  144.7870 C   0  0  0  0  0  3  0  0  0  0  0  0
  189.2550  175.5910  145.2590 C   0  0  2  0  0  3  0  0  0  0  0  0
  192.5990  172.4450  140.7370 F   0  0  0  0  0  0  0  0  0  0  0  0
  191.1130  175.9610  147.4690 C   0  0  0  0  0  2  0  0  0  0  0  0
  195.9040  175.8490  144.4120 O   0  0  0  0  0  1  0  0  0  0  0  0
  189.0300  175.3100  143.8780 O   0  0  0  0  0  0  0  0  0  0  0  0
  190.0330  174.4480  145.9310 C   0  0  2  0  0  3  0  0  0  0  0  0
  191.9620  173.2670  142.8810 C   0  0  0  0  0  3  0  0  0  0  0  0
  194.6220  176.7060  146.2650 C   0  0  0  0  0  3  0  0  0  0  0  0
  189.9590  174.6210  143.0930 C   0  0  0  0  0  0  0  0  0  0  0  0
  189.7420  174.5060  141.7160 C   0  0  0  0  0  3  0  0  0  0  0  0
  190.3210  174.7340  147.3410 N   0  0  0  0  0  2  0  0  0  0  0  0
  192.3750  175.8920  146.6640 C   0  0  0  0  0  0  0  0  0  0  0  0
  193.4460  176.7180  147.0170 C   0  0  0  0  0  3  0  0  0  0  0  0
  188.5450  177.9010  146.7640 O   0  0  0  0  0  0  0  0  0  0  0  0
  187.6850  176.9820  146.6640 C   0  0  0  0  0  0  0  0  0  0  0  0
  187.9800  175.7950  145.9300 N   0  0  0  0  0  2  0  0  0  0  0  0
  184.4750  178.6450  145.7240 C   0  0  1  0  0  3  0  0  0  0  0  0
  185.2280  176.5110  146.4610 C   0  0  0  0  0  2  0  0  0  0  0  0
  187.0470  179.1860  148.3660 O   0  0  0  0  0  1  0  0  0  0  0  0
  184.0600  179.4610  144.5190 C   0  0  0  0  0  1  0  0  0  0  0  0
  184.9610  177.3400  145.2830 N   0  0  0  0  0  2  0  0  0  0  0  0
  185.9870  178.5660  147.7010 C   0  0  2  0  0  3  0  0  0  0  0  0
  186.3410  177.1190  147.3200 C   0  0  2  0  0  3  0  0  0  0  0  0
  185.5740  179.3850  146.4820 C   0  0  0  0  0  2  0  0  0  0  0  0
  1 14  1  0  0  0  0
  2  5  1  6  0  0  0
  2  3  1  0  0  0  0
  2 13  1  0  0  0  0
  3 19  1  0  0  0  0
  4 15  2  0  0  0  0
  6  1  2  0  0  0  0
  6 17  1  0  0  0  0
  7  4  1  0  0  0  0
  7  3  2  0  0  0  0
  8 23  1  1  0  0  0
  8 13  1  0  0  0  0
  9  1  1  0  0  0  0
 11  4  1  0  0  0  0
 12  8  1  0  0  0  0
 13 18  1  1  0  0  0
 14  5  2  0  0  0  0
 15 20  1  0  0  0  0
 16  5  1  0  0  0  0
 16 12  1  0  0  0  0
 17 16  2  0  0  0  0
 18 10  1  0  0  0  0
 19 20  2  0  0  0  0
 19 10  1  0  0  0  0
 22 21  2  0  0  0  0
 23 22  1  0  0  0  0
 24 27  1  6  0  0  0
 24 31  1  0  0  0  0
 25 30  1  0  0  0  0
 28 24  1  0  0  0  0
 28 25  1  0  0  0  0
 29 26  1  6  0  0  0
 30 22  1  6  0  0  0
 30 29  1  0  0  0  0
 31 29  1  0  0  0  0
M  END
>  <MODEL>
6

>  <REMARK>
 VINA RESULT:      -8.0      3.355      7.931
  Name = 
  2 active torsions:
  status: ('A' for Active; 'I' for Inactive)
    1  A    between atoms: C_5  and  C_30
    2  A    between atoms: C_10  and  N_16
                            x       y       z     vdW  Elec       q    Type
                         _______ _______ _______ _____ _____    ______ ____

>  <TORSDO>
F 2

$$$$
=
 OpenBabel11112417013D

 31 35  0  0  1  0  0  0  0  0999 V2000
  188.0050  174.5490  139.6790 C   0  0  0  0  0  0  0  0  0  0  0  0
  188.8420  176.6750  142.7260 C   0  0  2  0  0  3  0  0  0  0  0  0
  187.5320  177.1590  143.3190 C   0  0  0  0  0  0  0  0  0  0  0  0
  185.1970  177.7830  143.0360 C   0  0  0  0  0  0  0  0  0  0  0  0
  188.6840  175.4800  141.8150 C   0  0  0  0  0  0  0  0  0  0  0  0
  188.3860  173.2760  140.1080 C   0  0  0  0  0  3  0  0  0  0  0  0
  186.3850  177.2640  142.5170 C   0  0  0  0  0  3  0  0  0  0  0  0
  189.7290  175.0480  144.4710 C   0  0  2  0  0  3  0  0  0  0  0  0
  187.4880  174.7180  138.4380 F   0  0  0  0  0  0  0  0  0  0  0  0
  188.6760  177.5400  145.5460 C   0  0  0  0  0  2  0  0  0  0  0  0
  184.0670  177.8660  142.2350 O   0  0  0  0  0  1  0  0  0  0  0  0
  189.6690  174.0110  143.4940 O   0  0  0  0  0  0  0  0  0  0  0  0
  189.9150  176.4210  143.8040 C   0  0  2  0  0  3  0  0  0  0  0  0
  188.1570  175.6480  140.5280 C   0  0  0  0  0  3  0  0  0  0  0  0
  185.1470  178.2200  144.3610 C   0  0  0  0  0  3  0  0  0  0  0  0
  189.0800  174.1960  142.2400 C   0  0  0  0  0  0  0  0  0  0  0  0
  188.9270  173.1000  141.3850 C   0  0  0  0  0  3  0  0  0  0  0  0
  189.9290  177.5120  144.7850 N   0  0  0  0  0  2  0  0  0  0  0  0
  187.4840  177.6420  144.6440 C   0  0  0  0  0  0  0  0  0  0  0  0
  186.2870  178.1480  145.1620 C   0  0  0  0  0  3  0  0  0  0  0  0
  192.4660  174.7650  143.7390 O   0  0  0  0  0  0  0  0  0  0  0  0
  192.1750  174.6620  144.9630 C   0  0  0  0  0  0  0  0  0  0  0  0
  190.8210  174.7860  145.3960 N   0  0  0  0  0  2  0  0  0  0  0  0
  195.9030  174.9010  144.9580 C   0  0  1  0  0  3  0  0  0  0  0  0
  194.0700  175.6600  146.2730 C   0  0  0  0  0  2  0  0  0  0  0  0
  193.4420  172.1140  145.2100 O   0  0  0  0  0  1  0  0  0  0  0  0
  196.9020  175.2900  143.8890 C   0  0  0  0  0  1  0  0  0  0  0  0
  194.9430  175.9880  145.1440 N   0  0  0  0  0  2  0  0  0  0  0  0
  194.1750  173.2320  145.6130 C   0  0  2  0  0  3  0  0  0  0  0  0
  193.2460  174.4000  145.9830 C   0  0  2  0  0  3  0  0  0  0  0  0
  195.1760  173.6290  144.5320 C   0  0  0  0  0  2  0  0  0  0  0  0
  1  6  2  0  0  0  0
  1 14  1  0  0  0  0
  2  5  1  1  0  0  0
  2  3  1  0  0  0  0
  2 13  1  0  0  0  0
  3 19  1  0  0  0  0
  4 15  2  0  0  0  0
  5 16  1  0  0  0  0
  6 17  1  0  0  0  0
  7  4  1  0  0  0  0
  7  3  2  0  0  0  0
  8 23  1  1  0  0  0
  9  1  1  0  0  0  0
 11  4  1  0  0  0  0
 12  8  1  0  0  0  0
 13  8  1  0  0  0  0
 13 18  1  1  0  0  0
 14  5  2  0  0  0  0
 15 20  1  0  0  0  0
 16 12  1  0  0  0  0
 17 16  2  0  0  0  0
 18 10  1  0  0  0  0
 19 20  2  0  0  0  0
 19 10  1  0  0  0  0
 21 22  2  0  0  0  0
 22 23  1  0  0  0  0
 24 27  1  6  0  0  0
 24 28  1  0  0  0  0
 28 25  1  0  0  0  0
 29 26  1  6  0  0  0
 29 30  1  0  0  0  0
 30 22  1  6  0  0  0
 30 25  1  0  0  0  0
 31 24  1  0  0  0  0
 31 29  1  0  0  0  0
M  END
>  <MODEL>
7

>  <REMARK>
 VINA RESULT:      -7.5      2.560      4.378
  Name = 
  2 active torsions:
  status: ('A' for Active; 'I' for Inactive)
    1  A    between atoms: C_5  and  C_30
    2  A    between atoms: C_10  and  N_16
                            x       y       z     vdW  Elec       q    Type
                         _______ _______ _______ _____ _____    ______ ____

>  <TORSDO>
F 2

$$$$
=
 OpenBabel11112417013D

 31 35  0  0  1  0  0  0  0  0999 V2000
  186.7800  178.1490  144.4750 C   0  0  0  0  0  0  0  0  0  0  0  0
  190.1360  176.6440  143.4890 C   0  0  2  0  0  3  0  0  0  0  0  0
  190.8340  176.2080  144.7630 C   0  0  0  0  0  0  0  0  0  0  0  0
  191.2110  176.4750  147.1530 C   0  0  0  0  0  0  0  0  0  0  0  0
  188.6470  176.8330  143.6540 C   0  0  0  0  0  0  0  0  0  0  0  0
  185.8850  177.2040  143.9660 C   0  0  0  0  0  3  0  0  0  0  0  0
  190.5180  176.8150  145.9890 C   0  0  0  0  0  3  0  0  0  0  0  0
  189.5850  174.4490  142.3230 C   0  0  2  0  0  3  0  0  0  0  0  0
  186.3120  179.2420  145.1230 F   0  0  0  0  0  0  0  0  0  0  0  0
  192.2720  174.6030  143.4330 C   0  0  0  0  0  2  0  0  0  0  0  0
  190.8770  177.0730  148.3600 O   0  0  0  0  0  1  0  0  0  0  0  0
  188.2010  174.7850  142.4070 O   0  0  0  0  0  0  0  0  0  0  0  0
  190.4560  175.7170  142.2990 C   0  0  2  0  0  3  0  0  0  0  0  0
  188.1550  177.9660  144.3160 C   0  0  0  0  0  3  0  0  0  0  0  0
  192.2420  175.5350  147.1010 C   0  0  0  0  0  3  0  0  0  0  0  0
  187.7410  175.8890  143.1290 C   0  0  0  0  0  0  0  0  0  0  0  0
  186.3640  176.0780  143.2900 C   0  0  0  0  0  3  0  0  0  0  0  0
  191.8890  175.3990  142.2630 N   0  0  0  0  0  2  0  0  0  0  0  0
  191.9040  175.2890  144.7130 C   0  0  0  0  0  0  0  0  0  0  0  0
  192.5860  174.9430  145.8840 C   0  0  0  0  0  3  0  0  0  0  0  0
  189.7520  171.6070  142.2510 O   0  0  0  0  0  0  0  0  0  0  0  0
  189.8890  172.2280  141.1610 C   0  0  0  0  0  0  0  0  0  0  0  0
  189.8230  173.6530  141.1280 N   0  0  0  0  0  2  0  0  0  0  0  0
  191.6100  173.0340  137.9450 C   0  0  1  0  0  3  0  0  0  0  0  0
  191.6260  171.3170  139.5930 C   0  0  0  0  0  2  0  0  0  0  0  0
  188.0830  172.3830  138.9530 O   0  0  0  0  0  1  0  0  0  0  0  0
  192.3190  174.2760  137.4470 C   0  0  0  0  0  1  0  0  0  0  0  0
  192.2250  172.5930  139.1950 N   0  0  0  0  0  2  0  0  0  0  0  0
  189.4190  172.0970  138.6650 C   0  0  2  0  0  3  0  0  0  0  0  0
  190.1290  171.4800  139.8810 C   0  0  2  0  0  3  0  0  0  0  0  0
  190.1350  173.3510  138.1700 C   0  0  0  0  0  2  0  0  0  0  0  0
  1  9  1  0  0  0  0
  2  5  1  1  0  0  0
  2  3  1  0  0  0  0
  3  7  1  0  0  0  0
  4 11  1  0  0  0  0
  5 14  2  0  0  0  0
  6  1  2  0  0  0  0
  7  4  2  0  0  0  0
  8 23  1  6  0  0  0
  8 12  1  0  0  0  0
 10 19  1  0  0  0  0
 12 16  1  0  0  0  0
 13 18  1  1  0  0  0
 13  8  1  0  0  0  0
 13  2  1  0  0  0  0
 14  1  1  0  0  0  0
 15  4  1  0  0  0  0
 16 17  2  0  0  0  0
 16  5  1  0  0  0  0
 17  6  1  0  0  0  0
 18 10  1  0  0  0  0
 19  3  2  0  0  0  0
 19 20  1  0  0  0  0
 20 15  2  0  0  0  0
 22 21  2  0  0  0  0
 23 22  1  0  0  0  0
 24 27  1  1  0  0  0
 24 31  1  0  0  0  0
 24 28  1  0  0  0  0
 25 30  1  0  0  0  0
 28 25  1  0  0  0  0
 29 26  1  1  0  0  0
 29 30  1  0  0  0  0
 30 22  1  1  0  0  0
 31 29  1  0  0  0  0
M  END
>  <MODEL>
8

>  <REMARK>
 VINA RESULT:      -7.4      3.682      6.201
  Name = 
  2 active torsions:
  status: ('A' for Active; 'I' for Inactive)
    1  A    between atoms: C_5  and  C_30
    2  A    between atoms: C_10  and  N_16
                            x       y       z     vdW  Elec       q    Type
                         _______ _______ _______ _____ _____    ______ ____

>  <TORSDO>
F 2

$$$$
=
 OpenBabel11112417013D

 31 35  0  0  1  0  0  0  0  0999 V2000
  186.1610  177.1810  142.6590 C   0  0  0  0  0  0  0  0  0  0  0  0
  188.5200  174.1920  142.5780 C   0  0  2  0  0  3  0  0  0  0  0  0
  188.9770  174.0100  141.1430 C   0  0  0  0  0  0  0  0  0  0  0  0
  188.5640  174.2470  138.7560 C   0  0  0  0  0  0  0  0  0  0  0  0
  187.9630  175.5670  142.8600 C   0  0  0  0  0  0  0  0  0  0  0  0
  186.9110  178.1150  143.3780 C   0  0  0  0  0  3  0  0  0  0  0  0
  188.1890  174.4800  140.0810 C   0  0  0  0  0  3  0  0  0  0  0  0
  190.6260  174.9510  143.7890 C   0  0  2  0  0  3  0  0  0  0  0  0
  184.9270  177.5090  142.2070 F   0  0  0  0  0  0  0  0  0  0  0  0
  191.0070  172.7280  141.9480 C   0  0  0  0  0  2  0  0  0  0  0  0
  187.7830  174.7320  137.7180 O   0  0  0  0  0  1  0  0  0  0  0  0
  189.9620  176.1690  144.1220 O   0  0  0  0  0  0  0  0  0  0  0  0
  189.6140  173.8100  143.5950 C   0  0  2  0  0  3  0  0  0  0  0  0
  186.6840  175.9110  142.4040 C   0  0  0  0  0  3  0  0  0  0  0  0
  189.7240  173.5210  138.4780 C   0  0  0  0  0  3  0  0  0  0  0  0
  188.7110  176.5070  143.5990 C   0  0  0  0  0  0  0  0  0  0  0  0
  188.1820  177.7770  143.8510 C   0  0  0  0  0  3  0  0  0  0  0  0
  190.2680  172.5560  143.2020 N   0  0  0  0  0  2  0  0  0  0  0  0
  190.1250  173.2420  140.8520 C   0  0  0  0  0  0  0  0  0  0  0  0
  190.5030  173.0220  139.5230 C   0  0  0  0  0  3  0  0  0  0  0  0
  193.4520  174.8160  143.4660 O   0  0  0  0  0  0  0  0  0  0  0  0
  192.9830  174.5660  144.6110 C   0  0  0  0  0  0  0  0  0  0  0  0
  191.5750  174.6090  144.8380 N   0  0  0  0  0  2  0  0  0  0  0  0
  196.6770  174.1380  144.9640 C   0  0  1  0  0  3  0  0  0  0  0  0
  194.9100  175.3270  146.0280 C   0  0  0  0  0  2  0  0  0  0  0  0
  193.7300  171.8670  145.1730 O   0  0  0  0  0  1  0  0  0  0  0  0
  197.8190  174.2440  143.9760 C   0  0  0  0  0  1  0  0  0  0  0  0
  195.9230  175.3900  144.9710 N   0  0  0  0  0  2  0  0  0  0  0  0
  194.6200  172.8690  145.5640 C   0  0  2  0  0  3  0  0  0  0  0  0
  193.8950  174.2120  145.7500 C   0  0  2  0  0  3  0  0  0  0  0  0
  195.7660  172.9810  144.5630 C   0  0  0  0  0  2  0  0  0  0  0  0
  1  6  1  0  0  0  0
  2  3  1  6  0  0  0
  2  5  1  0  0  0  0
  2 13  1  0  0  0  0
  4  7  1  0  0  0  0
  5 16  2  0  0  0  0
  6 17  2  0  0  0  0
  7  3  2  0  0  0  0
  8 12  1  0  0  0  0
  8 23  1  1  0  0  0
  9  1  1  0  0  0  0
 10 18  1  0  0  0  0
 11  4  1  0  0  0  0
 13 18  1  6  0  0  0
 13  8  1  0  0  0  0
 14  1  2  0  0  0  0
 14  5  1  0  0  0  0
 15  4  2  0  0  0  0
 15 20  1  0  0  0  0
 16 17  1  0  0  0  0
 16 12  1  0  0  0  0
 19  3  1  0  0  0  0
 19 10  1  0  0  0  0
 20 19  2  0  0  0  0
 21 22  2  0  0  0  0
 22 23  1  0  0  0  0
 24 27  1  6  0  0  0
 24 28  1  0  0  0  0
 28 25  1  0  0  0  0
 29 26  1  6  0  0  0
 29 30  1  0  0  0  0
 30 22  1  6  0  0  0
 30 25  1  0  0  0  0
 31 24  1  0  0  0  0
 31 29  1  0  0  0  0
M  END
>  <MODEL>
9

>  <REMARK>
 VINA RESULT:      -7.4      2.727      3.600
  Name = 
  2 active torsions:
  status: ('A' for Active; 'I' for Inactive)
    1  A    between atoms: C_5  and  C_30
    2  A    between atoms: C_10  and  N_16
                            x       y       z     vdW  Elec       q    Type
                         _______ _______ _______ _____ _____    ______ ____

>  <TORSDO>
F 2

$$$$
