=
 OpenBabel11112416343D

 32 37  0  0  1  0  0  0  0  0999 V2000
  184.4300  178.0710  146.5170 C   0  0  0  0  0  2  0  0  0  0  0  0
  189.0770  176.3710  145.0500 C   0  0  0  0  0  0  0  0  0  0  0  0
  188.5390  174.6030  140.4890 C   0  0  0  0  0  2  0  0  0  0  0  0
  189.6440  173.6060  140.7750 C   0  0  0  0  0  2  0  0  0  0  0  0
  191.3500  176.3320  146.1130 C   0  0  0  0  0  0  0  0  0  0  0  0
  192.6720  175.9210  145.9920 C   0  0  0  0  0  0  0  0  0  0  0  0
  187.3090  177.8390  145.9060 N   0  0  1  0  0  0  0  0  0  0  0  0
  186.8580  176.4620  143.9420 C   0  0  0  0  0  2  0  0  0  0  0  0
  194.4310  174.9840  145.0720 C   0  0  0  0  0  0  0  0  0  0  0  0
  184.9550  177.5900  145.1580 C   0  0  2  0  0  3  0  0  0  0  0  0
  187.8190  174.9260  141.7910 C   0  0  0  0  0  2  0  0  0  0  0  0
  188.2660  176.0280  143.9900 N   0  0  0  0  0  0  0  0  0  0  0  0
  188.7600  175.3490  142.9040 C   0  0  0  0  0  0  0  0  0  0  0  0
  190.9590  175.2860  143.9260 C   0  0  0  0  0  0  0  0  0  0  0  0
  194.8420  175.4970  146.2550 N   0  0  0  0  0  0  0  0  0  0  0  0
  185.4670  177.9490  147.6320 C   0  0  0  0  0  2  0  0  0  0  0  0
  186.3340  176.9270  145.2960 C   0  0  2  0  0  3  0  0  0  0  0  0
  193.7580  176.0810  146.8320 C   0  0  0  0  0  3  0  0  0  0  0  0
  186.8270  178.4680  147.1510 C   0  0  0  0  0  2  0  0  0  0  0  0
  190.6990  174.2720  141.6480 C   0  0  0  0  0  2  0  0  0  0  0  0
  190.1120  174.9500  142.8660 C   0  0  0  0  0  0  0  0  0  0  0  0
  192.2780  174.9190  143.8770 N   0  0  0  0  0  0  0  0  0  0  0  0
  188.4660  177.0320  146.2640 C   0  0  0  0  0  2  0  0  0  0  0  0
  190.9620  177.0420  147.2450 O   0  0  0  0  0  1  0  0  0  0  0  0
  195.3170  174.2580  144.1230 C   0  0  0  0  0  1  0  0  0  0  0  0
  190.4490  176.0070  145.0510 C   0  0  0  0  0  0  0  0  0  0  0  0
  193.0970  175.2400  144.9030 C   0  0  0  0  0  0  0  0  0  0  0  0
  185.0190  178.6760  144.2790 O   0  0  0  0  0  0  0  0  0  0  0  0
  183.7520  178.7420  143.6940 C   0  0  0  0  0  2  0  0  0  0  0  0
  183.8370  178.3510  142.2560 C   0  0  0  0  0  0  0  0  0  0  0  0
  182.8260  178.0630  141.6390 O   0  0  0  0  0  0  0  0  0  0  0  0
  185.1580  178.3290  141.5710 C   0  0  0  0  0  1  0  0  0  0  0  0
  1 16  1  0  0  0  0
  2 26  2  0  0  0  0
  2 23  1  0  0  0  0
  3  4  1  0  0  0  0
  3 11  1  0  0  0  0
  4 20  1  0  0  0  0
  5 24  1  0  0  0  0
  6  5  2  0  0  0  0
  6 18  1  0  0  0  0
  7 23  1  1  0  0  0
  7 19  1  0  0  0  0
  8 12  1  0  0  0  0
  9 15  1  0  0  0  0
 10 28  1  6  0  0  0
 10 17  1  0  0  0  0
 10  1  1  0  0  0  0
 11 13  1  0  0  0  0
 12  2  1  0  0  0  0
 13 12  1  0  0  0  0
 14 26  1  0  0  0  0
 15 18  2  0  0  0  0
 17  8  1  6  0  0  0
 17  7  1  0  0  0  0
 19 16  1  0  0  0  0
 20 21  1  0  0  0  0
 21 13  2  0  0  0  0
 21 14  1  0  0  0  0
 22 14  2  0  0  0  0
 22 27  1  0  0  0  0
 25  9  1  0  0  0  0
 26  5  1  0  0  0  0
 27  9  2  0  0  0  0
 27  6  1  0  0  0  0
 29 28  1  0  0  0  0
 30 29  1  0  0  0  0
 31 30  2  0  0  0  0
 32 30  1  0  0  0  0
M  END
>  <MODEL>
1

>  <REMARK>
 VINA RESULT:      -8.4      0.000      0.000
  Name = 
  3 active torsions:
  status: ('A' for Active; 'I' for Inactive)
    1  A    between atoms: C_10  and  O_20
    2  A    between atoms: O_20  and  C_29
    3  A    between atoms: C_29  and  C_30
                            x       y       z     vdW  Elec       q    Type
                         _______ _______ _______ _____ _____    ______ ____

>  <TORSDO>
F 3

$$$$
=
 OpenBabel11112416343D

 32 37  0  0  1  0  0  0  0  0999 V2000
  189.9830  172.2400  139.4070 C   0  0  0  0  0  2  0  0  0  0  0  0
  188.5830  175.3560  143.2770 C   0  0  0  0  0  0  0  0  0  0  0  0
  192.2350  175.2130  146.5730 C   0  0  0  0  0  2  0  0  0  0  0  0
  191.2160  175.4500  147.6700 C   0  0  0  0  0  2  0  0  0  0  0  0
  186.5990  176.8270  143.7180 C   0  0  0  0  0  0  0  0  0  0  0  0
  185.9690  177.6720  144.6240 C   0  0  0  0  0  0  0  0  0  0  0  0
  189.0740  174.5430  141.0150 N   0  0  1  0  0  0  0  0  0  0  0  0
  190.5940  173.9680  142.8360 C   0  0  0  0  0  2  0  0  0  0  0  0
  185.6730  178.7890  146.4900 C   0  0  0  0  0  0  0  0  0  0  0  0
  190.7570  172.7610  140.6250 C   0  0  2  0  0  3  0  0  0  0  0  0
  191.5610  174.4660  145.4290 C   0  0  0  0  0  2  0  0  0  0  0  0
  189.7750  174.8210  143.7170 N   0  0  0  0  0  0  0  0  0  0  0  0
  190.2840  175.1320  144.9530 C   0  0  0  0  0  0  0  0  0  0  0  0
  188.3630  176.5440  145.4020 C   0  0  0  0  0  0  0  0  0  0  0  0
  184.6110  179.0700  145.7000 N   0  0  0  0  0  0  0  0  0  0  0  0
  188.5200  172.6800  139.4010 C   0  0  0  0  0  2  0  0  0  0  0  0
  189.8190  173.4400  141.6340 C   0  0  2  0  0  3  0  0  0  0  0  0
  184.7870  178.3820  144.5400 C   0  0  0  0  0  3  0  0  0  0  0  0
  188.4120  174.1690  139.7500 C   0  0  0  0  0  2  0  0  0  0  0  0
  190.1500  176.4070  147.1560 C   0  0  0  0  0  2  0  0  0  0  0  0
  189.5730  175.9850  145.8230 C   0  0  0  0  0  0  0  0  0  0  0  0
  187.6850  177.3910  146.2400 N   0  0  0  0  0  0  0  0  0  0  0  0
  188.0180  174.9060  141.9490 C   0  0  0  0  0  2  0  0  0  0  0  0
  186.0090  176.6030  142.4780 O   0  0  0  0  0  1  0  0  0  0  0  0
  185.8680  179.3460  147.8560 C   0  0  0  0  0  1  0  0  0  0  0  0
  187.8390  176.2320  144.1080 C   0  0  0  0  0  0  0  0  0  0  0  0
  186.5140  177.9300  145.8360 C   0  0  0  0  0  0  0  0  0  0  0  0
  191.7440  173.6560  140.1950 O   0  0  0  0  0  0  0  0  0  0  0  0
  192.2330  173.1080  139.0060 C   0  0  0  0  0  2  0  0  0  0  0  0
  192.7060  174.1980  138.1030 C   0  0  0  0  0  0  0  0  0  0  0  0
  193.7310  174.8060  138.3620 O   0  0  0  0  0  0  0  0  0  0  0  0
  191.9310  174.5330  136.8770 C   0  0  0  0  0  1  0  0  0  0  0  0
  1 10  1  0  0  0  0
  2 12  1  0  0  0  0
  2 26  2  0  0  0  0
  3  4  1  0  0  0  0
  5 26  1  0  0  0  0
  5  6  2  0  0  0  0
  6 27  1  0  0  0  0
  7 19  1  6  0  0  0
  7 17  1  0  0  0  0
  7 23  1  0  0  0  0
  8 12  1  0  0  0  0
  9 25  1  0  0  0  0
 10 28  1  6  0  0  0
 10 17  1  0  0  0  0
 11  3  1  0  0  0  0
 12 13  1  0  0  0  0
 13 11  1  0  0  0  0
 13 21  2  0  0  0  0
 14 21  1  0  0  0  0
 14 22  2  0  0  0  0
 15  9  1  0  0  0  0
 16  1  1  0  0  0  0
 16 19  1  0  0  0  0
 17  8  1  1  0  0  0
 18  6  1  0  0  0  0
 18 15  2  0  0  0  0
 20  4  1  0  0  0  0
 21 20  1  0  0  0  0
 23  2  1  0  0  0  0
 24  5  1  0  0  0  0
 26 14  1  0  0  0  0
 27 22  1  0  0  0  0
 27  9  2  0  0  0  0
 29 28  1  0  0  0  0
 30 31  2  0  0  0  0
 30 29  1  0  0  0  0
 32 30  1  0  0  0  0
M  END
>  <MODEL>
2

>  <REMARK>
 VINA RESULT:      -8.1      2.898      7.693
  Name = 
  3 active torsions:
  status: ('A' for Active; 'I' for Inactive)
    1  A    between atoms: C_10  and  O_20
    2  A    between atoms: O_20  and  C_29
    3  A    between atoms: C_29  and  C_30
                            x       y       z     vdW  Elec       q    Type
                         _______ _______ _______ _____ _____    ______ ____

>  <TORSDO>
F 3

$$$$
=
 OpenBabel11112416343D

 32 37  0  0  1  0  0  0  0  0999 V2000
  184.9300  179.1370  143.5670 C   0  0  0  0  0  2  0  0  0  0  0  0
  188.8380  175.7840  143.2150 C   0  0  0  0  0  0  0  0  0  0  0  0
  191.0880  175.8010  147.5930 C   0  0  0  0  0  2  0  0  0  0  0  0
  192.3940  175.4850  146.8910 C   0  0  0  0  0  2  0  0  0  0  0  0
  189.6860  174.2560  141.4150 C   0  0  0  0  0  0  0  0  0  0  0  0
  190.6720  173.3510  141.0410 C   0  0  0  0  0  0  0  0  0  0  0  0
  186.5790  176.7310  143.1060 N   0  0  1  0  0  0  0  0  0  0  0  0
  187.9780  177.2280  145.0420 C   0  0  0  0  0  2  0  0  0  0  0  0
  192.4820  172.1240  141.2370 C   0  0  0  0  0  0  0  0  0  0  0  0
  185.8750  178.5610  144.6290 C   0  0  2  0  0  3  0  0  0  0  0  0
  190.2030  176.6000  146.6460 C   0  0  0  0  0  2  0  0  0  0  0  0
  188.9880  176.3120  144.4790 N   0  0  0  0  0  0  0  0  0  0  0  0
  190.0310  175.9400  145.2900 C   0  0  0  0  0  0  0  0  0  0  0  0
  190.8750  174.4730  143.5520 C   0  0  0  0  0  0  0  0  0  0  0  0
  191.9760  171.8710  140.0080 N   0  0  0  0  0  0  0  0  0  0  0  0
  185.2740  178.6730  142.1520 C   0  0  0  0  0  2  0  0  0  0  0  0
  187.0500  177.8110  143.9830 C   0  0  2  0  0  3  0  0  0  0  0  0
  190.8530  172.6260  139.8780 C   0  0  0  0  0  3  0  0  0  0  0  0
  185.5510  177.1660  142.1400 C   0  0  0  0  0  2  0  0  0  0  0  0
  192.1160  174.5410  145.7300 C   0  0  0  0  0  2  0  0  0  0  0  0
  191.0030  175.0270  144.8290 C   0  0  0  0  0  0  0  0  0  0  0  0
  191.8070  173.5690  143.1140 N   0  0  0  0  0  0  0  0  0  0  0  0
  187.7290  176.2980  142.3270 C   0  0  0  0  0  2  0  0  0  0  0  0
  188.6550  174.5400  140.5250 O   0  0  0  0  0  1  0  0  0  0  0  0
  193.7170  171.4950  141.7780 C   0  0  0  0  0  1  0  0  0  0  0  0
  189.7800  174.8490  142.7120 C   0  0  0  0  0  0  0  0  0  0  0  0
  191.6870  173.0340  141.8790 C   0  0  0  0  0  0  0  0  0  0  0  0
  185.1540  177.7090  145.4730 O   0  0  0  0  0  0  0  0  0  0  0  0
  184.6920  178.5310  146.5040 C   0  0  0  0  0  2  0  0  0  0  0  0
  185.6670  178.5220  147.6340 C   0  0  0  0  0  0  0  0  0  0  0  0
  185.9410  177.4760  148.1990 O   0  0  0  0  0  0  0  0  0  0  0  0
  186.3160  179.7910  148.0630 C   0  0  0  0  0  1  0  0  0  0  0  0
  1 10  1  0  0  0  0
  2 12  1  0  0  0  0
  4  3  1  0  0  0  0
  5 26  1  0  0  0  0
  6  5  2  0  0  0  0
  6 27  1  0  0  0  0
  7 19  1  6  0  0  0
  7 17  1  0  0  0  0
  9 25  1  0  0  0  0
  9 27  2  0  0  0  0
 10 28  1  1  0  0  0
 11  3  1  0  0  0  0
 12  8  1  0  0  0  0
 12 13  1  0  0  0  0
 13 11  1  0  0  0  0
 14 21  1  0  0  0  0
 15  9  1  0  0  0  0
 16  1  1  0  0  0  0
 17 10  1  0  0  0  0
 17  8  1  1  0  0  0
 18 15  2  0  0  0  0
 18  6  1  0  0  0  0
 19 16  1  0  0  0  0
 20  4  1  0  0  0  0
 21 13  2  0  0  0  0
 21 20  1  0  0  0  0
 22 14  2  0  0  0  0
 23  7  1  0  0  0  0
 23  2  1  0  0  0  0
 24  5  1  0  0  0  0
 26  2  2  0  0  0  0
 26 14  1  0  0  0  0
 27 22  1  0  0  0  0
 28 29  1  0  0  0  0
 29 30  1  0  0  0  0
 30 32  1  0  0  0  0
 30 31  2  0  0  0  0
M  END
>  <MODEL>
3

>  <REMARK>
 VINA RESULT:      -8.0      2.186      4.807
  Name = 
  3 active torsions:
  status: ('A' for Active; 'I' for Inactive)
    1  A    between atoms: C_10  and  O_20
    2  A    between atoms: O_20  and  C_29
    3  A    between atoms: C_29  and  C_30
                            x       y       z     vdW  Elec       q    Type
                         _______ _______ _______ _____ _____    ______ ____

>  <TORSDO>
F 3

$$$$
=
 OpenBabel11112416343D

 32 37  0  0  1  0  0  0  0  0999 V2000
  194.9160  175.1680  145.9730 C   0  0  0  0  0  2  0  0  0  0  0  0
  190.2280  176.0420  143.9990 C   0  0  0  0  0  0  0  0  0  0  0  0
  189.7880  173.0850  140.0890 C   0  0  0  0  0  2  0  0  0  0  0  0
  188.8840  174.1180  139.4460 C   0  0  0  0  0  2  0  0  0  0  0  0
  188.3000  177.5150  144.6370 C   0  0  0  0  0  0  0  0  0  0  0  0
  187.0320  177.9690  144.2920 C   0  0  0  0  0  0  0  0  0  0  0  0
  192.0090  175.5290  145.6050 N   0  0  1  0  0  0  0  0  0  0  0  0
  192.0880  174.5170  143.3850 C   0  0  0  0  0  2  0  0  0  0  0  0
  185.1950  178.1520  143.1040 C   0  0  0  0  0  0  0  0  0  0  0  0
  194.1190  174.4400  144.8820 C   0  0  2  0  0  3  0  0  0  0  0  0
  190.7730  173.7980  141.0050 C   0  0  0  0  0  2  0  0  0  0  0  0
  190.7810  175.1430  143.1130 N   0  0  0  0  0  0  0  0  0  0  0  0
  190.1000  174.7320  141.9940 C   0  0  0  0  0  0  0  0  0  0  0  0
  188.2350  176.1660  142.5870 C   0  0  0  0  0  0  0  0  0  0  0  0
  185.0420  178.9610  144.1790 N   0  0  0  0  0  0  0  0  0  0  0  0
  194.2010  176.4090  146.5020 C   0  0  0  0  0  2  0  0  0  0  0  0
  192.8840  175.2500  144.4590 C   0  0  2  0  0  3  0  0  0  0  0  0
  186.1760  178.8520  144.9210 C   0  0  0  0  0  3  0  0  0  0  0  0
  192.7220  176.0990  146.7640 C   0  0  0  0  0  2  0  0  0  0  0  0
  188.0190  174.7590  140.5220 C   0  0  0  0  0  2  0  0  0  0  0  0
  188.8220  175.2540  141.7040 C   0  0  0  0  0  0  0  0  0  0  0  0
  186.9840  176.6550  142.3150 N   0  0  0  0  0  0  0  0  0  0  0  0
  191.0550  176.5350  145.1630 C   0  0  0  0  0  2  0  0  0  0  0  0
  188.8870  177.9750  145.8110 O   0  0  0  0  0  1  0  0  0  0  0  0
  184.1730  177.9790  142.0370 C   0  0  0  0  0  1  0  0  0  0  0  0
  188.9380  176.5830  143.7610 C   0  0  0  0  0  0  0  0  0  0  0  0
  186.4160  177.5390  143.1650 C   0  0  0  0  0  0  0  0  0  0  0  0
  193.7410  173.1780  145.3530 O   0  0  0  0  0  0  0  0  0  0  0  0
  194.5580  172.2770  144.6650 C   0  0  0  0  0  2  0  0  0  0  0  0
  195.3230  171.4430  145.6370 C   0  0  0  0  0  0  0  0  0  0  0  0
  194.7920  170.4870  146.1750 O   0  0  0  0  0  0  0  0  0  0  0  0
  196.7440  171.7720  145.9390 C   0  0  0  0  0  1  0  0  0  0  0  0
  1 16  1  0  0  0  0
  2 23  1  0  0  0  0
  3 11  1  0  0  0  0
  4  3  1  0  0  0  0
  4 20  1  0  0  0  0
  5 24  1  0  0  0  0
  6  5  2  0  0  0  0
  6 18  1  0  0  0  0
  7 23  1  6  0  0  0
  7 19  1  0  0  0  0
  9 27  2  0  0  0  0
  9 15  1  0  0  0  0
 10 28  1  1  0  0  0
 10  1  1  0  0  0  0
 11 13  1  0  0  0  0
 12  8  1  0  0  0  0
 12  2  1  0  0  0  0
 13 12  1  0  0  0  0
 14 26  1  0  0  0  0
 15 18  2  0  0  0  0
 16 19  1  0  0  0  0
 17  8  1  6  0  0  0
 17 10  1  0  0  0  0
 17  7  1  0  0  0  0
 20 21  1  0  0  0  0
 21 13  2  0  0  0  0
 21 14  1  0  0  0  0
 22 14  2  0  0  0  0
 22 27  1  0  0  0  0
 25  9  1  0  0  0  0
 26  2  2  0  0  0  0
 26  5  1  0  0  0  0
 27  6  1  0  0  0  0
 29 28  1  0  0  0  0
 29 30  1  0  0  0  0
 30 32  1  0  0  0  0
 30 31  2  0  0  0  0
M  END
>  <MODEL>
4

>  <REMARK>
 VINA RESULT:      -7.8      2.278      7.800
  Name = 
  3 active torsions:
  status: ('A' for Active; 'I' for Inactive)
    1  A    between atoms: C_10  and  O_20
    2  A    between atoms: O_20  and  C_29
    3  A    between atoms: C_29  and  C_30
                            x       y       z     vdW  Elec       q    Type
                         _______ _______ _______ _____ _____    ______ ____

>  <TORSDO>
F 3

$$$$
=
 OpenBabel11112416343D

 32 37  0  0  1  0  0  0  0  0999 V2000
  186.6270  178.4220  142.6830 C   0  0  0  0  0  2  0  0  0  0  0  0
  189.9680  174.5680  143.4750 C   0  0  0  0  0  0  0  0  0  0  0  0
  193.2240  176.2040  146.7830 C   0  0  0  0  0  2  0  0  0  0  0  0
  194.2770  175.3200  146.1420 C   0  0  0  0  0  2  0  0  0  0  0  0
  190.1840  172.2240  142.6070 C   0  0  0  0  0  0  0  0  0  0  0  0
  190.9500  171.0640  142.5970 C   0  0  0  0  0  0  0  0  0  0  0  0
  187.8590  175.8030  143.2640 N   0  0  1  0  0  0  0  0  0  0  0  0
  189.7390  176.8570  144.4100 C   0  0  0  0  0  2  0  0  0  0  0  0
  192.6200  169.7300  143.0980 C   0  0  0  0  0  0  0  0  0  0  0  0
  187.7440  178.2400  143.7200 C   0  0  2  0  0  3  0  0  0  0  0  0
  192.2160  176.6180  145.7200 C   0  0  0  0  0  2  0  0  0  0  0  0
  190.4800  175.5920  144.2430 N   0  0  0  0  0  0  0  0  0  0  0  0
  191.6490  175.4420  144.9460 C   0  0  0  0  0  0  0  0  0  0  0  0
  191.8820  173.1800  144.1010 C   0  0  0  0  0  0  0  0  0  0  0  0
  191.8020  169.0320  142.2770 N   0  0  0  0  0  0  0  0  0  0  0  0
  186.5610  177.2760  141.6750 C   0  0  0  0  0  2  0  0  0  0  0  0
  188.6390  177.0420  143.3700 C   0  0  2  0  0  3  0  0  0  0  0  0
  190.7630  169.8520  141.9620 C   0  0  0  0  0  3  0  0  0  0  0  0
  186.6730  175.9280  142.3950 C   0  0  0  0  0  2  0  0  0  0  0  0
  193.6250  174.0190  145.6960 C   0  0  0  0  0  2  0  0  0  0  0  0
  192.3790  174.2380  144.8690 C   0  0  0  0  0  0  0  0  0  0  0  0
  192.5810  172.0030  144.0450 N   0  0  0  0  0  0  0  0  0  0  0  0
  188.7310  174.8160  142.6440 C   0  0  0  0  0  2  0  0  0  0  0  0
  188.9990  172.2580  141.8800 O   0  0  0  0  0  1  0  0  0  0  0  0
  193.8800  169.1910  143.6760 C   0  0  0  0  0  1  0  0  0  0  0  0
  190.6560  173.3310  143.3790 C   0  0  0  0  0  0  0  0  0  0  0  0
  192.1040  170.9810  143.3010 C   0  0  0  0  0  0  0  0  0  0  0  0
  187.1730  178.0720  144.9860 O   0  0  0  0  0  0  0  0  0  0  0  0
  186.0270  178.8710  144.9730 C   0  0  0  0  0  2  0  0  0  0  0  0
  184.9460  178.2190  145.7680 C   0  0  0  0  0  0  0  0  0  0  0  0
  183.8980  178.8070  145.9760 O   0  0  0  0  0  0  0  0  0  0  0  0
  185.1420  176.8410  146.2950 C   0  0  0  0  0  1  0  0  0  0  0  0
  1 10  1  0  0  0  0
  2 12  1  0  0  0  0
  4  3  1  0  0  0  0
  5 26  1  0  0  0  0
  6  5  2  0  0  0  0
  6 27  1  0  0  0  0
  7 19  1  6  0  0  0
  7 17  1  0  0  0  0
  9 27  2  0  0  0  0
  9 25  1  0  0  0  0
 10 28  1  1  0  0  0
 11  3  1  0  0  0  0
 12  8  1  0  0  0  0
 12 13  1  0  0  0  0
 13 11  1  0  0  0  0
 14 21  1  0  0  0  0
 15  9  1  0  0  0  0
 16 19  1  0  0  0  0
 16  1  1  0  0  0  0
 17 10  1  0  0  0  0
 17  8  1  1  0  0  0
 18 15  2  0  0  0  0
 18  6  1  0  0  0  0
 20  4  1  0  0  0  0
 21 13  2  0  0  0  0
 21 20  1  0  0  0  0
 22 14  2  0  0  0  0
 23  7  1  0  0  0  0
 23  2  1  0  0  0  0
 24  5  1  0  0  0  0
 26  2  2  0  0  0  0
 26 14  1  0  0  0  0
 27 22  1  0  0  0  0
 29 28  1  0  0  0  0
 29 30  1  0  0  0  0
 30 31  2  0  0  0  0
 30 32  1  0  0  0  0
M  END
>  <MODEL>
5

>  <REMARK>
 VINA RESULT:      -7.7      2.843      4.997
  Name = 
  3 active torsions:
  status: ('A' for Active; 'I' for Inactive)
    1  A    between atoms: C_10  and  O_20
    2  A    between atoms: O_20  and  C_29
    3  A    between atoms: C_29  and  C_30
                            x       y       z     vdW  Elec       q    Type
                         _______ _______ _______ _____ _____    ______ ____

>  <TORSDO>
F 3

$$$$
=
 OpenBabel11112416343D

 32 37  0  0  1  0  0  0  0  0999 V2000
  185.2900  177.3090  146.0160 C   0  0  0  0  0  2  0  0  0  0  0  0
  189.9630  175.7550  144.4700 C   0  0  0  0  0  0  0  0  0  0  0  0
  189.4290  174.1000  139.8660 C   0  0  0  0  0  2  0  0  0  0  0  0
  190.5590  173.1210  140.1180 C   0  0  0  0  0  2  0  0  0  0  0  0
  192.2440  175.7400  145.5150 C   0  0  0  0  0  0  0  0  0  0  0  0
  193.5740  175.3620  145.3740 C   0  0  0  0  0  0  0  0  0  0  0  0
  188.1690  177.1600  145.3780 N   0  0  1  0  0  0  0  0  0  0  0  0
  187.7330  175.8260  143.3810 C   0  0  0  0  0  2  0  0  0  0  0  0
  195.3460  174.4900  144.4150 C   0  0  0  0  0  0  0  0  0  0  0  0
  185.8150  176.8770  144.6410 C   0  0  2  0  0  3  0  0  0  0  0  0
  188.7120  174.3710  141.1820 C   0  0  0  0  0  2  0  0  0  0  0  0
  189.1520  175.4230  143.4070 N   0  0  0  0  0  0  0  0  0  0  0  0
  189.6520  174.7850  142.3000 C   0  0  0  0  0  0  0  0  0  0  0  0
  191.8600  174.7450  143.3040 C   0  0  0  0  0  0  0  0  0  0  0  0
  195.7550  174.9810  145.6090 N   0  0  0  0  0  0  0  0  0  0  0  0
  186.3390  177.1800  147.1200 C   0  0  0  0  0  2  0  0  0  0  0  0
  187.2090  176.2420  144.7510 C   0  0  2  0  0  3  0  0  0  0  0  0
  194.6630  175.5240  146.2090 C   0  0  0  0  0  3  0  0  0  0  0  0
  187.6830  177.7430  146.6430 C   0  0  0  0  0  2  0  0  0  0  0  0
  191.6050  173.7870  141.0000 C   0  0  0  0  0  2  0  0  0  0  0  0
  191.0130  174.4180  142.2400 C   0  0  0  0  0  0  0  0  0  0  0  0
  193.1860  174.4090  143.2350 N   0  0  0  0  0  0  0  0  0  0  0  0
  189.3460  176.3690  145.7050 C   0  0  0  0  0  2  0  0  0  0  0  0
  191.8490  176.4090  146.6690 O   0  0  0  0  0  1  0  0  0  0  0  0
  196.2410  173.8110  143.4410 C   0  0  0  0  0  1  0  0  0  0  0  0
  191.3420  175.4240  144.4510 C   0  0  0  0  0  0  0  0  0  0  0  0
  194.0060  174.7210  144.2630 C   0  0  0  0  0  0  0  0  0  0  0  0
  185.8480  177.9880  143.7910 O   0  0  0  0  0  0  0  0  0  0  0  0
  184.6580  177.9200  143.0630 C   0  0  0  0  0  2  0  0  0  0  0  0
  184.9360  178.1520  141.6150 C   0  0  0  0  0  0  0  0  0  0  0  0
  186.0860  178.2100  141.2140 O   0  0  0  0  0  0  0  0  0  0  0  0
  183.8050  178.2980  140.6580 C   0  0  0  0  0  1  0  0  0  0  0  0
  1 16  1  0  0  0  0
  2 23  1  0  0  0  0
  3  4  1  0  0  0  0
  3 11  1  0  0  0  0
  4 20  1  0  0  0  0
  5 24  1  0  0  0  0
  6  5  2  0  0  0  0
  6 18  1  0  0  0  0
  7 23  1  1  0  0  0
  7 19  1  0  0  0  0
  8 12  1  0  0  0  0
  9 15  1  0  0  0  0
 10 28  1  6  0  0  0
 10 17  1  0  0  0  0
 10  1  1  0  0  0  0
 11 13  1  0  0  0  0
 12  2  1  0  0  0  0
 13 12  1  0  0  0  0
 14 26  1  0  0  0  0
 15 18  2  0  0  0  0
 17  8  1  6  0  0  0
 17  7  1  0  0  0  0
 19 16  1  0  0  0  0
 20 21  1  0  0  0  0
 21 13  2  0  0  0  0
 21 14  1  0  0  0  0
 22 14  2  0  0  0  0
 22 27  1  0  0  0  0
 25  9  1  0  0  0  0
 26  2  2  0  0  0  0
 26  5  1  0  0  0  0
 27  9  2  0  0  0  0
 27  6  1  0  0  0  0
 29 28  1  0  0  0  0
 30 29  1  0  0  0  0
 31 30  2  0  0  0  0
 32 30  1  0  0  0  0
M  END
>  <MODEL>
6

>  <REMARK>
 VINA RESULT:      -7.7      1.178      1.359
  Name = 
  3 active torsions:
  status: ('A' for Active; 'I' for Inactive)
    1  A    between atoms: C_10  and  O_20
    2  A    between atoms: O_20  and  C_29
    3  A    between atoms: C_29  and  C_30
                            x       y       z     vdW  Elec       q    Type
                         _______ _______ _______ _____ _____    ______ ____

>  <TORSDO>
F 3

$$$$
=
 OpenBabel11112416343D

 32 37  0  0  1  0  0  0  0  0999 V2000
  195.2830  175.1210  145.1790 C   0  0  0  0  0  2  0  0  0  0  0  0
  190.2680  176.3370  145.0540 C   0  0  0  0  0  0  0  0  0  0  0  0
  188.5130  174.5790  140.8050 C   0  0  0  0  0  2  0  0  0  0  0  0
  187.5110  175.7160  140.7820 C   0  0  0  0  0  2  0  0  0  0  0  0
  188.7020  177.5000  146.6320 C   0  0  0  0  0  0  0  0  0  0  0  0
  187.4150  177.9840  146.8310 C   0  0  0  0  0  0  0  0  0  0  0  0
  192.4240  175.4610  145.8310 N   0  0  1  0  0  0  0  0  0  0  0  0
  191.7750  175.1160  143.5040 C   0  0  0  0  0  2  0  0  0  0  0  0
  185.3160  178.4240  146.3600 C   0  0  0  0  0  0  0  0  0  0  0  0
  194.1570  174.6990  144.2260 C   0  0  2  0  0  3  0  0  0  0  0  0
  189.7650  175.0430  141.5370 C   0  0  0  0  0  2  0  0  0  0  0  0
  190.4800  175.7430  143.8280 N   0  0  0  0  0  0  0  0  0  0  0  0
  189.4720  175.6370  142.9030 C   0  0  0  0  0  0  0  0  0  0  0  0
  187.9510  176.7770  144.4100 C   0  0  0  0  0  0  0  0  0  0  0  0
  185.5370  178.8920  147.6100 N   0  0  0  0  0  0  0  0  0  0  0  0
  194.8260  176.1370  146.2250 C   0  0  0  0  0  2  0  0  0  0  0  0
  192.8950  175.5470  144.4430 C   0  0  2  0  0  3  0  0  0  0  0  0
  186.8360  178.6230  147.9110 C   0  0  0  0  0  3  0  0  0  0  0  0
  193.4830  175.7100  146.8280 C   0  0  0  0  0  2  0  0  0  0  0  0
  187.0480  175.9980  142.2040 C   0  0  0  0  0  2  0  0  0  0  0  0
  188.1950  176.1720  143.1730 C   0  0  0  0  0  0  0  0  0  0  0  0
  186.7030  177.2750  144.6800 N   0  0  0  0  0  0  0  0  0  0  0  0
  191.4340  176.5150  145.9990 C   0  0  0  0  0  2  0  0  0  0  0  0
  189.6410  177.6340  147.6510 O   0  0  0  0  0  1  0  0  0  0  0  0
  184.0120  178.5180  145.6520 C   0  0  0  0  0  1  0  0  0  0  0  0
  188.9960  176.8740  145.3810 C   0  0  0  0  0  0  0  0  0  0  0  0
  186.4660  177.8640  145.8730 C   0  0  0  0  0  0  0  0  0  0  0  0
  193.8750  173.3420  144.4200 O   0  0  0  0  0  0  0  0  0  0  0  0
  195.1050  172.6940  144.2780 C   0  0  0  0  0  2  0  0  0  0  0  0
  195.2760  171.6890  145.3670 C   0  0  0  0  0  0  0  0  0  0  0  0
  194.3140  171.0650  145.7820 O   0  0  0  0  0  0  0  0  0  0  0  0
  196.6280  171.4370  145.9370 C   0  0  0  0  0  1  0  0  0  0  0  0
  1 16  1  0  0  0  0
  2 26  2  0  0  0  0
  2 23  1  0  0  0  0
  3 11  1  0  0  0  0
  4  3  1  0  0  0  0
  4 20  1  0  0  0  0
  5  6  2  0  0  0  0
  5 24  1  0  0  0  0
  6 18  1  0  0  0  0
  7 23  1  6  0  0  0
  7 19  1  0  0  0  0
  8 12  1  0  0  0  0
  9 15  1  0  0  0  0
 10 28  1  1  0  0  0
 10 17  1  0  0  0  0
 10  1  1  0  0  0  0
 11 13  1  0  0  0  0
 12  2  1  0  0  0  0
 13 21  2  0  0  0  0
 13 12  1  0  0  0  0
 14 22  2  0  0  0  0
 14 26  1  0  0  0  0
 15 18  2  0  0  0  0
 16 19  1  0  0  0  0
 17  8  1  6  0  0  0
 17  7  1  0  0  0  0
 20 21  1  0  0  0  0
 21 14  1  0  0  0  0
 22 27  1  0  0  0  0
 25  9  1  0  0  0  0
 26  5  1  0  0  0  0
 27  9  2  0  0  0  0
 27  6  1  0  0  0  0
 29 28  1  0  0  0  0
 29 30  1  0  0  0  0
 30 31  2  0  0  0  0
 30 32  1  0  0  0  0
M  END
>  <MODEL>
7

>  <REMARK>
 VINA RESULT:      -7.6      2.382      7.752
  Name = 
  3 active torsions:
  status: ('A' for Active; 'I' for Inactive)
    1  A    between atoms: C_10  and  O_20
    2  A    between atoms: O_20  and  C_29
    3  A    between atoms: C_29  and  C_30
                            x       y       z     vdW  Elec       q    Type
                         _______ _______ _______ _____ _____    ______ ____

>  <TORSDO>
F 3

$$$$
=
 OpenBabel11112416343D

 32 37  0  0  1  0  0  0  0  0999 V2000
  185.8860  178.2880  141.5580 C   0  0  0  0  0  2  0  0  0  0  0  0
  190.0070  175.7090  143.2930 C   0  0  0  0  0  0  0  0  0  0  0  0
  190.5690  176.9910  148.0120 C   0  0  0  0  0  2  0  0  0  0  0  0
  192.0640  176.7910  147.8580 C   0  0  0  0  0  2  0  0  0  0  0  0
  191.5900  174.0430  142.2860 C   0  0  0  0  0  0  0  0  0  0  0  0
  192.7350  173.2800  142.4760 C   0  0  0  0  0  0  0  0  0  0  0  0
  187.8400  176.1840  142.2470 N   0  0  1  0  0  0  0  0  0  0  0  0
  188.4130  177.2970  144.3420 C   0  0  0  0  0  2  0  0  0  0  0  0
  194.4840  172.4700  143.5290 C   0  0  0  0  0  0  0  0  0  0  0  0
  186.4570  178.1130  142.9720 C   0  0  2  0  0  3  0  0  0  0  0  0
  189.9900  177.4140  146.6680 C   0  0  0  0  0  2  0  0  0  0  0  0
  189.6480  176.4920  144.3700 N   0  0  0  0  0  0  0  0  0  0  0  0
  190.3760  176.4830  145.5330 C   0  0  0  0  0  0  0  0  0  0  0  0
  191.9260  174.8860  144.5670 C   0  0  0  0  0  0  0  0  0  0  0  0
  194.4690  171.8930  142.3050 N   0  0  0  0  0  0  0  0  0  0  0  0
  186.7500  177.6290  140.4840 C   0  0  0  0  0  2  0  0  0  0  0  0
  187.8560  177.4810  142.9350 C   0  0  2  0  0  3  0  0  0  0  0  0
  193.3880  172.3890  141.6460 C   0  0  0  0  0  3  0  0  0  0  0  0
  187.1750  176.2260  140.9310 C   0  0  0  0  0  2  0  0  0  0  0  0
  192.3120  175.6040  146.9380 C   0  0  0  0  0  2  0  0  0  0  0  0
  191.5400  175.6930  145.6420 C   0  0  0  0  0  0  0  0  0  0  0  0
  193.0430  174.1020  144.6820 N   0  0  0  0  0  0  0  0  0  0  0  0
  189.2300  175.8270  142.0030 C   0  0  0  0  0  2  0  0  0  0  0  0
  190.9110  173.9540  141.0750 O   0  0  0  0  0  1  0  0  0  0  0  0
  195.5110  172.1960  144.5690 C   0  0  0  0  0  1  0  0  0  0  0  0
  191.1600  174.8840  143.3590 C   0  0  0  0  0  0  0  0  0  0  0  0
  193.4210  173.3250  143.6430 C   0  0  0  0  0  0  0  0  0  0  0  0
  185.5820  177.3240  143.7270 O   0  0  0  0  0  0  0  0  0  0  0  0
  184.7330  178.2340  144.3620 C   0  0  0  0  0  2  0  0  0  0  0  0
  184.7040  177.9610  145.8280 C   0  0  0  0  0  0  0  0  0  0  0  0
  184.0660  178.6850  146.5740 O   0  0  0  0  0  0  0  0  0  0  0  0
  185.4430  176.7920  146.3790 C   0  0  0  0  0  1  0  0  0  0  0  0
  1 10  1  0  0  0  0
  2 26  2  0  0  0  0
  2 12  1  0  0  0  0
  4  3  1  0  0  0  0
  5  6  2  0  0  0  0
  5 26  1  0  0  0  0
  6 27  1  0  0  0  0
  7 19  1  6  0  0  0
  7 17  1  0  0  0  0
  8 12  1  0  0  0  0
  9 27  2  0  0  0  0
  9 25  1  0  0  0  0
 10 28  1  1  0  0  0
 11  3  1  0  0  0  0
 12 13  1  0  0  0  0
 13 21  2  0  0  0  0
 13 11  1  0  0  0  0
 14 22  2  0  0  0  0
 14 21  1  0  0  0  0
 15  9  1  0  0  0  0
 16 19  1  0  0  0  0
 16  1  1  0  0  0  0
 17 10  1  0  0  0  0
 17  8  1  1  0  0  0
 18 15  2  0  0  0  0
 18  6  1  0  0  0  0
 20  4  1  0  0  0  0
 21 20  1  0  0  0  0
 23  7  1  0  0  0  0
 23  2  1  0  0  0  0
 24  5  1  0  0  0  0
 26 14  1  0  0  0  0
 27 22  1  0  0  0  0
 28 29  1  0  0  0  0
 29 30  1  0  0  0  0
 30 32  1  0  0  0  0
 30 31  2  0  0  0  0
M  END
>  <MODEL>
8

>  <REMARK>
 VINA RESULT:      -7.5      2.154      4.537
  Name = 
  3 active torsions:
  status: ('A' for Active; 'I' for Inactive)
    1  A    between atoms: C_10  and  O_20
    2  A    between atoms: O_20  and  C_29
    3  A    between atoms: C_29  and  C_30
                            x       y       z     vdW  Elec       q    Type
                         _______ _______ _______ _____ _____    ______ ____

>  <TORSDO>
F 3

$$$$
=
 OpenBabel11112416343D

 32 37  0  0  1  0  0  0  0  0999 V2000
  192.3420  170.1540  142.7770 C   0  0  0  0  0  2  0  0  0  0  0  0
  189.7410  174.5210  143.6740 C   0  0  0  0  0  0  0  0  0  0  0  0
  191.7910  176.5730  147.6500 C   0  0  0  0  0  2  0  0  0  0  0  0
  190.4410  177.1640  148.0060 C   0  0  0  0  0  2  0  0  0  0  0  0
  187.8420  175.7010  142.5350 C   0  0  0  0  0  0  0  0  0  0  0  0
  186.9630  176.7770  142.5750 C   0  0  0  0  0  0  0  0  0  0  0  0
  191.0250  172.7840  142.5130 N   0  0  1  0  0  0  0  0  0  0  0  0
  191.6700  173.4170  144.7800 C   0  0  0  0  0  2  0  0  0  0  0  0
  186.0310  178.6100  143.3440 C   0  0  0  0  0  0  0  0  0  0  0  0
  192.6090  171.3180  143.7400 C   0  0  2  0  0  3  0  0  0  0  0  0
  191.5730  175.2690  146.8960 C   0  0  0  0  0  2  0  0  0  0  0  0
  190.6280  174.4600  144.7270 N   0  0  0  0  0  0  0  0  0  0  0  0
  190.6300  175.4120  145.7150 C   0  0  0  0  0  0  0  0  0  0  0  0
  188.7820  176.5550  144.6360 C   0  0  0  0  0  0  0  0  0  0  0  0
  185.3850  178.3010  142.1960 N   0  0  0  0  0  0  0  0  0  0  0  0
  191.0300  170.3080  142.0090 C   0  0  0  0  0  2  0  0  0  0  0  0
  191.3960  172.2550  143.8320 C   0  0  2  0  0  3  0  0  0  0  0  0
  185.9570  177.1660  141.7120 C   0  0  0  0  0  3  0  0  0  0  0  0
  190.8900  171.7400  141.4790 C   0  0  0  0  0  2  0  0  0  0  0  0
  189.7260  177.5700  146.7260 C   0  0  0  0  0  2  0  0  0  0  0  0
  189.6920  176.4650  145.6940 C   0  0  0  0  0  0  0  0  0  0  0  0
  187.8860  177.5910  144.6050 N   0  0  0  0  0  0  0  0  0  0  0  0
  189.7140  173.3970  142.6650 C   0  0  0  0  0  2  0  0  0  0  0  0
  187.7720  174.8090  141.4700 O   0  0  0  0  0  1  0  0  0  0  0  0
  185.7110  179.7890  144.1920 C   0  0  0  0  0  1  0  0  0  0  0  0
  188.7890  175.5710  143.5980 C   0  0  0  0  0  0  0  0  0  0  0  0
  187.0040  177.6770  143.5850 C   0  0  0  0  0  0  0  0  0  0  0  0
  193.7400  172.0210  143.3120 O   0  0  0  0  0  0  0  0  0  0  0  0
  194.8070  171.4440  144.0050 C   0  0  0  0  0  2  0  0  0  0  0  0
  195.5010  172.4820  144.8210 C   0  0  0  0  0  0  0  0  0  0  0  0
  195.1740  173.6540  144.7290 O   0  0  0  0  0  0  0  0  0  0  0  0
  196.5840  172.0840  145.7620 C   0  0  0  0  0  1  0  0  0  0  0  0
  1 10  1  0  0  0  0
  2 12  1  0  0  0  0
  3  4  1  0  0  0  0
  5  6  2  0  0  0  0
  5 26  1  0  0  0  0
  6 27  1  0  0  0  0
  7 19  1  6  0  0  0
  7 23  1  0  0  0  0
  7 17  1  0  0  0  0
  9 27  2  0  0  0  0
  9 25  1  0  0  0  0
 10 28  1  6  0  0  0
 10 17  1  0  0  0  0
 11  3  1  0  0  0  0
 12  8  1  0  0  0  0
 12 13  1  0  0  0  0
 13 11  1  0  0  0  0
 14 21  1  0  0  0  0
 15  9  1  0  0  0  0
 16  1  1  0  0  0  0
 17  8  1  1  0  0  0
 18 15  2  0  0  0  0
 18  6  1  0  0  0  0
 19 16  1  0  0  0  0
 20  4  1  0  0  0  0
 21 13  2  0  0  0  0
 21 20  1  0  0  0  0
 22 14  2  0  0  0  0
 23  2  1  0  0  0  0
 24  5  1  0  0  0  0
 26  2  2  0  0  0  0
 26 14  1  0  0  0  0
 27 22  1  0  0  0  0
 28 29  1  0  0  0  0
 29 30  1  0  0  0  0
 30 32  1  0  0  0  0
 31 30  2  0  0  0  0
M  END
>  <MODEL>
9

>  <REMARK>
 VINA RESULT:      -7.3      2.906      8.510
  Name = 
  3 active torsions:
  status: ('A' for Active; 'I' for Inactive)
    1  A    between atoms: C_10  and  O_20
    2  A    between atoms: O_20  and  C_29
    3  A    between atoms: C_29  and  C_30
                            x       y       z     vdW  Elec       q    Type
                         _______ _______ _______ _____ _____    ______ ____

>  <TORSDO>
F 3

$$$$
