=
 OpenBabel11112417413D

 28 32  0  0  1  0  0  0  0  0999 V2000
  188.7670  175.7570  145.5600 C   0  0  0  0  0  0  0  0  0  0  0  0
  188.7510  173.6640  142.9900 O   0  0  0  0  0  0  0  0  0  0  0  0
  194.9890  177.5910  145.4530 C   0  0  0  0  0  1  0  0  0  0  0  0
  187.6090  178.0500  144.4370 C   0  0  0  0  0  3  0  0  0  0  0  0
  194.1900  175.6850  144.1570 N   0  0  0  0  0  0  0  0  0  0  0  0
  189.3830  174.5760  146.2490 C   0  0  0  0  0  2  0  0  0  0  0  0
  188.8310  175.4160  141.2570 O   0  0  0  0  0  0  0  0  0  0  0  0
  189.6400  174.4280  142.0500 S   0  0  0  0  0  0  0  0  0  0  0  0
  191.8170  173.8660  140.5320 C   0  0  2  0  0  3  0  0  0  0  0  0
  190.8840  175.2480  142.9270 N   0  0  0  0  0  0  0  0  0  0  0  0
  190.7360  177.1930  147.8930 O   0  0  0  0  0  0  0  0  0  0  0  0
  192.0290  176.4340  144.4250 C   0  0  0  0  0  0  0  0  0  0  0  0
  192.7470  174.0590  141.7330 C   0  0  0  0  0  2  0  0  0  0  0  0
  190.4630  173.2920  140.9510 C   0  0  0  0  0  2  0  0  0  0  0  0
  190.9670  176.0280  147.4720 C   0  0  0  0  0  0  0  0  0  0  0  0
  189.4630  176.4870  144.5710 C   0  0  0  0  0  0  0  0  0  0  0  0
  194.1520  176.3250  145.4760 C   0  0  2  0  0  3  0  0  0  0  0  0
  192.4700  172.9290  139.5390 C   0  0  0  0  0  1  0  0  0  0  0  0
  192.1480  175.7490  146.7280 N   0  0  0  0  0  2  0  0  0  0  0  0
  188.8710  177.6260  144.0130 C   0  0  0  0  0  3  0  0  0  0  0  0
  187.5030  176.1900  145.9790 C   0  0  0  0  0  3  0  0  0  0  0  0
  186.9240  177.3310  145.4180 C   0  0  0  0  0  3  0  0  0  0  0  0
  189.9360  174.9640  147.6210 C   0  0  0  0  0  2  0  0  0  0  0  0
  192.9030  175.8400  143.5950 C   0  0  0  0  0  0  0  0  0  0  0  0
  192.6670  176.6920  145.7530 C   0  0  2  0  0  3  0  0  0  0  0  0
  192.2010  175.0850  142.6800 C   0  0  0  0  0  0  0  0  0  0  0  0
  195.0590  174.5550  143.8730 C   0  0  0  0  0  1  0  0  0  0  0  0
  190.7570  176.0440  144.0160 C   0  0  0  0  0  0  0  0  0  0  0  0
  1 21  1  0  0  0  0
  1  6  1  0  0  0  0
  4 22  1  0  0  0  0
  5 17  1  0  0  0  0
  6 23  1  0  0  0  0
  7  8  2  0  0  0  0
  8 10  1  0  0  0  0
  8  2  2  0  0  0  0
  9 18  1  6  0  0  0
  9 14  1  0  0  0  0
  9 13  1  0  0  0  0
 10 28  1  0  0  0  0
 13 26  1  0  0  0  0
 14  8  1  0  0  0  0
 15 23  1  0  0  0  0
 15 11  2  0  0  0  0
 16  1  2  0  0  0  0
 17  3  1  6  0  0  0
 17 25  1  0  0  0  0
 19 15  1  0  0  0  0
 20  4  2  0  0  0  0
 20 16  1  0  0  0  0
 22 21  2  0  0  0  0
 24  5  1  0  0  0  0
 24 12  1  0  0  0  0
 25 12  1  6  0  0  0
 25 19  1  0  0  0  0
 26 10  1  0  0  0  0
 26 24  2  0  0  0  0
 27  5  1  0  0  0  0
 28 12  2  0  0  0  0
 28 16  1  0  0  0  0
M  END
>  <MODEL>
1

>  <REMARK>
 VINA RESULT:      -7.9      0.000      0.000
  Name = 
  0 active torsions:
  status: ('A' for Active; 'I' for Inactive)
                            x       y       z     vdW  Elec       q    Type
                         _______ _______ _______ _____ _____    ______ ____

>  <TORSDO>
F 0

$$$$
=
 OpenBabel11112417413D

 28 32  0  0  1  0  0  0  0  0999 V2000
  190.4970  174.6220  144.4050 C   0  0  0  0  0  0  0  0  0  0  0  0
  188.7660  175.4680  147.1020 O   0  0  0  0  0  0  0  0  0  0  0  0
  187.1020  177.7920  139.8760 C   0  0  0  0  0  1  0  0  0  0  0  0
  192.7070  176.3370  144.5850 C   0  0  0  0  0  3  0  0  0  0  0  0
  186.2510  177.4910  142.1420 N   0  0  0  0  0  0  0  0  0  0  0  0
  189.3590  173.6600  144.2330 C   0  0  0  0  0  2  0  0  0  0  0  0
  189.6190  177.7770  147.2190 O   0  0  0  0  0  0  0  0  0  0  0  0
  188.4820  176.9040  146.7680 S   0  0  0  0  0  0  0  0  0  0  0  0
  186.2920  178.5040  146.7310 C   0  0  2  0  0  3  0  0  0  0  0  0
  188.2290  177.0900  145.0680 N   0  0  0  0  0  0  0  0  0  0  0  0
  190.3200  174.2630  141.0560 O   0  0  0  0  0  0  0  0  0  0  0  0
  188.3780  176.9620  142.8500 C   0  0  0  0  0  0  0  0  0  0  0  0
  185.9010  177.9960  145.3410 C   0  0  0  0  0  2  0  0  0  0  0  0
  186.9700  177.4150  147.5620 C   0  0  0  0  0  2  0  0  0  0  0  0
  189.3210  174.0360  141.7900 C   0  0  0  0  0  0  0  0  0  0  0  0
  190.3260  176.0140  144.2320 C   0  0  0  0  0  0  0  0  0  0  0  0
  186.8870  176.8080  141.0110 C   0  0  2  0  0  3  0  0  0  0  0  0
  185.0520  178.9830  147.4550 C   0  0  0  0  0  1  0  0  0  0  0  0
  188.1610  174.8560  141.7060 N   0  0  0  0  0  2  0  0  0  0  0  0
  191.4370  176.8600  144.3310 C   0  0  0  0  0  3  0  0  0  0  0  0
  191.7750  174.1080  144.6590 C   0  0  0  0  0  3  0  0  0  0  0  0
  192.8750  174.9620  144.7510 C   0  0  0  0  0  3  0  0  0  0  0  0
  189.4010  172.9980  142.8550 C   0  0  0  0  0  2  0  0  0  0  0  0
  187.2230  177.5750  143.1640 C   0  0  0  0  0  0  0  0  0  0  0  0
  188.2640  176.2930  141.5160 C   0  0  2  0  0  3  0  0  0  0  0  0
  187.1150  177.6360  144.5360 C   0  0  0  0  0  0  0  0  0  0  0  0
  184.8240  177.3930  142.3990 C   0  0  0  0  0  1  0  0  0  0  0  0
  189.0020  176.6380  144.0510 C   0  0  0  0  0  0  0  0  0  0  0  0
  1 21  1  0  0  0  0
  4 22  1  0  0  0  0
  5 27  1  0  0  0  0
  5 24  1  0  0  0  0
  6  1  1  0  0  0  0
  8  2  2  0  0  0  0
  8  7  2  0  0  0  0
  8 14  1  0  0  0  0
  9 18  1  1  0  0  0
  9 14  1  0  0  0  0
 10  8  1  0  0  0  0
 11 15  2  0  0  0  0
 12 24  1  0  0  0  0
 12 28  2  0  0  0  0
 13  9  1  0  0  0  0
 15 23  1  0  0  0  0
 16 20  1  0  0  0  0
 16  1  2  0  0  0  0
 17  3  1  6  0  0  0
 17 25  1  0  0  0  0
 17  5  1  0  0  0  0
 19 15  1  0  0  0  0
 20  4  2  0  0  0  0
 21 22  2  0  0  0  0
 23  6  1  0  0  0  0
 24 26  2  0  0  0  0
 25 19  1  1  0  0  0
 25 12  1  0  0  0  0
 26 10  1  0  0  0  0
 26 13  1  0  0  0  0
 28 16  1  0  0  0  0
 28 10  1  0  0  0  0
M  END
>  <MODEL>
2

>  <REMARK>
 VINA RESULT:      -7.7      2.713      6.699
  Name = 
  0 active torsions:
  status: ('A' for Active; 'I' for Inactive)
                            x       y       z     vdW  Elec       q    Type
                         _______ _______ _______ _____ _____    ______ ____

>  <TORSDO>
F 0

$$$$
=
 OpenBabel11112417413D

 28 32  0  0  1  0  0  0  0  0999 V2000
  189.0010  176.9950  144.6010 C   0  0  0  0  0  0  0  0  0  0  0  0
  192.3020  177.2910  144.6030 O   0  0  0  0  0  0  0  0  0  0  0  0
  188.3090  172.4010  140.0730 C   0  0  0  0  0  1  0  0  0  0  0  0
  188.5670  175.4330  146.8880 C   0  0  0  0  0  3  0  0  0  0  0  0
  190.4240  173.5690  140.4030 N   0  0  0  0  0  0  0  0  0  0  0  0
  189.1360  177.8410  143.3700 C   0  0  0  0  0  2  0  0  0  0  0  0
  192.7290  175.1860  145.8130 O   0  0  0  0  0  0  0  0  0  0  0  0
  192.6760  175.8430  144.4620 S   0  0  0  0  0  0  0  0  0  0  0  0
  194.3350  174.4010  142.8720 C   0  0  2  0  0  3  0  0  0  0  0  0
  191.5420  175.0230  143.4480 N   0  0  0  0  0  0  0  0  0  0  0  0
  186.3530  176.0410  142.7430 O   0  0  0  0  0  0  0  0  0  0  0  0
  189.6860  174.2840  142.4640 C   0  0  0  0  0  0  0  0  0  0  0  0
  193.2790  174.3430  141.7650 C   0  0  0  0  0  2  0  0  0  0  0  0
  194.2610  175.7110  143.6570 C   0  0  0  0  0  2  0  0  0  0  0  0
  187.3720  176.5550  142.2090 C   0  0  0  0  0  0  0  0  0  0  0  0
  189.4260  175.6470  144.6270 C   0  0  0  0  0  0  0  0  0  0  0  0
  188.9750  173.7510  140.2650 C   0  0  2  0  0  3  0  0  0  0  0  0
  195.7110  174.2650  142.2590 C   0  0  0  0  0  1  0  0  0  0  0  0
  188.1920  175.7910  141.3310 N   0  0  0  0  0  2  0  0  0  0  0  0
  189.2100  174.8810  145.7780 C   0  0  0  0  0  3  0  0  0  0  0  0
  188.3570  177.5390  145.7190 C   0  0  0  0  0  3  0  0  0  0  0  0
  188.1430  176.7620  146.8600 C   0  0  0  0  0  3  0  0  0  0  0  0
  187.8120  177.9200  142.6080 C   0  0  0  0  0  2  0  0  0  0  0  0
  190.7430  173.8640  141.7470 C   0  0  0  0  0  0  0  0  0  0  0  0
  188.4760  174.3900  141.5900 C   0  0  2  0  0  3  0  0  0  0  0  0
  191.8940  174.3390  142.3390 C   0  0  0  0  0  0  0  0  0  0  0  0
  191.3380  173.7910  139.2950 C   0  0  0  0  0  1  0  0  0  0  0  0
  190.1890  175.0310  143.5250 C   0  0  0  0  0  0  0  0  0  0  0  0
  1 16  2  0  0  0  0
  1 21  1  0  0  0  0
  5 24  1  0  0  0  0
  6  1  1  0  0  0  0
  8  2  2  0  0  0  0
  8  7  2  0  0  0  0
  9 18  1  6  0  0  0
  9 14  1  0  0  0  0
 10 28  1  0  0  0  0
 10  8  1  0  0  0  0
 12 28  2  0  0  0  0
 13 26  1  0  0  0  0
 13  9  1  0  0  0  0
 14  8  1  0  0  0  0
 15 23  1  0  0  0  0
 15 11  2  0  0  0  0
 16 20  1  0  0  0  0
 17  3  1  1  0  0  0
 17  5  1  0  0  0  0
 17 25  1  0  0  0  0
 19 15  1  0  0  0  0
 20  4  2  0  0  0  0
 21 22  2  0  0  0  0
 22  4  1  0  0  0  0
 23  6  1  0  0  0  0
 24 26  2  0  0  0  0
 24 12  1  0  0  0  0
 25 19  1  6  0  0  0
 25 12  1  0  0  0  0
 26 10  1  0  0  0  0
 27  5  1  0  0  0  0
 28 16  1  0  0  0  0
M  END
>  <MODEL>
3

>  <REMARK>
 VINA RESULT:      -7.5      2.100      4.870
  Name = 
  0 active torsions:
  status: ('A' for Active; 'I' for Inactive)
                            x       y       z     vdW  Elec       q    Type
                         _______ _______ _______ _____ _____    ______ ____

>  <TORSDO>
F 0

$$$$
=
 OpenBabel11112417413D

 28 32  0  0  1  0  0  0  0  0999 V2000
  189.2120  176.7470  144.4850 C   0  0  0  0  0  0  0  0  0  0  0  0
  192.2960  177.4050  145.5070 O   0  0  0  0  0  0  0  0  0  0  0  0
  190.1090  170.8170  142.0130 C   0  0  0  0  0  1  0  0  0  0  0  0
  187.9530  176.0410  146.8880 C   0  0  0  0  0  3  0  0  0  0  0  0
  191.9850  172.2630  142.5940 N   0  0  0  0  0  0  0  0  0  0  0  0
  189.7970  177.1210  143.1560 C   0  0  0  0  0  2  0  0  0  0  0  0
  192.2180  175.9170  147.4710 O   0  0  0  0  0  0  0  0  0  0  0  0
  192.6670  176.0510  146.0430 S   0  0  0  0  0  0  0  0  0  0  0  0
  194.7590  174.3470  145.7630 C   0  0  2  0  0  3  0  0  0  0  0  0
  191.9590  174.8040  145.0780 N   0  0  0  0  0  0  0  0  0  0  0  0
  187.3930  174.9070  142.3210 O   0  0  0  0  0  0  0  0  0  0  0  0
  190.5680  173.5600  143.8630 C   0  0  0  0  0  0  0  0  0  0  0  0
  194.1720  173.7860  144.4650 C   0  0  0  0  0  2  0  0  0  0  0  0
  194.4320  175.8310  145.9370 C   0  0  0  0  0  2  0  0  0  0  0  0
  188.5450  175.3170  142.0200 C   0  0  0  0  0  0  0  0  0  0  0  0
  189.5730  175.5520  145.1470 C   0  0  0  0  0  0  0  0  0  0  0  0
  190.6880  172.2160  141.9120 C   0  0  2  0  0  3  0  0  0  0  0  0
  196.2610  174.1660  145.7530 C   0  0  0  0  0  1  0  0  0  0  0  0
  189.6110  174.3950  141.8200 N   0  0  0  0  0  2  0  0  0  0  0  0
  188.9420  175.2150  146.3490 C   0  0  0  0  0  3  0  0  0  0  0  0
  188.2180  177.5690  145.0330 C   0  0  0  0  0  3  0  0  0  0  0  0
  187.5930  177.2180  146.2320 C   0  0  0  0  0  3  0  0  0  0  0  0
  188.8380  176.7770  142.0150 C   0  0  0  0  0  2  0  0  0  0  0  0
  191.8040  173.0420  143.7580 C   0  0  0  0  0  0  0  0  0  0  0  0
  189.7560  173.2150  142.6550 C   0  0  2  0  0  3  0  0  0  0  0  0
  192.6740  173.8220  144.4900 C   0  0  0  0  0  0  0  0  0  0  0  0
  193.2410  172.1880  141.8660 C   0  0  0  0  0  1  0  0  0  0  0  0
  190.6700  174.6830  144.6790 C   0  0  0  0  0  0  0  0  0  0  0  0
  1 21  2  0  0  0  0
  1 16  1  0  0  0  0
  2  8  2  0  0  0  0
  5 24  1  0  0  0  0
  6  1  1  0  0  0  0
  8  7  2  0  0  0  0
  9 18  1  6  0  0  0
  9 14  1  0  0  0  0
 10  8  1  0  0  0  0
 12 28  2  0  0  0  0
 13 26  1  0  0  0  0
 13  9  1  0  0  0  0
 14  8  1  0  0  0  0
 15 11  2  0  0  0  0
 16 20  2  0  0  0  0
 17  3  1  1  0  0  0
 17  5  1  0  0  0  0
 17 25  1  0  0  0  0
 19 15  1  0  0  0  0
 20  4  1  0  0  0  0
 21 22  1  0  0  0  0
 22  4  2  0  0  0  0
 23 15  1  0  0  0  0
 23  6  1  0  0  0  0
 24 12  1  0  0  0  0
 24 26  2  0  0  0  0
 25 19  1  6  0  0  0
 25 12  1  0  0  0  0
 26 10  1  0  0  0  0
 27  5  1  0  0  0  0
 28 10  1  0  0  0  0
 28 16  1  0  0  0  0
M  END
>  <MODEL>
4

>  <REMARK>
 VINA RESULT:      -7.4      2.135      4.907
  Name = 
  0 active torsions:
  status: ('A' for Active; 'I' for Inactive)
                            x       y       z     vdW  Elec       q    Type
                         _______ _______ _______ _____ _____    ______ ____

>  <TORSDO>
F 0

$$$$
=
 OpenBabel11112417413D

 28 32  0  0  1  0  0  0  0  0999 V2000
  187.3250  177.9570  144.2150 C   0  0  0  0  0  0  0  0  0  0  0  0
  190.2230  177.9550  145.8250 O   0  0  0  0  0  0  0  0  0  0  0  0
  188.1900  172.7990  140.3780 C   0  0  0  0  0  1  0  0  0  0  0  0
  185.6140  176.8130  146.1180 C   0  0  0  0  0  3  0  0  0  0  0  0
  190.0400  173.8110  141.6040 N   0  0  0  0  0  0  0  0  0  0  0  0
  188.1610  178.5870  143.1410 C   0  0  0  0  0  2  0  0  0  0  0  0
  189.6890  176.0320  147.2730 O   0  0  0  0  0  0  0  0  0  0  0  0
  190.3910  176.4750  146.0200 S   0  0  0  0  0  0  0  0  0  0  0  0
  192.3640  174.6620  145.5980 C   0  0  2  0  0  3  0  0  0  0  0  0
  189.7710  175.6120  144.6560 N   0  0  0  0  0  0  0  0  0  0  0  0
  185.7800  176.9670  141.3850 O   0  0  0  0  0  0  0  0  0  0  0  0
  188.5240  174.8980  142.9540 C   0  0  0  0  0  0  0  0  0  0  0  0
  191.9740  174.5280  144.1240 C   0  0  0  0  0  2  0  0  0  0  0  0
  192.1250  176.0790  146.1210 C   0  0  0  0  0  2  0  0  0  0  0  0
  186.9960  177.2990  141.3820 C   0  0  0  0  0  0  0  0  0  0  0  0
  187.4730  176.5970  144.5710 C   0  0  0  0  0  0  0  0  0  0  0  0
  188.8820  174.0970  140.7510 C   0  0  2  0  0  3  0  0  0  0  0  0
  193.8270  174.3100  145.7630 C   0  0  0  0  0  1  0  0  0  0  0  0
  188.0070  176.3390  141.0990 N   0  0  0  0  0  2  0  0  0  0  0  0
  186.6170  176.0410  145.5270 C   0  0  0  0  0  3  0  0  0  0  0  0
  186.3160  178.7230  144.8120 C   0  0  0  0  0  3  0  0  0  0  0  0
  185.4660  178.1540  145.7630 C   0  0  0  0  0  3  0  0  0  0  0  0
  187.3950  178.6660  141.8200 C   0  0  0  0  0  2  0  0  0  0  0  0
  189.7160  174.2800  142.8970 C   0  0  0  0  0  0  0  0  0  0  0  0
  187.9130  174.9750  141.5910 C   0  0  2  0  0  3  0  0  0  0  0  0
  190.5010  174.7360  143.9350 C   0  0  0  0  0  0  0  0  0  0  0  0
  191.3950  173.7750  141.0790 C   0  0  0  0  0  1  0  0  0  0  0  0
  188.5660  175.7530  144.0520 C   0  0  0  0  0  0  0  0  0  0  0  0
  1 16  2  0  0  0  0
  1 21  1  0  0  0  0
  2  8  2  0  0  0  0
  5 24  1  0  0  0  0
  6  1  1  0  0  0  0
  8 14  1  0  0  0  0
  8  7  2  0  0  0  0
  9 18  1  6  0  0  0
  9 14  1  0  0  0  0
 10  8  1  0  0  0  0
 12 28  2  0  0  0  0
 13  9  1  0  0  0  0
 15 11  2  0  0  0  0
 15 23  1  0  0  0  0
 16 20  1  0  0  0  0
 17  3  1  1  0  0  0
 17 25  1  0  0  0  0
 17  5  1  0  0  0  0
 19 15  1  0  0  0  0
 20  4  2  0  0  0  0
 21 22  2  0  0  0  0
 22  4  1  0  0  0  0
 23  6  1  0  0  0  0
 24 12  1  0  0  0  0
 24 26  2  0  0  0  0
 25 19  1  6  0  0  0
 25 12  1  0  0  0  0
 26 13  1  0  0  0  0
 26 10  1  0  0  0  0
 27  5  1  0  0  0  0
 28 16  1  0  0  0  0
 28 10  1  0  0  0  0
M  END
>  <MODEL>
5

>  <REMARK>
 VINA RESULT:      -7.4      2.374      5.277
  Name = 
  0 active torsions:
  status: ('A' for Active; 'I' for Inactive)
                            x       y       z     vdW  Elec       q    Type
                         _______ _______ _______ _____ _____    ______ ____

>  <TORSDO>
F 0

$$$$
=
 OpenBabel11112417413D

 28 32  0  0  1  0  0  0  0  0999 V2000
  190.1050  176.6010  143.1010 C   0  0  0  0  0  0  0  0  0  0  0  0
  188.2170  177.9180  140.7170 O   0  0  0  0  0  0  0  0  0  0  0  0
  185.7860  176.3830  147.9360 C   0  0  0  0  0  1  0  0  0  0  0  0
  190.1130  173.8890  142.3900 C   0  0  0  0  0  3  0  0  0  0  0  0
  185.3650  177.6510  145.8950 N   0  0  0  0  0  0  0  0  0  0  0  0
  190.1680  178.0300  143.5510 C   0  0  0  0  0  2  0  0  0  0  0  0
  186.9250  175.8660  140.2760 O   0  0  0  0  0  0  0  0  0  0  0  0
  186.9340  177.1870  140.9920 S   0  0  0  0  0  0  0  0  0  0  0  0
  184.3290  177.8700  141.3170 C   0  0  2  0  0  3  0  0  0  0  0  0
  186.7310  176.9430  142.6910 N   0  0  0  0  0  0  0  0  0  0  0  0
  190.4720  176.3190  146.4420 O   0  0  0  0  0  0  0  0  0  0  0  0
  187.0520  176.4850  144.8470 C   0  0  0  0  0  0  0  0  0  0  0  0
  184.5680  178.2170  142.7890 C   0  0  0  0  0  2  0  0  0  0  0  0
  185.5550  178.1800  140.4570 C   0  0  0  0  0  2  0  0  0  0  0  0
  189.9920  177.3630  145.9250 C   0  0  0  0  0  0  0  0  0  0  0  0
  188.9180  175.8410  143.2010 C   0  0  0  0  0  0  0  0  0  0  0  0
  186.3600  177.3690  146.9360 C   0  0  2  0  0  3  0  0  0  0  0  0
  183.1460  178.6610  140.8020 C   0  0  0  0  0  1  0  0  0  0  0  0
  188.6370  177.7280  146.1620 N   0  0  0  0  0  2  0  0  0  0  0  0
  188.9340  174.4900  142.8360 C   0  0  0  0  0  3  0  0  0  0  0  0
  191.2830  175.9890  142.6540 C   0  0  0  0  0  3  0  0  0  0  0  0
  191.2860  174.6380  142.2970 C   0  0  0  0  0  3  0  0  0  0  0  0
  190.7930  178.1430  144.9420 C   0  0  0  0  0  2  0  0  0  0  0  0
  185.8400  177.0500  144.7080 C   0  0  0  0  0  0  0  0  0  0  0  0
  187.5840  176.7300  146.2240 C   0  0  2  0  0  3  0  0  0  0  0  0
  185.6450  177.3570  143.3790 C   0  0  0  0  0  0  0  0  0  0  0  0
  184.5470  178.8520  145.9150 C   0  0  0  0  0  1  0  0  0  0  0  0
  187.6210  176.4360  143.5780 C   0  0  0  0  0  0  0  0  0  0  0  0
  1 16  1  0  0  0  0
  1  6  1  0  0  0  0
  2  8  2  0  0  0  0
  4 20  1  0  0  0  0
  5 27  1  0  0  0  0
  5 17  1  0  0  0  0
  6 23  1  0  0  0  0
  7  8  2  0  0  0  0
  8 10  1  0  0  0  0
  9 18  1  6  0  0  0
  9 13  1  0  0  0  0
 10 26  1  0  0  0  0
 10 28  1  0  0  0  0
 13 26  1  0  0  0  0
 14  8  1  0  0  0  0
 14  9  1  0  0  0  0
 15 19  1  0  0  0  0
 15 11  2  0  0  0  0
 16 28  1  0  0  0  0
 17  3  1  1  0  0  0
 19 25  1  0  0  0  0
 20 16  2  0  0  0  0
 21  1  2  0  0  0  0
 22  4  2  0  0  0  0
 22 21  1  0  0  0  0
 23 15  1  0  0  0  0
 24 12  1  0  0  0  0
 24  5  1  0  0  0  0
 25 12  1  6  0  0  0
 25 17  1  0  0  0  0
 26 24  2  0  0  0  0
 28 12  2  0  0  0  0
M  END
>  <MODEL>
6

>  <REMARK>
 VINA RESULT:      -7.3      3.014      6.276
  Name = 
  0 active torsions:
  status: ('A' for Active; 'I' for Inactive)
                            x       y       z     vdW  Elec       q    Type
                         _______ _______ _______ _____ _____    ______ ____

>  <TORSDO>
F 0

$$$$
=
 OpenBabel11112417413D

 28 32  0  0  1  0  0  0  0  0999 V2000
  190.9560  173.6720  142.6150 C   0  0  0  0  0  0  0  0  0  0  0  0
  192.0340  173.8420  145.7450 O   0  0  0  0  0  0  0  0  0  0  0  0
  186.8150  178.6660  142.6000 C   0  0  0  0  0  1  0  0  0  0  0  0
  193.0790  174.8510  141.2150 C   0  0  0  0  0  3  0  0  0  0  0  0
  187.7410  177.7720  144.6720 N   0  0  0  0  0  0  0  0  0  0  0  0
  189.7800  173.0180  143.2760 C   0  0  0  0  0  2  0  0  0  0  0  0
  193.4710  175.8130  145.3940 O   0  0  0  0  0  0  0  0  0  0  0  0
  192.1340  175.3340  145.8860 S   0  0  0  0  0  0  0  0  0  0  0  0
  191.3000  177.1860  147.6840 C   0  0  2  0  0  3  0  0  0  0  0  0
  190.8660  176.1110  145.0060 N   0  0  0  0  0  0  0  0  0  0  0  0
  188.4000  174.4770  140.5660 O   0  0  0  0  0  0  0  0  0  0  0  0
  189.3790  176.7030  143.4570 C   0  0  0  0  0  0  0  0  0  0  0  0
  189.9130  177.2370  147.0400 C   0  0  0  0  0  2  0  0  0  0  0  0
  191.9150  175.7880  147.5950 C   0  0  0  0  0  2  0  0  0  0  0  0
  188.1990  174.1830  141.7740 C   0  0  0  0  0  0  0  0  0  0  0  0
  191.2230  175.0510  142.7690 C   0  0  0  0  0  0  0  0  0  0  0  0
  187.1160  177.4090  143.3960 C   0  0  2  0  0  3  0  0  0  0  0  0
  191.1920  177.5910  149.1380 C   0  0  0  0  0  1  0  0  0  0  0  0
  187.7040  175.1600  142.6830 N   0  0  0  0  0  2  0  0  0  0  0  0
  192.2910  175.6260  142.0700 C   0  0  0  0  0  3  0  0  0  0  0  0
  191.7520  172.9040  141.7550 C   0  0  0  0  0  3  0  0  0  0  0  0
  192.8120  173.4910  141.0600 C   0  0  0  0  0  3  0  0  0  0  0  0
  188.6170  172.8520  142.2960 C   0  0  0  0  0  2  0  0  0  0  0  0
  189.0890  177.3550  144.5960 C   0  0  0  0  0  0  0  0  0  0  0  0
  188.1480  176.5420  142.6230 C   0  0  2  0  0  3  0  0  0  0  0  0
  189.9920  176.9740  145.5650 C   0  0  0  0  0  0  0  0  0  0  0  0
  186.9860  177.8250  145.9130 C   0  0  0  0  0  1  0  0  0  0  0  0
  190.4870  175.9040  143.7210 C   0  0  0  0  0  0  0  0  0  0  0  0
  1 16  1  0  0  0  0
  1  6  1  0  0  0  0
  2  8  2  0  0  0  0
  4 20  1  0  0  0  0
  5 27  1  0  0  0  0
  7  8  2  0  0  0  0
  8 14  1  0  0  0  0
  9 18  1  1  0  0  0
 10 26  1  0  0  0  0
 10  8  1  0  0  0  0
 11 15  2  0  0  0  0
 12 28  2  0  0  0  0
 12 24  1  0  0  0  0
 13  9  1  0  0  0  0
 14  9  1  0  0  0  0
 15 23  1  0  0  0  0
 15 19  1  0  0  0  0
 16 28  1  0  0  0  0
 17  3  1  6  0  0  0
 17  5  1  0  0  0  0
 20 16  2  0  0  0  0
 21  1  2  0  0  0  0
 22  4  2  0  0  0  0
 22 21  1  0  0  0  0
 23  6  1  0  0  0  0
 24  5  1  0  0  0  0
 24 26  2  0  0  0  0
 25 19  1  1  0  0  0
 25 17  1  0  0  0  0
 25 12  1  0  0  0  0
 26 13  1  0  0  0  0
 28 10  1  0  0  0  0
M  END
>  <MODEL>
7

>  <REMARK>
 VINA RESULT:      -7.0      2.284      6.253
  Name = 
  0 active torsions:
  status: ('A' for Active; 'I' for Inactive)
                            x       y       z     vdW  Elec       q    Type
                         _______ _______ _______ _____ _____    ______ ____

>  <TORSDO>
F 0

$$$$
=
 OpenBabel11112417413D

 28 32  0  0  1  0  0  0  0  0999 V2000
  191.7570  175.5390  143.7580 C   0  0  0  0  0  0  0  0  0  0  0  0
  192.1780  174.1620  140.7720 O   0  0  0  0  0  0  0  0  0  0  0  0
  185.5390  177.3260  143.2830 C   0  0  0  0  0  1  0  0  0  0  0  0
  191.4470  173.2810  145.3900 C   0  0  0  0  0  3  0  0  0  0  0  0
  186.8250  176.6220  141.3330 N   0  0  0  0  0  0  0  0  0  0  0  0
  191.9240  176.8020  142.9670 C   0  0  0  0  0  2  0  0  0  0  0  0
  190.9210  172.1030  141.2810 O   0  0  0  0  0  0  0  0  0  0  0  0
  190.8560  173.4610  140.6400 S   0  0  0  0  0  0  0  0  0  0  0  0
  188.9140  173.2960  138.7530 C   0  0  2  0  0  3  0  0  0  0  0  0
  189.5990  174.4010  141.3660 N   0  0  0  0  0  0  0  0  0  0  0  0
  189.9100  177.7620  145.4970 O   0  0  0  0  0  0  0  0  0  0  0  0
  188.3940  175.6810  142.7320 C   0  0  0  0  0  0  0  0  0  0  0  0
  188.2880  174.6080  139.2330 C   0  0  0  0  0  2  0  0  0  0  0  0
  190.4340  173.3020  138.9160 C   0  0  0  0  0  2  0  0  0  0  0  0
  190.1580  177.9370  144.2740 C   0  0  0  0  0  0  0  0  0  0  0  0
  190.6050  174.7310  143.6330 C   0  0  0  0  0  0  0  0  0  0  0  0
  186.8490  177.4700  142.5300 C   0  0  2  0  0  3  0  0  0  0  0  0
  188.5700  173.0820  137.2950 C   0  0  0  0  0  1  0  0  0  0  0  0
  189.1100  177.9030  143.3120 N   0  0  0  0  0  2  0  0  0  0  0  0
  190.4660  173.6020  144.4480 C   0  0  0  0  0  3  0  0  0  0  0  0
  192.7350  175.2100  144.7050 C   0  0  0  0  0  3  0  0  0  0  0  0
  192.5820  174.0830  145.5160 C   0  0  0  0  0  3  0  0  0  0  0  0
  191.5690  178.0300  143.8070 C   0  0  0  0  0  2  0  0  0  0  0  0
  187.7360  175.5680  141.5660 C   0  0  0  0  0  0  0  0  0  0  0  0
  188.0150  176.9550  143.4190 C   0  0  2  0  0  3  0  0  0  0  0  0
  188.4890  174.7950  140.7080 C   0  0  0  0  0  0  0  0  0  0  0  0
  186.5380  177.1590  140.0140 C   0  0  0  0  0  1  0  0  0  0  0  0
  189.5780  174.9620  142.5990 C   0  0  0  0  0  0  0  0  0  0  0  0
  1 21  1  0  0  0  0
  4 22  1  0  0  0  0
  5 24  1  0  0  0  0
  5 17  1  0  0  0  0
  6  1  1  0  0  0  0
  6 23  1  0  0  0  0
  8  2  2  0  0  0  0
  8  7  2  0  0  0  0
  8 10  1  0  0  0  0
  9 18  1  6  0  0  0
  9 14  1  0  0  0  0
  9 13  1  0  0  0  0
 10 28  1  0  0  0  0
 13 26  1  0  0  0  0
 14  8  1  0  0  0  0
 15 11  2  0  0  0  0
 16  1  2  0  0  0  0
 16 20  1  0  0  0  0
 17  3  1  1  0  0  0
 17 25  1  0  0  0  0
 19 25  1  0  0  0  0
 19 15  1  0  0  0  0
 20  4  2  0  0  0  0
 21 22  2  0  0  0  0
 23 15  1  0  0  0  0
 24 12  1  0  0  0  0
 25 12  1  6  0  0  0
 26 10  1  0  0  0  0
 26 24  2  0  0  0  0
 27  5  1  0  0  0  0
 28 12  2  0  0  0  0
 28 16  1  0  0  0  0
M  END
>  <MODEL>
8

>  <REMARK>
 VINA RESULT:      -7.0      2.674      5.206
  Name = 
  0 active torsions:
  status: ('A' for Active; 'I' for Inactive)
                            x       y       z     vdW  Elec       q    Type
                         _______ _______ _______ _____ _____    ______ ____

>  <TORSDO>
F 0

$$$$
=
 OpenBabel11112417413D

 28 32  0  0  1  0  0  0  0  0999 V2000
  191.2120  175.6930  145.4600 C   0  0  0  0  0  0  0  0  0  0  0  0
  189.5990  173.2460  143.9130 O   0  0  0  0  0  0  0  0  0  0  0  0
  196.0660  176.6430  141.2630 C   0  0  0  0  0  1  0  0  0  0  0  0
  189.6290  177.9160  144.8190 C   0  0  0  0  0  3  0  0  0  0  0  0
  194.6220  174.6820  141.1320 N   0  0  0  0  0  0  0  0  0  0  0  0
  192.1110  174.5630  145.8640 C   0  0  0  0  0  2  0  0  0  0  0  0
  188.6120  174.6790  142.1670 O   0  0  0  0  0  0  0  0  0  0  0  0
  189.7280  173.7280  142.4960 S   0  0  0  0  0  0  0  0  0  0  0  0
  190.5050  172.6520  140.1300 C   0  0  2  0  0  3  0  0  0  0  0  0
  191.2560  174.5020  142.2580 N   0  0  0  0  0  0  0  0  0  0  0  0
  194.2130  177.2000  145.7850 O   0  0  0  0  0  0  0  0  0  0  0  0
  193.0900  175.7440  142.4850 C   0  0  0  0  0  0  0  0  0  0  0  0
  191.9780  172.9040  140.4590 C   0  0  0  0  0  2  0  0  0  0  0  0
  189.6900  172.3360  141.3850 C   0  0  0  0  0  2  0  0  0  0  0  0
  194.1260  175.9640  145.5600 C   0  0  0  0  0  0  0  0  0  0  0  0
  191.1590  176.1610  144.1280 C   0  0  0  0  0  0  0  0  0  0  0  0
  195.4100  175.5190  142.0430 C   0  0  2  0  0  3  0  0  0  0  0  0
  190.3990  171.4930  139.1620 C   0  0  0  0  0  1  0  0  0  0  0  0
  194.5960  175.4180  144.3320 N   0  0  0  0  0  2  0  0  0  0  0  0
  190.3590  177.2670  143.8200 C   0  0  0  0  0  3  0  0  0  0  0  0
  190.4780  176.3510  146.4550 C   0  0  0  0  0  3  0  0  0  0  0  0
  189.6860  177.4560  146.1350 C   0  0  0  0  0  3  0  0  0  0  0  0
  193.3950  175.0830  146.5130 C   0  0  0  0  0  2  0  0  0  0  0  0
  193.2640  174.9170  141.4390 C   0  0  0  0  0  0  0  0  0  0  0  0
  194.4130  176.1200  143.0740 C   0  0  2  0  0  3  0  0  0  0  0  0
  192.1400  174.1290  141.3090 C   0  0  0  0  0  0  0  0  0  0  0  0
  195.1220  173.4160  140.6220 C   0  0  0  0  0  1  0  0  0  0  0  0
  191.8330  175.4690  143.0130 C   0  0  0  0  0  0  0  0  0  0  0  0
  1  6  1  0  0  0  0
  1 21  1  0  0  0  0
  4 22  1  0  0  0  0
  5 24  1  0  0  0  0
  5 17  1  0  0  0  0
  6 23  1  0  0  0  0
  7  8  2  0  0  0  0
  8  2  2  0  0  0  0
  9 18  1  6  0  0  0
  9 13  1  0  0  0  0
  9 14  1  0  0  0  0
 10  8  1  0  0  0  0
 10 28  1  0  0  0  0
 12 28  2  0  0  0  0
 13 26  1  0  0  0  0
 14  8  1  0  0  0  0
 15 11  2  0  0  0  0
 15 23  1  0  0  0  0
 16  1  2  0  0  0  0
 17  3  1  6  0  0  0
 17 25  1  0  0  0  0
 19 15  1  0  0  0  0
 20 16  1  0  0  0  0
 20  4  2  0  0  0  0
 22 21  2  0  0  0  0
 24 12  1  0  0  0  0
 25 12  1  6  0  0  0
 25 19  1  0  0  0  0
 26 24  2  0  0  0  0
 26 10  1  0  0  0  0
 27  5  1  0  0  0  0
 28 16  1  0  0  0  0
M  END
>  <MODEL>
9

>  <REMARK>
 VINA RESULT:      -6.9      1.799      2.664
  Name = 
  0 active torsions:
  status: ('A' for Active; 'I' for Inactive)
                            x       y       z     vdW  Elec       q    Type
                         _______ _______ _______ _____ _____    ______ ____

>  <TORSDO>
F 0

$$$$
