=
 OpenBabel11112416213D

 30 35  0  0  1  0  0  0  0  0999 V2000
  186.5200  177.2780  143.8480 C   0  0  0  0  0  0  0  0  0  0  0  0
  184.7070  178.2750  145.2680 C   0  0  0  0  0  0  0  0  0  0  0  0
  188.5690  175.9690  147.1680 N   0  0  0  0  0  2  0  0  0  0  0  0
  187.7580  176.5870  143.7600 C   0  0  0  0  0  0  0  0  0  0  0  0
  185.8890  177.6640  142.6560 O   0  0  0  0  0  0  0  0  0  0  0  0
  188.4580  178.3990  141.2470 C   0  0  0  0  0  1  0  0  0  0  0  0
  190.5480  175.4440  142.7960 C   0  0  1  0  0  3  0  0  0  0  0  0
  187.7960  177.0260  141.2930 C   0  0  2  0  0  3  0  0  0  0  0  0
  190.7080  175.2490  144.2760 C   0  0  2  0  0  3  0  0  0  0  0  0
  189.6310  175.4530  146.5130 C   0  0  0  0  0  0  0  0  0  0  0  0
  186.2730  177.1300  141.3890 C   0  0  2  0  0  3  0  0  0  0  0  0
  188.2850  176.2880  142.4550 N   0  0  0  0  0  0  0  0  0  0  0  0
  184.1870  178.5050  146.5450 C   0  0  0  0  0  3  0  0  0  0  0  0
  191.1670  173.8160  144.3890 C   0  0  0  0  0  2  0  0  0  0  0  0
  191.5480  174.4540  142.2400 C   0  0  0  0  0  2  0  0  0  0  0  0
  183.7580  178.9170  143.9320 Cl  0  0  0  0  0  0  0  0  0  0  0  0
  187.7990  176.4280  146.1650 C   0  0  0  0  0  0  0  0  0  0  0  0
  184.8500  178.0520  147.6840 C   0  0  0  0  0  3  0  0  0  0  0  0
  185.9320  177.5670  145.1170 C   0  0  0  0  0  0  0  0  0  0  0  0
  188.3840  176.1840  144.9510 C   0  0  0  0  0  0  0  0  0  0  0  0
  190.6150  174.9530  147.1240 O   0  0  0  0  0  0  0  0  0  0  0  0
  189.5640  175.5470  145.1600 N   0  0  0  0  0  0  0  0  0  0  0  0
  191.8280  173.4580  143.1990 O   0  0  0  0  0  0  0  0  0  0  0  0
  188.5280  173.8410  142.6410 C   0  0  0  0  0  1  0  0  0  0  0  0
  186.0490  177.3590  147.5590 C   0  0  0  0  0  3  0  0  0  0  0  0
  186.5930  177.1130  146.2940 C   0  0  0  0  0  0  0  0  0  0  0  0
  189.1670  175.1610  142.2130 C   0  0  2  0  0  3  0  0  0  0  0  0
  185.6710  177.9410  140.2510 C   0  0  0  0  0  2  0  0  0  0  0  0
  183.2000  177.8480  140.2560 C   0  0  0  0  0  1  0  0  0  0  0  0
  184.4080  178.6370  140.7170 C   0  0  0  0  0  2  0  0  0  0  0  0
  1 19  1  0  0  0  0
  2 13  1  0  0  0  0
  4  1  2  0  0  0  0
  4 20  1  0  0  0  0
  5  1  1  0  0  0  0
  7 15  1  6  0  0  0
  7  9  1  0  0  0  0
  8  6  1  1  0  0  0
  8 11  1  0  0  0  0
  8 12  1  0  0  0  0
  9 14  1  6  0  0  0
  9 22  1  0  0  0  0
 10 21  2  0  0  0  0
 10  3  1  0  0  0  0
 11 28  1  6  0  0  0
 11  5  1  0  0  0  0
 12  4  1  0  0  0  0
 13 18  2  0  0  0  0
 15 23  1  0  0  0  0
 16  2  1  0  0  0  0
 17 26  1  0  0  0  0
 17  3  1  0  0  0  0
 19  2  2  0  0  0  0
 19 26  1  0  0  0  0
 20 22  1  0  0  0  0
 20 17  2  0  0  0  0
 22 10  1  0  0  0  0
 23 14  1  0  0  0  0
 25 18  1  0  0  0  0
 26 25  2  0  0  0  0
 27 12  1  0  0  0  0
 27 24  1  1  0  0  0
 27  7  1  0  0  0  0
 28 30  1  0  0  0  0
 29 30  1  0  0  0  0
M  END
>  <MODEL>
1

>  <REMARK>
 VINA RESULT:      -8.5      0.000      0.000
  Name = 
  2 active torsions:
  status: ('A' for Active; 'I' for Inactive)
    1  A    between atoms: C_11  and  C_28
    2  A    between atoms: C_28  and  C_30
                            x       y       z     vdW  Elec       q    Type
                         _______ _______ _______ _____ _____    ______ ____

>  <TORSDO>
F 2

$$$$
=
 OpenBabel11112416213D

 30 35  0  0  1  0  0  0  0  0999 V2000
  189.8590  175.2400  143.9830 C   0  0  0  0  0  0  0  0  0  0  0  0
  191.8140  174.6030  145.4230 C   0  0  0  0  0  0  0  0  0  0  0  0
  188.1940  177.4660  147.0180 N   0  0  0  0  0  2  0  0  0  0  0  0
  188.6210  175.9230  143.8410 C   0  0  0  0  0  0  0  0  0  0  0  0
  190.3530  174.5260  142.8820 O   0  0  0  0  0  0  0  0  0  0  0  0
  187.6420  173.5260  142.0040 C   0  0  0  0  0  1  0  0  0  0  0  0
  185.7470  176.8570  142.9020 C   0  0  1  0  0  3  0  0  0  0  0  0
  188.3100  174.8360  141.6050 C   0  0  2  0  0  3  0  0  0  0  0  0
  185.7520  177.4500  144.2810 C   0  0  2  0  0  3  0  0  0  0  0  0
  187.0680  177.8220  146.3630 C   0  0  0  0  0  0  0  0  0  0  0  0
  189.8340  174.7110  141.5650 C   0  0  2  0  0  3  0  0  0  0  0  0
  187.9550  175.8770  142.5670 N   0  0  0  0  0  0  0  0  0  0  0  0
  192.4700  174.7090  146.6520 C   0  0  0  0  0  3  0  0  0  0  0  0
  185.3130  178.8750  144.0470 C   0  0  0  0  0  2  0  0  0  0  0  0
  184.6960  177.6940  142.2060 C   0  0  0  0  0  2  0  0  0  0  0  0
  192.6070  173.5930  144.2200 Cl  0  0  0  0  0  0  0  0  0  0  0  0
  188.8460  176.7270  146.1030 C   0  0  0  0  0  0  0  0  0  0  0  0
  191.9390  175.4750  147.6880 C   0  0  0  0  0  3  0  0  0  0  0  0
  190.5820  175.2850  145.2140 C   0  0  0  0  0  0  0  0  0  0  0  0
  188.1320  176.6540  144.9360 C   0  0  0  0  0  0  0  0  0  0  0  0
  186.1590  178.5010  146.9140 O   0  0  0  0  0  0  0  0  0  0  0  0
  186.9850  177.3630  145.0880 N   0  0  0  0  0  0  0  0  0  0  0  0
  184.5270  178.9200  142.8810 O   0  0  0  0  0  0  0  0  0  0  0  0
  187.7430  178.2900  142.1040 C   0  0  0  0  0  1  0  0  0  0  0  0
  190.7360  176.1490  147.5060 C   0  0  0  0  0  3  0  0  0  0  0  0
  190.0570  176.0620  146.2860 C   0  0  0  0  0  0  0  0  0  0  0  0
  187.0560  176.9250  142.1220 C   0  0  2  0  0  3  0  0  0  0  0  0
  190.3030  173.6020  140.6340 C   0  0  0  0  0  2  0  0  0  0  0  0
  190.5140  171.2560  141.3890 C   0  0  0  0  0  1  0  0  0  0  0  0
  191.1740  172.6190  141.3910 C   0  0  0  0  0  2  0  0  0  0  0  0
  1 19  1  0  0  0  0
  2 13  1  0  0  0  0
  4  1  2  0  0  0  0
  4 20  1  0  0  0  0
  5  1  1  0  0  0  0
  7 15  1  6  0  0  0
  7  9  1  0  0  0  0
  8  6  1  1  0  0  0
  8 12  1  0  0  0  0
  9 14  1  6  0  0  0
  9 22  1  0  0  0  0
 10 21  2  0  0  0  0
 10  3  1  0  0  0  0
 11 28  1  6  0  0  0
 11  8  1  0  0  0  0
 11  5  1  0  0  0  0
 12  4  1  0  0  0  0
 13 18  2  0  0  0  0
 15 23  1  0  0  0  0
 16  2  1  0  0  0  0
 17 26  1  0  0  0  0
 17  3  1  0  0  0  0
 19  2  2  0  0  0  0
 19 26  1  0  0  0  0
 20 22  1  0  0  0  0
 20 17  2  0  0  0  0
 22 10  1  0  0  0  0
 23 14  1  0  0  0  0
 25 18  1  0  0  0  0
 26 25  2  0  0  0  0
 27 24  1  1  0  0  0
 27 12  1  0  0  0  0
 27  7  1  0  0  0  0
 28 30  1  0  0  0  0
 29 30  1  0  0  0  0
M  END
>  <MODEL>
2

>  <REMARK>
 VINA RESULT:      -8.0      2.606      5.866
  Name = 
  2 active torsions:
  status: ('A' for Active; 'I' for Inactive)
    1  A    between atoms: C_11  and  C_28
    2  A    between atoms: C_28  and  C_30
                            x       y       z     vdW  Elec       q    Type
                         _______ _______ _______ _____ _____    ______ ____

>  <TORSDO>
F 2

$$$$
=
 OpenBabel11112416213D

 30 35  0  0  1  0  0  0  0  0999 V2000
  189.2610  175.2190  143.6680 C   0  0  0  0  0  0  0  0  0  0  0  0
  190.5280  173.4770  142.3800 C   0  0  0  0  0  0  0  0  0  0  0  0
  187.1060  176.2940  140.3310 N   0  0  0  0  0  2  0  0  0  0  0  0
  188.2870  176.2540  143.6860 C   0  0  0  0  0  0  0  0  0  0  0  0
  189.9260  174.9140  144.8640 O   0  0  0  0  0  0  0  0  0  0  0  0
  190.1240  177.7870  145.7740 C   0  0  0  0  0  1  0  0  0  0  0  0
  186.5770  178.8160  144.4130 C   0  0  1  0  0  3  0  0  0  0  0  0
  188.9730  176.8210  146.0290 C   0  0  2  0  0  3  0  0  0  0  0  0
  186.1840  178.6670  142.9710 C   0  0  2  0  0  3  0  0  0  0  0  0
  186.4080  177.3000  140.9010 C   0  0  0  0  0  0  0  0  0  0  0  0
  189.4550  175.3720  146.1310 C   0  0  2  0  0  3  0  0  0  0  0  0
  188.0090  176.9120  144.9350 N   0  0  0  0  0  0  0  0  0  0  0  0
  190.7410  172.8150  141.1680 C   0  0  0  0  0  3  0  0  0  0  0  0
  184.6770  178.7470  143.0130 C   0  0  0  0  0  2  0  0  0  0  0  0
  185.4300  179.6330  144.9670 C   0  0  0  0  0  2  0  0  0  0  0  0
  191.5370  172.9530  143.7230 Cl  0  0  0  0  0  0  0  0  0  0  0  0
  187.8560  175.8400  141.3500 C   0  0  0  0  0  0  0  0  0  0  0  0
  190.0080  173.1440  140.0300 C   0  0  0  0  0  3  0  0  0  0  0  0
  189.5490  174.5070  142.4640 C   0  0  0  0  0  0  0  0  0  0  0  0
  187.6060  176.5510  142.4940 C   0  0  0  0  0  0  0  0  0  0  0  0
  185.6070  178.0170  140.2430 O   0  0  0  0  0  0  0  0  0  0  0  0
  186.6670  177.4920  142.2210 N   0  0  0  0  0  0  0  0  0  0  0  0
  184.2950  179.4990  144.1400 O   0  0  0  0  0  0  0  0  0  0  0  0
  185.5770  176.5320  145.0880 C   0  0  0  0  0  1  0  0  0  0  0  0
  189.0470  174.1480  140.0900 C   0  0  0  0  0  3  0  0  0  0  0  0
  188.8120  174.8280  141.2890 C   0  0  0  0  0  0  0  0  0  0  0  0
  186.7270  177.5290  145.2190 C   0  0  2  0  0  3  0  0  0  0  0  0
  190.5160  175.1870  147.2070 C   0  0  0  0  0  2  0  0  0  0  0  0
  192.8740  175.8030  146.7860 C   0  0  0  0  0  1  0  0  0  0  0  0
  191.8200  174.7350  146.5800 C   0  0  0  0  0  2  0  0  0  0  0  0
  1  4  1  0  0  0  0
  1  5  1  0  0  0  0
  2 19  1  0  0  0  0
  2 16  1  0  0  0  0
  3 10  1  0  0  0  0
  3 17  1  0  0  0  0
  4 12  1  0  0  0  0
  5 11  1  0  0  0  0
  7 15  1  1  0  0  0
  7 27  1  0  0  0  0
  8  6  1  6  0  0  0
  8 11  1  0  0  0  0
  9 14  1  1  0  0  0
  9  7  1  0  0  0  0
 10 22  1  0  0  0  0
 11 28  1  1  0  0  0
 12 27  1  0  0  0  0
 12  8  1  0  0  0  0
 13  2  2  0  0  0  0
 14 23  1  0  0  0  0
 17 20  1  0  0  0  0
 18 25  2  0  0  0  0
 18 13  1  0  0  0  0
 19  1  2  0  0  0  0
 20  4  2  0  0  0  0
 21 10  2  0  0  0  0
 22 20  1  0  0  0  0
 22  9  1  0  0  0  0
 23 15  1  0  0  0  0
 25 26  1  0  0  0  0
 26 17  2  0  0  0  0
 26 19  1  0  0  0  0
 27 24  1  6  0  0  0
 30 29  1  0  0  0  0
 30 28  1  0  0  0  0
M  END
>  <MODEL>
3

>  <REMARK>
 VINA RESULT:      -8.0      2.580      7.158
  Name = 
  2 active torsions:
  status: ('A' for Active; 'I' for Inactive)
    1  A    between atoms: C_11  and  C_28
    2  A    between atoms: C_28  and  C_30
                            x       y       z     vdW  Elec       q    Type
                         _______ _______ _______ _____ _____    ______ ____

>  <TORSDO>
F 2

$$$$
=
 OpenBabel11112416213D

 30 35  0  0  1  0  0  0  0  0999 V2000
  188.8970  175.8270  144.3390 C   0  0  0  0  0  0  0  0  0  0  0  0
  189.6880  176.5650  146.6030 C   0  0  0  0  0  0  0  0  0  0  0  0
  192.2760  173.5480  143.7660 N   0  0  0  0  0  2  0  0  0  0  0  0
  189.1280  175.0860  143.1490 C   0  0  0  0  0  0  0  0  0  0  0  0
  187.7040  176.5550  144.4460 O   0  0  0  0  0  0  0  0  0  0  0  0
  187.6860  177.4220  141.5530 C   0  0  0  0  0  1  0  0  0  0  0  0
  189.0870  174.0110  140.1720 C   0  0  1  0  0  3  0  0  0  0  0  0
  187.0960  176.1400  142.1300 C   0  0  2  0  0  3  0  0  0  0  0  0
  190.3980  173.4300  140.6180 C   0  0  2  0  0  3  0  0  0  0  0  0
  191.9860  173.1350  142.5130 C   0  0  0  0  0  0  0  0  0  0  0  0
  186.6010  176.3370  143.5650 C   0  0  2  0  0  3  0  0  0  0  0  0
  188.1130  175.0920  142.1290 N   0  0  0  0  0  0  0  0  0  0  0  0
  190.6640  176.4990  147.6020 C   0  0  0  0  0  3  0  0  0  0  0  0
  190.2960  171.9840  140.1970 C   0  0  0  0  0  2  0  0  0  0  0  0
  188.7330  173.1220  139.0000 C   0  0  0  0  0  2  0  0  0  0  0  0
  188.3100  177.6020  146.9510 Cl  0  0  0  0  0  0  0  0  0  0  0  0
  191.2130  174.3090  144.0790 C   0  0  0  0  0  0  0  0  0  0  0  0
  191.8050  175.7160  147.4430 C   0  0  0  0  0  3  0  0  0  0  0  0
  189.8540  175.8250  145.3990 C   0  0  0  0  0  0  0  0  0  0  0  0
  190.3140  174.3410  143.0450 C   0  0  0  0  0  0  0  0  0  0  0  0
  192.7800  172.4180  141.8450 O   0  0  0  0  0  0  0  0  0  0  0  0
  190.7980  173.5800  142.0300 N   0  0  0  0  0  0  0  0  0  0  0  0
  189.4190  171.8940  139.0990 O   0  0  0  0  0  0  0  0  0  0  0  0
  187.7180  172.6680  141.9020 C   0  0  0  0  0  1  0  0  0  0  0  0
  191.9880  174.9860  146.2730 C   0  0  0  0  0  3  0  0  0  0  0  0
  191.0280  175.0320  145.2560 C   0  0  0  0  0  0  0  0  0  0  0  0
  187.9500  173.9990  141.1890 C   0  0  2  0  0  3  0  0  0  0  0  0
  185.5800  177.4590  143.6810 C   0  0  0  0  0  2  0  0  0  0  0  0
  185.4710  179.8780  144.1860 C   0  0  0  0  0  1  0  0  0  0  0  0
  186.1180  178.5640  144.5690 C   0  0  0  0  0  2  0  0  0  0  0  0
  1  5  1  0  0  0  0
  1 19  1  0  0  0  0
  2 16  1  0  0  0  0
  2 13  1  0  0  0  0
  3 17  1  0  0  0  0
  4  1  2  0  0  0  0
  7 15  1  6  0  0  0
  7  9  1  0  0  0  0
  7 27  1  0  0  0  0
  8  6  1  1  0  0  0
  8 11  1  0  0  0  0
  9 14  1  1  0  0  0
  9 22  1  0  0  0  0
 10  3  1  0  0  0  0
 11 28  1  6  0  0  0
 11  5  1  0  0  0  0
 12  8  1  0  0  0  0
 12  4  1  0  0  0  0
 15 23  1  0  0  0  0
 17 26  1  0  0  0  0
 18 13  2  0  0  0  0
 19  2  2  0  0  0  0
 20  4  1  0  0  0  0
 20 17  2  0  0  0  0
 21 10  2  0  0  0  0
 22 10  1  0  0  0  0
 22 20  1  0  0  0  0
 23 14  1  0  0  0  0
 25 18  1  0  0  0  0
 26 19  1  0  0  0  0
 26 25  2  0  0  0  0
 27 24  1  1  0  0  0
 27 12  1  0  0  0  0
 28 30  1  0  0  0  0
 29 30  1  0  0  0  0
M  END
>  <MODEL>
4

>  <REMARK>
 VINA RESULT:      -7.8      2.547      4.391
  Name = 
  2 active torsions:
  status: ('A' for Active; 'I' for Inactive)
    1  A    between atoms: C_11  and  C_28
    2  A    between atoms: C_28  and  C_30
                            x       y       z     vdW  Elec       q    Type
                         _______ _______ _______ _____ _____    ______ ____

>  <TORSDO>
F 2

$$$$
=
 OpenBabel11112416213D

 30 35  0  0  1  0  0  0  0  0999 V2000
  188.2020  177.0660  144.7900 C   0  0  0  0  0  0  0  0  0  0  0  0
  186.0400  178.3400  144.8280 C   0  0  0  0  0  0  0  0  0  0  0  0
  187.4500  175.6630  140.9960 N   0  0  0  0  0  2  0  0  0  0  0  0
  189.0910  176.1940  144.1070 C   0  0  0  0  0  0  0  0  0  0  0  0
  188.5590  177.5060  146.0730 O   0  0  0  0  0  0  0  0  0  0  0  0
  189.7580  174.8640  146.9120 C   0  0  0  0  0  1  0  0  0  0  0  0
  191.3290  174.0740  143.3890 C   0  0  1  0  0  3  0  0  0  0  0  0
  190.4670  176.0060  146.1920 C   0  0  2  0  0  3  0  0  0  0  0  0
  190.5100  173.9920  142.1340 C   0  0  2  0  0  3  0  0  0  0  0  0
  188.5510  174.8880  140.8840 C   0  0  0  0  0  0  0  0  0  0  0  0
  189.8880  177.3690  146.5770 C   0  0  2  0  0  3  0  0  0  0  0  0
  190.3270  175.8340  144.7490 N   0  0  0  0  0  0  0  0  0  0  0  0
  184.8710  178.7200  144.1610 C   0  0  0  0  0  3  0  0  0  0  0  0
  191.5410  174.1240  141.0390 C   0  0  0  0  0  2  0  0  0  0  0  0
  192.6670  173.5410  142.9260 C   0  0  0  0  0  2  0  0  0  0  0  0
  186.2280  178.9740  146.4580 Cl  0  0  0  0  0  0  0  0  0  0  0  0
  187.5890  176.2010  142.2200 C   0  0  0  0  0  0  0  0  0  0  0  0
  184.6050  178.2770  142.8680 C   0  0  0  0  0  3  0  0  0  0  0  0
  186.9790  177.4860  144.1840 C   0  0  0  0  0  0  0  0  0  0  0  0
  188.7450  175.7650  142.8150 C   0  0  0  0  0  0  0  0  0  0  0  0
  188.7660  174.1720  139.8690 O   0  0  0  0  0  0  0  0  0  0  0  0
  189.3790  174.9230  141.9600 N   0  0  0  0  0  0  0  0  0  0  0  0
  192.7790  173.6620  141.5250 O   0  0  0  0  0  0  0  0  0  0  0  0
  191.9340  176.5590  143.0240 C   0  0  0  0  0  1  0  0  0  0  0  0
  185.5090  177.4420  142.2200 C   0  0  0  0  0  3  0  0  0  0  0  0
  186.6860  177.0450  142.8620 C   0  0  0  0  0  0  0  0  0  0  0  0
  191.5120  175.4610  143.9990 C   0  0  2  0  0  3  0  0  0  0  0  0
  189.9290  177.6160  148.0780 C   0  0  0  0  0  2  0  0  0  0  0  0
  191.4840  178.2200  149.9050 C   0  0  0  0  0  1  0  0  0  0  0  0
  191.3490  177.4780  148.5910 C   0  0  0  0  0  2  0  0  0  0  0  0
  1  5  1  0  0  0  0
  2 16  1  0  0  0  0
  3 17  1  0  0  0  0
  4 12  1  0  0  0  0
  4  1  2  0  0  0  0
  5 11  1  0  0  0  0
  7 15  1  6  0  0  0
  7 27  1  0  0  0  0
  8 11  1  0  0  0  0
  8  6  1  1  0  0  0
  9 14  1  6  0  0  0
  9  7  1  0  0  0  0
 10  3  1  0  0  0  0
 10 22  1  0  0  0  0
 11 28  1  1  0  0  0
 12  8  1  0  0  0  0
 13  2  2  0  0  0  0
 14 23  1  0  0  0  0
 17 20  2  0  0  0  0
 17 26  1  0  0  0  0
 18 13  1  0  0  0  0
 19  1  1  0  0  0  0
 19  2  1  0  0  0  0
 20  4  1  0  0  0  0
 21 10  2  0  0  0  0
 22  9  1  0  0  0  0
 22 20  1  0  0  0  0
 23 15  1  0  0  0  0
 25 26  1  0  0  0  0
 25 18  2  0  0  0  0
 26 19  2  0  0  0  0
 27 24  1  6  0  0  0
 27 12  1  0  0  0  0
 28 30  1  0  0  0  0
 30 29  1  0  0  0  0
M  END
>  <MODEL>
5

>  <REMARK>
 VINA RESULT:      -7.6      2.110      5.188
  Name = 
  2 active torsions:
  status: ('A' for Active; 'I' for Inactive)
    1  A    between atoms: C_11  and  C_28
    2  A    between atoms: C_28  and  C_30
                            x       y       z     vdW  Elec       q    Type
                         _______ _______ _______ _____ _____    ______ ____

>  <TORSDO>
F 2

$$$$
=
 OpenBabel11112416213D

 30 35  0  0  1  0  0  0  0  0999 V2000
  188.8810  175.8280  143.9880 C   0  0  0  0  0  0  0  0  0  0  0  0
  187.3150  177.6850  144.6190 C   0  0  0  0  0  0  0  0  0  0  0  0
  187.4450  175.7650  140.1320 N   0  0  0  0  0  2  0  0  0  0  0  0
  189.3600  174.9180  143.0070 C   0  0  0  0  0  0  0  0  0  0  0  0
  189.4510  175.7840  145.2680 O   0  0  0  0  0  0  0  0  0  0  0  0
  189.6890  172.7740  145.3270 C   0  0  0  0  0  1  0  0  0  0  0  0
  190.6550  172.4400  141.5250 C   0  0  1  0  0  3  0  0  0  0  0  0
  190.7090  173.7650  144.7760 C   0  0  2  0  0  3  0  0  0  0  0  0
  189.7830  172.9530  140.4160 C   0  0  2  0  0  3  0  0  0  0  0  0
  188.1920  174.7280  139.6940 C   0  0  0  0  0  0  0  0  0  0  0  0
  190.6740  175.0960  145.5300 C   0  0  2  0  0  3  0  0  0  0  0  0
  190.4270  174.0220  143.3670 N   0  0  0  0  0  0  0  0  0  0  0  0
  186.3170  178.5830  144.2310 C   0  0  0  0  0  3  0  0  0  0  0  0
  190.7230  173.0150  139.2370 C   0  0  0  0  0  2  0  0  0  0  0  0
  191.6870  171.6350  140.7650 C   0  0  0  0  0  2  0  0  0  0  0  0
  187.8180  177.7850  146.3030 Cl  0  0  0  0  0  0  0  0  0  0  0  0
  187.8420  175.8960  141.4090 C   0  0  0  0  0  0  0  0  0  0  0  0
  185.8300  178.5970  142.9250 C   0  0  0  0  0  3  0  0  0  0  0  0
  187.8500  176.7650  143.6740 C   0  0  0  0  0  0  0  0  0  0  0  0
  188.8040  174.9710  141.7190 C   0  0  0  0  0  0  0  0  0  0  0  0
  188.0760  174.2650  138.5270 O   0  0  0  0  0  0  0  0  0  0  0  0
  189.0450  174.2150  140.6170 N   0  0  0  0  0  0  0  0  0  0  0  0
  191.7460  172.0660  139.4240 O   0  0  0  0  0  0  0  0  0  0  0  0
  192.0750  174.5950  141.6230 C   0  0  0  0  0  1  0  0  0  0  0  0
  186.3390  177.7070  141.9860 C   0  0  0  0  0  3  0  0  0  0  0  0
  187.3380  176.7970  142.3450 C   0  0  0  0  0  0  0  0  0  0  0  0
  191.3540  173.4860  142.3880 C   0  0  2  0  0  3  0  0  0  0  0  0
  190.8940  174.9250  147.0260 C   0  0  0  0  0  2  0  0  0  0  0  0
  192.8650  176.4100  146.8610 C   0  0  0  0  0  1  0  0  0  0  0  0
  191.5660  176.1570  147.5980 C   0  0  0  0  0  2  0  0  0  0  0  0
  1  5  1  0  0  0  0
  2 16  1  0  0  0  0
  3 17  1  0  0  0  0
  4 12  1  0  0  0  0
  4  1  2  0  0  0  0
  5 11  1  0  0  0  0
  7 15  1  6  0  0  0
  7 27  1  0  0  0  0
  8  6  1  1  0  0  0
  8 11  1  0  0  0  0
  9 14  1  6  0  0  0
  9 22  1  0  0  0  0
  9  7  1  0  0  0  0
 10  3  1  0  0  0  0
 10 22  1  0  0  0  0
 11 28  1  1  0  0  0
 12  8  1  0  0  0  0
 13  2  1  0  0  0  0
 14 23  1  0  0  0  0
 17 20  2  0  0  0  0
 17 26  1  0  0  0  0
 18 13  2  0  0  0  0
 19  1  1  0  0  0  0
 19  2  2  0  0  0  0
 20  4  1  0  0  0  0
 21 10  2  0  0  0  0
 22 20  1  0  0  0  0
 23 15  1  0  0  0  0
 25 26  2  0  0  0  0
 25 18  1  0  0  0  0
 26 19  1  0  0  0  0
 27 24  1  6  0  0  0
 27 12  1  0  0  0  0
 28 30  1  0  0  0  0
 29 30  1  0  0  0  0
M  END
>  <MODEL>
6

>  <REMARK>
 VINA RESULT:      -7.2      2.523      5.655
  Name = 
  2 active torsions:
  status: ('A' for Active; 'I' for Inactive)
    1  A    between atoms: C_11  and  C_28
    2  A    between atoms: C_28  and  C_30
                            x       y       z     vdW  Elec       q    Type
                         _______ _______ _______ _____ _____    ______ ____

>  <TORSDO>
F 2

$$$$
=
 OpenBabel11112416213D

 30 35  0  0  1  0  0  0  0  0999 V2000
  188.0820  175.6610  141.2530 C   0  0  0  0  0  0  0  0  0  0  0  0
  187.8970  174.8580  138.8830 C   0  0  0  0  0  0  0  0  0  0  0  0
  190.6960  172.6290  142.2050 N   0  0  0  0  0  2  0  0  0  0  0  0
  188.6190  175.4950  142.5580 C   0  0  0  0  0  0  0  0  0  0  0  0
  187.2150  176.7400  141.0250 O   0  0  0  0  0  0  0  0  0  0  0  0
  185.8420  176.5220  143.7060 C   0  0  0  0  0  1  0  0  0  0  0  0
  189.1120  175.5780  145.6830 C   0  0  1  0  0  3  0  0  0  0  0  0
  187.1040  177.3130  143.3830 C   0  0  2  0  0  3  0  0  0  0  0  0
  189.9540  174.3840  145.3400 C   0  0  2  0  0  3  0  0  0  0  0  0
  190.8250  172.9270  143.5160 C   0  0  0  0  0  0  0  0  0  0  0  0
  187.1020  177.8280  141.9420 C   0  0  2  0  0  3  0  0  0  0  0  0
  188.2750  176.4600  143.5690 N   0  0  0  0  0  0  0  0  0  0  0  0
  188.2900  173.9410  137.9030 C   0  0  0  0  0  3  0  0  0  0  0  0
  191.2670  174.6770  146.0250 C   0  0  0  0  0  2  0  0  0  0  0  0
  189.7100  176.0130  147.0040 C   0  0  0  0  0  2  0  0  0  0  0  0
  186.7470  176.0840  138.3620 Cl  0  0  0  0  0  0  0  0  0  0  0  0
  189.8550  173.5820  141.7670 C   0  0  0  0  0  0  0  0  0  0  0  0
  189.1910  172.9200  138.1940 C   0  0  0  0  0  3  0  0  0  0  0  0
  188.4210  174.7560  140.2020 C   0  0  0  0  0  0  0  0  0  0  0  0
  189.5010  174.4270  142.7860 C   0  0  0  0  0  0  0  0  0  0  0  0
  191.5180  172.2210  144.2990 O   0  0  0  0  0  0  0  0  0  0  0  0
  190.1270  174.0200  143.9200 N   0  0  0  0  0  0  0  0  0  0  0  0
  191.0230  175.5160  147.1280 O   0  0  0  0  0  0  0  0  0  0  0  0
  190.5300  177.1920  144.2490 C   0  0  0  0  0  1  0  0  0  0  0  0
  189.7140  172.8010  139.4780 C   0  0  0  0  0  3  0  0  0  0  0  0
  189.3400  173.7040  140.4780 C   0  0  0  0  0  0  0  0  0  0  0  0
  189.1400  176.7430  144.6980 C   0  0  2  0  0  3  0  0  0  0  0  0
  185.8800  178.6790  141.6300 C   0  0  0  0  0  2  0  0  0  0  0  0
  183.6960  178.2460  140.5530 C   0  0  0  0  0  1  0  0  0  0  0  0
  185.1980  178.1720  140.3750 C   0  0  0  0  0  2  0  0  0  0  0  0
  1  4  1  0  0  0  0
  2 19  1  0  0  0  0
  3 10  1  0  0  0  0
  4 20  2  0  0  0  0
  4 12  1  0  0  0  0
  5  1  1  0  0  0  0
  5 11  1  0  0  0  0
  7 15  1  1  0  0  0
  8 12  1  0  0  0  0
  8  6  1  6  0  0  0
  9  7  1  0  0  0  0
  9 14  1  6  0  0  0
 10 22  1  0  0  0  0
 10 21  2  0  0  0  0
 11 28  1  6  0  0  0
 11  8  1  0  0  0  0
 12 27  1  0  0  0  0
 13 18  1  0  0  0  0
 13  2  2  0  0  0  0
 14 23  1  0  0  0  0
 15 23  1  0  0  0  0
 16  2  1  0  0  0  0
 17  3  1  0  0  0  0
 17 20  1  0  0  0  0
 18 25  2  0  0  0  0
 19 26  1  0  0  0  0
 19  1  2  0  0  0  0
 20 22  1  0  0  0  0
 22  9  1  0  0  0  0
 25 26  1  0  0  0  0
 26 17  2  0  0  0  0
 27 24  1  6  0  0  0
 27  7  1  0  0  0  0
 30 29  1  0  0  0  0
 30 28  1  0  0  0  0
M  END
>  <MODEL>
7

>  <REMARK>
 VINA RESULT:      -7.2      2.461      5.187
  Name = 
  2 active torsions:
  status: ('A' for Active; 'I' for Inactive)
    1  A    between atoms: C_11  and  C_28
    2  A    between atoms: C_28  and  C_30
                            x       y       z     vdW  Elec       q    Type
                         _______ _______ _______ _____ _____    ______ ____

>  <TORSDO>
F 2

$$$$
=
 OpenBabel11112416213D

 30 35  0  0  1  0  0  0  0  0999 V2000
  188.5450  176.7120  144.0700 C   0  0  0  0  0  0  0  0  0  0  0  0
  186.6810  178.0270  143.0240 C   0  0  0  0  0  0  0  0  0  0  0  0
  189.1140  174.5420  140.6200 N   0  0  0  0  0  2  0  0  0  0  0  0
  189.5220  175.6860  143.9630 C   0  0  0  0  0  0  0  0  0  0  0  0
  188.4440  177.4080  145.2830 O   0  0  0  0  0  0  0  0  0  0  0  0
  188.9410  174.9760  147.0030 C   0  0  0  0  0  1  0  0  0  0  0  0
  191.6160  173.3950  144.5850 C   0  0  1  0  0  3  0  0  0  0  0  0
  189.9890  175.9140  146.4140 C   0  0  2  0  0  3  0  0  0  0  0  0
  191.3210  173.0670  143.1500 C   0  0  2  0  0  3  0  0  0  0  0  0
  190.0830  173.7300  141.0930 C   0  0  0  0  0  0  0  0  0  0  0  0
  189.4640  177.3440  146.2800 C   0  0  2  0  0  3  0  0  0  0  0  0
  190.3810  175.4370  145.0900 N   0  0  0  0  0  0  0  0  0  0  0  0
  185.8960  178.2890  141.8970 C   0  0  0  0  0  3  0  0  0  0  0  0
  192.6940  172.9280  142.5380 C   0  0  0  0  0  2  0  0  0  0  0  0
  192.9620  172.7340  144.7880 C   0  0  0  0  0  2  0  0  0  0  0  0
  186.3160  178.9940  144.4480 Cl  0  0  0  0  0  0  0  0  0  0  0  0
  188.8450  175.3280  141.6760 C   0  0  0  0  0  0  0  0  0  0  0  0
  186.0850  177.5840  140.7100 C   0  0  0  0  0  3  0  0  0  0  0  0
  187.6920  177.0270  142.9690 C   0  0  0  0  0  0  0  0  0  0  0  0
  189.6380  174.9980  142.7440 C   0  0  0  0  0  0  0  0  0  0  0  0
  190.5800  172.8040  140.3960 O   0  0  0  0  0  0  0  0  0  0  0  0
  190.4480  173.9720  142.3780 N   0  0  0  0  0  0  0  0  0  0  0  0
  193.6010  172.5460  143.5450 O   0  0  0  0  0  0  0  0  0  0  0  0
  192.5860  175.7220  144.0220 C   0  0  0  0  0  1  0  0  0  0  0  0
  187.0660  176.6020  140.6340 C   0  0  0  0  0  3  0  0  0  0  0  0
  187.8670  176.3190  141.7460 C   0  0  0  0  0  0  0  0  0  0  0  0
  191.7100  174.8750  144.9450 C   0  0  2  0  0  3  0  0  0  0  0  0
  188.9680  177.9100  147.6030 C   0  0  0  0  0  2  0  0  0  0  0  0
  187.0570  179.2690  148.3880 C   0  0  0  0  0  1  0  0  0  0  0  0
  187.4600  178.0560  147.5750 C   0  0  0  0  0  2  0  0  0  0  0  0
  1  5  1  0  0  0  0
  2 16  1  0  0  0  0
  3 10  1  0  0  0  0
  3 17  1  0  0  0  0
  4  1  1  0  0  0  0
  4 12  1  0  0  0  0
  5 11  1  0  0  0  0
  7 15  1  6  0  0  0
  7 27  1  0  0  0  0
  8  6  1  6  0  0  0
  9 14  1  6  0  0  0
  9  7  1  0  0  0  0
 10 22  1  0  0  0  0
 11  8  1  0  0  0  0
 11 28  1  1  0  0  0
 12  8  1  0  0  0  0
 13  2  2  0  0  0  0
 14 23  1  0  0  0  0
 17 26  2  0  0  0  0
 17 20  1  0  0  0  0
 18 13  1  0  0  0  0
 19  2  1  0  0  0  0
 19  1  2  0  0  0  0
 20  4  2  0  0  0  0
 21 10  2  0  0  0  0
 22 20  1  0  0  0  0
 22  9  1  0  0  0  0
 23 15  1  0  0  0  0
 25 18  2  0  0  0  0
 25 26  1  0  0  0  0
 26 19  1  0  0  0  0
 27 24  1  6  0  0  0
 27 12  1  0  0  0  0
 30 28  1  0  0  0  0
 30 29  1  0  0  0  0
M  END
>  <MODEL>
8

>  <REMARK>
 VINA RESULT:      -7.1      2.065      5.044
  Name = 
  2 active torsions:
  status: ('A' for Active; 'I' for Inactive)
    1  A    between atoms: C_11  and  C_28
    2  A    between atoms: C_28  and  C_30
                            x       y       z     vdW  Elec       q    Type
                         _______ _______ _______ _____ _____    ______ ____

>  <TORSDO>
F 2

$$$$
=
 OpenBabel11112416213D

 30 35  0  0  1  0  0  0  0  0999 V2000
  191.5850  174.4550  143.4980 C   0  0  0  0  0  0  0  0  0  0  0  0
  192.2090  173.0570  141.5100 C   0  0  0  0  0  0  0  0  0  0  0  0
  187.7540  174.9700  142.0860 N   0  0  0  0  0  2  0  0  0  0  0  0
  190.6130  175.2300  144.1870 C   0  0  0  0  0  0  0  0  0  0  0  0
  192.8560  174.3230  144.0730 O   0  0  0  0  0  0  0  0  0  0  0  0
  192.9630  177.1660  145.0880 C   0  0  0  0  0  1  0  0  0  0  0  0
  189.1530  177.3170  146.0660 C   0  0  1  0  0  3  0  0  0  0  0  0
  192.3800  175.9550  145.8080 C   0  0  2  0  0  3  0  0  0  0  0  0
  188.0490  177.0710  145.0780 C   0  0  2  0  0  3  0  0  0  0  0  0
  187.3220  175.7860  143.0720 C   0  0  0  0  0  0  0  0  0  0  0  0
  193.1100  174.6640  145.4360 C   0  0  2  0  0  3  0  0  0  0  0  0
  190.9700  175.8100  145.4540 N   0  0  0  0  0  0  0  0  0  0  0  0
  191.8210  172.4570  140.3080 C   0  0  0  0  0  3  0  0  0  0  0  0
  186.8540  176.7910  145.9570 C   0  0  0  0  0  2  0  0  0  0  0  0
  188.3910  177.8410  147.2630 C   0  0  0  0  0  2  0  0  0  0  0  0
  193.8820  172.7940  141.9880 Cl  0  0  0  0  0  0  0  0  0  0  0  0
  189.0220  174.7130  142.4490 C   0  0  0  0  0  0  0  0  0  0  0  0
  190.5240  172.5970  139.8210 C   0  0  0  0  0  3  0  0  0  0  0  0
  191.2710  173.8250  142.2550 C   0  0  0  0  0  0  0  0  0  0  0  0
  189.3320  175.3500  143.6220 C   0  0  0  0  0  0  0  0  0  0  0  0
  186.1650  176.2880  143.0680 O   0  0  0  0  0  0  0  0  0  0  0  0
  188.2410  176.0410  144.0400 N   0  0  0  0  0  0  0  0  0  0  0  0
  187.0410  177.4380  147.1930 O   0  0  0  0  0  0  0  0  0  0  0  0
  189.1910  174.8640  146.8770 C   0  0  0  0  0  1  0  0  0  0  0  0
  189.5910  173.3440  140.5330 C   0  0  0  0  0  3  0  0  0  0  0  0
  189.9510  173.9560  141.7380 C   0  0  0  0  0  0  0  0  0  0  0  0
  189.9860  176.1070  146.4770 C   0  0  2  0  0  3  0  0  0  0  0  0
  194.6050  174.7400  145.7090 C   0  0  0  0  0  2  0  0  0  0  0  0
  196.7200  173.4610  145.7980 C   0  0  0  0  0  1  0  0  0  0  0  0
  195.2630  173.4130  145.3880 C   0  0  0  0  0  2  0  0  0  0  0  0
  1  5  1  0  0  0  0
  1  4  1  0  0  0  0
  2 16  1  0  0  0  0
  2 19  1  0  0  0  0
  3 17  1  0  0  0  0
  3 10  1  0  0  0  0
  4 12  1  0  0  0  0
  5 11  1  0  0  0  0
  7 27  1  0  0  0  0
  7 15  1  1  0  0  0
  8  6  1  6  0  0  0
  9 14  1  1  0  0  0
  9  7  1  0  0  0  0
 10 22  1  0  0  0  0
 11 28  1  6  0  0  0
 11  8  1  0  0  0  0
 12  8  1  0  0  0  0
 12 27  1  0  0  0  0
 13  2  2  0  0  0  0
 14 23  1  0  0  0  0
 17 20  1  0  0  0  0
 18 13  1  0  0  0  0
 18 25  2  0  0  0  0
 19  1  2  0  0  0  0
 20 22  1  0  0  0  0
 20  4  2  0  0  0  0
 21 10  2  0  0  0  0
 22  9  1  0  0  0  0
 23 15  1  0  0  0  0
 25 26  1  0  0  0  0
 26 19  1  0  0  0  0
 26 17  2  0  0  0  0
 27 24  1  6  0  0  0
 30 28  1  0  0  0  0
 30 29  1  0  0  0  0
M  END
>  <MODEL>
9

>  <REMARK>
 VINA RESULT:      -7.1      3.213      7.670
  Name = 
  2 active torsions:
  status: ('A' for Active; 'I' for Inactive)
    1  A    between atoms: C_11  and  C_28
    2  A    between atoms: C_28  and  C_30
                            x       y       z     vdW  Elec       q    Type
                         _______ _______ _______ _____ _____    ______ ____

>  <TORSDO>
F 2

$$$$
