=
 OpenBabel11112416393D

 32 37  0  0  1  0  0  0  0  0999 V2000
  187.9230  177.4000  143.7780 C   0  0  0  0  0  0  0  0  0  0  0  0
  185.9870  178.1820  148.1360 C   0  0  0  0  0  3  0  0  0  0  0  0
  184.7440  178.4030  147.5450 C   0  0  0  0  0  3  0  0  0  0  0  0
  186.4680  177.5460  141.7310 C   0  0  0  0  0  0  0  0  0  0  0  0
  185.1960  177.7820  141.2320 C   0  0  0  0  0  0  0  0  0  0  0  0
  190.2660  176.8790  143.6030 N   0  0  0  0  0  0  0  0  0  0  0  0
  189.2710  177.2650  145.7300 C   0  0  0  0  0  3  0  0  0  0  0  0
  183.0770  178.2460  141.2670 C   0  0  0  0  0  0  0  0  0  0  0  0
  187.0910  177.8750  147.3400 C   0  0  0  0  0  3  0  0  0  0  0  0
  188.0530  177.4840  145.1480 N   0  0  0  0  0  0  0  0  0  0  0  0
  186.9730  177.7850  145.9370 C   0  0  0  0  0  0  0  0  0  0  0  0
  185.5690  177.9260  143.9520 C   0  0  0  0  0  0  0  0  0  0  0  0
  183.4600  178.0560  139.9810 N   0  0  0  0  0  0  0  0  0  0  0  0
  190.3920  176.9450  144.9610 C   0  0  0  0  0  0  0  0  0  0  0  0
  184.7620  177.7700  139.9570 N   0  0  0  0  0  0  0  0  0  0  0  0
  184.6070  178.3190  146.1600 C   0  0  0  0  0  3  0  0  0  0  0  0
  185.7110  178.0100  145.3460 C   0  0  0  0  0  0  0  0  0  0  0  0
  184.3310  178.1500  143.4010 N   0  0  0  0  0  0  0  0  0  0  0  0
  189.0620  177.0960  143.0140 C   0  0  0  0  0  3  0  0  0  0  0  0
  187.4050  177.2750  140.9300 O   0  0  0  0  0  0  0  0  0  0  0  0
  181.6950  178.5830  141.7010 C   0  0  0  0  0  1  0  0  0  0  0  0
  186.6580  177.6230  143.1550 C   0  0  0  0  0  0  0  0  0  0  0  0
  184.1770  178.0720  142.0630 C   0  0  0  0  0  0  0  0  0  0  0  0
  191.5310  176.3700  146.9840 O   0  0  0  0  0  0  0  0  0  0  0  0
  191.7200  176.7530  145.6400 C   0  0  1  0  0  3  0  0  0  0  0  0
  191.8780  175.3490  146.0840 C   0  0  1  0  0  3  0  0  0  0  0  0
  193.3500  175.0240  146.2490 C   0  0  0  0  0  2  0  0  0  0  0  0
  193.6640  173.7320  145.5790 C   0  0  0  0  0  0  0  0  0  0  0  0
  192.6450  172.9750  145.0160 O   0  0  0  0  0  0  0  0  0  0  0  0
  194.8570  173.3400  145.4960 O   0  0  0  0  0  1  0  0  0  0  0  0
  191.4010  175.1170  142.3480 C   0  0  0  0  0  1  0  0  0  0  0  0
  191.4060  176.5830  142.7420 C   0  0  0  0  0  2  0  0  0  0  0  0
  1 10  1  0  0  0  0
  3  2  1  0  0  0  0
  4 22  1  0  0  0  0
  5  4  1  0  0  0  0
  5 23  1  0  0  0  0
  6 14  1  0  0  0  0
  8 21  1  0  0  0  0
  8 23  1  0  0  0  0
  9  2  2  0  0  0  0
 10  7  1  0  0  0  0
 10 11  1  0  0  0  0
 11  9  1  0  0  0  0
 12 17  1  0  0  0  0
 13  8  2  0  0  0  0
 14  7  2  0  0  0  0
 15 13  1  0  0  0  0
 15  5  2  0  0  0  0
 16  3  2  0  0  0  0
 17 11  2  0  0  0  0
 17 16  1  0  0  0  0
 18 12  1  0  0  0  0
 19  6  1  0  0  0  0
 19  1  2  0  0  0  0
 20  4  2  0  0  0  0
 22  1  1  0  0  0  0
 22 12  2  0  0  0  0
 23 18  2  0  0  0  0
 25 14  1  6  0  0  0
 25 26  1  0  0  0  0
 25 24  1  0  0  0  0
 26 27  1  1  0  0  0
 26 24  1  0  0  0  0
 28 27  1  0  0  0  0
 29 28  2  0  0  0  0
 30 28  1  0  0  0  0
 31 32  1  0  0  0  0
 32  6  1  0  0  0  0
M  END
>  <MODEL>
1

>  <REMARK>
 VINA RESULT:      -8.6      0.000      0.000
  Name = 
  4 active torsions:
  status: ('A' for Active; 'I' for Inactive)
    1  A    between atoms: N_7  and  C_19
    2  A    between atoms: C_10  and  C_17
    3  A    between atoms: C_20  and  C_29
    4  A    between atoms: C_29  and  C_30
                            x       y       z     vdW  Elec       q    Type
                         _______ _______ _______ _____ _____    ______ ____

>  <TORSDO>
F 4

$$$$
=
 OpenBabel11112416393D

 32 37  0  0  1  0  0  0  0  0999 V2000
  186.8300  177.3130  143.0460 C   0  0  0  0  0  0  0  0  0  0  0  0
  184.3330  178.5390  146.9980 C   0  0  0  0  0  3  0  0  0  0  0  0
  185.3900  178.1090  147.7990 C   0  0  0  0  0  3  0  0  0  0  0  0
  189.1300  176.3250  143.2900 C   0  0  0  0  0  0  0  0  0  0  0  0
  190.1290  175.9230  144.1660 C   0  0  0  0  0  0  0  0  0  0  0  0
  185.8490  177.6570  140.8760 N   0  0  0  0  0  0  0  0  0  0  0  0
  184.6570  178.2520  142.8460 C   0  0  0  0  0  3  0  0  0  0  0  0
  191.1120  175.5650  146.0650 C   0  0  0  0  0  0  0  0  0  0  0  0
  184.4320  178.4470  145.6090 C   0  0  0  0  0  3  0  0  0  0  0  0
  185.6930  177.8290  143.6320 N   0  0  0  0  0  0  0  0  0  0  0  0
  185.5890  177.9220  144.9950 C   0  0  0  0  0  0  0  0  0  0  0  0
  187.8160  176.9650  145.2270 C   0  0  0  0  0  0  0  0  0  0  0  0
  191.9380  175.1710  145.0670 N   0  0  0  0  0  0  0  0  0  0  0  0
  184.7300  178.1830  141.4540 C   0  0  0  0  0  0  0  0  0  0  0  0
  191.3370  175.3900  143.8970 N   0  0  0  0  0  0  0  0  0  0  0  0
  186.5420  177.5880  147.2120 C   0  0  0  0  0  3  0  0  0  0  0  0
  186.6540  177.4890  145.8140 C   0  0  0  0  0  0  0  0  0  0  0  0
  188.8390  176.5500  146.0450 N   0  0  0  0  0  0  0  0  0  0  0  0
  186.8840  177.2310  141.6450 C   0  0  0  0  0  3  0  0  0  0  0  0
  189.3130  176.2020  142.0480 O   0  0  0  0  0  0  0  0  0  0  0  0
  191.4300  175.4790  147.5160 C   0  0  0  0  0  1  0  0  0  0  0  0
  187.9220  176.8680  143.8510 C   0  0  0  0  0  0  0  0  0  0  0  0
  189.9630  176.0430  145.4960 C   0  0  0  0  0  0  0  0  0  0  0  0
  182.8770  177.5000  140.1050 O   0  0  0  0  0  0  0  0  0  0  0  0
  183.5490  178.6220  140.6320 C   0  0  1  0  0  3  0  0  0  0  0  0
  182.2890  178.1140  141.2220 C   0  0  1  0  0  3  0  0  0  0  0  0
  181.1240  178.9670  140.7610 C   0  0  0  0  0  2  0  0  0  0  0  0
  179.8820  178.1480  140.7080 C   0  0  0  0  0  0  0  0  0  0  0  0
  179.3700  177.5860  141.8690 O   0  0  0  0  0  1  0  0  0  0  0  0
  179.2790  177.9890  139.6150 O   0  0  0  0  0  0  0  0  0  0  0  0
  187.0310  176.4920  139.0820 C   0  0  0  0  0  1  0  0  0  0  0  0
  185.9730  177.5260  139.4280 C   0  0  0  0  0  2  0  0  0  0  0  0
  1 10  1  0  0  0  0
  1 22  1  0  0  0  0
  2  3  1  0  0  0  0
  4 22  1  0  0  0  0
  4  5  1  0  0  0  0
  5 23  1  0  0  0  0
  6 14  1  0  0  0  0
  6 19  1  0  0  0  0
  7 10  1  0  0  0  0
  8 21  1  0  0  0  0
  9  2  2  0  0  0  0
 10 11  1  0  0  0  0
 11  9  1  0  0  0  0
 11 17  2  0  0  0  0
 12 17  1  0  0  0  0
 12 18  1  0  0  0  0
 13  8  2  0  0  0  0
 14  7  2  0  0  0  0
 15  5  2  0  0  0  0
 15 13  1  0  0  0  0
 16  3  2  0  0  0  0
 17 16  1  0  0  0  0
 19  1  2  0  0  0  0
 20  4  2  0  0  0  0
 22 12  2  0  0  0  0
 23 18  2  0  0  0  0
 23  8  1  0  0  0  0
 24 25  1  0  0  0  0
 24 26  1  0  0  0  0
 25 26  1  0  0  0  0
 25 14  1  1  0  0  0
 26 27  1  6  0  0  0
 28 27  1  0  0  0  0
 28 29  1  0  0  0  0
 30 28  2  0  0  0  0
 31 32  1  0  0  0  0
 32  6  1  0  0  0  0
M  END
>  <MODEL>
2

>  <REMARK>
 VINA RESULT:      -8.3      2.567      7.987
  Name = 
  4 active torsions:
  status: ('A' for Active; 'I' for Inactive)
    1  A    between atoms: N_7  and  C_19
    2  A    between atoms: C_10  and  C_17
    3  A    between atoms: C_20  and  C_29
    4  A    between atoms: C_29  and  C_30
                            x       y       z     vdW  Elec       q    Type
                         _______ _______ _______ _____ _____    ______ ____

>  <TORSDO>
F 4

$$$$
=
 OpenBabel11112416393D

 32 37  0  0  1  0  0  0  0  0999 V2000
  189.5500  175.7500  144.4700 C   0  0  0  0  0  0  0  0  0  0  0  0
  189.8080  173.7010  140.1010 C   0  0  0  0  0  3  0  0  0  0  0  0
  188.5830  174.2720  139.7600 C   0  0  0  0  0  3  0  0  0  0  0  0
  187.5610  177.1730  145.0560 C   0  0  0  0  0  0  0  0  0  0  0  0
  186.3490  177.6980  144.6300 C   0  0  0  0  0  0  0  0  0  0  0  0
  191.3290  175.3890  146.0500 N   0  0  0  0  0  0  0  0  0  0  0  0
  191.4190  174.4040  143.8860 C   0  0  0  0  0  3  0  0  0  0  0  0
  184.6890  178.0910  143.2920 C   0  0  0  0  0  0  0  0  0  0  0  0
  190.3550  173.9300  141.3640 C   0  0  0  0  0  3  0  0  0  0  0  0
  190.2160  174.9630  143.5540 N   0  0  0  0  0  0  0  0  0  0  0  0
  189.6860  174.7340  142.3110 C   0  0  0  0  0  0  0  0  0  0  0  0
  187.7610  176.1120  142.8830 C   0  0  0  0  0  0  0  0  0  0  0  0
  184.4640  178.7320  144.4640 N   0  0  0  0  0  0  0  0  0  0  0  0
  191.9970  174.6240  145.1380 C   0  0  0  0  0  0  0  0  0  0  0  0
  185.4840  178.4930  145.2890 N   0  0  0  0  0  2  0  0  0  0  0  0
  187.9060  175.0700  140.6830 C   0  0  0  0  0  3  0  0  0  0  0  0
  188.4450  175.3080  141.9590 C   0  0  0  0  0  0  0  0  0  0  0  0
  186.5550  176.6590  142.5170 N   0  0  0  0  0  2  0  0  0  0  0  0
  190.1330  175.9480  145.7320 C   0  0  0  0  0  3  0  0  0  0  0  0
  187.9730  177.4370  146.2190 O   0  0  0  0  0  0  0  0  0  0  0  0
  183.7740  178.1180  142.1190 C   0  0  0  0  0  1  0  0  0  0  0  0
  188.2950  176.3430  144.1390 C   0  0  0  0  0  0  0  0  0  0  0  0
  185.8850  177.4340  143.3950 C   0  0  0  0  0  0  0  0  0  0  0  0
  193.9810  173.5890  144.2940 O   0  0  0  0  0  0  0  0  0  0  0  0
  193.3020  173.9550  145.4740 C   0  0  1  0  0  3  0  0  0  0  0  0
  194.4400  174.7440  144.9480 C   0  0  1  0  0  3  0  0  0  0  0  0
  195.7010  174.4060  145.7210 C   0  0  0  0  0  2  0  0  0  0  0  0
  196.8920  174.5570  144.8410 C   0  0  0  0  0  0  0  0  0  0  0  0
  196.8740  175.4710  143.7960 O   0  0  0  0  0  0  0  0  0  0  0  0
  197.9280  173.8790  145.0640 O   0  0  0  0  0  1  0  0  0  0  0  0
  191.1270  176.7800  148.0490 C   0  0  0  0  0  1  0  0  0  0  0  0
  191.8630  175.6280  147.3870 C   0  0  0  0  0  2  0  0  0  0  0  0
  1 19  2  0  0  0  0
  2  9  1  0  0  0  0
  3  2  2  0  0  0  0
  3 16  1  0  0  0  0
  4 20  2  0  0  0  0
  5  4  1  0  0  0  0
  5 15  1  0  0  0  0
  6 32  1  0  0  0  0
  7 14  2  0  0  0  0
  8 23  1  0  0  0  0
  8 13  2  0  0  0  0
  9 11  2  0  0  0  0
 10  7  1  0  0  0  0
 10  1  1  0  0  0  0
 11 10  1  0  0  0  0
 12 22  2  0  0  0  0
 13 15  1  0  0  0  0
 14  6  1  0  0  0  0
 16 17  2  0  0  0  0
 17 11  1  0  0  0  0
 17 12  1  0  0  0  0
 18 12  1  0  0  0  0
 18 23  1  0  0  0  0
 19  6  1  0  0  0  0
 21  8  1  0  0  0  0
 22  1  1  0  0  0  0
 22  4  1  0  0  0  0
 23  5  2  0  0  0  0
 24 26  1  0  0  0  0
 24 25  1  0  0  0  0
 25 14  1  6  0  0  0
 26 25  1  0  0  0  0
 26 27  1  1  0  0  0
 28 30  1  0  0  0  0
 28 27  1  0  0  0  0
 29 28  2  0  0  0  0
 32 31  1  0  0  0  0
M  END
>  <MODEL>
3

>  <REMARK>
 VINA RESULT:      -7.5      2.269      4.738
  Name = 
  4 active torsions:
  status: ('A' for Active; 'I' for Inactive)
    1  A    between atoms: N_7  and  C_19
    2  A    between atoms: C_10  and  C_17
    3  A    between atoms: C_20  and  C_29
    4  A    between atoms: C_29  and  C_30
                            x       y       z     vdW  Elec       q    Type
                         _______ _______ _______ _____ _____    ______ ____

>  <TORSDO>
F 4

$$$$
=
 OpenBabel11112416393D

 32 37  0  0  1  0  0  0  0  0999 V2000
  188.8510  175.1760  143.5050 C   0  0  0  0  0  0  0  0  0  0  0  0
  192.3280  175.2970  146.8590 C   0  0  0  0  0  3  0  0  0  0  0  0
  191.5660  176.1860  147.6170 C   0  0  0  0  0  3  0  0  0  0  0  0
  186.7630  176.5390  143.8340 C   0  0  0  0  0  0  0  0  0  0  0  0
  186.0780  177.4240  144.6530 C   0  0  0  0  0  0  0  0  0  0  0  0
  189.1500  173.8130  141.5440 N   0  0  0  0  0  0  0  0  0  0  0  0
  190.8330  173.8960  143.2230 C   0  0  0  0  0  3  0  0  0  0  0  0
  185.7000  178.6880  146.3740 C   0  0  0  0  0  0  0  0  0  0  0  0
  191.8370  174.8230  145.6420 C   0  0  0  0  0  3  0  0  0  0  0  0
  190.0860  174.7690  143.9650 N   0  0  0  0  0  0  0  0  0  0  0  0
  190.5750  175.2300  145.1590 C   0  0  0  0  0  0  0  0  0  0  0  0
  188.5520  176.5480  145.4730 C   0  0  0  0  0  0  0  0  0  0  0  0
  184.6390  178.7660  145.5370 N   0  0  0  0  0  0  0  0  0  0  0  0
  190.3650  173.3950  142.0070 C   0  0  0  0  0  0  0  0  0  0  0  0
  184.8670  177.9880  144.4780 N   0  0  0  0  0  0  0  0  0  0  0  0
  190.3170  176.5990  147.1570 C   0  0  0  0  0  3  0  0  0  0  0  0
  189.8100  176.1300  145.9320 C   0  0  0  0  0  0  0  0  0  0  0  0
  187.8270  177.4250  146.2430 N   0  0  0  0  0  0  0  0  0  0  0  0
  188.4000  174.6800  142.2700 C   0  0  0  0  0  3  0  0  0  0  0  0
  186.2360  176.1670  142.7500 O   0  0  0  0  0  0  0  0  0  0  0  0
  185.8180  179.4150  147.6660 C   0  0  0  0  0  1  0  0  0  0  0  0
  188.0580  176.0850  144.2670 C   0  0  0  0  0  0  0  0  0  0  0  0
  186.6150  177.8370  145.8160 C   0  0  0  0  0  0  0  0  0  0  0  0
  192.1280  171.7810  142.0550 O   0  0  0  0  0  0  0  0  0  0  0  0
  191.2390  172.4700  141.2050 C   0  0  1  0  0  3  0  0  0  0  0  0
  191.0080  171.0620  141.6060 C   0  0  1  0  0  3  0  0  0  0  0  0
  191.4340  170.1320  140.4860 C   0  0  0  0  0  2  0  0  0  0  0  0
  190.8390  168.7830  140.6920 C   0  0  0  0  0  0  0  0  0  0  0  0
  190.8150  168.2200  141.9610 O   0  0  0  0  0  1  0  0  0  0  0  0
  190.3290  168.1660  139.7220 O   0  0  0  0  0  0  0  0  0  0  0  0
  188.1920  174.5390  139.4170 C   0  0  0  0  0  1  0  0  0  0  0  0
  188.6190  173.3530  140.2650 C   0  0  0  0  0  2  0  0  0  0  0  0
  1 10  1  0  0  0  0
  1 22  1  0  0  0  0
  2  3  1  0  0  0  0
  4 22  1  0  0  0  0
  4  5  1  0  0  0  0
  5 23  1  0  0  0  0
  6 14  1  0  0  0  0
  6 19  1  0  0  0  0
  7 10  1  0  0  0  0
  8 21  1  0  0  0  0
  9  2  2  0  0  0  0
 10 11  1  0  0  0  0
 11  9  1  0  0  0  0
 11 17  2  0  0  0  0
 12 17  1  0  0  0  0
 12 18  1  0  0  0  0
 13  8  2  0  0  0  0
 14  7  2  0  0  0  0
 15  5  2  0  0  0  0
 15 13  1  0  0  0  0
 16  3  2  0  0  0  0
 17 16  1  0  0  0  0
 19  1  2  0  0  0  0
 20  4  2  0  0  0  0
 22 12  2  0  0  0  0
 23 18  2  0  0  0  0
 23  8  1  0  0  0  0
 25 26  1  0  0  0  0
 25 14  1  1  0  0  0
 25 24  1  0  0  0  0
 26 27  1  6  0  0  0
 26 24  1  0  0  0  0
 27 28  1  0  0  0  0
 28 29  1  0  0  0  0
 30 28  2  0  0  0  0
 31 32  1  0  0  0  0
 32  6  1  0  0  0  0
M  END
>  <MODEL>
4

>  <REMARK>
 VINA RESULT:      -7.4      3.081      5.358
  Name = 
  4 active torsions:
  status: ('A' for Active; 'I' for Inactive)
    1  A    between atoms: N_7  and  C_19
    2  A    between atoms: C_10  and  C_17
    3  A    between atoms: C_20  and  C_29
    4  A    between atoms: C_29  and  C_30
                            x       y       z     vdW  Elec       q    Type
                         _______ _______ _______ _____ _____    ______ ____

>  <TORSDO>
F 4

$$$$
=
 OpenBabel11112416393D

 32 37  0  0  1  0  0  0  0  0999 V2000
  188.8750  176.5560  144.5960 C   0  0  0  0  0  0  0  0  0  0  0  0
  188.6140  174.1930  140.3890 C   0  0  0  0  0  3  0  0  0  0  0  0
  189.9420  173.7920  140.5310 C   0  0  0  0  0  3  0  0  0  0  0  0
  191.0250  176.5320  145.9010 C   0  0  0  0  0  0  0  0  0  0  0  0
  192.3380  176.0860  145.9570 C   0  0  0  0  0  0  0  0  0  0  0  0
  186.9420  177.7390  145.4070 N   0  0  0  0  0  0  0  0  0  0  0  0
  186.8550  176.5580  143.3440 C   0  0  0  0  0  3  0  0  0  0  0  0
  194.1400  175.0600  145.3250 C   0  0  0  0  0  0  0  0  0  0  0  0
  188.0170  174.9840  141.3710 C   0  0  0  0  0  3  0  0  0  0  0  0
  188.1580  176.1660  143.4840 N   0  0  0  0  0  0  0  0  0  0  0  0
  188.7370  175.3900  142.5150 C   0  0  0  0  0  0  0  0  0  0  0  0
  190.8180  175.3690  143.7810 C   0  0  0  0  0  0  0  0  0  0  0  0
  194.3790  175.6660  146.5130 N   0  0  0  0  0  0  0  0  0  0  0  0
  186.2270  177.3390  144.3150 C   0  0  0  0  0  0  0  0  0  0  0  0
  193.2720  176.2980  146.9040 N   0  0  0  0  0  2  0  0  0  0  0  0
  190.6700  174.1830  141.6550 C   0  0  0  0  0  3  0  0  0  0  0  0
  190.0810  174.9790  142.6520 C   0  0  0  0  0  0  0  0  0  0  0  0
  192.1240  174.9580  143.8910 N   0  0  0  0  0  2  0  0  0  0  0  0
  188.2370  177.3580  145.5570 C   0  0  0  0  0  3  0  0  0  0  0  0
  190.5740  177.2440  146.8390 O   0  0  0  0  0  0  0  0  0  0  0  0
  195.1350  174.2540  144.5680 C   0  0  0  0  0  1  0  0  0  0  0  0
  190.2350  176.1550  144.7590 C   0  0  0  0  0  0  0  0  0  0  0  0
  192.8460  175.3240  144.9700 C   0  0  0  0  0  0  0  0  0  0  0  0
  184.7530  179.1740  143.8870 O   0  0  0  0  0  0  0  0  0  0  0  0
  184.8050  177.7810  144.0990 C   0  0  1  0  0  3  0  0  0  0  0  0
  184.6430  178.3630  142.7460 C   0  0  1  0  0  3  0  0  0  0  0  0
  183.1870  178.2940  142.3280 C   0  0  0  0  0  2  0  0  0  0  0  0
  183.0870  178.2380  140.8430 C   0  0  0  0  0  0  0  0  0  0  0  0
  181.8500  178.0730  140.2360 O   0  0  0  0  0  1  0  0  0  0  0  0
  184.1200  178.3720  140.1380 O   0  0  0  0  0  0  0  0  0  0  0  0
  185.9610  177.7470  147.6450 C   0  0  0  0  0  1  0  0  0  0  0  0
  186.3540  178.5850  146.4410 C   0  0  0  0  0  2  0  0  0  0  0  0
  1 22  1  0  0  0  0
  1 19  2  0  0  0  0
  2  3  2  0  0  0  0
  2  9  1  0  0  0  0
  3 16  1  0  0  0  0
  4  5  1  0  0  0  0
  4 20  2  0  0  0  0
  5 15  1  0  0  0  0
  6 19  1  0  0  0  0
  6 32  1  0  0  0  0
  7 10  1  0  0  0  0
  7 14  2  0  0  0  0
  8 13  2  0  0  0  0
  9 11  2  0  0  0  0
 10  1  1  0  0  0  0
 11 17  1  0  0  0  0
 11 10  1  0  0  0  0
 12 18  1  0  0  0  0
 12 22  2  0  0  0  0
 13 15  1  0  0  0  0
 14  6  1  0  0  0  0
 16 17  2  0  0  0  0
 17 12  1  0  0  0  0
 18 23  1  0  0  0  0
 21  8  1  0  0  0  0
 22  4  1  0  0  0  0
 23  8  1  0  0  0  0
 23  5  2  0  0  0  0
 24 25  1  0  0  0  0
 25 14  1  6  0  0  0
 26 27  1  1  0  0  0
 26 24  1  0  0  0  0
 26 25  1  0  0  0  0
 28 27  1  0  0  0  0
 29 28  1  0  0  0  0
 30 28  2  0  0  0  0
 32 31  1  0  0  0  0
M  END
>  <MODEL>
5

>  <REMARK>
 VINA RESULT:      -7.3      2.474      8.569
  Name = 
  4 active torsions:
  status: ('A' for Active; 'I' for Inactive)
    1  A    between atoms: N_7  and  C_19
    2  A    between atoms: C_10  and  C_17
    3  A    between atoms: C_20  and  C_29
    4  A    between atoms: C_29  and  C_30
                            x       y       z     vdW  Elec       q    Type
                         _______ _______ _______ _____ _____    ______ ____

>  <TORSDO>
F 4

$$$$
=
 OpenBabel11112416393D

 32 37  0  0  1  0  0  0  0  0999 V2000
  190.3260  176.1730  145.1680 C   0  0  0  0  0  0  0  0  0  0  0  0
  188.6880  174.5770  140.9110 C   0  0  0  0  0  3  0  0  0  0  0  0
  187.4360  175.1260  141.1870 C   0  0  0  0  0  3  0  0  0  0  0  0
  188.7830  177.4460  146.6920 C   0  0  0  0  0  0  0  0  0  0  0  0
  187.5080  177.9590  146.8790 C   0  0  0  0  0  0  0  0  0  0  0  0
  192.6080  175.7330  145.7940 N   0  0  0  0  0  0  0  0  0  0  0  0
  191.7630  174.9710  143.7060 C   0  0  0  0  0  3  0  0  0  0  0  0
  185.4370  178.4120  146.4240 C   0  0  0  0  0  0  0  0  0  0  0  0
  189.7220  174.7030  141.8390 C   0  0  0  0  0  3  0  0  0  0  0  0
  190.5350  175.5090  143.9770 N   0  0  0  0  0  0  0  0  0  0  0  0
  189.5240  175.3810  143.0610 C   0  0  0  0  0  0  0  0  0  0  0  0
  188.0330  176.6130  144.5400 C   0  0  0  0  0  0  0  0  0  0  0  0
  185.7360  178.9240  147.6410 N   0  0  0  0  0  0  0  0  0  0  0  0
  192.8200  175.0900  144.6090 C   0  0  0  0  0  0  0  0  0  0  0  0
  187.0090  178.6480  147.9240 N   0  0  0  0  0  2  0  0  0  0  0  0
  187.2210  175.8000  142.3890 C   0  0  0  0  0  3  0  0  0  0  0  0
  188.2540  175.9340  143.3320 C   0  0  0  0  0  0  0  0  0  0  0  0
  186.7890  177.1430  144.7810 N   0  0  0  0  0  2  0  0  0  0  0  0
  191.3930  176.2700  146.0770 C   0  0  0  0  0  3  0  0  0  0  0  0
  189.6530  177.6120  147.5910 O   0  0  0  0  0  0  0  0  0  0  0  0
  184.1090  178.5150  145.7610 C   0  0  0  0  0  1  0  0  0  0  0  0
  189.0520  176.7420  145.4670 C   0  0  0  0  0  0  0  0  0  0  0  0
  186.5600  177.7990  145.9380 C   0  0  0  0  0  0  0  0  0  0  0  0
  194.2800  174.2920  142.8910 O   0  0  0  0  0  0  0  0  0  0  0  0
  194.1410  174.4470  144.2860 C   0  0  1  0  0  3  0  0  0  0  0  0
  194.9790  175.3610  143.4750 C   0  0  1  0  0  3  0  0  0  0  0  0
  196.4400  174.9800  143.6140 C   0  0  0  0  0  2  0  0  0  0  0  0
  197.2800  175.8650  142.7610 C   0  0  0  0  0  0  0  0  0  0  0  0
  197.5060  177.1820  143.1370 O   0  0  0  0  0  1  0  0  0  0  0  0
  197.8120  175.4110  141.7160 O   0  0  0  0  0  0  0  0  0  0  0  0
  194.4150  177.1660  146.6010 C   0  0  0  0  0  1  0  0  0  0  0  0
  193.6620  175.8620  146.7950 C   0  0  0  0  0  2  0  0  0  0  0  0
  1 22  1  0  0  0  0
  1 19  2  0  0  0  0
  2  3  2  0  0  0  0
  2  9  1  0  0  0  0
  3 16  1  0  0  0  0
  4  5  1  0  0  0  0
  4 20  2  0  0  0  0
  5 15  1  0  0  0  0
  6 19  1  0  0  0  0
  6 32  1  0  0  0  0
  7 10  1  0  0  0  0
  7 14  2  0  0  0  0
  8 13  2  0  0  0  0
  9 11  2  0  0  0  0
 10  1  1  0  0  0  0
 11 17  1  0  0  0  0
 11 10  1  0  0  0  0
 12 18  1  0  0  0  0
 12 22  2  0  0  0  0
 13 15  1  0  0  0  0
 14  6  1  0  0  0  0
 16 17  2  0  0  0  0
 17 12  1  0  0  0  0
 18 23  1  0  0  0  0
 21  8  1  0  0  0  0
 22  4  1  0  0  0  0
 23  8  1  0  0  0  0
 23  5  2  0  0  0  0
 24 26  1  0  0  0  0
 24 25  1  0  0  0  0
 25 14  1  6  0  0  0
 26 27  1  1  0  0  0
 26 25  1  0  0  0  0
 28 29  1  0  0  0  0
 28 27  1  0  0  0  0
 30 28  2  0  0  0  0
 31 32  1  0  0  0  0
M  END
>  <MODEL>
6

>  <REMARK>
 VINA RESULT:      -7.3      2.795      5.286
  Name = 
  4 active torsions:
  status: ('A' for Active; 'I' for Inactive)
    1  A    between atoms: N_7  and  C_19
    2  A    between atoms: C_10  and  C_17
    3  A    between atoms: C_20  and  C_29
    4  A    between atoms: C_29  and  C_30
                            x       y       z     vdW  Elec       q    Type
                         _______ _______ _______ _____ _____    ______ ____

>  <TORSDO>
F 4

$$$$
=
 OpenBabel11112416393D

 32 37  0  0  1  0  0  0  0  0999 V2000
  189.8740  174.8500  143.2340 C   0  0  0  0  0  0  0  0  0  0  0  0
  191.4110  176.1540  147.6260 C   0  0  0  0  0  3  0  0  0  0  0  0
  190.4440  177.1580  147.6660 C   0  0  0  0  0  3  0  0  0  0  0  0
  187.9610  176.0890  142.1710 C   0  0  0  0  0  0  0  0  0  0  0  0
  187.0330  177.1120  142.3000 C   0  0  0  0  0  0  0  0  0  0  0  0
  190.9560  173.0240  142.0990 N   0  0  0  0  0  0  0  0  0  0  0  0
  191.6760  173.6940  144.2650 C   0  0  0  0  0  3  0  0  0  0  0  0
  185.9860  178.7710  143.2240 C   0  0  0  0  0  0  0  0  0  0  0  0
  191.5080  175.3270  146.5060 C   0  0  0  0  0  3  0  0  0  0  0  0
  190.7290  174.6790  144.3030 N   0  0  0  0  0  0  0  0  0  0  0  0
  190.6400  175.4880  145.4060 C   0  0  0  0  0  0  0  0  0  0  0  0
  188.7880  176.6860  144.3730 C   0  0  0  0  0  0  0  0  0  0  0  0
  185.4380  178.5340  142.0080 N   0  0  0  0  0  0  0  0  0  0  0  0
  191.7910  172.8430  143.1640 C   0  0  0  0  0  0  0  0  0  0  0  0
  186.0790  177.5140  141.4380 N   0  0  0  0  0  0  0  0  0  0  0  0
  189.5770  177.3330  146.5890 C   0  0  0  0  0  3  0  0  0  0  0  0
  189.6640  176.5070  145.4550 C   0  0  0  0  0  0  0  0  0  0  0  0
  187.8480  177.6850  144.4440 N   0  0  0  0  0  0  0  0  0  0  0  0
  190.0120  173.9990  142.1240 C   0  0  0  0  0  3  0  0  0  0  0  0
  187.9710  175.3940  141.1190 O   0  0  0  0  0  0  0  0  0  0  0  0
  185.5400  179.8340  144.1640 C   0  0  0  0  0  1  0  0  0  0  0  0
  188.8780  175.8710  143.2580 C   0  0  0  0  0  0  0  0  0  0  0  0
  186.9980  177.8700  143.4120 C   0  0  0  0  0  0  0  0  0  0  0  0
  193.2990  171.5180  144.4640 O   0  0  0  0  0  0  0  0  0  0  0  0
  192.8750  171.8010  143.1490 C   0  0  1  0  0  3  0  0  0  0  0  0
  192.4350  170.5840  143.8700 C   0  0  1  0  0  3  0  0  0  0  0  0
  193.2430  169.3880  143.4040 C   0  0  0  0  0  2  0  0  0  0  0  0
  193.7900  168.6550  144.5790 C   0  0  0  0  0  0  0  0  0  0  0  0
  195.1630  168.5400  144.7480 O   0  0  0  0  0  0  0  0  0  0  0  0
  193.0080  168.1670  145.4350 O   0  0  0  0  0  1  0  0  0  0  0  0
  189.7680  172.2940  140.0920 C   0  0  0  0  0  1  0  0  0  0  0  0
  191.0470  172.1900  140.9050 C   0  0  0  0  0  2  0  0  0  0  0  0
  1 22  1  0  0  0  0
  1 10  1  0  0  0  0
  2  3  1  0  0  0  0
  4  5  1  0  0  0  0
  4 22  1  0  0  0  0
  5 23  1  0  0  0  0
  6 19  1  0  0  0  0
  6 14  1  0  0  0  0
  7 10  1  0  0  0  0
  8 23  1  0  0  0  0
  8 21  1  0  0  0  0
  9  2  2  0  0  0  0
 10 11  1  0  0  0  0
 11 17  2  0  0  0  0
 11  9  1  0  0  0  0
 12 18  1  0  0  0  0
 12 17  1  0  0  0  0
 13  8  2  0  0  0  0
 14  7  2  0  0  0  0
 15 13  1  0  0  0  0
 15  5  2  0  0  0  0
 16  3  2  0  0  0  0
 17 16  1  0  0  0  0
 19  1  2  0  0  0  0
 20  4  2  0  0  0  0
 22 12  2  0  0  0  0
 23 18  2  0  0  0  0
 25 14  1  1  0  0  0
 25 26  1  0  0  0  0
 25 24  1  0  0  0  0
 26 27  1  6  0  0  0
 26 24  1  0  0  0  0
 27 28  1  0  0  0  0
 28 29  2  0  0  0  0
 28 30  1  0  0  0  0
 31 32  1  0  0  0  0
 32  6  1  0  0  0  0
M  END
>  <MODEL>
7

>  <REMARK>
 VINA RESULT:      -7.1      2.677      4.380
  Name = 
  4 active torsions:
  status: ('A' for Active; 'I' for Inactive)
    1  A    between atoms: N_7  and  C_19
    2  A    between atoms: C_10  and  C_17
    3  A    between atoms: C_20  and  C_29
    4  A    between atoms: C_29  and  C_30
                            x       y       z     vdW  Elec       q    Type
                         _______ _______ _______ _____ _____    ______ ____

>  <TORSDO>
F 4

$$$$
=
 OpenBabel11112416393D

 32 37  0  0  1  0  0  0  0  0999 V2000
  191.3000  175.9240  144.4230 C   0  0  0  0  0  0  0  0  0  0  0  0
  188.8960  173.4780  141.0190 C   0  0  0  0  0  3  0  0  0  0  0  0
  190.0820  173.3040  140.3060 C   0  0  0  0  0  3  0  0  0  0  0  0
  193.7780  176.2780  144.1790 C   0  0  0  0  0  0  0  0  0  0  0  0
  194.9060  176.0570  143.4030 C   0  0  0  0  0  0  0  0  0  0  0  0
  190.1030  176.7850  146.3250 N   0  0  0  0  0  0  0  0  0  0  0  0
  188.9600  175.5700  144.6300 C   0  0  0  0  0  3  0  0  0  0  0  0
  196.0870  175.3310  141.7350 C   0  0  0  0  0  0  0  0  0  0  0  0
  188.9070  174.1760  142.2270 C   0  0  0  0  0  3  0  0  0  0  0  0
  190.1230  175.4020  143.9300 N   0  0  0  0  0  0  0  0  0  0  0  0
  190.1040  174.7150  142.7450 C   0  0  0  0  0  0  0  0  0  0  0  0
  192.5030  175.0610  142.5120 C   0  0  0  0  0  0  0  0  0  0  0  0
  196.9040  175.9890  142.5920 N   0  0  0  0  0  0  0  0  0  0  0  0
  188.9400  176.2540  145.8470 C   0  0  0  0  0  0  0  0  0  0  0  0
  196.1810  176.4360  143.6190 N   0  0  0  0  0  2  0  0  0  0  0  0
  191.2750  173.8290  140.8010 C   0  0  0  0  0  3  0  0  0  0  0  0
  191.3000  174.5350  142.0170 C   0  0  0  0  0  0  0  0  0  0  0  0
  193.6540  174.8730  141.7850 N   0  0  0  0  0  2  0  0  0  0  0  0
  191.2640  176.6270  145.6390 C   0  0  0  0  0  3  0  0  0  0  0  0
  193.8890  176.9220  145.2580 O   0  0  0  0  0  0  0  0  0  0  0  0
  196.5270  174.6890  140.4670 C   0  0  0  0  0  1  0  0  0  0  0  0
  192.5240  175.7560  143.7080 C   0  0  0  0  0  0  0  0  0  0  0  0
  194.8190  175.3720  142.2470 C   0  0  0  0  0  0  0  0  0  0  0  0
  187.3380  177.8250  146.6750 O   0  0  0  0  0  0  0  0  0  0  0  0
  187.6310  176.4510  146.5600 C   0  0  1  0  0  3  0  0  0  0  0  0
  186.6520  177.1210  145.6730 C   0  0  1  0  0  3  0  0  0  0  0  0
  185.2420  176.8310  146.1500 C   0  0  0  0  0  2  0  0  0  0  0  0
  184.5040  178.1070  146.3620 C   0  0  0  0  0  0  0  0  0  0  0  0
  184.4290  178.6640  147.6310 O   0  0  0  0  0  1  0  0  0  0  0  0
  183.9760  178.6970  145.3840 O   0  0  0  0  0  0  0  0  0  0  0  0
  191.3690  177.1530  148.3830 C   0  0  0  0  0  1  0  0  0  0  0  0
  190.1430  177.5400  147.5740 C   0  0  0  0  0  2  0  0  0  0  0  0
  1 19  2  0  0  0  0
  2  9  1  0  0  0  0
  3 16  1  0  0  0  0
  3  2  2  0  0  0  0
  4 20  2  0  0  0  0
  5 15  1  0  0  0  0
  5  4  1  0  0  0  0
  6 32  1  0  0  0  0
  7 14  2  0  0  0  0
  8 23  1  0  0  0  0
  8 13  2  0  0  0  0
  9 11  2  0  0  0  0
 10  1  1  0  0  0  0
 10  7  1  0  0  0  0
 11 10  1  0  0  0  0
 12 22  2  0  0  0  0
 13 15  1  0  0  0  0
 14  6  1  0  0  0  0
 16 17  2  0  0  0  0
 17 12  1  0  0  0  0
 17 11  1  0  0  0  0
 18 23  1  0  0  0  0
 18 12  1  0  0  0  0
 19  6  1  0  0  0  0
 21  8  1  0  0  0  0
 22  4  1  0  0  0  0
 22  1  1  0  0  0  0
 23  5  2  0  0  0  0
 25 14  1  6  0  0  0
 25 24  1  0  0  0  0
 26 27  1  1  0  0  0
 26 25  1  0  0  0  0
 26 24  1  0  0  0  0
 27 28  1  0  0  0  0
 28 29  1  0  0  0  0
 30 28  2  0  0  0  0
 32 31  1  0  0  0  0
M  END
>  <MODEL>
8

>  <REMARK>
 VINA RESULT:      -6.9      3.584      8.503
  Name = 
  4 active torsions:
  status: ('A' for Active; 'I' for Inactive)
    1  A    between atoms: N_7  and  C_19
    2  A    between atoms: C_10  and  C_17
    3  A    between atoms: C_20  and  C_29
    4  A    between atoms: C_29  and  C_30
                            x       y       z     vdW  Elec       q    Type
                         _______ _______ _______ _____ _____    ______ ____

>  <TORSDO>
F 4

$$$$
=
 OpenBabel11112416393D

 32 37  0  0  1  0  0  0  0  0999 V2000
  190.3110  174.9120  143.6070 C   0  0  0  0  0  0  0  0  0  0  0  0
  191.3230  176.5580  148.0360 C   0  0  0  0  0  3  0  0  0  0  0  0
  190.3040  177.5020  147.9190 C   0  0  0  0  0  3  0  0  0  0  0  0
  188.4510  175.9700  142.2860 C   0  0  0  0  0  0  0  0  0  0  0  0
  187.4600  176.9400  142.2590 C   0  0  0  0  0  0  0  0  0  0  0  0
  191.5990  173.0920  142.7010 N   0  0  0  0  0  0  0  0  0  0  0  0
  192.0600  173.9280  144.8800 C   0  0  0  0  0  3  0  0  0  0  0  0
  186.2360  178.5840  142.9690 C   0  0  0  0  0  0  0  0  0  0  0  0
  191.5770  175.6740  146.9860 C   0  0  0  0  0  3  0  0  0  0  0  0
  191.0610  174.8550  144.7630 N   0  0  0  0  0  0  0  0  0  0  0  0
  190.8170  175.7190  145.7980 C   0  0  0  0  0  0  0  0  0  0  0  0
  189.0170  176.7420  144.5160 C   0  0  0  0  0  0  0  0  0  0  0  0
  185.8270  178.2440  141.7230 N   0  0  0  0  0  0  0  0  0  0  0  0
  192.3310  173.0240  143.8520 C   0  0  0  0  0  0  0  0  0  0  0  0
  186.5770  177.2330  141.2840 N   0  0  0  0  0  0  0  0  0  0  0  0
  189.5410  177.5620  146.7520 C   0  0  0  0  0  3  0  0  0  0  0  0
  189.7870  176.6780  145.6870 C   0  0  0  0  0  0  0  0  0  0  0  0
  188.0210  177.6840  144.4310 N   0  0  0  0  0  0  0  0  0  0  0  0
  190.6070  174.0090  142.5720 C   0  0  0  0  0  3  0  0  0  0  0  0
  188.6040  175.2160  141.2860 O   0  0  0  0  0  0  0  0  0  0  0  0
  185.6400  179.6700  143.7920 C   0  0  0  0  0  1  0  0  0  0  0  0
  189.2630  175.8710  143.4690 C   0  0  0  0  0  0  0  0  0  0  0  0
  187.2720  177.7580  143.3110 C   0  0  0  0  0  0  0  0  0  0  0  0
  194.6510  172.5880  143.4640 O   0  0  0  0  0  0  0  0  0  0  0  0
  193.4670  172.0500  144.0090 C   0  0  1  0  0  3  0  0  0  0  0  0
  194.5310  172.6260  144.8630 C   0  0  1  0  0  3  0  0  0  0  0  0
  195.3690  171.5130  145.4610 C   0  0  0  0  0  2  0  0  0  0  0  0
  196.7690  171.9810  145.6590 C   0  0  0  0  0  0  0  0  0  0  0  0
  197.0250  173.0980  146.4430 O   0  0  0  0  0  1  0  0  0  0  0  0
  197.7240  171.3470  145.1400 O   0  0  0  0  0  0  0  0  0  0  0  0
  190.5550  171.8440  140.8780 C   0  0  0  0  0  1  0  0  0  0  0  0
  191.8560  172.1980  141.5770 C   0  0  0  0  0  2  0  0  0  0  0  0
  1 10  1  0  0  0  0
  3  2  1  0  0  0  0
  4 22  1  0  0  0  0
  5  4  1  0  0  0  0
  5 23  1  0  0  0  0
  6 14  1  0  0  0  0
  8 23  1  0  0  0  0
  8 21  1  0  0  0  0
  9  2  2  0  0  0  0
 10  7  1  0  0  0  0
 10 11  1  0  0  0  0
 11  9  1  0  0  0  0
 12 17  1  0  0  0  0
 13  8  2  0  0  0  0
 14  7  2  0  0  0  0
 15 13  1  0  0  0  0
 15  5  2  0  0  0  0
 16  3  2  0  0  0  0
 17 11  2  0  0  0  0
 17 16  1  0  0  0  0
 18 12  1  0  0  0  0
 19  6  1  0  0  0  0
 19  1  2  0  0  0  0
 20  4  2  0  0  0  0
 22  1  1  0  0  0  0
 22 12  2  0  0  0  0
 23 18  2  0  0  0  0
 24 25  1  0  0  0  0
 24 26  1  0  0  0  0
 25 14  1  6  0  0  0
 25 26  1  0  0  0  0
 26 27  1  1  0  0  0
 27 28  1  0  0  0  0
 28 29  1  0  0  0  0
 30 28  2  0  0  0  0
 31 32  1  0  0  0  0
 32  6  1  0  0  0  0
M  END
>  <MODEL>
9

>  <REMARK>
 VINA RESULT:      -6.9      2.533      4.120
  Name = 
  4 active torsions:
  status: ('A' for Active; 'I' for Inactive)
    1  A    between atoms: N_7  and  C_19
    2  A    between atoms: C_10  and  C_17
    3  A    between atoms: C_20  and  C_29
    4  A    between atoms: C_29  and  C_30
                            x       y       z     vdW  Elec       q    Type
                         _______ _______ _______ _____ _____    ______ ____

>  <TORSDO>
F 4

$$$$
