=
 OpenBabel11112417423D

 28 32  0  0  1  0  0  0  0  0999 V2000
  189.4220  176.7460  145.3350 C   0  0  0  0  0  0  0  0  0  0  0  0
  194.2940  176.3480  144.0550 O   0  0  0  0  0  0  0  0  0  0  0  0
  188.9460  172.5540  142.3130 C   0  0  0  0  0  1  0  0  0  0  0  0
  188.9280  174.8030  147.2940 C   0  0  0  0  0  3  0  0  0  0  0  0
  191.3610  172.8650  142.3820 N   0  0  0  0  0  0  0  0  0  0  0  0
  189.6140  177.7550  144.2410 C   0  0  0  0  0  2  0  0  0  0  0  0
  194.0380  176.4920  146.4900 O   0  0  0  0  0  0  0  0  0  0  0  0
  194.0730  175.5560  145.3140 S   0  0  0  0  0  0  0  0  0  0  0  0
  194.8390  173.0870  145.5520 C   0  0  2  0  0  3  0  0  0  0  0  0
  192.5680  174.6790  145.2280 N   0  0  2  0  0  0  0  0  0  0  0  0
  187.0240  176.3750  141.7180 C   0  0  0  0  0  1  0  0  0  0  0  0
  191.3600  175.1510  143.1650 C   0  0  1  0  0  3  0  0  0  0  0  0
  194.0300  172.8120  144.2910 C   0  0  0  0  0  2  0  0  0  0  0  0
  195.3830  174.4380  145.5120 N   0  0  0  0  0  2  0  0  0  0  0  0
  188.2070  176.3180  142.6610 C   0  0  1  0  0  3  0  0  0  0  0  0
  190.3180  175.6680  145.4920 C   0  0  0  0  0  0  0  0  0  0  0  0
  190.0990  173.4860  141.9960 C   0  0  2  0  0  3  0  0  0  0  0  0
  195.9770  172.0940  145.6420 C   0  0  0  0  0  1  0  0  0  0  0  0
  189.3670  175.8020  141.9510 N   0  0  0  0  0  2  0  0  0  0  0  0
  190.0490  174.6950  146.4690 C   0  0  0  0  0  3  0  0  0  0  0  0
  188.3040  176.8530  146.1740 C   0  0  0  0  0  3  0  0  0  0  0  0
  188.0600  175.8860  147.1520 C   0  0  0  0  0  3  0  0  0  0  0  0
  188.4820  177.7180  143.2110 C   0  0  0  0  0  2  0  0  0  0  0  0
  192.1980  173.9160  142.9520 C   0  0  1  0  0  3  0  0  0  0  0  0
  189.9490  174.7640  142.7870 C   0  0  2  0  0  3  0  0  0  0  0  0
  192.6630  173.5110  144.3350 C   0  0  2  0  0  3  0  0  0  0  0  0
  192.0100  172.4280  141.1570 C   0  0  0  0  0  1  0  0  0  0  0  0
  191.5640  175.5610  144.6330 C   0  0  1  0  0  3  0  0  0  0  0  0
  1 16  2  0  0  0  0
  1 21  1  0  0  0  0
  2  8  2  0  0  0  0
  5 24  1  0  0  0  0
  6  1  1  0  0  0  0
  8 14  1  0  0  0  0
  8  7  2  0  0  0  0
  9 18  1  6  0  0  0
 10  8  1  6  0  0  0
 11 15  1  0  0  0  0
 12 28  1  0  0  0  0
 13 26  1  0  0  0  0
 13  9  1  0  0  0  0
 14  9  1  0  0  0  0
 15 23  1  0  0  0  0
 16 20  1  0  0  0  0
 17  3  1  0  0  0  0
 17  5  1  0  0  0  0
 17 25  1  0  0  0  0
 19 15  1  0  0  0  0
 19 25  1  0  0  0  0
 20  4  2  0  0  0  0
 21 22  2  0  0  0  0
 22  4  1  0  0  0  0
 23  6  1  0  0  0  0
 24 12  1  0  0  0  0
 24 26  1  0  0  0  0
 25 12  1  0  0  0  0
 26 10  1  0  0  0  0
 27  5  1  0  0  0  0
 28 10  1  0  0  0  0
 28 16  1  0  0  0  0
M  END
>  <MODEL>
1

>  <REMARK>
 VINA RESULT:      -8.0      0.000      0.000
  Name = 
  0 active torsions:
  status: ('A' for Active; 'I' for Inactive)
                            x       y       z     vdW  Elec       q    Type
                         _______ _______ _______ _____ _____    ______ ____

>  <TORSDO>
F 0

$$$$
=
 OpenBabel11112417423D

 28 32  0  0  1  0  0  0  0  0999 V2000
  190.6190  174.1770  142.2880 C   0  0  0  0  0  0  0  0  0  0  0  0
  188.4210  178.7020  141.8100 O   0  0  0  0  0  0  0  0  0  0  0  0
  189.0430  174.6440  147.2110 C   0  0  0  0  0  1  0  0  0  0  0  0
  188.5660  172.2680  142.3120 C   0  0  0  0  0  3  0  0  0  0  0  0
  188.0280  176.5930  146.1610 N   0  0  0  0  0  0  0  0  0  0  0  0
  191.7500  175.1610  142.3510 C   0  0  0  0  0  2  0  0  0  0  0  0
  187.5990  177.1460  140.1020 O   0  0  0  0  0  0  0  0  0  0  0  0
  187.3940  177.6470  141.5040 S   0  0  0  0  0  0  0  0  0  0  0  0
  185.0620  177.6090  142.6450 C   0  0  2  0  0  3  0  0  0  0  0  0
  187.5360  176.3150  142.6210 N   0  0  2  0  0  0  0  0  0  0  0  0
  193.1230  174.2450  145.8510 C   0  0  0  0  0  1  0  0  0  0  0  0
  189.3940  176.6220  144.1680 C   0  0  1  0  0  3  0  0  0  0  0  0
  185.8130  177.6240  143.9700 C   0  0  0  0  0  2  0  0  0  0  0  0
  185.8130  178.3460  141.6360 N   0  0  0  0  0  2  0  0  0  0  0  0
  192.0740  174.6390  144.8340 C   0  0  1  0  0  3  0  0  0  0  0  0
  189.2940  174.5780  142.5620 C   0  0  0  0  0  0  0  0  0  0  0  0
  189.2950  175.9360  146.4580 C   0  0  2  0  0  3  0  0  0  0  0  0
  183.7080  178.2590  142.8300 C   0  0  0  0  0  1  0  0  0  0  0  0
  191.4120  175.8590  145.2690 N   0  0  0  0  0  2  0  0  0  0  0  0
  188.2780  173.6070  142.5830 C   0  0  0  0  0  3  0  0  0  0  0  0
  190.8970  172.8330  142.0070 C   0  0  0  0  0  3  0  0  0  0  0  0
  189.8740  171.8830  142.0160 C   0  0  0  0  0  3  0  0  0  0  0  0
  192.7410  174.8360  143.4720 C   0  0  0  0  0  2  0  0  0  0  0  0
  188.1420  177.1540  144.8180 C   0  0  1  0  0  3  0  0  0  0  0  0
  189.9810  175.6330  145.1470 C   0  0  2  0  0  3  0  0  0  0  0  0
  187.0050  176.6550  143.9520 C   0  0  2  0  0  3  0  0  0  0  0  0
  187.9070  177.7150  147.0770 C   0  0  0  0  0  1  0  0  0  0  0  0
  188.9590  176.0370  142.8140 C   0  0  1  0  0  3  0  0  0  0  0  0
  1  6  1  0  0  0  0
  1 16  1  0  0  0  0
  4 20  1  0  0  0  0
  5 17  1  0  0  0  0
  5 27  1  0  0  0  0
  6 23  1  0  0  0  0
  7  8  2  0  0  0  0
  8 14  1  0  0  0  0
  8  2  2  0  0  0  0
  9 18  1  1  0  0  0
  9 13  1  0  0  0  0
 10  8  1  6  0  0  0
 10 28  1  0  0  0  0
 10 26  1  0  0  0  0
 12 24  1  0  0  0  0
 12 25  1  0  0  0  0
 14  9  1  0  0  0  0
 15 19  1  0  0  0  0
 15 11  1  0  0  0  0
 16 20  2  0  0  0  0
 16 28  1  0  0  0  0
 17  3  1  0  0  0  0
 21 22  1  0  0  0  0
 21  1  2  0  0  0  0
 22  4  2  0  0  0  0
 23 15  1  0  0  0  0
 24  5  1  0  0  0  0
 25 19  1  0  0  0  0
 25 17  1  0  0  0  0
 26 13  1  0  0  0  0
 26 24  1  0  0  0  0
 28 12  1  0  0  0  0
M  END
>  <MODEL>
2

>  <REMARK>
 VINA RESULT:      -8.0      3.098      6.899
  Name = 
  0 active torsions:
  status: ('A' for Active; 'I' for Inactive)
                            x       y       z     vdW  Elec       q    Type
                         _______ _______ _______ _____ _____    ______ ____

>  <TORSDO>
F 0

$$$$
=
 OpenBabel11112417423D

 28 32  0  0  1  0  0  0  0  0999 V2000
  190.4750  177.2980  144.7840 C   0  0  0  0  0  0  0  0  0  0  0  0
  195.0200  176.0440  142.9640 O   0  0  0  0  0  0  0  0  0  0  0  0
  189.6340  172.1890  144.4310 C   0  0  0  0  0  1  0  0  0  0  0  0
  190.4700  176.6290  147.5060 C   0  0  0  0  0  3  0  0  0  0  0  0
  191.9970  172.3590  143.8670 N   0  0  0  0  0  0  0  0  0  0  0  0
  190.4000  177.6100  143.3190 C   0  0  0  0  0  2  0  0  0  0  0  0
  195.2350  177.4030  144.9950 O   0  0  0  0  0  0  0  0  0  0  0  0
  195.0880  176.0040  144.4660 S   0  0  0  0  0  0  0  0  0  0  0  0
  196.0090  173.9480  145.7580 C   0  0  2  0  0  3  0  0  0  0  0  0
  193.6410  175.2860  145.1240 N   0  0  2  0  0  0  0  0  0  0  0  0
  187.4430  175.2960  142.3820 C   0  0  0  0  0  1  0  0  0  0  0  0
  192.0330  174.7260  143.3800 C   0  0  1  0  0  3  0  0  0  0  0  0
  194.9850  173.1240  144.9880 C   0  0  0  0  0  2  0  0  0  0  0  0
  196.4660  175.0650  144.9410 N   0  0  0  0  0  2  0  0  0  0  0  0
  188.7870  175.6550  142.9780 C   0  0  1  0  0  3  0  0  0  0  0  0
  191.4380  176.3960  145.2840 C   0  0  0  0  0  0  0  0  0  0  0  0
  190.6550  172.7720  143.4730 C   0  0  2  0  0  3  0  0  0  0  0  0
  197.1910  173.0730  146.1120 C   0  0  0  0  0  1  0  0  0  0  0  0
  189.8130  174.7900  142.4140 N   0  0  0  0  0  2  0  0  0  0  0  0
  191.4140  176.0600  146.6490 C   0  0  0  0  0  3  0  0  0  0  0  0
  189.5380  177.8720  145.6540 C   0  0  0  0  0  3  0  0  0  0  0  0
  189.5380  177.5410  147.0100 C   0  0  0  0  0  3  0  0  0  0  0  0
  189.0930  177.1240  142.6870 C   0  0  0  0  0  2  0  0  0  0  0  0
  192.8750  173.5070  143.6590 C   0  0  1  0  0  3  0  0  0  0  0  0
  190.5970  174.2800  143.5280 C   0  0  2  0  0  3  0  0  0  0  0  0
  193.6190  173.8250  144.9380 C   0  0  2  0  0  3  0  0  0  0  0  0
  192.4170  171.3320  142.9280 C   0  0  0  0  0  1  0  0  0  0  0  0
  192.4970  175.8050  144.3730 C   0  0  1  0  0  3  0  0  0  0  0  0
  1 16  2  0  0  0  0
  1 21  1  0  0  0  0
  2  8  2  0  0  0  0
  6  1  1  0  0  0  0
  8 14  1  0  0  0  0
  8  7  2  0  0  0  0
  9 18  1  6  0  0  0
 10  8  1  6  0  0  0
 11 15  1  0  0  0  0
 12 25  1  0  0  0  0
 12 24  1  0  0  0  0
 12 28  1  0  0  0  0
 13  9  1  0  0  0  0
 14  9  1  0  0  0  0
 16 20  1  0  0  0  0
 17 25  1  0  0  0  0
 17  5  1  0  0  0  0
 17  3  1  0  0  0  0
 19 15  1  0  0  0  0
 19 25  1  0  0  0  0
 20  4  2  0  0  0  0
 21 22  2  0  0  0  0
 22  4  1  0  0  0  0
 23 15  1  0  0  0  0
 23  6  1  0  0  0  0
 24  5  1  0  0  0  0
 24 26  1  0  0  0  0
 26 13  1  0  0  0  0
 26 10  1  0  0  0  0
 27  5  1  0  0  0  0
 28 10  1  0  0  0  0
 28 16  1  0  0  0  0
M  END
>  <MODEL>
3

>  <REMARK>
 VINA RESULT:      -7.8      1.483      1.538
  Name = 
  0 active torsions:
  status: ('A' for Active; 'I' for Inactive)
                            x       y       z     vdW  Elec       q    Type
                         _______ _______ _______ _____ _____    ______ ____

>  <TORSDO>
F 0

$$$$
=
 OpenBabel11112417423D

 28 32  0  0  1  0  0  0  0  0999 V2000
  191.6100  174.0270  142.9700 C   0  0  0  0  0  0  0  0  0  0  0  0
  189.0380  178.3270  142.3150 O   0  0  0  0  0  0  0  0  0  0  0  0
  191.1910  175.2910  147.9870 C   0  0  0  0  0  1  0  0  0  0  0  0
  189.7640  172.0860  143.7960 C   0  0  0  0  0  3  0  0  0  0  0  0
  189.8210  176.9940  146.9140 N   0  0  0  0  0  0  0  0  0  0  0  0
  192.6500  175.0420  142.5990 C   0  0  0  0  0  2  0  0  0  0  0  0
  187.9580  176.4720  141.1290 O   0  0  0  0  0  0  0  0  0  0  0  0
  188.0480  177.2020  142.4400 S   0  0  0  0  0  0  0  0  0  0  0  0
  186.0530  177.2880  144.1000 C   0  0  2  0  0  3  0  0  0  0  0  0
  188.5410  176.0890  143.6890 N   0  0  2  0  0  0  0  0  0  0  0  0
  194.8620  174.7930  145.7660 C   0  0  0  0  0  1  0  0  0  0  0  0
  190.6810  176.7200  144.6720 C   0  0  1  0  0  3  0  0  0  0  0  0
  187.0890  177.5560  145.1850 C   0  0  0  0  0  2  0  0  0  0  0  0
  186.4940  177.8620  142.8350 N   0  0  0  0  0  2  0  0  0  0  0  0
  193.5790  174.9710  144.9810 C   0  0  1  0  0  3  0  0  0  0  0  0
  190.3590  174.4260  143.4880 C   0  0  0  0  0  0  0  0  0  0  0  0
  191.1670  176.4400  146.9970 C   0  0  2  0  0  3  0  0  0  0  0  0
  184.7360  177.9160  144.5000 C   0  0  0  0  0  1  0  0  0  0  0  0
  192.9500  176.2260  145.3610 N   0  0  0  0  0  2  0  0  0  0  0  0
  189.4500  173.4420  143.9100 C   0  0  0  0  0  3  0  0  0  0  0  0
  191.9130  172.6640  142.8500 C   0  0  0  0  0  3  0  0  0  0  0  0
  190.9920  171.6970  143.2590 C   0  0  0  0  0  3  0  0  0  0  0  0
  193.8950  174.9500  143.4850 C   0  0  0  0  0  2  0  0  0  0  0  0
  189.5790  177.3170  145.5100 C   0  0  1  0  0  3  0  0  0  0  0  0
  191.5500  175.9350  145.6260 C   0  0  2  0  0  3  0  0  0  0  0  0
  188.3110  176.6390  145.0360 C   0  0  2  0  0  3  0  0  0  0  0  0
  189.8350  178.2540  147.6390 C   0  0  0  0  0  1  0  0  0  0  0  0
  189.9870  175.8950  143.5750 C   0  0  1  0  0  3  0  0  0  0  0  0
  1 16  1  0  0  0  0
  2  8  2  0  0  0  0
  4 20  1  0  0  0  0
  5 17  1  0  0  0  0
  5 27  1  0  0  0  0
  6  1  1  0  0  0  0
  6 23  1  0  0  0  0
  7  8  2  0  0  0  0
  8 14  1  0  0  0  0
  9 18  1  1  0  0  0
  9 13  1  0  0  0  0
 10  8  1  6  0  0  0
 10 26  1  0  0  0  0
 12 24  1  0  0  0  0
 12 25  1  0  0  0  0
 14  9  1  0  0  0  0
 15 19  1  0  0  0  0
 15 11  1  0  0  0  0
 16 28  1  0  0  0  0
 16 20  2  0  0  0  0
 17  3  1  0  0  0  0
 19 25  1  0  0  0  0
 21  1  2  0  0  0  0
 21 22  1  0  0  0  0
 22  4  2  0  0  0  0
 23 15  1  0  0  0  0
 24  5  1  0  0  0  0
 25 17  1  0  0  0  0
 26 13  1  0  0  0  0
 26 24  1  0  0  0  0
 28 10  1  0  0  0  0
 28 12  1  0  0  0  0
M  END
>  <MODEL>
4

>  <REMARK>
 VINA RESULT:      -7.6      2.920      6.557
  Name = 
  0 active torsions:
  status: ('A' for Active; 'I' for Inactive)
                            x       y       z     vdW  Elec       q    Type
                         _______ _______ _______ _____ _____    ______ ____

>  <TORSDO>
F 0

$$$$
=
 OpenBabel11112417423D

 28 32  0  0  1  0  0  0  0  0999 V2000
  194.9420  176.0760  144.0360 C   0  0  0  0  0  0  0  0  0  0  0  0
  190.2660  177.3660  145.4530 O   0  0  0  0  0  0  0  0  0  0  0  0
  192.6680  171.5430  142.9350 C   0  0  0  0  0  1  0  0  0  0  0  0
  195.0070  176.1810  141.2350 C   0  0  0  0  0  3  0  0  0  0  0  0
  190.7650  172.9370  143.5360 N   0  0  0  0  0  0  0  0  0  0  0  0
  194.9430  175.9370  145.5300 C   0  0  0  0  0  2  0  0  0  0  0  0
  191.1910  179.0110  143.8880 O   0  0  0  0  0  0  0  0  0  0  0  0
  190.4310  177.7200  144.0010 S   0  0  0  0  0  0  0  0  0  0  0  0
  188.7310  176.9680  142.1880 C   0  0  2  0  0  3  0  0  0  0  0  0
  191.2990  176.4620  143.1600 N   0  0  2  0  0  0  0  0  0  0  0  0
  195.8680  172.1860  145.7630 C   0  0  0  0  0  1  0  0  0  0  0  0
  191.9990  174.6790  144.6680 C   0  0  1  0  0  3  0  0  0  0  0  0
  188.9660  175.5490  142.6900 C   0  0  0  0  0  2  0  0  0  0  0  0
  188.8630  177.9150  143.2880 N   0  0  0  0  0  2  0  0  0  0  0  0
  195.0820  173.3930  145.2990 C   0  0  1  0  0  3  0  0  0  0  0  0
  193.7340  176.0600  143.3070 C   0  0  0  0  0  0  0  0  0  0  0  0
  192.0190  172.3760  144.0230 C   0  0  2  0  0  3  0  0  0  0  0  0
  187.3370  177.0690  141.6090 C   0  0  0  0  0  1  0  0  0  0  0  0
  193.6720  173.1980  145.6020 N   0  0  0  0  0  2  0  0  0  0  0  0
  193.7840  176.0990  141.9030 C   0  0  0  0  0  3  0  0  0  0  0  0
  196.1650  176.1680  143.3580 C   0  0  0  0  0  3  0  0  0  0  0  0
  196.1970  176.2230  141.9630 C   0  0  0  0  0  3  0  0  0  0  0  0
  195.6210  174.6440  145.9930 C   0  0  0  0  0  2  0  0  0  0  0  0
  190.6730  174.2960  144.0630 C   0  0  1  0  0  3  0  0  0  0  0  0
  192.9300  173.5220  144.3940 C   0  0  2  0  0  3  0  0  0  0  0  0
  190.4580  175.2750  142.9280 C   0  0  2  0  0  3  0  0  0  0  0  0
  189.6910  172.1740  144.1510 C   0  0  0  0  0  1  0  0  0  0  0  0
  192.3950  176.0170  144.0210 C   0  0  1  0  0  3  0  0  0  0  0  0
  1  6  1  0  0  0  0
  3 17  1  0  0  0  0
  4 20  2  0  0  0  0
  4 22  1  0  0  0  0
  5 17  1  0  0  0  0
  5 24  1  0  0  0  0
  5 27  1  0  0  0  0
  6 23  1  0  0  0  0
  7  8  2  0  0  0  0
  8  2  2  0  0  0  0
  9 18  1  1  0  0  0
  9 13  1  0  0  0  0
  9 14  1  0  0  0  0
 10  8  1  1  0  0  0
 10 28  1  0  0  0  0
 13 26  1  0  0  0  0
 14  8  1  0  0  0  0
 15 19  1  0  0  0  0
 15 11  1  0  0  0  0
 15 23  1  0  0  0  0
 16 28  1  0  0  0  0
 16  1  2  0  0  0  0
 17 25  1  0  0  0  0
 20 16  1  0  0  0  0
 21  1  1  0  0  0  0
 22 21  2  0  0  0  0
 24 12  1  0  0  0  0
 25 12  1  0  0  0  0
 25 19  1  0  0  0  0
 26 10  1  0  0  0  0
 26 24  1  0  0  0  0
 28 12  1  0  0  0  0
M  END
>  <MODEL>
5

>  <REMARK>
 VINA RESULT:      -7.4      2.530      6.138
  Name = 
  0 active torsions:
  status: ('A' for Active; 'I' for Inactive)
                            x       y       z     vdW  Elec       q    Type
                         _______ _______ _______ _____ _____    ______ ____

>  <TORSDO>
F 0

$$$$
=
 OpenBabel11112417423D

 28 32  0  0  1  0  0  0  0  0999 V2000
  188.5660  175.7610  145.5140 C   0  0  0  0  0  0  0  0  0  0  0  0
  189.7350  171.6690  142.7910 O   0  0  0  0  0  0  0  0  0  0  0  0
  193.4130  177.1660  144.3000 C   0  0  0  0  0  1  0  0  0  0  0  0
  188.0210  177.8260  143.6980 C   0  0  0  0  0  3  0  0  0  0  0  0
  193.1260  175.1330  142.9900 N   0  0  0  0  0  0  0  0  0  0  0  0
  188.9150  174.7130  146.5290 C   0  0  0  0  0  2  0  0  0  0  0  0
  187.6330  172.6660  142.0140 O   0  0  0  0  0  0  0  0  0  0  0  0
  189.1290  172.6890  141.8670 S   0  0  0  0  0  0  0  0  0  0  0  0
  190.2780  173.4130  139.6540 C   0  0  2  0  0  3  0  0  0  0  0  0
  189.7220  174.2850  142.2480 N   0  0  2  0  0  0  0  0  0  0  0  0
  191.8430  176.5460  148.2750 C   0  0  0  0  0  1  0  0  0  0  0  0
  191.2090  174.2640  144.1790 C   0  0  1  0  0  3  0  0  0  0  0  0
  191.5000  173.7380  140.5040 C   0  0  0  0  0  2  0  0  0  0  0  0
  189.5510  172.2910  140.2340 N   0  0  0  0  0  2  0  0  0  0  0  0
  191.0600  175.9790  147.1100 C   0  0  1  0  0  3  0  0  0  0  0  0
  189.0110  175.6540  144.1790 C   0  0  0  0  0  0  0  0  0  0  0  0
  193.1330  175.6760  144.3430 C   0  0  2  0  0  3  0  0  0  0  0  0
  190.7240  173.0480  138.2550 C   0  0  0  0  0  1  0  0  0  0  0  0
  191.9080  175.0720  146.3520 N   0  0  0  0  0  2  0  0  0  0  0  0
  188.7410  176.7030  143.2840 C   0  0  0  0  0  3  0  0  0  0  0  0
  187.8360  176.8870  145.9180 C   0  0  0  0  0  3  0  0  0  0  0  0
  187.5620  177.9140  145.0130 C   0  0  0  0  0  3  0  0  0  0  0  0
  189.8220  175.2560  147.6380 C   0  0  0  0  0  2  0  0  0  0  0  0
  192.0490  174.1480  142.9320 C   0  0  1  0  0  3  0  0  0  0  0  0
  191.7720  175.4340  144.9510 C   0  0  2  0  0  3  0  0  0  0  0  0
  191.1090  174.4790  141.7910 C   0  0  2  0  0  3  0  0  0  0  0  0
  194.3710  174.4040  142.8180 C   0  0  0  0  0  1  0  0  0  0  0  0
  189.7550  174.4200  143.7040 C   0  0  1  0  0  3  0  0  0  0  0  0
  1 21  1  0  0  0  0
  1  6  1  0  0  0  0
  3 17  1  0  0  0  0
  4 22  1  0  0  0  0
  5 17  1  0  0  0  0
  6 23  1  0  0  0  0
  8  7  2  0  0  0  0
  8  2  2  0  0  0  0
  9 18  1  6  0  0  0
  9 14  1  0  0  0  0
  9 13  1  0  0  0  0
 10  8  1  1  0  0  0
 10 28  1  0  0  0  0
 12 25  1  0  0  0  0
 13 26  1  0  0  0  0
 14  8  1  0  0  0  0
 15 23  1  0  0  0  0
 15 11  1  0  0  0  0
 16  1  2  0  0  0  0
 17 25  1  0  0  0  0
 19 15  1  0  0  0  0
 20  4  2  0  0  0  0
 20 16  1  0  0  0  0
 22 21  2  0  0  0  0
 24  5  1  0  0  0  0
 24 12  1  0  0  0  0
 25 19  1  0  0  0  0
 26 10  1  0  0  0  0
 26 24  1  0  0  0  0
 27  5  1  0  0  0  0
 28 16  1  0  0  0  0
 28 12  1  0  0  0  0
M  END
>  <MODEL>
6

>  <REMARK>
 VINA RESULT:      -7.2      2.865      5.127
  Name = 
  0 active torsions:
  status: ('A' for Active; 'I' for Inactive)
                            x       y       z     vdW  Elec       q    Type
                         _______ _______ _______ _____ _____    ______ ____

>  <TORSDO>
F 0

$$$$
=
 OpenBabel11112417423D

 28 32  0  0  1  0  0  0  0  0999 V2000
  187.8610  176.6710  144.4220 C   0  0  0  0  0  0  0  0  0  0  0  0
  189.0300  171.7830  143.8970 O   0  0  0  0  0  0  0  0  0  0  0  0
  192.9840  177.1660  145.0860 C   0  0  0  0  0  1  0  0  0  0  0  0
  188.5310  177.9370  142.0130 C   0  0  0  0  0  3  0  0  0  0  0  0
  192.7710  174.8160  144.4810 N   0  0  0  0  0  0  0  0  0  0  0  0
  187.5490  176.0580  145.7560 C   0  0  0  0  0  2  0  0  0  0  0  0
  187.6680  172.5650  142.0130 O   0  0  0  0  0  0  0  0  0  0  0  0
  189.0690  172.4240  142.5370 S   0  0  0  0  0  0  0  0  0  0  0  0
  191.1080  172.1800  140.9480 C   0  0  2  0  0  3  0  0  0  0  0  0
  189.8140  173.9990  142.6260 N   0  0  2  0  0  0  0  0  0  0  0  0
  189.9170  178.1960  147.9460 C   0  0  0  0  0  1  0  0  0  0  0  0
  190.4030  174.5960  144.9140 C   0  0  1  0  0  3  0  0  0  0  0  0
  191.9510  172.7120  142.1000 C   0  0  0  0  0  2  0  0  0  0  0  0
  189.9820  171.4130  141.4650 N   0  0  0  0  0  2  0  0  0  0  0  0
  189.5340  177.2920  146.7940 C   0  0  1  0  0  3  0  0  0  0  0  0
  188.7450  176.0390  143.5230 C   0  0  0  0  0  0  0  0  0  0  0  0
  192.3820  175.8250  145.4600 C   0  0  2  0  0  3  0  0  0  0  0  0
  191.9620  171.2860  140.0750 C   0  0  0  0  0  1  0  0  0  0  0  0
  190.3800  176.1080  146.8060 N   0  0  0  0  0  2  0  0  0  0  0  0
  189.0820  176.6930  142.3250 C   0  0  0  0  0  3  0  0  0  0  0  0
  187.3040  177.9160  144.0960 C   0  0  0  0  0  3  0  0  0  0  0  0
  187.6360  178.5450  142.8950 C   0  0  0  0  0  3  0  0  0  0  0  0
  188.0590  176.9100  146.9210 C   0  0  0  0  0  2  0  0  0  0  0  0
  191.6070  173.9620  144.2650 C   0  0  1  0  0  3  0  0  0  0  0  0
  190.8750  175.9270  145.4510 C   0  0  2  0  0  3  0  0  0  0  0  0
  191.2750  173.9070  142.7880 C   0  0  2  0  0  3  0  0  0  0  0  0
  193.7890  173.9890  145.1070 C   0  0  0  0  0  1  0  0  0  0  0  0
  189.3160  174.6670  143.8290 C   0  0  1  0  0  3  0  0  0  0  0  0
  1  6  1  0  0  0  0
  3 17  1  0  0  0  0
  4 20  2  0  0  0  0
  4 22  1  0  0  0  0
  5 27  1  0  0  0  0
  5 17  1  0  0  0  0
  6 23  1  0  0  0  0
  7  8  2  0  0  0  0
  8  2  2  0  0  0  0
  9 18  1  6  0  0  0
  9 14  1  0  0  0  0
  9 13  1  0  0  0  0
 10  8  1  1  0  0  0
 10 26  1  0  0  0  0
 10 28  1  0  0  0  0
 12 25  1  0  0  0  0
 13 26  1  0  0  0  0
 14  8  1  0  0  0  0
 15 19  1  0  0  0  0
 15 23  1  0  0  0  0
 15 11  1  0  0  0  0
 16 28  1  0  0  0  0
 16  1  2  0  0  0  0
 20 16  1  0  0  0  0
 21  1  1  0  0  0  0
 22 21  2  0  0  0  0
 24  5  1  0  0  0  0
 24 12  1  0  0  0  0
 25 17  1  0  0  0  0
 25 19  1  0  0  0  0
 26 24  1  0  0  0  0
 28 12  1  0  0  0  0
M  END
>  <MODEL>
7

>  <REMARK>
 VINA RESULT:      -7.1      2.769      4.914
  Name = 
  0 active torsions:
  status: ('A' for Active; 'I' for Inactive)
                            x       y       z     vdW  Elec       q    Type
                         _______ _______ _______ _____ _____    ______ ____

>  <TORSDO>
F 0

$$$$
=
 OpenBabel11112417423D

 28 32  0  0  1  0  0  0  0  0999 V2000
  189.6960  175.7850  144.9470 C   0  0  0  0  0  0  0  0  0  0  0  0
  191.9820  171.4640  143.6680 O   0  0  0  0  0  0  0  0  0  0  0  0
  194.5660  177.3670  145.7910 C   0  0  0  0  0  1  0  0  0  0  0  0
  190.0040  177.5460  142.7870 C   0  0  0  0  0  3  0  0  0  0  0  0
  194.9060  175.1630  144.8120 N   0  0  0  0  0  0  0  0  0  0  0  0
  189.5630  174.9090  146.1570 C   0  0  0  0  0  2  0  0  0  0  0  0
  190.4410  172.1940  141.9050 O   0  0  0  0  0  0  0  0  0  0  0  0
  191.8450  172.3070  142.4300 S   0  0  0  0  0  0  0  0  0  0  0  0
  193.8550  172.8130  140.8660 C   0  0  2  0  0  3  0  0  0  0  0  0
  192.1960  173.9780  142.7860 N   0  0  2  0  0  0  0  0  0  0  0  0
  191.3930  177.1660  148.7140 C   0  0  0  0  0  1  0  0  0  0  0  0
  192.6670  174.3210  145.1530 C   0  0  1  0  0  3  0  0  0  0  0  0
  194.5680  173.3370  142.1070 C   0  0  0  0  0  2  0  0  0  0  0  0
  192.9530  171.7270  141.2290 N   0  0  0  0  0  2  0  0  0  0  0  0
  191.2160  176.3940  147.4230 C   0  0  1  0  0  3  0  0  0  0  0  0
  190.6890  175.5350  143.9770 C   0  0  0  0  0  0  0  0  0  0  0  0
  194.3060  175.8800  145.9320 C   0  0  2  0  0  3  0  0  0  0  0  0
  194.8810  172.2990  139.8790 C   0  0  0  0  0  1  0  0  0  0  0  0
  192.3180  175.4590  147.2630 N   0  0  0  0  0  2  0  0  0  0  0  0
  190.8400  176.4340  142.9070 C   0  0  0  0  0  3  0  0  0  0  0  0
  188.8540  176.8980  144.8130 C   0  0  0  0  0  3  0  0  0  0  0  0
  189.0060  177.7730  143.7360 C   0  0  0  0  0  3  0  0  0  0  0  0
  189.8760  175.6580  147.4550 C   0  0  0  0  0  2  0  0  0  0  0  0
  193.9740  174.1030  144.4360 C   0  0  1  0  0  3  0  0  0  0  0  0
  192.8190  175.6210  145.9070 C   0  0  2  0  0  3  0  0  0  0  0  0
  193.6400  174.2100  142.9630 C   0  0  2  0  0  3  0  0  0  0  0  0
  196.1020  174.5110  145.3180 C   0  0  0  0  0  1  0  0  0  0  0  0
  191.5750  174.3060  144.0700 C   0  0  1  0  0  3  0  0  0  0  0  0
  1  6  1  0  0  0  0
  3 17  1  0  0  0  0
  4 20  2  0  0  0  0
  4 22  1  0  0  0  0
  5 27  1  0  0  0  0
  5 17  1  0  0  0  0
  6 23  1  0  0  0  0
  7  8  2  0  0  0  0
  8  2  2  0  0  0  0
  9 18  1  6  0  0  0
  9 14  1  0  0  0  0
  9 13  1  0  0  0  0
 10  8  1  1  0  0  0
 10 26  1  0  0  0  0
 10 28  1  0  0  0  0
 12 25  1  0  0  0  0
 13 26  1  0  0  0  0
 14  8  1  0  0  0  0
 15 23  1  0  0  0  0
 15 11  1  0  0  0  0
 16 28  1  0  0  0  0
 16  1  2  0  0  0  0
 19 15  1  0  0  0  0
 20 16  1  0  0  0  0
 21  1  1  0  0  0  0
 22 21  2  0  0  0  0
 24  5  1  0  0  0  0
 24 12  1  0  0  0  0
 25 17  1  0  0  0  0
 25 19  1  0  0  0  0
 26 24  1  0  0  0  0
 28 12  1  0  0  0  0
M  END
>  <MODEL>
8

>  <REMARK>
 VINA RESULT:      -6.9      2.570      4.821
  Name = 
  0 active torsions:
  status: ('A' for Active; 'I' for Inactive)
                            x       y       z     vdW  Elec       q    Type
                         _______ _______ _______ _____ _____    ______ ____

>  <TORSDO>
F 0

$$$$
=
 OpenBabel11112417423D

 28 32  0  0  1  0  0  0  0  0999 V2000
  186.1200  176.5380  143.1170 C   0  0  0  0  0  0  0  0  0  0  0  0
  188.7090  172.2050  142.8730 O   0  0  0  0  0  0  0  0  0  0  0  0
  190.7480  178.4850  144.4310 C   0  0  0  0  0  1  0  0  0  0  0  0
  186.7100  177.9760  140.7840 C   0  0  0  0  0  3  0  0  0  0  0  0
  191.3040  176.1830  143.8640 N   0  0  0  0  0  0  0  0  0  0  0  0
  185.8260  175.8430  144.4130 C   0  0  0  0  0  2  0  0  0  0  0  0
  187.4420  172.5850  140.8080 O   0  0  0  0  0  0  0  0  0  0  0  0
  188.7420  172.8480  141.5140 S   0  0  0  0  0  0  0  0  0  0  0  0
  190.9560  173.2270  140.2120 C   0  0  2  0  0  3  0  0  0  0  0  0
  188.9820  174.5700  141.6590 N   0  0  2  0  0  0  0  0  0  0  0  0
  187.1640  178.5450  146.8390 C   0  0  0  0  0  1  0  0  0  0  0  0
  189.0650  175.2810  143.9890 C   0  0  1  0  0  3  0  0  0  0  0  0
  191.4490  173.9640  141.4500 C   0  0  0  0  0  2  0  0  0  0  0  0
  190.0410  172.1590  140.5970 N   0  0  0  0  0  2  0  0  0  0  0  0
  187.2140  177.5850  145.6700 C   0  0  1  0  0  3  0  0  0  0  0  0
  187.2610  176.2020  142.3560 C   0  0  0  0  0  0  0  0  0  0  0  0
  190.5150  177.0230  144.7570 C   0  0  2  0  0  3  0  0  0  0  0  0
  192.1390  172.6300  139.4810 C   0  0  0  0  0  1  0  0  0  0  0  0
  188.3560  176.6960  145.8230 N   0  0  0  0  0  2  0  0  0  0  0  0
  187.5500  176.9410  141.1970 C   0  0  0  0  0  3  0  0  0  0  0  0
  185.2770  177.5730  142.6890 C   0  0  0  0  0  3  0  0  0  0  0  0
  185.5690  178.2870  141.5250 C   0  0  0  0  0  3  0  0  0  0  0  0
  185.9090  176.7910  145.6130 C   0  0  0  0  0  2  0  0  0  0  0  0
  190.4750  175.0310  143.5190 C   0  0  1  0  0  3  0  0  0  0  0  0
  189.0580  176.6850  144.5490 C   0  0  2  0  0  3  0  0  0  0  0  0
  190.3730  174.9030  142.0130 C   0  0  2  0  0  3  0  0  0  0  0  0
  192.4260  175.6770  144.6380 C   0  0  0  0  0  1  0  0  0  0  0  0
  188.1580  175.0490  142.7690 C   0  0  1  0  0  3  0  0  0  0  0  0
  1  6  1  0  0  0  0
  3 17  1  0  0  0  0
  4 20  2  0  0  0  0
  4 22  1  0  0  0  0
  5 27  1  0  0  0  0
  5 17  1  0  0  0  0
  6 23  1  0  0  0  0
  7  8  2  0  0  0  0
  8  2  2  0  0  0  0
  9 18  1  1  0  0  0
  9 14  1  0  0  0  0
  9 13  1  0  0  0  0
 10  8  1  1  0  0  0
 10 26  1  0  0  0  0
 10 28  1  0  0  0  0
 12 25  1  0  0  0  0
 13 26  1  0  0  0  0
 14  8  1  0  0  0  0
 15 19  1  0  0  0  0
 15 11  1  0  0  0  0
 16 28  1  0  0  0  0
 16  1  2  0  0  0  0
 20 16  1  0  0  0  0
 21  1  1  0  0  0  0
 22 21  2  0  0  0  0
 23 15  1  0  0  0  0
 24  5  1  0  0  0  0
 24 12  1  0  0  0  0
 25 17  1  0  0  0  0
 25 19  1  0  0  0  0
 26 24  1  0  0  0  0
 28 12  1  0  0  0  0
M  END
>  <MODEL>
9

>  <REMARK>
 VINA RESULT:      -6.8      3.292      5.413
  Name = 
  0 active torsions:
  status: ('A' for Active; 'I' for Inactive)
                            x       y       z     vdW  Elec       q    Type
                         _______ _______ _______ _____ _____    ______ ____

>  <TORSDO>
F 0

$$$$
