=
 OpenBabel11112417313D

 37 41  0  0  1  0  0  0  0  0999 V2000
  190.9230  173.8690  143.1780 C   0  0  1  0  0  3  0  0  0  0  0  0
  192.2770  174.8800  146.4810 O   0  0  0  0  0  0  0  0  0  0  0  0
  188.8890  174.4370  141.7550 C   0  0  2  0  0  3  0  0  0  0  0  0
  191.0620  174.8010  144.3240 C   0  0  2  0  0  3  0  0  0  0  0  0
  189.4180  173.7830  143.0400 C   0  0  2  0  0  3  0  0  0  0  0  0
  192.2360  174.3080  145.1900 C   0  0  1  0  0  3  0  0  0  0  0  0
  189.6690  173.9540  140.5250 C   0  0  0  0  0  2  0  0  0  0  0  0
  188.8070  174.3490  144.1790 O   0  0  0  0  0  0  0  0  0  0  0  0
  193.0330  174.1600  142.1110 C   0  0  0  0  0  2  0  0  0  0  0  0
  191.1490  173.6840  140.8200 C   0  0  0  0  0  2  0  0  0  0  0  0
  191.6200  177.0370  145.8200 O   0  0  0  0  0  0  0  0  0  0  0  0
  192.6310  176.2480  146.4030 C   0  0  0  0  0  2  0  0  0  0  0  0
  191.5990  174.4250  141.9950 N   0  0  1  0  0  0  0  0  0  0  0  0
  189.7880  174.7710  145.0450 N   0  0  2  0  0  0  0  0  0  0  0  0
  193.5460  174.3630  144.5070 N   0  0  0  0  0  0  0  0  0  0  0  0
  190.4180  176.7260  146.4690 C   0  0  0  0  0  2  0  0  0  0  0  0
  189.4190  176.1390  145.4670 C   0  0  2  0  0  3  0  0  0  0  0  0
  193.6760  175.0200  143.2000 C   0  0  0  0  0  2  0  0  0  0  0  0
  195.8180  174.3230  145.4930 C   0  0  0  0  0  3  0  0  0  0  0  0
  194.6720  173.6410  145.0470 C   0  0  0  0  0  0  0  0  0  0  0  0
  194.6450  172.2380  145.1400 C   0  0  0  0  0  3  0  0  0  0  0  0
  195.6940  170.1850  145.7460 F   0  0  0  0  0  0  0  0  0  0  0  0
  196.8660  172.2290  146.1020 C   0  0  0  0  0  3  0  0  0  0  0  0
  195.7350  171.5370  145.6630 C   0  0  0  0  0  0  0  0  0  0  0  0
  196.9080  173.6220  146.0160 C   0  0  0  0  0  3  0  0  0  0  0  0
  188.0240  176.1240  146.1240 C   0  0  0  0  0  2  0  0  0  0  0  0
  186.9410  176.6680  145.2890 N   0  0  0  0  0  0  0  0  0  0  0  0
  186.0410  177.0870  147.5110 C   0  0  0  0  0  1  0  0  0  0  0  0
  185.7110  176.7860  146.0610 C   0  0  0  0  0  2  0  0  0  0  0  0
  187.2980  177.9910  144.7910 C   0  0  0  0  0  2  0  0  0  0  0  0
  186.0800  178.6700  144.1920 C   0  0  0  0  0  2  0  0  0  0  0  0
  185.9770  179.9640  144.6700 F   0  0  0  0  0  0  0  0  0  0  0  0
  188.9680  175.8390  141.8450 O   0  0  0  0  0  0  0  0  0  0  0  0
  187.7470  176.3790  141.3930 C   0  0  0  0  0  0  0  0  0  0  0  0
  187.5360  176.0710  140.0570 F   0  0  0  0  0  0  0  0  0  0  0  0
  186.6870  175.9110  142.1540 F   0  0  0  0  0  0  0  0  0  0  0  0
  187.8010  177.7540  141.5160 F   0  0  0  0  0  0  0  0  0  0  0  0
  1  4  1  0  0  0  0
  3 33  1  0  0  0  0
  3  5  1  0  0  0  0
  4 14  1  0  0  0  0
  4  6  1  0  0  0  0
  5  1  1  0  0  0  0
  5  8  1  0  0  0  0
  6  2  1  0  0  0  0
  7 10  1  0  0  0  0
  7  3  1  0  0  0  0
  8 14  1  0  0  0  0
  9 18  1  0  0  0  0
 10 13  1  0  0  0  0
 11 12  1  0  0  0  0
 11 16  1  0  0  0  0
 12  2  1  0  0  0  0
 13  9  1  0  0  0  0
 13  1  1  0  0  0  0
 14 17  1  0  0  0  0
 15 20  1  0  0  0  0
 15  6  1  0  0  0  0
 17 26  1  0  0  0  0
 17 16  1  0  0  0  0
 18 15  1  0  0  0  0
 19 25  1  0  0  0  0
 20 21  1  0  0  0  0
 20 19  2  0  0  0  0
 21 24  2  0  0  0  0
 24 22  1  0  0  0  0
 24 23  1  0  0  0  0
 25 23  2  0  0  0  0
 27 29  1  0  0  0  0
 27 26  1  0  0  0  0
 29 28  1  0  0  0  0
 30 27  1  0  0  0  0
 31 32  1  0  0  0  0
 31 30  1  0  0  0  0
 34 37  1  0  0  0  0
 34 33  1  0  0  0  0
 34 36  1  0  0  0  0
 35 34  1  0  0  0  0
M  END
>  <MODEL>
1

>  <REMARK>
 VINA RESULT:      -7.3      0.000      0.000
  Name = 
  8 active torsions:
  status: ('A' for Active; 'I' for Inactive)
    1  A    between atoms: C_1  and  N_4
    2  A    between atoms: C_1  and  C_27
    3  A    between atoms: C_2  and  O_22
    4  A    between atoms: N_4  and  C_12
    5  A    between atoms: N_4  and  C_37
    6  A    between atoms: C_6  and  O_22
    7  A    between atoms: C_8  and  C_12
    8  A    between atoms: N_23  and  C_30
                            x       y       z     vdW  Elec       q    Type
                         _______ _______ _______ _____ _____    ______ ____

>  <TORSDO>
F 8

$$$$
=
 OpenBabel11112417313D

 37 41  0  0  1  0  0  0  0  0999 V2000
  189.9680  174.8740  145.0650 C   0  0  1  0  0  3  0  0  0  0  0  0
  187.1480  175.4270  142.7200 O   0  0  0  0  0  0  0  0  0  0  0  0
  192.2430  173.7310  144.9940 C   0  0  2  0  0  3  0  0  0  0  0  0
  189.3760  174.9890  143.7100 C   0  0  2  0  0  3  0  0  0  0  0  0
  190.7160  173.5620  144.9570 C   0  0  2  0  0  3  0  0  0  0  0  0
  187.9600  175.5750  143.8660 C   0  0  1  0  0  3  0  0  0  0  0  0
  192.6750  174.6140  146.1730 C   0  0  0  0  0  2  0  0  0  0  0  0
  190.3150  172.8860  143.7860 O   0  0  0  0  0  0  0  0  0  0  0  0
  189.9920  177.1600  145.7350 C   0  0  0  0  0  2  0  0  0  0  0  0
  191.6670  175.7250  146.4930 C   0  0  0  0  0  2  0  0  0  0  0  0
  188.8490  175.8440  141.1540 O   0  0  0  0  0  0  0  0  0  0  0  0
  187.6100  176.2640  141.6770 C   0  0  0  0  0  2  0  0  0  0  0  0
  190.8340  176.0340  145.3340 N   0  0  1  0  0  0  0  0  0  0  0  0
  189.3600  173.6390  143.1450 N   0  0  2  0  0  0  0  0  0  0  0  0
  187.9390  176.9530  144.3970 N   0  0  0  0  0  0  0  0  0  0  0  0
  188.7440  174.4760  140.8710 C   0  0  0  0  0  2  0  0  0  0  0  0
  189.7480  173.6880  141.7190 C   0  0  2  0  0  3  0  0  0  0  0  0
  189.1890  177.7080  144.5550 C   0  0  0  0  0  2  0  0  0  0  0  0
  186.0130  176.8830  145.9530 C   0  0  0  0  0  3  0  0  0  0  0  0
  186.7100  177.5120  144.9070 C   0  0  0  0  0  0  0  0  0  0  0  0
  186.1850  178.6990  144.3660 C   0  0  0  0  0  3  0  0  0  0  0  0
  184.5010  180.3870  144.3280 F   0  0  0  0  0  0  0  0  0  0  0  0
  184.3140  178.6050  145.8990 C   0  0  0  0  0  3  0  0  0  0  0  0
  184.9940  179.2420  144.8590 C   0  0  0  0  0  0  0  0  0  0  0  0
  184.8230  177.4250  146.4460 C   0  0  0  0  0  3  0  0  0  0  0  0
  189.8440  172.2580  141.1530 C   0  0  0  0  0  2  0  0  0  0  0  0
  191.0860  171.9650  140.4180 N   0  0  0  0  0  0  0  0  0  0  0  0
  190.7200  170.0400  141.8620 C   0  0  0  0  0  1  0  0  0  0  0  0
  191.6230  170.6720  140.8200 C   0  0  0  0  0  2  0  0  0  0  0  0
  190.8300  171.9290  138.9840 C   0  0  0  0  0  2  0  0  0  0  0  0
  189.4000  171.4950  138.7180 C   0  0  0  0  0  2  0  0  0  0  0  0
  189.3740  170.1720  138.3150 F   0  0  0  0  0  0  0  0  0  0  0  0
  192.7090  174.2890  143.7900 O   0  0  0  0  0  0  0  0  0  0  0  0
  193.6400  173.3960  143.2220 C   0  0  0  0  0  0  0  0  0  0  0  0
  194.9340  173.7360  143.5850 F   0  0  0  0  0  0  0  0  0  0  0  0
  193.3740  172.0910  143.6080 F   0  0  0  0  0  0  0  0  0  0  0  0
  193.5420  173.4730  141.8460 F   0  0  0  0  0  0  0  0  0  0  0  0
  1 13  1  0  0  0  0
  2  6  1  0  0  0  0
  3  7  1  0  0  0  0
  4  6  1  0  0  0  0
  4  1  1  0  0  0  0
  5  3  1  0  0  0  0
  5  1  1  0  0  0  0
  6 15  1  0  0  0  0
  7 10  1  0  0  0  0
  8  5  1  0  0  0  0
 11 12  1  0  0  0  0
 12  2  1  0  0  0  0
 13  9  1  0  0  0  0
 13 10  1  0  0  0  0
 14  4  1  0  0  0  0
 14  8  1  0  0  0  0
 15 18  1  0  0  0  0
 15 20  1  0  0  0  0
 16 11  1  0  0  0  0
 16 17  1  0  0  0  0
 17 14  1  0  0  0  0
 18  9  1  0  0  0  0
 19 25  1  0  0  0  0
 20 19  2  0  0  0  0
 21 24  2  0  0  0  0
 21 20  1  0  0  0  0
 22 24  1  0  0  0  0
 23 25  2  0  0  0  0
 24 23  1  0  0  0  0
 26 17  1  0  0  0  0
 27 29  1  0  0  0  0
 27 26  1  0  0  0  0
 29 28  1  0  0  0  0
 30 27  1  0  0  0  0
 31 30  1  0  0  0  0
 32 31  1  0  0  0  0
 33  3  1  0  0  0  0
 34 35  1  0  0  0  0
 34 36  1  0  0  0  0
 34 33  1  0  0  0  0
 37 34  1  0  0  0  0
M  END
>  <MODEL>
2

>  <REMARK>
 VINA RESULT:      -7.1      2.663      8.026
  Name = 
  8 active torsions:
  status: ('A' for Active; 'I' for Inactive)
    1  A    between atoms: C_1  and  N_4
    2  A    between atoms: C_1  and  C_27
    3  A    between atoms: C_2  and  O_22
    4  A    between atoms: N_4  and  C_12
    5  A    between atoms: N_4  and  C_37
    6  A    between atoms: C_6  and  O_22
    7  A    between atoms: C_8  and  C_12
    8  A    between atoms: N_23  and  C_30
                            x       y       z     vdW  Elec       q    Type
                         _______ _______ _______ _____ _____    ______ ____

>  <TORSDO>
F 8

$$$$
=
 OpenBabel11112417313D

 37 41  0  0  1  0  0  0  0  0999 V2000
  190.6960  176.6980  145.2150 C   0  0  1  0  0  3  0  0  0  0  0  0
  190.7650  174.9610  141.9380 O   0  0  0  0  0  0  0  0  0  0  0  0
  188.9160  177.5400  146.8320 C   0  0  2  0  0  3  0  0  0  0  0  0
  190.1080  175.8380  144.1600 C   0  0  2  0  0  3  0  0  0  0  0  0
  189.5780  177.6910  145.4530 C   0  0  2  0  0  3  0  0  0  0  0  0
  191.2300  175.4810  143.1660 C   0  0  1  0  0  3  0  0  0  0  0  0
  189.9680  177.4870  147.9490 C   0  0  0  0  0  2  0  0  0  0  0  0
  188.6210  177.5780  144.4230 O   0  0  0  0  0  0  0  0  0  0  0  0
  192.3090  175.2150  146.1500 C   0  0  0  0  0  2  0  0  0  0  0  0
  191.2640  176.7860  147.5210 C   0  0  0  0  0  2  0  0  0  0  0  0
  189.0220  173.6790  142.8540 O   0  0  0  0  0  0  0  0  0  0  0  0
  190.2270  173.6660  142.1240 C   0  0  0  0  0  2  0  0  0  0  0  0
  191.0320  175.8850  146.3950 N   0  0  1  0  0  0  0  0  0  0  0  0
  189.0370  176.6160  143.5340 N   0  0  2  0  0  0  0  0  0  0  0  0
  192.3090  174.6610  143.7540 N   0  0  0  0  0  0  0  0  0  0  0  0
  188.1860  174.6370  142.2670 C   0  0  0  0  0  2  0  0  0  0  0  0
  187.8700  175.7460  143.2760 C   0  0  2  0  0  3  0  0  0  0  0  0
  192.1690  174.1060  145.1060 C   0  0  0  0  0  2  0  0  0  0  0  0
  194.0070  173.2730  142.6020 C   0  0  0  0  0  3  0  0  0  0  0  0
  193.5700  174.5260  143.0650 C   0  0  0  0  0  0  0  0  0  0  0  0
  194.3870  175.6480  142.8420 C   0  0  0  0  0  3  0  0  0  0  0  0
  196.3850  176.6110  141.9660 F   0  0  0  0  0  0  0  0  0  0  0  0
  196.0280  174.2680  141.7200 C   0  0  0  0  0  3  0  0  0  0  0  0
  195.6090  175.5200  142.1740 C   0  0  0  0  0  0  0  0  0  0  0  0
  195.2280  173.1430  141.9350 C   0  0  0  0  0  3  0  0  0  0  0  0
  186.7020  176.5870  142.7250 C   0  0  0  0  0  2  0  0  0  0  0  0
  187.1040  177.7840  141.9680 N   0  0  0  0  0  0  0  0  0  0  0  0
  185.5380  177.8000  140.1050 C   0  0  0  0  0  1  0  0  0  0  0  0
  186.9710  177.5510  140.5360 C   0  0  0  0  0  2  0  0  0  0  0  0
  186.2640  178.9190  142.3280 C   0  0  0  0  0  2  0  0  0  0  0  0
  185.5980  178.6700  143.6700 C   0  0  0  0  0  2  0  0  0  0  0  0
  186.0230  179.6110  144.5900 F   0  0  0  0  0  0  0  0  0  0  0  0
  188.1220  176.3790  146.8750 O   0  0  0  0  0  0  0  0  0  0  0  0
  186.7780  176.7720  147.0360 C   0  0  0  0  0  0  0  0  0  0  0  0
  186.0030  176.3240  145.9780 F   0  0  0  0  0  0  0  0  0  0  0  0
  186.2620  176.2910  148.2300 F   0  0  0  0  0  0  0  0  0  0  0  0
  186.7230  178.1520  147.0600 F   0  0  0  0  0  0  0  0  0  0  0  0
  1  5  1  0  0  0  0
  1 13  1  0  0  0  0
  2 12  1  0  0  0  0
  2  6  1  0  0  0  0
  3 33  1  0  0  0  0
  3  7  1  0  0  0  0
  4  1  1  0  0  0  0
  5  3  1  0  0  0  0
  6 15  1  0  0  0  0
  6  4  1  0  0  0  0
  8  5  1  0  0  0  0
  9 13  1  0  0  0  0
 10  7  1  0  0  0  0
 12 11  1  0  0  0  0
 13 10  1  0  0  0  0
 14  4  1  0  0  0  0
 14  8  1  0  0  0  0
 15 18  1  0  0  0  0
 16 11  1  0  0  0  0
 16 17  1  0  0  0  0
 17 14  1  0  0  0  0
 18  9  1  0  0  0  0
 19 20  1  0  0  0  0
 20 15  1  0  0  0  0
 21 20  2  0  0  0  0
 22 24  1  0  0  0  0
 23 25  1  0  0  0  0
 23 24  2  0  0  0  0
 24 21  1  0  0  0  0
 25 19  2  0  0  0  0
 26 17  1  0  0  0  0
 27 30  1  0  0  0  0
 27 26  1  0  0  0  0
 28 29  1  0  0  0  0
 29 27  1  0  0  0  0
 30 31  1  0  0  0  0
 31 32  1  0  0  0  0
 33 34  1  0  0  0  0
 34 37  1  0  0  0  0
 34 36  1  0  0  0  0
 35 34  1  0  0  0  0
M  END
>  <MODEL>
3

>  <REMARK>
 VINA RESULT:      -7.0      2.799      4.742
  Name = 
  8 active torsions:
  status: ('A' for Active; 'I' for Inactive)
    1  A    between atoms: C_1  and  N_4
    2  A    between atoms: C_1  and  C_27
    3  A    between atoms: C_2  and  O_22
    4  A    between atoms: N_4  and  C_12
    5  A    between atoms: N_4  and  C_37
    6  A    between atoms: C_6  and  O_22
    7  A    between atoms: C_8  and  C_12
    8  A    between atoms: N_23  and  C_30
                            x       y       z     vdW  Elec       q    Type
                         _______ _______ _______ _____ _____    ______ ____

>  <TORSDO>
F 8

$$$$
=
 OpenBabel11112417313D

 37 41  0  0  1  0  0  0  0  0999 V2000
  191.0060  175.6730  142.8680 C   0  0  1  0  0  3  0  0  0  0  0  0
  190.7390  177.2740  146.2040 O   0  0  0  0  0  0  0  0  0  0  0  0
  192.7900  174.4250  141.5460 C   0  0  2  0  0  3  0  0  0  0  0  0
  191.4100  175.8610  144.2830 C   0  0  2  0  0  3  0  0  0  0  0  0
  192.3400  175.7610  142.1590 C   0  0  2  0  0  3  0  0  0  0  0  0
  190.3340  176.7260  144.9670 C   0  0  1  0  0  3  0  0  0  0  0  0
  191.6670  173.7910  140.7130 C   0  0  0  0  0  2  0  0  0  0  0  0
  193.3150  176.2570  143.0490 O   0  0  0  0  0  0  0  0  0  0  0  0
  188.9410  174.5170  143.1460 C   0  0  0  0  0  2  0  0  0  0  0  0
  190.2700  174.0630  141.2830 C   0  0  0  0  0  2  0  0  0  0  0  0
  191.9240  175.3820  146.9380 O   0  0  0  0  0  0  0  0  0  0  0  0
  190.8460  176.2560  147.1820 C   0  0  0  0  0  2  0  0  0  0  0  0
  190.3300  174.3750  142.7080 N   0  0  1  0  0  0  0  0  0  0  0  0
  192.7190  176.5160  144.2600 N   0  0  2  0  0  0  0  0  0  0  0  0
  189.0080  176.0790  145.0440 N   0  0  0  0  0  0  0  0  0  0  0  0
  193.0600  176.1690  146.7120 C   0  0  0  0  0  2  0  0  0  0  0  0
  193.5930  175.9250  145.2960 C   0  0  2  0  0  3  0  0  0  0  0  0
  188.8450  174.6700  144.6650 C   0  0  0  0  0  2  0  0  0  0  0  0
  187.0690  176.6040  146.4930 C   0  0  0  0  0  3  0  0  0  0  0  0
  187.8370  176.8670  145.3450 C   0  0  0  0  0  0  0  0  0  0  0  0
  187.4420  177.9150  144.4960 C   0  0  0  0  0  3  0  0  0  0  0  0
  185.9400  179.6870  143.9590 F   0  0  0  0  0  0  0  0  0  0  0  0
  185.5560  178.4060  145.9310 C   0  0  0  0  0  3  0  0  0  0  0  0
  186.3080  178.6800  144.7870 C   0  0  0  0  0  0  0  0  0  0  0  0
  185.9350  177.3680  146.7840 C   0  0  0  0  0  3  0  0  0  0  0  0
  195.0060  176.5330  145.1970 C   0  0  0  0  0  2  0  0  0  0  0  0
  196.0970  175.5500  145.1070 N   0  0  0  0  0  0  0  0  0  0  0  0
  196.8160  173.4650  146.1380 C   0  0  0  0  0  1  0  0  0  0  0  0
  195.6460  174.2430  145.5670 C   0  0  0  0  0  2  0  0  0  0  0  0
  196.5510  175.4190  143.7280 C   0  0  0  0  0  2  0  0  0  0  0  0
  196.8220  176.7900  143.1350 C   0  0  0  0  0  2  0  0  0  0  0  0
  196.2040  176.9030  141.9030 F   0  0  0  0  0  0  0  0  0  0  0  0
  193.1940  173.5300  142.5540 O   0  0  0  0  0  0  0  0  0  0  0  0
  194.3240  172.8270  142.0900 C   0  0  0  0  0  0  0  0  0  0  0  0
  195.1130  172.4060  143.1500 F   0  0  0  0  0  0  0  0  0  0  0  0
  193.9480  171.7340  141.3240 F   0  0  0  0  0  0  0  0  0  0  0  0
  195.0770  173.6750  141.3010 F   0  0  0  0  0  0  0  0  0  0  0  0
  1  4  1  0  0  0  0
  2 12  1  0  0  0  0
  3  5  1  0  0  0  0
  3 33  1  0  0  0  0
  4  6  1  0  0  0  0
  5  1  1  0  0  0  0
  5  8  1  0  0  0  0
  6 15  1  0  0  0  0
  6  2  1  0  0  0  0
  7 10  1  0  0  0  0
  7  3  1  0  0  0  0
  8 14  1  0  0  0  0
  9 18  1  0  0  0  0
 10 13  1  0  0  0  0
 11 12  1  0  0  0  0
 13  1  1  0  0  0  0
 13  9  1  0  0  0  0
 14  4  1  0  0  0  0
 14 17  1  0  0  0  0
 15 20  1  0  0  0  0
 16 11  1  0  0  0  0
 17 16  1  0  0  0  0
 18 15  1  0  0  0  0
 19 25  1  0  0  0  0
 20 19  2  0  0  0  0
 21 24  2  0  0  0  0
 21 20  1  0  0  0  0
 22 24  1  0  0  0  0
 23 25  2  0  0  0  0
 24 23  1  0  0  0  0
 26 17  1  0  0  0  0
 27 26  1  0  0  0  0
 27 29  1  0  0  0  0
 29 28  1  0  0  0  0
 30 27  1  0  0  0  0
 31 30  1  0  0  0  0
 32 31  1  0  0  0  0
 34 33  1  0  0  0  0
 34 35  1  0  0  0  0
 36 34  1  0  0  0  0
 37 34  1  0  0  0  0
M  END
>  <MODEL>
4

>  <REMARK>
 VINA RESULT:      -7.0      2.491      7.458
  Name = 
  8 active torsions:
  status: ('A' for Active; 'I' for Inactive)
    1  A    between atoms: C_1  and  N_4
    2  A    between atoms: C_1  and  C_27
    3  A    between atoms: C_2  and  O_22
    4  A    between atoms: N_4  and  C_12
    5  A    between atoms: N_4  and  C_37
    6  A    between atoms: C_6  and  O_22
    7  A    between atoms: C_8  and  C_12
    8  A    between atoms: N_23  and  C_30
                            x       y       z     vdW  Elec       q    Type
                         _______ _______ _______ _____ _____    ______ ____

>  <TORSDO>
F 8

$$$$
=
 OpenBabel11112417313D

 37 41  0  0  1  0  0  0  0  0999 V2000
  191.7330  174.4540  143.2440 C   0  0  1  0  0  3  0  0  0  0  0  0
  189.1980  174.2310  140.5440 O   0  0  0  0  0  0  0  0  0  0  0  0
  191.8110  175.2780  145.6520 C   0  0  2  0  0  3  0  0  0  0  0  0
  190.3410  174.3880  142.7370 C   0  0  2  0  0  3  0  0  0  0  0  0
  191.6610  175.6500  144.1690 C   0  0  2  0  0  3  0  0  0  0  0  0
  190.4020  174.0020  141.2470 C   0  0  1  0  0  3  0  0  0  0  0  0
  193.0300  174.3730  145.8760 C   0  0  0  0  0  2  0  0  0  0  0  0
  190.4550  176.3460  143.9460 O   0  0  0  0  0  0  0  0  0  0  0  0
  192.4340  172.2020  142.9090 C   0  0  0  0  0  2  0  0  0  0  0  0
  193.2910  173.4160  144.7070 C   0  0  0  0  0  2  0  0  0  0  0  0
  187.7650  173.5520  142.2780 O   0  0  0  0  0  0  0  0  0  0  0  0
  188.2030  173.3150  140.9600 C   0  0  0  0  0  2  0  0  0  0  0  0
  192.0790  173.1950  143.9220 N   0  0  1  0  0  0  0  0  0  0  0  0
  189.7570  175.7140  142.9440 N   0  0  2  0  0  0  0  0  0  0  0  0
  190.9490  172.6510  141.0020 N   0  0  0  0  0  0  0  0  0  0  0  0
  187.4570  174.9140  142.3800 C   0  0  0  0  0  2  0  0  0  0  0  0
  188.3640  175.5800  143.4210 C   0  0  2  0  0  3  0  0  0  0  0  0
  191.2060  171.7390  142.1230 C   0  0  0  0  0  2  0  0  0  0  0  0
  192.4760  172.9070  139.0680 C   0  0  0  0  0  3  0  0  0  0  0  0
  191.3760  172.2760  139.6760 C   0  0  0  0  0  0  0  0  0  0  0  0
  190.7000  171.2690  138.9640 C   0  0  0  0  0  3  0  0  0  0  0  0
  190.4520  169.9300  137.0070 F   0  0  0  0  0  0  0  0  0  0  0  0
  192.2070  171.5390  137.0900 C   0  0  0  0  0  3  0  0  0  0  0  0
  191.1130  170.9030  137.6800 C   0  0  0  0  0  0  0  0  0  0  0  0
  192.8880  172.5420  137.7840 C   0  0  0  0  0  3  0  0  0  0  0  0
  187.7860  176.9710  143.7500 C   0  0  0  0  0  2  0  0  0  0  0  0
  186.6900  176.9690  144.7320 N   0  0  0  0  0  0  0  0  0  0  0  0
  186.3210  177.0220  147.1370 C   0  0  0  0  0  1  0  0  0  0  0  0
  187.1230  177.5860  145.9790 C   0  0  0  0  0  2  0  0  0  0  0  0
  185.5500  177.7190  144.2210 C   0  0  0  0  0  2  0  0  0  0  0  0
  186.0190  179.0200  143.5930 C   0  0  0  0  0  2  0  0  0  0  0  0
  185.5660  180.0940  144.3350 F   0  0  0  0  0  0  0  0  0  0  0  0
  190.6510  174.6340  146.1200 O   0  0  0  0  0  0  0  0  0  0  0  0
  190.2210  175.2960  147.2890 C   0  0  0  0  0  0  0  0  0  0  0  0
  188.9390  174.8990  147.6370 F   0  0  0  0  0  0  0  0  0  0  0  0
  191.0890  175.0530  148.3430 F   0  0  0  0  0  0  0  0  0  0  0  0
  190.2020  176.6550  147.0430 F   0  0  0  0  0  0  0  0  0  0  0  0
  1 13  1  0  0  0  0
  1  5  1  0  0  0  0
  2 12  1  0  0  0  0
  2  6  1  0  0  0  0
  3  7  1  0  0  0  0
  3 33  1  0  0  0  0
  4 14  1  0  0  0  0
  4  1  1  0  0  0  0
  5  3  1  0  0  0  0
  6  4  1  0  0  0  0
  8  5  1  0  0  0  0
  9 13  1  0  0  0  0
 10  7  1  0  0  0  0
 11 16  1  0  0  0  0
 12 11  1  0  0  0  0
 13 10  1  0  0  0  0
 14 17  1  0  0  0  0
 14  8  1  0  0  0  0
 15  6  1  0  0  0  0
 15 18  1  0  0  0  0
 16 17  1  0  0  0  0
 17 26  1  0  0  0  0
 18  9  1  0  0  0  0
 19 20  1  0  0  0  0
 20 15  1  0  0  0  0
 21 20  2  0  0  0  0
 22 24  1  0  0  0  0
 23 24  2  0  0  0  0
 23 25  1  0  0  0  0
 24 21  1  0  0  0  0
 25 19  2  0  0  0  0
 26 27  1  0  0  0  0
 27 29  1  0  0  0  0
 29 28  1  0  0  0  0
 30 27  1  0  0  0  0
 31 30  1  0  0  0  0
 31 32  1  0  0  0  0
 33 34  1  0  0  0  0
 34 35  1  0  0  0  0
 34 36  1  0  0  0  0
 37 34  1  0  0  0  0
M  END
>  <MODEL>
5

>  <REMARK>
 VINA RESULT:      -6.7      2.921      5.503
  Name = 
  8 active torsions:
  status: ('A' for Active; 'I' for Inactive)
    1  A    between atoms: C_1  and  N_4
    2  A    between atoms: C_1  and  C_27
    3  A    between atoms: C_2  and  O_22
    4  A    between atoms: N_4  and  C_12
    5  A    between atoms: N_4  and  C_37
    6  A    between atoms: C_6  and  O_22
    7  A    between atoms: C_8  and  C_12
    8  A    between atoms: N_23  and  C_30
                            x       y       z     vdW  Elec       q    Type
                         _______ _______ _______ _____ _____    ______ ____

>  <TORSDO>
F 8

$$$$
=
 OpenBabel11112417313D

 37 41  0  0  1  0  0  0  0  0999 V2000
  189.8810  175.3000  144.8260 C   0  0  1  0  0  3  0  0  0  0  0  0
  187.8110  174.3710  141.8910 O   0  0  0  0  0  0  0  0  0  0  0  0
  192.0760  174.5340  145.8660 C   0  0  2  0  0  3  0  0  0  0  0  0
  189.6800  174.7070  143.4820 C   0  0  2  0  0  3  0  0  0  0  0  0
  190.6150  174.1860  145.5410 C   0  0  2  0  0  3  0  0  0  0  0  0
  188.2820  175.1250  142.9880 C   0  0  1  0  0  3  0  0  0  0  0  0
  192.1810  175.9050  146.5490 C   0  0  0  0  0  2  0  0  0  0  0  0
  190.5400  173.0050  144.7740 O   0  0  0  0  0  0  0  0  0  0  0  0
  189.7470  177.6230  144.3120 C   0  0  0  0  0  2  0  0  0  0  0  0
  191.1370  176.9080  146.0440 C   0  0  0  0  0  2  0  0  0  0  0  0
  189.8780  174.2210  140.7850 O   0  0  0  0  0  0  0  0  0  0  0  0
  188.5490  174.6830  140.7250 C   0  0  0  0  0  2  0  0  0  0  0  0
  190.6540  176.5480  144.7140 N   0  0  1  0  0  0  0  0  0  0  0  0
  189.8040  173.2570  143.6410 N   0  0  2  0  0  0  0  0  0  0  0  0
  188.1340  176.5800  142.7770 N   0  0  0  0  0  0  0  0  0  0  0  0
  189.8390  172.8750  141.1710 C   0  0  0  0  0  2  0  0  0  0  0  0
  190.5650  172.6920  142.5080 C   0  0  2  0  0  3  0  0  0  0  0  0
  189.3020  177.4660  142.8570 C   0  0  0  0  0  2  0  0  0  0  0  0
  185.9430  177.2220  143.7400 C   0  0  0  0  0  3  0  0  0  0  0  0
  186.8190  177.1590  142.6420 C   0  0  0  0  0  0  0  0  0  0  0  0
  186.3870  177.6740  141.4070 C   0  0  0  0  0  3  0  0  0  0  0  0
  184.7120  178.7280  140.0780 F   0  0  0  0  0  0  0  0  0  0  0  0
  184.2560  178.2910  142.3750 C   0  0  0  0  0  3  0  0  0  0  0  0
  185.1130  178.2350  141.2740 C   0  0  0  0  0  0  0  0  0  0  0  0
  184.6700  177.7830  143.6080 C   0  0  0  0  0  3  0  0  0  0  0  0
  190.7950  171.1840  142.7320 C   0  0  0  0  0  2  0  0  0  0  0  0
  192.1990  170.7520  142.6430 N   0  0  0  0  0  0  0  0  0  0  0  0
  194.0860  169.8160  143.8630 C   0  0  0  0  0  1  0  0  0  0  0  0
  192.5820  170.0110  143.8370 C   0  0  0  0  0  2  0  0  0  0  0  0
  192.3920  169.8880  141.4860 C   0  0  0  0  0  2  0  0  0  0  0  0
  192.9050  170.6970  140.3080 C   0  0  0  0  0  2  0  0  0  0  0  0
  191.9020  170.8570  139.3700 F   0  0  0  0  0  0  0  0  0  0  0  0
  192.8580  174.5260  144.6970 O   0  0  0  0  0  0  0  0  0  0  0  0
  193.9540  173.6660  144.9060 C   0  0  0  0  0  0  0  0  0  0  0  0
  193.6130  172.6310  145.7630 F   0  0  0  0  0  0  0  0  0  0  0  0
  194.4130  173.1470  143.7050 F   0  0  0  0  0  0  0  0  0  0  0  0
  194.9770  174.3900  145.4890 F   0  0  0  0  0  0  0  0  0  0  0  0
  1  5  1  0  0  0  0
  2  6  1  0  0  0  0
  3  7  1  0  0  0  0
  4 14  1  0  0  0  0
  4  1  1  0  0  0  0
  5  3  1  0  0  0  0
  6  4  1  0  0  0  0
  8  5  1  0  0  0  0
  9 13  1  0  0  0  0
 10  7  1  0  0  0  0
 11 16  1  0  0  0  0
 12 11  1  0  0  0  0
 12  2  1  0  0  0  0
 13  1  1  0  0  0  0
 13 10  1  0  0  0  0
 14  8  1  0  0  0  0
 15 18  1  0  0  0  0
 15  6  1  0  0  0  0
 16 17  1  0  0  0  0
 17 26  1  0  0  0  0
 17 14  1  0  0  0  0
 18  9  1  0  0  0  0
 20 15  1  0  0  0  0
 20 19  2  0  0  0  0
 21 20  1  0  0  0  0
 22 24  1  0  0  0  0
 23 25  2  0  0  0  0
 24 21  2  0  0  0  0
 24 23  1  0  0  0  0
 25 19  1  0  0  0  0
 27 26  1  0  0  0  0
 27 29  1  0  0  0  0
 29 28  1  0  0  0  0
 30 27  1  0  0  0  0
 31 30  1  0  0  0  0
 32 31  1  0  0  0  0
 33 34  1  0  0  0  0
 33  3  1  0  0  0  0
 34 37  1  0  0  0  0
 34 35  1  0  0  0  0
 36 34  1  0  0  0  0
M  END
>  <MODEL>
6

>  <REMARK>
 VINA RESULT:      -6.5      2.630      8.334
  Name = 
  8 active torsions:
  status: ('A' for Active; 'I' for Inactive)
    1  A    between atoms: C_1  and  N_4
    2  A    between atoms: C_1  and  C_27
    3  A    between atoms: C_2  and  O_22
    4  A    between atoms: N_4  and  C_12
    5  A    between atoms: N_4  and  C_37
    6  A    between atoms: C_6  and  O_22
    7  A    between atoms: C_8  and  C_12
    8  A    between atoms: N_23  and  C_30
                            x       y       z     vdW  Elec       q    Type
                         _______ _______ _______ _____ _____    ______ ____

>  <TORSDO>
F 8

$$$$
=
 OpenBabel11112417313D

 37 41  0  0  1  0  0  0  0  0999 V2000
  190.8870  174.9200  142.0960 C   0  0  1  0  0  3  0  0  0  0  0  0
  190.7520  177.6480  144.6070 O   0  0  0  0  0  0  0  0  0  0  0  0
  192.5120  173.0660  141.4570 C   0  0  2  0  0  3  0  0  0  0  0  0
  191.2700  175.5600  143.3780 C   0  0  2  0  0  3  0  0  0  0  0  0
  192.2410  174.5770  141.5130 C   0  0  2  0  0  3  0  0  0  0  0  0
  190.3100  176.7410  143.6180 C   0  0  1  0  0  3  0  0  0  0  0  0
  191.3350  172.3160  140.8160 C   0  0  0  0  0  2  0  0  0  0  0  0
  193.2500  175.2400  142.2440 O   0  0  0  0  0  0  0  0  0  0  0  0
  188.6690  174.2100  142.5990 C   0  0  0  0  0  2  0  0  0  0  0  0
  189.9750  172.9470  141.1360 C   0  0  0  0  0  2  0  0  0  0  0  0
  191.6270  176.0230  146.0620 O   0  0  0  0  0  0  0  0  0  0  0  0
  190.6800  177.0520  145.8890 C   0  0  0  0  0  2  0  0  0  0  0  0
  190.0350  173.7480  142.3550 N   0  0  1  0  0  0  0  0  0  0  0  0
  192.6600  175.9940  143.2300 N   0  0  2  0  0  0  0  0  0  0  0  0
  188.9020  176.3360  143.8130 N   0  0  0  0  0  0  0  0  0  0  0  0
  192.8720  176.5260  145.6630 C   0  0  0  0  0  2  0  0  0  0  0  0
  193.4070  175.7190  144.4760 C   0  0  2  0  0  3  0  0  0  0  0  0
  188.5490  174.9170  143.9500 C   0  0  0  0  0  2  0  0  0  0  0  0
  187.3920  177.7630  142.4640 C   0  0  0  0  0  3  0  0  0  0  0  0
  187.8490  177.3180  143.7170 C   0  0  0  0  0  0  0  0  0  0  0  0
  187.2590  177.8490  144.8770 C   0  0  0  0  0  3  0  0  0  0  0  0
  185.6780  179.3020  145.9130 F   0  0  0  0  0  0  0  0  0  0  0  0
  185.7950  179.2320  143.5340 C   0  0  0  0  0  3  0  0  0  0  0  0
  186.2380  178.8000  144.7860 C   0  0  0  0  0  0  0  0  0  0  0  0
  186.3730  178.7140  142.3720 C   0  0  0  0  0  3  0  0  0  0  0  0
  194.8950  176.0680  144.2820 C   0  0  0  0  0  2  0  0  0  0  0  0
  195.8170  174.9250  144.3780 N   0  0  0  0  0  0  0  0  0  0  0  0
  197.1590  175.2410  142.3720 C   0  0  0  0  0  1  0  0  0  0  0  0
  197.1390  175.2930  143.8880 C   0  0  0  0  0  2  0  0  0  0  0  0
  195.9460  174.4920  145.7640 C   0  0  0  0  0  2  0  0  0  0  0  0
  197.1910  173.6380  145.9300 C   0  0  0  0  0  2  0  0  0  0  0  0
  196.8500  172.4000  146.4420 F   0  0  0  0  0  0  0  0  0  0  0  0
  192.7510  172.5570  142.7470 O   0  0  0  0  0  0  0  0  0  0  0  0
  194.0170  171.9380  142.7480 C   0  0  0  0  0  0  0  0  0  0  0  0
  194.4930  171.7910  144.0410 F   0  0  0  0  0  0  0  0  0  0  0  0
  193.9630  170.7000  142.1260 F   0  0  0  0  0  0  0  0  0  0  0  0
  194.8990  172.7390  142.0500 F   0  0  0  0  0  0  0  0  0  0  0  0
  1 13  1  0  0  0  0
  1  4  1  0  0  0  0
  2 12  1  0  0  0  0
  3  5  1  0  0  0  0
  3 33  1  0  0  0  0
  4  6  1  0  0  0  0
  5  1  1  0  0  0  0
  5  8  1  0  0  0  0
  6 15  1  0  0  0  0
  6  2  1  0  0  0  0
  7 10  1  0  0  0  0
  7  3  1  0  0  0  0
  8 14  1  0  0  0  0
  9 18  1  0  0  0  0
 10 13  1  0  0  0  0
 12 11  1  0  0  0  0
 13  9  1  0  0  0  0
 14  4  1  0  0  0  0
 14 17  1  0  0  0  0
 15 18  1  0  0  0  0
 16 11  1  0  0  0  0
 17 16  1  0  0  0  0
 19 20  1  0  0  0  0
 20 15  1  0  0  0  0
 20 21  2  0  0  0  0
 23 24  2  0  0  0  0
 24 21  1  0  0  0  0
 24 22  1  0  0  0  0
 25 19  2  0  0  0  0
 25 23  1  0  0  0  0
 26 27  1  0  0  0  0
 26 17  1  0  0  0  0
 27 30  1  0  0  0  0
 28 29  1  0  0  0  0
 29 27  1  0  0  0  0
 30 31  1  0  0  0  0
 31 32  1  0  0  0  0
 33 34  1  0  0  0  0
 34 35  1  0  0  0  0
 36 34  1  0  0  0  0
 37 34  1  0  0  0  0
M  END
>  <MODEL>
7

>  <REMARK>
 VINA RESULT:      -6.5      2.443      7.830
  Name = 
  8 active torsions:
  status: ('A' for Active; 'I' for Inactive)
    1  A    between atoms: C_1  and  N_4
    2  A    between atoms: C_1  and  C_27
    3  A    between atoms: C_2  and  O_22
    4  A    between atoms: N_4  and  C_12
    5  A    between atoms: N_4  and  C_37
    6  A    between atoms: C_6  and  O_22
    7  A    between atoms: C_8  and  C_12
    8  A    between atoms: N_23  and  C_30
                            x       y       z     vdW  Elec       q    Type
                         _______ _______ _______ _____ _____    ______ ____

>  <TORSDO>
F 8

$$$$
=
 OpenBabel11112417313D

 37 41  0  0  1  0  0  0  0  0999 V2000
  191.3580  175.2570  142.5820 C   0  0  1  0  0  3  0  0  0  0  0  0
  191.3530  176.8790  145.9180 O   0  0  0  0  0  0  0  0  0  0  0  0
  193.0270  173.9820  141.1420 C   0  0  2  0  0  3  0  0  0  0  0  0
  191.8660  175.4490  143.9620 C   0  0  2  0  0  3  0  0  0  0  0  0
  192.6380  175.3260  141.7770 C   0  0  2  0  0  3  0  0  0  0  0  0
  190.8530  176.3290  144.7170 C   0  0  1  0  0  3  0  0  0  0  0  0
  191.8400  173.3570  140.3960 C   0  0  0  0  0  2  0  0  0  0  0  0
  193.6810  175.8160  142.5900 O   0  0  0  0  0  0  0  0  0  0  0  0
  189.3060  174.1270  143.0160 C   0  0  0  0  0  2  0  0  0  0  0  0
  190.4900  173.6470  141.0650 C   0  0  0  0  0  2  0  0  0  0  0  0
  192.5670  174.9780  146.5760 O   0  0  0  0  0  0  0  0  0  0  0  0
  191.5200  175.8660  146.8920 C   0  0  0  0  0  2  0  0  0  0  0  0
  190.6580  173.9670  142.4800 N   0  0  1  0  0  0  0  0  0  0  0  0
  193.1780  176.0880  143.8400 N   0  0  2  0  0  0  0  0  0  0  0  0
  189.5290  175.6980  144.8950 N   0  0  0  0  0  0  0  0  0  0  0  0
  193.6930  175.7500  146.2630 C   0  0  0  0  0  2  0  0  0  0  0  0
  194.1180  175.4930  144.8130 C   0  0  2  0  0  3  0  0  0  0  0  0
  189.3230  174.2890  144.5370 C   0  0  0  0  0  2  0  0  0  0  0  0
  187.9070  177.5110  144.4260 C   0  0  0  0  0  3  0  0  0  0  0  0
  188.3920  176.5010  145.2760 C   0  0  0  0  0  0  0  0  0  0  0  0
  187.7460  176.2890  146.5060 C   0  0  0  0  0  3  0  0  0  0  0  0
  186.0320  176.8480  148.0660 F   0  0  0  0  0  0  0  0  0  0  0  0
  186.1740  178.0640  146.0220 C   0  0  0  0  0  3  0  0  0  0  0  0
  186.6440  177.0650  146.8770 C   0  0  0  0  0  0  0  0  0  0  0  0
  186.8060  178.2880  144.7970 C   0  0  0  0  0  3  0  0  0  0  0  0
  195.5270  176.0830  144.6080 C   0  0  0  0  0  2  0  0  0  0  0  0
  196.4930  175.1730  143.9730 N   0  0  0  0  0  0  0  0  0  0  0  0
  197.0450  175.4900  141.6230 C   0  0  0  0  0  1  0  0  0  0  0  0
  197.3520  175.9030  143.0500 C   0  0  0  0  0  2  0  0  0  0  0  0
  197.3350  174.5420  144.9810 C   0  0  0  0  0  2  0  0  0  0  0  0
  196.6120  173.3590  145.6000 C   0  0  0  0  0  2  0  0  0  0  0  0
  197.2020  173.0210  146.8040 F   0  0  0  0  0  0  0  0  0  0  0  0
  193.4940  173.0880  142.1220 O   0  0  0  0  0  0  0  0  0  0  0  0
  194.6300  172.4280  141.6120 C   0  0  0  0  0  0  0  0  0  0  0  0
  195.6460  172.3940  142.5550 F   0  0  0  0  0  0  0  0  0  0  0  0
  194.3170  171.1370  141.2140 F   0  0  0  0  0  0  0  0  0  0  0  0
  195.0860  173.1260  140.5110 F   0  0  0  0  0  0  0  0  0  0  0  0
  1  4  1  0  0  0  0
  2 12  1  0  0  0  0
  3  5  1  0  0  0  0
  3 33  1  0  0  0  0
  4  6  1  0  0  0  0
  5  1  1  0  0  0  0
  5  8  1  0  0  0  0
  6 15  1  0  0  0  0
  6  2  1  0  0  0  0
  7 10  1  0  0  0  0
  7  3  1  0  0  0  0
  8 14  1  0  0  0  0
  9 18  1  0  0  0  0
 10 13  1  0  0  0  0
 11 12  1  0  0  0  0
 13  1  1  0  0  0  0
 13  9  1  0  0  0  0
 14  4  1  0  0  0  0
 14 17  1  0  0  0  0
 15 20  1  0  0  0  0
 16 11  1  0  0  0  0
 17 16  1  0  0  0  0
 18 15  1  0  0  0  0
 19 25  2  0  0  0  0
 19 20  1  0  0  0  0
 20 21  2  0  0  0  0
 21 24  1  0  0  0  0
 23 24  2  0  0  0  0
 24 22  1  0  0  0  0
 25 23  1  0  0  0  0
 26 17  1  0  0  0  0
 27 26  1  0  0  0  0
 27 30  1  0  0  0  0
 28 29  1  0  0  0  0
 29 27  1  0  0  0  0
 30 31  1  0  0  0  0
 31 32  1  0  0  0  0
 34 33  1  0  0  0  0
 34 35  1  0  0  0  0
 36 34  1  0  0  0  0
 37 34  1  0  0  0  0
M  END
>  <MODEL>
8

>  <REMARK>
 VINA RESULT:      -6.5      2.770      7.598
  Name = 
  8 active torsions:
  status: ('A' for Active; 'I' for Inactive)
    1  A    between atoms: C_1  and  N_4
    2  A    between atoms: C_1  and  C_27
    3  A    between atoms: C_2  and  O_22
    4  A    between atoms: N_4  and  C_12
    5  A    between atoms: N_4  and  C_37
    6  A    between atoms: C_6  and  O_22
    7  A    between atoms: C_8  and  C_12
    8  A    between atoms: N_23  and  C_30
                            x       y       z     vdW  Elec       q    Type
                         _______ _______ _______ _____ _____    ______ ____

>  <TORSDO>
F 8

$$$$
=
 OpenBabel11112417313D

 37 41  0  0  1  0  0  0  0  0999 V2000
  190.0610  173.9140  141.9860 C   0  0  1  0  0  3  0  0  0  0  0  0
  190.3620  176.7590  144.3480 O   0  0  0  0  0  0  0  0  0  0  0  0
  188.4910  173.2260  140.1020 C   0  0  2  0  0  3  0  0  0  0  0  0
  189.8190  175.3150  142.4100 C   0  0  2  0  0  3  0  0  0  0  0  0
  188.6640  173.4670  141.6100 C   0  0  2  0  0  3  0  0  0  0  0  0
  190.7210  175.6000  143.6260 C   0  0  1  0  0  3  0  0  0  0  0  0
  189.6140  172.3360  139.5510 C   0  0  0  0  0  2  0  0  0  0  0  0
  187.7260  174.4110  142.0760 O   0  0  0  0  0  0  0  0  0  0  0  0
  192.3700  174.0170  141.4090 C   0  0  0  0  0  2  0  0  0  0  0  0
  190.9610  172.5660  140.2490 C   0  0  0  0  0  2  0  0  0  0  0  0
  189.8110  178.0610  142.4720 O   0  0  0  0  0  0  0  0  0  0  0  0
  190.6530  177.9200  143.5930 C   0  0  0  0  0  2  0  0  0  0  0  0
  191.0170  173.8870  140.8680 N   0  0  1  0  0  0  0  0  0  0  0  0
  188.3950  175.4130  142.7380 N   0  0  2  0  0  0  0  0  0  0  0  0
  192.1660  175.5490  143.3220 N   0  0  0  0  0  0  0  0  0  0  0  0
  188.4920  177.9040  142.9140 C   0  0  0  0  0  2  0  0  0  0  0  0
  187.8510  176.6910  142.2320 C   0  0  2  0  0  3  0  0  0  0  0  0
  192.6300  175.4300  141.9340 C   0  0  0  0  0  2  0  0  0  0  0  0
  193.7190  174.2340  144.7350 C   0  0  0  0  0  3  0  0  0  0  0  0
  193.1260  175.4630  144.3960 C   0  0  0  0  0  0  0  0  0  0  0  0
  193.4900  176.6090  145.1250 C   0  0  0  0  0  3  0  0  0  0  0  0
  194.7610  177.6410  146.8570 F   0  0  0  0  0  0  0  0  0  0  0  0
  195.0000  175.2990  146.4880 C   0  0  0  0  0  3  0  0  0  0  0  0
  194.4210  176.5280  146.1650 C   0  0  0  0  0  0  0  0  0  0  0  0
  194.6490  174.1520  145.7740 C   0  0  0  0  0  3  0  0  0  0  0  0
  186.3300  176.7440  142.4750 C   0  0  0  0  0  2  0  0  0  0  0  0
  185.8730  177.8800  143.2910 N   0  0  0  0  0  0  0  0  0  0  0  0
  183.9220  178.0000  141.8410 C   0  0  0  0  0  1  0  0  0  0  0  0
  185.0460  178.7790  142.4970 C   0  0  0  0  0  2  0  0  0  0  0  0
  185.0810  177.4080  144.4200 C   0  0  0  0  0  2  0  0  0  0  0  0
  185.0090  178.4800  145.4920 C   0  0  0  0  0  2  0  0  0  0  0  0
  183.6900  178.7360  145.8180 F   0  0  0  0  0  0  0  0  0  0  0  0
  188.4700  174.4470  139.4040 O   0  0  0  0  0  0  0  0  0  0  0  0
  188.3000  174.1670  138.0330 C   0  0  0  0  0  0  0  0  0  0  0  0
  189.4980  174.3070  137.3490 F   0  0  0  0  0  0  0  0  0  0  0  0
  187.8020  172.8870  137.8470 F   0  0  0  0  0  0  0  0  0  0  0  0
  187.3950  175.0700  137.5100 F   0  0  0  0  0  0  0  0  0  0  0  0
  1  4  1  0  0  0  0
  3  5  1  0  0  0  0
  4 14  1  0  0  0  0
  4  6  1  0  0  0  0
  5  1  1  0  0  0  0
  5  8  1  0  0  0  0
  6  2  1  0  0  0  0
  7  3  1  0  0  0  0
  7 10  1  0  0  0  0
  8 14  1  0  0  0  0
  9 18  1  0  0  0  0
 10 13  1  0  0  0  0
 11 16  1  0  0  0  0
 11 12  1  0  0  0  0
 12  2  1  0  0  0  0
 13  9  1  0  0  0  0
 13  1  1  0  0  0  0
 15  6  1  0  0  0  0
 15 20  1  0  0  0  0
 17 26  1  0  0  0  0
 17 14  1  0  0  0  0
 17 16  1  0  0  0  0
 18 15  1  0  0  0  0
 19 25  1  0  0  0  0
 20 19  2  0  0  0  0
 20 21  1  0  0  0  0
 21 24  2  0  0  0  0
 24 23  1  0  0  0  0
 24 22  1  0  0  0  0
 25 23  2  0  0  0  0
 26 27  1  0  0  0  0
 27 30  1  0  0  0  0
 28 29  1  0  0  0  0
 29 27  1  0  0  0  0
 30 31  1  0  0  0  0
 31 32  1  0  0  0  0
 33  3  1  0  0  0  0
 34 33  1  0  0  0  0
 35 34  1  0  0  0  0
 36 34  1  0  0  0  0
 37 34  1  0  0  0  0
M  END
>  <MODEL>
9

>  <REMARK>
 VINA RESULT:      -6.3      2.641      3.460
  Name = 
  8 active torsions:
  status: ('A' for Active; 'I' for Inactive)
    1  A    between atoms: C_1  and  N_4
    2  A    between atoms: C_1  and  C_27
    3  A    between atoms: C_2  and  O_22
    4  A    between atoms: N_4  and  C_12
    5  A    between atoms: N_4  and  C_37
    6  A    between atoms: C_6  and  O_22
    7  A    between atoms: C_8  and  C_12
    8  A    between atoms: N_23  and  C_30
                            x       y       z     vdW  Elec       q    Type
                         _______ _______ _______ _____ _____    ______ ____

>  <TORSDO>
F 8

$$$$
