=
 OpenBabel11112417583D

 34 39  0  0  1  0  0  0  0  0999 V2000
  185.4060  177.2510  143.9640 C   0  0  2  0  0  3  0  0  0  0  0  0
  184.2060  178.3970  145.9720 C   0  0  0  0  0  2  0  0  0  0  0  0
  191.1250  173.7150  142.6880 C   0  0  0  0  0  2  0  0  0  0  0  0
  187.1550  176.6950  142.3030 C   0  0  0  0  0  0  0  0  0  0  0  0
  189.5280  176.4910  142.9910 C   0  0  0  0  0  0  0  0  0  0  0  0
  191.9860  176.0020  143.1880 C   0  0  0  0  0  2  0  0  0  0  0  0
  192.1600  174.7650  142.3190 C   0  0  0  0  0  2  0  0  0  0  0  0
  189.6130  174.2630  140.7490 C   0  0  0  0  0  2  0  0  0  0  0  0
  186.4980  177.6930  146.1950 C   0  0  2  0  0  3  0  0  0  0  0  0
  189.1460  176.4780  144.2790 C   0  0  0  0  0  3  0  0  0  0  0  0
  188.4450  174.6970  141.6190 C   0  0  0  0  0  2  0  0  0  0  0  0
  187.3520  176.4280  146.1220 C   0  0  1  0  0  3  0  0  0  0  0  0
  184.6750  178.7520  147.3770 C   0  0  0  0  0  2  0  0  0  0  0  0
  188.5210  176.1940  141.8980 C   0  0  1  0  0  3  0  0  0  0  0  0
  190.4330  173.1810  141.4430 C   0  0  0  0  0  2  0  0  0  0  0  0
  186.7470  176.6200  143.5970 C   0  0  0  0  0  0  0  0  0  0  0  0
  190.9140  176.9310  142.6260 C   0  0  0  0  0  2  0  0  0  0  0  0
  187.7310  176.0910  144.6510 C   0  0  1  0  0  3  0  0  0  0  0  0
  185.6230  178.6030  141.9190 C   0  0  0  0  0  3  0  0  0  0  0  0
  186.2980  177.4090  141.2860 C   0  0  0  0  0  2  0  0  0  0  0  0
  186.0260  178.0740  147.5830 C   0  0  0  0  0  2  0  0  0  0  0  0
  185.2020  178.5350  143.1920 C   0  0  0  0  0  3  0  0  0  0  0  0
  185.2160  177.3840  145.4770 C   0  0  2  0  0  3  0  0  0  0  0  0
  188.5520  176.4510  147.0740 C   0  0  0  0  0  2  0  0  0  0  0  0
  189.0500  175.0450  147.3630 C   0  0  0  0  0  2  0  0  0  0  0  0
  190.5640  175.0030  147.3180 C   0  0  0  0  0  2  0  0  0  0  0  0
  191.0750  176.1970  147.8230 O   0  0  0  0  0  0  0  0  0  0  0  0
  192.1060  176.5370  146.9460 C   0  0  0  0  0  2  0  0  0  0  0  0
  192.9150  175.3000  146.5870 C   0  0  0  0  0  2  0  0  0  0  0  0
  195.7200  175.5230  144.5130 C   0  0  0  0  0  2  0  0  0  0  0  0
  194.5960  176.9690  145.7820 C   0  0  0  0  0  2  0  0  0  0  0  0
  194.3960  175.6300  146.4680 C   0  0  2  0  0  3  0  0  0  0  0  0
  195.0390  176.7470  144.4690 O   0  0  0  0  0  0  0  0  0  0  0  0
  195.0440  174.6500  145.5390 C   0  0  0  0  0  2  0  0  0  0  0  0
  1 22  1  6  0  0  0
  1 23  1  0  0  0  0
  2 13  1  0  0  0  0
  4 16  2  0  0  0  0
  5 10  2  0  0  0  0
  7  3  1  0  0  0  0
  7  6  1  0  0  0  0
  8 15  1  0  0  0  0
  8 11  1  0  0  0  0
  9 21  1  1  0  0  0
 12  9  1  0  0  0  0
 12 24  1  1  0  0  0
 13 21  1  0  0  0  0
 14 11  1  1  0  0  0
 14  4  1  0  0  0  0
 14  5  1  0  0  0  0
 15  3  1  0  0  0  0
 16  1  1  0  0  0  0
 16 18  1  0  0  0  0
 17  5  1  0  0  0  0
 17  6  1  0  0  0  0
 18 10  1  6  0  0  0
 18 12  1  0  0  0  0
 19 22  2  0  0  0  0
 20 19  1  0  0  0  0
 20  4  1  0  0  0  0
 23  2  1  6  0  0  0
 23  9  1  0  0  0  0
 24 25  1  0  0  0  0
 26 25  1  0  0  0  0
 26 27  1  0  0  0  0
 28 27  1  0  0  0  0
 29 28  1  0  0  0  0
 30 34  1  0  0  0  0
 31 32  1  0  0  0  0
 32 29  1  6  0  0  0
 33 30  1  0  0  0  0
 33 31  1  0  0  0  0
 34 32  1  0  0  0  0
M  END
>  <MODEL>
1

>  <REMARK>
 VINA RESULT:      -8.5      0.000      0.000
  Name = 
  7 active torsions:
  status: ('A' for Active; 'I' for Inactive)
    1  A    between atoms: C_10  and  O_17
    2  A    between atoms: C_10  and  C_22
    3  A    between atoms: C_13  and  C_24
    4  A    between atoms: O_17  and  C_28
    5  A    between atoms: C_22  and  C_24
    6  A    between atoms: C_28  and  C_29
    7  A    between atoms: C_29  and  C_32
                            x       y       z     vdW  Elec       q    Type
                         _______ _______ _______ _____ _____    ______ ____

>  <TORSDO>
F 7

$$$$
=
 OpenBabel11112417583D

 34 39  0  0  1  0  0  0  0  0999 V2000
  185.9970  178.3030  145.0110 C   0  0  2  0  0  3  0  0  0  0  0  0
  184.2750  178.7360  143.1060 C   0  0  0  0  0  2  0  0  0  0  0  0
  192.3650  175.9180  145.7850 C   0  0  0  0  0  2  0  0  0  0  0  0
  187.5830  177.1130  146.4920 C   0  0  0  0  0  0  0  0  0  0  0  0
  189.1880  175.4690  145.5590 C   0  0  0  0  0  0  0  0  0  0  0  0
  191.0880  173.8830  145.1160 C   0  0  0  0  0  2  0  0  0  0  0  0
  192.1990  174.4240  146.0030 C   0  0  0  0  0  2  0  0  0  0  0  0
  191.0760  176.5470  147.8550 C   0  0  0  0  0  2  0  0  0  0  0  0
  186.2380  177.4170  142.6610 C   0  0  2  0  0  3  0  0  0  0  0  0
  188.9100  175.9100  144.3210 C   0  0  0  0  0  3  0  0  0  0  0  0
  189.9770  177.2780  147.1010 C   0  0  0  0  0  2  0  0  0  0  0  0
  187.7620  177.5300  142.6860 C   0  0  1  0  0  3  0  0  0  0  0  0
  184.2310  178.3010  141.6460 C   0  0  0  0  0  2  0  0  0  0  0  0
  188.8400  176.3200  146.7650 C   0  0  1  0  0  3  0  0  0  0  0  0
  192.4040  176.6550  147.1150 C   0  0  0  0  0  2  0  0  0  0  0  0
  187.3380  177.6130  145.2530 C   0  0  0  0  0  0  0  0  0  0  0  0
  189.7170  174.0800  145.7580 C   0  0  0  0  0  2  0  0  0  0  0  0
  188.3200  177.2890  144.1170 C   0  0  1  0  0  3  0  0  0  0  0  0
  185.1540  177.0790  146.9720 C   0  0  0  0  0  3  0  0  0  0  0  0
  186.5330  177.2280  147.5700 C   0  0  0  0  0  2  0  0  0  0  0  0
  185.5910  177.6940  141.3190 C   0  0  0  0  0  2  0  0  0  0  0  0
  184.8960  177.5830  145.7550 C   0  0  0  0  0  3  0  0  0  0  0  0
  185.7140  178.5290  143.5230 C   0  0  2  0  0  3  0  0  0  0  0  0
  188.4500  176.6840  141.6100 C   0  0  0  0  0  2  0  0  0  0  0  0
  187.8390  175.2950  141.5300 C   0  0  0  0  0  2  0  0  0  0  0  0
  188.4930  174.4950  140.4200 C   0  0  0  0  0  2  0  0  0  0  0  0
  188.3480  173.1340  140.6850 O   0  0  0  0  0  0  0  0  0  0  0  0
  188.2010  173.0600  142.0700 C   0  0  0  0  0  2  0  0  0  0  0  0
  189.1630  172.0300  142.6420 C   0  0  0  0  0  2  0  0  0  0  0  0
  192.5570  171.4520  142.0360 C   0  0  0  0  0  2  0  0  0  0  0  0
  190.7030  170.2330  141.8330 C   0  0  0  0  0  2  0  0  0  0  0  0
  190.2380  171.6620  141.6300 C   0  0  2  0  0  3  0  0  0  0  0  0
  191.9680  170.2470  142.4410 O   0  0  0  0  0  0  0  0  0  0  0  0
  191.4640  172.4810  141.8960 C   0  0  0  0  0  2  0  0  0  0  0  0
  1 16  1  0  0  0  0
  1 22  1  6  0  0  0
  3  7  1  0  0  0  0
  3 15  1  0  0  0  0
  4 14  1  0  0  0  0
  4 20  1  0  0  0  0
  5 17  1  0  0  0  0
  5 14  1  0  0  0  0
  6 17  1  0  0  0  0
  6  7  1  0  0  0  0
  9 21  1  6  0  0  0
  9 12  1  0  0  0  0
  9 23  1  0  0  0  0
 10  5  2  0  0  0  0
 11  8  1  0  0  0  0
 12 24  1  6  0  0  0
 12 18  1  0  0  0  0
 13  2  1  0  0  0  0
 14 11  1  6  0  0  0
 15  8  1  0  0  0  0
 16  4  2  0  0  0  0
 18 10  1  6  0  0  0
 18 16  1  0  0  0  0
 19 20  1  0  0  0  0
 21 13  1  0  0  0  0
 22 19  2  0  0  0  0
 23  2  1  1  0  0  0
 23  1  1  0  0  0  0
 25 24  1  0  0  0  0
 26 27  1  0  0  0  0
 26 25  1  0  0  0  0
 27 28  1  0  0  0  0
 28 29  1  0  0  0  0
 30 33  1  0  0  0  0
 31 33  1  0  0  0  0
 32 31  1  0  0  0  0
 32 34  1  0  0  0  0
 32 29  1  1  0  0  0
 34 30  1  0  0  0  0
M  END
>  <MODEL>
2

>  <REMARK>
 VINA RESULT:      -8.2      2.458      5.363
  Name = 
  7 active torsions:
  status: ('A' for Active; 'I' for Inactive)
    1  A    between atoms: C_10  and  O_17
    2  A    between atoms: C_10  and  C_22
    3  A    between atoms: C_13  and  C_24
    4  A    between atoms: O_17  and  C_28
    5  A    between atoms: C_22  and  C_24
    6  A    between atoms: C_28  and  C_29
    7  A    between atoms: C_29  and  C_32
                            x       y       z     vdW  Elec       q    Type
                         _______ _______ _______ _____ _____    ______ ____

>  <TORSDO>
F 7

$$$$
=
 OpenBabel11112417583D

 34 39  0  0  1  0  0  0  0  0999 V2000
  185.9350  178.3060  145.0620 C   0  0  2  0  0  3  0  0  0  0  0  0
  184.2050  178.7410  143.1650 C   0  0  0  0  0  2  0  0  0  0  0  0
  192.3300  175.9800  145.7960 C   0  0  0  0  0  2  0  0  0  0  0  0
  187.5380  177.1170  146.5270 C   0  0  0  0  0  0  0  0  0  0  0  0
  189.1580  175.4990  145.5730 C   0  0  0  0  0  0  0  0  0  0  0  0
  191.0730  173.9390  145.1100 C   0  0  0  0  0  2  0  0  0  0  0  0
  192.1800  174.4820  146.0000 C   0  0  0  0  0  2  0  0  0  0  0  0
  191.0390  176.5740  147.8760 C   0  0  0  0  0  2  0  0  0  0  0  0
  186.1810  177.4460  142.7020 C   0  0  2  0  0  3  0  0  0  0  0  0
  188.8720  175.9510  144.3410 C   0  0  0  0  0  3  0  0  0  0  0  0
  189.9310  177.3010  147.1320 C   0  0  0  0  0  2  0  0  0  0  0  0
  187.7030  177.5750  142.7250 C   0  0  1  0  0  3  0  0  0  0  0  0
  184.1630  178.3200  141.7010 C   0  0  0  0  0  2  0  0  0  0  0  0
  188.8030  176.3350  146.7890 C   0  0  1  0  0  3  0  0  0  0  0  0
  192.3650  176.7040  147.1340 C   0  0  0  0  0  2  0  0  0  0  0  0
  187.2850  177.6280  145.2930 C   0  0  0  0  0  0  0  0  0  0  0  0
  189.7010  174.1140  145.7570 C   0  0  0  0  0  2  0  0  0  0  0  0
  188.2670  177.3260  144.1520 C   0  0  1  0  0  3  0  0  0  0  0  0
  185.1100  177.0530  147.0120 C   0  0  0  0  0  3  0  0  0  0  0  0
  186.4890  177.2100  147.6090 C   0  0  0  0  0  2  0  0  0  0  0  0
  185.5280  177.7300  141.3650 C   0  0  0  0  0  2  0  0  0  0  0  0
  184.8440  177.5660  145.8010 C   0  0  0  0  0  3  0  0  0  0  0  0
  185.6470  178.5440  143.5770 C   0  0  2  0  0  3  0  0  0  0  0  0
  188.3970  176.7480  141.6380 C   0  0  0  0  0  2  0  0  0  0  0  0
  187.7650  175.3720  141.5070 C   0  0  0  0  0  2  0  0  0  0  0  0
  188.7340  174.4060  140.8560 C   0  0  0  0  0  2  0  0  0  0  0  0
  189.3820  173.6660  141.8440 O   0  0  0  0  0  0  0  0  0  0  0  0
  190.7070  173.5890  141.4130 C   0  0  0  0  0  2  0  0  0  0  0  0
  191.4560  174.8550  141.8000 C   0  0  0  0  0  2  0  0  0  0  0  0
  194.6940  174.8360  143.1190 C   0  0  0  0  0  2  0  0  0  0  0  0
  193.4530  173.3610  142.0000 C   0  0  0  0  0  2  0  0  0  0  0  0
  192.9470  174.7130  141.5310 C   0  0  2  0  0  3  0  0  0  0  0  0
  194.1800  173.5340  143.1880 O   0  0  0  0  0  0  0  0  0  0  0  0
  193.6960  175.6920  142.3820 C   0  0  0  0  0  2  0  0  0  0  0  0
  1 16  1  0  0  0  0
  1 22  1  6  0  0  0
  3  7  1  0  0  0  0
  3 15  1  0  0  0  0
  4 14  1  0  0  0  0
  4 20  1  0  0  0  0
  5 17  1  0  0  0  0
  5 14  1  0  0  0  0
  6 17  1  0  0  0  0
  6  7  1  0  0  0  0
  9 21  1  6  0  0  0
  9 12  1  0  0  0  0
  9 23  1  0  0  0  0
 10  5  2  0  0  0  0
 11  8  1  0  0  0  0
 12 24  1  6  0  0  0
 12 18  1  0  0  0  0
 13  2  1  0  0  0  0
 14 11  1  6  0  0  0
 15  8  1  0  0  0  0
 16  4  2  0  0  0  0
 18 10  1  6  0  0  0
 18 16  1  0  0  0  0
 19 20  1  0  0  0  0
 21 13  1  0  0  0  0
 22 19  2  0  0  0  0
 23  2  1  1  0  0  0
 23  1  1  0  0  0  0
 25 24  1  0  0  0  0
 26 25  1  0  0  0  0
 26 27  1  0  0  0  0
 28 29  1  0  0  0  0
 28 27  1  0  0  0  0
 30 33  1  0  0  0  0
 31 33  1  0  0  0  0
 32 29  1  1  0  0  0
 32 31  1  0  0  0  0
 32 34  1  0  0  0  0
 34 30  1  0  0  0  0
M  END
>  <MODEL>
3

>  <REMARK>
 VINA RESULT:      -8.2      1.805      4.720
  Name = 
  7 active torsions:
  status: ('A' for Active; 'I' for Inactive)
    1  A    between atoms: C_10  and  O_17
    2  A    between atoms: C_10  and  C_22
    3  A    between atoms: C_13  and  C_24
    4  A    between atoms: O_17  and  C_28
    5  A    between atoms: C_22  and  C_24
    6  A    between atoms: C_28  and  C_29
    7  A    between atoms: C_29  and  C_32
                            x       y       z     vdW  Elec       q    Type
                         _______ _______ _______ _____ _____    ______ ____

>  <TORSDO>
F 7

$$$$
=
 OpenBabel11112417583D

 34 39  0  0  1  0  0  0  0  0999 V2000
  188.2460  176.9040  145.8430 C   0  0  2  0  0  3  0  0  0  0  0  0
  186.2460  178.3500  146.6760 C   0  0  0  0  0  2  0  0  0  0  0  0
  190.4540  173.9680  140.0690 C   0  0  0  0  0  2  0  0  0  0  0  0
  189.5030  175.0220  144.8410 C   0  0  0  0  0  0  0  0  0  0  0  0
  188.6980  173.9320  142.7640 C   0  0  0  0  0  0  0  0  0  0  0  0
  188.4260  172.6310  140.6310 C   0  0  0  0  0  2  0  0  0  0  0  0
  189.8420  172.5780  140.0780 C   0  0  0  0  0  2  0  0  0  0  0  0
  191.7860  173.5930  142.1730 C   0  0  0  0  0  2  0  0  0  0  0  0
  186.1260  177.2750  144.5260 C   0  0  2  0  0  3  0  0  0  0  0  0
  187.8370  174.9460  142.5740 C   0  0  0  0  0  3  0  0  0  0  0  0
  191.0800  174.6810  142.9640 C   0  0  0  0  0  2  0  0  0  0  0  0
  186.8550  177.2440  143.1840 C   0  0  1  0  0  3  0  0  0  0  0  0
  184.9010  178.6940  146.0500 C   0  0  0  0  0  2  0  0  0  0  0  0
  189.8780  174.1040  143.7020 C   0  0  1  0  0  3  0  0  0  0  0  0
  191.8420  173.9490  140.6920 C   0  0  0  0  0  2  0  0  0  0  0  0
  188.6830  176.0850  144.6300 C   0  0  0  0  0  0  0  0  0  0  0  0
  188.4200  172.5900  142.1570 C   0  0  0  0  0  2  0  0  0  0  0  0
  188.0810  176.2870  143.2320 C   0  0  1  0  0  3  0  0  0  0  0  0
  188.8080  174.9420  147.2170 C   0  0  0  0  0  3  0  0  0  0  0  0
  189.9320  174.6710  146.2450 C   0  0  0  0  0  2  0  0  0  0  0  0
  184.9480  178.2250  144.6000 C   0  0  0  0  0  2  0  0  0  0  0  0
  188.0010  175.9980  147.0270 C   0  0  0  0  0  3  0  0  0  0  0  0
  187.0890  177.8540  145.5210 C   0  0  2  0  0  3  0  0  0  0  0  0
  185.9240  176.9880  141.9940 C   0  0  0  0  0  2  0  0  0  0  0  0
  185.8950  178.1810  141.0540 C   0  0  0  0  0  2  0  0  0  0  0  0
  184.5070  178.3570  140.4700 C   0  0  0  0  0  2  0  0  0  0  0  0
  183.5550  178.0310  141.4340 O   0  0  0  0  0  0  0  0  0  0  0  0
  182.3290  178.2630  140.8110 C   0  0  0  0  0  2  0  0  0  0  0  0
  181.3010  178.7190  141.8350 C   0  0  0  0  0  2  0  0  0  0  0  0
  177.9790  179.2620  140.8940 C   0  0  0  0  0  2  0  0  0  0  0  0
  179.6660  178.0720  140.0570 C   0  0  0  0  0  2  0  0  0  0  0  0
  179.9360  178.1100  141.5490 C   0  0  2  0  0  3  0  0  0  0  0  0
  178.7430  179.0790  139.7350 O   0  0  0  0  0  0  0  0  0  0  0  0
  178.8710  179.0190  142.0840 C   0  0  0  0  0  2  0  0  0  0  0  0
  1 22  1  1  0  0  0
  3  7  1  0  0  0  0
  3 15  1  0  0  0  0
  4 20  1  0  0  0  0
  5 14  1  0  0  0  0
  6 17  1  0  0  0  0
  7  6  1  0  0  0  0
  8 11  1  0  0  0  0
  9 21  1  6  0  0  0
  9 23  1  0  0  0  0
 10  5  2  0  0  0  0
 12 24  1  6  0  0  0
 12 18  1  0  0  0  0
 12  9  1  0  0  0  0
 13  2  1  0  0  0  0
 14 11  1  6  0  0  0
 14  4  1  0  0  0  0
 15  8  1  0  0  0  0
 16  4  2  0  0  0  0
 16  1  1  0  0  0  0
 17  5  1  0  0  0  0
 18 10  1  1  0  0  0
 18 16  1  0  0  0  0
 20 19  1  0  0  0  0
 21 13  1  0  0  0  0
 22 19  2  0  0  0  0
 23  1  1  0  0  0  0
 23  2  1  1  0  0  0
 25 24  1  0  0  0  0
 26 25  1  0  0  0  0
 26 27  1  0  0  0  0
 28 27  1  0  0  0  0
 28 29  1  0  0  0  0
 30 34  1  0  0  0  0
 31 32  1  0  0  0  0
 32 29  1  6  0  0  0
 32 34  1  0  0  0  0
 33 31  1  0  0  0  0
 33 30  1  0  0  0  0
M  END
>  <MODEL>
4

>  <REMARK>
 VINA RESULT:      -7.9      4.084      8.281
  Name = 
  7 active torsions:
  status: ('A' for Active; 'I' for Inactive)
    1  A    between atoms: C_10  and  O_17
    2  A    between atoms: C_10  and  C_22
    3  A    between atoms: C_13  and  C_24
    4  A    between atoms: O_17  and  C_28
    5  A    between atoms: C_22  and  C_24
    6  A    between atoms: C_28  and  C_29
    7  A    between atoms: C_29  and  C_32
                            x       y       z     vdW  Elec       q    Type
                         _______ _______ _______ _____ _____    ______ ____

>  <TORSDO>
F 7

$$$$
=
 OpenBabel11112417583D

 34 39  0  0  1  0  0  0  0  0999 V2000
  185.9520  178.2860  145.0540 C   0  0  2  0  0  3  0  0  0  0  0  0
  184.2420  178.7070  143.1350 C   0  0  0  0  0  2  0  0  0  0  0  0
  192.3660  176.0420  145.8680 C   0  0  0  0  0  2  0  0  0  0  0  0
  187.5500  177.1130  146.5370 C   0  0  0  0  0  0  0  0  0  0  0  0
  189.2040  175.5210  145.5990 C   0  0  0  0  0  0  0  0  0  0  0  0
  191.1450  173.9870  145.1560 C   0  0  0  0  0  2  0  0  0  0  0  0
  192.2340  174.5410  146.0640 C   0  0  0  0  0  2  0  0  0  0  0  0
  191.0390  176.6110  147.9320 C   0  0  0  0  0  2  0  0  0  0  0  0
  186.2410  177.4400  142.6950 C   0  0  2  0  0  3  0  0  0  0  0  0
  188.9290  175.9740  144.3650 C   0  0  0  0  0  3  0  0  0  0  0  0
  189.9320  177.3260  147.1760 C   0  0  0  0  0  2  0  0  0  0  0  0
  187.7610  177.5890  142.7390 C   0  0  1  0  0  3  0  0  0  0  0  0
  184.2260  178.2910  141.6690 C   0  0  0  0  0  2  0  0  0  0  0  0
  188.8210  176.3460  146.8130 C   0  0  1  0  0  3  0  0  0  0  0  0
  192.3730  176.7610  147.2090 C   0  0  0  0  0  2  0  0  0  0  0  0
  187.3070  177.6260  145.3020 C   0  0  0  0  0  0  0  0  0  0  0  0
  189.7630  174.1420  145.7850 C   0  0  0  0  0  2  0  0  0  0  0  0
  188.3090  177.3410  144.1740 C   0  0  1  0  0  3  0  0  0  0  0  0
  185.1170  177.0150  146.9880 C   0  0  0  0  0  3  0  0  0  0  0  0
  186.4850  177.1880  147.6040 C   0  0  0  0  0  2  0  0  0  0  0  0
  185.6030  177.7210  141.3500 C   0  0  0  0  0  2  0  0  0  0  0  0
  184.8610  177.5300  145.7750 C   0  0  0  0  0  3  0  0  0  0  0  0
  185.6810  178.5270  143.5660 C   0  0  2  0  0  3  0  0  0  0  0  0
  188.4810  176.7750  141.6590 C   0  0  0  0  0  2  0  0  0  0  0  0
  187.8170  175.4240  141.4550 C   0  0  0  0  0  2  0  0  0  0  0  0
  188.8330  174.4010  140.9880 C   0  0  0  0  0  2  0  0  0  0  0  0
  188.1960  173.1800  140.7760 O   0  0  0  0  0  0  0  0  0  0  0  0
  188.2360  172.9980  139.3930 C   0  0  0  0  0  2  0  0  0  0  0  0
  189.6270  173.3130  138.8650 C   0  0  0  0  0  2  0  0  0  0  0  0
  191.2720  173.2900  135.7810 C   0  0  0  0  0  2  0  0  0  0  0  0
  189.3550  172.4420  136.5360 C   0  0  0  0  0  2  0  0  0  0  0  0
  189.5820  173.6770  137.3880 C   0  0  2  0  0  3  0  0  0  0  0  0
  190.5620  172.0890  135.9130 O   0  0  0  0  0  0  0  0  0  0  0  0
  190.9330  174.1640  136.9610 C   0  0  0  0  0  2  0  0  0  0  0  0
  1 16  1  0  0  0  0
  1 22  1  6  0  0  0
  3  7  1  0  0  0  0
  3 15  1  0  0  0  0
  4 14  1  0  0  0  0
  4 20  1  0  0  0  0
  5 17  1  0  0  0  0
  5 14  1  0  0  0  0
  6 17  1  0  0  0  0
  6  7  1  0  0  0  0
  9 21  1  6  0  0  0
  9 12  1  0  0  0  0
  9 23  1  0  0  0  0
 10  5  2  0  0  0  0
 11  8  1  0  0  0  0
 12 24  1  6  0  0  0
 12 18  1  0  0  0  0
 13  2  1  0  0  0  0
 14 11  1  6  0  0  0
 15  8  1  0  0  0  0
 16  4  2  0  0  0  0
 18 10  1  6  0  0  0
 18 16  1  0  0  0  0
 19 20  1  0  0  0  0
 21 13  1  0  0  0  0
 22 19  2  0  0  0  0
 23  2  1  1  0  0  0
 23  1  1  0  0  0  0
 25 24  1  0  0  0  0
 26 25  1  0  0  0  0
 27 26  1  0  0  0  0
 28 27  1  0  0  0  0
 29 28  1  0  0  0  0
 30 33  1  0  0  0  0
 30 34  1  0  0  0  0
 31 32  1  0  0  0  0
 32 29  1  1  0  0  0
 33 31  1  0  0  0  0
 34 32  1  0  0  0  0
M  END
>  <MODEL>
5

>  <REMARK>
 VINA RESULT:      -7.6      3.006      6.277
  Name = 
  7 active torsions:
  status: ('A' for Active; 'I' for Inactive)
    1  A    between atoms: C_10  and  O_17
    2  A    between atoms: C_10  and  C_22
    3  A    between atoms: C_13  and  C_24
    4  A    between atoms: O_17  and  C_28
    5  A    between atoms: C_22  and  C_24
    6  A    between atoms: C_28  and  C_29
    7  A    between atoms: C_29  and  C_32
                            x       y       z     vdW  Elec       q    Type
                         _______ _______ _______ _____ _____    ______ ____

>  <TORSDO>
F 7

$$$$
=
 OpenBabel11112417583D

 34 39  0  0  1  0  0  0  0  0999 V2000
  192.7310  175.2130  145.1120 C   0  0  2  0  0  3  0  0  0  0  0  0
  192.5200  176.4710  147.3820 C   0  0  0  0  0  2  0  0  0  0  0  0
  188.9950  173.9880  139.5100 C   0  0  0  0  0  2  0  0  0  0  0  0
  192.2440  173.6370  143.2670 C   0  0  0  0  0  0  0  0  0  0  0  0
  189.9130  173.2660  142.5070 C   0  0  0  0  0  0  0  0  0  0  0  0
  187.8070  172.6750  141.2670 C   0  0  0  0  0  2  0  0  0  0  0  0
  188.2490  172.6990  139.8120 C   0  0  0  0  0  2  0  0  0  0  0  0
  191.2710  172.9220  139.6730 C   0  0  0  0  0  2  0  0  0  0  0  0
  190.5560  176.0910  146.0430 C   0  0  2  0  0  3  0  0  0  0  0  0
  189.5210  174.3430  143.2090 C   0  0  0  0  0  3  0  0  0  0  0  0
  191.7220  173.7690  140.8500 C   0  0  0  0  0  2  0  0  0  0  0  0
  189.9970  176.4140  144.6580 C   0  0  1  0  0  3  0  0  0  0  0  0
  191.3250  177.0700  148.1140 C   0  0  0  0  0  2  0  0  0  0  0  0
  191.3780  173.0760  142.1640 C   0  0  1  0  0  3  0  0  0  0  0  0
  190.3010  173.6970  138.7870 C   0  0  0  0  0  2  0  0  0  0  0  0
  191.8750  174.7640  143.9290 C   0  0  0  0  0  0  0  0  0  0  0  0
  188.9270  172.1840  142.1820 C   0  0  0  0  0  2  0  0  0  0  0  0
  190.5230  175.4100  143.5920 C   0  0  1  0  0  3  0  0  0  0  0  0
  193.5620  172.9010  145.2300 C   0  0  0  0  0  3  0  0  0  0  0  0
  193.4550  172.8590  143.7230 C   0  0  0  0  0  2  0  0  0  0  0  0
  190.1490  177.0500  147.1430 C   0  0  0  0  0  2  0  0  0  0  0  0
  193.2150  174.0140  145.8930 C   0  0  0  0  0  3  0  0  0  0  0  0
  192.0430  176.2880  145.9580 C   0  0  2  0  0  3  0  0  0  0  0  0
  188.4750  176.5810  144.6430 C   0  0  0  0  0  2  0  0  0  0  0  0
  188.0540  177.6990  143.7030 C   0  0  0  0  0  2  0  0  0  0  0  0
  186.7740  177.3270  142.9820 C   0  0  0  0  0  2  0  0  0  0  0  0
  185.9160  178.4260  142.9680 O   0  0  0  0  0  0  0  0  0  0  0  0
  184.9630  178.1400  143.9460 C   0  0  0  0  0  2  0  0  0  0  0  0
  185.0130  179.1890  145.0470 C   0  0  0  0  0  2  0  0  0  0  0  0
  186.1440  176.9540  147.4850 C   0  0  0  0  0  2  0  0  0  0  0  0
  185.7300  179.1430  147.4420 C   0  0  0  0  0  2  0  0  0  0  0  0
  184.7810  178.5600  146.4120 C   0  0  2  0  0  3  0  0  0  0  0  0
  186.7340  178.2030  147.7210 O   0  0  0  0  0  0  0  0  0  0  0  0
  185.1570  177.1110  146.3570 C   0  0  0  0  0  2  0  0  0  0  0  0
  1 22  1  1  0  0  0
  1 23  1  0  0  0  0
  2 13  1  0  0  0  0
  3  7  1  0  0  0  0
  4 20  1  0  0  0  0
  4 16  2  0  0  0  0
  5 10  2  0  0  0  0
  6 17  1  0  0  0  0
  7  6  1  0  0  0  0
  8 11  1  0  0  0  0
  9 21  1  1  0  0  0
 12 24  1  1  0  0  0
 12  9  1  0  0  0  0
 14 11  1  6  0  0  0
 14  5  1  0  0  0  0
 14  4  1  0  0  0  0
 15  3  1  0  0  0  0
 15  8  1  0  0  0  0
 16  1  1  0  0  0  0
 17  5  1  0  0  0  0
 18 10  1  1  0  0  0
 18 16  1  0  0  0  0
 18 12  1  0  0  0  0
 19 22  2  0  0  0  0
 20 19  1  0  0  0  0
 21 13  1  0  0  0  0
 23  9  1  0  0  0  0
 23  2  1  1  0  0  0
 25 24  1  0  0  0  0
 26 25  1  0  0  0  0
 27 26  1  0  0  0  0
 27 28  1  0  0  0  0
 28 29  1  0  0  0  0
 30 33  1  0  0  0  0
 31 33  1  0  0  0  0
 32 29  1  6  0  0  0
 32 31  1  0  0  0  0
 34 32  1  0  0  0  0
 34 30  1  0  0  0  0
M  END
>  <MODEL>
6

>  <REMARK>
 VINA RESULT:      -7.6      2.349      6.700
  Name = 
  7 active torsions:
  status: ('A' for Active; 'I' for Inactive)
    1  A    between atoms: C_10  and  O_17
    2  A    between atoms: C_10  and  C_22
    3  A    between atoms: C_13  and  C_24
    4  A    between atoms: O_17  and  C_28
    5  A    between atoms: C_22  and  C_24
    6  A    between atoms: C_28  and  C_29
    7  A    between atoms: C_29  and  C_32
                            x       y       z     vdW  Elec       q    Type
                         _______ _______ _______ _____ _____    ______ ____

>  <TORSDO>
F 7

$$$$
=
 OpenBabel11112417583D

 34 39  0  0  1  0  0  0  0  0999 V2000
  189.7840  172.1120  141.5770 C   0  0  2  0  0  3  0  0  0  0  0  0
  189.4060  171.8450  139.0140 C   0  0  0  0  0  2  0  0  0  0  0  0
  188.4660  176.6170  146.5570 C   0  0  0  0  0  2  0  0  0  0  0  0
  190.5250  173.0690  143.7360 C   0  0  0  0  0  0  0  0  0  0  0  0
  190.3170  175.5010  144.1760 C   0  0  0  0  0  0  0  0  0  0  0  0
  190.1670  177.8030  145.1720 C   0  0  0  0  0  2  0  0  0  0  0  0
  189.6780  177.5330  146.5870 C   0  0  0  0  0  2  0  0  0  0  0  0
  189.7850  174.5540  147.1450 C   0  0  0  0  0  2  0  0  0  0  0  0
  189.0430  173.9840  140.0560 C   0  0  2  0  0  3  0  0  0  0  0  0
  189.5230  175.6200  143.0980 C   0  0  0  0  0  3  0  0  0  0  0  0
  189.4760  173.8320  145.8440 C   0  0  0  0  0  2  0  0  0  0  0  0
  188.1810  174.6340  141.1380 C   0  0  1  0  0  3  0  0  0  0  0  0
  188.9700  172.8280  137.9350 C   0  0  0  0  0  2  0  0  0  0  0  0
  190.5460  174.1380  144.8020 C   0  0  1  0  0  3  0  0  0  0  0  0
  188.6340  175.4710  147.5430 C   0  0  0  0  0  2  0  0  0  0  0  0
  189.6740  173.1620  142.6810 C   0  0  0  0  0  0  0  0  0  0  0  0
  191.0830  176.6870  144.6770 C   0  0  0  0  0  2  0  0  0  0  0  0
  188.7920  174.4130  142.5510 C   0  0  1  0  0  3  0  0  0  0  0  0
  192.0680  171.6810  142.3840 C   0  0  0  0  0  3  0  0  0  0  0  0
  191.5540  171.9650  143.7760 C   0  0  0  0  0  2  0  0  0  0  0  0
  188.5000  174.0930  138.6460 C   0  0  0  0  0  2  0  0  0  0  0  0
  191.2330  171.7550  141.3360 C   0  0  0  0  0  3  0  0  0  0  0  0
  189.0090  172.5060  140.3160 C   0  0  2  0  0  3  0  0  0  0  0  0
  187.8380  176.0970  140.8410 C   0  0  0  0  0  2  0  0  0  0  0  0
  186.7030  176.5850  141.7260 C   0  0  0  0  0  2  0  0  0  0  0  0
  185.9310  177.6900  141.0320 C   0  0  0  0  0  2  0  0  0  0  0  0
  185.2880  178.4740  141.9870 O   0  0  0  0  0  0  0  0  0  0  0  0
  186.3210  178.9920  142.7700 C   0  0  0  0  0  2  0  0  0  0  0  0
  185.7820  179.4290  144.1240 C   0  0  0  0  0  2  0  0  0  0  0  0
  184.8310  177.1200  146.5710 C   0  0  0  0  0  2  0  0  0  0  0  0
  183.9880  179.0430  145.8240 C   0  0  0  0  0  2  0  0  0  0  0  0
  184.7200  178.4630  144.6280 C   0  0  2  0  0  3  0  0  0  0  0  0
  184.4330  178.3970  146.9880 O   0  0  0  0  0  0  0  0  0  0  0  0
  185.3890  177.2390  145.1750 C   0  0  0  0  0  2  0  0  0  0  0  0
  1 22  1  6  0  0  0
  1 16  1  0  0  0  0
  3  7  1  0  0  0  0
  3 15  1  0  0  0  0
  4 20  1  0  0  0  0
  4 14  1  0  0  0  0
  5 17  1  0  0  0  0
  5 14  1  0  0  0  0
  6  7  1  0  0  0  0
  8 15  1  0  0  0  0
  9 21  1  6  0  0  0
  9 23  1  0  0  0  0
  9 12  1  0  0  0  0
 10  5  2  0  0  0  0
 11  8  1  0  0  0  0
 12 24  1  6  0  0  0
 12 18  1  0  0  0  0
 13 21  1  0  0  0  0
 13  2  1  0  0  0  0
 14 11  1  1  0  0  0
 16  4  2  0  0  0  0
 17  6  1  0  0  0  0
 18 16  1  0  0  0  0
 18 10  1  6  0  0  0
 19 20  1  0  0  0  0
 22 19  2  0  0  0  0
 23  2  1  6  0  0  0
 23  1  1  0  0  0  0
 24 25  1  0  0  0  0
 26 25  1  0  0  0  0
 26 27  1  0  0  0  0
 27 28  1  0  0  0  0
 28 29  1  0  0  0  0
 30 33  1  0  0  0  0
 31 33  1  0  0  0  0
 32 29  1  1  0  0  0
 32 34  1  0  0  0  0
 32 31  1  0  0  0  0
 34 30  1  0  0  0  0
M  END
>  <MODEL>
7

>  <REMARK>
 VINA RESULT:      -7.6      2.926      7.644
  Name = 
  7 active torsions:
  status: ('A' for Active; 'I' for Inactive)
    1  A    between atoms: C_10  and  O_17
    2  A    between atoms: C_10  and  C_22
    3  A    between atoms: C_13  and  C_24
    4  A    between atoms: O_17  and  C_28
    5  A    between atoms: C_22  and  C_24
    6  A    between atoms: C_28  and  C_29
    7  A    between atoms: C_29  and  C_32
                            x       y       z     vdW  Elec       q    Type
                         _______ _______ _______ _____ _____    ______ ____

>  <TORSDO>
F 7

$$$$
=
 OpenBabel11112417583D

 34 39  0  0  1  0  0  0  0  0999 V2000
  192.1500  176.4260  145.4660 C   0  0  2  0  0  3  0  0  0  0  0  0
  190.1940  175.9990  147.1330 C   0  0  0  0  0  2  0  0  0  0  0  0
  194.5790  173.9010  139.5870 C   0  0  0  0  0  2  0  0  0  0  0  0
  194.1550  176.0200  144.0730 C   0  0  0  0  0  0  0  0  0  0  0  0
  194.3980  173.9070  142.7990 C   0  0  0  0  0  0  0  0  0  0  0  0
  195.0400  172.0660  141.2120 C   0  0  0  0  0  2  0  0  0  0  0  0
  195.5670  172.8240  140.0030 C   0  0  0  0  0  2  0  0  0  0  0  0
  195.8630  175.7610  140.6980 C   0  0  0  0  0  2  0  0  0  0  0  0
  190.6940  174.3650  145.4380 C   0  0  2  0  0  3  0  0  0  0  0  0
  193.1040  173.6290  143.0270 C   0  0  0  0  0  3  0  0  0  0  0  0
  194.7530  176.1160  141.6730 C   0  0  0  0  0  2  0  0  0  0  0  0
  190.7670  174.2330  143.9170 C   0  0  1  0  0  3  0  0  0  0  0  0
  189.2130  174.8440  147.2860 C   0  0  0  0  0  2  0  0  0  0  0  0
  194.9110  175.3240  142.9660 C   0  0  1  0  0  3  0  0  0  0  0  0
  195.2880  175.2330  139.3890 C   0  0  0  0  0  2  0  0  0  0  0  0
  192.8300  175.7850  144.2580 C   0  0  0  0  0  0  0  0  0  0  0  0
  195.3640  172.7960  142.5120 C   0  0  0  0  0  2  0  0  0  0  0  0
  192.1350  174.7380  143.3740 C   0  0  1  0  0  3  0  0  0  0  0  0
  194.3910  176.6380  146.4590 C   0  0  0  0  0  3  0  0  0  0  0  0
  194.9120  176.8740  145.0610 C   0  0  0  0  0  2  0  0  0  0  0  0
  189.3760  173.9530  146.0590 C   0  0  0  0  0  2  0  0  0  0  0  0
  193.0810  176.4200  146.6560 C   0  0  0  0  0  3  0  0  0  0  0  0
  190.7650  175.8340  145.7410 C   0  0  2  0  0  3  0  0  0  0  0  0
  190.3850  172.8380  143.4110 C   0  0  0  0  0  2  0  0  0  0  0  0
  189.1620  172.8970  142.5120 C   0  0  0  0  0  2  0  0  0  0  0  0
  188.8570  174.3310  142.1290 C   0  0  0  0  0  2  0  0  0  0  0  0
  187.4870  174.5580  142.2420 O   0  0  0  0  0  0  0  0  0  0  0  0
  187.3630  175.9470  142.2840 C   0  0  0  0  0  2  0  0  0  0  0  0
  187.8940  176.4790  143.6070 C   0  0  0  0  0  2  0  0  0  0  0  0
  186.0600  178.6740  145.6170 C   0  0  0  0  0  2  0  0  0  0  0  0
  185.5480  177.2690  143.9640 C   0  0  0  0  0  2  0  0  0  0  0  0
  186.7700  176.6520  144.6180 C   0  0  2  0  0  3  0  0  0  0  0  0
  185.4500  178.6130  144.3560 O   0  0  0  0  0  0  0  0  0  0  0  0
  187.1810  177.6660  145.6410 C   0  0  0  0  0  2  0  0  0  0  0  0
  1 23  1  0  0  0  0
  1 22  1  1  0  0  0
  2 13  1  0  0  0  0
  3  7  1  0  0  0  0
  4 16  2  0  0  0  0
  4 20  1  0  0  0  0
  5 14  1  0  0  0  0
  5 10  2  0  0  0  0
  6 17  1  0  0  0  0
  7  6  1  0  0  0  0
  8 11  1  0  0  0  0
  9 23  1  0  0  0  0
  9 21  1  6  0  0  0
 12 24  1  1  0  0  0
 12  9  1  0  0  0  0
 14 11  1  6  0  0  0
 14  4  1  0  0  0  0
 15  3  1  0  0  0  0
 15  8  1  0  0  0  0
 16  1  1  0  0  0  0
 17  5  1  0  0  0  0
 18 10  1  1  0  0  0
 18 12  1  0  0  0  0
 18 16  1  0  0  0  0
 19 22  2  0  0  0  0
 20 19  1  0  0  0  0
 21 13  1  0  0  0  0
 23  2  1  1  0  0  0
 25 24  1  0  0  0  0
 26 27  1  0  0  0  0
 26 25  1  0  0  0  0
 27 28  1  0  0  0  0
 28 29  1  0  0  0  0
 30 34  1  0  0  0  0
 31 33  1  0  0  0  0
 31 32  1  0  0  0  0
 32 29  1  6  0  0  0
 32 34  1  0  0  0  0
 33 30  1  0  0  0  0
M  END
>  <MODEL>
8

>  <REMARK>
 VINA RESULT:      -7.3      2.698      6.815
  Name = 
  7 active torsions:
  status: ('A' for Active; 'I' for Inactive)
    1  A    between atoms: C_10  and  O_17
    2  A    between atoms: C_10  and  C_22
    3  A    between atoms: C_13  and  C_24
    4  A    between atoms: O_17  and  C_28
    5  A    between atoms: C_22  and  C_24
    6  A    between atoms: C_28  and  C_29
    7  A    between atoms: C_29  and  C_32
                            x       y       z     vdW  Elec       q    Type
                         _______ _______ _______ _____ _____    ______ ____

>  <TORSDO>
F 7

$$$$
=
 OpenBabel11112417583D

 34 39  0  0  1  0  0  0  0  0999 V2000
  191.0410  176.9960  145.5980 C   0  0  2  0  0  3  0  0  0  0  0  0
  188.7640  177.2990  146.8260 C   0  0  0  0  0  2  0  0  0  0  0  0
  193.4470  174.4700  139.7110 C   0  0  0  0  0  2  0  0  0  0  0  0
  192.9430  175.9040  144.4520 C   0  0  0  0  0  0  0  0  0  0  0  0
  192.5490  174.1160  142.7790 C   0  0  0  0  0  0  0  0  0  0  0  0
  192.6920  172.4260  140.9240 C   0  0  0  0  0  2  0  0  0  0  0  0
  193.7560  173.0120  140.0070 C   0  0  0  0  0  2  0  0  0  0  0  0
  195.1070  175.3500  141.3880 C   0  0  0  0  0  2  0  0  0  0  0  0
  188.8960  175.8700  144.8930 C   0  0  2  0  0  3  0  0  0  0  0  0
  191.2460  174.4410  142.7490 C   0  0  0  0  0  3  0  0  0  0  0  0
  194.0620  176.0410  142.2480 C   0  0  0  0  0  2  0  0  0  0  0  0
  189.2550  175.9300  143.4090 C   0  0  1  0  0  3  0  0  0  0  0  0
  187.3780  176.7210  146.5690 C   0  0  0  0  0  2  0  0  0  0  0  0
  193.5640  175.0970  143.3360 C   0  0  1  0  0  3  0  0  0  0  0  0
  194.6810  175.3350  139.9250 C   0  0  0  0  0  2  0  0  0  0  0  0
  191.6410  176.2860  144.3860 C   0  0  0  0  0  0  0  0  0  0  0  0
  192.9860  172.7360  142.3890 C   0  0  0  0  0  2  0  0  0  0  0  0
  190.7910  175.8140  143.1970 C   0  0  1  0  0  3  0  0  0  0  0  0
  192.8610  176.0070  146.9250 C   0  0  0  0  0  3  0  0  0  0  0  0
  193.7410  176.1650  145.7070 C   0  0  0  0  0  2  0  0  0  0  0  0
  187.4230  176.0350  145.2090 C   0  0  0  0  0  2  0  0  0  0  0  0
  191.5780  176.3950  146.8770 C   0  0  0  0  0  3  0  0  0  0  0  0
  189.5140  177.0820  145.5290 C   0  0  2  0  0  3  0  0  0  0  0  0
  188.4430  174.9560  142.5500 C   0  0  0  0  0  2  0  0  0  0  0  0
  187.9040  175.6400  141.3040 C   0  0  0  0  0  2  0  0  0  0  0  0
  187.9400  177.1460  141.4730 C   0  0  0  0  0  2  0  0  0  0  0  0
  186.7680  177.6960  140.9560 O   0  0  0  0  0  0  0  0  0  0  0  0
  185.9240  177.8250  142.0590 C   0  0  0  0  0  2  0  0  0  0  0  0
  186.5490  178.7540  143.0890 C   0  0  0  0  0  2  0  0  0  0  0  0
  183.8510  178.7610  145.3110 C   0  0  0  0  0  2  0  0  0  0  0  0
  185.8450  179.7560  145.2690 C   0  0  0  0  0  2  0  0  0  0  0  0
  185.4850  179.5710  143.8070 C   0  0  2  0  0  3  0  0  0  0  0  0
  185.0320  178.9180  146.0480 O   0  0  0  0  0  0  0  0  0  0  0  0
  184.2090  178.7880  143.8470 C   0  0  0  0  0  2  0  0  0  0  0  0
  1 22  1  1  0  0  0
  3 15  1  0  0  0  0
  3  7  1  0  0  0  0
  4 20  1  0  0  0  0
  5 14  1  0  0  0  0
  6 17  1  0  0  0  0
  7  6  1  0  0  0  0
  8 11  1  0  0  0  0
  9 21  1  6  0  0  0
  9 23  1  0  0  0  0
 10  5  2  0  0  0  0
 12 24  1  6  0  0  0
 12  9  1  0  0  0  0
 13  2  1  0  0  0  0
 14 11  1  6  0  0  0
 14  4  1  0  0  0  0
 15  8  1  0  0  0  0
 16  4  2  0  0  0  0
 16  1  1  0  0  0  0
 17  5  1  0  0  0  0
 18 10  1  1  0  0  0
 18 12  1  0  0  0  0
 18 16  1  0  0  0  0
 20 19  1  0  0  0  0
 21 13  1  0  0  0  0
 22 19  2  0  0  0  0
 23  1  1  0  0  0  0
 23  2  1  1  0  0  0
 25 26  1  0  0  0  0
 25 24  1  0  0  0  0
 27 26  1  0  0  0  0
 27 28  1  0  0  0  0
 28 29  1  0  0  0  0
 30 33  1  0  0  0  0
 31 33  1  0  0  0  0
 32 29  1  6  0  0  0
 32 34  1  0  0  0  0
 32 31  1  0  0  0  0
 34 30  1  0  0  0  0
M  END
>  <MODEL>
9

>  <REMARK>
 VINA RESULT:      -7.3      2.471      6.672
  Name = 
  7 active torsions:
  status: ('A' for Active; 'I' for Inactive)
    1  A    between atoms: C_10  and  O_17
    2  A    between atoms: C_10  and  C_22
    3  A    between atoms: C_13  and  C_24
    4  A    between atoms: O_17  and  C_28
    5  A    between atoms: C_22  and  C_24
    6  A    between atoms: C_28  and  C_29
    7  A    between atoms: C_29  and  C_32
                            x       y       z     vdW  Elec       q    Type
                         _______ _______ _______ _____ _____    ______ ____

>  <TORSDO>
F 7

$$$$
