=
 OpenBabel11112416303D

 32 37  0  0  1  0  0  0  0  0999 V2000
  192.7200  171.7510  141.8170 C   0  0  0  0  0  2  0  0  0  0  0  0
  189.4800  176.2480  142.7640 C   0  0  1  0  0  3  0  0  0  0  0  0
  192.0910  175.9310  146.9850 C   0  0  0  0  0  2  0  0  0  0  0  0
  191.0190  176.7080  147.7590 C   0  0  0  0  0  2  0  0  0  0  0  0
  187.0230  176.8460  142.9530 C   0  0  0  0  0  0  0  0  0  0  0  0
  186.0070  177.6900  143.6050 C   0  0  0  0  0  0  0  0  0  0  0  0
  190.7370  174.3910  141.6070 C   0  0  1  0  0  3  0  0  0  0  0  0
  192.0230  176.1150  142.5910 C   0  0  0  0  0  2  0  0  0  0  0  0
  185.0110  178.9930  145.2630 C   0  0  1  0  0  3  0  0  0  0  0  0
  193.1290  174.2370  141.7650 C   0  0  0  0  0  2  0  0  0  0  0  0
  192.2160  176.4410  145.5470 C   0  0  0  0  0  2  0  0  0  0  0  0
  190.8350  176.6790  143.3820 C   0  0  2  0  0  3  0  0  0  0  0  0
  190.8530  176.3300  144.8700 C   0  0  2  0  0  3  0  0  0  0  0  0
  188.5770  177.5260  144.8160 C   0  0  2  0  0  3  0  0  0  0  0  0
  184.0900  179.0190  144.0430 C   0  0  0  0  0  3  0  0  0  0  0  0
  191.2400  171.9310  142.1380 C   0  0  0  0  0  2  0  0  0  0  0  0
  191.9150  174.6680  142.4450 N   0  0  2  0  0  0  0  0  0  0  0  0
  184.7370  178.1300  142.9800 C   0  0  0  0  0  3  0  0  0  0  0  0
  190.6220  172.9240  141.1590 C   0  0  0  0  0  2  0  0  0  0  0  0
  193.5760  172.9020  142.3440 C   0  0  2  0  0  3  0  0  0  0  0  0
  189.6740  176.6790  147.0280 C   0  0  0  0  0  2  0  0  0  0  0  0
  189.8660  177.2330  145.6180 C   0  0  1  0  0  3  0  0  0  0  0  0
  187.3500  177.8370  145.6850 C   0  0  0  0  0  2  0  0  0  0  0  0
  189.4760  174.7660  142.3760 C   0  0  0  0  0  2  0  0  0  0  0  0
  186.8100  176.3800  141.8010 O   0  0  0  0  0  0  0  0  0  0  0  0
  184.2920  178.3250  146.4200 C   0  0  0  0  0  1  0  0  0  0  0  0
  188.2800  176.4860  143.7110 C   0  0  2  0  0  3  0  0  0  0  0  0
  186.1620  178.1650  144.8260 C   0  0  0  0  0  0  0  0  0  0  0  0
  194.9710  172.6740  141.9990 N   0  0  0  0  0  2  0  0  0  0  0  0
  196.0480  173.0340  142.8660 C   0  0  0  0  0  0  0  0  0  0  0  0
  195.8220  173.5930  143.9720 O   0  0  0  0  0  0  0  0  0  0  0  0
  197.3880  172.7610  142.4740 N   0  0  0  0  0  1  0  0  0  0  0  0
  1 16  1  0  0  0  0
  1 20  1  0  0  0  0
  2 24  1  1  0  0  0
  2 12  1  0  0  0  0
  2 27  1  0  0  0  0
  3  4  1  0  0  0  0
  5  6  1  0  0  0  0
  6 28  2  0  0  0  0
  7 19  1  1  0  0  0
  7 24  1  0  0  0  0
  7 17  1  0  0  0  0
  9 26  1  1  0  0  0
 10 20  1  0  0  0  0
 11  3  1  0  0  0  0
 12  8  1  6  0  0  0
 12 13  1  0  0  0  0
 13 11  1  1  0  0  0
 13 22  1  0  0  0  0
 14 22  1  0  0  0  0
 14 23  1  1  0  0  0
 15  9  1  0  0  0  0
 17 10  1  6  0  0  0
 17  8  1  0  0  0  0
 18  6  1  0  0  0  0
 18 15  2  0  0  0  0
 19 16  1  0  0  0  0
 20 29  1  6  0  0  0
 21  4  1  0  0  0  0
 22 21  1  1  0  0  0
 25  5  2  0  0  0  0
 27  5  1  6  0  0  0
 27 14  1  0  0  0  0
 28  9  1  0  0  0  0
 28 23  1  0  0  0  0
 29 30  1  0  0  0  0
 30 31  2  0  0  0  0
 32 30  1  0  0  0  0
M  END
>  <MODEL>
1

>  <REMARK>
 VINA RESULT:      -9.3      0.000      0.000
  Name = 
  1 active torsions:
  status: ('A' for Active; 'I' for Inactive)
    1  A    between atoms: C_20  and  N_29
                            x       y       z     vdW  Elec       q    Type
                         _______ _______ _______ _____ _____    ______ ____

>  <TORSDO>
F 1

$$$$
=
 OpenBabel11112416303D

 32 37  0  0  1  0  0  0  0  0999 V2000
  195.6910  175.6660  144.6830 C   0  0  0  0  0  2  0  0  0  0  0  0
  190.2170  175.7810  145.9630 C   0  0  1  0  0  3  0  0  0  0  0  0
  190.1590  174.1660  141.2600 C   0  0  0  0  0  2  0  0  0  0  0  0
  188.7160  174.6490  141.0640 C   0  0  0  0  0  2  0  0  0  0  0  0
  188.4340  177.4490  146.6470 C   0  0  0  0  0  0  0  0  0  0  0  0
  187.0150  177.8400  146.5670 C   0  0  0  0  0  0  0  0  0  0  0  0
  192.7330  175.7410  146.1610 C   0  0  1  0  0  3  0  0  0  0  0  0
  191.6800  173.7770  145.3680 C   0  0  0  0  0  2  0  0  0  0  0  0
  184.8660  178.0260  145.6810 C   0  0  1  0  0  3  0  0  0  0  0  0
  194.0070  173.8970  145.2990 C   0  0  0  0  0  2  0  0  0  0  0  0
  190.3850  173.6600  142.6860 C   0  0  0  0  0  2  0  0  0  0  0  0
  190.3360  174.4780  145.1310 C   0  0  2  0  0  3  0  0  0  0  0  0
  190.0390  174.7800  143.6630 C   0  0  2  0  0  3  0  0  0  0  0  0
  187.9820  175.9370  144.6830 C   0  0  2  0  0  3  0  0  0  0  0  0
  184.8490  178.6660  147.0700 C   0  0  0  0  0  3  0  0  0  0  0  0
  194.6750  176.7910  144.8540 C   0  0  0  0  0  2  0  0  0  0  0  0
  192.7950  174.6880  145.1340 N   0  0  2  0  0  0  0  0  0  0  0  0
  186.2720  178.5700  147.6200 C   0  0  0  0  0  3  0  0  0  0  0  0
  193.9750  176.6450  146.2010 C   0  0  0  0  0  2  0  0  0  0  0  0
  195.0380  174.3480  144.2730 C   0  0  2  0  0  3  0  0  0  0  0  0
  188.3360  175.7040  142.1070 C   0  0  0  0  0  2  0  0  0  0  0  0
  188.5530  175.1190  143.5020 C   0  0  1  0  0  3  0  0  0  0  0  0
  186.7820  176.8230  144.3160 C   0  0  0  0  0  2  0  0  0  0  0  0
  191.5050  176.6090  145.9130 C   0  0  0  0  0  2  0  0  0  0  0  0
  189.1290  177.8030  147.6380 O   0  0  0  0  0  0  0  0  0  0  0  0
  184.5680  179.0850  144.6370 C   0  0  0  0  0  1  0  0  0  0  0  0
  189.0570  176.6940  145.4960 C   0  0  2  0  0  3  0  0  0  0  0  0
  186.2570  177.5330  145.5310 C   0  0  0  0  0  0  0  0  0  0  0  0
  196.0560  173.3170  144.1340 N   0  0  0  0  0  2  0  0  0  0  0  0
  196.6680  173.0020  142.8820 C   0  0  0  0  0  0  0  0  0  0  0  0
  196.3230  173.6030  141.8300 O   0  0  0  0  0  0  0  0  0  0  0  0
  197.6740  171.9990  142.8230 N   0  0  0  0  0  1  0  0  0  0  0  0
  1 16  1  0  0  0  0
  2 24  1  6  0  0  0
  3 11  1  0  0  0  0
  4  3  1  0  0  0  0
  4 21  1  0  0  0  0
  5 25  2  0  0  0  0
  6  5  1  0  0  0  0
  6 18  1  0  0  0  0
  7 24  1  6  0  0  0
  7 19  1  0  0  0  0
  9 26  1  6  0  0  0
  9 15  1  0  0  0  0
 12  8  1  6  0  0  0
 12  2  1  0  0  0  0
 13 11  1  6  0  0  0
 13 12  1  0  0  0  0
 14 23  1  6  0  0  0
 14 27  1  0  0  0  0
 15 18  2  0  0  0  0
 16 19  1  0  0  0  0
 17 10  1  1  0  0  0
 17  8  1  0  0  0  0
 17  7  1  0  0  0  0
 20 29  1  1  0  0  0
 20  1  1  0  0  0  0
 20 10  1  0  0  0  0
 22 21  1  6  0  0  0
 22 13  1  0  0  0  0
 22 14  1  0  0  0  0
 23 28  1  0  0  0  0
 27  2  1  0  0  0  0
 27  5  1  1  0  0  0
 28  9  1  0  0  0  0
 28  6  2  0  0  0  0
 30 29  1  0  0  0  0
 31 30  2  0  0  0  0
 32 30  1  0  0  0  0
M  END
>  <MODEL>
2

>  <REMARK>
 VINA RESULT:      -9.2      2.068      4.026
  Name = 
  1 active torsions:
  status: ('A' for Active; 'I' for Inactive)
    1  A    between atoms: C_20  and  N_29
                            x       y       z     vdW  Elec       q    Type
                         _______ _______ _______ _____ _____    ______ ____

>  <TORSDO>
F 1

$$$$
=
 OpenBabel11112416303D

 32 37  0  0  1  0  0  0  0  0999 V2000
  185.3710  177.5700  146.5480 C   0  0  0  0  0  2  0  0  0  0  0  0
  190.6500  176.4470  144.9670 C   0  0  1  0  0  3  0  0  0  0  0  0
  188.0100  173.4410  142.0130 C   0  0  0  0  0  2  0  0  0  0  0  0
  189.2120  172.5080  141.8140 C   0  0  0  0  0  2  0  0  0  0  0  0
  192.8000  175.5280  145.9480 C   0  0  0  0  0  0  0  0  0  0  0  0
  194.0230  174.7400  145.7150 C   0  0  0  0  0  0  0  0  0  0  0  0
  188.6270  177.5840  145.9610 C   0  0  1  0  0  3  0  0  0  0  0  0
  188.7540  177.4740  143.6020 C   0  0  0  0  0  2  0  0  0  0  0  0
  195.4130  173.1280  144.7630 C   0  0  1  0  0  3  0  0  0  0  0  0
  186.7820  178.2500  144.5750 C   0  0  0  0  0  2  0  0  0  0  0  0
  188.4550  174.9000  142.1280 C   0  0  0  0  0  2  0  0  0  0  0  0
  189.8900  176.4430  143.6150 C   0  0  2  0  0  3  0  0  0  0  0  0
  189.4460  175.0190  143.2820 C   0  0  2  0  0  3  0  0  0  0  0  0
  191.9060  174.5030  143.8270 C   0  0  2  0  0  3  0  0  0  0  0  0
  196.2510  173.9270  145.7630 C   0  0  0  0  0  3  0  0  0  0  0  0
  186.5160  176.7910  147.1860 C   0  0  0  0  0  2  0  0  0  0  0  0
  187.8610  177.2850  144.7400 N   0  0  2  0  0  0  0  0  0  0  0  0
  195.3160  174.9520  146.4060 C   0  0  0  0  0  3  0  0  0  0  0  0
  187.7650  177.6640  147.2320 C   0  0  0  0  0  2  0  0  0  0  0  0
  185.4740  177.6140  145.0240 C   0  0  2  0  0  3  0  0  0  0  0  0
  190.2530  172.6980  142.9200 C   0  0  0  0  0  2  0  0  0  0  0  0
  190.6760  174.1650  142.9530 C   0  0  1  0  0  3  0  0  0  0  0  0
  192.8880  173.3370  144.0120 C   0  0  0  0  0  2  0  0  0  0  0  0
  189.6900  176.5100  146.1590 C   0  0  0  0  0  2  0  0  0  0  0  0
  192.7840  176.4160  146.8430 O   0  0  0  0  0  0  0  0  0  0  0  0
  195.3230  171.6850  145.2230 C   0  0  0  0  0  1  0  0  0  0  0  0
  191.5520  175.2050  145.1580 C   0  0  2  0  0  3  0  0  0  0  0  0
  194.0770  173.7710  144.8220 C   0  0  0  0  0  0  0  0  0  0  0  0
  184.3600  178.3760  144.4790 N   0  0  0  0  0  2  0  0  0  0  0  0
  183.9600  178.2840  143.1110 C   0  0  0  0  0  0  0  0  0  0  0  0
  184.5850  177.5420  142.3080 O   0  0  0  0  0  0  0  0  0  0  0  0
  182.8470  179.0410  142.6510 N   0  0  0  0  0  1  0  0  0  0  0  0
  1 16  1  0  0  0  0
  2 27  1  0  0  0  0
  2 24  1  1  0  0  0
  3 11  1  0  0  0  0
  4  3  1  0  0  0  0
  4 21  1  0  0  0  0
  5 25  2  0  0  0  0
  6  5  1  0  0  0  0
  6 18  1  0  0  0  0
  7 24  1  1  0  0  0
  7 19  1  0  0  0  0
  9 28  1  0  0  0  0
  9 26  1  1  0  0  0
  9 15  1  0  0  0  0
 10 17  1  0  0  0  0
 10 20  1  0  0  0  0
 12  8  1  1  0  0  0
 12  2  1  0  0  0  0
 13 11  1  6  0  0  0
 13 12  1  0  0  0  0
 14 23  1  1  0  0  0
 14 27  1  0  0  0  0
 15 18  2  0  0  0  0
 16 19  1  0  0  0  0
 17  8  1  6  0  0  0
 17  7  1  0  0  0  0
 20 29  1  6  0  0  0
 20  1  1  0  0  0  0
 22 21  1  1  0  0  0
 22 13  1  0  0  0  0
 22 14  1  0  0  0  0
 23 28  1  0  0  0  0
 27  5  1  6  0  0  0
 28  6  2  0  0  0  0
 30 29  1  0  0  0  0
 31 30  2  0  0  0  0
 32 30  1  0  0  0  0
M  END
>  <MODEL>
3

>  <REMARK>
 VINA RESULT:      -8.9      3.168      8.647
  Name = 
  1 active torsions:
  status: ('A' for Active; 'I' for Inactive)
    1  A    between atoms: C_20  and  N_29
                            x       y       z     vdW  Elec       q    Type
                         _______ _______ _______ _____ _____    ______ ____

>  <TORSDO>
F 1

$$$$
=
 OpenBabel11112416303D

 32 37  0  0  1  0  0  0  0  0999 V2000
  191.7340  170.8680  141.8480 C   0  0  0  0  0  2  0  0  0  0  0  0
  189.1560  175.7290  143.0130 C   0  0  1  0  0  3  0  0  0  0  0  0
  192.3210  175.2820  146.8240 C   0  0  0  0  0  2  0  0  0  0  0  0
  191.4620  176.2010  147.7020 C   0  0  0  0  0  2  0  0  0  0  0  0
  186.8300  176.6010  143.5220 C   0  0  0  0  0  0  0  0  0  0  0  0
  186.0160  177.5760  144.2680 C   0  0  0  0  0  0  0  0  0  0  0  0
  190.0270  173.7010  141.7870 C   0  0  1  0  0  3  0  0  0  0  0  0
  191.6170  175.3090  142.4830 C   0  0  0  0  0  2  0  0  0  0  0  0
  185.4200  179.0410  145.9820 C   0  0  1  0  0  3  0  0  0  0  0  0
  192.3860  173.2900  141.6060 C   0  0  0  0  0  2  0  0  0  0  0  0
  192.2810  175.7210  145.3590 C   0  0  0  0  0  2  0  0  0  0  0  0
  190.6260  176.0300  143.4060 C   0  0  2  0  0  3  0  0  0  0  0  0
  190.8290  175.7360  144.8920 C   0  0  2  0  0  3  0  0  0  0  0  0
  188.7070  177.1740  145.1030 C   0  0  2  0  0  3  0  0  0  0  0  0
  184.3350  179.1240  144.9070 C   0  0  0  0  0  3  0  0  0  0  0  0
  190.3460  171.2230  142.3700 C   0  0  0  0  0  2  0  0  0  0  0  0
  191.3390  173.8780  142.4310 N   0  0  2  0  0  0  0  0  0  0  0  0
  184.7200  178.1300  143.8100 C   0  0  0  0  0  3  0  0  0  0  0  0
  189.6950  172.2410  141.4390 C   0  0  0  0  0  2  0  0  0  0  0  0
  192.7740  171.9360  142.1850 C   0  0  2  0  0  3  0  0  0  0  0  0
  190.0280  176.2940  147.1760 C   0  0  0  0  0  2  0  0  0  0  0  0
  190.0640  176.7700  145.7250 C   0  0  1  0  0  3  0  0  0  0  0  0
  187.6620  177.6510  146.1220 C   0  0  0  0  0  2  0  0  0  0  0  0
  188.9410  174.2430  142.7090 C   0  0  0  0  0  2  0  0  0  0  0  0
  186.4000  176.1190  142.4400 O   0  0  0  0  0  0  0  0  0  0  0  0
  184.8160  178.5000  147.2640 C   0  0  0  0  0  1  0  0  0  0  0  0
  188.1420  176.1320  144.1090 C   0  0  2  0  0  3  0  0  0  0  0  0
  186.4000  178.0760  145.4270 C   0  0  0  0  0  0  0  0  0  0  0  0
  194.0710  171.5430  141.6550 N   0  0  0  0  0  2  0  0  0  0  0  0
  194.2980  171.3170  140.2630 C   0  0  0  0  0  0  0  0  0  0  0  0
  193.3580  171.4300  139.4330 O   0  0  0  0  0  0  0  0  0  0  0  0
  195.5980  170.9570  139.8110 N   0  0  0  0  0  1  0  0  0  0  0  0
  1 20  1  0  0  0  0
  1 16  1  0  0  0  0
  2 24  1  1  0  0  0
  2 12  1  0  0  0  0
  2 27  1  0  0  0  0
  3  4  1  0  0  0  0
  5  6  1  0  0  0  0
  6 28  2  0  0  0  0
  7 19  1  1  0  0  0
  7 17  1  0  0  0  0
  7 24  1  0  0  0  0
  9 26  1  1  0  0  0
 10 20  1  0  0  0  0
 11  3  1  0  0  0  0
 12  8  1  6  0  0  0
 12 13  1  0  0  0  0
 13 11  1  1  0  0  0
 13 22  1  0  0  0  0
 14 22  1  0  0  0  0
 14 23  1  1  0  0  0
 15  9  1  0  0  0  0
 17 10  1  6  0  0  0
 17  8  1  0  0  0  0
 18  6  1  0  0  0  0
 18 15  2  0  0  0  0
 19 16  1  0  0  0  0
 20 29  1  6  0  0  0
 21  4  1  0  0  0  0
 22 21  1  1  0  0  0
 25  5  2  0  0  0  0
 27  5  1  6  0  0  0
 27 14  1  0  0  0  0
 28  9  1  0  0  0  0
 28 23  1  0  0  0  0
 30 29  1  0  0  0  0
 31 30  2  0  0  0  0
 32 30  1  0  0  0  0
M  END
>  <MODEL>
4

>  <REMARK>
 VINA RESULT:      -8.4      1.559      1.584
  Name = 
  1 active torsions:
  status: ('A' for Active; 'I' for Inactive)
    1  A    between atoms: C_20  and  N_29
                            x       y       z     vdW  Elec       q    Type
                         _______ _______ _______ _____ _____    ______ ____

>  <TORSDO>
F 1

$$$$
=
 OpenBabel11112416303D

 32 37  0  0  1  0  0  0  0  0999 V2000
  187.1690  177.6560  146.3850 C   0  0  0  0  0  2  0  0  0  0  0  0
  192.1390  175.6120  144.7270 C   0  0  1  0  0  3  0  0  0  0  0  0
  188.9410  172.5180  142.5070 C   0  0  0  0  0  2  0  0  0  0  0  0
  190.0050  171.4180  142.4080 C   0  0  0  0  0  2  0  0  0  0  0  0
  194.2370  174.6020  145.7300 C   0  0  0  0  0  0  0  0  0  0  0  0
  195.3370  173.6350  145.5710 C   0  0  0  0  0  0  0  0  0  0  0  0
  190.3480  177.1510  145.6190 C   0  0  1  0  0  3  0  0  0  0  0  0
  190.2750  176.6300  143.3130 C   0  0  0  0  0  2  0  0  0  0  0  0
  196.4500  171.7200  144.8410 C   0  0  1  0  0  3  0  0  0  0  0  0
  188.4900  177.8070  144.2450 C   0  0  0  0  0  2  0  0  0  0  0  0
  189.5610  173.9060  142.3370 C   0  0  0  0  0  2  0  0  0  0  0  0
  191.2800  175.4790  143.4430 C   0  0  2  0  0  3  0  0  0  0  0  0
  190.6480  174.0880  143.3930 C   0  0  2  0  0  3  0  0  0  0  0  0
  193.0650  173.3580  143.8780 C   0  0  2  0  0  3  0  0  0  0  0  0
  197.4510  172.5600  145.6340 C   0  0  0  0  0  3  0  0  0  0  0  0
  188.2620  176.8540  147.0840 C   0  0  0  0  0  2  0  0  0  0  0  0
  189.4580  176.7530  144.5160 N   0  0  2  0  0  0  0  0  0  0  0  0
  196.6970  173.7910  146.1380 C   0  0  0  0  0  3  0  0  0  0  0  0
  189.6050  177.5550  146.9030 C   0  0  0  0  0  2  0  0  0  0  0  0
  187.1560  177.4300  144.8740 C   0  0  2  0  0  3  0  0  0  0  0  0
  191.1460  171.6550  143.4010 C   0  0  0  0  0  2  0  0  0  0  0  0
  191.7390  173.0400  143.1510 C   0  0  1  0  0  3  0  0  0  0  0  0
  193.9160  172.1230  144.2100 C   0  0  0  0  0  2  0  0  0  0  0  0
  191.2900  175.9980  145.9430 C   0  0  0  0  0  2  0  0  0  0  0  0
  194.3960  175.6210  146.4540 O   0  0  0  0  0  0  0  0  0  0  0  0
  196.2280  170.3980  145.5520 C   0  0  0  0  0  1  0  0  0  0  0  0
  192.9020  174.3140  145.0830 C   0  0  2  0  0  3  0  0  0  0  0  0
  195.2070  172.5300  144.8610 C   0  0  0  0  0  0  0  0  0  0  0  0
  186.1000  178.2270  144.2670 N   0  0  0  0  0  2  0  0  0  0  0  0
  184.7630  178.2460  144.7710 C   0  0  0  0  0  0  0  0  0  0  0  0
  184.4420  177.5410  145.7640 O   0  0  0  0  0  0  0  0  0  0  0  0
  183.7860  179.0660  144.1420 N   0  0  0  0  0  1  0  0  0  0  0  0
  1 16  1  0  0  0  0
  2 27  1  0  0  0  0
  2 24  1  1  0  0  0
  4  3  1  0  0  0  0
  4 21  1  0  0  0  0
  5 25  2  0  0  0  0
  6  5  1  0  0  0  0
  6 18  1  0  0  0  0
  7 24  1  1  0  0  0
  7 19  1  0  0  0  0
  9 28  1  0  0  0  0
  9 26  1  1  0  0  0
  9 15  1  0  0  0  0
 10 17  1  0  0  0  0
 10 20  1  0  0  0  0
 11  3  1  0  0  0  0
 12  8  1  1  0  0  0
 12  2  1  0  0  0  0
 13 11  1  6  0  0  0
 13 12  1  0  0  0  0
 14 23  1  1  0  0  0
 14 27  1  0  0  0  0
 15 18  2  0  0  0  0
 17  8  1  6  0  0  0
 17  7  1  0  0  0  0
 19 16  1  0  0  0  0
 20 29  1  6  0  0  0
 20  1  1  0  0  0  0
 22 13  1  0  0  0  0
 22 21  1  1  0  0  0
 22 14  1  0  0  0  0
 23 28  1  0  0  0  0
 27  5  1  6  0  0  0
 28  6  2  0  0  0  0
 29 30  1  0  0  0  0
 30 31  2  0  0  0  0
 32 30  1  0  0  0  0
M  END
>  <MODEL>
5

>  <REMARK>
 VINA RESULT:      -8.1      2.994      8.878
  Name = 
  1 active torsions:
  status: ('A' for Active; 'I' for Inactive)
    1  A    between atoms: C_20  and  N_29
                            x       y       z     vdW  Elec       q    Type
                         _______ _______ _______ _____ _____    ______ ____

>  <TORSDO>
F 1

$$$$
=
 OpenBabel11112416303D

 32 37  0  0  1  0  0  0  0  0999 V2000
  187.1230  176.6370  146.9530 C   0  0  0  0  0  2  0  0  0  0  0  0
  191.7500  176.6330  143.7570 C   0  0  1  0  0  3  0  0  0  0  0  0
  188.8950  173.2660  141.4690 C   0  0  0  0  0  2  0  0  0  0  0  0
  190.1180  172.5960  140.8310 C   0  0  0  0  0  2  0  0  0  0  0  0
  194.2260  176.1250  143.9550 C   0  0  0  0  0  0  0  0  0  0  0  0
  195.4340  175.6020  143.2920 C   0  0  0  0  0  0  0  0  0  0  0  0
  189.9730  177.3140  145.4160 C   0  0  1  0  0  3  0  0  0  0  0  0
  189.3710  177.3100  143.1290 C   0  0  0  0  0  2  0  0  0  0  0  0
  196.7180  174.3290  141.8190 C   0  0  1  0  0  3  0  0  0  0  0  0
  187.7000  177.6480  144.7190 C   0  0  0  0  0  2  0  0  0  0  0  0
  189.0870  174.7800  141.5810 C   0  0  0  0  0  2  0  0  0  0  0  0
  190.6180  176.5250  142.7030 C   0  0  2  0  0  3  0  0  0  0  0  0
  190.3530  175.0530  142.3880 C   0  0  2  0  0  3  0  0  0  0  0  0
  192.9090  175.0150  142.1150 C   0  0  2  0  0  3  0  0  0  0  0  0
  197.6720  175.2440  142.5900 C   0  0  0  0  0  3  0  0  0  0  0  0
  188.5290  176.0780  147.1400 C   0  0  0  0  0  2  0  0  0  0  0  0
  188.9290  176.9110  144.4600 N   0  0  2  0  0  0  0  0  0  0  0  0
  196.8200  176.0420  143.5770 C   0  0  0  0  0  3  0  0  0  0  0  0
  189.5540  177.1800  146.8890 C   0  0  0  0  0  2  0  0  0  0  0  0
  186.7330  176.7520  145.4800 C   0  0  2  0  0  3  0  0  0  0  0  0
  191.4030  172.9500  141.5840 C   0  0  0  0  0  2  0  0  0  0  0  0
  191.5470  174.4700  141.6260 C   0  0  1  0  0  3  0  0  0  0  0  0
  194.0910  174.0610  141.8870 C   0  0  0  0  0  2  0  0  0  0  0  0
  191.2180  176.4650  145.1840 C   0  0  0  0  0  2  0  0  0  0  0  0
  194.3350  176.9610  144.8920 O   0  0  0  0  0  0  0  0  0  0  0  0
  197.0350  172.8830  142.1480 C   0  0  0  0  0  1  0  0  0  0  0  0
  192.8720  175.5880  143.5510 C   0  0  2  0  0  3  0  0  0  0  0  0
  195.3770  174.6930  142.3370 C   0  0  0  0  0  0  0  0  0  0  0  0
  185.3880  177.2970  145.3690 N   0  0  0  0  0  2  0  0  0  0  0  0
  185.0190  178.5580  145.9290 C   0  0  0  0  0  0  0  0  0  0  0  0
  185.8570  179.2450  146.5710 O   0  0  0  0  0  0  0  0  0  0  0  0
  183.6910  179.0410  145.7630 N   0  0  0  0  0  1  0  0  0  0  0  0
  1 16  1  0  0  0  0
  2 24  1  1  0  0  0
  3 11  1  0  0  0  0
  4  3  1  0  0  0  0
  4 21  1  0  0  0  0
  5 25  2  0  0  0  0
  6 18  1  0  0  0  0
  6  5  1  0  0  0  0
  7 24  1  1  0  0  0
  7 19  1  0  0  0  0
  9 26  1  1  0  0  0
  9 28  1  0  0  0  0
  9 15  1  0  0  0  0
 10 20  1  0  0  0  0
 12  8  1  1  0  0  0
 12  2  1  0  0  0  0
 13 11  1  6  0  0  0
 13 12  1  0  0  0  0
 14 23  1  1  0  0  0
 14 27  1  0  0  0  0
 15 18  2  0  0  0  0
 17  8  1  6  0  0  0
 17 10  1  0  0  0  0
 17  7  1  0  0  0  0
 19 16  1  0  0  0  0
 20 29  1  1  0  0  0
 20  1  1  0  0  0  0
 22 21  1  1  0  0  0
 22 14  1  0  0  0  0
 22 13  1  0  0  0  0
 23 28  1  0  0  0  0
 27  2  1  0  0  0  0
 27  5  1  6  0  0  0
 28  6  2  0  0  0  0
 29 30  1  0  0  0  0
 30 31  2  0  0  0  0
 32 30  1  0  0  0  0
M  END
>  <MODEL>
6

>  <REMARK>
 VINA RESULT:      -7.9      2.966      8.728
  Name = 
  1 active torsions:
  status: ('A' for Active; 'I' for Inactive)
    1  A    between atoms: C_20  and  N_29
                            x       y       z     vdW  Elec       q    Type
                         _______ _______ _______ _____ _____    ______ ____

>  <TORSDO>
F 1

$$$$
=
 OpenBabel11112416303D

 32 37  0  0  1  0  0  0  0  0999 V2000
  188.4750  174.7480  140.5220 C   0  0  0  0  0  2  0  0  0  0  0  0
  191.6770  172.0810  144.2970 C   0  0  1  0  0  3  0  0  0  0  0  0
  193.3360  176.7570  144.6340 C   0  0  0  0  0  2  0  0  0  0  0  0
  194.6820  176.2860  145.2010 C   0  0  0  0  0  2  0  0  0  0  0  0
  193.3980  170.2210  144.3920 C   0  0  0  0  0  0  0  0  0  0  0  0
  194.6210  169.7040  145.0320 C   0  0  0  0  0  0  0  0  0  0  0  0
  189.8050  172.6430  142.7000 C   0  0  1  0  0  3  0  0  0  0  0  0
  189.9640  173.9340  144.6750 C   0  0  0  0  0  2  0  0  0  0  0  0
  196.6650  169.7510  146.1530 C   0  0  1  0  0  3  0  0  0  0  0  0
  188.4420  174.5910  143.0360 C   0  0  0  0  0  2  0  0  0  0  0  0
  192.1890  175.8660  145.1180 C   0  0  0  0  0  2  0  0  0  0  0  0
  191.3710  173.4230  145.0100 C   0  0  2  0  0  3  0  0  0  0  0  0
  192.4870  174.4250  144.7150 C   0  0  2  0  0  3  0  0  0  0  0  0
  193.9690  172.4470  145.4240 C   0  0  2  0  0  3  0  0  0  0  0  0
  196.2800  168.2840  145.9580 C   0  0  0  0  0  3  0  0  0  0  0  0
  189.6550  173.7890  140.4090 C   0  0  0  0  0  2  0  0  0  0  0  0
  189.7650  174.0150  143.2330 N   0  0  2  0  0  0  0  0  0  0  0  0
  194.9590  168.2700  145.1880 C   0  0  0  0  0  3  0  0  0  0  0  0
  189.3740  172.5340  141.2280 C   0  0  0  0  0  2  0  0  0  0  0  0
  188.4800  175.5270  141.8360 C   0  0  2  0  0  3  0  0  0  0  0  0
  194.9350  174.8100  144.8800 C   0  0  0  0  0  2  0  0  0  0  0  0
  193.7720  173.9810  145.4210 C   0  0  1  0  0  3  0  0  0  0  0  0
  195.4360  171.9990  145.5060 C   0  0  0  0  0  2  0  0  0  0  0  0
  191.2210  172.0960  142.8350 C   0  0  0  0  0  2  0  0  0  0  0  0
  192.5810  169.4220  143.8600 O   0  0  0  0  0  0  0  0  0  0  0  0
  197.9410  170.0410  145.3860 C   0  0  0  0  0  1  0  0  0  0  0  0
  193.1800  171.7140  144.3150 C   0  0  2  0  0  3  0  0  0  0  0  0
  195.5290  170.5010  145.5630 C   0  0  0  0  0  0  0  0  0  0  0  0
  187.3290  176.4150  141.8860 N   0  0  0  0  0  2  0  0  0  0  0  0
  187.4510  177.8380  141.8590 C   0  0  0  0  0  0  0  0  0  0  0  0
  188.5850  178.3840  141.8150 O   0  0  0  0  0  0  0  0  0  0  0  0
  186.2810  178.6460  141.8870 N   0  0  0  0  0  1  0  0  0  0  0  0
  1 20  1  0  0  0  0
  2 24  1  6  0  0  0
  2 27  1  0  0  0  0
  2 12  1  0  0  0  0
  3 11  1  0  0  0  0
  3  4  1  0  0  0  0
  5  6  1  0  0  0  0
  6 18  1  0  0  0  0
  6 28  2  0  0  0  0
  7 19  1  6  0  0  0
  7 24  1  0  0  0  0
  7 17  1  0  0  0  0
  9 26  1  6  0  0  0
 12  8  1  6  0  0  0
 13 12  1  0  0  0  0
 13 11  1  1  0  0  0
 13 22  1  0  0  0  0
 14 23  1  6  0  0  0
 15  9  1  0  0  0  0
 16  1  1  0  0  0  0
 16 19  1  0  0  0  0
 17 10  1  1  0  0  0
 17  8  1  0  0  0  0
 18 15  2  0  0  0  0
 20 29  1  6  0  0  0
 20 10  1  0  0  0  0
 21  4  1  0  0  0  0
 22 21  1  6  0  0  0
 22 14  1  0  0  0  0
 23 28  1  0  0  0  0
 25  5  2  0  0  0  0
 27  5  1  1  0  0  0
 27 14  1  0  0  0  0
 28  9  1  0  0  0  0
 30 29  1  0  0  0  0
 30 32  1  0  0  0  0
 31 30  2  0  0  0  0
M  END
>  <MODEL>
7

>  <REMARK>
 VINA RESULT:      -7.7      3.296      8.455
  Name = 
  1 active torsions:
  status: ('A' for Active; 'I' for Inactive)
    1  A    between atoms: C_20  and  N_29
                            x       y       z     vdW  Elec       q    Type
                         _______ _______ _______ _____ _____    ______ ____

>  <TORSDO>
F 1

$$$$
=
 OpenBabel11112416303D

 32 37  0  0  1  0  0  0  0  0999 V2000
  186.9580  178.4150  142.3880 C   0  0  0  0  0  2  0  0  0  0  0  0
  190.7330  174.5790  144.0190 C   0  0  1  0  0  3  0  0  0  0  0  0
  190.5460  177.6060  147.9610 C   0  0  0  0  0  2  0  0  0  0  0  0
  191.9420  177.1670  148.4200 C   0  0  0  0  0  2  0  0  0  0  0  0
  193.0090  173.7010  143.3270 C   0  0  0  0  0  0  0  0  0  0  0  0
  194.3040  173.1530  143.7660 C   0  0  0  0  0  0  0  0  0  0  0  0
  188.8630  175.7390  142.7820 C   0  0  1  0  0  3  0  0  0  0  0  0
  188.4440  175.1000  145.0200 C   0  0  0  0  0  2  0  0  0  0  0  0
  196.1340  172.7680  145.1600 C   0  0  1  0  0  3  0  0  0  0  0  0
  186.8660  176.4240  143.9280 C   0  0  0  0  0  2  0  0  0  0  0  0
  189.7830  176.4450  147.3180 C   0  0  0  0  0  2  0  0  0  0  0  0
  189.9230  174.8220  145.3190 C   0  0  2  0  0  3  0  0  0  0  0  0
  190.6070  175.9050  146.1520 C   0  0  2  0  0  3  0  0  0  0  0  0
  192.6750  174.4430  145.7120 C   0  0  2  0  0  3  0  0  0  0  0  0
  196.3220  171.9140  143.9060 C   0  0  0  0  0  3  0  0  0  0  0  0
  188.4120  178.1460  142.0130 C   0  0  0  0  0  2  0  0  0  0  0  0
  188.2980  176.1910  144.0640 N   0  0  2  0  0  0  0  0  0  0  0  0
  195.1360  172.2070  142.9870 C   0  0  0  0  0  3  0  0  0  0  0  0
  188.5720  176.6850  141.6050 C   0  0  0  0  0  2  0  0  0  0  0  0
  186.6160  177.9190  143.7920 C   0  0  2  0  0  3  0  0  0  0  0  0
  192.7330  176.5350  147.2720 C   0  0  0  0  0  2  0  0  0  0  0  0
  191.9300  175.3660  146.7040 C   0  0  1  0  0  3  0  0  0  0  0  0
  194.1980  174.4070  145.9040 C   0  0  0  0  0  2  0  0  0  0  0  0
  190.3730  175.5910  142.9260 C   0  0  0  0  0  2  0  0  0  0  0  0
  192.5670  173.4290  142.1780 O   0  0  0  0  0  0  0  0  0  0  0  0
  197.2500  173.7930  145.2430 C   0  0  0  0  0  1  0  0  0  0  0  0
  192.2630  174.6510  144.2360 C   0  0  2  0  0  3  0  0  0  0  0  0
  194.8310  173.4440  144.9400 C   0  0  0  0  0  0  0  0  0  0  0  0
  185.2180  178.1980  144.0840 N   0  0  0  0  0  2  0  0  0  0  0  0
  184.7890  178.7730  145.3190 C   0  0  0  0  0  0  0  0  0  0  0  0
  185.6210  179.0410  146.2250 O   0  0  0  0  0  0  0  0  0  0  0  0
  183.4080  179.0410  145.5290 N   0  0  0  0  0  1  0  0  0  0  0  0
  1 20  1  0  0  0  0
  2 24  1  6  0  0  0
  2 27  1  0  0  0  0
  2 12  1  0  0  0  0
  3  4  1  0  0  0  0
  5  6  1  0  0  0  0
  6 28  2  0  0  0  0
  7 19  1  6  0  0  0
  7 24  1  0  0  0  0
  7 17  1  0  0  0  0
  9 26  1  6  0  0  0
 11  3  1  0  0  0  0
 12  8  1  6  0  0  0
 12 13  1  0  0  0  0
 13 22  1  0  0  0  0
 13 11  1  1  0  0  0
 14 23  1  6  0  0  0
 14 22  1  0  0  0  0
 15  9  1  0  0  0  0
 16  1  1  0  0  0  0
 17 10  1  6  0  0  0
 17  8  1  0  0  0  0
 18  6  1  0  0  0  0
 18 15  2  0  0  0  0
 19 16  1  0  0  0  0
 20 10  1  0  0  0  0
 20 29  1  6  0  0  0
 21  4  1  0  0  0  0
 22 21  1  6  0  0  0
 25  5  2  0  0  0  0
 27  5  1  6  0  0  0
 27 14  1  0  0  0  0
 28  9  1  0  0  0  0
 28 23  1  0  0  0  0
 29 30  1  0  0  0  0
 30 32  1  0  0  0  0
 30 31  2  0  0  0  0
M  END
>  <MODEL>
8

>  <REMARK>
 VINA RESULT:      -7.5      3.038      8.138
  Name = 
  1 active torsions:
  status: ('A' for Active; 'I' for Inactive)
    1  A    between atoms: C_20  and  N_29
                            x       y       z     vdW  Elec       q    Type
                         _______ _______ _______ _____ _____    ______ ____

>  <TORSDO>
F 1

$$$$
=
 OpenBabel11112416303D

 32 37  0  0  1  0  0  0  0  0999 V2000
  187.5260  176.7550  146.8850 C   0  0  0  0  0  2  0  0  0  0  0  0
  192.1770  174.9720  144.2760 C   0  0  1  0  0  3  0  0  0  0  0  0
  188.5890  173.3850  141.2200 C   0  0  0  0  0  2  0  0  0  0  0  0
  189.5030  172.2980  140.6390 C   0  0  0  0  0  2  0  0  0  0  0  0
  194.1370  173.4150  144.6840 C   0  0  0  0  0  0  0  0  0  0  0  0
  195.1030  172.4690  144.0970 C   0  0  0  0  0  0  0  0  0  0  0  0
  190.6060  176.2310  145.7990 C   0  0  1  0  0  3  0  0  0  0  0  0
  190.4460  176.6690  143.4800 C   0  0  0  0  0  2  0  0  0  0  0  0
  195.9540  170.8810  142.6170 C   0  0  1  0  0  3  0  0  0  0  0  0
  188.8360  177.5810  144.8980 C   0  0  0  0  0  2  0  0  0  0  0  0
  189.3810  174.6480  141.5670 C   0  0  0  0  0  2  0  0  0  0  0  0
  191.2970  175.4520  143.0940 C   0  0  2  0  0  3  0  0  0  0  0  0
  190.4910  174.2750  142.5450 C   0  0  2  0  0  3  0  0  0  0  0  0
  192.7990  173.1420  142.5660 C   0  0  2  0  0  3  0  0  0  0  0  0
  197.0620  171.2220  143.6140 C   0  0  0  0  0  3  0  0  0  0  0  0
  188.5130  175.6240  147.1530 C   0  0  0  0  0  2  0  0  0  0  0  0
  189.6630  176.4020  144.6810 N   0  0  2  0  0  0  0  0  0  0  0  0
  196.4770  172.2340  144.6000 C   0  0  0  0  0  3  0  0  0  0  0  0
  189.9330  176.1800  147.1800 C   0  0  0  0  0  2  0  0  0  0  0  0
  187.4700  177.1430  145.4090 C   0  0  2  0  0  3  0  0  0  0  0  0
  190.6730  171.9940  141.5780 C   0  0  0  0  0  2  0  0  0  0  0  0
  191.4360  173.2890  141.8510 C   0  0  1  0  0  3  0  0  0  0  0  0
  193.4870  171.7870  142.3420 C   0  0  0  0  0  2  0  0  0  0  0  0
  191.3960  174.9430  145.5940 C   0  0  0  0  0  2  0  0  0  0  0  0
  194.4320  174.0440  145.7360 O   0  0  0  0  0  0  0  0  0  0  0  0
  195.5710  169.4210  142.7710 C   0  0  0  0  0  1  0  0  0  0  0  0
  192.7710  173.5600  144.0550 C   0  0  2  0  0  3  0  0  0  0  0  0
  194.8260  171.7550  143.0230 C   0  0  0  0  0  0  0  0  0  0  0  0
  186.5200  178.2290  145.2220 N   0  0  0  0  0  2  0  0  0  0  0  0
  185.4140  178.1400  144.3220 C   0  0  0  0  0  0  0  0  0  0  0  0
  185.2350  177.1040  143.6270 O   0  0  0  0  0  0  0  0  0  0  0  0
  184.5100  179.2320  144.2060 N   0  0  0  0  0  1  0  0  0  0  0  0
  1 16  1  0  0  0  0
  2 24  1  1  0  0  0
  3 11  1  0  0  0  0
  4  3  1  0  0  0  0
  4 21  1  0  0  0  0
  5 25  2  0  0  0  0
  6 18  1  0  0  0  0
  6  5  1  0  0  0  0
  7 24  1  6  0  0  0
  7 19  1  0  0  0  0
  9 26  1  1  0  0  0
  9 28  1  0  0  0  0
  9 15  1  0  0  0  0
 10 20  1  0  0  0  0
 12  8  1  1  0  0  0
 12  2  1  0  0  0  0
 13 11  1  6  0  0  0
 13 12  1  0  0  0  0
 14 23  1  1  0  0  0
 14 27  1  0  0  0  0
 15 18  2  0  0  0  0
 16 19  1  0  0  0  0
 17  8  1  6  0  0  0
 17 10  1  0  0  0  0
 17  7  1  0  0  0  0
 20 29  1  1  0  0  0
 20  1  1  0  0  0  0
 22 21  1  1  0  0  0
 22 13  1  0  0  0  0
 22 14  1  0  0  0  0
 23 28  1  0  0  0  0
 27  2  1  0  0  0  0
 27  5  1  6  0  0  0
 28  6  2  0  0  0  0
 30 29  1  0  0  0  0
 31 30  2  0  0  0  0
 32 30  1  0  0  0  0
M  END
>  <MODEL>
9

>  <REMARK>
 VINA RESULT:      -7.2      2.636      8.879
  Name = 
  1 active torsions:
  status: ('A' for Active; 'I' for Inactive)
    1  A    between atoms: C_20  and  N_29
                            x       y       z     vdW  Elec       q    Type
                         _______ _______ _______ _____ _____    ______ ____

>  <TORSDO>
F 1

$$$$
