=
 OpenBabel11112418023D

 34 41  0  0  1  0  0  0  0  0999 V2000
  186.4220  176.6730  145.6020 C   0  0  1  0  0  3  0  0  0  0  0  0
  184.5230  178.4110  145.4780 C   0  0  0  0  0  2  0  0  0  0  0  0
  192.5440  176.0580  144.0070 C   0  0  1  0  0  3  0  0  0  0  0  0
  188.7290  175.5330  145.5630 C   0  0  0  0  0  0  0  0  0  0  0  0
  190.2200  175.7100  143.5050 C   0  0  2  0  0  3  0  0  0  0  0  0
  191.9180  177.5260  142.8210 C   0  0  0  0  0  2  0  0  0  0  0  0
  193.1600  176.9190  143.0890 O   0  0  0  0  0  0  0  0  0  0  0  0
  191.8780  175.4300  146.6270 S   0  0  0  0  0  0  0  0  0  0  0  0
  185.9250  178.1820  143.7030 C   0  0  0  0  0  0  0  0  0  0  0  0
  184.6010  178.2940  140.8430 C   0  0  0  0  0  2  0  0  0  0  0  0
  189.0620  176.3440  142.8740 N   0  0  0  0  0  0  0  0  0  0  0  0
  190.9840  174.2410  145.5270 C   0  0  0  0  0  2  0  0  0  0  0  0
  186.9060  177.6560  142.9510 C   0  0  0  0  0  0  0  0  0  0  0  0
  183.9960  179.2160  144.4270 O   0  0  0  0  0  0  0  0  0  0  0  0
  189.8010  174.8570  144.7320 C   0  0  1  0  0  3  0  0  0  0  0  0
  193.0890  176.1170  145.4180 C   0  0  0  0  0  2  0  0  0  0  0  0
  183.9490  178.2130  142.2210 C   0  0  1  0  0  3  0  0  0  0  0  0
  187.7220  176.3700  144.8800 C   0  0  1  0  0  3  0  0  0  0  0  0
  191.2290  176.7630  143.9230 C   0  0  2  0  0  3  0  0  0  0  0  0
  187.9020  176.7690  143.6040 C   0  0  0  0  0  0  0  0  0  0  0  0
  187.6140  176.0840  147.6870 C   0  0  0  0  0  3  0  0  0  0  0  0
  185.8150  177.3800  140.7300 C   0  0  0  0  0  2  0  0  0  0  0  0
  188.6460  175.3800  146.8940 C   0  0  0  0  0  3  0  0  0  0  0  0
  187.0050  177.9550  141.4860 C   0  0  0  0  0  2  0  0  0  0  0  0
  184.7720  178.9870  143.2610 C   0  0  2  0  0  3  0  0  0  0  0  0
  186.6080  176.7360  147.0930 C   0  0  0  0  0  3  0  0  0  0  0  0
  185.8070  177.8850  145.0640 N   0  0  0  0  0  0  0  0  0  0  0  0
  182.6560  178.7350  142.1340 O   0  0  0  0  0  0  0  0  0  0  0  0
  182.1470  178.2330  140.9330 C   0  0  0  0  0  2  0  0  0  0  0  0
  178.8900  177.7740  141.1030 C   0  0  0  0  0  2  0  0  0  0  0  0
  180.3680  179.4920  141.8070 C   0  0  0  0  0  2  0  0  0  0  0  0
  180.9320  178.9490  140.5740 N   0  0  0  0  0  0  0  0  0  0  0  0
  178.9300  179.0390  141.9090 C   0  0  0  0  0  2  0  0  0  0  0  0
  179.9870  177.9520  140.0760 C   0  0  0  0  0  2  0  0  0  0  0  0
  1 26  1  1  0  0  0
  3 16  1  1  0  0  0
  4 23  2  0  0  0  0
  5 11  1  1  0  0  0
  5 19  1  0  0  0  0
  5 15  1  0  0  0  0
  6  7  1  0  0  0  0
  7  3  1  0  0  0  0
  9 27  1  0  0  0  0
 10 17  1  0  0  0  0
 11 20  2  0  0  0  0
 12  8  1  0  0  0  0
 13 20  1  0  0  0  0
 13  9  2  0  0  0  0
 14  2  1  0  0  0  0
 15 12  1  1  0  0  0
 15  4  1  0  0  0  0
 16  8  1  0  0  0  0
 17 28  1  6  0  0  0
 17 25  1  0  0  0  0
 18 20  1  6  0  0  0
 18  4  1  0  0  0  0
 18  1  1  0  0  0  0
 19  6  1  6  0  0  0
 19  3  1  0  0  0  0
 22 10  1  0  0  0  0
 22 24  1  0  0  0  0
 23 21  1  0  0  0  0
 24 13  1  0  0  0  0
 25  9  1  1  0  0  0
 25 14  1  0  0  0  0
 26 21  2  0  0  0  0
 27  2  1  0  0  0  0
 27  1  1  0  0  0  0
 29 28  1  0  0  0  0
 30 33  1  0  0  0  0
 31 33  1  0  0  0  0
 32 29  1  0  0  0  0
 32 31  1  0  0  0  0
 34 32  1  0  0  0  0
 34 30  1  0  0  0  0
M  END
>  <MODEL>
1

>  <REMARK>
 VINA RESULT:      -8.9      0.000      0.000
  Name = 
  3 active torsions:
  status: ('A' for Active; 'I' for Inactive)
    1  A    between atoms: C_17  and  O_28
    2  A    between atoms: O_28  and  C_29
    3  A    between atoms: C_29  and  N_32
                            x       y       z     vdW  Elec       q    Type
                         _______ _______ _______ _____ _____    ______ ____

>  <TORSDO>
F 3

$$$$
=
 OpenBabel11112418023D

 34 41  0  0  1  0  0  0  0  0999 V2000
  188.3070  176.9110  146.3570 C   0  0  1  0  0  3  0  0  0  0  0  0
  189.8720  175.0900  147.2940 C   0  0  0  0  0  2  0  0  0  0  0  0
  185.2530  178.3850  140.9810 C   0  0  1  0  0  3  0  0  0  0  0  0
  186.6480  178.2220  144.8890 C   0  0  0  0  0  0  0  0  0  0  0  0
  187.1540  178.6380  142.4280 C   0  0  2  0  0  3  0  0  0  0  0  0
  186.7010  177.1730  140.3560 C   0  0  0  0  0  2  0  0  0  0  0  0
  185.5980  177.8070  139.7520 O   0  0  0  0  0  0  0  0  0  0  0  0
  183.7300  178.3500  143.3000 S   0  0  0  0  0  0  0  0  0  0  0  0
  190.1880  175.8290  145.1670 C   0  0  0  0  0  0  0  0  0  0  0  0
  193.1780  176.2500  144.2560 C   0  0  0  0  0  2  0  0  0  0  0  0
  188.4670  178.0660  142.7290 N   0  0  0  0  0  0  0  0  0  0  0  0
  185.0050  179.6760  143.4940 C   0  0  0  0  0  2  0  0  0  0  0  0
  190.0140  176.5920  144.0750 C   0  0  0  0  0  0  0  0  0  0  0  0
  191.0810  174.5000  146.8250 O   0  0  0  0  0  0  0  0  0  0  0  0
  186.4530  179.1560  143.7120 C   0  0  1  0  0  3  0  0  0  0  0  0
  183.8640  178.0570  141.4850 C   0  0  0  0  0  2  0  0  0  0  0  0
  192.6090  175.9650  145.6430 C   0  0  1  0  0  3  0  0  0  0  0  0
  187.9180  177.4770  145.0040 C   0  0  1  0  0  3  0  0  0  0  0  0
  186.2820  177.6080  141.7360 C   0  0  2  0  0  3  0  0  0  0  0  0
  188.7680  177.3910  143.9590 C   0  0  0  0  0  0  0  0  0  0  0  0
  185.9180  177.1160  146.9630 C   0  0  0  0  0  3  0  0  0  0  0  0
  192.3390  177.2660  143.4910 C   0  0  0  0  0  2  0  0  0  0  0  0
  185.7190  178.0650  145.8450 C   0  0  0  0  0  3  0  0  0  0  0  0
  191.0460  176.6390  142.9890 C   0  0  0  0  0  2  0  0  0  0  0  0
  191.3790  175.0500  145.5510 C   0  0  2  0  0  3  0  0  0  0  0  0
  187.1020  176.5310  147.1750 C   0  0  0  0  0  3  0  0  0  0  0  0
  189.2460  175.8030  146.1990 N   0  0  0  0  0  0  0  0  0  0  0  0
  193.6050  175.3670  146.4200 O   0  0  0  0  0  0  0  0  0  0  0  0
  194.7660  175.4600  145.6470 C   0  0  0  0  0  2  0  0  0  0  0  0
  195.4720  172.6050  144.1660 C   0  0  0  0  0  2  0  0  0  0  0  0
  196.7650  174.4130  144.9960 C   0  0  0  0  0  2  0  0  0  0  0  0
  195.6090  174.2980  145.8810 N   0  0  0  0  0  0  0  0  0  0  0  0
  196.8740  173.1390  144.1920 C   0  0  0  0  0  2  0  0  0  0  0  0
  194.8490  173.1300  145.4410 C   0  0  0  0  0  2  0  0  0  0  0  0
  1 26  1  6  0  0  0
  3 16  1  1  0  0  0
  3 19  1  0  0  0  0
  4 18  1  0  0  0  0
  4 23  2  0  0  0  0
  5 11  1  1  0  0  0
  5 15  1  0  0  0  0
  7  6  1  0  0  0  0
  7  3  1  0  0  0  0
  8 12  1  0  0  0  0
  9 27  1  0  0  0  0
 10 17  1  0  0  0  0
 11 20  2  0  0  0  0
 13  9  2  0  0  0  0
 14  2  1  0  0  0  0
 15 12  1  6  0  0  0
 15  4  1  0  0  0  0
 16  8  1  0  0  0  0
 17 28  1  1  0  0  0
 18 20  1  1  0  0  0
 18  1  1  0  0  0  0
 19  6  1  6  0  0  0
 19  5  1  0  0  0  0
 20 13  1  0  0  0  0
 21 26  2  0  0  0  0
 22 10  1  0  0  0  0
 23 21  1  0  0  0  0
 24 22  1  0  0  0  0
 24 13  1  0  0  0  0
 25  9  1  1  0  0  0
 25 17  1  0  0  0  0
 25 14  1  0  0  0  0
 27  1  1  0  0  0  0
 27  2  1  0  0  0  0
 29 32  1  0  0  0  0
 29 28  1  0  0  0  0
 30 33  1  0  0  0  0
 30 34  1  0  0  0  0
 31 32  1  0  0  0  0
 33 31  1  0  0  0  0
 34 32  1  0  0  0  0
M  END
>  <MODEL>
2

>  <REMARK>
 VINA RESULT:      -8.6      3.104      9.237
  Name = 
  3 active torsions:
  status: ('A' for Active; 'I' for Inactive)
    1  A    between atoms: C_17  and  O_28
    2  A    between atoms: O_28  and  C_29
    3  A    between atoms: C_29  and  N_32
                            x       y       z     vdW  Elec       q    Type
                         _______ _______ _______ _____ _____    ______ ____

>  <TORSDO>
F 3

$$$$
=
 OpenBabel11112418023D

 34 41  0  0  1  0  0  0  0  0999 V2000
  192.0070  175.9750  145.5010 C   0  0  1  0  0  3  0  0  0  0  0  0
  189.9960  177.5460  145.8640 C   0  0  0  0  0  2  0  0  0  0  0  0
  196.2460  174.4820  141.0060 C   0  0  1  0  0  3  0  0  0  0  0  0
  194.1200  174.8500  144.5540 C   0  0  0  0  0  0  0  0  0  0  0  0
  194.1760  174.0350  142.1420 C   0  0  2  0  0  3  0  0  0  0  0  0
  194.7550  175.2910  139.9650 C   0  0  0  0  0  2  0  0  0  0  0  0
  196.0470  174.8210  139.6600 O   0  0  0  0  0  0  0  0  0  0  0  0
  197.2660  175.1140  143.5080 S   0  0  0  0  0  0  0  0  0  0  0  0
  190.2290  176.4970  143.8600 C   0  0  0  0  0  0  0  0  0  0  0  0
  187.5900  175.3730  142.5490 C   0  0  0  0  0  2  0  0  0  0  0  0
  192.7510  174.3650  142.1280 N   0  0  0  0  0  0  0  0  0  0  0  0
  196.2280  173.5940  143.6990 C   0  0  0  0  0  2  0  0  0  0  0  0
  190.7400  175.6540  142.9480 C   0  0  0  0  0  0  0  0  0  0  0  0
  188.8150  177.8170  145.1150 O   0  0  0  0  0  0  0  0  0  0  0  0
  194.6980  173.8350  143.5900 C   0  0  1  0  0  3  0  0  0  0  0  0
  197.4330  175.1440  141.6720 C   0  0  0  0  0  2  0  0  0  0  0  0
  187.8230  175.9390  143.9470 C   0  0  1  0  0  3  0  0  0  0  0  0
  192.7410  175.3330  144.3380 C   0  0  1  0  0  3  0  0  0  0  0  0
  194.9710  175.1260  141.4480 C   0  0  2  0  0  3  0  0  0  0  0  0
  192.1060  175.1140  143.1680 C   0  0  0  0  0  0  0  0  0  0  0  0
  194.2330  176.3320  146.5170 C   0  0  0  0  0  3  0  0  0  0  0  0
  188.7250  174.4590  142.1040 C   0  0  0  0  0  2  0  0  0  0  0  0
  194.8060  175.3100  145.6130 C   0  0  0  0  0  3  0  0  0  0  0  0
  189.9610  175.2650  141.7280 C   0  0  0  0  0  2  0  0  0  0  0  0
  188.8680  177.0630  143.9130 C   0  0  2  0  0  3  0  0  0  0  0  0
  192.9460  176.6890  146.4340 C   0  0  0  0  0  3  0  0  0  0  0  0
  190.9360  176.8420  145.0150 N   0  0  0  0  0  0  0  0  0  0  0  0
  186.6080  176.4160  144.4440 O   0  0  0  0  0  0  0  0  0  0  0  0
  185.8540  176.7270  143.3090 C   0  0  0  0  0  2  0  0  0  0  0  0
  185.5750  179.1780  145.4920 C   0  0  0  0  0  2  0  0  0  0  0  0
  185.5300  179.0450  143.1220 C   0  0  0  0  0  2  0  0  0  0  0  0
  184.9290  177.8070  143.6120 N   0  0  0  0  0  0  0  0  0  0  0  0
  185.5640  180.0370  144.2610 C   0  0  0  0  0  2  0  0  0  0  0  0
  184.8630  177.9120  145.0680 C   0  0  0  0  0  2  0  0  0  0  0  0
  1 26  1  6  0  0  0
  3 19  1  0  0  0  0
  3 16  1  1  0  0  0
  4 23  2  0  0  0  0
  5 11  1  1  0  0  0
  5 15  1  0  0  0  0
  7  6  1  0  0  0  0
  7  3  1  0  0  0  0
  8 12  1  0  0  0  0
  9 27  1  0  0  0  0
 10 17  1  0  0  0  0
 11 20  2  0  0  0  0
 13 20  1  0  0  0  0
 13  9  2  0  0  0  0
 14  2  1  0  0  0  0
 15 12  1  6  0  0  0
 15  4  1  0  0  0  0
 16  8  1  0  0  0  0
 17 28  1  6  0  0  0
 18 20  1  1  0  0  0
 18  4  1  0  0  0  0
 18  1  1  0  0  0  0
 19  6  1  6  0  0  0
 19  5  1  0  0  0  0
 22 10  1  0  0  0  0
 23 21  1  0  0  0  0
 24 22  1  0  0  0  0
 24 13  1  0  0  0  0
 25  9  1  1  0  0  0
 25 17  1  0  0  0  0
 25 14  1  0  0  0  0
 26 21  2  0  0  0  0
 27  1  1  0  0  0  0
 27  2  1  0  0  0  0
 29 32  1  0  0  0  0
 29 28  1  0  0  0  0
 31 32  1  0  0  0  0
 31 33  1  0  0  0  0
 32 34  1  0  0  0  0
 33 30  1  0  0  0  0
 34 30  1  0  0  0  0
M  END
>  <MODEL>
3

>  <REMARK>
 VINA RESULT:      -8.2      3.448      5.393
  Name = 
  3 active torsions:
  status: ('A' for Active; 'I' for Inactive)
    1  A    between atoms: C_17  and  O_28
    2  A    between atoms: O_28  and  C_29
    3  A    between atoms: C_29  and  N_32
                            x       y       z     vdW  Elec       q    Type
                         _______ _______ _______ _____ _____    ______ ____

>  <TORSDO>
F 3

$$$$
=
 OpenBabel11112418023D

 34 41  0  0  1  0  0  0  0  0999 V2000
  192.3250  176.1790  145.0800 C   0  0  1  0  0  3  0  0  0  0  0  0
  190.7880  178.0300  144.1560 C   0  0  0  0  0  2  0  0  0  0  0  0
  196.1620  171.5650  142.9830 C   0  0  1  0  0  3  0  0  0  0  0  0
  194.0980  174.3250  145.3010 C   0  0  0  0  0  0  0  0  0  0  0  0
  194.0130  172.2750  143.7910 C   0  0  2  0  0  3  0  0  0  0  0  0
  194.9700  171.8990  141.4260 C   0  0  0  0  0  2  0  0  0  0  0  0
  196.1020  171.0950  141.6640 O   0  0  0  0  0  0  0  0  0  0  0  0
  197.2330  173.3090  144.8580 S   0  0  0  0  0  0  0  0  0  0  0  0
  190.8000  175.9960  143.1390 C   0  0  0  0  0  0  0  0  0  0  0  0
  188.0010  174.8680  142.2230 C   0  0  0  0  0  2  0  0  0  0  0  0
  192.7260  172.8090  143.3460 N   0  0  0  0  0  0  0  0  0  0  0  0
  195.8270  172.4200  145.6670 C   0  0  0  0  0  2  0  0  0  0  0  0
  191.1000  174.7000  142.9500 C   0  0  0  0  0  0  0  0  0  0  0  0
  189.7440  178.0450  143.1870 O   0  0  0  0  0  0  0  0  0  0  0  0
  194.4180  172.8490  145.1750 C   0  0  1  0  0  3  0  0  0  0  0  0
  197.4600  172.2400  143.3730 C   0  0  0  0  0  2  0  0  0  0  0  0
  188.3310  176.0780  143.0930 C   0  0  1  0  0  3  0  0  0  0  0  0
  192.9010  174.8540  144.6150 C   0  0  1  0  0  3  0  0  0  0  0  0
  195.0880  172.5810  142.7650 C   0  0  2  0  0  3  0  0  0  0  0  0
  192.2680  174.1310  143.6680 C   0  0  0  0  0  0  0  0  0  0  0  0
  194.5340  176.6100  146.1060 C   0  0  0  0  0  3  0  0  0  0  0  0
  188.8690  173.6630  142.5640 C   0  0  0  0  0  2  0  0  0  0  0  0
  194.8460  175.1650  146.0320 C   0  0  0  0  0  3  0  0  0  0  0  0
  190.2840  173.8420  142.0310 C   0  0  0  0  0  2  0  0  0  0  0  0
  189.6350  176.7430  142.6310 C   0  0  2  0  0  3  0  0  0  0  0  0
  193.3900  177.0980  145.6140 C   0  0  0  0  0  3  0  0  0  0  0  0
  191.5360  176.7960  144.0170 N   0  0  0  0  0  0  0  0  0  0  0  0
  187.2680  176.9830  143.0210 O   0  0  0  0  0  0  0  0  0  0  0  0
  186.3380  176.5180  143.9560 C   0  0  0  0  0  2  0  0  0  0  0  0
  184.8010  179.1310  145.2420 C   0  0  0  0  0  2  0  0  0  0  0  0
  185.2800  176.9370  146.0100 C   0  0  0  0  0  2  0  0  0  0  0  0
  186.4040  177.3280  145.1620 N   0  0  0  0  0  0  0  0  0  0  0  0
  184.5010  178.1820  146.3650 C   0  0  0  0  0  2  0  0  0  0  0  0
  186.1710  178.7120  144.7550 C   0  0  0  0  0  2  0  0  0  0  0  0
  1 26  1  6  0  0  0
  3 16  1  6  0  0  0
  4 23  2  0  0  0  0
  5 11  1  6  0  0  0
  5 15  1  0  0  0  0
  6  7  1  0  0  0  0
  7  3  1  0  0  0  0
  8 12  1  0  0  0  0
  9 27  1  0  0  0  0
 10 22  1  0  0  0  0
 10 17  1  0  0  0  0
 11 20  2  0  0  0  0
 13  9  2  0  0  0  0
 13 20  1  0  0  0  0
 14  2  1  0  0  0  0
 15  4  1  0  0  0  0
 15 12  1  6  0  0  0
 16  8  1  0  0  0  0
 17 28  1  6  0  0  0
 18 20  1  1  0  0  0
 18  1  1  0  0  0  0
 18  4  1  0  0  0  0
 19  6  1  6  0  0  0
 19  3  1  0  0  0  0
 19  5  1  0  0  0  0
 23 21  1  0  0  0  0
 24 22  1  0  0  0  0
 24 13  1  0  0  0  0
 25 17  1  0  0  0  0
 25  9  1  1  0  0  0
 25 14  1  0  0  0  0
 26 21  2  0  0  0  0
 27  2  1  0  0  0  0
 27  1  1  0  0  0  0
 28 29  1  0  0  0  0
 29 32  1  0  0  0  0
 30 33  1  0  0  0  0
 31 33  1  0  0  0  0
 32 31  1  0  0  0  0
 34 32  1  0  0  0  0
 34 30  1  0  0  0  0
M  END
>  <MODEL>
4

>  <REMARK>
 VINA RESULT:      -7.9      3.728      5.985
  Name = 
  3 active torsions:
  status: ('A' for Active; 'I' for Inactive)
    1  A    between atoms: C_17  and  O_28
    2  A    between atoms: O_28  and  C_29
    3  A    between atoms: C_29  and  N_32
                            x       y       z     vdW  Elec       q    Type
                         _______ _______ _______ _____ _____    ______ ____

>  <TORSDO>
F 3

$$$$
=
 OpenBabel11112418023D

 34 41  0  0  1  0  0  0  0  0999 V2000
  191.4980  173.1960  143.1290 C   0  0  1  0  0  3  0  0  0  0  0  0
  189.8570  172.9460  145.1000 C   0  0  0  0  0  2  0  0  0  0  0  0
  197.2110  175.6760  141.8600 C   0  0  1  0  0  3  0  0  0  0  0  0
  193.6010  173.6300  141.7080 C   0  0  0  0  0  0  0  0  0  0  0  0
  194.8160  175.8630  141.8530 C   0  0  2  0  0  3  0  0  0  0  0  0
  196.6420  176.6710  143.4850 C   0  0  0  0  0  2  0  0  0  0  0  0
  197.8130  176.6180  142.7040 O   0  0  0  0  0  0  0  0  0  0  0  0
  196.8180  173.0300  141.1190 S   0  0  0  0  0  0  0  0  0  0  0  0
  190.9680  174.9120  144.8330 C   0  0  0  0  0  0  0  0  0  0  0  0
  189.3050  177.5430  145.3380 C   0  0  0  0  0  2  0  0  0  0  0  0
  193.6840  176.2850  142.6780 N   0  0  0  0  0  0  0  0  0  0  0  0
  195.6310  174.0620  140.1440 C   0  0  0  0  0  2  0  0  0  0  0  0
  191.7580  175.8250  144.2460 C   0  0  0  0  0  0  0  0  0  0  0  0
  189.3120  173.8610  146.0460 O   0  0  0  0  0  0  0  0  0  0  0  0
  194.4490  174.6430  140.9670 C   0  0  1  0  0  3  0  0  0  0  0  0
  197.9410  174.3550  141.7380 C   0  0  0  0  0  2  0  0  0  0  0  0
  188.8360  176.0950  145.2330 C   0  0  1  0  0  3  0  0  0  0  0  0
  192.6370  174.1120  142.7190 C   0  0  1  0  0  3  0  0  0  0  0  0
  196.0070  175.5300  142.7320 C   0  0  2  0  0  3  0  0  0  0  0  0
  192.7000  175.3740  143.1900 C   0  0  0  0  0  0  0  0  0  0  0  0
  192.8630  171.3400  142.2300 C   0  0  0  0  0  3  0  0  0  0  0  0
  190.3560  177.8820  144.2870 C   0  0  0  0  0  2  0  0  0  0  0  0
  193.6740  172.3120  141.4640 C   0  0  0  0  0  3  0  0  0  0  0  0
  191.7030  177.2690  144.6440 C   0  0  0  0  0  2  0  0  0  0  0  0
  189.8880  175.1370  145.8110 C   0  0  2  0  0  3  0  0  0  0  0  0
  191.8860  171.7450  143.0500 C   0  0  0  0  0  3  0  0  0  0  0  0
  190.9910  173.5680  144.4480 N   0  0  0  0  0  0  0  0  0  0  0  0
  187.6270  175.9670  145.9220 O   0  0  0  0  0  0  0  0  0  0  0  0
  187.6700  176.9570  146.9080 C   0  0  0  0  0  2  0  0  0  0  0  0
  185.2420  179.1540  146.5490 C   0  0  0  0  0  2  0  0  0  0  0  0
  185.3840  176.7900  146.3970 C   0  0  0  0  0  2  0  0  0  0  0  0
  186.3330  177.1890  147.4320 N   0  0  0  0  0  0  0  0  0  0  0  0
  184.4480  177.9480  146.1410 C   0  0  0  0  0  2  0  0  0  0  0  0
  186.1930  178.6330  147.6060 C   0  0  0  0  0  2  0  0  0  0  0  0
  1 26  1  1  0  0  0
  1 27  1  0  0  0  0
  2 14  1  0  0  0  0
  3 16  1  1  0  0  0
  3  7  1  0  0  0  0
  3 19  1  0  0  0  0
  5 11  1  1  0  0  0
  5 19  1  0  0  0  0
  7  6  1  0  0  0  0
  8 16  1  0  0  0  0
 11 20  2  0  0  0  0
 12  8  1  0  0  0  0
 13 24  1  0  0  0  0
 13  9  2  0  0  0  0
 15 12  1  1  0  0  0
 15  4  1  0  0  0  0
 15  5  1  0  0  0  0
 17 10  1  0  0  0  0
 17 25  1  0  0  0  0
 17 28  1  1  0  0  0
 18  4  1  6  0  0  0
 18  1  1  0  0  0  0
 18 20  1  0  0  0  0
 19  6  1  1  0  0  0
 20 13  1  0  0  0  0
 21 26  2  0  0  0  0
 22 24  1  0  0  0  0
 22 10  1  0  0  0  0
 23  4  2  0  0  0  0
 23 21  1  0  0  0  0
 25  9  1  6  0  0  0
 25 14  1  0  0  0  0
 27  9  1  0  0  0  0
 27  2  1  0  0  0  0
 28 29  1  0  0  0  0
 29 32  1  0  0  0  0
 30 34  1  0  0  0  0
 31 32  1  0  0  0  0
 32 34  1  0  0  0  0
 33 31  1  0  0  0  0
 33 30  1  0  0  0  0
M  END
>  <MODEL>
5

>  <REMARK>
 VINA RESULT:      -7.7      4.331      6.810
  Name = 
  3 active torsions:
  status: ('A' for Active; 'I' for Inactive)
    1  A    between atoms: C_17  and  O_28
    2  A    between atoms: O_28  and  C_29
    3  A    between atoms: C_29  and  N_32
                            x       y       z     vdW  Elec       q    Type
                         _______ _______ _______ _____ _____    ______ ____

>  <TORSDO>
F 3

$$$$
=
 OpenBabel11112418023D

 34 41  0  0  1  0  0  0  0  0999 V2000
  191.6790  174.3360  141.1250 C   0  0  1  0  0  3  0  0  0  0  0  0
  189.1440  174.0230  141.4650 C   0  0  0  0  0  2  0  0  0  0  0  0
  197.0820  174.1300  144.4670 C   0  0  1  0  0  3  0  0  0  0  0  0
  194.2330  174.3250  141.4520 C   0  0  0  0  0  0  0  0  0  0  0  0
  195.2720  175.3930  143.5180 C   0  0  2  0  0  3  0  0  0  0  0  0
  195.7000  174.4210  145.8680 C   0  0  0  0  0  2  0  0  0  0  0  0
  197.0890  174.1860  145.8680 O   0  0  0  0  0  0  0  0  0  0  0  0
  197.0130  172.6330  142.1320 S   0  0  0  0  0  0  0  0  0  0  0  0
  190.3420  175.1220  143.0550 C   0  0  0  0  0  0  0  0  0  0  0  0
  188.9880  177.6740  144.3200 C   0  0  0  0  0  2  0  0  0  0  0  0
  193.9180  175.8710  143.8000 N   0  0  0  0  0  2  0  0  0  0  0  0
  196.8220  174.4110  141.6570 C   0  0  0  0  0  2  0  0  0  0  0  0
  191.4040  175.7130  143.6260 C   0  0  0  0  0  0  0  0  0  0  0  0
  188.2070  174.5490  142.4010 O   0  0  0  0  0  0  0  0  0  0  0  0
  195.4460  175.0340  142.0180 C   0  0  1  0  0  3  0  0  0  0  0  0
  197.5970  172.8380  143.8680 C   0  0  0  0  0  2  0  0  0  0  0  0
  188.5650  176.8370  143.1160 C   0  0  1  0  0  3  0  0  0  0  0  0
  192.8940  174.6870  141.9640 C   0  0  0  0  0  0  0  0  0  0  0  0
  195.5910  174.1880  144.3830 C   0  0  2  0  0  3  0  0  0  0  0  0
  192.7570  175.4060  143.0970 C   0  0  0  0  0  0  0  0  0  0  0  0
  193.1270  172.6910  139.9800 C   0  0  0  0  0  3  0  0  0  0  0  0
  190.4930  177.9150  144.3490 C   0  0  0  0  0  2  0  0  0  0  0  0
  194.3250  173.3980  140.4860 C   0  0  0  0  0  3  0  0  0  0  0  0
  191.2390  176.6590  144.7770 C   0  0  0  0  0  2  0  0  0  0  0  0
  188.9130  175.3570  143.3300 C   0  0  2  0  0  3  0  0  0  0  0  0
  191.8940  173.0860  140.3180 C   0  0  0  0  0  3  0  0  0  0  0  0
  190.4840  174.2620  141.9620 N   0  0  0  0  0  0  0  0  0  0  0  0
  187.1890  176.9930  142.9250 O   0  0  0  0  0  0  0  0  0  0  0  0
  186.7730  177.8160  143.9760 C   0  0  0  0  0  2  0  0  0  0  0  0
  184.9380  177.7880  146.7100 C   0  0  0  0  0  2  0  0  0  0  0  0
  184.6840  178.7240  144.5450 C   0  0  0  0  0  2  0  0  0  0  0  0
  185.4150  177.4730  144.3640 N   0  0  0  0  0  0  0  0  0  0  0  0
  184.0600  178.7150  145.9210 C   0  0  0  0  0  2  0  0  0  0  0  0
  185.4990  176.8360  145.6770 C   0  0  0  0  0  2  0  0  0  0  0  0
  1 26  1  1  0  0  0
  1 27  1  0  0  0  0
  1 18  1  0  0  0  0
  2 27  1  0  0  0  0
  2 14  1  0  0  0  0
  3 16  1  1  0  0  0
  3  7  1  0  0  0  0
  4 18  1  0  0  0  0
  4 15  1  0  0  0  0
  5 11  1  6  0  0  0
  5 19  1  0  0  0  0
  6  7  1  0  0  0  0
  8 16  1  0  0  0  0
  9 25  1  0  0  0  0
  9 13  2  0  0  0  0
 10 22  1  0  0  0  0
 12  8  1  0  0  0  0
 13 24  1  0  0  0  0
 15 12  1  1  0  0  0
 15  5  1  0  0  0  0
 17 28  1  1  0  0  0
 17 25  1  0  0  0  0
 17 10  1  0  0  0  0
 18 20  2  0  0  0  0
 19  3  1  0  0  0  0
 19  6  1  1  0  0  0
 20 13  1  0  0  0  0
 20 11  1  0  0  0  0
 21 26  2  0  0  0  0
 21 23  1  0  0  0  0
 22 24  1  0  0  0  0
 23  4  2  0  0  0  0
 25 14  1  6  0  0  0
 27  9  1  0  0  0  0
 28 29  1  0  0  0  0
 29 32  1  0  0  0  0
 31 33  1  0  0  0  0
 32 31  1  0  0  0  0
 32 34  1  0  0  0  0
 33 30  1  0  0  0  0
 34 30  1  0  0  0  0
M  END
>  <MODEL>
6

>  <REMARK>
 VINA RESULT:      -7.7      3.612      6.450
  Name = 
  3 active torsions:
  status: ('A' for Active; 'I' for Inactive)
    1  A    between atoms: C_17  and  O_28
    2  A    between atoms: O_28  and  C_29
    3  A    between atoms: C_29  and  N_32
                            x       y       z     vdW  Elec       q    Type
                         _______ _______ _______ _____ _____    ______ ____

>  <TORSDO>
F 3

$$$$
=
 OpenBabel11112418023D

 34 41  0  0  1  0  0  0  0  0999 V2000
  193.8520  176.0490  143.9830 C   0  0  1  0  0  3  0  0  0  0  0  0
  191.9840  177.3690  142.7980 C   0  0  0  0  0  2  0  0  0  0  0  0
  195.6280  170.0360  145.0320 C   0  0  1  0  0  3  0  0  0  0  0  0
  195.4370  174.1760  144.7640 C   0  0  0  0  0  0  0  0  0  0  0  0
  194.5010  172.0280  145.7630 C   0  0  2  0  0  3  0  0  0  0  0  0
  193.6900  169.8650  144.6170 C   0  0  0  0  0  2  0  0  0  0  0  0
  194.7440  168.9620  144.8570 O   0  0  0  0  0  0  0  0  0  0  0  0
  197.5630  171.7360  144.0000 S   0  0  0  0  0  0  0  0  0  0  0  0
  191.4420  175.4880  143.9550 C   0  0  0  0  0  0  0  0  0  0  0  0
  188.7990  175.6090  145.6720 C   0  0  0  0  0  2  0  0  0  0  0  0
  193.2090  172.7150  145.7130 N   0  0  0  0  0  2  0  0  0  0  0  0
  197.0880  172.3830  145.6670 C   0  0  0  0  0  2  0  0  0  0  0  0
  191.6170  174.4290  144.7630 C   0  0  0  0  0  0  0  0  0  0  0  0
  190.5610  177.2930  142.8230 O   0  0  0  0  0  0  0  0  0  0  0  0
  195.6800  173.0360  145.7320 C   0  0  1  0  0  3  0  0  0  0  0  0
  196.8210  170.0520  144.1000 C   0  0  0  0  0  2  0  0  0  0  0  0
  189.5490  176.7250  144.9520 C   0  0  1  0  0  3  0  0  0  0  0  0
  194.0560  174.6660  144.5740 C   0  0  0  0  0  0  0  0  0  0  0  0
  194.6180  171.0520  144.6070 C   0  0  2  0  0  3  0  0  0  0  0  0
  193.0000  173.9490  145.0110 C   0  0  0  0  0  0  0  0  0  0  0  0
  196.1630  175.8590  143.1210 C   0  0  0  0  0  3  0  0  0  0  0  0
  189.7460  174.6530  146.3900 C   0  0  0  0  0  2  0  0  0  0  0  0
  196.4320  174.7750  144.0910 C   0  0  0  0  0  3  0  0  0  0  0  0
  190.4500  173.7370  145.3990 C   0  0  0  0  0  2  0  0  0  0  0  0
  190.1890  176.2060  143.6560 C   0  0  2  0  0  3  0  0  0  0  0  0
  194.9510  176.4180  143.0240 C   0  0  0  0  0  3  0  0  0  0  0  0
  192.5260  176.1590  143.3820 N   0  0  0  0  0  0  0  0  0  0  0  0
  188.6510  177.7590  144.6730 O   0  0  0  0  0  0  0  0  0  0  0  0
  187.4120  177.2850  145.1130 C   0  0  0  0  0  2  0  0  0  0  0  0
  184.4470  178.7190  145.0800 C   0  0  0  0  0  2  0  0  0  0  0  0
  185.7770  177.6840  146.7510 C   0  0  0  0  0  2  0  0  0  0  0  0
  186.7090  178.3340  145.8330 N   0  0  0  0  0  0  0  0  0  0  0  0
  184.3980  178.2490  146.5050 C   0  0  0  0  0  2  0  0  0  0  0  0
  185.9040  179.0550  144.8490 C   0  0  0  0  0  2  0  0  0  0  0  0
  1 26  1  6  0  0  0
  1 18  1  0  0  0  0
  2 14  1  0  0  0  0
  2 27  1  0  0  0  0
  3 16  1  6  0  0  0
  4 15  1  0  0  0  0
  5 11  1  6  0  0  0
  6  7  1  0  0  0  0
  7  3  1  0  0  0  0
  8 16  1  0  0  0  0
  8 12  1  0  0  0  0
  9 13  2  0  0  0  0
 10 22  1  0  0  0  0
 13 20  1  0  0  0  0
 13 24  1  0  0  0  0
 15 12  1  6  0  0  0
 15  5  1  0  0  0  0
 17 28  1  6  0  0  0
 17 10  1  0  0  0  0
 18  4  1  0  0  0  0
 18 20  2  0  0  0  0
 19  6  1  1  0  0  0
 19  3  1  0  0  0  0
 19  5  1  0  0  0  0
 20 11  1  0  0  0  0
 21 23  1  0  0  0  0
 23  4  2  0  0  0  0
 24 22  1  0  0  0  0
 25 14  1  6  0  0  0
 25  9  1  0  0  0  0
 25 17  1  0  0  0  0
 26 21  2  0  0  0  0
 27  9  1  0  0  0  0
 27  1  1  0  0  0  0
 28 29  1  0  0  0  0
 29 32  1  0  0  0  0
 30 33  1  0  0  0  0
 32 31  1  0  0  0  0
 33 31  1  0  0  0  0
 34 30  1  0  0  0  0
 34 32  1  0  0  0  0
M  END
>  <MODEL>
7

>  <REMARK>
 VINA RESULT:      -7.6      3.761      7.174
  Name = 
  3 active torsions:
  status: ('A' for Active; 'I' for Inactive)
    1  A    between atoms: C_17  and  O_28
    2  A    between atoms: O_28  and  C_29
    3  A    between atoms: C_29  and  N_32
                            x       y       z     vdW  Elec       q    Type
                         _______ _______ _______ _____ _____    ______ ____

>  <TORSDO>
F 3

$$$$
=
 OpenBabel11112418023D

 34 41  0  0  1  0  0  0  0  0999 V2000
  190.7850  173.6380  142.7490 C   0  0  1  0  0  3  0  0  0  0  0  0
  191.1050  175.5800  144.4120 C   0  0  0  0  0  2  0  0  0  0  0  0
  189.7630  172.6800  136.5480 C   0  0  1  0  0  3  0  0  0  0  0  0
  190.5810  172.2400  140.5960 C   0  0  0  0  0  0  0  0  0  0  0  0
  188.9140  172.8970  138.7860 C   0  0  2  0  0  3  0  0  0  0  0  0
  189.1440  174.5500  136.8200 C   0  0  0  0  0  2  0  0  0  0  0  0
  189.3040  173.7020  135.7070 O   0  0  0  0  0  0  0  0  0  0  0  0
  191.8730  171.2810  137.6860 S   0  0  0  0  0  0  0  0  0  0  0  0
  189.5380  175.7760  142.7750 C   0  0  0  0  0  0  0  0  0  0  0  0
  186.7960  177.0930  143.6060 C   0  0  0  0  0  2  0  0  0  0  0  0
  188.4390  173.8840  139.7550 N   0  0  0  0  0  0  0  0  0  0  0  0
  190.3190  170.7100  138.5120 C   0  0  0  0  0  2  0  0  0  0  0  0
  188.7580  175.4030  141.7470 C   0  0  0  0  0  0  0  0  0  0  0  0
  190.3760  176.7750  144.6760 O   0  0  0  0  0  0  0  0  0  0  0  0
  189.6830  171.7420  139.4820 C   0  0  1  0  0  3  0  0  0  0  0  0
  191.1470  172.1530  136.2330 C   0  0  0  0  0  2  0  0  0  0  0  0
  187.9640  176.6340  144.4750 C   0  0  1  0  0  3  0  0  0  0  0  0
  190.1500  173.4100  141.3890 C   0  0  1  0  0  3  0  0  0  0  0  0
  189.8020  173.5650  137.7520 C   0  0  2  0  0  3  0  0  0  0  0  0
  189.1420  174.2000  140.9660 C   0  0  0  0  0  0  0  0  0  0  0  0
  192.6210  172.1740  141.9730 C   0  0  0  0  0  3  0  0  0  0  0  0
  186.4870  176.1000  142.4920 C   0  0  0  0  0  2  0  0  0  0  0  0
  191.7420  171.6430  140.9060 C   0  0  0  0  0  3  0  0  0  0  0  0
  187.5290  176.1800  141.3850 C   0  0  0  0  0  2  0  0  0  0  0  0
  189.3010  176.8540  143.7530 C   0  0  2  0  0  3  0  0  0  0  0  0
  192.2040  173.1410  142.7970 C   0  0  0  0  0  3  0  0  0  0  0  0
  190.6700  175.0400  143.1390 N   0  0  0  0  0  0  0  0  0  0  0  0
  187.9340  177.3480  145.6760 O   0  0  0  0  0  0  0  0  0  0  0  0
  187.4240  176.4470  146.6150 C   0  0  0  0  0  2  0  0  0  0  0  0
  185.5200  179.1270  146.4140 C   0  0  0  0  0  2  0  0  0  0  0  0
  185.1040  176.8070  146.6880 C   0  0  0  0  0  2  0  0  0  0  0  0
  186.3610  177.0800  147.3800 N   0  0  0  0  0  0  0  0  0  0  0  0
  184.4050  178.1220  146.4380 C   0  0  0  0  0  2  0  0  0  0  0  0
  186.5860  178.5220  147.3010 C   0  0  0  0  0  2  0  0  0  0  0  0
  1 26  1  6  0  0  0
  1 27  1  0  0  0  0
  2 14  1  0  0  0  0
  3 16  1  6  0  0  0
  3 19  1  0  0  0  0
  4 23  2  0  0  0  0
  5 15  1  0  0  0  0
  5 11  1  1  0  0  0
  7  3  1  0  0  0  0
  7  6  1  0  0  0  0
  8 12  1  0  0  0  0
  9 27  1  0  0  0  0
 10 17  1  0  0  0  0
 11 20  2  0  0  0  0
 13  9  2  0  0  0  0
 15 12  1  6  0  0  0
 15  4  1  0  0  0  0
 16  8  1  0  0  0  0
 17 28  1  1  0  0  0
 18  4  1  1  0  0  0
 18  1  1  0  0  0  0
 19  6  1  6  0  0  0
 19  5  1  0  0  0  0
 20 18  1  0  0  0  0
 20 13  1  0  0  0  0
 21 26  2  0  0  0  0
 22 10  1  0  0  0  0
 23 21  1  0  0  0  0
 24 13  1  0  0  0  0
 24 22  1  0  0  0  0
 25  9  1  6  0  0  0
 25 17  1  0  0  0  0
 25 14  1  0  0  0  0
 27  2  1  0  0  0  0
 28 29  1  0  0  0  0
 29 32  1  0  0  0  0
 30 33  1  0  0  0  0
 30 34  1  0  0  0  0
 31 32  1  0  0  0  0
 33 31  1  0  0  0  0
 34 32  1  0  0  0  0
M  END
>  <MODEL>
8

>  <REMARK>
 VINA RESULT:      -7.6      4.439      6.890
  Name = 
  3 active torsions:
  status: ('A' for Active; 'I' for Inactive)
    1  A    between atoms: C_17  and  O_28
    2  A    between atoms: O_28  and  C_29
    3  A    between atoms: C_29  and  N_32
                            x       y       z     vdW  Elec       q    Type
                         _______ _______ _______ _____ _____    ______ ____

>  <TORSDO>
F 3

$$$$
=
 OpenBabel11112418023D

 34 41  0  0  1  0  0  0  0  0999 V2000
  193.1870  176.4190  143.1920 C   0  0  1  0  0  3  0  0  0  0  0  0
  190.6650  176.7260  142.7630 C   0  0  0  0  0  2  0  0  0  0  0  0
  197.2510  171.9910  145.2630 C   0  0  1  0  0  3  0  0  0  0  0  0
  195.5050  175.3990  143.6550 C   0  0  0  0  0  0  0  0  0  0  0  0
  195.8780  173.9160  145.6920 C   0  0  2  0  0  3  0  0  0  0  0  0
  195.5090  171.3830  146.0060 C   0  0  0  0  0  2  0  0  0  0  0  0
  196.8170  170.8640  145.9740 O   0  0  0  0  0  0  0  0  0  0  0  0
  197.8690  173.2050  142.8450 S   0  0  0  0  0  0  0  0  0  0  0  0
  191.3380  175.6030  144.6210 C   0  0  0  0  0  0  0  0  0  0  0  0
  189.7450  176.2000  147.2770 C   0  0  0  0  0  2  0  0  0  0  0  0
  194.5210  174.3120  146.0730 N   0  0  0  0  0  2  0  0  0  0  0  0
  197.9000  174.5180  144.1490 C   0  0  0  0  0  2  0  0  0  0  0  0
  192.1860  175.1110  145.5400 C   0  0  0  0  0  0  0  0  0  0  0  0
  189.5000  176.4850  143.5460 O   0  0  0  0  0  0  0  0  0  0  0  0
  196.5030  174.9250  144.6920 C   0  0  1  0  0  3  0  0  0  0  0  0
  197.8830  171.7050  143.9170 C   0  0  0  0  0  2  0  0  0  0  0  0
  189.6940  176.9070  145.9250 C   0  0  1  0  0  3  0  0  0  0  0  0
  194.0880  175.5450  144.0450 C   0  0  0  0  0  0  0  0  0  0  0  0
  195.8650  172.5240  145.0880 C   0  0  2  0  0  3  0  0  0  0  0  0
  193.6250  175.0020  145.1900 C   0  0  0  0  0  0  0  0  0  0  0  0
  194.8640  176.1380  141.3960 C   0  0  0  0  0  3  0  0  0  0  0  0
  191.1710  175.8540  147.6890 C   0  0  0  0  0  2  0  0  0  0  0  0
  195.8650  175.7160  142.4010 C   0  0  0  0  0  3  0  0  0  0  0  0
  191.7000  174.6720  146.8880 C   0  0  0  0  0  2  0  0  0  0  0  0
  189.9050  175.9080  144.7780 C   0  0  2  0  0  3  0  0  0  0  0  0
  193.6020  176.4120  141.7460 C   0  0  0  0  0  3  0  0  0  0  0  0
  191.7870  176.0430  143.3730 N   0  0  0  0  0  0  0  0  0  0  0  0
  188.4550  177.5400  145.8000 O   0  0  0  0  0  0  0  0  0  0  0  0
  187.6960  177.0590  146.8710 C   0  0  0  0  0  2  0  0  0  0  0  0
  185.6830  179.1350  145.2940 C   0  0  0  0  0  2  0  0  0  0  0  0
  186.1120  176.8050  145.1560 C   0  0  0  0  0  2  0  0  0  0  0  0
  186.2790  177.1680  146.5610 N   0  0  0  0  0  0  0  0  0  0  0  0
  185.3720  177.9250  144.4630 C   0  0  0  0  0  2  0  0  0  0  0  0
  185.9280  178.5810  146.6810 C   0  0  0  0  0  2  0  0  0  0  0  0
  1 26  1  6  0  0  0
  1 27  1  0  0  0  0
  1 18  1  0  0  0  0
  2 27  1  0  0  0  0
  2 14  1  0  0  0  0
  3 16  1  6  0  0  0
  3  7  1  0  0  0  0
  4 18  1  0  0  0  0
  4 15  1  0  0  0  0
  5 11  1  6  0  0  0
  7  6  1  0  0  0  0
  8 16  1  0  0  0  0
  8 12  1  0  0  0  0
  9 25  1  0  0  0  0
  9 13  2  0  0  0  0
 10 22  1  0  0  0  0
 13 24  1  0  0  0  0
 15 12  1  6  0  0  0
 15  5  1  0  0  0  0
 17 28  1  6  0  0  0
 17 10  1  0  0  0  0
 18 20  2  0  0  0  0
 19  3  1  0  0  0  0
 19  5  1  0  0  0  0
 19  6  1  1  0  0  0
 20 13  1  0  0  0  0
 20 11  1  0  0  0  0
 21 26  2  0  0  0  0
 21 23  1  0  0  0  0
 23  4  2  0  0  0  0
 24 22  1  0  0  0  0
 25 14  1  6  0  0  0
 25 17  1  0  0  0  0
 27  9  1  0  0  0  0
 28 29  1  0  0  0  0
 30 34  1  0  0  0  0
 31 32  1  0  0  0  0
 32 34  1  0  0  0  0
 32 29  1  0  0  0  0
 33 31  1  0  0  0  0
 33 30  1  0  0  0  0
M  END
>  <MODEL>
9

>  <REMARK>
 VINA RESULT:      -7.5      3.887      7.353
  Name = 
  3 active torsions:
  status: ('A' for Active; 'I' for Inactive)
    1  A    between atoms: C_17  and  O_28
    2  A    between atoms: O_28  and  C_29
    3  A    between atoms: C_29  and  N_32
                            x       y       z     vdW  Elec       q    Type
                         _______ _______ _______ _____ _____    ______ ____

>  <TORSDO>
F 3

$$$$
