=
 OpenBabel11112416283D

 32 38  0  0  1  0  0  0  0  0999 V2000
  188.5710  175.3200  143.1770 C   0  0  0  0  0  0  0  0  0  0  0  0
  192.2830  175.4150  146.5250 C   0  0  0  0  0  3  0  0  0  0  0  0
  191.5920  176.2890  147.2680 C   0  0  0  0  0  3  0  0  0  0  0  0
  186.7140  176.9940  143.4790 C   0  0  0  0  0  0  0  0  0  0  0  0
  186.2630  178.1910  144.2680 C   0  0  1  0  0  3  0  0  0  0  0  0
  189.0900  174.3250  140.9430 C   0  0  0  0  0  2  0  0  0  0  0  0
  190.6770  174.0670  142.6450 C   0  0  0  0  0  2  0  0  0  0  0  0
  185.5970  178.6610  146.6080 C   0  0  1  0  0  3  0  0  0  0  0  0
  191.5680  174.5640  145.5150 C   0  0  0  0  0  2  0  0  0  0  0  0
  189.7490  174.5550  143.7610 C   0  0  1  0  0  3  0  0  0  0  0  0
  190.5550  175.4140  144.7410 C   0  0  1  0  0  3  0  0  0  0  0  0
  188.4690  176.6380  145.2610 C   0  0  0  0  0  0  0  0  0  0  0  0
  184.4000  178.9090  145.6940 C   0  0  1  0  0  3  0  0  0  0  0  0
  189.9190  173.3410  141.6320 N   0  0  2  0  0  0  0  0  0  0  0  0
  184.7570  178.3770  144.2990 C   0  0  0  0  0  2  0  0  0  0  0  0
  190.0990  176.4230  147.1160 C   0  0  0  0  0  2  0  0  0  0  0  0
  189.6550  176.1820  145.6900 C   0  0  0  0  0  0  0  0  0  0  0  0
  187.6300  177.4010  146.1430 N   0  0  0  0  0  0  0  0  0  0  0  0
  187.9920  174.8180  141.8780 C   0  0  0  0  0  2  0  0  0  0  0  0
  186.0900  176.6720  142.4320 O   0  0  0  0  0  0  0  0  0  0  0  0
  184.3770  177.7660  146.6900 C   0  0  0  0  0  2  0  0  0  0  0  0
  187.9510  176.2790  143.9090 C   0  0  0  0  0  0  0  0  0  0  0  0
  186.6120  178.0770  145.7050 C   0  0  0  0  0  0  0  0  0  0  0  0
  191.0930  171.3210  140.7840 C   0  0  2  0  0  3  0  0  0  0  0  0
  190.8830  172.8340  140.6590 C   0  0  1  0  0  3  0  0  0  0  0  0
  190.1970  171.8810  139.6970 C   0  0  1  0  0  3  0  0  0  0  0  0
  190.9100  171.8780  138.4430 N   0  0  0  0  0  0  0  0  0  0  0  0
  190.7210  170.9900  137.5290 C   0  0  0  0  0  0  0  0  0  0  0  0
  189.7380  169.8720  137.6950 C   0  0  0  0  0  1  0  0  0  0  0  0
  191.5030  171.0710  136.2650 C   0  0  0  0  0  1  0  0  0  0  0  0
  190.3020  170.7580  141.7890 O   0  0  0  0  0  0  0  0  0  0  0  0
  190.7600  169.4460  141.9040 C   0  0  0  0  0  1  0  0  0  0  0  0
  1 10  1  0  0  0  0
  1 22  2  0  0  0  0
  2  3  2  0  0  0  0
  4 22  1  0  0  0  0
  4  5  1  0  0  0  0
  5 15  1  1  0  0  0
  5 23  1  0  0  0  0
  6 19  1  0  0  0  0
  8 21  1  1  0  0  0
  9  2  1  0  0  0  0
 10  7  1  6  0  0  0
 10 11  1  0  0  0  0
 11  9  1  1  0  0  0
 11 17  1  0  0  0  0
 12 17  2  0  0  0  0
 12 18  1  0  0  0  0
 13 15  1  6  0  0  0
 13  8  1  0  0  0  0
 13 21  1  0  0  0  0
 14  6  1  6  0  0  0
 14  7  1  0  0  0  0
 16  3  1  0  0  0  0
 17 16  1  0  0  0  0
 19  1  1  0  0  0  0
 20  4  2  0  0  0  0
 22 12  1  0  0  0  0
 23 18  2  0  0  0  0
 23  8  1  0  0  0  0
 24 31  1  1  0  0  0
 25 24  1  0  0  0  0
 25 14  1  1  0  0  0
 26 27  1  6  0  0  0
 26 25  1  0  0  0  0
 26 24  1  0  0  0  0
 28 29  1  0  0  0  0
 28 27  2  0  0  0  0
 30 28  1  0  0  0  0
 31 32  1  0  0  0  0
M  END
>  <MODEL>
1

>  <REMARK>
 VINA RESULT:      -8.7      0.000      0.000
  Name = 
  3 active torsions:
  status: ('A' for Active; 'I' for Inactive)
    1  A    between atoms: C_1  and  O_16
    2  A    between atoms: C_10  and  N_17
    3  A    between atoms: C_20  and  N_29
                            x       y       z     vdW  Elec       q    Type
                         _______ _______ _______ _____ _____    ______ ____

>  <TORSDO>
F 3

$$$$
=
 OpenBabel11112416283D

 32 38  0  0  1  0  0  0  0  0999 V2000
  188.8310  175.6920  143.2240 C   0  0  0  0  0  0  0  0  0  0  0  0
  192.3130  175.5910  146.8100 C   0  0  0  0  0  3  0  0  0  0  0  0
  191.5600  176.4000  147.5660 C   0  0  0  0  0  3  0  0  0  0  0  0
  186.9290  177.3160  143.5200 C   0  0  0  0  0  0  0  0  0  0  0  0
  186.4070  178.4470  144.3620 C   0  0  1  0  0  3  0  0  0  0  0  0
  189.5130  174.8690  140.9650 C   0  0  0  0  0  2  0  0  0  0  0  0
  190.9880  174.5080  142.7460 C   0  0  0  0  0  2  0  0  0  0  0  0
  185.5810  178.7380  146.6790 C   0  0  1  0  0  3  0  0  0  0  0  0
  191.6810  174.8070  145.6970 C   0  0  0  0  0  2  0  0  0  0  0  0
  189.9810  174.9020  143.8300 C   0  0  1  0  0  3  0  0  0  0  0  0
  190.7060  175.6980  144.9190 C   0  0  1  0  0  3  0  0  0  0  0  0
  188.5700  176.8550  145.3860 C   0  0  0  0  0  0  0  0  0  0  0  0
  184.4420  179.0360  145.7080 C   0  0  1  0  0  3  0  0  0  0  0  0
  190.3120  173.8470  141.6350 N   0  0  2  0  0  0  0  0  0  0  0  0
  184.8990  178.6120  144.3050 C   0  0  0  0  0  2  0  0  0  0  0  0
  190.0780  176.5260  147.3250 C   0  0  0  0  0  2  0  0  0  0  0  0
  189.7330  176.3840  145.8590 C   0  0  0  0  0  0  0  0  0  0  0  0
  187.6610  177.5410  146.2620 N   0  0  0  0  0  0  0  0  0  0  0  0
  188.3470  175.2790  141.8570 C   0  0  0  0  0  2  0  0  0  0  0  0
  186.3800  177.0630  142.4140 O   0  0  0  0  0  0  0  0  0  0  0  0
  184.3740  177.8240  146.6160 C   0  0  0  0  0  2  0  0  0  0  0  0
  188.1480  176.5880  143.9800 C   0  0  0  0  0  0  0  0  0  0  0  0
  186.6630  178.2340  145.8070 C   0  0  0  0  0  0  0  0  0  0  0  0
  190.9330  172.1820  139.8970 C   0  0  2  0  0  3  0  0  0  0  0  0
  191.3460  173.4250  140.6950 C   0  0  1  0  0  3  0  0  0  0  0  0
  190.8390  173.5580  139.2700 C   0  0  1  0  0  3  0  0  0  0  0  0
  191.9590  173.7580  138.3840 N   0  0  0  0  0  0  0  0  0  0  0  0
  191.8250  174.0320  137.1320 C   0  0  0  0  0  0  0  0  0  0  0  0
  190.4810  174.1660  136.4850 C   0  0  0  0  0  1  0  0  0  0  0  0
  193.0420  174.2210  136.2960 C   0  0  0  0  0  1  0  0  0  0  0  0
  189.6510  171.7390  140.2340 O   0  0  0  0  0  0  0  0  0  0  0  0
  188.9660  171.6900  139.0200 C   0  0  0  0  0  1  0  0  0  0  0  0
  1 10  1  0  0  0  0
  1 22  2  0  0  0  0
  2  3  2  0  0  0  0
  4 22  1  0  0  0  0
  4  5  1  0  0  0  0
  5 15  1  1  0  0  0
  5 23  1  0  0  0  0
  6 19  1  0  0  0  0
  8 21  1  1  0  0  0
  9  2  1  0  0  0  0
 10  7  1  6  0  0  0
 10 11  1  0  0  0  0
 11  9  1  1  0  0  0
 11 17  1  0  0  0  0
 12 17  2  0  0  0  0
 12 18  1  0  0  0  0
 13 15  1  6  0  0  0
 13 21  1  0  0  0  0
 13  8  1  0  0  0  0
 14  6  1  6  0  0  0
 14  7  1  0  0  0  0
 16  3  1  0  0  0  0
 17 16  1  0  0  0  0
 19  1  1  0  0  0  0
 20  4  2  0  0  0  0
 22 12  1  0  0  0  0
 23 18  2  0  0  0  0
 23  8  1  0  0  0  0
 24 31  1  1  0  0  0
 24 25  1  0  0  0  0
 25 14  1  1  0  0  0
 26 27  1  6  0  0  0
 26 24  1  0  0  0  0
 26 25  1  0  0  0  0
 28 27  2  0  0  0  0
 29 28  1  0  0  0  0
 30 28  1  0  0  0  0
 32 31  1  0  0  0  0
M  END
>  <MODEL>
2

>  <REMARK>
 VINA RESULT:      -7.7      1.252      1.554
  Name = 
  3 active torsions:
  status: ('A' for Active; 'I' for Inactive)
    1  A    between atoms: C_1  and  O_16
    2  A    between atoms: C_10  and  N_17
    3  A    between atoms: C_20  and  N_29
                            x       y       z     vdW  Elec       q    Type
                         _______ _______ _______ _____ _____    ______ ____

>  <TORSDO>
F 3

$$$$
=
 OpenBabel11112416283D

 32 38  0  0  1  0  0  0  0  0999 V2000
  187.5490  176.7460  143.6220 C   0  0  0  0  0  0  0  0  0  0  0  0
  186.3160  178.0950  148.2750 C   0  0  0  0  0  3  0  0  0  0  0  0
  185.1960  178.6660  147.8140 C   0  0  0  0  0  3  0  0  0  0  0  0
  186.1350  177.6630  141.7510 C   0  0  0  0  0  0  0  0  0  0  0  0
  185.0260  178.6210  141.4130 C   0  0  1  0  0  3  0  0  0  0  0  0
  189.9100  176.0170  143.2460 C   0  0  0  0  0  2  0  0  0  0  0  0
  189.2010  176.3110  145.4570 C   0  0  0  0  0  2  0  0  0  0  0  0
  182.6000  178.8060  141.8770 C   0  0  1  0  0  3  0  0  0  0  0  0
  187.0210  177.0580  147.4490 C   0  0  0  0  0  2  0  0  0  0  0  0
  187.7170  176.4330  145.1020 C   0  0  1  0  0  3  0  0  0  0  0  0
  187.0780  177.5100  145.9850 C   0  0  1  0  0  3  0  0  0  0  0  0
  185.4510  177.9250  144.1690 C   0  0  0  0  0  0  0  0  0  0  0  0
  182.8030  178.6290  140.3750 C   0  0  1  0  0  3  0  0  0  0  0  0
  189.8670  175.3760  144.5560 N   0  0  2  0  0  0  0  0  0  0  0  0
  184.2760  178.2700  140.1400 C   0  0  0  0  0  2  0  0  0  0  0  0
  184.6210  178.2720  146.4790 C   0  0  0  0  0  2  0  0  0  0  0  0
  185.7020  177.9060  145.4870 C   0  0  0  0  0  0  0  0  0  0  0  0
  184.1610  178.3380  143.6880 N   0  0  0  0  0  0  0  0  0  0  0  0
  188.5050  176.0860  142.6600 C   0  0  0  0  0  2  0  0  0  0  0  0
  186.8190  177.1550  140.8220 O   0  0  0  0  0  0  0  0  0  0  0  0
  182.1310  177.5410  141.1880 C   0  0  0  0  0  2  0  0  0  0  0  0
  186.4550  177.4210  143.1880 C   0  0  0  0  0  0  0  0  0  0  0  0
  183.9550  178.6210  142.4380 C   0  0  0  0  0  0  0  0  0  0  0  0
  191.7260  173.7910  145.0120 C   0  0  2  0  0  3  0  0  0  0  0  0
  191.2460  175.2470  145.0180 C   0  0  1  0  0  3  0  0  0  0  0  0
  192.1240  174.7310  143.8920 C   0  0  1  0  0  3  0  0  0  0  0  0
  193.4790  175.1790  144.1030 N   0  0  0  0  0  0  0  0  0  0  0  0
  194.2190  175.6490  143.1590 C   0  0  0  0  0  0  0  0  0  0  0  0
  193.7310  175.7680  141.7480 C   0  0  0  0  0  1  0  0  0  0  0  0
  195.6060  176.0880  143.4740 C   0  0  0  0  0  1  0  0  0  0  0  0
  190.7440  172.9110  144.5500 O   0  0  0  0  0  0  0  0  0  0  0  0
  191.4390  171.7460  144.2270 C   0  0  0  0  0  1  0  0  0  0  0  0
  1 10  1  0  0  0  0
  3  2  2  0  0  0  0
  4 22  1  0  0  0  0
  5 15  1  6  0  0  0
  5  4  1  0  0  0  0
  5 23  1  0  0  0  0
  8 21  1  1  0  0  0
  8 23  1  0  0  0  0
  9  2  1  0  0  0  0
 10  7  1  1  0  0  0
 10 11  1  0  0  0  0
 11  9  1  1  0  0  0
 12 17  2  0  0  0  0
 13 15  1  1  0  0  0
 13 21  1  0  0  0  0
 13  8  1  0  0  0  0
 14  6  1  6  0  0  0
 14  7  1  0  0  0  0
 16  3  1  0  0  0  0
 17 11  1  0  0  0  0
 17 16  1  0  0  0  0
 18 12  1  0  0  0  0
 19  6  1  0  0  0  0
 19  1  1  0  0  0  0
 20  4  2  0  0  0  0
 22  1  2  0  0  0  0
 22 12  1  0  0  0  0
 23 18  2  0  0  0  0
 24 31  1  6  0  0  0
 24 25  1  0  0  0  0
 25 14  1  6  0  0  0
 26 27  1  1  0  0  0
 26 24  1  0  0  0  0
 26 25  1  0  0  0  0
 28 30  1  0  0  0  0
 28 27  2  0  0  0  0
 29 28  1  0  0  0  0
 32 31  1  0  0  0  0
M  END
>  <MODEL>
3

>  <REMARK>
 VINA RESULT:      -7.5      3.253      5.030
  Name = 
  3 active torsions:
  status: ('A' for Active; 'I' for Inactive)
    1  A    between atoms: C_1  and  O_16
    2  A    between atoms: C_10  and  N_17
    3  A    between atoms: C_20  and  N_29
                            x       y       z     vdW  Elec       q    Type
                         _______ _______ _______ _____ _____    ______ ____

>  <TORSDO>
F 3

$$$$
=
 OpenBabel11112416283D

 32 38  0  0  1  0  0  0  0  0999 V2000
  190.9900  175.6260  144.5900 C   0  0  0  0  0  0  0  0  0  0  0  0
  189.6070  173.3540  140.3580 C   0  0  0  0  0  3  0  0  0  0  0  0
  188.3360  173.7170  140.5760 C   0  0  0  0  0  3  0  0  0  0  0  0
  189.1520  176.4730  146.0890 C   0  0  0  0  0  0  0  0  0  0  0  0
  187.6650  176.4940  146.3070 C   0  0  1  0  0  3  0  0  0  0  0  0
  193.2570  175.0680  145.4820 C   0  0  0  0  0  2  0  0  0  0  0  0
  192.7160  174.3100  143.3340 C   0  0  0  0  0  2  0  0  0  0  0  0
  185.6880  177.4520  145.1630 C   0  0  1  0  0  3  0  0  0  0  0  0
  190.7220  174.0890  141.0430 C   0  0  0  0  0  2  0  0  0  0  0  0
  191.4440  175.1550  143.2170 C   0  0  1  0  0  3  0  0  0  0  0  0
  190.3610  174.3310  142.5130 C   0  0  1  0  0  3  0  0  0  0  0  0
  188.6680  175.6410  143.7520 C   0  0  0  0  0  0  0  0  0  0  0  0
  185.8220  178.0970  146.5390 C   0  0  1  0  0  3  0  0  0  0  0  0
  193.7320  175.0220  144.1030 N   0  0  2  0  0  0  0  0  0  0  0  0
  187.1790  177.6790  147.1230 C   0  0  0  0  0  2  0  0  0  0  0  0
  188.0080  174.8670  141.4930 C   0  0  0  0  0  2  0  0  0  0  0  0
  188.9940  174.9750  142.6350 C   0  0  0  0  0  0  0  0  0  0  0  0
  187.3600  176.2190  143.8910 N   0  0  0  0  0  0  0  0  0  0  0  0
  192.0600  176.0050  145.5830 C   0  0  0  0  0  2  0  0  0  0  0  0
  189.9180  176.8720  147.0070 O   0  0  0  0  0  0  0  0  0  0  0  0
  186.0340  178.9220  145.2850 C   0  0  0  0  0  2  0  0  0  0  0  0
  189.6790  175.8870  144.8220 C   0  0  0  0  0  0  0  0  0  0  0  0
  186.9150  176.6370  145.0360 C   0  0  0  0  0  0  0  0  0  0  0  0
  196.2180  175.0340  144.0790 C   0  0  2  0  0  3  0  0  0  0  0  0
  194.9350  174.1940  144.0890 C   0  0  1  0  0  3  0  0  0  0  0  0
  195.7260  174.4070  145.3680 C   0  0  1  0  0  3  0  0  0  0  0  0
  196.5000  173.2230  145.6490 N   0  0  0  0  0  0  0  0  0  0  0  0
  195.9730  172.0570  145.8000 C   0  0  0  0  0  0  0  0  0  0  0  0
  194.4970  171.8300  145.6950 C   0  0  0  0  0  1  0  0  0  0  0  0
  196.8560  170.8930  146.0870 C   0  0  0  0  0  1  0  0  0  0  0  0
  195.9530  176.4050  144.1020 O   0  0  0  0  0  0  0  0  0  0  0  0
  196.9350  176.9670  143.2870 C   0  0  0  0  0  1  0  0  0  0  0  0
  1 22  2  0  0  0  0
  1 19  1  0  0  0  0
  2  3  2  0  0  0  0
  2  9  1  0  0  0  0
  3 16  1  0  0  0  0
  4  5  1  0  0  0  0
  4 20  2  0  0  0  0
  5 15  1  1  0  0  0
  6 19  1  0  0  0  0
  8 21  1  6  0  0  0
  8 13  1  0  0  0  0
 10  7  1  1  0  0  0
 10  1  1  0  0  0  0
 11  9  1  6  0  0  0
 11 17  1  0  0  0  0
 11 10  1  0  0  0  0
 12 18  1  0  0  0  0
 12 22  1  0  0  0  0
 13 21  1  6  0  0  0
 13 15  1  0  0  0  0
 14  7  1  6  0  0  0
 14  6  1  0  0  0  0
 16 17  1  0  0  0  0
 17 12  2  0  0  0  0
 18 23  2  0  0  0  0
 22  4  1  0  0  0  0
 23  8  1  0  0  0  0
 23  5  1  0  0  0  0
 24 25  1  0  0  0  0
 24 31  1  1  0  0  0
 24 26  1  0  0  0  0
 25 14  1  1  0  0  0
 25 26  1  0  0  0  0
 26 27  1  6  0  0  0
 27 28  2  0  0  0  0
 28 30  1  0  0  0  0
 29 28  1  0  0  0  0
 32 31  1  0  0  0  0
M  END
>  <MODEL>
4

>  <REMARK>
 VINA RESULT:      -7.5      3.485      5.898
  Name = 
  3 active torsions:
  status: ('A' for Active; 'I' for Inactive)
    1  A    between atoms: C_1  and  O_16
    2  A    between atoms: C_10  and  N_17
    3  A    between atoms: C_20  and  N_29
                            x       y       z     vdW  Elec       q    Type
                         _______ _______ _______ _____ _____    ______ ____

>  <TORSDO>
F 3

$$$$
=
 OpenBabel11112416283D

 32 38  0  0  1  0  0  0  0  0999 V2000
  190.9480  175.4110  142.9930 C   0  0  0  0  0  0  0  0  0  0  0  0
  189.8530  172.4210  139.1400 C   0  0  0  0  0  3  0  0  0  0  0  0
  188.5710  172.8050  139.2050 C   0  0  0  0  0  3  0  0  0  0  0  0
  189.0140  176.4890  144.1930 C   0  0  0  0  0  0  0  0  0  0  0  0
  187.5150  176.5330  144.3030 C   0  0  1  0  0  3  0  0  0  0  0  0
  193.1480  175.0410  144.1210 C   0  0  0  0  0  2  0  0  0  0  0  0
  192.7530  173.9140  142.1070 C   0  0  0  0  0  2  0  0  0  0  0  0
  185.6220  177.2560  142.8780 C   0  0  1  0  0  3  0  0  0  0  0  0
  190.9200  173.2760  139.7600 C   0  0  0  0  0  2  0  0  0  0  0  0
  191.4940  174.7120  141.7580 C   0  0  1  0  0  3  0  0  0  0  0  0
  190.4600  173.7680  141.1370 C   0  0  1  0  0  3  0  0  0  0  0  0
  188.6890  175.2560  142.0110 C   0  0  0  0  0  0  0  0  0  0  0  0
  185.6640  178.1330  144.1260 C   0  0  1  0  0  3  0  0  0  0  0  0
  193.7160  174.7580  142.8070 N   0  0  2  0  0  0  0  0  0  0  0  0
  186.9760  177.8370  144.8640 C   0  0  0  0  0  2  0  0  0  0  0  0
  188.1830  174.0930  139.8820 C   0  0  0  0  0  2  0  0  0  0  0  0
  189.0890  174.4090  141.0510 C   0  0  0  0  0  0  0  0  0  0  0  0
  187.3760  175.8370  141.9580 N   0  0  0  0  0  0  0  0  0  0  0  0
  191.9480  175.9690  143.9750 C   0  0  0  0  0  2  0  0  0  0  0  0
  189.7160  177.0490  145.0770 O   0  0  0  0  0  0  0  0  0  0  0  0
  185.9620  178.7290  142.7640 C   0  0  0  0  0  2  0  0  0  0  0  0
  189.6250  175.6960  143.0870 C   0  0  0  0  0  0  0  0  0  0  0  0
  186.8540  176.4440  142.9790 C   0  0  0  0  0  0  0  0  0  0  0  0
  196.1960  174.7930  142.9600 C   0  0  2  0  0  3  0  0  0  0  0  0
  194.9150  173.9530  143.0190 C   0  0  1  0  0  3  0  0  0  0  0  0
  195.6100  174.3860  144.2970 C   0  0  1  0  0  3  0  0  0  0  0  0
  196.3610  173.2750  144.8300 N   0  0  0  0  0  0  0  0  0  0  0  0
  195.8120  172.2900  145.4530 C   0  0  0  0  0  0  0  0  0  0  0  0
  194.3330  172.2160  145.6820 C   0  0  0  0  0  1  0  0  0  0  0  0
  196.6700  171.1870  145.9660 C   0  0  0  0  0  1  0  0  0  0  0  0
  195.9320  176.1460  142.7330 O   0  0  0  0  0  0  0  0  0  0  0  0
  197.0800  176.8070  143.1700 C   0  0  0  0  0  1  0  0  0  0  0  0
  1 22  2  0  0  0  0
  1 19  1  0  0  0  0
  2  3  2  0  0  0  0
  2  9  1  0  0  0  0
  3 16  1  0  0  0  0
  4  5  1  0  0  0  0
  4 20  2  0  0  0  0
  5 15  1  6  0  0  0
  8 21  1  6  0  0  0
  8 23  1  0  0  0  0
  8 13  1  0  0  0  0
 10  7  1  1  0  0  0
 10  1  1  0  0  0  0
 11  9  1  6  0  0  0
 11 10  1  0  0  0  0
 12 22  1  0  0  0  0
 13 21  1  6  0  0  0
 13 15  1  0  0  0  0
 14  7  1  6  0  0  0
 14  6  1  0  0  0  0
 16 17  1  0  0  0  0
 17 11  1  0  0  0  0
 17 12  2  0  0  0  0
 18 12  1  0  0  0  0
 18 23  2  0  0  0  0
 19  6  1  0  0  0  0
 22  4  1  0  0  0  0
 23  5  1  0  0  0  0
 24 31  1  1  0  0  0
 24 25  1  0  0  0  0
 24 26  1  0  0  0  0
 25 14  1  1  0  0  0
 25 26  1  0  0  0  0
 26 27  1  6  0  0  0
 27 28  2  0  0  0  0
 28 29  1  0  0  0  0
 28 30  1  0  0  0  0
 31 32  1  0  0  0  0
M  END
>  <MODEL>
5

>  <REMARK>
 VINA RESULT:      -7.2      3.408      6.002
  Name = 
  3 active torsions:
  status: ('A' for Active; 'I' for Inactive)
    1  A    between atoms: C_1  and  O_16
    2  A    between atoms: C_10  and  N_17
    3  A    between atoms: C_20  and  N_29
                            x       y       z     vdW  Elec       q    Type
                         _______ _______ _______ _____ _____    ______ ____

>  <TORSDO>
F 3

$$$$
=
 OpenBabel11112416283D

 32 38  0  0  1  0  0  0  0  0999 V2000
  189.5510  174.8370  142.8510 C   0  0  0  0  0  0  0  0  0  0  0  0
  193.2980  177.1740  145.1940 C   0  0  0  0  0  3  0  0  0  0  0  0
  194.0450  176.0660  145.1070 C   0  0  0  0  0  3  0  0  0  0  0  0
  189.8130  172.3640  142.4550 C   0  0  0  0  0  0  0  0  0  0  0  0
  190.6690  171.1630  142.7470 C   0  0  1  0  0  3  0  0  0  0  0  0
  187.2990  175.9160  142.9670 C   0  0  0  0  0  2  0  0  0  0  0  0
  189.1360  177.1460  143.7370 C   0  0  0  0  0  2  0  0  0  0  0  0
  192.9510  170.3930  142.1700 C   0  0  1  0  0  3  0  0  0  0  0  0
  192.1270  177.3590  144.2730 C   0  0  0  0  0  2  0  0  0  0  0  0
  190.1830  176.1850  143.1670 C   0  0  1  0  0  3  0  0  0  0  0  0
  191.3350  176.0510  144.1660 C   0  0  1  0  0  3  0  0  0  0  0  0
  191.7390  173.7770  143.2790 C   0  0  0  0  0  0  0  0  0  0  0  0
  191.9370  169.4270  141.5640 C   0  0  1  0  0  3  0  0  0  0  0  0
  187.9690  177.2080  142.8630 N   0  0  2  0  0  0  0  0  0  0  0  0
  190.5440  170.0530  141.7180 C   0  0  0  0  0  2  0  0  0  0  0  0
  193.7360  175.0040  144.0850 C   0  0  0  0  0  2  0  0  0  0  0  0
  192.2510  174.8920  143.8210 C   0  0  0  0  0  0  0  0  0  0  0  0
  192.5940  172.6600  142.9860 N   0  0  0  0  0  0  0  0  0  0  0  0
  188.1470  174.8400  142.2990 C   0  0  0  0  0  2  0  0  0  0  0  0
  188.6720  172.2020  141.9440 O   0  0  0  0  0  0  0  0  0  0  0  0
  192.7950  170.2970  140.6660 C   0  0  0  0  0  2  0  0  0  0  0  0
  190.3050  173.7090  142.8730 C   0  0  0  0  0  0  0  0  0  0  0  0
  192.1150  171.4860  142.7120 C   0  0  0  0  0  0  0  0  0  0  0  0
  186.0880  178.7600  142.3830 C   0  0  2  0  0  3  0  0  0  0  0  0
  187.0670  178.2080  143.4260 C   0  0  1  0  0  3  0  0  0  0  0  0
  185.6360  177.7040  143.3720 C   0  0  1  0  0  3  0  0  0  0  0  0
  184.8720  178.3300  144.4230 N   0  0  0  0  0  0  0  0  0  0  0  0
  184.8950  177.9250  145.6460 C   0  0  0  0  0  0  0  0  0  0  0  0
  185.7240  176.7580  146.0830 C   0  0  0  0  0  1  0  0  0  0  0  0
  184.0720  178.6370  146.6620 C   0  0  0  0  0  1  0  0  0  0  0  0
  186.2650  178.1720  141.1280 O   0  0  0  0  0  0  0  0  0  0  0  0
  185.0140  178.2620  140.5180 C   0  0  0  0  0  1  0  0  0  0  0  0
  1 22  2  0  0  0  0
  1 10  1  0  0  0  0
  3  2  2  0  0  0  0
  4  5  1  0  0  0  0
  4 22  1  0  0  0  0
  5 15  1  6  0  0  0
  8 21  1  6  0  0  0
  8 23  1  0  0  0  0
  9  2  1  0  0  0  0
 10  7  1  1  0  0  0
 10 11  1  0  0  0  0
 11  9  1  6  0  0  0
 12 17  2  0  0  0  0
 13 21  1  6  0  0  0
 13 15  1  0  0  0  0
 13  8  1  0  0  0  0
 14  6  1  1  0  0  0
 14  7  1  0  0  0  0
 16  3  1  0  0  0  0
 17 16  1  0  0  0  0
 17 11  1  0  0  0  0
 18 12  1  0  0  0  0
 19  1  1  0  0  0  0
 19  6  1  0  0  0  0
 20  4  2  0  0  0  0
 22 12  1  0  0  0  0
 23  5  1  0  0  0  0
 23 18  2  0  0  0  0
 24 31  1  6  0  0  0
 24 26  1  0  0  0  0
 24 25  1  0  0  0  0
 25 14  1  6  0  0  0
 26 25  1  0  0  0  0
 26 27  1  1  0  0  0
 27 28  2  0  0  0  0
 28 29  1  0  0  0  0
 28 30  1  0  0  0  0
 32 31  1  0  0  0  0
M  END
>  <MODEL>
6

>  <REMARK>
 VINA RESULT:      -7.1      2.353      7.903
  Name = 
  3 active torsions:
  status: ('A' for Active; 'I' for Inactive)
    1  A    between atoms: C_1  and  O_16
    2  A    between atoms: C_10  and  N_17
    3  A    between atoms: C_20  and  N_29
                            x       y       z     vdW  Elec       q    Type
                         _______ _______ _______ _____ _____    ______ ____

>  <TORSDO>
F 3

$$$$
=
 OpenBabel11112416283D

 32 38  0  0  1  0  0  0  0  0999 V2000
  190.5530  174.7470  142.9800 C   0  0  0  0  0  0  0  0  0  0  0  0
  194.7420  175.7300  145.5240 C   0  0  0  0  0  3  0  0  0  0  0  0
  194.0440  176.4800  146.3860 C   0  0  0  0  0  3  0  0  0  0  0  0
  188.4860  176.0260  143.6380 C   0  0  0  0  0  0  0  0  0  0  0  0
  187.9610  177.1430  144.4970 C   0  0  1  0  0  3  0  0  0  0  0  0
  190.8220  173.7780  140.6910 C   0  0  0  0  0  2  0  0  0  0  0  0
  192.7270  173.9180  142.0450 C   0  0  0  0  0  2  0  0  0  0  0  0
  187.6780  177.5730  146.9200 C   0  0  1  0  0  3  0  0  0  0  0  0
  194.0350  174.7090  144.6790 C   0  0  0  0  0  2  0  0  0  0  0  0
  191.9530  174.2590  143.3210 C   0  0  1  0  0  3  0  0  0  0  0  0
  192.7390  175.3050  144.1180 C   0  0  1  0  0  3  0  0  0  0  0  0
  190.5880  176.1080  145.0380 C   0  0  0  0  0  0  0  0  0  0  0  0
  186.3020  177.5350  146.2610 C   0  0  1  0  0  3  0  0  0  0  0  0
  191.9520  173.0110  141.2050 N   0  0  2  0  0  0  0  0  0  0  0  0
  186.4840  177.0250  144.8250 C   0  0  0  0  0  2  0  0  0  0  0  0
  192.5550  176.3050  146.5330 C   0  0  0  0  0  2  0  0  0  0  0  0
  191.9020  175.9180  145.2250 C   0  0  0  0  0  0  0  0  0  0  0  0
  189.7970  176.7260  146.0660 N   0  0  0  0  0  0  0  0  0  0  0  0
  189.8490  174.0820  141.8230 C   0  0  0  0  0  2  0  0  0  0  0  0
  187.7500  175.5400  142.7370 O   0  0  0  0  0  0  0  0  0  0  0  0
  186.7070  176.4560  147.2460 C   0  0  0  0  0  2  0  0  0  0  0  0
  189.9030  175.5940  143.8170 C   0  0  0  0  0  0  0  0  0  0  0  0
  188.5970  177.1640  145.8360 C   0  0  0  0  0  0  0  0  0  0  0  0
  192.8060  171.1570  139.7870 C   0  0  2  0  0  3  0  0  0  0  0  0
  192.7930  172.6650  140.0620 C   0  0  1  0  0  3  0  0  0  0  0  0
  191.9420  172.0790  138.9510 C   0  0  1  0  0  3  0  0  0  0  0  0
  192.5860  172.3180  137.6820 N   0  0  0  0  0  0  0  0  0  0  0  0
  192.0640  173.0450  136.7550 C   0  0  0  0  0  0  0  0  0  0  0  0
  190.7310  173.7070  136.9160 C   0  0  0  0  0  1  0  0  0  0  0  0
  192.8060  173.2350  135.4780 C   0  0  0  0  0  1  0  0  0  0  0  0
  191.9970  170.4480  140.6790 O   0  0  0  0  0  0  0  0  0  0  0  0
  192.1000  169.1200  140.2680 C   0  0  0  0  0  1  0  0  0  0  0  0
  1 10  1  0  0  0  0
  1 22  2  0  0  0  0
  2  3  2  0  0  0  0
  3 16  1  0  0  0  0
  4 22  1  0  0  0  0
  4  5  1  0  0  0  0
  5 15  1  1  0  0  0
  5 23  1  0  0  0  0
  6 19  1  0  0  0  0
  8 21  1  1  0  0  0
  9  2  1  0  0  0  0
 10  7  1  6  0  0  0
 10 11  1  0  0  0  0
 11  9  1  1  0  0  0
 11 17  1  0  0  0  0
 12 17  2  0  0  0  0
 12 18  1  0  0  0  0
 13 15  1  6  0  0  0
 13  8  1  0  0  0  0
 13 21  1  0  0  0  0
 14  6  1  6  0  0  0
 14  7  1  0  0  0  0
 17 16  1  0  0  0  0
 19  1  1  0  0  0  0
 20  4  2  0  0  0  0
 22 12  1  0  0  0  0
 23 18  2  0  0  0  0
 23  8  1  0  0  0  0
 24 25  1  0  0  0  0
 24 31  1  1  0  0  0
 25 14  1  1  0  0  0
 26 27  1  6  0  0  0
 26 24  1  0  0  0  0
 26 25  1  0  0  0  0
 28 29  1  0  0  0  0
 28 27  2  0  0  0  0
 30 28  1  0  0  0  0
 32 31  1  0  0  0  0
M  END
>  <MODEL>
7

>  <REMARK>
 VINA RESULT:      -6.9      1.816      2.323
  Name = 
  3 active torsions:
  status: ('A' for Active; 'I' for Inactive)
    1  A    between atoms: C_1  and  O_16
    2  A    between atoms: C_10  and  N_17
    3  A    between atoms: C_20  and  N_29
                            x       y       z     vdW  Elec       q    Type
                         _______ _______ _______ _____ _____    ______ ____

>  <TORSDO>
F 3

$$$$
=
 OpenBabel11112416283D

 32 38  0  0  1  0  0  0  0  0999 V2000
  190.2480  175.4210  143.5480 C   0  0  0  0  0  0  0  0  0  0  0  0
  191.5660  176.8280  148.1610 C   0  0  0  0  0  3  0  0  0  0  0  0
  190.5500  177.7010  148.1860 C   0  0  0  0  0  3  0  0  0  0  0  0
  188.4570  176.7740  142.4060 C   0  0  0  0  0  0  0  0  0  0  0  0
  187.6060  178.0090  142.5080 C   0  0  1  0  0  3  0  0  0  0  0  0
  191.9260  174.1030  142.2470 C   0  0  0  0  0  2  0  0  0  0  0  0
  192.3550  174.4710  144.5190 C   0  0  0  0  0  2  0  0  0  0  0  0
  185.7670  178.8170  143.9580 C   0  0  1  0  0  3  0  0  0  0  0  0
  191.5410  175.6810  147.1920 C   0  0  0  0  0  2  0  0  0  0  0  0
  190.9550  175.0050  144.8300 C   0  0  1  0  0  3  0  0  0  0  0  0
  191.0720  176.1700  145.8170 C   0  0  1  0  0  3  0  0  0  0  0  0
  188.9890  177.0930  144.8560 C   0  0  0  0  0  0  0  0  0  0  0  0
  185.2420  178.6650  142.5330 C   0  0  1  0  0  3  0  0  0  0  0  0
  192.2920  173.4350  143.4920 N   0  0  2  0  0  0  0  0  0  0  0  0
  186.3140  177.9340  141.7140 C   0  0  0  0  0  2  0  0  0  0  0  0
  189.3710  177.5410  147.2630 C   0  0  0  0  0  2  0  0  0  0  0  0
  189.7740  176.9450  145.9330 C   0  0  0  0  0  0  0  0  0  0  0  0
  187.7770  177.8610  144.9480 N   0  0  0  0  0  0  0  0  0  0  0  0
  190.4790  174.5760  142.3210 C   0  0  0  0  0  2  0  0  0  0  0  0
  188.5070  176.1450  141.3150 O   0  0  0  0  0  0  0  0  0  0  0  0
  184.7310  177.7590  143.6370 C   0  0  0  0  0  2  0  0  0  0  0  0
  189.2950  176.3860  143.5780 C   0  0  0  0  0  0  0  0  0  0  0  0
  187.1300  178.2480  143.8920 C   0  0  0  0  0  0  0  0  0  0  0  0
  193.7360  171.4170  143.6190 C   0  0  2  0  0  3  0  0  0  0  0  0
  193.6460  172.9180  143.3220 C   0  0  1  0  0  3  0  0  0  0  0  0
  193.6780  171.9110  142.1880 C   0  0  1  0  0  3  0  0  0  0  0  0
  195.0030  171.8790  141.6180 N   0  0  0  0  0  0  0  0  0  0  0  0
  195.2360  171.5310  140.3990 C   0  0  0  0  0  0  0  0  0  0  0  0
  194.1410  171.1230  139.4630 C   0  0  0  0  0  1  0  0  0  0  0  0
  196.6390  171.5310  139.9000 C   0  0  0  0  0  1  0  0  0  0  0  0
  192.4980  170.8720  143.9700 O   0  0  0  0  0  0  0  0  0  0  0  0
  192.6900  169.4920  143.9020 C   0  0  0  0  0  1  0  0  0  0  0  0
  1 22  2  0  0  0  0
  1 10  1  0  0  0  0
  2  3  2  0  0  0  0
  4  5  1  0  0  0  0
  4 22  1  0  0  0  0
  5 15  1  6  0  0  0
  5 23  1  0  0  0  0
  6 19  1  0  0  0  0
  8 21  1  1  0  0  0
  9  2  1  0  0  0  0
 10  7  1  6  0  0  0
 10 11  1  0  0  0  0
 11 17  1  0  0  0  0
 11  9  1  1  0  0  0
 12 18  1  0  0  0  0
 12 17  2  0  0  0  0
 13 15  1  6  0  0  0
 13 21  1  0  0  0  0
 13  8  1  0  0  0  0
 14  6  1  6  0  0  0
 14  7  1  0  0  0  0
 16  3  1  0  0  0  0
 17 16  1  0  0  0  0
 19  1  1  0  0  0  0
 20  4  2  0  0  0  0
 22 12  1  0  0  0  0
 23  8  1  0  0  0  0
 23 18  2  0  0  0  0
 24 31  1  1  0  0  0
 25 14  1  1  0  0  0
 25 24  1  0  0  0  0
 26 27  1  6  0  0  0
 26 25  1  0  0  0  0
 26 24  1  0  0  0  0
 28 27  2  0  0  0  0
 29 28  1  0  0  0  0
 30 28  1  0  0  0  0
 32 31  1  0  0  0  0
M  END
>  <MODEL>
8

>  <REMARK>
 VINA RESULT:      -6.7      2.470      3.068
  Name = 
  3 active torsions:
  status: ('A' for Active; 'I' for Inactive)
    1  A    between atoms: C_1  and  O_16
    2  A    between atoms: C_10  and  N_17
    3  A    between atoms: C_20  and  N_29
                            x       y       z     vdW  Elec       q    Type
                         _______ _______ _______ _____ _____    ______ ____

>  <TORSDO>
F 3

$$$$
=
 OpenBabel11112416283D

 32 38  0  0  1  0  0  0  0  0999 V2000
  189.5580  173.4370  141.0370 C   0  0  0  0  0  0  0  0  0  0  0  0
  192.7040  171.2800  144.2690 C   0  0  0  0  0  3  0  0  0  0  0  0
  193.0720  170.4020  143.3270 C   0  0  0  0  0  3  0  0  0  0  0  0
  189.2090  172.2750  138.8300 C   0  0  0  0  0  0  0  0  0  0  0  0
  189.5070  171.0290  138.0440 C   0  0  1  0  0  3  0  0  0  0  0  0
  187.8410  174.9820  141.9920 C   0  0  0  0  0  2  0  0  0  0  0  0
  189.5460  174.2370  143.4130 C   0  0  0  0  0  2  0  0  0  0  0  0
  191.5100  169.9590  137.0530 C   0  0  1  0  0  3  0  0  0  0  0  0
  192.0580  172.5760  143.8710 C   0  0  0  0  0  2  0  0  0  0  0  0
  190.3970  173.6380  142.2900 C   0  0  1  0  0  3  0  0  0  0  0  0
  191.0130  172.3230  142.7770 C   0  0  1  0  0  3  0  0  0  0  0  0
  191.0260  171.5480  140.4280 C   0  0  0  0  0  0  0  0  0  0  0  0
  190.5500  170.3450  135.9310 C   0  0  1  0  0  3  0  0  0  0  0  0
  188.8500  175.4310  142.9460 N   0  0  2  0  0  0  0  0  0  0  0  0
  189.4460  171.2200  136.5390 C   0  0  0  0  0  2  0  0  0  0  0  0
  192.8590  170.7010  141.8660 C   0  0  0  0  0  2  0  0  0  0  0  0
  191.6090  171.5210  141.6360 C   0  0  0  0  0  0  0  0  0  0  0  0
  191.5610  170.7600  139.3530 N   0  0  0  0  0  0  0  0  0  0  0  0
  188.5190  174.4830  140.7210 C   0  0  0  0  0  2  0  0  0  0  0  0
  188.3390  173.0820  138.4050 O   0  0  0  0  0  0  0  0  0  0  0  0
  191.8900  171.0410  136.0630 C   0  0  0  0  0  2  0  0  0  0  0  0
  189.8860  172.4680  140.1450 C   0  0  0  0  0  0  0  0  0  0  0  0
  190.8940  170.5500  138.2600 C   0  0  0  0  0  0  0  0  0  0  0  0
  188.5660  177.4300  144.3950 C   0  0  2  0  0  3  0  0  0  0  0  0
  188.1400  175.9890  144.0930 C   0  0  1  0  0  3  0  0  0  0  0  0
  187.2750  177.1540  143.6510 C   0  0  1  0  0  3  0  0  0  0  0  0
  186.1620  177.2910  144.5590 N   0  0  0  0  0  0  0  0  0  0  0  0
  185.4200  178.3430  144.6090 C   0  0  0  0  0  0  0  0  0  0  0  0
  185.6540  179.5260  143.7220 C   0  0  0  0  0  1  0  0  0  0  0  0
  184.2920  178.3900  145.5800 C   0  0  0  0  0  1  0  0  0  0  0  0
  189.5260  177.8980  143.4940 O   0  0  0  0  0  0  0  0  0  0  0  0
  190.6310  178.2080  144.2870 C   0  0  0  0  0  1  0  0  0  0  0  0
  1 10  1  0  0  0  0
  3  2  2  0  0  0  0
  4 22  1  0  0  0  0
  5 15  1  6  0  0  0
  5 23  1  0  0  0  0
  5  4  1  0  0  0  0
  8 21  1  6  0  0  0
  8 23  1  0  0  0  0
  9  2  1  0  0  0  0
 10 11  1  0  0  0  0
 10  7  1  1  0  0  0
 11  9  1  1  0  0  0
 12 17  2  0  0  0  0
 13 21  1  6  0  0  0
 13 15  1  0  0  0  0
 13  8  1  0  0  0  0
 14  6  1  6  0  0  0
 14  7  1  0  0  0  0
 16  3  1  0  0  0  0
 17 16  1  0  0  0  0
 17 11  1  0  0  0  0
 18 12  1  0  0  0  0
 19  1  1  0  0  0  0
 19  6  1  0  0  0  0
 20  4  2  0  0  0  0
 22 12  1  0  0  0  0
 22  1  2  0  0  0  0
 23 18  2  0  0  0  0
 24 31  1  6  0  0  0
 25 14  1  6  0  0  0
 25 24  1  0  0  0  0
 26 25  1  0  0  0  0
 26 24  1  0  0  0  0
 26 27  1  1  0  0  0
 27 28  2  0  0  0  0
 28 30  1  0  0  0  0
 29 28  1  0  0  0  0
 31 32  1  0  0  0  0
M  END
>  <MODEL>
9

>  <REMARK>
 VINA RESULT:      -6.6      1.997      8.537
  Name = 
  3 active torsions:
  status: ('A' for Active; 'I' for Inactive)
    1  A    between atoms: C_1  and  O_16
    2  A    between atoms: C_10  and  N_17
    3  A    between atoms: C_20  and  N_29
                            x       y       z     vdW  Elec       q    Type
                         _______ _______ _______ _____ _____    ______ ____

>  <TORSDO>
F 3

$$$$
