=
 OpenBabel11112417163D

 37 43  0  0  1  0  0  0  0  0999 V2000
  192.9390  175.0230  143.7360 C   0  0  0  0  0  2  0  0  0  0  0  0
  191.4840  170.7220  141.6720 C   0  0  1  0  0  0  0  0  0  0  0  0
  189.4960  174.3950  142.3020 C   0  0  1  0  0  3  0  0  0  0  0  0
  194.4210  175.2030  144.0710 C   0  0  2  0  0  3  0  0  0  0  0  0
  190.3110  176.4910  145.4620 C   0  0  0  0  0  2  0  0  0  0  0  0
  189.6450  172.2890  140.8660 C   0  0  1  0  0  3  0  0  0  0  0  0
  189.7290  174.6680  143.7760 C   0  0  2  0  0  3  0  0  0  0  0  0
  193.9450  175.9840  146.5090 C   0  0  2  0  0  3  0  0  0  0  0  0
  189.7500  172.9390  142.2510 C   0  0  1  0  0  3  0  0  0  0  0  0
  190.0690  176.1600  143.9940 C   0  0  1  0  0  3  0  0  0  0  0  0
  189.0670  173.2170  139.8120 C   0  0  0  0  0  3  0  0  0  0  0  0
  194.7680  175.0920  145.5610 C   0  0  0  0  0  2  0  0  0  0  0  0
  191.0470  172.8270  142.8610 N   0  0  2  0  0  0  0  0  0  0  0  0
  192.9590  170.4680  141.4430 C   0  0  0  0  0  1  0  0  0  0  0  0
  187.7310  176.1380  141.7760 C   0  0  0  0  0  2  0  0  0  0  0  0
  188.3620  174.3190  140.1640 C   0  0  0  0  0  3  0  0  0  0  0  0
  191.3090  171.4080  143.0530 C   0  0  0  0  0  2  0  0  0  0  0  0
  192.4740  175.8050  146.4740 N   0  0  1  0  0  0  0  0  0  0  0  0
  191.7820  176.8190  145.6600 C   0  0  0  0  0  2  0  0  0  0  0  0
  188.1720  174.6850  141.6220 C   0  0  1  0  0  3  0  0  0  0  0  0
  190.8390  173.5870  144.0980 C   0  0  1  0  0  3  0  0  0  0  0  0
  190.9460  171.5750  140.4890 C   0  0  0  0  0  2  0  0  0  0  0  0
  189.0200  177.1380  143.4110 C   0  0  1  0  0  3  0  0  0  0  0  0
  190.8160  169.4990  141.6910 O   0  0  0  0  0  1  0  0  0  0  0  0
  192.0930  174.4170  146.1470 C   0  0  0  0  0  2  0  0  0  0  0  0
  194.4110  177.4380  146.5130 C   0  0  0  0  0  1  0  0  0  0  0  0
  192.1950  174.0420  144.6550 C   0  0  2  0  0  3  0  0  0  0  0  0
  188.8110  177.0140  142.0130 O   0  0  0  0  0  0  0  0  0  0  0  0
  187.4020  176.5270  145.2350 C   0  0  0  0  0  3  0  0  0  0  0  0
  187.7930  177.4380  144.2470 C   0  0  0  0  0  0  0  0  0  0  0  0
  187.0610  178.6210  144.0650 C   0  0  0  0  0  3  0  0  0  0  0  0
  185.2370  180.0260  144.6790 F   0  0  0  0  0  0  0  0  0  0  0  0
  185.5510  177.9680  145.8410 C   0  0  0  0  0  3  0  0  0  0  0  0
  185.9420  178.8840  144.8590 C   0  0  0  0  0  0  0  0  0  0  0  0
  186.2810  176.7910  146.0300 C   0  0  0  0  0  3  0  0  0  0  0  0
  196.2680  176.2810  143.5000 C   0  0  0  0  0  1  0  0  0  0  0  0
  194.8790  176.4160  143.5530 O   0  0  0  0  0  0  0  0  0  0  0  0
  1  4  1  0  0  0  0
  1 27  1  0  0  0  0
  2 14  1  6  0  0  0
  2 24  1  0  0  0  0
  2 17  1  0  0  0  0
  3  7  1  0  0  0  0
  4 12  1  0  0  0  0
  5 19  1  0  0  0  0
  6  9  1  0  0  0  0
  7 10  1  0  0  0  0
  7 21  1  0  0  0  0
  8 26  1  0  0  0  0
  9  3  1  0  0  0  0
  9 13  1  0  0  0  0
 10  5  1  0  0  0  0
 11 16  2  0  0  0  0
 11  6  1  0  0  0  0
 12  8  1  0  0  0  0
 13 17  1  0  0  0  0
 13 21  1  0  0  0  0
 15 28  1  0  0  0  0
 16 20  1  0  0  0  0
 18  8  1  0  0  0  0
 19 18  1  0  0  0  0
 20 15  1  0  0  0  0
 20  3  1  0  0  0  0
 21 27  1  0  0  0  0
 22  6  1  0  0  0  0
 22  2  1  0  0  0  0
 23 10  1  0  0  0  0
 23 30  1  0  0  0  0
 25 18  1  0  0  0  0
 27 25  1  0  0  0  0
 28 23  1  0  0  0  0
 29 35  1  0  0  0  0
 30 29  2  0  0  0  0
 31 30  1  0  0  0  0
 31 34  2  0  0  0  0
 32 34  1  0  0  0  0
 33 35  2  0  0  0  0
 34 33  1  0  0  0  0
 36 37  1  0  0  0  0
 37  4  1  0  0  0  0
M  END
>  <MODEL>
1

>  <REMARK>
 VINA RESULT:      -9.4      0.000      0.000
  Name = 
  2 active torsions:
  status: ('A' for Active; 'I' for Inactive)
    1  A    between atoms: C_4  and  O_37
    2  A    between atoms: C_23  and  C_30
                            x       y       z     vdW  Elec       q    Type
                         _______ _______ _______ _____ _____    ______ ____

>  <TORSDO>
F 2

$$$$
=
 OpenBabel11112417163D

 37 43  0  0  1  0  0  0  0  0999 V2000
  192.9920  174.9600  143.7410 C   0  0  0  0  0  2  0  0  0  0  0  0
  191.4290  170.6390  141.8020 C   0  0  1  0  0  0  0  0  0  0  0  0
  189.5110  174.3550  142.3930 C   0  0  1  0  0  3  0  0  0  0  0  0
  194.4840  175.1240  144.0420 C   0  0  2  0  0  3  0  0  0  0  0  0
  190.4240  176.5050  145.4880 C   0  0  0  0  0  2  0  0  0  0  0  0
  189.5980  172.2170  141.0000 C   0  0  1  0  0  3  0  0  0  0  0  0
  189.7780  174.6560  143.8550 C   0  0  2  0  0  3  0  0  0  0  0  0
  194.0710  175.9650  146.4710 C   0  0  2  0  0  3  0  0  0  0  0  0
  189.7420  172.8940  142.3690 C   0  0  1  0  0  3  0  0  0  0  0  0
  190.1460  176.1470  144.0330 C   0  0  1  0  0  3  0  0  0  0  0  0
  189.0120  173.1300  139.9380 C   0  0  0  0  0  3  0  0  0  0  0  0
  194.8600  175.0390  145.5260 C   0  0  0  0  0  2  0  0  0  0  0  0
  191.0500  172.7750  142.9530 N   0  0  2  0  0  0  0  0  0  0  0  0
  192.8950  170.3560  141.5480 C   0  0  0  0  0  1  0  0  0  0  0  0
  187.7620  176.1140  141.8650 C   0  0  0  0  0  2  0  0  0  0  0  0
  188.3310  174.2510  140.2800 C   0  0  0  0  0  3  0  0  0  0  0  0
  191.2930  171.3560  143.1720 C   0  0  0  0  0  2  0  0  0  0  0  0
  192.5960  175.8080  146.4700 N   0  0  1  0  0  0  0  0  0  0  0  0
  191.9030  176.8150  145.6480 C   0  0  0  0  0  2  0  0  0  0  0  0
  188.1770  174.6510  141.7340 C   0  0  1  0  0  3  0  0  0  0  0  0
  190.8790  173.5650  144.1770 C   0  0  1  0  0  3  0  0  0  0  0  0
  190.8800  171.4740  140.6120 C   0  0  0  0  0  2  0  0  0  0  0  0
  189.1000  177.1280  143.4500 C   0  0  1  0  0  3  0  0  0  0  0  0
  190.7430  169.4270  141.8620 O   0  0  0  0  0  1  0  0  0  0  0  0
  192.1880  174.4190  146.1820 C   0  0  0  0  0  2  0  0  0  0  0  0
  194.5590  177.4110  146.4330 C   0  0  0  0  0  1  0  0  0  0  0  0
  192.2530  174.0100  144.6960 C   0  0  2  0  0  3  0  0  0  0  0  0
  188.8600  176.9770  142.0600 O   0  0  0  0  0  0  0  0  0  0  0  0
  187.0720  178.5340  143.9320 C   0  0  0  0  0  3  0  0  0  0  0  0
  187.8960  177.4660  144.3050 C   0  0  0  0  0  0  0  0  0  0  0  0
  187.5790  176.7110  145.4450 C   0  0  0  0  0  3  0  0  0  0  0  0
  186.1540  176.3020  147.3100 F   0  0  0  0  0  0  0  0  0  0  0  0
  185.6380  178.1030  145.8360 C   0  0  0  0  0  3  0  0  0  0  0  0
  186.4540  177.0310  146.2090 C   0  0  0  0  0  0  0  0  0  0  0  0
  185.9460  178.8540  144.6970 C   0  0  0  0  0  3  0  0  0  0  0  0
  196.3340  176.1580  143.4060 C   0  0  0  0  0  1  0  0  0  0  0  0
  194.9500  176.3170  143.4880 O   0  0  0  0  0  0  0  0  0  0  0  0
  1  4  1  0  0  0  0
  1 27  1  0  0  0  0
  2 14  1  6  0  0  0
  2 24  1  0  0  0  0
  2 17  1  0  0  0  0
  3  7  1  0  0  0  0
  4 12  1  0  0  0  0
  5 19  1  0  0  0  0
  6  9  1  0  0  0  0
  7 10  1  0  0  0  0
  7 21  1  0  0  0  0
  9  3  1  0  0  0  0
  9 13  1  0  0  0  0
 10  5  1  0  0  0  0
 11 16  2  0  0  0  0
 11  6  1  0  0  0  0
 12  8  1  0  0  0  0
 13 17  1  0  0  0  0
 13 21  1  0  0  0  0
 15 28  1  0  0  0  0
 16 20  1  0  0  0  0
 18  8  1  0  0  0  0
 19 18  1  0  0  0  0
 20 15  1  0  0  0  0
 20  3  1  0  0  0  0
 21 27  1  0  0  0  0
 22  6  1  0  0  0  0
 22  2  1  0  0  0  0
 23 10  1  0  0  0  0
 23 30  1  0  0  0  0
 25 18  1  0  0  0  0
 26  8  1  0  0  0  0
 27 25  1  0  0  0  0
 28 23  1  0  0  0  0
 29 30  2  0  0  0  0
 29 35  1  0  0  0  0
 30 31  1  0  0  0  0
 31 34  2  0  0  0  0
 33 34  1  0  0  0  0
 34 32  1  0  0  0  0
 35 33  2  0  0  0  0
 36 37  1  0  0  0  0
 37  4  1  0  0  0  0
M  END
>  <MODEL>
2

>  <REMARK>
 VINA RESULT:      -9.2      0.779      1.109
  Name = 
  2 active torsions:
  status: ('A' for Active; 'I' for Inactive)
    1  A    between atoms: C_4  and  O_37
    2  A    between atoms: C_23  and  C_30
                            x       y       z     vdW  Elec       q    Type
                         _______ _______ _______ _____ _____    ______ ____

>  <TORSDO>
F 2

$$$$
=
 OpenBabel11112417163D

 37 43  0  0  1  0  0  0  0  0999 V2000
  190.3420  173.6890  143.1430 C   0  0  0  0  0  2  0  0  0  0  0  0
  194.3940  176.0000  144.9080 C   0  0  1  0  0  0  0  0  0  0  0  0
  190.2680  176.5250  145.6430 C   0  0  1  0  0  3  0  0  0  0  0  0
  190.5350  172.4190  142.3100 C   0  0  2  0  0  3  0  0  0  0  0  0
  187.7270  175.9370  142.7740 C   0  0  0  0  0  2  0  0  0  0  0  0
  192.6320  176.7770  146.5750 C   0  0  1  0  0  3  0  0  0  0  0  0
  189.6800  176.6490  144.2510 C   0  0  2  0  0  3  0  0  0  0  0  0
  189.0000  173.2530  140.3800 C   0  0  2  0  0  3  0  0  0  0  0  0
  191.6870  176.8430  145.3690 C   0  0  1  0  0  3  0  0  0  0  0  0
  188.3630  175.8450  144.1560 C   0  0  1  0  0  3  0  0  0  0  0  0
  191.9050  176.6200  147.8990 C   0  0  0  0  0  3  0  0  0  0  0  0
  190.3270  172.5950  140.8020 C   0  0  0  0  0  2  0  0  0  0  0  0
  192.0130  175.9280  144.3100 N   0  0  2  0  0  0  0  0  0  0  0  0
  195.1380  174.7370  144.5270 C   0  0  0  0  0  1  0  0  0  0  0  0
  188.2910  177.2520  147.0540 C   0  0  0  0  0  2  0  0  0  0  0  0
  190.5880  176.9200  148.0110 C   0  0  0  0  0  3  0  0  0  0  0  0
  193.3320  176.2970  143.8160 C   0  0  0  0  0  2  0  0  0  0  0  0
  188.7260  174.6010  140.9340 N   0  0  1  0  0  0  0  0  0  0  0  0
  187.8190  174.5810  142.0940 C   0  0  0  0  0  2  0  0  0  0  0  0
  189.7910  177.3750  146.8050 C   0  0  1  0  0  3  0  0  0  0  0  0
  190.9130  176.1830  143.3740 C   0  0  1  0  0  3  0  0  0  0  0  0
  193.7830  175.7990  146.3230 C   0  0  0  0  0  2  0  0  0  0  0  0
  187.3160  176.2200  145.2320 C   0  0  1  0  0  3  0  0  0  0  0  0
  195.3000  177.0580  144.9500 O   0  0  0  0  0  1  0  0  0  0  0  0
  189.9670  175.3680  141.1600 C   0  0  0  0  0  2  0  0  0  0  0  0
  187.8160  172.2910  140.4280 C   0  0  0  0  0  1  0  0  0  0  0  0
  190.7550  174.9850  142.4290 C   0  0  2  0  0  3  0  0  0  0  0  0
  187.7550  176.0410  146.5700 O   0  0  0  0  0  0  0  0  0  0  0  0
  186.8000  178.3310  143.9680 C   0  0  0  0  0  3  0  0  0  0  0  0
  186.4370  177.4260  144.9720 C   0  0  0  0  0  0  0  0  0  0  0  0
  185.2570  177.6370  145.7020 C   0  0  0  0  0  3  0  0  0  0  0  0
  183.3170  178.9490  146.1420 F   0  0  0  0  0  0  0  0  0  0  0  0
  184.8230  179.6520  144.4330 C   0  0  0  0  0  3  0  0  0  0  0  0
  184.4540  178.7480  145.4340 C   0  0  0  0  0  0  0  0  0  0  0  0
  185.9950  179.4430  143.7000 C   0  0  0  0  0  3  0  0  0  0  0  0
  189.3170  171.8410  144.0650 C   0  0  0  0  0  1  0  0  0  0  0  0
  189.7140  171.4020  142.8010 O   0  0  0  0  0  0  0  0  0  0  0  0
  2 14  1  6  0  0  0
  2 24  1  0  0  0  0
  2 22  1  0  0  0  0
  3 20  1  0  0  0  0
  4 37  1  0  0  0  0
  4  1  1  0  0  0  0
  5 10  1  0  0  0  0
  6 11  1  0  0  0  0
  7  3  1  0  0  0  0
  8 26  1  0  0  0  0
  8 12  1  0  0  0  0
  8 18  1  0  0  0  0
  9  3  1  0  0  0  0
  9  6  1  0  0  0  0
 10  7  1  0  0  0  0
 10 23  1  0  0  0  0
 11 16  2  0  0  0  0
 12  4  1  0  0  0  0
 13  9  1  0  0  0  0
 17 13  1  0  0  0  0
 17  2  1  0  0  0  0
 18 25  1  0  0  0  0
 18 19  1  0  0  0  0
 19  5  1  0  0  0  0
 20 15  1  0  0  0  0
 20 16  1  0  0  0  0
 21  7  1  0  0  0  0
 21 13  1  0  0  0  0
 22  6  1  0  0  0  0
 23 28  1  0  0  0  0
 25 27  1  0  0  0  0
 27  1  1  0  0  0  0
 27 21  1  0  0  0  0
 28 15  1  0  0  0  0
 29 30  1  0  0  0  0
 30 23  1  0  0  0  0
 30 31  2  0  0  0  0
 33 34  2  0  0  0  0
 34 31  1  0  0  0  0
 34 32  1  0  0  0  0
 35 29  2  0  0  0  0
 35 33  1  0  0  0  0
 37 36  1  0  0  0  0
M  END
>  <MODEL>
3

>  <REMARK>
 VINA RESULT:      -9.0      1.752      5.691
  Name = 
  2 active torsions:
  status: ('A' for Active; 'I' for Inactive)
    1  A    between atoms: C_4  and  O_37
    2  A    between atoms: C_23  and  C_30
                            x       y       z     vdW  Elec       q    Type
                         _______ _______ _______ _____ _____    ______ ____

>  <TORSDO>
F 2

$$$$
=
 OpenBabel11112417163D

 37 43  0  0  1  0  0  0  0  0999 V2000
  191.5120  175.4530  143.2120 C   0  0  0  0  0  2  0  0  0  0  0  0
  189.6970  172.4890  139.6350 C   0  0  1  0  0  0  0  0  0  0  0  0
  188.0980  175.8490  141.6340 C   0  0  1  0  0  3  0  0  0  0  0  0
  192.9870  175.3090  143.5960 C   0  0  2  0  0  3  0  0  0  0  0  0
  188.9800  176.4520  145.3620 C   0  0  0  0  0  2  0  0  0  0  0  0
  188.0850  174.4570  139.4930 C   0  0  1  0  0  3  0  0  0  0  0  0
  188.2850  175.5040  143.0980 C   0  0  2  0  0  3  0  0  0  0  0  0
  192.4780  175.1440  146.1430 C   0  0  2  0  0  3  0  0  0  0  0  0
  188.1920  174.5050  141.0230 C   0  0  1  0  0  3  0  0  0  0  0  0
  188.7760  176.7430  143.8800 C   0  0  1  0  0  3  0  0  0  0  0  0
  187.6670  175.7820  138.8800 C   0  0  0  0  0  3  0  0  0  0  0  0
  193.2430  174.5920  144.9270 C   0  0  0  0  0  2  0  0  0  0  0  0
  189.4360  174.0110  141.5460 N   0  0  2  0  0  0  0  0  0  0  0  0
  191.1440  172.1650  139.3300 C   0  0  0  0  0  1  0  0  0  0  0  0
  186.5660  177.8610  141.8190 C   0  0  0  0  0  2  0  0  0  0  0  0
  187.0720  176.7410  139.6290 C   0  0  0  0  0  3  0  0  0  0  0  0
  189.5290  172.6060  141.1730 C   0  0  0  0  0  2  0  0  0  0  0  0
  190.9990  175.1720  146.0360 N   0  0  1  0  0  0  0  0  0  0  0  0
  190.4650  176.4970  145.6770 C   0  0  0  0  0  2  0  0  0  0  0  0
  186.8500  176.5370  141.1150 C   0  0  1  0  0  3  0  0  0  0  0  0
  189.2510  174.2550  142.9800 C   0  0  1  0  0  3  0  0  0  0  0  0
  189.3170  173.7900  138.8730 C   0  0  0  0  0  2  0  0  0  0  0  0
  187.8730  177.9900  143.7180 C   0  0  1  0  0  3  0  0  0  0  0  0
  188.8980  171.4440  139.1760 O   0  0  0  0  0  1  0  0  0  0  0  0
  190.4840  174.0740  145.1950 C   0  0  0  0  0  2  0  0  0  0  0  0
  193.1010  176.4160  146.7130 C   0  0  0  0  0  1  0  0  0  0  0  0
  190.6190  174.2920  143.6740 C   0  0  2  0  0  3  0  0  0  0  0  0
  187.7220  178.4400  142.3810 O   0  0  0  0  0  0  0  0  0  0  0  0
  185.9420  179.3000  144.6530 C   0  0  0  0  0  3  0  0  0  0  0  0
  186.6460  178.0920  144.6010 C   0  0  0  0  0  0  0  0  0  0  0  0
  186.1920  176.9920  145.3440 C   0  0  0  0  0  3  0  0  0  0  0  0
  184.6150  176.0410  146.8560 F   0  0  0  0  0  0  0  0  0  0  0  0
  184.3510  178.3150  146.1920 C   0  0  0  0  0  3  0  0  0  0  0  0
  185.0490  177.1050  146.1390 C   0  0  0  0  0  0  0  0  0  0  0  0
  184.7970  179.4120  145.4490 C   0  0  0  0  0  3  0  0  0  0  0  0
  194.9690  176.2900  143.5030 C   0  0  0  0  0  1  0  0  0  0  0  0
  193.6020  176.5620  143.5900 O   0  0  0  0  0  0  0  0  0  0  0  0
  1  4  1  0  0  0  0
  1 27  1  0  0  0  0
  2 14  1  6  0  0  0
  2 17  1  0  0  0  0
  3  7  1  0  0  0  0
  4 12  1  0  0  0  0
  5 19  1  0  0  0  0
  6  9  1  0  0  0  0
  7 10  1  0  0  0  0
  8 26  1  0  0  0  0
  9 13  1  0  0  0  0
  9  3  1  0  0  0  0
 10  5  1  0  0  0  0
 11  6  1  0  0  0  0
 11 16  2  0  0  0  0
 12  8  1  0  0  0  0
 13 21  1  0  0  0  0
 15 28  1  0  0  0  0
 16 20  1  0  0  0  0
 17 13  1  0  0  0  0
 18  8  1  0  0  0  0
 19 18  1  0  0  0  0
 20  3  1  0  0  0  0
 20 15  1  0  0  0  0
 21  7  1  0  0  0  0
 21 27  1  0  0  0  0
 22  6  1  0  0  0  0
 22  2  1  0  0  0  0
 23 10  1  0  0  0  0
 23 30  1  0  0  0  0
 24  2  1  0  0  0  0
 25 18  1  0  0  0  0
 27 25  1  0  0  0  0
 28 23  1  0  0  0  0
 29 35  1  0  0  0  0
 30 29  2  0  0  0  0
 30 31  1  0  0  0  0
 31 34  2  0  0  0  0
 34 33  1  0  0  0  0
 34 32  1  0  0  0  0
 35 33  2  0  0  0  0
 36 37  1  0  0  0  0
 37  4  1  0  0  0  0
M  END
>  <MODEL>
4

>  <REMARK>
 VINA RESULT:      -8.9      1.676      2.360
  Name = 
  2 active torsions:
  status: ('A' for Active; 'I' for Inactive)
    1  A    between atoms: C_4  and  O_37
    2  A    between atoms: C_23  and  C_30
                            x       y       z     vdW  Elec       q    Type
                         _______ _______ _______ _____ _____    ______ ____

>  <TORSDO>
F 2

$$$$
=
 OpenBabel11112417163D

 37 43  0  0  1  0  0  0  0  0999 V2000
  193.2650  175.1760  142.4640 C   0  0  0  0  0  2  0  0  0  0  0  0
  191.5370  171.1300  140.1150 C   0  0  1  0  0  0  0  0  0  0  0  0
  189.6170  174.5460  141.6930 C   0  0  1  0  0  3  0  0  0  0  0  0
  194.7790  175.3990  142.5100 C   0  0  2  0  0  3  0  0  0  0  0  0
  191.0230  176.2180  144.8970 C   0  0  0  0  0  2  0  0  0  0  0  0
  189.5210  172.6790  139.9540 C   0  0  1  0  0  3  0  0  0  0  0  0
  190.1500  174.6210  143.1110 C   0  0  2  0  0  3  0  0  0  0  0  0
  194.8100  175.7940  145.0820 C   0  0  2  0  0  3  0  0  0  0  0  0
  189.8990  173.1300  141.3700 C   0  0  1  0  0  3  0  0  0  0  0  0
  190.4830  176.0850  143.4780 C   0  0  1  0  0  3  0  0  0  0  0  0
  188.7030  173.7090  139.1950 C   0  0  0  0  0  3  0  0  0  0  0  0
  195.4390  175.0990  143.8610 C   0  0  0  0  0  2  0  0  0  0  0  0
  191.2990  173.0140  141.6740 N   0  0  2  0  0  0  0  0  0  0  0  0
  192.9360  171.0030  139.5510 C   0  0  0  0  0  1  0  0  0  0  0  0
  187.7280  176.2330  141.8130 C   0  0  0  0  0  2  0  0  0  0  0  0
  188.0560  174.7050  139.8480 C   0  0  0  0  0  3  0  0  0  0  0  0
  191.6390  171.6010  141.5910 C   0  0  0  0  0  2  0  0  0  0  0  0
  193.3710  175.5310  145.3250 N   0  0  1  0  0  0  0  0  0  0  0  0
  192.4910  176.6050  144.8350 C   0  0  0  0  0  2  0  0  0  0  0  0
  188.1700  174.8470  141.3530 C   0  0  1  0  0  3  0  0  0  0  0  0
  191.3360  173.5760  143.0280 C   0  0  1  0  0  3  0  0  0  0  0  0
  190.7330  172.1080  139.2120 C   0  0  0  0  0  2  0  0  0  0  0  0
  189.3050  177.0690  143.2790 C   0  0  1  0  0  3  0  0  0  0  0  0
  190.9270  169.8780  140.0860 O   0  0  0  0  0  1  0  0  0  0  0  0
  192.9730  174.1830  144.8770 C   0  0  0  0  0  2  0  0  0  0  0  0
  195.2220  177.2590  145.2110 C   0  0  0  0  0  1  0  0  0  0  0  0
  192.7650  174.0300  143.3560 C   0  0  2  0  0  3  0  0  0  0  0  0
  188.8060  177.1320  141.9520 O   0  0  0  0  0  0  0  0  0  0  0  0
  188.3000  176.2360  145.4280 C   0  0  0  0  0  3  0  0  0  0  0  0
  188.2760  177.1700  144.3870 C   0  0  0  0  0  0  0  0  0  0  0  0
  187.3190  178.1960  144.3980 C   0  0  0  0  0  3  0  0  0  0  0  0
  185.4660  179.2700  145.4430 F   0  0  0  0  0  0  0  0  0  0  0  0
  186.4140  177.3400  146.4730 C   0  0  0  0  0  3  0  0  0  0  0  0
  186.3890  178.2790  145.4380 C   0  0  0  0  0  0  0  0  0  0  0  0
  187.3700  176.3200  146.4690 C   0  0  0  0  0  3  0  0  0  0  0  0
  196.3200  176.5980  141.4670 C   0  0  0  0  0  1  0  0  0  0  0  0
  195.0790  176.6980  142.0990 O   0  0  0  0  0  0  0  0  0  0  0  0
  1  4  1  0  0  0  0
  1 27  1  0  0  0  0
  2 14  1  6  0  0  0
  2 17  1  0  0  0  0
  3  7  1  0  0  0  0
  4 12  1  0  0  0  0
  6  9  1  0  0  0  0
  7 10  1  0  0  0  0
  8 26  1  0  0  0  0
  8 18  1  0  0  0  0
  9 13  1  0  0  0  0
  9  3  1  0  0  0  0
 10  5  1  0  0  0  0
 11 16  2  0  0  0  0
 11  6  1  0  0  0  0
 12  8  1  0  0  0  0
 13 21  1  0  0  0  0
 15 28  1  0  0  0  0
 16 20  1  0  0  0  0
 17 13  1  0  0  0  0
 19  5  1  0  0  0  0
 19 18  1  0  0  0  0
 20  3  1  0  0  0  0
 20 15  1  0  0  0  0
 21  7  1  0  0  0  0
 21 27  1  0  0  0  0
 22  6  1  0  0  0  0
 22  2  1  0  0  0  0
 23 10  1  0  0  0  0
 23 30  1  0  0  0  0
 24  2  1  0  0  0  0
 25 18  1  0  0  0  0
 27 25  1  0  0  0  0
 28 23  1  0  0  0  0
 29 35  1  0  0  0  0
 30 31  1  0  0  0  0
 30 29  2  0  0  0  0
 31 34  2  0  0  0  0
 34 32  1  0  0  0  0
 34 33  1  0  0  0  0
 35 33  2  0  0  0  0
 36 37  1  0  0  0  0
 37  4  1  0  0  0  0
M  END
>  <MODEL>
5

>  <REMARK>
 VINA RESULT:      -8.3      1.092      1.230
  Name = 
  2 active torsions:
  status: ('A' for Active; 'I' for Inactive)
    1  A    between atoms: C_4  and  O_37
    2  A    between atoms: C_23  and  C_30
                            x       y       z     vdW  Elec       q    Type
                         _______ _______ _______ _____ _____    ______ ____

>  <TORSDO>
F 2

$$$$
=
 OpenBabel11112417163D

 37 43  0  0  1  0  0  0  0  0999 V2000
  192.5450  172.5050  142.0660 C   0  0  0  0  0  2  0  0  0  0  0  0
  196.3760  175.3060  143.6010 C   0  0  1  0  0  0  0  0  0  0  0  0
  192.1980  175.6780  144.0950 C   0  0  1  0  0  3  0  0  0  0  0  0
  192.8470  171.1380  141.4460 C   0  0  2  0  0  3  0  0  0  0  0  0
  189.8270  174.5030  141.2590 C   0  0  0  0  0  2  0  0  0  0  0  0
  194.4980  176.2150  145.0630 C   0  0  1  0  0  3  0  0  0  0  0  0
  191.6680  175.5520  142.6800 C   0  0  2  0  0  3  0  0  0  0  0  0
  191.3580  171.5720  139.3560 C   0  0  2  0  0  3  0  0  0  0  0  0
  193.6070  176.0390  143.8270 C   0  0  1  0  0  3  0  0  0  0  0  0
  190.4040  174.6620  142.6610 C   0  0  1  0  0  3  0  0  0  0  0  0
  193.7210  176.2160  146.3670 C   0  0  0  0  0  3  0  0  0  0  0  0
  192.6990  171.0700  139.9220 C   0  0  0  0  0  2  0  0  0  0  0  0
  194.0320  174.9950  142.9340 N   0  0  2  0  0  0  0  0  0  0  0  0
  197.2060  174.0490  143.4470 C   0  0  0  0  0  1  0  0  0  0  0  0
  190.1200  176.4840  145.3040 C   0  0  0  0  0  2  0  0  0  0  0  0
  192.3860  176.4470  146.3840 C   0  0  0  0  0  3  0  0  0  0  0  0
  195.3490  175.3670  142.4380 C   0  0  0  0  0  2  0  0  0  0  0  0
  190.9830  172.9690  139.6850 N   0  0  1  0  0  0  0  0  0  0  0  0
  190.0270  173.0690  140.8000 C   0  0  0  0  0  2  0  0  0  0  0  0
  191.6200  176.6620  145.0930 C   0  0  1  0  0  3  0  0  0  0  0  0
  192.9630  175.0370  141.9310 C   0  0  1  0  0  3  0  0  0  0  0  0
  195.7130  175.2840  145.0070 C   0  0  0  0  0  2  0  0  0  0  0  0
  189.2890  175.1290  143.6280 C   0  0  1  0  0  3  0  0  0  0  0  0
  197.2180  176.4130  143.5130 O   0  0  0  0  0  1  0  0  0  0  0  0
  192.1670  173.8380  139.8350 C   0  0  0  0  0  2  0  0  0  0  0  0
  190.2290  170.5560  139.5070 C   0  0  0  0  0  1  0  0  0  0  0  0
  192.9170  173.7010  141.1760 C   0  0  2  0  0  3  0  0  0  0  0  0
  189.6750  175.1830  144.9920 O   0  0  0  0  0  0  0  0  0  0  0  0
  188.8730  177.2770  142.3880 C   0  0  0  0  0  3  0  0  0  0  0  0
  188.3560  176.2250  143.1530 C   0  0  0  0  0  0  0  0  0  0  0  0
  186.9840  176.1890  143.4450 C   0  0  0  0  0  3  0  0  0  0  0  0
  184.8180  177.1650  143.2690 F   0  0  0  0  0  0  0  0  0  0  0  0
  186.6630  178.2540  142.2240 C   0  0  0  0  0  3  0  0  0  0  0  0
  186.1410  177.2030  142.9830 C   0  0  0  0  0  0  0  0  0  0  0  0
  188.0280  178.2910  141.9260 C   0  0  0  0  0  3  0  0  0  0  0  0
  191.5650  170.7660  143.2120 C   0  0  0  0  0  1  0  0  0  0  0  0
  192.0630  170.1580  142.0570 O   0  0  0  0  0  0  0  0  0  0  0  0
  2 14  1  6  0  0  0
  2 22  1  0  0  0  0
  3 20  1  0  0  0  0
  4 37  1  0  0  0  0
  4  1  1  0  0  0  0
  5 10  1  0  0  0  0
  6 11  1  0  0  0  0
  7  3  1  0  0  0  0
  8 26  1  0  0  0  0
  8 18  1  0  0  0  0
  8 12  1  0  0  0  0
  9  3  1  0  0  0  0
  9  6  1  0  0  0  0
 10  7  1  0  0  0  0
 10 23  1  0  0  0  0
 11 16  2  0  0  0  0
 12  4  1  0  0  0  0
 13  9  1  0  0  0  0
 17 13  1  0  0  0  0
 17  2  1  0  0  0  0
 18 25  1  0  0  0  0
 18 19  1  0  0  0  0
 19  5  1  0  0  0  0
 20 15  1  0  0  0  0
 20 16  1  0  0  0  0
 21  7  1  0  0  0  0
 21 13  1  0  0  0  0
 22  6  1  0  0  0  0
 23 28  1  0  0  0  0
 24  2  1  0  0  0  0
 25 27  1  0  0  0  0
 27 21  1  0  0  0  0
 27  1  1  0  0  0  0
 28 15  1  0  0  0  0
 29 30  1  0  0  0  0
 30 31  2  0  0  0  0
 30 23  1  0  0  0  0
 33 34  2  0  0  0  0
 34 32  1  0  0  0  0
 34 31  1  0  0  0  0
 35 33  1  0  0  0  0
 35 29  2  0  0  0  0
 37 36  1  0  0  0  0
M  END
>  <MODEL>
6

>  <REMARK>
 VINA RESULT:      -8.1      1.874      5.737
  Name = 
  2 active torsions:
  status: ('A' for Active; 'I' for Inactive)
    1  A    between atoms: C_4  and  O_37
    2  A    between atoms: C_23  and  C_30
                            x       y       z     vdW  Elec       q    Type
                         _______ _______ _______ _____ _____    ______ ____

>  <TORSDO>
F 2

$$$$
=
 OpenBabel11112417163D

 37 43  0  0  1  0  0  0  0  0999 V2000
  191.5220  173.4720  141.8230 C   0  0  0  0  0  2  0  0  0  0  0  0
  189.5080  176.3240  145.3840 C   0  0  1  0  0  0  0  0  0  0  0  0
  193.1740  174.2420  145.1360 C   0  0  1  0  0  3  0  0  0  0  0  0
  190.8400  173.4290  140.4540 C   0  0  2  0  0  3  0  0  0  0  0  0
  193.3300  170.8680  143.2320 C   0  0  0  0  0  2  0  0  0  0  0  0
  191.9320  176.2230  146.1610 C   0  0  1  0  0  3  0  0  0  0  0  0
  192.7530  172.8400  144.7420 C   0  0  2  0  0  3  0  0  0  0  0  0
  190.8160  170.8280  140.3620 C   0  0  2  0  0  3  0  0  0  0  0  0
  191.9040  174.7660  145.6820 C   0  0  1  0  0  3  0  0  0  0  0  0
  193.7090  172.2790  143.6650 C   0  0  1  0  0  3  0  0  0  0  0  0
  193.3310  176.8120  146.2080 C   0  0  0  0  0  3  0  0  0  0  0  0
  190.0490  172.1480  140.1620 C   0  0  0  0  0  2  0  0  0  0  0  0
  190.9770  174.5120  144.6130 N   0  0  2  0  0  0  0  0  0  0  0  0
  188.6840  176.9320  144.2690 C   0  0  0  0  0  1  0  0  0  0  0  0
  195.6030  173.8460  145.7480 C   0  0  0  0  0  2  0  0  0  0  0  0
  194.4240  176.0120  146.2200 C   0  0  0  0  0  3  0  0  0  0  0  0
  189.6440  174.8000  145.1250 C   0  0  0  0  0  2  0  0  0  0  0  0
  191.3860  170.5920  141.7110 N   0  0  1  0  0  0  0  0  0  0  0  0
  192.8220  170.9080  141.8000 C   0  0  0  0  0  2  0  0  0  0  0  0
  194.2830  174.5050  146.1370 C   0  0  1  0  0  3  0  0  0  0  0  0
  191.2400  173.0940  144.3490 C   0  0  1  0  0  3  0  0  0  0  0  0
  190.8740  177.0640  145.4400 C   0  0  0  0  0  2  0  0  0  0  0  0
  195.2030  172.3120  144.0680 C   0  0  1  0  0  3  0  0  0  0  0  0
  188.8380  176.5150  146.5910 O   0  0  0  0  0  1  0  0  0  0  0  0
  190.5710  171.2160  142.7720 C   0  0  0  0  0  2  0  0  0  0  0  0
  191.7590  170.5040  139.2060 C   0  0  0  0  0  1  0  0  0  0  0  0
  190.7590  172.7380  142.9360 C   0  0  2  0  0  3  0  0  0  0  0  0
  195.7060  173.6060  144.3630 O   0  0  0  0  0  0  0  0  0  0  0  0
  197.0450  170.7440  144.7500 C   0  0  0  0  0  3  0  0  0  0  0  0
  195.7270  171.1790  144.9260 C   0  0  0  0  0  0  0  0  0  0  0  0
  194.9240  170.5790  145.9080 C   0  0  0  0  0  3  0  0  0  0  0  0
  194.6550  168.9690  147.6440 F   0  0  0  0  0  0  0  0  0  0  0  0
  196.7500  169.1110  146.5150 C   0  0  0  0  0  3  0  0  0  0  0  0
  195.4340  169.5460  146.6990 C   0  0  0  0  0  0  0  0  0  0  0  0
  197.5560  169.7100  145.5420 C   0  0  0  0  0  3  0  0  0  0  0  0
  192.9050  174.1490  140.1160 C   0  0  0  0  0  1  0  0  0  0  0  0
  191.7800  173.6610  139.4490 O   0  0  0  0  0  0  0  0  0  0  0  0
  1 27  1  0  0  0  0
  2 14  1  6  0  0  0
  2 22  1  0  0  0  0
  2 24  1  0  0  0  0
  3  9  1  0  0  0  0
  3 20  1  0  0  0  0
  4  1  1  0  0  0  0
  5 10  1  0  0  0  0
  6 11  1  0  0  0  0
  7  3  1  0  0  0  0
  8 18  1  0  0  0  0
  9  6  1  0  0  0  0
 10 23  1  0  0  0  0
 10  7  1  0  0  0  0
 11 16  2  0  0  0  0
 12  8  1  0  0  0  0
 12  4  1  0  0  0  0
 13 17  1  0  0  0  0
 13  9  1  0  0  0  0
 15 20  1  0  0  0  0
 17  2  1  0  0  0  0
 18 19  1  0  0  0  0
 18 25  1  0  0  0  0
 19  5  1  0  0  0  0
 20 16  1  0  0  0  0
 21 13  1  0  0  0  0
 21  7  1  0  0  0  0
 22  6  1  0  0  0  0
 23 28  1  0  0  0  0
 23 30  1  0  0  0  0
 25 27  1  0  0  0  0
 26  8  1  0  0  0  0
 27 21  1  0  0  0  0
 28 15  1  0  0  0  0
 29 30  2  0  0  0  0
 29 35  1  0  0  0  0
 30 31  1  0  0  0  0
 31 34  2  0  0  0  0
 33 34  1  0  0  0  0
 34 32  1  0  0  0  0
 35 33  2  0  0  0  0
 37 36  1  0  0  0  0
 37  4  1  0  0  0  0
M  END
>  <MODEL>
7

>  <REMARK>
 VINA RESULT:      -8.0      3.727      8.191
  Name = 
  2 active torsions:
  status: ('A' for Active; 'I' for Inactive)
    1  A    between atoms: C_4  and  O_37
    2  A    between atoms: C_23  and  C_30
                            x       y       z     vdW  Elec       q    Type
                         _______ _______ _______ _____ _____    ______ ____

>  <TORSDO>
F 2

$$$$
=
 OpenBabel11112417163D

 37 43  0  0  1  0  0  0  0  0999 V2000
  191.4190  175.2580  145.0260 C   0  0  0  0  0  2  0  0  0  0  0  0
  190.8560  171.0740  142.3710 C   0  0  1  0  0  0  0  0  0  0  0  0
  188.9340  174.8320  142.2070 C   0  0  1  0  0  3  0  0  0  0  0  0
  192.6100  175.3570  145.9830 C   0  0  2  0  0  3  0  0  0  0  0  0
  188.3600  176.8280  145.4820 C   0  0  0  0  0  2  0  0  0  0  0  0
  189.6190  172.7470  140.9020 C   0  0  1  0  0  3  0  0  0  0  0  0
  188.5070  175.0670  143.6430 C   0  0  2  0  0  3  0  0  0  0  0  0
  191.1430  176.1180  147.9940 C   0  0  2  0  0  3  0  0  0  0  0  0
  189.1300  173.3660  142.2170 C   0  0  1  0  0  3  0  0  0  0  0  0
  188.7730  176.5350  144.0450 C   0  0  1  0  0  3  0  0  0  0  0  0
  189.5970  173.7210  139.7370 C   0  0  0  0  0  3  0  0  0  0  0  0
  192.2630  175.2020  147.4680 C   0  0  0  0  0  2  0  0  0  0  0  0
  190.0230  173.1780  143.3280 N   0  0  2  0  0  0  0  0  0  0  0  0
  192.2710  170.7490  142.8010 C   0  0  0  0  0  1  0  0  0  0  0  0
  187.6480  176.6720  141.0280 C   0  0  0  0  0  2  0  0  0  0  0  0
  188.8520  174.8520  139.7860 C   0  0  0  0  0  3  0  0  0  0  0  0
  190.1190  171.7430  143.5610 C   0  0  0  0  0  2  0  0  0  0  0  0
  189.8300  176.0150  147.3110 N   0  0  1  0  0  0  0  0  0  0  0  0
  189.6050  177.0770  146.3160 C   0  0  0  0  0  2  0  0  0  0  0  0
  188.0550  175.2010  141.0280 C   0  0  1  0  0  3  0  0  0  0  0  0
  189.3210  173.9250  144.3770 C   0  0  1  0  0  3  0  0  0  0  0  0
  190.9250  171.9740  141.1050 C   0  0  0  0  0  2  0  0  0  0  0  0
  188.1260  177.5760  143.0990 C   0  0  1  0  0  3  0  0  0  0  0  0
  190.2020  169.8870  142.0490 O   0  0  0  0  0  1  0  0  0  0  0  0
  189.5790  174.6540  146.7990 C   0  0  0  0  0  2  0  0  0  0  0  0
  191.6150  177.5460  148.2570 C   0  0  0  0  0  1  0  0  0  0  0  0
  190.3110  174.3000  145.4880 C   0  0  2  0  0  3  0  0  0  0  0  0
  188.5460  177.4870  141.7470 O   0  0  0  0  0  0  0  0  0  0  0  0
  185.7290  177.5990  142.3400 C   0  0  0  0  0  3  0  0  0  0  0  0
  186.6680  177.9230  143.3250 C   0  0  0  0  0  0  0  0  0  0  0  0
  186.2430  178.5390  144.5120 C   0  0  0  0  0  3  0  0  0  0  0  0
  184.4860  179.4330  145.8510 F   0  0  0  0  0  0  0  0  0  0  0  0
  183.9580  178.5150  143.7150 C   0  0  0  0  0  3  0  0  0  0  0  0
  184.8910  178.8360  144.7050 C   0  0  0  0  0  0  0  0  0  0  0  0
  184.3760  177.8960  142.5330 C   0  0  0  0  0  3  0  0  0  0  0  0
  192.8720  176.9840  144.5050 C   0  0  0  0  0  1  0  0  0  0  0  0
  193.2950  176.5530  145.7640 O   0  0  0  0  0  0  0  0  0  0  0  0
  1 27  1  0  0  0  0
  1  4  1  0  0  0  0
  2 14  1  1  0  0  0
  2 17  1  0  0  0  0
  3  9  1  0  0  0  0
  3  7  1  0  0  0  0
  4 12  1  0  0  0  0
  5 19  1  0  0  0  0
  6 22  1  0  0  0  0
  6  9  1  0  0  0  0
  7 10  1  0  0  0  0
  7 21  1  0  0  0  0
  8 26  1  0  0  0  0
  9 13  1  0  0  0  0
 10  5  1  0  0  0  0
 11 16  2  0  0  0  0
 11  6  1  0  0  0  0
 12  8  1  0  0  0  0
 13 17  1  0  0  0  0
 13 21  1  0  0  0  0
 15 28  1  0  0  0  0
 16 20  1  0  0  0  0
 18  8  1  0  0  0  0
 19 18  1  0  0  0  0
 20 15  1  0  0  0  0
 20  3  1  0  0  0  0
 21 27  1  0  0  0  0
 22  2  1  0  0  0  0
 23 30  1  0  0  0  0
 23 10  1  0  0  0  0
 24  2  1  0  0  0  0
 25 18  1  0  0  0  0
 27 25  1  0  0  0  0
 28 23  1  0  0  0  0
 29 35  2  0  0  0  0
 29 30  1  0  0  0  0
 30 31  2  0  0  0  0
 31 34  1  0  0  0  0
 33 34  2  0  0  0  0
 34 32  1  0  0  0  0
 35 33  1  0  0  0  0
 36 37  1  0  0  0  0
 37  4  1  0  0  0  0
M  END
>  <MODEL>
8

>  <REMARK>
 VINA RESULT:      -7.9      1.559      2.033
  Name = 
  2 active torsions:
  status: ('A' for Active; 'I' for Inactive)
    1  A    between atoms: C_4  and  O_37
    2  A    between atoms: C_23  and  C_30
                            x       y       z     vdW  Elec       q    Type
                         _______ _______ _______ _____ _____    ______ ____

>  <TORSDO>
F 2

$$$$
=
 OpenBabel11112417163D

 37 43  0  0  1  0  0  0  0  0999 V2000
  194.8210  174.8530  143.3900 C   0  0  0  0  0  2  0  0  0  0  0  0
  191.1570  176.4120  146.3920 C   0  0  1  0  0  0  0  0  0  0  0  0
  191.2130  173.7560  143.1090 C   0  0  1  0  0  3  0  0  0  0  0  0
  196.2640  175.2080  143.7590 C   0  0  2  0  0  3  0  0  0  0  0  0
  193.6400  174.4180  140.1570 C   0  0  0  0  0  2  0  0  0  0  0  0
  190.0530  174.3980  145.2910 C   0  0  1  0  0  3  0  0  0  0  0  0
  191.9090  174.5560  142.0250 C   0  0  2  0  0  3  0  0  0  0  0  0
  196.8170  176.1340  141.3900 C   0  0  2  0  0  3  0  0  0  0  0  0
  190.7810  174.8410  144.0160 C   0  0  1  0  0  3  0  0  0  0  0  0
  192.9120  173.6610  141.2620 C   0  0  1  0  0  3  0  0  0  0  0  0
  189.6920  172.9230  145.2930 C   0  0  0  0  0  3  0  0  0  0  0  0
  196.8930  176.3230  142.9160 C   0  0  0  0  0  2  0  0  0  0  0  0
  192.0060  175.5560  144.2520 N   0  0  2  0  0  0  0  0  0  0  0  0
  192.2580  176.7190  147.3850 C   0  0  0  0  0  1  0  0  0  0  0  0
  190.3220  171.8070  141.7520 C   0  0  0  0  0  2  0  0  0  0  0  0
  189.6570  172.2120  144.1400 C   0  0  0  0  0  3  0  0  0  0  0  0
  191.6580  176.7750  144.9690 C   0  0  0  0  0  2  0  0  0  0  0  0
  195.4610  175.9750  140.8100 N   0  0  1  0  0  0  0  0  0  0  0  0
  195.1010  174.5720  140.5430 C   0  0  0  0  0  2  0  0  0  0  0  0
  190.0260  172.8580  142.8190 C   0  0  1  0  0  3  0  0  0  0  0  0
  192.4740  175.7640  142.8780 C   0  0  1  0  0  3  0  0  0  0  0  0
  190.7650  174.9150  146.5440 C   0  0  0  0  0  2  0  0  0  0  0  0
  192.2880  172.3700  140.6790 C   0  0  1  0  0  3  0  0  0  0  0  0
  190.0500  177.2050  146.6920 O   0  0  0  0  0  1  0  0  0  0  0  0
  194.4420  176.7160  141.5790 C   0  0  0  0  0  2  0  0  0  0  0  0
  197.8570  175.1500  140.8580 C   0  0  0  0  0  1  0  0  0  0  0  0
  193.9840  176.0390  142.8870 C   0  0  2  0  0  3  0  0  0  0  0  0
  191.6960  171.5130  141.6430 O   0  0  0  0  0  0  0  0  0  0  0  0
  191.9200  171.5840  138.3190 C   0  0  0  0  0  3  0  0  0  0  0  0
  191.5750  172.4710  139.3460 C   0  0  0  0  0  0  0  0  0  0  0  0
  190.5610  173.4170  139.1330 C   0  0  0  0  0  3  0  0  0  0  0  0
  188.9300  174.3970  137.6990 F   0  0  0  0  0  0  0  0  0  0  0  0
  190.2580  172.5970  136.8760 C   0  0  0  0  0  3  0  0  0  0  0  0
  189.9060  173.4810  137.9010 C   0  0  0  0  0  0  0  0  0  0  0  0
  191.2640  171.6480  137.0850 C   0  0  0  0  0  3  0  0  0  0  0  0
  197.5730  173.9390  145.0140 C   0  0  0  0  0  1  0  0  0  0  0  0
  197.0580  174.0610  143.7220 O   0  0  0  0  0  0  0  0  0  0  0  0
  1  4  1  0  0  0  0
  2 22  1  0  0  0  0
  2 24  1  0  0  0  0
  2 14  1  1  0  0  0
  3  9  1  0  0  0  0
  5 19  1  0  0  0  0
  5 10  1  0  0  0  0
  6 11  1  0  0  0  0
  6 22  1  0  0  0  0
  7 21  1  0  0  0  0
  7  3  1  0  0  0  0
  8 12  1  0  0  0  0
  9 13  1  0  0  0  0
  9  6  1  0  0  0  0
 10  7  1  0  0  0  0
 12  4  1  0  0  0  0
 13 17  1  0  0  0  0
 15 20  1  0  0  0  0
 16 11  2  0  0  0  0
 17  2  1  0  0  0  0
 18  8  1  0  0  0  0
 18 25  1  0  0  0  0
 19 18  1  0  0  0  0
 20  3  1  0  0  0  0
 20 16  1  0  0  0  0
 21 27  1  0  0  0  0
 21 13  1  0  0  0  0
 23 10  1  0  0  0  0
 23 28  1  0  0  0  0
 25 27  1  0  0  0  0
 26  8  1  0  0  0  0
 27  1  1  0  0  0  0
 28 15  1  0  0  0  0
 29 30  1  0  0  0  0
 30 23  1  0  0  0  0
 31 30  2  0  0  0  0
 32 34  1  0  0  0  0
 33 35  1  0  0  0  0
 33 34  2  0  0  0  0
 34 31  1  0  0  0  0
 35 29  2  0  0  0  0
 37  4  1  0  0  0  0
 37 36  1  0  0  0  0
M  END
>  <MODEL>
9

>  <REMARK>
 VINA RESULT:      -7.5      3.200      6.383
  Name = 
  2 active torsions:
  status: ('A' for Active; 'I' for Inactive)
    1  A    between atoms: C_4  and  O_37
    2  A    between atoms: C_23  and  C_30
                            x       y       z     vdW  Elec       q    Type
                         _______ _______ _______ _____ _____    ______ ____

>  <TORSDO>
F 2

$$$$
