=
 OpenBabel11112417303D

 37 44  0  0  1  0  0  0  0  0999 V2000
  193.6210  174.7360  143.2960 C   0  0  0  0  0  0  0  0  0  0  0  0
  190.4310  175.2440  145.2330 C   0  0  1  0  0  3  0  0  0  0  0  0
  187.5640  175.1570  143.6010 O   0  0  0  0  0  0  0  0  0  0  0  0
  192.8600  174.3420  145.4250 C   0  0  2  0  0  3  0  0  0  0  0  0
  189.8840  175.6440  143.8720 C   0  0  2  0  0  3  0  0  0  0  0  0
  191.4410  174.1520  144.8810 C   0  0  2  0  0  3  0  0  0  0  0  0
  188.4600  176.1990  143.8770 C   0  0  2  0  0  3  0  0  0  0  0  0
  192.7810  174.8600  146.8530 C   0  0  0  0  0  2  0  0  0  0  0  0
  191.3980  174.0390  143.3560 C   0  0  2  0  0  3  0  0  0  0  0  0
  194.0320  173.4090  143.2110 F   0  0  0  0  0  0  0  0  0  0  0  0
  189.9410  177.1520  146.6180 O   0  0  0  0  0  0  0  0  0  0  0  0
  192.1310  176.2440  146.9290 C   0  0  0  0  0  2  0  0  0  0  0  0
  192.3350  174.9160  142.7440 O   0  0  0  0  0  0  0  0  0  0  0  0
  187.7980  176.1120  141.4100 O   0  0  0  0  0  0  0  0  0  0  0  0
  187.1700  175.1530  142.2340 C   0  0  1  0  0  3  0  0  0  0  0  0
  190.9830  176.4980  145.9380 C   0  0  1  0  0  3  0  0  0  0  0  0
  190.0280  174.4590  143.0240 N   0  0  2  0  0  0  0  0  0  0  0  0
  193.6390  175.2040  144.6280 O   0  0  0  0  0  0  0  0  0  0  0  0
  188.0560  176.9800  145.1390 C   0  0  1  0  0  3  0  0  0  0  0  0
  194.5110  175.4970  142.5630 F   0  0  0  0  0  0  0  0  0  0  0  0
  188.2640  174.7870  141.2620 C   0  0  2  0  0  3  0  0  0  0  0  0
  189.7790  174.7940  141.6070 C   0  0  2  0  0  3  0  0  0  0  0  0
  189.1950  177.8610  145.6630 C   0  0  0  0  0  2  0  0  0  0  0  0
  186.7470  178.5630  143.7170 C   0  0  0  0  0  3  0  0  0  0  0  0
  186.8290  177.7980  144.8860 C   0  0  0  0  0  0  0  0  0  0  0  0
  185.7670  177.8180  145.8040 C   0  0  0  0  0  3  0  0  0  0  0  0
  183.6120  178.6130  146.4380 F   0  0  0  0  0  0  0  0  0  0  0  0
  184.5570  179.3570  144.3800 C   0  0  0  0  0  3  0  0  0  0  0  0
  184.6350  178.5960  145.5500 C   0  0  0  0  0  0  0  0  0  0  0  0
  185.6130  179.3400  143.4640 C   0  0  0  0  0  3  0  0  0  0  0  0
  190.4580  173.7960  140.6570 C   0  0  1  0  0  3  0  0  0  0  0  0
  189.6040  172.5480  140.4750 C   0  0  1  0  0  3  0  0  0  0  0  0
  189.6260  173.6320  139.3950 C   0  0  2  0  0  3  0  0  0  0  0  0
  190.5480  173.3560  138.2150 C   0  0  0  0  0  2  0  0  0  0  0  0
  189.9730  173.9240  137.0100 N   0  0  0  0  0  1  0  0  0  0  0  0
  190.8440  170.6660  141.5150 C   0  0  0  0  0  1  0  0  0  0  0  0
  190.5040  171.3490  140.2060 C   0  0  0  0  0  2  0  0  0  0  0  0
  1 18  1  0  0  0  0
  2 16  1  0  0  0  0
  3  7  1  0  0  0  0
  4  8  1  0  0  0  0
  5  7  1  0  0  0  0
  5  2  1  0  0  0  0
  6  2  1  0  0  0  0
  6  4  1  0  0  0  0
  7 19  1  0  0  0  0
  8 12  1  0  0  0  0
  9  6  1  0  0  0  0
 10  1  1  0  0  0  0
 13  1  1  0  0  0  0
 13  9  1  0  0  0  0
 14 15  1  0  0  0  0
 15  3  1  0  0  0  0
 16 11  1  0  0  0  0
 16 12  1  0  0  0  0
 17  9  1  0  0  0  0
 17  5  1  0  0  0  0
 18  4  1  0  0  0  0
 19 23  1  0  0  0  0
 20  1  1  0  0  0  0
 21 14  1  0  0  0  0
 21 22  1  0  0  0  0
 21 15  1  0  0  0  0
 22 17  1  0  0  0  0
 23 11  1  0  0  0  0
 24 25  1  0  0  0  0
 25 19  1  0  0  0  0
 25 26  2  0  0  0  0
 28 29  2  0  0  0  0
 29 26  1  0  0  0  0
 29 27  1  0  0  0  0
 30 24  2  0  0  0  0
 30 28  1  0  0  0  0
 31 22  1  0  0  0  0
 32 31  1  0  0  0  0
 33 32  1  0  0  0  0
 33 31  1  0  0  0  0
 34 33  1  0  0  0  0
 35 34  1  0  0  0  0
 37 32  1  0  0  0  0
 37 36  1  0  0  0  0
M  END
>  <MODEL>
1

>  <REMARK>
 VINA RESULT:      -8.3      0.000      0.000
  Name = 
  4 active torsions:
  status: ('A' for Active; 'I' for Inactive)
    1  A    between atoms: C_1  and  C_27
    2  A    between atoms: C_4  and  C_37
    3  A    between atoms: C_8  and  C_12
    4  A    between atoms: C_23  and  C_30
                            x       y       z     vdW  Elec       q    Type
                         _______ _______ _______ _____ _____    ______ ____

>  <TORSDO>
F 4

$$$$
=
 OpenBabel11112417303D

 37 44  0  0  1  0  0  0  0  0999 V2000
  194.0650  174.9600  142.4650 C   0  0  0  0  0  0  0  0  0  0  0  0
  191.1700  175.0330  144.8710 C   0  0  1  0  0  3  0  0  0  0  0  0
  188.1120  174.7210  143.6710 O   0  0  0  0  0  0  0  0  0  0  0  0
  193.6760  174.3840  144.6520 C   0  0  2  0  0  3  0  0  0  0  0  0
  190.3870  175.4380  143.6320 C   0  0  2  0  0  3  0  0  0  0  0  0
  192.2170  174.0720  144.3090 C   0  0  2  0  0  3  0  0  0  0  0  0
  188.9330  175.8380  143.8800 C   0  0  2  0  0  3  0  0  0  0  0  0
  193.7640  174.8210  146.1060 C   0  0  0  0  0  2  0  0  0  0  0  0
  191.9560  174.0290  142.8010 C   0  0  2  0  0  3  0  0  0  0  0  0
  194.5860  173.6890  142.2370 F   0  0  0  0  0  0  0  0  0  0  0  0
  190.7110  176.8080  146.4320 O   0  0  0  0  0  0  0  0  0  0  0  0
  193.0000  176.1230  146.3640 C   0  0  0  0  0  2  0  0  0  0  0  0
  192.7000  175.0290  142.1170 O   0  0  0  0  0  0  0  0  0  0  0  0
  187.9190  175.8020  141.5340 O   0  0  0  0  0  0  0  0  0  0  0  0
  187.5180  174.7420  142.3770 C   0  0  1  0  0  3  0  0  0  0  0  0
  191.6970  176.3020  145.5680 C   0  0  1  0  0  3  0  0  0  0  0  0
  190.5180  174.3180  142.6990 N   0  0  2  0  0  0  0  0  0  0  0  0
  194.2390  175.3620  143.8070 O   0  0  0  0  0  0  0  0  0  0  0  0
  188.6510  176.5100  145.2340 C   0  0  1  0  0  3  0  0  0  0  0  0
  194.7560  175.8450  141.6600 F   0  0  0  0  0  0  0  0  0  0  0  0
  188.4840  174.5420  141.2360 C   0  0  2  0  0  3  0  0  0  0  0  0
  190.0250  174.6920  141.3580 C   0  0  2  0  0  3  0  0  0  0  0  0
  189.7630  177.4800  145.6430 C   0  0  0  0  0  2  0  0  0  0  0  0
  186.2990  176.7420  146.0460 C   0  0  0  0  0  3  0  0  0  0  0  0
  187.3250  177.2040  145.2140 C   0  0  0  0  0  0  0  0  0  0  0  0
  187.0920  178.3010  144.3680 C   0  0  0  0  0  3  0  0  0  0  0  0
  185.6220  179.9850  143.5440 F   0  0  0  0  0  0  0  0  0  0  0  0
  184.8220  178.4630  145.1940 C   0  0  0  0  0  3  0  0  0  0  0  0
  185.8440  178.9270  144.3600 C   0  0  0  0  0  0  0  0  0  0  0  0
  185.0500  177.3710  146.0370 C   0  0  0  0  0  3  0  0  0  0  0  0
  190.6480  173.8190  140.2580 C   0  0  1  0  0  3  0  0  0  0  0  0
  189.8940  172.5040  140.1130 C   0  0  1  0  0  3  0  0  0  0  0  0
  189.6600  173.6410  139.1160 C   0  0  2  0  0  3  0  0  0  0  0  0
  190.4220  173.5220  137.8030 C   0  0  0  0  0  2  0  0  0  0  0  0
  189.6170  174.0640  136.7250 N   0  0  0  0  0  1  0  0  0  0  0  0
  191.5850  170.8360  140.8320 C   0  0  0  0  0  1  0  0  0  0  0  0
  190.8510  171.4160  139.6410 C   0  0  0  0  0  2  0  0  0  0  0  0
  1 18  1  0  0  0  0
  2 16  1  0  0  0  0
  3  7  1  0  0  0  0
  4  8  1  0  0  0  0
  5  7  1  0  0  0  0
  5  2  1  0  0  0  0
  6  4  1  0  0  0  0
  6  2  1  0  0  0  0
  7 19  1  0  0  0  0
  8 12  1  0  0  0  0
  9  6  1  0  0  0  0
 10  1  1  0  0  0  0
 13  1  1  0  0  0  0
 13  9  1  0  0  0  0
 14 15  1  0  0  0  0
 15  3  1  0  0  0  0
 16 12  1  0  0  0  0
 16 11  1  0  0  0  0
 17  9  1  0  0  0  0
 17  5  1  0  0  0  0
 18  4  1  0  0  0  0
 19 23  1  0  0  0  0
 20  1  1  0  0  0  0
 21 22  1  0  0  0  0
 21 14  1  0  0  0  0
 21 15  1  0  0  0  0
 22 17  1  0  0  0  0
 23 11  1  0  0  0  0
 25 19  1  0  0  0  0
 25 24  2  0  0  0  0
 26 25  1  0  0  0  0
 27 29  1  0  0  0  0
 28 30  2  0  0  0  0
 29 26  2  0  0  0  0
 29 28  1  0  0  0  0
 30 24  1  0  0  0  0
 31 22  1  0  0  0  0
 32 31  1  0  0  0  0
 33 32  1  0  0  0  0
 33 31  1  0  0  0  0
 34 33  1  0  0  0  0
 35 34  1  0  0  0  0
 37 32  1  0  0  0  0
 37 36  1  0  0  0  0
M  END
>  <MODEL>
2

>  <REMARK>
 VINA RESULT:      -8.1      1.002      1.289
  Name = 
  4 active torsions:
  status: ('A' for Active; 'I' for Inactive)
    1  A    between atoms: C_1  and  C_27
    2  A    between atoms: C_4  and  C_37
    3  A    between atoms: C_8  and  C_12
    4  A    between atoms: C_23  and  C_30
                            x       y       z     vdW  Elec       q    Type
                         _______ _______ _______ _____ _____    ______ ____

>  <TORSDO>
F 4

$$$$
=
 OpenBabel11112417303D

 37 44  0  0  1  0  0  0  0  0999 V2000
  191.7010  171.5540  142.0670 C   0  0  0  0  0  0  0  0  0  0  0  0
  189.7140  174.7100  141.5440 C   0  0  1  0  0  3  0  0  0  0  0  0
  190.1700  177.2260  143.6290 O   0  0  0  0  0  0  0  0  0  0  0  0
  190.7700  172.6870  140.3010 C   0  0  2  0  0  3  0  0  0  0  0  0
  190.0130  174.9250  143.0190 C   0  0  2  0  0  3  0  0  0  0  0  0
  190.9780  174.0110  141.0430 C   0  0  2  0  0  3  0  0  0  0  0  0
  189.3090  176.1210  143.6600 C   0  0  2  0  0  3  0  0  0  0  0  0
  189.5680  172.8160  139.3780 C   0  0  0  0  0  2  0  0  0  0  0  0
  191.8750  173.8690  142.2750 C   0  0  2  0  0  3  0  0  0  0  0  0
  192.9180  171.5270  141.3910 F   0  0  0  0  0  0  0  0  0  0  0  0
  187.3110  174.8310  141.4330 O   0  0  0  0  0  0  0  0  0  0  0  0
  188.2690  173.0530  140.1530 C   0  0  0  0  0  2  0  0  0  0  0  0
  191.6290  172.6460  142.9570 O   0  0  0  0  0  0  0  0  0  0  0  0
  190.5790  176.4260  145.8570 O   0  0  0  0  0  0  0  0  0  0  0  0
  190.8330  177.4090  144.8750 C   0  0  1  0  0  3  0  0  0  0  0  0
  188.3910  173.9310  141.4090 C   0  0  1  0  0  3  0  0  0  0  0  0
  191.4700  175.0030  143.1190 N   0  0  2  0  0  0  0  0  0  0  0  0
  190.6090  171.5920  141.1740 O   0  0  0  0  0  0  0  0  0  0  0  0
  187.9220  176.4600  143.0880 C   0  0  1  0  0  3  0  0  0  0  0  0
  191.6080  170.3920  142.8080 F   0  0  0  0  0  0  0  0  0  0  0  0
  191.8370  176.3370  145.2200 C   0  0  2  0  0  3  0  0  0  0  0  0
  191.9030  174.9470  144.5310 C   0  0  2  0  0  3  0  0  0  0  0  0
  187.1030  175.2050  142.7700 C   0  0  0  0  0  2  0  0  0  0  0  0
  187.0310  176.9880  145.3620 C   0  0  0  0  0  3  0  0  0  0  0  0
  187.1710  177.3590  144.0200 C   0  0  0  0  0  0  0  0  0  0  0  0
  186.5970  178.5580  143.5680 C   0  0  0  0  0  3  0  0  0  0  0  0
  185.3410  180.5330  144.0160 F   0  0  0  0  0  0  0  0  0  0  0  0
  185.7570  179.0030  145.7950 C   0  0  0  0  0  3  0  0  0  0  0  0
  185.8930  179.3760  144.4540 C   0  0  0  0  0  0  0  0  0  0  0  0
  186.3260  177.8080  146.2480 C   0  0  0  0  0  3  0  0  0  0  0  0
  193.3510  174.4500  144.6640 C   0  0  1  0  0  3  0  0  0  0  0  0
  193.9520  174.8720  145.9980 C   0  0  1  0  0  3  0  0  0  0  0  0
  193.4510  173.4410  145.7970 C   0  0  2  0  0  3  0  0  0  0  0  0
  194.5260  172.4150  145.4650 C   0  0  0  0  0  2  0  0  0  0  0  0
  193.9000  171.1770  145.0420 N   0  0  0  0  0  1  0  0  0  0  0  0
  195.7400  175.8800  144.6020 C   0  0  0  0  0  1  0  0  0  0  0  0
  195.4560  175.0590  145.8430 C   0  0  0  0  0  2  0  0  0  0  0  0
  1 20  1  0  0  0  0
  1 13  1  0  0  0  0
  2  5  1  0  0  0  0
  3  7  1  0  0  0  0
  3 15  1  0  0  0  0
  4  6  1  0  0  0  0
  4 18  1  0  0  0  0
  5 17  1  0  0  0  0
  5  7  1  0  0  0  0
  6  2  1  0  0  0  0
  6  9  1  0  0  0  0
  8 12  1  0  0  0  0
  8  4  1  0  0  0  0
  9 13  1  0  0  0  0
  9 17  1  0  0  0  0
 10  1  1  0  0  0  0
 11 23  1  0  0  0  0
 12 16  1  0  0  0  0
 15 21  1  0  0  0  0
 15 14  1  0  0  0  0
 16 11  1  0  0  0  0
 16  2  1  0  0  0  0
 17 22  1  0  0  0  0
 18  1  1  0  0  0  0
 19  7  1  0  0  0  0
 19 25  1  0  0  0  0
 21 14  1  0  0  0  0
 22 31  1  0  0  0  0
 22 21  1  0  0  0  0
 23 19  1  0  0  0  0
 24 30  1  0  0  0  0
 25 24  2  0  0  0  0
 26 25  1  0  0  0  0
 26 29  2  0  0  0  0
 27 29  1  0  0  0  0
 28 30  2  0  0  0  0
 29 28  1  0  0  0  0
 31 33  1  0  0  0  0
 31 32  1  0  0  0  0
 33 32  1  0  0  0  0
 34 33  1  0  0  0  0
 35 34  1  0  0  0  0
 36 37  1  0  0  0  0
 37 32  1  0  0  0  0
M  END
>  <MODEL>
3

>  <REMARK>
 VINA RESULT:      -8.1      2.007      5.143
  Name = 
  4 active torsions:
  status: ('A' for Active; 'I' for Inactive)
    1  A    between atoms: C_1  and  C_27
    2  A    between atoms: C_4  and  C_37
    3  A    between atoms: C_8  and  C_12
    4  A    between atoms: C_23  and  C_30
                            x       y       z     vdW  Elec       q    Type
                         _______ _______ _______ _____ _____    ______ ____

>  <TORSDO>
F 4

$$$$
=
 OpenBabel11112417303D

 37 44  0  0  1  0  0  0  0  0999 V2000
  190.6050  175.7890  147.4230 C   0  0  0  0  0  0  0  0  0  0  0  0
  191.6260  175.6090  143.8030 C   0  0  1  0  0  3  0  0  0  0  0  0
  189.3190  176.0680  141.4890 O   0  0  0  0  0  0  0  0  0  0  0  0
  192.4850  176.2190  146.1780 C   0  0  2  0  0  3  0  0  0  0  0  0
  190.1510  175.3080  143.5910 C   0  0  2  0  0  3  0  0  0  0  0  0
  191.6050  176.5850  144.9790 C   0  0  2  0  0  3  0  0  0  0  0  0
  189.7610  174.9230  142.1650 C   0  0  2  0  0  3  0  0  0  0  0  0
  193.8140  175.6800  145.6740 C   0  0  0  0  0  2  0  0  0  0  0  0
  190.1280  176.7390  145.3490 C   0  0  2  0  0  3  0  0  0  0  0  0
  190.6990  177.0620  147.9800 F   0  0  0  0  0  0  0  0  0  0  0  0
  192.7350  173.7390  142.7680 O   0  0  0  0  0  0  0  0  0  0  0  0
  193.6470  174.3800  144.8840 C   0  0  0  0  0  2  0  0  0  0  0  0
  189.7320  175.7740  146.3150 O   0  0  0  0  0  0  0  0  0  0  0  0
  187.2140  175.1430  142.1850 O   0  0  0  0  0  0  0  0  0  0  0  0
  187.8980  176.1500  141.4680 C   0  0  1  0  0  3  0  0  0  0  0  0
  192.3820  174.2830  144.0150 C   0  0  1  0  0  3  0  0  0  0  0  0
  189.4330  176.4880  144.0770 N   0  0  2  0  0  0  0  0  0  0  0  0
  191.8700  175.2910  147.0430 O   0  0  0  0  0  0  0  0  0  0  0  0
  190.8330  174.1640  141.3650 C   0  0  1  0  0  3  0  0  0  0  0  0
  190.0860  174.9480  148.3880 F   0  0  0  0  0  0  0  0  0  0  0  0
  187.2620  176.4090  142.8110 C   0  0  2  0  0  3  0  0  0  0  0  0
  187.9840  176.2180  144.1730 C   0  0  2  0  0  3  0  0  0  0  0  0
  191.5850  173.1440  142.2270 C   0  0  0  0  0  2  0  0  0  0  0  0
  188.9600  172.9220  140.2740 C   0  0  0  0  0  3  0  0  0  0  0  0
  190.2290  173.5000  140.1680 C   0  0  0  0  0  0  0  0  0  0  0  0
  190.9190  173.4400  138.9460 C   0  0  0  0  0  3  0  0  0  0  0  0
  191.0060  172.7510  136.6660 F   0  0  0  0  0  0  0  0  0  0  0  0
  189.0690  172.2320  137.9540 C   0  0  0  0  0  3  0  0  0  0  0  0
  190.3390  172.8070  137.8440 C   0  0  0  0  0  0  0  0  0  0  0  0
  188.3800  172.2900  139.1700 C   0  0  0  0  0  3  0  0  0  0  0  0
  187.2950  177.1530  145.1790 C   0  0  1  0  0  3  0  0  0  0  0  0
  186.1250  177.8830  144.5330 C   0  0  1  0  0  3  0  0  0  0  0  0
  185.8750  176.6770  145.4410 C   0  0  2  0  0  3  0  0  0  0  0  0
  185.4870  177.0110  146.8750 C   0  0  0  0  0  2  0  0  0  0  0  0
  186.6150  176.7600  147.7530 N   0  0  0  0  0  1  0  0  0  0  0  0
  185.1910  180.1660  144.2620 C   0  0  0  0  0  1  0  0  0  0  0  0
  185.9420  179.2420  145.1980 C   0  0  0  0  0  2  0  0  0  0  0  0
  1 10  1  0  0  0  0
  1 20  1  0  0  0  0
  2 16  1  0  0  0  0
  2  6  1  0  0  0  0
  3  7  1  0  0  0  0
  4 18  1  0  0  0  0
  5  2  1  0  0  0  0
  5 17  1  0  0  0  0
  6  9  1  0  0  0  0
  6  4  1  0  0  0  0
  7  5  1  0  0  0  0
  8  4  1  0  0  0  0
  9 13  1  0  0  0  0
 11 16  1  0  0  0  0
 12  8  1  0  0  0  0
 13  1  1  0  0  0  0
 14 21  1  0  0  0  0
 15  3  1  0  0  0  0
 15 14  1  0  0  0  0
 15 21  1  0  0  0  0
 16 12  1  0  0  0  0
 17 22  1  0  0  0  0
 17  9  1  0  0  0  0
 18  1  1  0  0  0  0
 19  7  1  0  0  0  0
 19 23  1  0  0  0  0
 21 22  1  0  0  0  0
 22 31  1  0  0  0  0
 23 11  1  0  0  0  0
 25 24  1  0  0  0  0
 25 19  1  0  0  0  0
 26 25  2  0  0  0  0
 27 29  1  0  0  0  0
 28 30  1  0  0  0  0
 29 28  2  0  0  0  0
 29 26  1  0  0  0  0
 30 24  2  0  0  0  0
 31 33  1  0  0  0  0
 32 31  1  0  0  0  0
 32 37  1  0  0  0  0
 32 33  1  0  0  0  0
 33 34  1  0  0  0  0
 34 35  1  0  0  0  0
 36 37  1  0  0  0  0
M  END
>  <MODEL>
4

>  <REMARK>
 VINA RESULT:      -8.1      2.680      6.760
  Name = 
  4 active torsions:
  status: ('A' for Active; 'I' for Inactive)
    1  A    between atoms: C_1  and  C_27
    2  A    between atoms: C_4  and  C_37
    3  A    between atoms: C_8  and  C_12
    4  A    between atoms: C_23  and  C_30
                            x       y       z     vdW  Elec       q    Type
                         _______ _______ _______ _____ _____    ______ ____

>  <TORSDO>
F 4

$$$$
=
 OpenBabel11112417303D

 37 44  0  0  1  0  0  0  0  0999 V2000
  193.1990  174.9680  145.2520 C   0  0  0  0  0  0  0  0  0  0  0  0
  189.4750  175.5180  145.3320 C   0  0  1  0  0  3  0  0  0  0  0  0
  187.6740  174.4990  142.7620 O   0  0  0  0  0  0  0  0  0  0  0  0
  191.5500  175.1080  146.8410 C   0  0  2  0  0  3  0  0  0  0  0  0
  189.6100  175.4040  143.8220 C   0  0  2  0  0  3  0  0  0  0  0  0
  190.5390  174.5440  145.8390 C   0  0  2  0  0  3  0  0  0  0  0  0
  188.3390  175.7030  143.0280 C   0  0  2  0  0  3  0  0  0  0  0  0
  190.8240  176.0080  147.8300 C   0  0  0  0  0  2  0  0  0  0  0  0
  191.2000  173.9780  144.5800 C   0  0  2  0  0  3  0  0  0  0  0  0
  193.6100  173.7570  145.8040 F   0  0  0  0  0  0  0  0  0  0  0  0
  188.3960  177.6490  145.6410 O   0  0  0  0  0  0  0  0  0  0  0  0
  190.2040  177.2310  147.1490 C   0  0  0  0  0  2  0  0  0  0  0  0
  192.3080  174.7700  144.1760 O   0  0  0  0  0  0  0  0  0  0  0  0
  188.8810  174.7850  140.7050 O   0  0  0  0  0  0  0  0  0  0  0  0
  187.9490  174.0270  141.4480 C   0  0  1  0  0  3  0  0  0  0  0  0
  189.6370  176.9950  145.7390 C   0  0  1  0  0  3  0  0  0  0  0  0
  190.1320  174.0600  143.5730 N   0  0  2  0  0  0  0  0  0  0  0  0
  192.6040  175.8070  146.2180 O   0  0  0  0  0  0  0  0  0  0  0  0
  187.3990  176.7500  143.6490 C   0  0  1  0  0  3  0  0  0  0  0  0
  194.3230  175.6070  144.7650 F   0  0  0  0  0  0  0  0  0  0  0  0
  189.3690  173.5670  141.2270 C   0  0  2  0  0  3  0  0  0  0  0  0
  190.5570  173.9140  142.1650 C   0  0  2  0  0  3  0  0  0  0  0  0
  188.1670  177.9150  144.2820 C   0  0  0  0  0  2  0  0  0  0  0  0
  186.8420  177.4410  141.3140 C   0  0  0  0  0  3  0  0  0  0  0  0
  186.4200  177.2510  142.6350 C   0  0  0  0  0  0  0  0  0  0  0  0
  185.0930  177.5430  142.9880 C   0  0  0  0  0  3  0  0  0  0  0  0
  182.9190  178.2990  142.3680 F   0  0  0  0  0  0  0  0  0  0  0  0
  184.6250  178.2050  140.7060 C   0  0  0  0  0  3  0  0  0  0  0  0
  184.1990  178.0190  142.0250 C   0  0  0  0  0  0  0  0  0  0  0  0
  185.9460  177.9160  140.3510 C   0  0  0  0  0  3  0  0  0  0  0  0
  191.6010  172.7990  141.9970 C   0  0  1  0  0  3  0  0  0  0  0  0
  191.4000  172.0570  140.6830 C   0  0  1  0  0  3  0  0  0  0  0  0
  192.5030  173.1080  140.8130 C   0  0  2  0  0  3  0  0  0  0  0  0
  193.8970  172.5580  141.0840 C   0  0  0  0  0  2  0  0  0  0  0  0
  194.5610  173.3860  142.0730 N   0  0  0  0  0  1  0  0  0  0  0  0
  190.8210  169.8300  141.6140 C   0  0  0  0  0  1  0  0  0  0  0  0
  191.8600  170.6130  140.8370 C   0  0  0  0  0  2  0  0  0  0  0  0
  1 10  1  0  0  0  0
  1 18  1  0  0  0  0
  2 16  1  0  0  0  0
  2  6  1  0  0  0  0
  3  7  1  0  0  0  0
  4  8  1  0  0  0  0
  5  2  1  0  0  0  0
  6  4  1  0  0  0  0
  7 19  1  0  0  0  0
  7  5  1  0  0  0  0
  9  6  1  0  0  0  0
 11 16  1  0  0  0  0
 12  8  1  0  0  0  0
 13  9  1  0  0  0  0
 13  1  1  0  0  0  0
 14 21  1  0  0  0  0
 14 15  1  0  0  0  0
 15  3  1  0  0  0  0
 16 12  1  0  0  0  0
 17  5  1  0  0  0  0
 17  9  1  0  0  0  0
 18  4  1  0  0  0  0
 19 23  1  0  0  0  0
 20  1  1  0  0  0  0
 21 15  1  0  0  0  0
 21 22  1  0  0  0  0
 22 17  1  0  0  0  0
 23 11  1  0  0  0  0
 24 25  1  0  0  0  0
 25 26  2  0  0  0  0
 25 19  1  0  0  0  0
 28 29  2  0  0  0  0
 29 27  1  0  0  0  0
 29 26  1  0  0  0  0
 30 28  1  0  0  0  0
 30 24  2  0  0  0  0
 31 22  1  0  0  0  0
 32 33  1  0  0  0  0
 32 37  1  0  0  0  0
 32 31  1  0  0  0  0
 33 34  1  0  0  0  0
 33 31  1  0  0  0  0
 34 35  1  0  0  0  0
 37 36  1  0  0  0  0
M  END
>  <MODEL>
5

>  <REMARK>
 VINA RESULT:      -8.0      2.037      2.507
  Name = 
  4 active torsions:
  status: ('A' for Active; 'I' for Inactive)
    1  A    between atoms: C_1  and  C_27
    2  A    between atoms: C_4  and  C_37
    3  A    between atoms: C_8  and  C_12
    4  A    between atoms: C_23  and  C_30
                            x       y       z     vdW  Elec       q    Type
                         _______ _______ _______ _____ _____    ______ ____

>  <TORSDO>
F 4

$$$$
=
 OpenBabel11112417303D

 37 44  0  0  1  0  0  0  0  0999 V2000
  187.2900  177.0190  147.2670 C   0  0  0  0  0  0  0  0  0  0  0  0
  190.1850  175.9820  145.0930 C   0  0  1  0  0  3  0  0  0  0  0  0
  189.6330  175.4300  141.8880 O   0  0  0  0  0  0  0  0  0  0  0  0
  189.5600  177.3540  147.2100 C   0  0  2  0  0  3  0  0  0  0  0  0
  189.0830  175.4210  144.2090 C   0  0  2  0  0  3  0  0  0  0  0  0
  189.5370  177.2350  145.6840 C   0  0  2  0  0  3  0  0  0  0  0  0
  189.5610  174.5980  143.0140 C   0  0  2  0  0  3  0  0  0  0  0  0
  190.9150  176.8960  147.7260 C   0  0  0  0  0  2  0  0  0  0  0  0
  188.1210  177.2680  145.1040 C   0  0  2  0  0  3  0  0  0  0  0  0
  187.1030  178.3970  147.3490 F   0  0  0  0  0  0  0  0  0  0  0  0
  191.6070  174.0810  145.4950 O   0  0  0  0  0  0  0  0  0  0  0  0
  191.1750  175.4160  147.4310 C   0  0  0  0  0  2  0  0  0  0  0  0
  187.2050  176.5650  145.9340 O   0  0  0  0  0  0  0  0  0  0  0  0
  187.4700  174.4390  141.5520 O   0  0  0  0  0  0  0  0  0  0  0  0
  188.4820  175.2930  141.0610 C   0  0  1  0  0  3  0  0  0  0  0  0
  190.6280  174.8950  146.0910 C   0  0  1  0  0  3  0  0  0  0  0  0
  188.2670  176.5710  143.8170 N   0  0  2  0  0  0  0  0  0  0  0  0
  188.5230  176.6260  147.8290 O   0  0  0  0  0  0  0  0  0  0  0  0
  190.8650  173.8110  143.2270 C   0  0  1  0  0  3  0  0  0  0  0  0
  186.2790  176.4160  147.9890 F   0  0  0  0  0  0  0  0  0  0  0  0
  187.2050  175.8220  141.6640 C   0  0  2  0  0  3  0  0  0  0  0  0
  187.0120  176.1290  143.1740 C   0  0  2  0  0  3  0  0  0  0  0  0
  190.9470  173.1960  144.6280 C   0  0  0  0  0  2  0  0  0  0  0  0
  191.5460  173.1110  140.9280 C   0  0  0  0  0  3  0  0  0  0  0  0
  191.0250  172.7570  142.1770 C   0  0  0  0  0  0  0  0  0  0  0  0
  190.6520  171.4260  142.4210 C   0  0  0  0  0  3  0  0  0  0  0  0
  190.4420  169.1770  141.6600 F   0  0  0  0  0  0  0  0  0  0  0  0
  191.3260  170.8190  140.1760 C   0  0  0  0  0  3  0  0  0  0  0  0
  190.8030  170.4610  141.4220 C   0  0  0  0  0  0  0  0  0  0  0  0
  191.6980  172.1440  139.9290 C   0  0  0  0  0  3  0  0  0  0  0  0
  185.9120  177.1980  143.2770 C   0  0  1  0  0  3  0  0  0  0  0  0
  186.4120  178.5450  142.7730 C   0  0  1  0  0  3  0  0  0  0  0  0
  185.5210  177.6730  141.8870 C   0  0  2  0  0  3  0  0  0  0  0  0
  184.0450  178.0480  141.8780 C   0  0  0  0  0  2  0  0  0  0  0  0
  183.6150  178.2910  140.5140 N   0  0  0  0  0  1  0  0  0  0  0  0
  185.3830  179.2210  144.9290 C   0  0  0  0  0  1  0  0  0  0  0  0
  185.6910  179.6650  143.5140 C   0  0  0  0  0  2  0  0  0  0  0  0
  1 10  1  0  0  0  0
  1 18  1  0  0  0  0
  1 20  1  0  0  0  0
  2  6  1  0  0  0  0
  2 16  1  0  0  0  0
  3  7  1  0  0  0  0
  4  8  1  0  0  0  0
  4 18  1  0  0  0  0
  5  2  1  0  0  0  0
  6  4  1  0  0  0  0
  7 19  1  0  0  0  0
  7  5  1  0  0  0  0
  9  6  1  0  0  0  0
  9 13  1  0  0  0  0
 11 16  1  0  0  0  0
 12  8  1  0  0  0  0
 13  1  1  0  0  0  0
 14 21  1  0  0  0  0
 15 14  1  0  0  0  0
 15 21  1  0  0  0  0
 15  3  1  0  0  0  0
 16 12  1  0  0  0  0
 17  5  1  0  0  0  0
 17  9  1  0  0  0  0
 19 23  1  0  0  0  0
 21 22  1  0  0  0  0
 22 31  1  0  0  0  0
 22 17  1  0  0  0  0
 23 11  1  0  0  0  0
 24 25  1  0  0  0  0
 25 26  2  0  0  0  0
 25 19  1  0  0  0  0
 28 29  2  0  0  0  0
 29 27  1  0  0  0  0
 29 26  1  0  0  0  0
 30 28  1  0  0  0  0
 30 24  2  0  0  0  0
 32 31  1  0  0  0  0
 32 37  1  0  0  0  0
 33 32  1  0  0  0  0
 33 31  1  0  0  0  0
 34 33  1  0  0  0  0
 35 34  1  0  0  0  0
 37 36  1  0  0  0  0
M  END
>  <MODEL>
6

>  <REMARK>
 VINA RESULT:      -7.9      2.599      6.789
  Name = 
  4 active torsions:
  status: ('A' for Active; 'I' for Inactive)
    1  A    between atoms: C_1  and  C_27
    2  A    between atoms: C_4  and  C_37
    3  A    between atoms: C_8  and  C_12
    4  A    between atoms: C_23  and  C_30
                            x       y       z     vdW  Elec       q    Type
                         _______ _______ _______ _____ _____    ______ ____

>  <TORSDO>
F 4

$$$$
=
 OpenBabel11112417303D

 37 44  0  0  1  0  0  0  0  0999 V2000
  187.3220  176.9020  141.5460 C   0  0  0  0  0  0  0  0  0  0  0  0
  189.6850  174.2140  142.7210 C   0  0  1  0  0  3  0  0  0  0  0  0
  190.8360  174.3660  145.8090 O   0  0  0  0  0  0  0  0  0  0  0  0
  187.7030  174.6820  141.1060 C   0  0  2  0  0  3  0  0  0  0  0  0
  190.0960  175.2740  143.7310 C   0  0  2  0  0  3  0  0  0  0  0  0
  188.1900  174.4820  142.5440 C   0  0  2  0  0  3  0  0  0  0  0  0
  191.2980  174.9120  144.6040 C   0  0  2  0  0  3  0  0  0  0  0  0
  188.3980  173.6760  140.2010 C   0  0  0  0  0  2  0  0  0  0  0  0
  187.8850  175.6780  143.4480 C   0  0  2  0  0  3  0  0  0  0  0  0
  185.9770  176.6140  141.7630 F   0  0  0  0  0  0  0  0  0  0  0  0
  191.7570  173.6260  141.6460 O   0  0  0  0  0  0  0  0  0  0  0  0
  189.9120  173.8970  140.1490 C   0  0  0  0  0  2  0  0  0  0  0  0
  188.0510  176.9080  142.7550 O   0  0  0  0  0  0  0  0  0  0  0  0
  191.1900  176.6460  146.4780 O   0  0  0  0  0  0  0  0  0  0  0  0
  190.8290  175.3340  146.8540 C   0  0  1  0  0  3  0  0  0  0  0  0
  190.5670  174.3510  141.4650 C   0  0  1  0  0  3  0  0  0  0  0  0
  188.8940  175.5640  144.5120 N   0  0  2  0  0  0  0  0  0  0  0  0
  187.9100  175.9950  140.6380 O   0  0  0  0  0  0  0  0  0  0  0  0
  192.3560  174.0160  143.9390 C   0  0  1  0  0  3  0  0  0  0  0  0
  187.3960  178.1660  140.9960 F   0  0  0  0  0  0  0  0  0  0  0  0
  189.8100  176.4330  146.6870 C   0  0  2  0  0  3  0  0  0  0  0  0
  189.0890  176.7640  145.3510 C   0  0  2  0  0  3  0  0  0  0  0  0
  192.5950  174.3920  142.4730 C   0  0  0  0  0  2  0  0  0  0  0  0
  194.1600  175.2860  145.1120 C   0  0  0  0  0  3  0  0  0  0  0  0
  193.6390  174.0510  144.7090 C   0  0  0  0  0  0  0  0  0  0  0  0
  194.3310  172.8700  145.0220 C   0  0  0  0  0  3  0  0  0  0  0  0
  196.1970  171.7880  146.0350 F   0  0  0  0  0  0  0  0  0  0  0  0
  196.0470  174.1640  146.1370 C   0  0  0  0  0  3  0  0  0  0  0  0
  195.5310  172.9290  145.7340 C   0  0  0  0  0  0  0  0  0  0  0  0
  195.3610  175.3430  145.8260 C   0  0  0  0  0  3  0  0  0  0  0  0
  187.7530  177.4290  145.7160 C   0  0  1  0  0  3  0  0  0  0  0  0
  186.8410  176.4540  146.4480 C   0  0  1  0  0  3  0  0  0  0  0  0
  187.6140  177.5180  147.2280 C   0  0  2  0  0  3  0  0  0  0  0  0
  186.8200  178.7660  147.5880 C   0  0  0  0  0  2  0  0  0  0  0  0
  187.4040  179.3900  148.7610 N   0  0  0  0  0  1  0  0  0  0  0  0
  185.2910  177.4910  144.8100 C   0  0  0  0  0  1  0  0  0  0  0  0
  185.3860  176.7970  146.1530 C   0  0  0  0  0  2  0  0  0  0  0  0
  1 10  1  0  0  0  0
  1 13  1  0  0  0  0
  2  5  1  0  0  0  0
  3 15  1  0  0  0  0
  4  6  1  0  0  0  0
  5 17  1  0  0  0  0
  5  7  1  0  0  0  0
  6  2  1  0  0  0  0
  6  9  1  0  0  0  0
  7  3  1  0  0  0  0
  8  4  1  0  0  0  0
  9 17  1  0  0  0  0
 11 23  1  0  0  0  0
 12  8  1  0  0  0  0
 12 16  1  0  0  0  0
 13  9  1  0  0  0  0
 14 21  1  0  0  0  0
 14 15  1  0  0  0  0
 16 11  1  0  0  0  0
 16  2  1  0  0  0  0
 17 22  1  0  0  0  0
 18  4  1  0  0  0  0
 18  1  1  0  0  0  0
 19  7  1  0  0  0  0
 19 25  1  0  0  0  0
 20  1  1  0  0  0  0
 21 15  1  0  0  0  0
 22 31  1  0  0  0  0
 22 21  1  0  0  0  0
 23 19  1  0  0  0  0
 24 30  1  0  0  0  0
 25 26  1  0  0  0  0
 25 24  2  0  0  0  0
 26 29  2  0  0  0  0
 29 27  1  0  0  0  0
 29 28  1  0  0  0  0
 30 28  2  0  0  0  0
 31 32  1  0  0  0  0
 31 33  1  0  0  0  0
 32 33  1  0  0  0  0
 33 34  1  0  0  0  0
 34 35  1  0  0  0  0
 36 37  1  0  0  0  0
 37 32  1  0  0  0  0
M  END
>  <MODEL>
7

>  <REMARK>
 VINA RESULT:      -7.7      2.601      7.847
  Name = 
  4 active torsions:
  status: ('A' for Active; 'I' for Inactive)
    1  A    between atoms: C_1  and  C_27
    2  A    between atoms: C_4  and  C_37
    3  A    between atoms: C_8  and  C_12
    4  A    between atoms: C_23  and  C_30
                            x       y       z     vdW  Elec       q    Type
                         _______ _______ _______ _____ _____    ______ ____

>  <TORSDO>
F 4

$$$$
=
 OpenBabel11112417303D

 37 44  0  0  1  0  0  0  0  0999 V2000
  189.7470  176.5250  146.6260 C   0  0  0  0  0  0  0  0  0  0  0  0
  191.8520  174.8120  144.0140 C   0  0  1  0  0  3  0  0  0  0  0  0
  190.5020  174.1670  141.0740 O   0  0  0  0  0  0  0  0  0  0  0  0
  191.9680  176.4130  146.0580 C   0  0  2  0  0  3  0  0  0  0  0  0
  190.4990  174.4160  143.4460 C   0  0  2  0  0  3  0  0  0  0  0  0
  191.5810  176.2020  144.5910 C   0  0  2  0  0  3  0  0  0  0  0  0
  190.5440  173.4400  142.2710 C   0  0  2  0  0  3  0  0  0  0  0  0
  193.3050  175.7390  146.3230 C   0  0  0  0  0  2  0  0  0  0  0  0
  190.0980  176.4670  144.3230 C   0  0  2  0  0  3  0  0  0  0  0  0
  189.8240  177.9150  146.5990 F   0  0  0  0  0  0  0  0  0  0  0  0
  192.9780  172.7040  144.3080 O   0  0  0  0  0  0  0  0  0  0  0  0
  193.2320  174.2210  146.1390 C   0  0  0  0  0  2  0  0  0  0  0  0
  189.2860  176.0090  145.3960 O   0  0  0  0  0  0  0  0  0  0  0  0
  188.1810  173.5900  141.3070 O   0  0  0  0  0  0  0  0  0  0  0  0
  189.1880  174.2000  140.5260 C   0  0  1  0  0  3  0  0  0  0  0  0
  192.3150  173.7280  145.0060 C   0  0  1  0  0  3  0  0  0  0  0  0
  189.8260  175.6730  143.1150 N   0  0  2  0  0  0  0  0  0  0  0  0
  190.9880  175.9390  146.9540 O   0  0  0  0  0  0  0  0  0  0  0  0
  191.7070  172.4340  142.2880 C   0  0  1  0  0  3  0  0  0  0  0  0
  188.8370  176.1750  147.6040 F   0  0  0  0  0  0  0  0  0  0  0  0
  188.1920  175.0020  141.3250 C   0  0  2  0  0  3  0  0  0  0  0  0
  188.4010  175.4390  142.8010 C   0  0  2  0  0  3  0  0  0  0  0  0
  191.9970  171.9070  143.6970 C   0  0  0  0  0  2  0  0  0  0  0  0
  191.0310  170.0670  141.8580 C   0  0  0  0  0  3  0  0  0  0  0  0
  191.4410  171.3020  141.3450 C   0  0  0  0  0  0  0  0  0  0  0  0
  191.6080  171.4570  139.9600 C   0  0  0  0  0  3  0  0  0  0  0  0
  191.5240  170.5350  137.7630 F   0  0  0  0  0  0  0  0  0  0  0  0
  190.9510  169.1520  139.6170 C   0  0  0  0  0  3  0  0  0  0  0  0
  191.3630  170.3840  139.1000 C   0  0  0  0  0  0  0  0  0  0  0  0
  190.7840  168.9940  140.9970 C   0  0  0  0  0  3  0  0  0  0  0  0
  187.5550  176.7020  143.0180 C   0  0  1  0  0  3  0  0  0  0  0  0
  186.4000  176.7630  142.0280 C   0  0  1  0  0  3  0  0  0  0  0  0
  186.1550  176.3170  143.4700 C   0  0  2  0  0  3  0  0  0  0  0  0
  185.6110  177.3930  144.4000 C   0  0  0  0  0  2  0  0  0  0  0  0
  185.9700  177.0760  145.7700 N   0  0  0  0  0  1  0  0  0  0  0  0
  185.1600  178.2900  140.5130 C   0  0  0  0  0  1  0  0  0  0  0  0
  186.0560  178.2170  141.7320 C   0  0  0  0  0  2  0  0  0  0  0  0
  1 18  1  0  0  0  0
  1 20  1  0  0  0  0
  2  6  1  0  0  0  0
  2 16  1  0  0  0  0
  3  7  1  0  0  0  0
  4  8  1  0  0  0  0
  4 18  1  0  0  0  0
  5  2  1  0  0  0  0
  6  4  1  0  0  0  0
  7 19  1  0  0  0  0
  7  5  1  0  0  0  0
  9  6  1  0  0  0  0
  9 13  1  0  0  0  0
 10  1  1  0  0  0  0
 11 16  1  0  0  0  0
 12  8  1  0  0  0  0
 13  1  1  0  0  0  0
 14 21  1  0  0  0  0
 15  3  1  0  0  0  0
 15 14  1  0  0  0  0
 15 21  1  0  0  0  0
 16 12  1  0  0  0  0
 17  5  1  0  0  0  0
 17  9  1  0  0  0  0
 19 23  1  0  0  0  0
 21 22  1  0  0  0  0
 22 31  1  0  0  0  0
 22 17  1  0  0  0  0
 23 11  1  0  0  0  0
 25 24  1  0  0  0  0
 25 19  1  0  0  0  0
 26 25  2  0  0  0  0
 27 29  1  0  0  0  0
 28 30  1  0  0  0  0
 29 28  2  0  0  0  0
 29 26  1  0  0  0  0
 30 24  2  0  0  0  0
 31 33  1  0  0  0  0
 32 31  1  0  0  0  0
 32 33  1  0  0  0  0
 33 34  1  0  0  0  0
 34 35  1  0  0  0  0
 36 37  1  0  0  0  0
 37 32  1  0  0  0  0
M  END
>  <MODEL>
8

>  <REMARK>
 VINA RESULT:      -7.5      2.634      6.892
  Name = 
  4 active torsions:
  status: ('A' for Active; 'I' for Inactive)
    1  A    between atoms: C_1  and  C_27
    2  A    between atoms: C_4  and  C_37
    3  A    between atoms: C_8  and  C_12
    4  A    between atoms: C_23  and  C_30
                            x       y       z     vdW  Elec       q    Type
                         _______ _______ _______ _____ _____    ______ ____

>  <TORSDO>
F 4

$$$$
=
 OpenBabel11112417303D

 37 44  0  0  1  0  0  0  0  0999 V2000
  188.7990  176.8430  146.7990 C   0  0  0  0  0  0  0  0  0  0  0  0
  191.2260  175.2420  144.4050 C   0  0  1  0  0  3  0  0  0  0  0  0
  190.2380  174.6570  141.3130 O   0  0  0  0  0  0  0  0  0  0  0  0
  191.0730  176.7870  146.4890 C   0  0  2  0  0  3  0  0  0  0  0  0
  189.9560  174.8390  143.6740 C   0  0  2  0  0  3  0  0  0  0  0  0
  190.8620  176.6100  144.9830 C   0  0  2  0  0  3  0  0  0  0  0  0
  190.1570  173.8970  142.4880 C   0  0  2  0  0  3  0  0  0  0  0  0
  192.3840  176.1290  146.8890 C   0  0  0  0  0  2  0  0  0  0  0  0
  189.4140  176.8570  144.5510 C   0  0  2  0  0  3  0  0  0  0  0  0
  188.8500  178.2350  146.8180 F   0  0  0  0  0  0  0  0  0  0  0  0
  192.3540  173.1470  144.7720 O   0  0  0  0  0  0  0  0  0  0  0  0
  192.3640  174.6160  146.6590 C   0  0  0  0  0  2  0  0  0  0  0  0
  188.4940  176.3550  145.5110 O   0  0  0  0  0  0  0  0  0  0  0  0
  187.9180  174.0320  141.2610 O   0  0  0  0  0  0  0  0  0  0  0  0
  188.9950  174.6810  140.6180 C   0  0  1  0  0  3  0  0  0  0  0  0
  191.5950  174.1390  145.4160 C   0  0  1  0  0  3  0  0  0  0  0  0
  189.3000  176.0920  143.3000 N   0  0  2  0  0  0  0  0  0  0  0  0
  190.0070  176.2710  147.2540 O   0  0  0  0  0  0  0  0  0  0  0  0
  191.3300  172.9110  142.6130 C   0  0  1  0  0  3  0  0  0  0  0  0
  187.7900  176.4500  147.6560 F   0  0  0  0  0  0  0  0  0  0  0  0
  187.8970  175.4430  141.3160 C   0  0  2  0  0  3  0  0  0  0  0  0
  187.9260  175.8420  142.8170 C   0  0  2  0  0  3  0  0  0  0  0  0
  191.4670  172.3500  144.0320 C   0  0  0  0  0  2  0  0  0  0  0  0
  191.3890  172.0770  140.2580 C   0  0  0  0  0  3  0  0  0  0  0  0
  191.1990  171.8020  141.6170 C   0  0  0  0  0  0  0  0  0  0  0  0
  190.8770  170.4960  142.0220 C   0  0  0  0  0  3  0  0  0  0  0  0
  190.4410  168.2210  141.4660 F   0  0  0  0  0  0  0  0  0  0  0  0
  190.9440  169.7590  139.7160 C   0  0  0  0  0  3  0  0  0  0  0  0
  190.7500  169.4790  141.0730 C   0  0  0  0  0  0  0  0  0  0  0  0
  191.2630  171.0580  139.3100 C   0  0  0  0  0  3  0  0  0  0  0  0
  187.0340  177.0840  142.9680 C   0  0  1  0  0  3  0  0  0  0  0  0
  185.8080  176.9870  142.0700 C   0  0  1  0  0  3  0  0  0  0  0  0
  185.6930  176.6890  143.5660 C   0  0  2  0  0  3  0  0  0  0  0  0
  185.1640  177.8340  144.4190 C   0  0  0  0  0  2  0  0  0  0  0  0
  185.1050  177.4170  145.8080 N   0  0  0  0  0  1  0  0  0  0  0  0
  184.3680  178.2860  140.5210 C   0  0  0  0  0  1  0  0  0  0  0  0
  185.3690  178.3850  141.6530 C   0  0  0  0  0  2  0  0  0  0  0  0
  1 10  1  0  0  0  0
  1 18  1  0  0  0  0
  1 20  1  0  0  0  0
  2  6  1  0  0  0  0
  2 16  1  0  0  0  0
  3  7  1  0  0  0  0
  4  8  1  0  0  0  0
  4 18  1  0  0  0  0
  5  2  1  0  0  0  0
  6  4  1  0  0  0  0
  7 19  1  0  0  0  0
  7  5  1  0  0  0  0
  9  6  1  0  0  0  0
  9 13  1  0  0  0  0
 11 16  1  0  0  0  0
 12  8  1  0  0  0  0
 13  1  1  0  0  0  0
 14 21  1  0  0  0  0
 15 14  1  0  0  0  0
 15  3  1  0  0  0  0
 15 21  1  0  0  0  0
 16 12  1  0  0  0  0
 17  5  1  0  0  0  0
 17  9  1  0  0  0  0
 19 23  1  0  0  0  0
 21 22  1  0  0  0  0
 22 31  1  0  0  0  0
 22 17  1  0  0  0  0
 23 11  1  0  0  0  0
 24 25  1  0  0  0  0
 25 26  2  0  0  0  0
 25 19  1  0  0  0  0
 28 29  2  0  0  0  0
 29 27  1  0  0  0  0
 29 26  1  0  0  0  0
 30 28  1  0  0  0  0
 30 24  2  0  0  0  0
 31 33  1  0  0  0  0
 32 31  1  0  0  0  0
 32 33  1  0  0  0  0
 33 34  1  0  0  0  0
 34 35  1  0  0  0  0
 36 37  1  0  0  0  0
 37 32  1  0  0  0  0
M  END
>  <MODEL>
9

>  <REMARK>
 VINA RESULT:      -7.4      2.616      6.814
  Name = 
  4 active torsions:
  status: ('A' for Active; 'I' for Inactive)
    1  A    between atoms: C_1  and  C_27
    2  A    between atoms: C_4  and  C_37
    3  A    between atoms: C_8  and  C_12
    4  A    between atoms: C_23  and  C_30
                            x       y       z     vdW  Elec       q    Type
                         _______ _______ _______ _____ _____    ______ ____

>  <TORSDO>
F 4

$$$$
