=
 OpenBabel11112416433D

 32 36  0  0  1  0  0  0  0  0999 V2000
  190.0590  175.3860  143.8640 C   0  0  1  0  0  3  0  0  0  0  0  0
  191.2500  177.0640  148.3360 C   0  0  0  0  0  3  0  0  0  0  0  0
  190.1640  177.9400  148.2830 C   0  0  0  0  0  3  0  0  0  0  0  0
  187.8010  175.9270  142.8360 C   0  0  2  0  0  3  0  0  0  0  0  0
  186.6240  176.9030  143.0030 C   0  0  2  0  0  3  0  0  0  0  0  0
  191.8140  174.0740  142.6810 C   0  0  2  0  0  3  0  0  0  0  0  0
  192.0620  174.5030  145.1090 O   0  0  0  0  0  0  0  0  0  0  0  0
  185.2560  178.2040  144.2660 C   0  0  2  0  0  3  0  0  0  0  0  0
  191.4360  176.1210  147.3250 C   0  0  0  0  0  3  0  0  0  0  0  0
  190.7220  174.9890  145.1910 C   0  0  1  0  0  3  0  0  0  0  0  0
  190.5450  176.0490  146.2450 C   0  0  0  0  0  0  0  0  0  0  0  0
  188.4660  176.9050  145.0310 C   0  0  2  0  0  3  0  0  0  0  0  0
  186.0580  179.1910  143.4380 C   0  0  0  0  0  2  0  0  0  0  0  0
  192.6550  174.6800  143.8290 C   0  0  2  0  0  3  0  0  0  0  0  0
  186.9600  178.3240  142.5850 C   0  0  0  0  0  2  0  0  0  0  0  0
  189.2580  177.8650  147.2220 C   0  0  0  0  0  3  0  0  0  0  0  0
  189.4160  176.9040  146.2120 C   0  0  0  0  0  0  0  0  0  0  0  0
  187.0030  177.0280  145.4600 C   0  0  0  0  0  2  0  0  0  0  0  0
  190.3060  174.2540  142.8870 C   0  0  0  0  0  2  0  0  0  0  0  0
  187.3230  174.7130  142.3420 O   0  0  0  0  0  1  0  0  0  0  0  0
  184.8110  178.7800  145.6080 C   0  0  0  0  0  1  0  0  0  0  0  0
  188.5850  175.6790  144.1280 C   0  0  2  0  0  3  0  0  0  0  0  0
  186.0200  176.9540  144.3460 N   0  0  2  0  0  0  0  0  0  0  0  0
  193.7650  176.7010  144.7940 C   0  0  0  0  0  1  0  0  0  0  0  0
  193.0400  176.1450  143.5810 C   0  0  1  0  0  3  0  0  0  0  0  0
  193.8660  176.2510  142.4590 O   0  0  0  0  0  0  0  0  0  0  0  0
  195.0930  175.7170  142.8650 C   0  0  0  0  0  2  0  0  0  0  0  0
  196.2070  176.5480  142.3320 C   0  0  0  0  0  0  0  0  0  0  0  0
  196.2660  176.8100  141.1020 O   0  0  0  0  0  0  0  0  0  0  0  0
  197.1660  177.0590  143.1960 O   0  0  0  0  0  1  0  0  0  0  0  0
  190.9670  171.7420  142.9120 C   0  0  0  0  0  1  0  0  0  0  0  0
  192.1510  172.6040  142.5160 C   0  0  0  0  0  2  0  0  0  0  0  0
  1 19  1  6  0  0  0
  1 22  1  0  0  0  0
  1 10  1  0  0  0  0
  3  2  1  0  0  0  0
  4 20  1  1  0  0  0
  4  5  1  0  0  0  0
  4 22  1  0  0  0  0
  5 15  1  1  0  0  0
  5 23  1  0  0  0  0
  6 32  1  1  0  0  0
  6 19  1  0  0  0  0
  6 14  1  0  0  0  0
  8 23  1  0  0  0  0
  8 21  1  1  0  0  0
  9  2  2  0  0  0  0
 10  7  1  6  0  0  0
 10 11  1  0  0  0  0
 11  9  1  0  0  0  0
 12 18  1  1  0  0  0
 12 17  1  0  0  0  0
 13  8  1  0  0  0  0
 14 25  1  6  0  0  0
 14  7  1  0  0  0  0
 15 13  1  0  0  0  0
 16  3  2  0  0  0  0
 17 11  2  0  0  0  0
 17 16  1  0  0  0  0
 22 12  1  0  0  0  0
 23 18  1  0  0  0  0
 25 24  1  0  0  0  0
 26 27  1  0  0  0  0
 26 25  1  0  0  0  0
 28 27  1  0  0  0  0
 28 30  1  0  0  0  0
 29 28  2  0  0  0  0
 32 31  1  0  0  0  0
M  END
>  <MODEL>
1

>  <REMARK>
 VINA RESULT:      -7.5      0.000      0.000
  Name = 
  5 active torsions:
  status: ('A' for Active; 'I' for Inactive)
    1  A    between atoms: C_7  and  C_19
    2  A    between atoms: C_10  and  C_17
    3  A    between atoms: C_10  and  O_20
    4  A    between atoms: O_20  and  C_29
    5  A    between atoms: C_29  and  C_30
                            x       y       z     vdW  Elec       q    Type
                         _______ _______ _______ _____ _____    ______ ____

>  <TORSDO>
F 5

$$$$
=
 OpenBabel11112416433D

 32 36  0  0  1  0  0  0  0  0999 V2000
  190.8710  175.4030  144.8560 C   0  0  1  0  0  3  0  0  0  0  0  0
  191.2420  177.8390  149.1180 C   0  0  0  0  0  3  0  0  0  0  0  0
  190.1090  178.5810  148.7780 C   0  0  0  0  0  3  0  0  0  0  0  0
  188.7540  175.5490  143.4590 C   0  0  2  0  0  3  0  0  0  0  0  0
  187.4910  176.4130  143.3070 C   0  0  2  0  0  3  0  0  0  0  0  0
  192.8830  174.1190  144.1470 C   0  0  2  0  0  3  0  0  0  0  0  0
  192.7310  174.9260  146.4850 O   0  0  0  0  0  0  0  0  0  0  0  0
  185.8490  177.7390  144.1480 C   0  0  2  0  0  3  0  0  0  0  0  0
  191.6520  176.7810  148.3060 C   0  0  0  0  0  3  0  0  0  0  0  0
  191.3580  175.2780  146.3060 C   0  0  1  0  0  3  0  0  0  0  0  0
  190.9410  176.4590  147.1410 C   0  0  0  0  0  0  0  0  0  0  0  0
  189.0040  176.9060  145.5370 C   0  0  2  0  0  3  0  0  0  0  0  0
  186.6830  178.6700  143.2870 C   0  0  0  0  0  2  0  0  0  0  0  0
  193.4910  174.9720  145.2840 C   0  0  2  0  0  3  0  0  0  0  0  0
  187.7690  177.7840  142.7140 C   0  0  0  0  0  2  0  0  0  0  0  0
  189.3800  178.2560  147.6310 C   0  0  0  0  0  3  0  0  0  0  0  0
  189.7640  177.1780  146.8200 C   0  0  0  0  0  0  0  0  0  0  0  0
  187.4880  176.9390  145.7400 C   0  0  0  0  0  2  0  0  0  0  0  0
  191.3510  174.1700  144.1160 C   0  0  0  0  0  2  0  0  0  0  0  0
  188.4550  174.2330  143.1080 O   0  0  0  0  0  1  0  0  0  0  0  0
  185.1640  178.4570  145.3060 C   0  0  0  0  0  1  0  0  0  0  0  0
  189.3550  175.5780  144.8680 C   0  0  2  0  0  3  0  0  0  0  0  0
  186.6920  176.6000  144.5310 N   0  0  2  0  0  0  0  0  0  0  0  0
  194.5790  177.1230  145.9440 C   0  0  0  0  0  1  0  0  0  0  0  0
  193.7890  176.4150  144.8580 C   0  0  1  0  0  3  0  0  0  0  0  0
  194.5210  176.4340  143.6680 O   0  0  0  0  0  0  0  0  0  0  0  0
  195.8600  176.4770  144.0690 C   0  0  0  0  0  2  0  0  0  0  0  0
  196.7460  176.5080  142.8740 C   0  0  0  0  0  0  0  0  0  0  0  0
  197.9370  176.1140  142.9620 O   0  0  0  0  0  1  0  0  0  0  0  0
  196.2480  176.9440  141.6540 O   0  0  0  0  0  0  0  0  0  0  0  0
  194.7670  172.6380  144.8300 C   0  0  0  0  0  1  0  0  0  0  0  0
  193.3590  172.6830  144.2690 C   0  0  0  0  0  2  0  0  0  0  0  0
  1 19  1  6  0  0  0
  1 22  1  0  0  0  0
  1 10  1  0  0  0  0
  3  2  1  0  0  0  0
  4 20  1  1  0  0  0
  4 22  1  0  0  0  0
  5 15  1  1  0  0  0
  5  4  1  0  0  0  0
  5 23  1  0  0  0  0
  6 32  1  1  0  0  0
  6 14  1  0  0  0  0
  8 23  1  0  0  0  0
  8 21  1  1  0  0  0
  9  2  2  0  0  0  0
 10  7  1  6  0  0  0
 10 11  1  0  0  0  0
 11  9  1  0  0  0  0
 12 18  1  1  0  0  0
 12 17  1  0  0  0  0
 13  8  1  0  0  0  0
 14 25  1  6  0  0  0
 14  7  1  0  0  0  0
 15 13  1  0  0  0  0
 16  3  2  0  0  0  0
 17 11  2  0  0  0  0
 17 16  1  0  0  0  0
 19  6  1  0  0  0  0
 22 12  1  0  0  0  0
 23 18  1  0  0  0  0
 25 24  1  0  0  0  0
 26 27  1  0  0  0  0
 26 25  1  0  0  0  0
 28 29  1  0  0  0  0
 28 27  1  0  0  0  0
 30 28  2  0  0  0  0
 32 31  1  0  0  0  0
M  END
>  <MODEL>
2

>  <REMARK>
 VINA RESULT:      -7.4      1.181      1.509
  Name = 
  5 active torsions:
  status: ('A' for Active; 'I' for Inactive)
    1  A    between atoms: C_7  and  C_19
    2  A    between atoms: C_10  and  C_17
    3  A    between atoms: C_10  and  O_20
    4  A    between atoms: O_20  and  C_29
    5  A    between atoms: C_29  and  C_30
                            x       y       z     vdW  Elec       q    Type
                         _______ _______ _______ _____ _____    ______ ____

>  <TORSDO>
F 5

$$$$
=
 OpenBabel11112416433D

 32 36  0  0  1  0  0  0  0  0999 V2000
  189.0560  175.8310  143.0150 C   0  0  1  0  0  3  0  0  0  0  0  0
  192.8570  176.4500  146.0800 C   0  0  0  0  0  3  0  0  0  0  0  0
  193.3400  175.1920  145.7150 C   0  0  0  0  0  3  0  0  0  0  0  0
  189.0740  173.9690  141.2870 C   0  0  2  0  0  3  0  0  0  0  0  0
  189.8050  172.6540  140.9670 C   0  0  2  0  0  3  0  0  0  0  0  0
  187.1310  177.3790  143.3260 C   0  0  2  0  0  3  0  0  0  0  0  0
  189.2960  177.9160  144.4060 O   0  0  0  0  0  0  0  0  0  0  0  0
  191.6490  171.3270  140.9720 C   0  0  2  0  0  3  0  0  0  0  0  0
  191.7520  176.9910  145.4220 C   0  0  0  0  0  3  0  0  0  0  0  0
  189.9560  176.8940  143.6580 C   0  0  1  0  0  3  0  0  0  0  0  0
  191.1110  176.2760  144.4010 C   0  0  0  0  0  0  0  0  0  0  0  0
  190.9260  174.1860  142.9420 C   0  0  2  0  0  3  0  0  0  0  0  0
  190.6930  170.6510  141.9380 C   0  0  0  0  0  2  0  0  0  0  0  0
  187.9160  177.6550  144.6300 C   0  0  2  0  0  3  0  0  0  0  0  0
  189.4580  171.5270  141.9240 C   0  0  0  0  0  2  0  0  0  0  0  0
  192.7230  174.4790  144.6850 C   0  0  0  0  0  3  0  0  0  0  0  0
  191.6270  175.0210  143.9960 C   0  0  0  0  0  0  0  0  0  0  0  0
  191.9090  173.5100  141.9850 C   0  0  0  0  0  2  0  0  0  0  0  0
  187.9350  176.5650  142.3060 C   0  0  0  0  0  2  0  0  0  0  0  0
  188.6700  174.5710  140.0950 O   0  0  0  0  0  1  0  0  0  0  0  0
  193.1140  171.0650  141.3070 C   0  0  0  0  0  1  0  0  0  0  0  0
  189.9130  174.9590  142.1000 C   0  0  2  0  0  3  0  0  0  0  0  0
  191.2730  172.7430  140.8810 N   0  0  2  0  0  0  0  0  0  0  0  0
  188.5010  176.9150  146.9440 C   0  0  0  0  0  1  0  0  0  0  0  0
  187.7100  176.5700  145.6950 C   0  0  1  0  0  3  0  0  0  0  0  0
  186.3560  176.4550  146.0220 O   0  0  0  0  0  0  0  0  0  0  0  0
  186.2310  177.0840  147.2640 C   0  0  0  0  0  2  0  0  0  0  0  0
  185.3000  178.2400  147.1540 C   0  0  0  0  0  0  0  0  0  0  0  0
  185.6600  179.3790  147.5490 O   0  0  0  0  0  1  0  0  0  0  0  0
  184.0450  178.0680  146.5870 O   0  0  0  0  0  0  0  0  0  0  0  0
  185.7100  179.4020  143.6400 C   0  0  0  0  0  1  0  0  0  0  0  0
  186.6750  178.6900  142.7120 C   0  0  0  0  0  2  0  0  0  0  0  0
  1 19  1  6  0  0  0
  1 10  1  0  0  0  0
  3  2  1  0  0  0  0
  4 20  1  6  0  0  0
  4 22  1  0  0  0  0
  5  4  1  0  0  0  0
  5 15  1  1  0  0  0
  6 32  1  6  0  0  0
  6 14  1  0  0  0  0
  7 14  1  0  0  0  0
  8 21  1  1  0  0  0
  8 13  1  0  0  0  0
  9  2  2  0  0  0  0
 10 11  1  1  0  0  0
 10  7  1  0  0  0  0
 11  9  1  0  0  0  0
 12 18  1  6  0  0  0
 12 17  1  0  0  0  0
 14 25  1  1  0  0  0
 15 13  1  0  0  0  0
 16  3  2  0  0  0  0
 17 11  2  0  0  0  0
 17 16  1  0  0  0  0
 19  6  1  0  0  0  0
 22 12  1  0  0  0  0
 22  1  1  0  0  0  0
 23  5  1  0  0  0  0
 23  8  1  0  0  0  0
 23 18  1  0  0  0  0
 25 26  1  0  0  0  0
 25 24  1  0  0  0  0
 26 27  1  0  0  0  0
 28 27  1  0  0  0  0
 28 29  1  0  0  0  0
 30 28  2  0  0  0  0
 32 31  1  0  0  0  0
M  END
>  <MODEL>
3

>  <REMARK>
 VINA RESULT:      -7.4      3.148      7.159
  Name = 
  5 active torsions:
  status: ('A' for Active; 'I' for Inactive)
    1  A    between atoms: C_7  and  C_19
    2  A    between atoms: C_10  and  C_17
    3  A    between atoms: C_10  and  O_20
    4  A    between atoms: O_20  and  C_29
    5  A    between atoms: C_29  and  C_30
                            x       y       z     vdW  Elec       q    Type
                         _______ _______ _______ _____ _____    ______ ____

>  <TORSDO>
F 5

$$$$
=
 OpenBabel11112416433D

 32 36  0  0  1  0  0  0  0  0999 V2000
  191.0740  175.7760  145.6760 C   0  0  1  0  0  3  0  0  0  0  0  0
  190.0960  171.3960  143.6540 C   0  0  0  0  0  3  0  0  0  0  0  0
  191.4450  171.2640  143.3180 C   0  0  0  0  0  3  0  0  0  0  0  0
  193.4690  176.4840  146.1390 C   0  0  2  0  0  3  0  0  0  0  0  0
  194.9110  176.1170  145.7510 C   0  0  2  0  0  3  0  0  0  0  0  0
  189.1110  177.2410  146.1240 C   0  0  2  0  0  3  0  0  0  0  0  0
  188.7360  174.8420  145.6320 O   0  0  0  0  0  0  0  0  0  0  0  0
  196.5110  174.6210  145.1490 C   0  0  2  0  0  3  0  0  0  0  0  0
  189.6720  172.4760  144.4300 C   0  0  0  0  0  3  0  0  0  0  0  0
  190.1320  174.5670  145.7570 C   0  0  1  0  0  3  0  0  0  0  0  0
  190.5900  173.4400  144.8700 C   0  0  0  0  0  0  0  0  0  0  0  0
  192.9810  174.3360  144.9720 C   0  0  2  0  0  3  0  0  0  0  0  0
  196.3160  175.4830  143.9150 C   0  0  0  0  0  2  0  0  0  0  0  0
  188.4530  176.1730  145.2200 C   0  0  2  0  0  3  0  0  0  0  0  0
  195.2600  176.4900  144.3200 C   0  0  0  0  0  2  0  0  0  0  0  0
  192.3720  172.2070  143.7680 C   0  0  0  0  0  3  0  0  0  0  0  0
  191.9660  173.2830  144.5720 C   0  0  0  0  0  0  0  0  0  0  0  0
  194.2880  173.7220  145.4780 C   0  0  0  0  0  2  0  0  0  0  0  0
  190.5130  176.8410  146.5980 C   0  0  0  0  0  2  0  0  0  0  0  0
  193.4580  176.9850  147.4410 O   0  0  0  0  0  1  0  0  0  0  0  0
  196.9680  173.2040  144.8150 C   0  0  0  0  0  1  0  0  0  0  0  0
  192.4850  175.3160  146.0330 C   0  0  2  0  0  3  0  0  0  0  0  0
  195.2910  174.7090  145.9590 N   0  0  2  0  0  0  0  0  0  0  0  0
  187.7000  175.6820  142.8880 C   0  0  0  0  0  1  0  0  0  0  0  0
  188.7530  176.3810  143.7300 C   0  0  1  0  0  3  0  0  0  0  0  0
  188.7650  177.7430  143.4180 O   0  0  0  0  0  0  0  0  0  0  0  0
  189.7250  177.8720  142.4100 C   0  0  0  0  0  2  0  0  0  0  0  0
  191.0810  177.9820  143.0130 C   0  0  0  0  0  0  0  0  0  0  0  0
  191.3330  178.9000  143.8360 O   0  0  0  0  0  1  0  0  0  0  0  0
  192.0600  177.0530  142.6900 O   0  0  0  0  0  0  0  0  0  0  0  0
  186.7560  177.3880  146.9270 C   0  0  0  0  0  1  0  0  0  0  0  0
  188.2160  177.5310  147.3150 C   0  0  0  0  0  2  0  0  0  0  0  0
  1 10  1  0  0  0  0
  1 22  1  0  0  0  0
  1 19  1  1  0  0  0
  2  9  1  0  0  0  0
  3  2  2  0  0  0  0
  3 16  1  0  0  0  0
  4 20  1  1  0  0  0
  5 15  1  6  0  0  0
  5 23  1  0  0  0  0
  5  4  1  0  0  0  0
  6 19  1  0  0  0  0
  6 32  1  1  0  0  0
  7 10  1  0  0  0  0
  8 21  1  6  0  0  0
  8 23  1  0  0  0  0
  9 11  2  0  0  0  0
 10 11  1  6  0  0  0
 12 18  1  1  0  0  0
 12 22  1  0  0  0  0
 13 15  1  0  0  0  0
 13  8  1  0  0  0  0
 14 25  1  6  0  0  0
 14  7  1  0  0  0  0
 14  6  1  0  0  0  0
 16 17  2  0  0  0  0
 17 11  1  0  0  0  0
 17 12  1  0  0  0  0
 18 23  1  0  0  0  0
 22  4  1  0  0  0  0
 24 25  1  0  0  0  0
 26 25  1  0  0  0  0
 27 28  1  0  0  0  0
 27 26  1  0  0  0  0
 28 29  1  0  0  0  0
 30 28  2  0  0  0  0
 31 32  1  0  0  0  0
M  END
>  <MODEL>
4

>  <REMARK>
 VINA RESULT:      -7.2      2.830      7.012
  Name = 
  5 active torsions:
  status: ('A' for Active; 'I' for Inactive)
    1  A    between atoms: C_7  and  C_19
    2  A    between atoms: C_10  and  C_17
    3  A    between atoms: C_10  and  O_20
    4  A    between atoms: O_20  and  C_29
    5  A    between atoms: C_29  and  C_30
                            x       y       z     vdW  Elec       q    Type
                         _______ _______ _______ _____ _____    ______ ____

>  <TORSDO>
F 5

$$$$
=
 OpenBabel11112416433D

 32 36  0  0  1  0  0  0  0  0999 V2000
  190.5760  175.7650  144.8070 C   0  0  1  0  0  3  0  0  0  0  0  0
  190.0880  171.4690  142.4540 C   0  0  0  0  0  3  0  0  0  0  0  0
  191.4760  171.3140  142.4750 C   0  0  0  0  0  3  0  0  0  0  0  0
  192.7790  176.4020  145.8990 C   0  0  2  0  0  3  0  0  0  0  0  0
  194.2670  176.0110  145.8850 C   0  0  2  0  0  3  0  0  0  0  0  0
  188.5880  177.2630  144.7800 C   0  0  2  0  0  3  0  0  0  0  0  0
  188.3160  174.8890  144.1270 O   0  0  0  0  0  0  0  0  0  0  0  0
  195.9450  174.4950  145.6690 C   0  0  2  0  0  3  0  0  0  0  0  0
  189.4950  172.5360  143.1300 C   0  0  0  0  0  3  0  0  0  0  0  0
  189.6270  174.5770  144.6000 C   0  0  1  0  0  3  0  0  0  0  0  0
  190.2810  173.4650  143.8250 C   0  0  0  0  0  0  0  0  0  0  0  0
  192.5780  174.3000  144.5730 C   0  0  2  0  0  3  0  0  0  0  0  0
  196.0910  175.3960  144.4560 C   0  0  0  0  0  2  0  0  0  0  0  0
  188.1700  176.2370  143.7010 C   0  0  2  0  0  3  0  0  0  0  0  0
  194.9810  176.4160  144.6080 C   0  0  0  0  0  2  0  0  0  0  0  0
  192.2690  172.2210  143.1820 C   0  0  0  0  0  3  0  0  0  0  0  0
  191.6840  173.2830  143.8890 C   0  0  0  0  0  0  0  0  0  0  0  0
  193.6980  173.6410  145.3800 C   0  0  0  0  0  2  0  0  0  0  0  0
  189.8110  176.8160  145.5870 C   0  0  0  0  0  2  0  0  0  0  0  0
  192.4380  176.8650  147.1690 O   0  0  0  0  0  1  0  0  0  0  0  0
  196.4500  173.0780  145.4180 C   0  0  0  0  0  1  0  0  0  0  0  0
  191.8380  175.2610  145.5020 C   0  0  2  0  0  3  0  0  0  0  0  0
  194.5570  174.5890  146.1380 N   0  0  2  0  0  0  0  0  0  0  0  0
  188.4210  175.4150  141.3540 C   0  0  0  0  0  1  0  0  0  0  0  0
  188.8500  176.4800  142.3470 C   0  0  1  0  0  3  0  0  0  0  0  0
  188.5130  177.7410  141.8490 O   0  0  0  0  0  0  0  0  0  0  0  0
  187.4360  177.5110  140.9870 C   0  0  0  0  0  2  0  0  0  0  0  0
  186.2510  178.2910  141.4370 C   0  0  0  0  0  0  0  0  0  0  0  0
  185.1830  178.2530  140.7740 O   0  0  0  0  0  0  0  0  0  0  0  0
  186.3170  179.0370  142.6060 O   0  0  0  0  0  1  0  0  0  0  0  0
  187.4430  176.5890  146.8880 C   0  0  0  0  0  1  0  0  0  0  0  0
  187.4180  177.5410  145.7070 C   0  0  0  0  0  2  0  0  0  0  0  0
  1 22  1  0  0  0  0
  1 19  1  1  0  0  0
  2  3  2  0  0  0  0
  2  9  1  0  0  0  0
  3 16  1  0  0  0  0
  4 20  1  1  0  0  0
  5 15  1  6  0  0  0
  5  4  1  0  0  0  0
  5 23  1  0  0  0  0
  6 19  1  0  0  0  0
  6 32  1  1  0  0  0
  7 10  1  0  0  0  0
  8 21  1  6  0  0  0
  8 23  1  0  0  0  0
  9 11  2  0  0  0  0
 10 11  1  6  0  0  0
 10  1  1  0  0  0  0
 11 17  1  0  0  0  0
 12 18  1  1  0  0  0
 12 22  1  0  0  0  0
 13 15  1  0  0  0  0
 13  8  1  0  0  0  0
 14 25  1  6  0  0  0
 14  7  1  0  0  0  0
 14  6  1  0  0  0  0
 16 17  2  0  0  0  0
 17 12  1  0  0  0  0
 18 23  1  0  0  0  0
 22  4  1  0  0  0  0
 24 25  1  0  0  0  0
 26 25  1  0  0  0  0
 27 28  1  0  0  0  0
 27 26  1  0  0  0  0
 28 30  1  0  0  0  0
 29 28  2  0  0  0  0
 32 31  1  0  0  0  0
M  END
>  <MODEL>
5

>  <REMARK>
 VINA RESULT:      -7.2      3.003      7.474
  Name = 
  5 active torsions:
  status: ('A' for Active; 'I' for Inactive)
    1  A    between atoms: C_7  and  C_19
    2  A    between atoms: C_10  and  C_17
    3  A    between atoms: C_10  and  O_20
    4  A    between atoms: O_20  and  C_29
    5  A    between atoms: C_29  and  C_30
                            x       y       z     vdW  Elec       q    Type
                         _______ _______ _______ _____ _____    ______ ____

>  <TORSDO>
F 5

$$$$
=
 OpenBabel11112416433D

 32 36  0  0  1  0  0  0  0  0999 V2000
  190.4600  175.5280  143.3150 C   0  0  1  0  0  3  0  0  0  0  0  0
  194.1750  176.7820  146.2900 C   0  0  0  0  0  3  0  0  0  0  0  0
  194.7120  175.5020  146.1380 C   0  0  0  0  0  3  0  0  0  0  0  0
  190.5810  173.4160  141.9080 C   0  0  2  0  0  3  0  0  0  0  0  0
  191.3680  172.0980  141.8130 C   0  0  2  0  0  3  0  0  0  0  0  0
  188.4720  177.0270  143.3490 C   0  0  2  0  0  3  0  0  0  0  0  0
  190.5940  177.8160  144.3560 O   0  0  0  0  0  0  0  0  0  0  0  0
  193.2600  170.8650  142.0550 C   0  0  2  0  0  3  0  0  0  0  0  0
  193.0630  177.1660  145.5390 C   0  0  0  0  0  3  0  0  0  0  0  0
  191.3070  176.7160  143.7910 C   0  0  1  0  0  3  0  0  0  0  0  0
  192.4690  176.2720  144.6380 C   0  0  0  0  0  0  0  0  0  0  0  0
  192.3910  173.9700  143.5310 C   0  0  2  0  0  3  0  0  0  0  0  0
  192.3120  170.3130  143.1040 C   0  0  0  0  0  2  0  0  0  0  0  0
  189.2210  177.5390  144.6010 C   0  0  2  0  0  3  0  0  0  0  0  0
  191.0450  171.1250  142.9340 C   0  0  0  0  0  2  0  0  0  0  0  0
  194.1420  174.6090  145.2270 C   0  0  0  0  0  3  0  0  0  0  0  0
  193.0400  174.9900  144.4460 C   0  0  0  0  0  0  0  0  0  0  0  0
  193.4180  173.1900  142.7070 C   0  0  0  0  0  2  0  0  0  0  0  0
  189.3260  176.0940  142.4830 C   0  0  0  0  0  2  0  0  0  0  0  0
  190.1780  173.8040  140.6300 O   0  0  0  0  0  1  0  0  0  0  0  0
  194.7270  170.7180  142.4460 C   0  0  0  0  0  1  0  0  0  0  0  0
  191.3660  174.5570  142.5630 C   0  0  2  0  0  3  0  0  0  0  0  0
  192.8330  172.2310  141.7330 N   0  0  2  0  0  0  0  0  0  0  0  0
  189.6470  177.2840  147.0510 C   0  0  0  0  0  1  0  0  0  0  0  0
  189.0350  176.6310  145.8240 C   0  0  1  0  0  3  0  0  0  0  0  0
  187.6780  176.3920  146.0550 O   0  0  0  0  0  0  0  0  0  0  0  0
  187.2650  177.4380  146.8850 C   0  0  0  0  0  2  0  0  0  0  0  0
  185.8250  177.7330  146.6490 C   0  0  0  0  0  0  0  0  0  0  0  0
  185.0030  176.7900  146.5130 O   0  0  0  0  0  0  0  0  0  0  0  0
  185.3850  179.0490  146.6070 O   0  0  0  0  0  1  0  0  0  0  0  0
  186.6090  178.6460  143.0040 C   0  0  0  0  0  1  0  0  0  0  0  0
  187.9790  178.2040  142.5260 C   0  0  0  0  0  2  0  0  0  0  0  0
  1 19  1  6  0  0  0
  1 10  1  0  0  0  0
  3  2  1  0  0  0  0
  4 20  1  6  0  0  0
  4 22  1  0  0  0  0
  5  4  1  0  0  0  0
  5 15  1  1  0  0  0
  6 32  1  6  0  0  0
  6 14  1  0  0  0  0
  7 14  1  0  0  0  0
  8 21  1  1  0  0  0
  8 13  1  0  0  0  0
  9  2  2  0  0  0  0
 10  7  1  1  0  0  0
 10 11  1  0  0  0  0
 11  9  1  0  0  0  0
 12 18  1  6  0  0  0
 12 17  1  0  0  0  0
 14 25  1  1  0  0  0
 15 13  1  0  0  0  0
 16  3  2  0  0  0  0
 17 11  2  0  0  0  0
 17 16  1  0  0  0  0
 19  6  1  0  0  0  0
 22  1  1  0  0  0  0
 22 12  1  0  0  0  0
 23  5  1  0  0  0  0
 23  8  1  0  0  0  0
 23 18  1  0  0  0  0
 25 26  1  0  0  0  0
 25 24  1  0  0  0  0
 26 27  1  0  0  0  0
 28 27  1  0  0  0  0
 29 28  2  0  0  0  0
 30 28  1  0  0  0  0
 32 31  1  0  0  0  0
M  END
>  <MODEL>
6

>  <REMARK>
 VINA RESULT:      -6.8      2.933      7.165
  Name = 
  5 active torsions:
  status: ('A' for Active; 'I' for Inactive)
    1  A    between atoms: C_7  and  C_19
    2  A    between atoms: C_10  and  C_17
    3  A    between atoms: C_10  and  O_20
    4  A    between atoms: O_20  and  C_29
    5  A    between atoms: C_29  and  C_30
                            x       y       z     vdW  Elec       q    Type
                         _______ _______ _______ _____ _____    ______ ____

>  <TORSDO>
F 5

$$$$
=
 OpenBabel11112416433D

 32 36  0  0  1  0  0  0  0  0999 V2000
  193.2430  174.4630  144.9630 C   0  0  1  0  0  3  0  0  0  0  0  0
  191.3490  173.4960  140.5230 C   0  0  0  0  0  3  0  0  0  0  0  0
  190.1040  173.9400  140.9720 C   0  0  0  0  0  3  0  0  0  0  0  0
  191.9540  175.8650  146.6440 C   0  0  2  0  0  3  0  0  0  0  0  0
  190.5300  176.3780  146.9180 C   0  0  2  0  0  3  0  0  0  0  0  0
  195.4580  173.4390  145.4590 C   0  0  2  0  0  3  0  0  0  0  0  0
  194.6530  173.4940  143.1160 O   0  0  0  0  0  0  0  0  0  0  0  0
  188.4880  177.1000  146.2340 C   0  0  2  0  0  3  0  0  0  0  0  0
  192.4720  173.6250  141.3420 C   0  0  0  0  0  3  0  0  0  0  0  0
  193.5890  174.3780  143.4700 C   0  0  1  0  0  3  0  0  0  0  0  0
  192.3610  174.1900  142.6200 C   0  0  0  0  0  0  0  0  0  0  0  0
  190.9310  175.2430  144.4570 C   0  0  2  0  0  3  0  0  0  0  0  0
  188.2150  175.7590  146.8890 C   0  0  0  0  0  2  0  0  0  0  0  0
  195.0740  172.6540  144.1830 C   0  0  2  0  0  3  0  0  0  0  0  0
  189.5740  175.2830  147.3580 C   0  0  0  0  0  2  0  0  0  0  0  0
  189.9840  174.5240  142.2350 C   0  0  0  0  0  3  0  0  0  0  0  0
  191.1090  174.6850  143.0590 C   0  0  0  0  0  0  0  0  0  0  0  0
  190.0390  176.4850  144.4800 C   0  0  0  0  0  2  0  0  0  0  0  0
  194.5470  174.6460  145.7140 C   0  0  0  0  0  2  0  0  0  0  0  0
  192.8770  176.7900  147.1340 O   0  0  0  0  0  1  0  0  0  0  0  0
  187.4810  177.4420  145.1400 C   0  0  0  0  0  1  0  0  0  0  0  0
  192.2390  175.5950  145.1640 C   0  0  2  0  0  3  0  0  0  0  0  0
  189.8950  177.1220  145.8170 N   0  0  2  0  0  0  0  0  0  0  0  0
  194.2960  170.3850  143.4810 C   0  0  0  0  0  1  0  0  0  0  0  0
  194.0650  171.5300  144.4510 C   0  0  1  0  0  3  0  0  0  0  0  0
  194.1910  171.0600  145.7610 O   0  0  0  0  0  0  0  0  0  0  0  0
  194.6220  169.7370  145.6280 C   0  0  0  0  0  2  0  0  0  0  0  0
  195.2760  169.2880  146.8880 C   0  0  0  0  0  0  0  0  0  0  0  0
  196.4590  169.6330  147.1410 O   0  0  0  0  0  0  0  0  0  0  0  0
  194.5680  168.5140  147.7970 O   0  0  0  0  0  1  0  0  0  0  0  0
  197.7420  172.8290  144.6700 C   0  0  0  0  0  1  0  0  0  0  0  0
  196.9070  173.8820  145.3750 C   0  0  0  0  0  2  0  0  0  0  0  0
  1 22  1  0  0  0  0
  1 19  1  1  0  0  0
  2  3  2  0  0  0  0
  2  9  1  0  0  0  0
  3 16  1  0  0  0  0
  4  5  1  0  0  0  0
  4 20  1  6  0  0  0
  5 15  1  6  0  0  0
  6 32  1  6  0  0  0
  6 19  1  0  0  0  0
  7 10  1  0  0  0  0
  7 14  1  0  0  0  0
  8 21  1  6  0  0  0
  8 13  1  0  0  0  0
  9 11  2  0  0  0  0
 10 11  1  6  0  0  0
 10  1  1  0  0  0  0
 11 17  1  0  0  0  0
 12 18  1  6  0  0  0
 12 22  1  0  0  0  0
 13 15  1  0  0  0  0
 14 25  1  1  0  0  0
 14  6  1  0  0  0  0
 16 17  2  0  0  0  0
 17 12  1  0  0  0  0
 18 23  1  0  0  0  0
 22  4  1  0  0  0  0
 23  8  1  0  0  0  0
 23  5  1  0  0  0  0
 24 25  1  0  0  0  0
 25 26  1  0  0  0  0
 27 26  1  0  0  0  0
 27 28  1  0  0  0  0
 28 29  2  0  0  0  0
 28 30  1  0  0  0  0
 31 32  1  0  0  0  0
M  END
>  <MODEL>
7

>  <REMARK>
 VINA RESULT:      -6.7      3.168      5.889
  Name = 
  5 active torsions:
  status: ('A' for Active; 'I' for Inactive)
    1  A    between atoms: C_7  and  C_19
    2  A    between atoms: C_10  and  C_17
    3  A    between atoms: C_10  and  O_20
    4  A    between atoms: O_20  and  C_29
    5  A    between atoms: C_29  and  C_30
                            x       y       z     vdW  Elec       q    Type
                         _______ _______ _______ _____ _____    ______ ____

>  <TORSDO>
F 5

$$$$
=
 OpenBabel11112416433D

 32 36  0  0  1  0  0  0  0  0999 V2000
  190.1470  174.2190  143.6600 C   0  0  1  0  0  3  0  0  0  0  0  0
  191.2520  176.2840  147.9900 C   0  0  0  0  0  3  0  0  0  0  0  0
  190.3550  177.3170  147.7120 C   0  0  0  0  0  3  0  0  0  0  0  0
  188.1190  174.9870  142.3380 C   0  0  2  0  0  3  0  0  0  0  0  0
  187.1320  176.1650  142.2560 C   0  0  2  0  0  3  0  0  0  0  0  0
  191.7220  172.4720  142.8430 C   0  0  2  0  0  3  0  0  0  0  0  0
  191.8430  173.1910  145.2120 O   0  0  0  0  0  0  0  0  0  0  0  0
  185.9270  177.8460  143.1940 C   0  0  2  0  0  3  0  0  0  0  0  0
  191.3450  175.1890  147.1290 C   0  0  0  0  0  3  0  0  0  0  0  0
  190.6130  173.9060  145.0890 C   0  0  1  0  0  3  0  0  0  0  0  0
  190.5480  175.1200  145.9780 C   0  0  0  0  0  0  0  0  0  0  0  0
  188.7690  176.1380  144.4520 C   0  0  2  0  0  3  0  0  0  0  0  0
  186.9630  178.5540  142.3400 C   0  0  0  0  0  2  0  0  0  0  0  0
  192.5620  173.0810  143.9900 C   0  0  2  0  0  3  0  0  0  0  0  0
  187.7580  177.4330  141.7030 C   0  0  0  0  0  2  0  0  0  0  0  0
  189.5410  177.2490  146.5790 C   0  0  0  0  0  3  0  0  0  0  0  0
  189.6020  176.1410  145.7190 C   0  0  0  0  0  0  0  0  0  0  0  0
  187.3230  176.5700  144.7050 C   0  0  0  0  0  2  0  0  0  0  0  0
  190.2610  172.9350  142.8630 C   0  0  0  0  0  2  0  0  0  0  0  0
  187.4680  173.8160  141.9510 O   0  0  0  0  0  1  0  0  0  0  0  0
  185.4870  178.6730  144.3980 C   0  0  0  0  0  1  0  0  0  0  0  0
  188.7340  174.7940  143.7270 C   0  0  2  0  0  3  0  0  0  0  0  0
  186.4400  176.5080  143.5100 N   0  0  2  0  0  0  0  0  0  0  0  0
  194.7390  174.2500  143.6160 C   0  0  0  0  0  1  0  0  0  0  0  0
  193.2290  174.4080  143.6040 C   0  0  1  0  0  3  0  0  0  0  0  0
  192.8170  174.8130  142.3320 O   0  0  0  0  0  0  0  0  0  0  0  0
  193.1920  176.1560  142.2430 C   0  0  0  0  0  2  0  0  0  0  0  0
  192.3190  176.9850  143.1190 C   0  0  0  0  0  0  0  0  0  0  0  0
  192.6750  177.2460  144.2970 O   0  0  0  0  0  1  0  0  0  0  0  0
  191.1260  177.4940  142.6260 O   0  0  0  0  0  0  0  0  0  0  0  0
  190.8030  170.3430  141.9310 C   0  0  0  0  0  1  0  0  0  0  0  0
  191.7950  170.9570  142.9000 C   0  0  0  0  0  2  0  0  0  0  0  0
  1 19  1  6  0  0  0
  1 22  1  0  0  0  0
  1 10  1  0  0  0  0
  3  2  1  0  0  0  0
  4 20  1  1  0  0  0
  4 22  1  0  0  0  0
  5 15  1  1  0  0  0
  5  4  1  0  0  0  0
  5 23  1  0  0  0  0
  6 19  1  0  0  0  0
  6 32  1  1  0  0  0
  6 14  1  0  0  0  0
  8 23  1  0  0  0  0
  8 21  1  1  0  0  0
  9  2  2  0  0  0  0
 10  7  1  6  0  0  0
 10 11  1  0  0  0  0
 11  9  1  0  0  0  0
 12 18  1  1  0  0  0
 12 17  1  0  0  0  0
 13  8  1  0  0  0  0
 14 25  1  6  0  0  0
 14  7  1  0  0  0  0
 15 13  1  0  0  0  0
 16  3  2  0  0  0  0
 17 11  2  0  0  0  0
 17 16  1  0  0  0  0
 22 12  1  0  0  0  0
 23 18  1  0  0  0  0
 25 24  1  0  0  0  0
 26 25  1  0  0  0  0
 27 26  1  0  0  0  0
 27 28  1  0  0  0  0
 28 29  1  0  0  0  0
 30 28  2  0  0  0  0
 31 32  1  0  0  0  0
M  END
>  <MODEL>
8

>  <REMARK>
 VINA RESULT:      -6.7      1.617      2.040
  Name = 
  5 active torsions:
  status: ('A' for Active; 'I' for Inactive)
    1  A    between atoms: C_7  and  C_19
    2  A    between atoms: C_10  and  C_17
    3  A    between atoms: C_10  and  O_20
    4  A    between atoms: O_20  and  C_29
    5  A    between atoms: C_29  and  C_30
                            x       y       z     vdW  Elec       q    Type
                         _______ _______ _______ _____ _____    ______ ____

>  <TORSDO>
F 5

$$$$
=
 OpenBabel11112416433D

 32 36  0  0  1  0  0  0  0  0999 V2000
  191.7620  175.6950  143.4280 C   0  0  1  0  0  3  0  0  0  0  0  0
  189.9400  172.2920  140.3740 C   0  0  0  0  0  3  0  0  0  0  0  0
  188.6490  172.6530  140.7620 C   0  0  0  0  0  3  0  0  0  0  0  0
  190.2540  177.4740  144.4340 C   0  0  2  0  0  3  0  0  0  0  0  0
  188.7630  177.7720  144.6700 C   0  0  2  0  0  3  0  0  0  0  0  0
  194.1860  175.5030  143.9660 C   0  0  2  0  0  3  0  0  0  0  0  0
  193.2710  174.2220  142.0530 O   0  0  0  0  0  0  0  0  0  0  0  0
  186.5720  177.6490  144.0830 C   0  0  2  0  0  3  0  0  0  0  0  0
  191.0370  173.0250  140.8290 C   0  0  0  0  0  3  0  0  0  0  0  0
  192.0390  174.9410  142.1200 C   0  0  1  0  0  3  0  0  0  0  0  0
  190.8550  174.1210  141.6840 C   0  0  0  0  0  0  0  0  0  0  0  0
  189.3050  175.6580  143.0140 C   0  0  2  0  0  3  0  0  0  0  0  0
  186.6780  176.7920  145.3310 C   0  0  0  0  0  2  0  0  0  0  0  0
  193.9440  174.1280  143.3020 C   0  0  2  0  0  3  0  0  0  0  0  0
  188.1360  176.8850  145.7320 C   0  0  0  0  0  2  0  0  0  0  0  0
  188.4530  173.7560  141.5970 C   0  0  0  0  0  3  0  0  0  0  0  0
  189.5430  174.5200  142.0400 C   0  0  0  0  0  0  0  0  0  0  0  0
  188.1330  176.5470  142.5960 C   0  0  0  0  0  2  0  0  0  0  0  0
  193.0170  176.4750  143.7680 C   0  0  0  0  0  2  0  0  0  0  0  0
  190.9400  178.6770  144.2620 O   0  0  0  0  0  1  0  0  0  0  0  0
  185.4560  177.1960  143.1470 C   0  0  0  0  0  1  0  0  0  0  0  0
  190.5190  176.5590  143.2350 C   0  0  2  0  0  3  0  0  0  0  0  0
  187.9050  177.7260  143.4730 N   0  0  2  0  0  0  0  0  0  0  0  0
  193.2520  171.7440  143.5960 C   0  0  0  0  0  1  0  0  0  0  0  0
  193.2640  173.1200  144.2380 C   0  0  1  0  0  3  0  0  0  0  0  0
  193.9370  173.0550  145.4600 O   0  0  0  0  0  0  0  0  0  0  0  0
  194.8630  172.0190  145.3060 C   0  0  0  0  0  2  0  0  0  0  0  0
  196.2080  172.4700  145.7570 C   0  0  0  0  0  0  0  0  0  0  0  0
  197.1740  171.6640  145.7630 O   0  0  0  0  0  0  0  0  0  0  0  0
  196.4020  173.7890  146.1420 O   0  0  0  0  0  1  0  0  0  0  0  0
  196.4070  175.0250  142.9420 C   0  0  0  0  0  1  0  0  0  0  0  0
  195.4720  176.1120  143.4380 C   0  0  0  0  0  2  0  0  0  0  0  0
  1 19  1  6  0  0  0
  2  3  2  0  0  0  0
  2  9  1  0  0  0  0
  3 16  1  0  0  0  0
  4 20  1  6  0  0  0
  4  5  1  0  0  0  0
  5 15  1  1  0  0  0
  6 32  1  6  0  0  0
  7 10  1  0  0  0  0
  7 14  1  0  0  0  0
  8 21  1  6  0  0  0
  8 13  1  0  0  0  0
  9 11  2  0  0  0  0
 10 11  1  1  0  0  0
 10  1  1  0  0  0  0
 11 17  1  0  0  0  0
 12 18  1  6  0  0  0
 12 22  1  0  0  0  0
 13 15  1  0  0  0  0
 14  6  1  0  0  0  0
 14 25  1  1  0  0  0
 16 17  2  0  0  0  0
 17 12  1  0  0  0  0
 18 23  1  0  0  0  0
 19  6  1  0  0  0  0
 22  1  1  0  0  0  0
 22  4  1  0  0  0  0
 23  8  1  0  0  0  0
 23  5  1  0  0  0  0
 24 25  1  0  0  0  0
 25 26  1  0  0  0  0
 27 26  1  0  0  0  0
 27 28  1  0  0  0  0
 28 29  2  0  0  0  0
 28 30  1  0  0  0  0
 31 32  1  0  0  0  0
M  END
>  <MODEL>
9

>  <REMARK>
 VINA RESULT:      -6.7      2.379      4.750
  Name = 
  5 active torsions:
  status: ('A' for Active; 'I' for Inactive)
    1  A    between atoms: C_7  and  C_19
    2  A    between atoms: C_10  and  C_17
    3  A    between atoms: C_10  and  O_20
    4  A    between atoms: O_20  and  C_29
    5  A    between atoms: C_29  and  C_30
                            x       y       z     vdW  Elec       q    Type
                         _______ _______ _______ _____ _____    ______ ____

>  <TORSDO>
F 5

$$$$
