=
 OpenBabel11112417003D

 31 35  0  0  0  0  0  0  0  0999 V2000
  184.3140  178.5520  146.2230 C   0  0  0  0  0  0  0  0  0  0  0  0
  186.8920  177.4760  143.6980 C   0  0  0  0  0  0  0  0  0  0  0  0
  186.3070  177.6190  142.4060 C   0  0  0  0  0  0  0  0  0  0  0  0
  190.5150  176.3540  147.3450 O   0  0  0  0  0  0  0  0  0  0  0  0
  191.0040  176.1140  146.2100 C   0  0  0  0  0  0  0  0  0  0  0  0
  184.4620  178.2110  140.9190 C   0  0  0  0  0  0  0  0  0  0  0  0
  186.2380  177.7820  144.9290 C   0  0  0  0  0  0  0  0  0  0  0  0
  185.0190  178.3590  147.4100 C   0  0  0  0  0  3  0  0  0  0  0  0
  184.9960  178.0860  142.2040 C   0  0  0  0  0  3  0  0  0  0  0  0
  188.8680  176.8260  144.9910 C   0  0  0  0  0  0  0  0  0  0  0  0
  183.0430  179.0170  146.2570 F   0  0  0  0  0  0  0  0  0  0  0  0
  188.3390  176.8250  141.4130 N   0  0  0  0  0  0  0  0  0  0  0  0
  183.1960  178.6630  140.7540 F   0  0  0  0  0  0  0  0  0  0  0  0
  188.2110  177.1280  146.1400 N   0  0  0  0  0  0  0  0  0  0  0  0
  188.2260  176.9930  143.7570 C   0  0  0  0  0  0  0  0  0  0  0  0
  190.2170  176.3370  145.0300 N   0  0  0  0  0  2  0  0  0  0  0  0
  184.9190  178.2660  144.9970 C   0  0  0  0  0  3  0  0  0  0  0  0
  185.2320  177.8700  139.8080 C   0  0  0  0  0  3  0  0  0  0  0  0
  186.9390  177.5920  146.1470 C   0  0  0  0  0  0  0  0  0  0  0  0
  186.3290  177.8800  147.3710 C   0  0  0  0  0  3  0  0  0  0  0  0
  188.8940  176.6880  142.6140 N   0  0  0  0  0  0  0  0  0  0  0  0
  187.0730  177.2790  141.2660 C   0  0  0  0  0  0  0  0  0  0  0  0
  186.5350  177.4040  139.9820 C   0  0  0  0  0  3  0  0  0  0  0  0
  195.0760  174.7710  145.8750 C   0  0  0  0  0  0  0  0  0  0  0  0
  193.4390  176.4240  146.5200 C   0  0  0  0  0  3  0  0  0  0  0  0
  191.5130  173.2030  144.9110 Cl  0  0  0  0  0  0  0  0  0  0  0  0
  196.3980  174.3610  145.7780 O   0  0  0  0  0  1  0  0  0  0  0  0
  194.7690  176.0140  146.4240 C   0  0  0  0  0  3  0  0  0  0  0  0
  192.7140  174.3370  145.5140 C   0  0  0  0  0  0  0  0  0  0  0  0
  192.3910  175.6020  146.0720 C   0  0  0  0  0  0  0  0  0  0  0  0
  194.0520  173.9380  145.4220 C   0  0  0  0  0  3  0  0  0  0  0  0
  1 11  1  0  0  0  0
  1  8  1  0  0  0  0
  2 15  1  0  0  0  0
  2  7  1  0  0  0  0
  3  2  2  0  0  0  0
  5  4  2  0  0  0  0
  6  9  2  0  0  0  0
  7 17  1  0  0  0  0
  7 19  2  0  0  0  0
  9  3  1  0  0  0  0
 10 16  1  0  0  0  0
 10 14  2  0  0  0  0
 12 21  1  0  0  0  0
 13  6  1  0  0  0  0
 14 19  1  0  0  0  0
 15 10  1  0  0  0  0
 16  5  1  0  0  0  0
 17  1  2  0  0  0  0
 18 23  2  0  0  0  0
 18  6  1  0  0  0  0
 19 20  1  0  0  0  0
 20  8  2  0  0  0  0
 21 15  2  0  0  0  0
 22 12  2  0  0  0  0
 22  3  1  0  0  0  0
 23 22  1  0  0  0  0
 24 28  1  0  0  0  0
 26 29  1  0  0  0  0
 27 24  1  0  0  0  0
 28 25  2  0  0  0  0
 29 30  2  0  0  0  0
 30  5  1  0  0  0  0
 30 25  1  0  0  0  0
 31 29  1  0  0  0  0
 31 24  2  0  0  0  0
M  END
>  <MODEL>
1

>  <REMARK>
 VINA RESULT:     -10.3      0.000      0.000
  Name = 
  1 active torsions:
  status: ('A' for Active; 'I' for Inactive)
    1  A    between atoms: C_5  and  C_30
                            x       y       z     vdW  Elec       q    Type
                         _______ _______ _______ _____ _____    ______ ____

>  <TORSDO>
F 1

$$$$
=
 OpenBabel11112417003D

 31 35  0  0  0  0  0  0  0  0999 V2000
  184.9590  178.0450  146.8750 C   0  0  0  0  0  0  0  0  0  0  0  0
  186.7730  177.6750  143.5950 C   0  0  0  0  0  0  0  0  0  0  0  0
  185.8110  177.8480  142.5570 C   0  0  0  0  0  0  0  0  0  0  0  0
  191.4400  176.8150  145.8660 O   0  0  0  0  0  0  0  0  0  0  0  0
  191.5910  176.7750  144.6160 C   0  0  0  0  0  0  0  0  0  0  0  0
  183.5430  178.2690  141.7550 C   0  0  0  0  0  0  0  0  0  0  0  0
  186.4860  177.7420  144.9920 C   0  0  0  0  0  0  0  0  0  0  0  0
  186.0080  177.8540  147.7730 C   0  0  0  0  0  3  0  0  0  0  0  0
  184.4510  178.1060  142.8040 C   0  0  0  0  0  3  0  0  0  0  0  0
  189.1130  177.2390  144.1680 C   0  0  0  0  0  0  0  0  0  0  0  0
  183.7080  178.2840  147.3350 F   0  0  0  0  0  0  0  0  0  0  0  0
  187.5340  177.5090  140.9250 N   0  0  0  0  0  0  0  0  0  0  0  0
  182.2380  178.5170  142.0220 F   0  0  0  0  0  0  0  0  0  0  0  0
  188.8000  177.3090  145.4870 N   0  0  0  0  0  0  0  0  0  0  0  0
  188.1130  177.4190  143.2040 C   0  0  0  0  0  0  0  0  0  0  0  0
  190.4630  176.9810  143.7520 N   0  0  0  0  0  2  0  0  0  0  0  0
  185.1970  177.9890  145.5000 C   0  0  0  0  0  3  0  0  0  0  0  0
  183.9800  178.1760  140.4340 C   0  0  0  0  0  3  0  0  0  0  0  0
  187.5410  177.5500  145.9200 C   0  0  0  0  0  0  0  0  0  0  0  0
  187.2960  177.6070  147.2960 C   0  0  0  0  0  3  0  0  0  0  0  0
  188.4390  177.3470  141.8870 N   0  0  0  0  0  0  0  0  0  0  0  0
  186.2350  177.7570  141.2100 C   0  0  0  0  0  0  0  0  0  0  0  0
  185.3230  177.9200  140.1630 C   0  0  0  0  0  3  0  0  0  0  0  0
  195.3840  176.0060  142.7410 C   0  0  0  0  0  0  0  0  0  0  0  0
  192.9790  176.2010  142.6510 C   0  0  0  0  0  3  0  0  0  0  0  0
  194.2330  176.9620  146.4620 Cl  0  0  0  0  0  0  0  0  0  0  0  0
  196.5960  175.7540  142.1130 O   0  0  0  0  0  1  0  0  0  0  0  0
  194.1960  175.9470  142.0160 C   0  0  0  0  0  3  0  0  0  0  0  0
  194.1420  176.5780  144.7480 C   0  0  0  0  0  0  0  0  0  0  0  0
  192.9260  176.5200  144.0180 C   0  0  0  0  0  0  0  0  0  0  0  0
  195.3560  176.3200  144.1000 C   0  0  0  0  0  3  0  0  0  0  0  0
  1 11  1  0  0  0  0
  1  8  1  0  0  0  0
  2  7  1  0  0  0  0
  3  9  1  0  0  0  0
  3  2  2  0  0  0  0
  5  4  2  0  0  0  0
  6 13  1  0  0  0  0
  6  9  2  0  0  0  0
  7 17  1  0  0  0  0
  7 19  2  0  0  0  0
 10 14  2  0  0  0  0
 12 22  2  0  0  0  0
 12 21  1  0  0  0  0
 14 19  1  0  0  0  0
 15  2  1  0  0  0  0
 15 10  1  0  0  0  0
 16 10  1  0  0  0  0
 16  5  1  0  0  0  0
 17  1  2  0  0  0  0
 18  6  1  0  0  0  0
 19 20  1  0  0  0  0
 20  8  2  0  0  0  0
 21 15  2  0  0  0  0
 22  3  1  0  0  0  0
 23 18  2  0  0  0  0
 23 22  1  0  0  0  0
 24 31  1  0  0  0  0
 25 30  2  0  0  0  0
 27 24  1  0  0  0  0
 28 25  1  0  0  0  0
 28 24  2  0  0  0  0
 29 26  1  0  0  0  0
 30  5  1  0  0  0  0
 30 29  1  0  0  0  0
 31 29  2  0  0  0  0
M  END
>  <MODEL>
2

>  <REMARK>
 VINA RESULT:     -10.2      1.941      2.108
  Name = 
  1 active torsions:
  status: ('A' for Active; 'I' for Inactive)
    1  A    between atoms: C_5  and  C_30
                            x       y       z     vdW  Elec       q    Type
                         _______ _______ _______ _____ _____    ______ ____

>  <TORSDO>
F 1

$$$$
=
 OpenBabel11112417003D

 31 35  0  0  0  0  0  0  0  0999 V2000
  185.5800  177.9160  141.0140 C   0  0  0  0  0  0  0  0  0  0  0  0
  187.2850  177.3940  144.3310 C   0  0  0  0  0  0  0  0  0  0  0  0
  186.3590  177.7680  145.3480 C   0  0  0  0  0  0  0  0  0  0  0  0
  191.7610  175.6760  142.1630 O   0  0  0  0  0  0  0  0  0  0  0  0
  191.8950  175.6670  143.4150 C   0  0  0  0  0  0  0  0  0  0  0  0
  184.1860  178.5920  146.1000 C   0  0  0  0  0  0  0  0  0  0  0  0
  187.0220  177.4450  142.9290 C   0  0  0  0  0  0  0  0  0  0  0  0
  186.5900  177.5160  140.1390 C   0  0  0  0  0  3  0  0  0  0  0  0
  185.0620  178.2360  145.0710 C   0  0  0  0  0  3  0  0  0  0  0  0
  189.5250  176.5520  143.8090 C   0  0  0  0  0  0  0  0  0  0  0  0
  184.3900  178.3390  140.5270 F   0  0  0  0  0  0  0  0  0  0  0  0
  187.9910  177.2200  147.0160 N   0  0  0  0  0  0  0  0  0  0  0  0
  182.9430  179.0410  145.8040 F   0  0  0  0  0  0  0  0  0  0  0  0
  189.2370  176.6160  142.4840 N   0  0  0  0  0  0  0  0  0  0  0  0
  188.5620  176.9370  144.7510 C   0  0  0  0  0  0  0  0  0  0  0  0
  190.8100  176.0930  144.2540 N   0  0  0  0  0  2  0  0  0  0  0  0
  185.7960  177.8800  142.3930 C   0  0  0  0  0  3  0  0  0  0  0  0
  184.5920  178.4840  147.4290 C   0  0  0  0  0  3  0  0  0  0  0  0
  188.0380  177.0430  142.0240 C   0  0  0  0  0  0  0  0  0  0  0  0
  187.8150  177.0810  140.6440 C   0  0  0  0  0  3  0  0  0  0  0  0
  188.8620  176.8680  146.0740 N   0  0  0  0  0  0  0  0  0  0  0  0
  186.7520  177.6660  146.7030 C   0  0  0  0  0  0  0  0  0  0  0  0
  185.8730  178.0230  147.7300 C   0  0  0  0  0  3  0  0  0  0  0  0
  195.6360  174.5140  145.1950 C   0  0  0  0  0  0  0  0  0  0  0  0
  194.2340  176.1280  144.0740 C   0  0  0  0  0  3  0  0  0  0  0  0
  192.1100  172.6870  144.6380 Cl  0  0  0  0  0  0  0  0  0  0  0  0
  196.8540  174.1660  145.7630 O   0  0  0  0  0  1  0  0  0  0  0  0
  195.4600  175.7810  144.6440 C   0  0  0  0  0  3  0  0  0  0  0  0
  193.3540  173.9290  144.6050 C   0  0  0  0  0  0  0  0  0  0  0  0
  193.1640  175.2180  144.0420 C   0  0  0  0  0  0  0  0  0  0  0  0
  194.5880  173.5930  145.1740 C   0  0  0  0  0  3  0  0  0  0  0  0
  1 17  1  0  0  0  0
  2 15  2  0  0  0  0
  2  3  1  0  0  0  0
  3 22  1  0  0  0  0
  4  5  2  0  0  0  0
  5 30  1  0  0  0  0
  5 16  1  0  0  0  0
  6 18  2  0  0  0  0
  7  2  1  0  0  0  0
  8 20  1  0  0  0  0
  8  1  2  0  0  0  0
  9  3  2  0  0  0  0
  9  6  1  0  0  0  0
 10 16  1  0  0  0  0
 10 15  1  0  0  0  0
 11  1  1  0  0  0  0
 13  6  1  0  0  0  0
 14 10  2  0  0  0  0
 15 21  1  0  0  0  0
 17  7  2  0  0  0  0
 18 23  1  0  0  0  0
 19 14  1  0  0  0  0
 19  7  1  0  0  0  0
 20 19  2  0  0  0  0
 21 12  2  0  0  0  0
 22 12  1  0  0  0  0
 22 23  2  0  0  0  0
 24 27  1  0  0  0  0
 25 28  1  0  0  0  0
 28 24  2  0  0  0  0
 29 26  1  0  0  0  0
 29 31  2  0  0  0  0
 30 25  2  0  0  0  0
 30 29  1  0  0  0  0
 31 24  1  0  0  0  0
M  END
>  <MODEL>
3

>  <REMARK>
 VINA RESULT:      -9.5      1.496      4.166
  Name = 
  1 active torsions:
  status: ('A' for Active; 'I' for Inactive)
    1  A    between atoms: C_5  and  C_30
                            x       y       z     vdW  Elec       q    Type
                         _______ _______ _______ _____ _____    ______ ____

>  <TORSDO>
F 1

$$$$
=
 OpenBabel11112417003D

 31 35  0  0  0  0  0  0  0  0999 V2000
  190.8070  176.8760  147.4910 C   0  0  0  0  0  0  0  0  0  0  0  0
  188.2810  176.4350  144.7320 C   0  0  0  0  0  0  0  0  0  0  0  0
  187.1230  177.1830  145.0940 C   0  0  0  0  0  0  0  0  0  0  0  0
  191.4130  173.3150  141.8800 O   0  0  0  0  0  0  0  0  0  0  0  0
  190.3250  173.4590  141.2630 C   0  0  0  0  0  0  0  0  0  0  0  0
  185.8720  178.6440  146.6000 C   0  0  0  0  0  0  0  0  0  0  0  0
  189.4700  176.3430  145.5170 C   0  0  0  0  0  0  0  0  0  0  0  0
  191.8590  176.1030  147.0040 C   0  0  0  0  0  3  0  0  0  0  0  0
  187.0270  177.9240  146.2850 C   0  0  0  0  0  3  0  0  0  0  0  0
  189.3430  174.9750  143.0780 C   0  0  0  0  0  0  0  0  0  0  0  0
  190.9280  177.5140  148.6790 F   0  0  0  0  0  0  0  0  0  0  0  0
  186.0580  176.4890  143.0610 N   0  0  0  0  0  0  0  0  0  0  0  0
  185.8070  179.3490  147.7550 F   0  0  0  0  0  0  0  0  0  0  0  0
  190.4560  174.9120  143.8520 N   0  0  0  0  0  0  0  0  0  0  0  0
  188.2430  175.7320  143.5000 C   0  0  0  0  0  0  0  0  0  0  0  0
  189.2840  174.2720  141.8270 N   0  0  0  0  0  2  0  0  0  0  0  0
  189.6260  176.9930  146.7540 C   0  0  0  0  0  3  0  0  0  0  0  0
  184.7860  178.6370  145.7250 C   0  0  0  0  0  3  0  0  0  0  0  0
  190.5510  175.5600  145.0370 C   0  0  0  0  0  0  0  0  0  0  0  0
  191.7310  175.4460  145.7790 C   0  0  0  0  0  3  0  0  0  0  0  0
  187.1340  175.7880  142.7150 N   0  0  0  0  0  0  0  0  0  0  0  0
  186.0110  177.1880  144.2190 C   0  0  0  0  0  0  0  0  0  0  0  0
  184.8560  177.9090  144.5370 C   0  0  0  0  0  3  0  0  0  0  0  0
  189.6320  171.6920  137.4040 C   0  0  0  0  0  0  0  0  0  0  0  0
  189.7100  173.6080  138.8710 C   0  0  0  0  0  3  0  0  0  0  0  0
  190.7340  170.2690  140.9880 Cl  0  0  0  0  0  0  0  0  0  0  0  0
  189.4020  171.1460  136.1480 O   0  0  0  0  0  1  0  0  0  0  0  0
  189.4780  173.0610  137.6080 C   0  0  0  0  0  3  0  0  0  0  0  0
  190.2530  171.4040  139.7340 C   0  0  0  0  0  0  0  0  0  0  0  0
  190.0990  172.7990  139.9520 C   0  0  0  0  0  0  0  0  0  0  0  0
  190.0180  170.8690  138.4620 C   0  0  0  0  0  3  0  0  0  0  0  0
  1 11  1  0  0  0  0
  2  3  1  0  0  0  0
  2  7  1  0  0  0  0
  3  9  1  0  0  0  0
  5 16  1  0  0  0  0
  5  4  2  0  0  0  0
  6 13  1  0  0  0  0
  7 17  1  0  0  0  0
  8  1  1  0  0  0  0
  9  6  2  0  0  0  0
 10 15  1  0  0  0  0
 10 14  2  0  0  0  0
 12 22  1  0  0  0  0
 14 19  1  0  0  0  0
 15  2  2  0  0  0  0
 16 10  1  0  0  0  0
 17  1  2  0  0  0  0
 18  6  1  0  0  0  0
 19  7  2  0  0  0  0
 19 20  1  0  0  0  0
 20  8  2  0  0  0  0
 21 12  2  0  0  0  0
 21 15  1  0  0  0  0
 22 23  1  0  0  0  0
 22  3  2  0  0  0  0
 23 18  2  0  0  0  0
 24 28  2  0  0  0  0
 24 31  1  0  0  0  0
 25 30  2  0  0  0  0
 27 24  1  0  0  0  0
 28 25  1  0  0  0  0
 29 30  1  0  0  0  0
 29 26  1  0  0  0  0
 30  5  1  0  0  0  0
 31 29  2  0  0  0  0
M  END
>  <MODEL>
4

>  <REMARK>
 VINA RESULT:      -9.0      4.425      6.315
  Name = 
  1 active torsions:
  status: ('A' for Active; 'I' for Inactive)
    1  A    between atoms: C_5  and  C_30
                            x       y       z     vdW  Elec       q    Type
                         _______ _______ _______ _____ _____    ______ ____

>  <TORSDO>
F 1

$$$$
=
 OpenBabel11112417003D

 31 35  0  0  0  0  0  0  0  0999 V2000
  186.0380  177.4600  141.1320 C   0  0  0  0  0  0  0  0  0  0  0  0
  187.4610  176.4260  144.4630 C   0  0  0  0  0  0  0  0  0  0  0  0
  186.6410  177.0090  145.4730 C   0  0  0  0  0  0  0  0  0  0  0  0
  191.3740  173.6330  142.3250 O   0  0  0  0  0  0  0  0  0  0  0  0
  191.4690  173.5590  143.5790 C   0  0  0  0  0  0  0  0  0  0  0  0
  184.7470  178.3620  146.2110 C   0  0  0  0  0  0  0  0  0  0  0  0
  187.2560  176.5790  143.0580 C   0  0  0  0  0  0  0  0  0  0  0  0
  186.9270  176.8280  140.2650 C   0  0  0  0  0  3  0  0  0  0  0  0
  185.5230  177.8110  145.1880 C   0  0  0  0  0  3  0  0  0  0  0  0
  189.4100  175.0330  143.9560 C   0  0  0  0  0  0  0  0  0  0  0  0
  185.0150  178.1960  140.6370 F   0  0  0  0  0  0  0  0  0  0  0  0
  188.0280  176.0080  147.1530 N   0  0  0  0  0  0  0  0  0  0  0  0
  183.6740  179.1320  145.9060 F   0  0  0  0  0  0  0  0  0  0  0  0
  189.1820  175.2020  142.6290 N   0  0  0  0  0  0  0  0  0  0  0  0
  188.5600  175.6380  144.8910 C   0  0  0  0  0  0  0  0  0  0  0  0
  190.5160  174.2380  144.4100 N   0  0  0  0  0  2  0  0  0  0  0  0
  186.2030  177.3360  142.5140 C   0  0  0  0  0  3  0  0  0  0  0  0
  185.0760  178.1200  147.5440 C   0  0  0  0  0  3  0  0  0  0  0  0
  188.1510  175.9430  142.1600 C   0  0  0  0  0  0  0  0  0  0  0  0
  187.9810  176.0710  140.7780 C   0  0  0  0  0  3  0  0  0  0  0  0
  188.7980  175.4600  146.2180 N   0  0  0  0  0  0  0  0  0  0  0  0
  186.9600  176.7740  146.8320 C   0  0  0  0  0  0  0  0  0  0  0  0
  186.1820  177.3270  147.8530 C   0  0  0  0  0  3  0  0  0  0  0  0
  194.6810  171.4270  145.4850 C   0  0  0  0  0  0  0  0  0  0  0  0
  193.4800  173.4690  145.0170 C   0  0  0  0  0  3  0  0  0  0  0  0
  191.6470  170.3740  143.0820 Cl  0  0  0  0  0  0  0  0  0  0  0  0
  195.7260  170.7620  146.1110 O   0  0  0  0  0  1  0  0  0  0  0  0
  194.5320  172.8020  145.6480 C   0  0  0  0  0  3  0  0  0  0  0  0
  192.7190  171.3740  144.0550 C   0  0  0  0  0  0  0  0  0  0  0  0
  192.5580  172.7750  144.2140 C   0  0  0  0  0  0  0  0  0  0  0  0
  193.7780  170.7180  144.6920 C   0  0  0  0  0  3  0  0  0  0  0  0
  1 17  1  0  0  0  0
  2 15  2  0  0  0  0
  2  3  1  0  0  0  0
  3 22  1  0  0  0  0
  4  5  2  0  0  0  0
  5 30  1  0  0  0  0
  5 16  1  0  0  0  0
  6 18  2  0  0  0  0
  7  2  1  0  0  0  0
  8 20  1  0  0  0  0
  8  1  2  0  0  0  0
  9  3  2  0  0  0  0
  9  6  1  0  0  0  0
 10 16  1  0  0  0  0
 10 15  1  0  0  0  0
 11  1  1  0  0  0  0
 13  6  1  0  0  0  0
 14 10  2  0  0  0  0
 15 21  1  0  0  0  0
 17  7  2  0  0  0  0
 18 23  1  0  0  0  0
 19 14  1  0  0  0  0
 19  7  1  0  0  0  0
 20 19  2  0  0  0  0
 21 12  2  0  0  0  0
 22 12  1  0  0  0  0
 22 23  2  0  0  0  0
 24 28  1  0  0  0  0
 24 27  1  0  0  0  0
 25 28  2  0  0  0  0
 26 29  1  0  0  0  0
 29 30  2  0  0  0  0
 29 31  1  0  0  0  0
 30 25  1  0  0  0  0
 31 24  2  0  0  0  0
M  END
>  <MODEL>
5

>  <REMARK>
 VINA RESULT:      -8.8      2.090      4.592
  Name = 
  1 active torsions:
  status: ('A' for Active; 'I' for Inactive)
    1  A    between atoms: C_5  and  C_30
                            x       y       z     vdW  Elec       q    Type
                         _______ _______ _______ _____ _____    ______ ____

>  <TORSDO>
F 1

$$$$
=
 OpenBabel11112417003D

 31 35  0  0  0  0  0  0  0  0999 V2000
  186.3280  178.7920  143.5660 C   0  0  0  0  0  0  0  0  0  0  0  0
  189.0240  176.1620  143.5250 C   0  0  0  0  0  0  0  0  0  0  0  0
  189.7090  176.2370  144.7730 C   0  0  0  0  0  0  0  0  0  0  0  0
  187.8060  174.4820  138.6900 O   0  0  0  0  0  0  0  0  0  0  0  0
  188.7740  173.7990  139.1180 C   0  0  0  0  0  0  0  0  0  0  0  0
  190.0710  177.1960  146.9900 C   0  0  0  0  0  0  0  0  0  0  0  0
  187.9280  176.9950  143.1440 C   0  0  0  0  0  0  0  0  0  0  0  0
  185.7600  178.5990  142.3080 C   0  0  0  0  0  3  0  0  0  0  0  0
  189.3720  177.1580  145.7810 C   0  0  0  0  0  3  0  0  0  0  0  0
  188.8440  175.0510  141.3500 C   0  0  0  0  0  0  0  0  0  0  0  0
  185.8420  179.7500  144.3900 F   0  0  0  0  0  0  0  0  0  0  0  0
  191.1390  174.4430  144.0780 N   0  0  0  0  0  0  0  0  0  0  0  0
  189.7240  178.0940  147.9430 F   0  0  0  0  0  0  0  0  0  0  0  0
  187.8060  175.8630  141.0250 N   0  0  0  0  0  0  0  0  0  0  0  0
  189.4680  175.1840  142.5970 C   0  0  0  0  0  0  0  0  0  0  0  0
  189.3080  174.0550  140.4260 N   0  0  0  0  0  2  0  0  0  0  0  0
  187.4010  177.9970  143.9770 C   0  0  0  0  0  3  0  0  0  0  0  0
  191.1230  176.3100  147.2140 C   0  0  0  0  0  3  0  0  0  0  0  0
  187.3380  176.8130  141.8680 C   0  0  0  0  0  0  0  0  0  0  0  0
  186.2640  177.6110  141.4610 C   0  0  0  0  0  3  0  0  0  0  0  0
  190.5060  174.3650  142.9110 N   0  0  0  0  0  0  0  0  0  0  0  0
  190.7800  175.3460  145.0200 C   0  0  0  0  0  0  0  0  0  0  0  0
  191.4770  175.3870  146.2300 C   0  0  0  0  0  3  0  0  0  0  0  0
  190.4740  170.5820  136.8250 C   0  0  0  0  0  0  0  0  0  0  0  0
  189.3330  171.4120  138.7840 C   0  0  0  0  0  3  0  0  0  0  0  0
  190.1120  174.5380  136.2740 Cl  0  0  0  0  0  0  0  0  0  0  0  0
  191.0150  169.5260  136.1050 O   0  0  0  0  0  1  0  0  0  0  0  0
  189.8770  170.3490  138.0620 C   0  0  0  0  0  3  0  0  0  0  0  0
  189.9850  172.9520  137.0240 C   0  0  0  0  0  0  0  0  0  0  0  0
  189.3750  172.7260  138.2860 C   0  0  0  0  0  0  0  0  0  0  0  0
  190.5270  171.8770  136.3100 C   0  0  0  0  0  3  0  0  0  0  0  0
  1 17  1  0  0  0  0
  1 11  1  0  0  0  0
  2  3  1  0  0  0  0
  3 22  2  0  0  0  0
  3  9  1  0  0  0  0
  4  5  2  0  0  0  0
  5 16  1  0  0  0  0
  6 18  1  0  0  0  0
  6 13  1  0  0  0  0
  7  2  1  0  0  0  0
  7 17  2  0  0  0  0
  8  1  2  0  0  0  0
  9  6  2  0  0  0  0
 10 15  1  0  0  0  0
 12 22  1  0  0  0  0
 14 10  2  0  0  0  0
 14 19  1  0  0  0  0
 15 21  1  0  0  0  0
 15  2  2  0  0  0  0
 16 10  1  0  0  0  0
 19  7  1  0  0  0  0
 20 19  2  0  0  0  0
 20  8  1  0  0  0  0
 21 12  2  0  0  0  0
 22 23  1  0  0  0  0
 23 18  2  0  0  0  0
 24 28  1  0  0  0  0
 26 29  1  0  0  0  0
 27 24  1  0  0  0  0
 28 25  2  0  0  0  0
 29 30  2  0  0  0  0
 30 25  1  0  0  0  0
 30  5  1  0  0  0  0
 31 24  2  0  0  0  0
 31 29  1  0  0  0  0
M  END
>  <MODEL>
6

>  <REMARK>
 VINA RESULT:      -8.5      4.945      7.219
  Name = 
  1 active torsions:
  status: ('A' for Active; 'I' for Inactive)
    1  A    between atoms: C_5  and  C_30
                            x       y       z     vdW  Elec       q    Type
                         _______ _______ _______ _____ _____    ______ ____

>  <TORSDO>
F 1

$$$$
=
 OpenBabel11112417003D

 31 35  0  0  0  0  0  0  0  0999 V2000
  190.4450  177.2190  147.5440 C   0  0  0  0  0  0  0  0  0  0  0  0
  188.5140  176.1170  144.5040 C   0  0  0  0  0  0  0  0  0  0  0  0
  187.3660  176.9560  144.4040 C   0  0  0  0  0  0  0  0  0  0  0  0
  191.9220  172.2990  143.2830 O   0  0  0  0  0  0  0  0  0  0  0  0
  190.9970  172.2970  142.4280 C   0  0  0  0  0  0  0  0  0  0  0  0
  185.9450  178.7840  145.1830 C   0  0  0  0  0  0  0  0  0  0  0  0
  189.5060  176.2110  145.5260 C   0  0  0  0  0  0  0  0  0  0  0  0
  191.5140  176.3240  147.5080 C   0  0  0  0  0  3  0  0  0  0  0  0
  187.0830  177.9850  145.3200 C   0  0  0  0  0  3  0  0  0  0  0  0
  189.7800  174.2540  143.5430 C   0  0  0  0  0  0  0  0  0  0  0  0
  190.3670  178.1430  148.5300 F   0  0  0  0  0  0  0  0  0  0  0  0
  186.6920  175.7730  142.4310 N   0  0  0  0  0  0  0  0  0  0  0  0
  185.6980  179.7680  146.0810 F   0  0  0  0  0  0  0  0  0  0  0  0
  190.7020  174.3750  144.5320 N   0  0  0  0  0  0  0  0  0  0  0  0
  188.6760  175.1160  143.5110 C   0  0  0  0  0  0  0  0  0  0  0  0
  189.9270  173.2490  142.5290 N   0  0  0  0  0  2  0  0  0  0  0  0
  189.4530  177.1610  146.5620 C   0  0  0  0  0  3  0  0  0  0  0  0
  185.0650  178.5680  144.1240 C   0  0  0  0  0  3  0  0  0  0  0  0
  190.6010  175.3100  145.5060 C   0  0  0  0  0  0  0  0  0  0  0  0
  191.5910  175.3720  146.4920 C   0  0  0  0  0  3  0  0  0  0  0  0
  187.7600  174.9850  142.5160 N   0  0  0  0  0  0  0  0  0  0  0  0
  186.4610  176.7520  143.3360 C   0  0  0  0  0  0  0  0  0  0  0  0
  185.3220  177.5530  143.2030 C   0  0  0  0  0  3  0  0  0  0  0  0
  190.9750  169.3480  139.2980 C   0  0  0  0  0  0  0  0  0  0  0  0
  190.8280  169.9620  141.6290 C   0  0  0  0  0  3  0  0  0  0  0  0
  191.3760  173.3370  139.3960 Cl  0  0  0  0  0  0  0  0  0  0  0  0
  190.9650  168.3770  138.3060 O   0  0  0  0  0  1  0  0  0  0  0  0
  190.8170  168.9830  140.6330 C   0  0  0  0  0  3  0  0  0  0  0  0
  191.1560  171.6810  139.9460 C   0  0  0  0  0  0  0  0  0  0  0  0
  190.9960  171.3200  141.3100 C   0  0  0  0  0  0  0  0  0  0  0  0
  191.1440  170.6900  138.9580 C   0  0  0  0  0  3  0  0  0  0  0  0
  1 11  1  0  0  0  0
  2  7  1  0  0  0  0
  3  2  1  0  0  0  0
  3  9  1  0  0  0  0
  5 16  1  0  0  0  0
  5  4  2  0  0  0  0
  6  9  2  0  0  0  0
  6 13  1  0  0  0  0
  7 17  1  0  0  0  0
  8  1  1  0  0  0  0
 10 14  2  0  0  0  0
 12 21  2  0  0  0  0
 12 22  1  0  0  0  0
 14 19  1  0  0  0  0
 15 10  1  0  0  0  0
 15  2  2  0  0  0  0
 16 10  1  0  0  0  0
 17  1  2  0  0  0  0
 18  6  1  0  0  0  0
 19  7  2  0  0  0  0
 19 20  1  0  0  0  0
 20  8  2  0  0  0  0
 21 15  1  0  0  0  0
 22  3  2  0  0  0  0
 23 22  1  0  0  0  0
 23 18  2  0  0  0  0
 24 28  1  0  0  0  0
 26 29  1  0  0  0  0
 27 24  1  0  0  0  0
 28 25  2  0  0  0  0
 29 30  2  0  0  0  0
 30 25  1  0  0  0  0
 30  5  1  0  0  0  0
 31 24  2  0  0  0  0
 31 29  1  0  0  0  0
M  END
>  <MODEL>
7

>  <REMARK>
 VINA RESULT:      -8.4      4.448      5.766
  Name = 
  1 active torsions:
  status: ('A' for Active; 'I' for Inactive)
    1  A    between atoms: C_5  and  C_30
                            x       y       z     vdW  Elec       q    Type
                         _______ _______ _______ _____ _____    ______ ____

>  <TORSDO>
F 1

$$$$
=
 OpenBabel11112417003D

 31 35  0  0  0  0  0  0  0  0999 V2000
  195.1040  174.4320  145.7640 C   0  0  0  0  0  0  0  0  0  0  0  0
  191.8470  173.4580  144.1430 C   0  0  0  0  0  0  0  0  0  0  0  0
  192.0320  172.1720  143.5570 C   0  0  0  0  0  0  0  0  0  0  0  0
  189.4100  177.9050  145.5460 O   0  0  0  0  0  0  0  0  0  0  0  0
  188.5970  177.1900  144.9030 C   0  0  0  0  0  0  0  0  0  0  0  0
  193.3840  170.2070  143.0330 C   0  0  0  0  0  0  0  0  0  0  0  0
  192.8500  174.1820  144.8570 C   0  0  0  0  0  0  0  0  0  0  0  0
  194.7720  175.6830  146.2800 C   0  0  0  0  0  3  0  0  0  0  0  0
  193.2470  171.4660  143.6210 C   0  0  0  0  0  3  0  0  0  0  0  0
  190.3110  175.3210  144.5520 C   0  0  0  0  0  0  0  0  0  0  0  0
  196.3500  173.9340  145.9430 F   0  0  0  0  0  0  0  0  0  0  0  0
  189.7620  172.2110  142.7900 N   0  0  0  0  0  0  0  0  0  0  0  0
  194.5660  169.5490  143.1100 F   0  0  0  0  0  0  0  0  0  0  0  0
  191.2910  175.9780  145.2230 N   0  0  0  0  0  0  0  0  0  0  0  0
  190.5690  174.0590  144.0030 C   0  0  0  0  0  0  0  0  0  0  0  0
  189.0110  175.9110  144.4000 N   0  0  0  0  0  2  0  0  0  0  0  0
  194.1520  173.6910  145.0600 C   0  0  0  0  0  3  0  0  0  0  0  0
  192.3050  169.6270  142.3670 C   0  0  0  0  0  3  0  0  0  0  0  0
  192.5290  175.4570  145.3890 C   0  0  0  0  0  0  0  0  0  0  0  0
  193.4870  176.1940  146.0930 C   0  0  0  0  0  3  0  0  0  0  0  0
  189.5790  173.4110  143.3340 N   0  0  0  0  0  0  0  0  0  0  0  0
  190.9490  171.5680  142.8770 C   0  0  0  0  0  0  0  0  0  0  0  0
  191.0900  170.3070  142.2890 C   0  0  0  0  0  3  0  0  0  0  0  0
  184.6200  178.5820  144.0410 C   0  0  0  0  0  0  0  0  0  0  0  0
  186.9310  178.2630  143.4200 C   0  0  0  0  0  3  0  0  0  0  0  0
  186.3440  176.7710  147.1770 Cl  0  0  0  0  0  0  0  0  0  0  0  0
  183.3450  179.0400  143.7380 O   0  0  0  0  0  1  0  0  0  0  0  0
  185.6500  178.7240  143.1140 C   0  0  0  0  0  3  0  0  0  0  0  0
  186.1500  177.5120  145.5930 C   0  0  0  0  0  0  0  0  0  0  0  0
  187.2070  177.6520  144.6560 C   0  0  0  0  0  0  0  0  0  0  0  0
  184.8700  177.9790  145.2740 C   0  0  0  0  0  3  0  0  0  0  0  0
  1 11  1  0  0  0  0
  1  8  1  0  0  0  0
  2  7  1  0  0  0  0
  3  9  1  0  0  0  0
  3  2  2  0  0  0  0
  5  4  2  0  0  0  0
  6 13  1  0  0  0  0
  6  9  2  0  0  0  0
  7 17  1  0  0  0  0
  7 19  2  0  0  0  0
 10 14  2  0  0  0  0
 12 22  2  0  0  0  0
 12 21  1  0  0  0  0
 14 19  1  0  0  0  0
 15  2  1  0  0  0  0
 15 10  1  0  0  0  0
 16 10  1  0  0  0  0
 16  5  1  0  0  0  0
 17  1  2  0  0  0  0
 18  6  1  0  0  0  0
 19 20  1  0  0  0  0
 20  8  2  0  0  0  0
 21 15  2  0  0  0  0
 22  3  1  0  0  0  0
 23 18  2  0  0  0  0
 23 22  1  0  0  0  0
 24 31  1  0  0  0  0
 25 30  2  0  0  0  0
 27 24  1  0  0  0  0
 28 25  1  0  0  0  0
 28 24  2  0  0  0  0
 29 26  1  0  0  0  0
 30  5  1  0  0  0  0
 30 29  1  0  0  0  0
 31 29  2  0  0  0  0
M  END
>  <MODEL>
8

>  <REMARK>
 VINA RESULT:      -8.3      4.813      8.665
  Name = 
  1 active torsions:
  status: ('A' for Active; 'I' for Inactive)
    1  A    between atoms: C_5  and  C_30
                            x       y       z     vdW  Elec       q    Type
                         _______ _______ _______ _____ _____    ______ ____

>  <TORSDO>
F 1

$$$$
=
 OpenBabel11112417003D

 31 35  0  0  0  0  0  0  0  0999 V2000
  189.4810  175.1430  146.4630 C   0  0  0  0  0  0  0  0  0  0  0  0
  188.2440  175.8850  142.9840 C   0  0  0  0  0  0  0  0  0  0  0  0
  187.3600  176.9990  143.0770 C   0  0  0  0  0  0  0  0  0  0  0  0
  190.9990  171.9780  140.7870 O   0  0  0  0  0  0  0  0  0  0  0  0
  190.3540  172.5700  139.8810 C   0  0  0  0  0  0  0  0  0  0  0  0
  186.1880  178.7340  144.3350 C   0  0  0  0  0  0  0  0  0  0  0  0
  188.9270  175.2910  144.0880 C   0  0  0  0  0  0  0  0  0  0  0  0
  190.3150  174.0540  146.2130 C   0  0  0  0  0  3  0  0  0  0  0  0
  187.0610  177.6440  144.2900 C   0  0  0  0  0  3  0  0  0  0  0  0
  189.3120  174.2330  141.5260 C   0  0  0  0  0  0  0  0  0  0  0  0
  189.3350  175.6090  147.7250 F   0  0  0  0  0  0  0  0  0  0  0  0
  187.0070  176.8980  140.7080 N   0  0  0  0  0  0  0  0  0  0  0  0
  185.9180  179.3360  145.5180 F   0  0  0  0  0  0  0  0  0  0  0  0
  189.9420  173.6960  142.6010 N   0  0  0  0  0  0  0  0  0  0  0  0
  188.4560  175.3290  141.6960 C   0  0  0  0  0  0  0  0  0  0  0  0
  189.5140  173.6860  140.2140 N   0  0  0  0  0  2  0  0  0  0  0  0
  188.7950  175.7530  145.4100 C   0  0  0  0  0  3  0  0  0  0  0  0
  185.5960  179.2020  143.1620 C   0  0  0  0  0  3  0  0  0  0  0  0
  189.7790  174.1820  143.8540 C   0  0  0  0  0  0  0  0  0  0  0  0
  190.4630  173.5750  144.9110 C   0  0  0  0  0  3  0  0  0  0  0  0
  187.8310  175.8580  140.6110 N   0  0  0  0  0  0  0  0  0  0  0  0
  186.7490  177.4880  141.8980 C   0  0  0  0  0  0  0  0  0  0  0  0
  185.8760  178.5790  141.9470 C   0  0  0  0  0  3  0  0  0  0  0  0
  190.5350  171.1730  135.8180 C   0  0  0  0  0  0  0  0  0  0  0  0
  189.7240  170.9900  138.0850 C   0  0  0  0  0  3  0  0  0  0  0  0
  192.1950  174.2300  137.8140 Cl  0  0  0  0  0  0  0  0  0  0  0  0
  190.5770  170.7020  134.5130 O   0  0  0  0  0  1  0  0  0  0  0  0
  189.7650  170.5140  136.7740 C   0  0  0  0  0  3  0  0  0  0  0  0
  191.2340  172.7950  137.4850 C   0  0  0  0  0  0  0  0  0  0  0  0
  190.4510  172.1310  138.4660 C   0  0  0  0  0  0  0  0  0  0  0  0
  191.2660  172.3070  136.1740 C   0  0  0  0  0  3  0  0  0  0  0  0
  1 11  1  0  0  0  0
  2  3  1  0  0  0  0
  2  7  1  0  0  0  0
  3  9  1  0  0  0  0
  5 16  1  0  0  0  0
  5  4  2  0  0  0  0
  6 13  1  0  0  0  0
  7 17  1  0  0  0  0
  8  1  1  0  0  0  0
  9  6  2  0  0  0  0
 10 15  1  0  0  0  0
 10 14  2  0  0  0  0
 12 22  1  0  0  0  0
 14 19  1  0  0  0  0
 15  2  2  0  0  0  0
 16 10  1  0  0  0  0
 17  1  2  0  0  0  0
 18  6  1  0  0  0  0
 19  7  2  0  0  0  0
 19 20  1  0  0  0  0
 20  8  2  0  0  0  0
 21 12  2  0  0  0  0
 21 15  1  0  0  0  0
 22 23  1  0  0  0  0
 22  3  2  0  0  0  0
 23 18  2  0  0  0  0
 24 31  2  0  0  0  0
 24 28  1  0  0  0  0
 25 30  1  0  0  0  0
 27 24  1  0  0  0  0
 28 25  2  0  0  0  0
 29 26  1  0  0  0  0
 29 30  2  0  0  0  0
 30  5  1  0  0  0  0
 31 29  1  0  0  0  0
M  END
>  <MODEL>
9

>  <REMARK>
 VINA RESULT:      -8.2      5.139      6.702
  Name = 
  1 active torsions:
  status: ('A' for Active; 'I' for Inactive)
    1  A    between atoms: C_5  and  C_30
                            x       y       z     vdW  Elec       q    Type
                         _______ _______ _______ _____ _____    ______ ____

>  <TORSDO>
F 1

$$$$
