=
 OpenBabel11112416483D

 31 35  0  0  1  0  0  0  0  0999 V2000
  185.1610  177.8510  146.3540 C   0  0  0  0  0  0  0  0  0  0  0  0
  187.4300  176.0560  143.9580 N   0  0  0  0  0  0  0  0  0  0  0  0
  187.0710  176.4340  142.6050 C   0  0  0  0  0  0  0  0  0  0  0  0
  185.7030  177.6890  141.0290 C   0  0  0  0  0  0  0  0  0  0  0  0
  186.9560  176.7980  145.1010 C   0  0  0  0  0  0  0  0  0  0  0  0
  186.0750  178.2560  147.3300 C   0  0  0  0  0  3  0  0  0  0  0  0
  185.9850  177.2840  142.3370 C   0  0  0  0  0  3  0  0  0  0  0  0
  189.7490  176.1790  144.6940 C   0  0  2  0  0  3  0  0  0  0  0  0
  183.8170  178.1730  146.4860 O   0  0  0  0  0  1  0  0  0  0  0  0
  188.9520  175.1590  141.7790 O   0  0  0  0  0  0  0  0  0  0  0  0
  184.3450  178.7460  140.7150 Cl  0  0  0  0  0  0  0  0  0  0  0  0
  189.3280  176.8030  146.0320 C   0  0  0  0  0  2  0  0  0  0  0  0
  188.6380  175.2510  144.1990 C   0  0  2  0  0  3  0  0  0  0  0  0
  185.5980  177.1210  145.2470 C   0  0  0  0  0  3  0  0  0  0  0  0
  186.5160  177.2640  139.9760 C   0  0  0  0  0  3  0  0  0  0  0  0
  187.8760  177.2040  146.0940 C   0  0  0  0  0  0  0  0  0  0  0  0
  187.4260  177.9290  147.2020 C   0  0  0  0  0  3  0  0  0  0  0  0
  189.0290  174.4050  142.9820 C   0  0  0  0  0  2  0  0  0  0  0  0
  187.8720  176.0000  141.5340 C   0  0  0  0  0  0  0  0  0  0  0  0
  187.6010  176.4220  140.2290 C   0  0  0  0  0  3  0  0  0  0  0  0
  190.9980  175.4500  144.8860 N   0  0  0  0  0  2  0  0  0  0  0  0
  191.4980  177.5310  143.7370 C   0  0  0  0  0  1  0  0  0  0  0  0
  192.0860  176.2940  144.4060 C   0  0  1  0  0  3  0  0  0  0  0  0
  195.5180  175.2720  145.2220 C   0  0  1  0  0  3  0  0  0  0  0  0
  194.3160  177.3210  145.0170 C   0  0  0  0  0  2  0  0  0  0  0  0
  192.3070  174.9440  147.0860 O   0  0  0  0  0  1  0  0  0  0  0  0
  196.3970  174.2750  144.4980 C   0  0  0  0  0  1  0  0  0  0  0  0
  195.0900  176.3130  144.2880 N   0  0  0  0  0  2  0  0  0  0  0  0
  193.4140  175.5650  146.5090 C   0  0  2  0  0  3  0  0  0  0  0  0
  193.0160  176.7140  145.5630 C   0  0  2  0  0  3  0  0  0  0  0  0
  194.3070  174.5480  145.8060 C   0  0  0  0  0  2  0  0  0  0  0  0
  1  9  1  0  0  0  0
  1  6  1  0  0  0  0
  2 13  1  0  0  0  0
  2  5  1  0  0  0  0
  3  2  1  0  0  0  0
  4  7  2  0  0  0  0
  5 14  1  0  0  0  0
  5 16  2  0  0  0  0
  7  3  1  0  0  0  0
  8 21  1  1  0  0  0
  8 12  1  0  0  0  0
 10 18  1  0  0  0  0
 11  4  1  0  0  0  0
 12 16  1  0  0  0  0
 13 18  1  6  0  0  0
 13  8  1  0  0  0  0
 14  1  2  0  0  0  0
 15 20  2  0  0  0  0
 15  4  1  0  0  0  0
 16 17  1  0  0  0  0
 17  6  2  0  0  0  0
 19 10  1  0  0  0  0
 19  3  2  0  0  0  0
 20 19  1  0  0  0  0
 23 22  1  1  0  0  0
 23 21  1  0  0  0  0
 24 27  1  6  0  0  0
 24 31  1  0  0  0  0
 25 30  1  0  0  0  0
 28 25  1  0  0  0  0
 28 24  1  0  0  0  0
 29 26  1  6  0  0  0
 30 23  1  6  0  0  0
 30 29  1  0  0  0  0
 31 29  1  0  0  0  0
M  END
>  <MODEL>
1

>  <REMARK>
 VINA RESULT:      -8.2      0.000      0.000
  Name = 
  3 active torsions:
  status: ('A' for Active; 'I' for Inactive)
    1  A    between atoms: C_5  and  N_16
    2  A    between atoms: C_5  and  C_30
    3  A    between atoms: C_10  and  N_16
                            x       y       z     vdW  Elec       q    Type
                         _______ _______ _______ _____ _____    ______ ____

>  <TORSDO>
F 3

$$$$
=
 OpenBabel11112416483D

 31 35  0  0  1  0  0  0  0  0999 V2000
  186.8200  177.4970  141.0150 C   0  0  0  0  0  0  0  0  0  0  0  0
  188.2660  177.4230  144.4810 N   0  0  0  0  0  0  0  0  0  0  0  0
  187.2380  177.8220  145.4230 C   0  0  0  0  0  0  0  0  0  0  0  0
  184.9660  178.5380  145.9300 C   0  0  0  0  0  0  0  0  0  0  0  0
  187.9450  177.0580  143.1230 C   0  0  0  0  0  0  0  0  0  0  0  0
  187.3310  176.3080  140.4900 C   0  0  0  0  0  3  0  0  0  0  0  0
  185.9600  178.2250  144.9990 C   0  0  0  0  0  3  0  0  0  0  0  0
  189.5440  175.3820  144.8500 C   0  0  2  0  0  3  0  0  0  0  0  0
  186.0050  178.3060  140.2350 O   0  0  0  0  0  1  0  0  0  0  0  0
  188.7550  177.3380  147.2430 O   0  0  0  0  0  0  0  0  0  0  0  0
  183.3830  179.0410  145.3820 Cl  0  0  0  0  0  0  0  0  0  0  0  0
  189.4220  174.9960  143.3690 C   0  0  0  0  0  2  0  0  0  0  0  0
  189.5520  176.9060  144.9750 C   0  0  2  0  0  3  0  0  0  0  0  0
  187.1290  177.8730  142.3240 C   0  0  0  0  0  3  0  0  0  0  0  0
  185.2320  178.4340  147.2970 C   0  0  0  0  0  3  0  0  0  0  0  0
  188.4660  175.8590  142.5850 C   0  0  0  0  0  0  0  0  0  0  0  0
  188.1560  175.4950  141.2720 C   0  0  0  0  0  3  0  0  0  0  0  0
  189.8850  177.4140  146.3830 C   0  0  0  0  0  2  0  0  0  0  0  0
  187.4980  177.7360  146.8020 C   0  0  0  0  0  0  0  0  0  0  0  0
  186.4960  178.0300  147.7330 C   0  0  0  0  0  3  0  0  0  0  0  0
  190.7690  174.8020  145.3890 N   0  0  0  0  0  2  0  0  0  0  0  0
  192.7540  175.2830  144.0740 C   0  0  0  0  0  1  0  0  0  0  0  0
  191.5750  174.3370  144.2660 C   0  0  1  0  0  3  0  0  0  0  0  0
  192.0980  171.5510  141.9310 C   0  0  1  0  0  3  0  0  0  0  0  0
  193.3380  172.6260  143.6610 C   0  0  0  0  0  2  0  0  0  0  0  0
  189.8820  171.9320  144.9030 O   0  0  0  0  0  1  0  0  0  0  0  0
  191.8290  171.5120  140.4410 C   0  0  0  0  0  1  0  0  0  0  0  0
  193.0110  172.6520  142.2320 N   0  0  0  0  0  2  0  0  0  0  0  0
  191.0630  171.7970  144.1740 C   0  0  2  0  0  3  0  0  0  0  0  0
  192.0860  172.9010  144.5050 C   0  0  2  0  0  3  0  0  0  0  0  0
  190.7790  171.7320  142.6780 C   0  0  0  0  0  2  0  0  0  0  0  0
  1 14  1  0  0  0  0
  2 13  1  0  0  0  0
  2  3  1  0  0  0  0
  3 19  1  0  0  0  0
  4 15  2  0  0  0  0
  5  2  1  0  0  0  0
  6  1  2  0  0  0  0
  6 17  1  0  0  0  0
  7  3  2  0  0  0  0
  7  4  1  0  0  0  0
  8 13  1  0  0  0  0
  8 21  1  6  0  0  0
  9  1  1  0  0  0  0
 11  4  1  0  0  0  0
 12  8  1  0  0  0  0
 13 18  1  1  0  0  0
 14  5  2  0  0  0  0
 15 20  1  0  0  0  0
 16  5  1  0  0  0  0
 16 12  1  0  0  0  0
 17 16  2  0  0  0  0
 18 10  1  0  0  0  0
 19 10  1  0  0  0  0
 19 20  2  0  0  0  0
 23 22  1  1  0  0  0
 23 21  1  0  0  0  0
 24 27  1  6  0  0  0
 24 28  1  0  0  0  0
 24 31  1  0  0  0  0
 25 30  1  0  0  0  0
 28 25  1  0  0  0  0
 29 30  1  0  0  0  0
 29 26  1  1  0  0  0
 30 23  1  6  0  0  0
 31 29  1  0  0  0  0
M  END
>  <MODEL>
2

>  <REMARK>
 VINA RESULT:      -8.0      2.580      4.816
  Name = 
  3 active torsions:
  status: ('A' for Active; 'I' for Inactive)
    1  A    between atoms: C_5  and  N_16
    2  A    between atoms: C_5  and  C_30
    3  A    between atoms: C_10  and  N_16
                            x       y       z     vdW  Elec       q    Type
                         _______ _______ _______ _____ _____    ______ ____

>  <TORSDO>
F 3

$$$$
=
 OpenBabel11112416483D

 31 35  0  0  1  0  0  0  0  0999 V2000
  190.2830  171.9390  142.8420 C   0  0  0  0  0  0  0  0  0  0  0  0
  190.5540  174.6140  145.4650 N   0  0  0  0  0  0  0  0  0  0  0  0
  191.9580  174.8930  145.7010 C   0  0  0  0  0  0  0  0  0  0  0  0
  194.3190  174.5060  145.2490 C   0  0  0  0  0  0  0  0  0  0  0  0
  190.1180  173.8660  144.3120 C   0  0  0  0  0  0  0  0  0  0  0  0
  189.2500  172.4480  142.0520 C   0  0  0  0  0  3  0  0  0  0  0  0
  192.9760  174.1710  145.0570 C   0  0  0  0  0  3  0  0  0  0  0  0
  188.9980  176.4340  145.0190 C   0  0  2  0  0  3  0  0  0  0  0  0
  190.8820  170.7320  142.5070 O   0  0  0  0  0  1  0  0  0  0  0  0
  191.3220  176.6900  147.1900 O   0  0  0  0  0  0  0  0  0  0  0  0
  195.5720  173.5930  144.4390 Cl  0  0  0  0  0  0  0  0  0  0  0  0
  188.3330  175.6360  143.8890 C   0  0  0  0  0  2  0  0  0  0  0  0
  189.5240  175.4650  146.0800 C   0  0  2  0  0  3  0  0  0  0  0  0
  190.7120  172.6420  143.9700 C   0  0  0  0  0  3  0  0  0  0  0  0
  194.6590  175.5800  146.0750 C   0  0  0  0  0  3  0  0  0  0  0  0
  189.0670  174.3740  143.5130 C   0  0  0  0  0  0  0  0  0  0  0  0
  188.6410  173.6590  142.3900 C   0  0  0  0  0  3  0  0  0  0  0  0
  190.0170  176.1500  147.3600 C   0  0  0  0  0  2  0  0  0  0  0  0
  192.3140  175.9620  146.5430 C   0  0  0  0  0  0  0  0  0  0  0  0
  193.6570  176.3090  146.7190 C   0  0  0  0  0  3  0  0  0  0  0  0
  188.0190  177.3550  145.5860 N   0  0  0  0  0  2  0  0  0  0  0  0
  185.6180  176.9930  145.4800 C   0  0  0  0  0  1  0  0  0  0  0  0
  186.8650  177.3840  144.6940 C   0  0  1  0  0  3  0  0  0  0  0  0
  184.3130  178.6680  142.3860 C   0  0  1  0  0  3  0  0  0  0  0  0
  185.3030  179.3590  144.4420 C   0  0  0  0  0  2  0  0  0  0  0  0
  188.0120  178.3350  142.0800 O   0  0  0  0  0  1  0  0  0  0  0  0
  183.1540  177.9210  141.7590 C   0  0  0  0  0  1  0  0  0  0  0  0
  184.2320  178.5580  143.8420 N   0  0  0  0  0  2  0  0  0  0  0  0
  186.7860  178.8190  142.5370 C   0  0  2  0  0  3  0  0  0  0  0  0
  186.6780  178.7830  144.0730 C   0  0  2  0  0  3  0  0  0  0  0  0
  185.6270  178.0790  141.8790 C   0  0  0  0  0  2  0  0  0  0  0  0
  1 14  1  0  0  0  0
  2  3  1  0  0  0  0
  2 13  1  0  0  0  0
  3 19  1  0  0  0  0
  4 15  2  0  0  0  0
  5  2  1  0  0  0  0
  6 17  1  0  0  0  0
  6  1  2  0  0  0  0
  7  4  1  0  0  0  0
  7  3  2  0  0  0  0
  8 21  1  1  0  0  0
  8 13  1  0  0  0  0
  9  1  1  0  0  0  0
 10 18  1  0  0  0  0
 11  4  1  0  0  0  0
 12  8  1  0  0  0  0
 13 18  1  1  0  0  0
 14  5  2  0  0  0  0
 15 20  1  0  0  0  0
 16 12  1  0  0  0  0
 16  5  1  0  0  0  0
 17 16  2  0  0  0  0
 19 20  2  0  0  0  0
 19 10  1  0  0  0  0
 23 22  1  1  0  0  0
 23 21  1  0  0  0  0
 24 27  1  6  0  0  0
 24 28  1  0  0  0  0
 28 25  1  0  0  0  0
 29 26  1  1  0  0  0
 29 30  1  0  0  0  0
 30 25  1  0  0  0  0
 30 23  1  6  0  0  0
 31 24  1  0  0  0  0
 31 29  1  0  0  0  0
M  END
>  <MODEL>
3

>  <REMARK>
 VINA RESULT:      -7.9      3.222      8.000
  Name = 
  3 active torsions:
  status: ('A' for Active; 'I' for Inactive)
    1  A    between atoms: C_5  and  N_16
    2  A    between atoms: C_5  and  C_30
    3  A    between atoms: C_10  and  N_16
                            x       y       z     vdW  Elec       q    Type
                         _______ _______ _______ _____ _____    ______ ____

>  <TORSDO>
F 3

$$$$
=
 OpenBabel11112416483D

 31 35  0  0  1  0  0  0  0  0999 V2000
  185.4200  178.1250  146.7370 C   0  0  0  0  0  0  0  0  0  0  0  0
  187.9490  175.9910  144.9590 N   0  0  0  0  0  0  0  0  0  0  0  0
  187.7290  176.1020  143.5300 C   0  0  0  0  0  0  0  0  0  0  0  0
  186.5190  177.0010  141.6180 C   0  0  0  0  0  0  0  0  0  0  0  0
  187.3490  176.9160  145.8890 C   0  0  0  0  0  0  0  0  0  0  0  0
  186.2220  178.7320  147.7070 C   0  0  0  0  0  3  0  0  0  0  0  0
  186.6670  176.8530  143.0000 C   0  0  0  0  0  3  0  0  0  0  0  0
  190.1760  176.3200  145.8890 C   0  0  2  0  0  3  0  0  0  0  0  0
  184.0660  178.4240  146.6710 O   0  0  0  0  0  1  0  0  0  0  0  0
  189.7020  174.7550  143.1500 O   0  0  0  0  0  0  0  0  0  0  0  0
  185.1880  177.9380  140.9770 Cl  0  0  0  0  0  0  0  0  0  0  0  0
  189.6110  177.1670  147.0380 C   0  0  0  0  0  2  0  0  0  0  0  0
  189.1350  175.2820  145.4660 C   0  0  2  0  0  3  0  0  0  0  0  0
  185.9800  177.2180  145.8350 C   0  0  0  0  0  3  0  0  0  0  0  0
  187.4420  176.4140  140.7500 C   0  0  0  0  0  3  0  0  0  0  0  0
  188.1550  177.5270  146.8770 C   0  0  0  0  0  0  0  0  0  0  0  0
  187.5840  178.4290  147.7790 C   0  0  0  0  0  3  0  0  0  0  0  0
  189.6610  174.2390  144.4740 C   0  0  0  0  0  2  0  0  0  0  0  0
  188.6420  175.5020  142.6450 C   0  0  0  0  0  0  0  0  0  0  0  0
  188.5050  175.6670  141.2630 C   0  0  0  0  0  3  0  0  0  0  0  0
  191.4070  175.6780  146.3380 N   0  0  0  0  0  2  0  0  0  0  0  0
  192.4900  177.2490  144.8330 C   0  0  0  0  0  1  0  0  0  0  0  0
  192.3870  175.7900  145.2630 C   0  0  1  0  0  3  0  0  0  0  0  0
  195.4440  175.1060  143.3460 C   0  0  1  0  0  3  0  0  0  0  0  0
  194.8680  176.2810  145.3400 C   0  0  0  0  0  2  0  0  0  0  0  0
  193.2520  172.9120  145.4120 O   0  0  0  0  0  1  0  0  0  0  0  0
  195.6630  175.2340  141.8530 C   0  0  0  0  0  1  0  0  0  0  0  0
  194.9900  176.3890  143.8830 N   0  0  0  0  0  2  0  0  0  0  0  0
  194.1730  173.9170  145.1160 C   0  0  2  0  0  3  0  0  0  0  0  0
  193.7690  175.2770  145.7170 C   0  0  2  0  0  3  0  0  0  0  0  0
  194.4060  174.0190  143.6130 C   0  0  0  0  0  2  0  0  0  0  0  0
  1  6  1  0  0  0  0
  2 13  1  0  0  0  0
  2  5  1  0  0  0  0
  3  2  1  0  0  0  0
  4  7  2  0  0  0  0
  5 16  2  0  0  0  0
  6 17  2  0  0  0  0
  7  3  1  0  0  0  0
  8 21  1  1  0  0  0
  8 12  1  0  0  0  0
  9  1  1  0  0  0  0
 10 18  1  0  0  0  0
 11  4  1  0  0  0  0
 13 18  1  6  0  0  0
 13  8  1  0  0  0  0
 14  5  1  0  0  0  0
 14  1  2  0  0  0  0
 15 20  2  0  0  0  0
 15  4  1  0  0  0  0
 16 12  1  0  0  0  0
 16 17  1  0  0  0  0
 19 10  1  0  0  0  0
 19  3  2  0  0  0  0
 20 19  1  0  0  0  0
 23 22  1  1  0  0  0
 23 21  1  0  0  0  0
 24 27  1  6  0  0  0
 24 31  1  0  0  0  0
 24 28  1  0  0  0  0
 25 30  1  0  0  0  0
 28 25  1  0  0  0  0
 29 26  1  6  0  0  0
 29 30  1  0  0  0  0
 30 23  1  6  0  0  0
 31 29  1  0  0  0  0
M  END
>  <MODEL>
4

>  <REMARK>
 VINA RESULT:      -7.7      1.290      1.471
  Name = 
  3 active torsions:
  status: ('A' for Active; 'I' for Inactive)
    1  A    between atoms: C_5  and  N_16
    2  A    between atoms: C_5  and  C_30
    3  A    between atoms: C_10  and  N_16
                            x       y       z     vdW  Elec       q    Type
                         _______ _______ _______ _____ _____    ______ ____

>  <TORSDO>
F 3

$$$$
=
 OpenBabel11112416483D

 31 35  0  0  1  0  0  0  0  0999 V2000
  191.9510  171.2260  143.5400 C   0  0  0  0  0  0  0  0  0  0  0  0
  192.2820  174.3240  145.6390 N   0  0  0  0  0  0  0  0  0  0  0  0
  193.4460  175.0650  145.1940 C   0  0  0  0  0  0  0  0  0  0  0  0
  195.3690  175.3450  143.7260 C   0  0  0  0  0  0  0  0  0  0  0  0
  191.7150  173.2620  144.8440 C   0  0  0  0  0  0  0  0  0  0  0  0
  190.5770  171.2210  143.2910 C   0  0  0  0  0  3  0  0  0  0  0  0
  194.2930  174.5790  144.1840 C   0  0  0  0  0  3  0  0  0  0  0  0
  190.1330  175.4450  145.8840 C   0  0  2  0  0  3  0  0  0  0  0  0
  192.7540  170.2230  143.0150 O   0  0  0  0  0  1  0  0  0  0  0  0
  192.8730  176.8380  146.7370 O   0  0  0  0  0  0  0  0  0  0  0  0
  196.4130  174.7210  142.4690 Cl  0  0  0  0  0  0  0  0  0  0  0  0
  189.4040  174.2710  145.2170 C   0  0  0  0  0  2  0  0  0  0  0  0
  191.3650  174.9200  146.6230 C   0  0  2  0  0  3  0  0  0  0  0  0
  192.5170  172.2400  144.3160 C   0  0  0  0  0  3  0  0  0  0  0  0
  195.6000  176.6140  144.2610 C   0  0  0  0  0  3  0  0  0  0  0  0
  190.3230  173.2490  144.5960 C   0  0  0  0  0  0  0  0  0  0  0  0
  189.7650  172.2260  143.8230 C   0  0  0  0  0  3  0  0  0  0  0  0
  192.0550  175.9660  147.5060 C   0  0  0  0  0  2  0  0  0  0  0  0
  193.7000  176.3380  145.7360 C   0  0  0  0  0  0  0  0  0  0  0  0
  194.7640  177.1110  145.2630 C   0  0  0  0  0  3  0  0  0  0  0  0
  189.2130  176.1120  146.7990 N   0  0  0  0  0  2  0  0  0  0  0  0
  189.2820  177.5340  144.8310 C   0  0  0  0  0  1  0  0  0  0  0  0
  188.4550  177.0950  146.0340 C   0  0  1  0  0  3  0  0  0  0  0  0
  185.5160  178.7270  144.5550 C   0  0  1  0  0  3  0  0  0  0  0  0
  186.8740  176.8260  144.0770 C   0  0  0  0  0  2  0  0  0  0  0  0
  185.9710  176.7860  147.7030 O   0  0  0  0  0  1  0  0  0  0  0  0
  185.3040  180.1990  144.2720 C   0  0  0  0  0  1  0  0  0  0  0  0
  186.7260  178.2700  143.8730 N   0  0  0  0  0  2  0  0  0  0  0  0
  185.8810  177.0340  146.3340 C   0  0  2  0  0  3  0  0  0  0  0  0
  187.1070  176.5120  145.5620 C   0  0  2  0  0  3  0  0  0  0  0  0
  185.6400  178.5150  146.0620 C   0  0  0  0  0  2  0  0  0  0  0  0
  1 14  1  0  0  0  0
  2 13  1  0  0  0  0
  3  2  1  0  0  0  0
  3 19  1  0  0  0  0
  4  7  1  0  0  0  0
  4 15  2  0  0  0  0
  5  2  1  0  0  0  0
  6  1  2  0  0  0  0
  6 17  1  0  0  0  0
  7  3  2  0  0  0  0
  8 13  1  0  0  0  0
  8 21  1  1  0  0  0
  9  1  1  0  0  0  0
 10 18  1  0  0  0  0
 11  4  1  0  0  0  0
 12  8  1  0  0  0  0
 13 18  1  6  0  0  0
 14  5  2  0  0  0  0
 15 20  1  0  0  0  0
 16  5  1  0  0  0  0
 16 12  1  0  0  0  0
 17 16  2  0  0  0  0
 19 10  1  0  0  0  0
 20 19  2  0  0  0  0
 23 22  1  6  0  0  0
 23 21  1  0  0  0  0
 24 27  1  1  0  0  0
 24 31  1  0  0  0  0
 25 30  1  0  0  0  0
 28 25  1  0  0  0  0
 28 24  1  0  0  0  0
 29 26  1  1  0  0  0
 30 23  1  1  0  0  0
 30 29  1  0  0  0  0
 31 29  1  0  0  0  0
M  END
>  <MODEL>
5

>  <REMARK>
 VINA RESULT:      -7.5      3.294      7.905
  Name = 
  3 active torsions:
  status: ('A' for Active; 'I' for Inactive)
    1  A    between atoms: C_5  and  N_16
    2  A    between atoms: C_5  and  C_30
    3  A    between atoms: C_10  and  N_16
                            x       y       z     vdW  Elec       q    Type
                         _______ _______ _______ _____ _____    ______ ____

>  <TORSDO>
F 3

$$$$
=
 OpenBabel11112416483D

 31 35  0  0  1  0  0  0  0  0999 V2000
  186.1360  177.3260  142.6550 C   0  0  0  0  0  0  0  0  0  0  0  0
  188.6100  174.5030  142.8130 N   0  0  0  0  0  0  0  0  0  0  0  0
  188.8760  174.0430  141.4640 C   0  0  0  0  0  0  0  0  0  0  0  0
  188.5340  174.1690  139.0560 C   0  0  0  0  0  0  0  0  0  0  0  0
  187.9480  175.7600  143.0640 C   0  0  0  0  0  0  0  0  0  0  0  0
  186.6980  178.2210  143.5690 C   0  0  0  0  0  3  0  0  0  0  0  0
  188.2080  174.5810  140.3510 C   0  0  0  0  0  3  0  0  0  0  0  0
  190.4510  175.0400  144.3150 C   0  0  2  0  0  3  0  0  0  0  0  0
  184.9610  177.6560  141.9950 O   0  0  0  0  0  1  0  0  0  0  0  0
  190.5550  172.5370  142.3390 O   0  0  0  0  0  0  0  0  0  0  0  0
  187.6900  174.8490  137.6840 Cl  0  0  0  0  0  0  0  0  0  0  0  0
  189.7370  176.3110  144.7940 C   0  0  0  0  0  2  0  0  0  0  0  0
  189.4080  173.9870  143.9360 C   0  0  2  0  0  3  0  0  0  0  0  0
  186.7550  176.0990  142.4070 C   0  0  0  0  0  3  0  0  0  0  0  0
  189.5450  173.2250  138.8570 C   0  0  0  0  0  3  0  0  0  0  0  0
  188.5090  176.6660  143.9930 C   0  0  0  0  0  0  0  0  0  0  0  0
  187.8780  177.8890  144.2390 C   0  0  0  0  0  3  0  0  0  0  0  0
  189.9970  172.6020  143.6460 C   0  0  0  0  0  2  0  0  0  0  0  0
  189.8810  173.0820  141.2510 C   0  0  0  0  0  0  0  0  0  0  0  0
  190.2200  172.6850  139.9540 C   0  0  0  0  0  3  0  0  0  0  0  0
  191.3230  174.5580  145.3800 N   0  0  0  0  0  2  0  0  0  0  0  0
  192.4080  176.4160  146.5100 C   0  0  0  0  0  1  0  0  0  0  0  0
  192.5210  175.3910  145.3880 C   0  0  1  0  0  3  0  0  0  0  0  0
  195.8960  175.7460  143.9840 C   0  0  1  0  0  3  0  0  0  0  0  0
  194.9370  175.3910  146.1380 C   0  0  0  0  0  2  0  0  0  0  0  0
  193.3520  173.0380  143.7070 O   0  0  0  0  0  1  0  0  0  0  0  0
  196.4020  176.7900  143.0110 C   0  0  0  0  0  1  0  0  0  0  0  0
  195.3410  176.4090  145.1640 N   0  0  0  0  0  2  0  0  0  0  0  0
  194.3080  173.8630  144.2960 C   0  0  2  0  0  3  0  0  0  0  0  0
  193.7900  174.5360  145.5820 C   0  0  2  0  0  3  0  0  0  0  0  0
  194.8300  174.8930  143.3000 C   0  0  0  0  0  2  0  0  0  0  0  0
  1  6  1  0  0  0  0
  2  5  1  0  0  0  0
  2 13  1  0  0  0  0
  3  2  1  0  0  0  0
  4  7  1  0  0  0  0
  5 16  2  0  0  0  0
  6 17  2  0  0  0  0
  7  3  2  0  0  0  0
  8 12  1  0  0  0  0
  8 21  1  1  0  0  0
  9  1  1  0  0  0  0
 10 18  1  0  0  0  0
 11  4  1  0  0  0  0
 13 18  1  6  0  0  0
 13  8  1  0  0  0  0
 14  1  2  0  0  0  0
 14  5  1  0  0  0  0
 15  4  2  0  0  0  0
 15 20  1  0  0  0  0
 16 17  1  0  0  0  0
 16 12  1  0  0  0  0
 19  3  1  0  0  0  0
 19 10  1  0  0  0  0
 20 19  2  0  0  0  0
 21 23  1  0  0  0  0
 23 22  1  1  0  0  0
 24 27  1  6  0  0  0
 24 28  1  0  0  0  0
 28 25  1  0  0  0  0
 29 26  1  6  0  0  0
 29 30  1  0  0  0  0
 30 23  1  6  0  0  0
 30 25  1  0  0  0  0
 31 24  1  0  0  0  0
 31 29  1  0  0  0  0
M  END
>  <MODEL>
6

>  <REMARK>
 VINA RESULT:      -7.4      2.394      3.215
  Name = 
  3 active torsions:
  status: ('A' for Active; 'I' for Inactive)
    1  A    between atoms: C_5  and  N_16
    2  A    between atoms: C_5  and  C_30
    3  A    between atoms: C_10  and  N_16
                            x       y       z     vdW  Elec       q    Type
                         _______ _______ _______ _____ _____    ______ ____

>  <TORSDO>
F 3

$$$$
=
 OpenBabel11112416483D

 31 35  0  0  1  0  0  0  0  0999 V2000
  187.7960  177.4750  146.7780 C   0  0  0  0  0  0  0  0  0  0  0  0
  189.4640  174.8010  144.7330 N   0  0  0  0  0  0  0  0  0  0  0  0
  188.9900  174.8970  143.3660 C   0  0  0  0  0  0  0  0  0  0  0  0
  187.6200  175.9450  141.6480 C   0  0  0  0  0  0  0  0  0  0  0  0
  189.2490  175.8660  145.6830 C   0  0  0  0  0  0  0  0  0  0  0  0
  188.8750  177.9440  147.5290 C   0  0  0  0  0  3  0  0  0  0  0  0
  188.0080  175.8260  142.9860 C   0  0  0  0  0  3  0  0  0  0  0  0
  191.8530  174.7070  145.2020 C   0  0  2  0  0  3  0  0  0  0  0  0
  186.5380  178.0400  146.9410 O   0  0  0  0  0  1  0  0  0  0  0  0
  190.5530  173.1630  142.7320 O   0  0  0  0  0  0  0  0  0  0  0  0
  186.3930  177.1070  141.1950 Cl  0  0  0  0  0  0  0  0  0  0  0  0
  191.7000  175.6970  146.3650 C   0  0  0  0  0  2  0  0  0  0  0  0
  190.5690  173.8880  145.0640 C   0  0  2  0  0  3  0  0  0  0  0  0
  187.9810  176.4370  145.8610 C   0  0  0  0  0  3  0  0  0  0  0  0
  188.2220  175.1490  140.6720 C   0  0  0  0  0  3  0  0  0  0  0  0
  190.3380  176.3390  146.4510 C   0  0  0  0  0  0  0  0  0  0  0  0
  190.1400  177.3740  147.3700 C   0  0  0  0  0  3  0  0  0  0  0  0
  190.6780  172.7200  144.0770 C   0  0  0  0  0  2  0  0  0  0  0  0
  189.5780  174.0890  142.3760 C   0  0  0  0  0  0  0  0  0  0  0  0
  189.2030  174.2230  141.0360 C   0  0  0  0  0  3  0  0  0  0  0  0
  193.0020  173.8480  145.4630 N   0  0  0  0  0  2  0  0  0  0  0  0
  193.4780  175.0830  143.4250 C   0  0  0  0  0  1  0  0  0  0  0  0
  194.0690  174.2380  144.5480 C   0  0  1  0  0  3  0  0  0  0  0  0
  197.3110  175.5050  143.3760 C   0  0  1  0  0  3  0  0  0  0  0  0
  195.4360  176.3670  144.5700 C   0  0  0  0  0  2  0  0  0  0  0  0
  196.4020  173.0740  146.0500 O   0  0  0  0  0  1  0  0  0  0  0  0
  197.9410  175.3460  142.0080 C   0  0  0  0  0  1  0  0  0  0  0  0
  195.9980  176.1350  143.2370 N   0  0  0  0  0  2  0  0  0  0  0  0
  196.5170  174.3000  145.3970 C   0  0  2  0  0  3  0  0  0  0  0  0
  195.1680  175.0340  145.2830 C   0  0  2  0  0  3  0  0  0  0  0  0
  197.1780  174.1330  144.0320 C   0  0  0  0  0  2  0  0  0  0  0  0
  1  9  1  0  0  0  0
  1  6  1  0  0  0  0
  2 13  1  0  0  0  0
  2  5  1  0  0  0  0
  3  2  1  0  0  0  0
  4  7  2  0  0  0  0
  5 14  1  0  0  0  0
  5 16  2  0  0  0  0
  7  3  1  0  0  0  0
  8 21  1  1  0  0  0
  8 12  1  0  0  0  0
 10 18  1  0  0  0  0
 11  4  1  0  0  0  0
 12 16  1  0  0  0  0
 13 18  1  6  0  0  0
 13  8  1  0  0  0  0
 14  1  2  0  0  0  0
 15 20  2  0  0  0  0
 15  4  1  0  0  0  0
 16 17  1  0  0  0  0
 17  6  2  0  0  0  0
 19 10  1  0  0  0  0
 19  3  2  0  0  0  0
 20 19  1  0  0  0  0
 23 22  1  6  0  0  0
 23 21  1  0  0  0  0
 24 27  1  6  0  0  0
 24 31  1  0  0  0  0
 25 30  1  0  0  0  0
 28 24  1  0  0  0  0
 28 25  1  0  0  0  0
 29 26  1  6  0  0  0
 30 23  1  6  0  0  0
 30 29  1  0  0  0  0
 31 29  1  0  0  0  0
M  END
>  <MODEL>
7

>  <REMARK>
 VINA RESULT:      -7.3      2.004      2.786
  Name = 
  3 active torsions:
  status: ('A' for Active; 'I' for Inactive)
    1  A    between atoms: C_5  and  N_16
    2  A    between atoms: C_5  and  C_30
    3  A    between atoms: C_10  and  N_16
                            x       y       z     vdW  Elec       q    Type
                         _______ _______ _______ _____ _____    ______ ____

>  <TORSDO>
F 3

$$$$
=
 OpenBabel11112416483D

 31 35  0  0  1  0  0  0  0  0999 V2000
  186.2890  178.0380  147.0090 C   0  0  0  0  0  0  0  0  0  0  0  0
  189.0580  177.4050  144.5510 N   0  0  0  0  0  0  0  0  0  0  0  0
  190.2710  177.1010  145.2850 C   0  0  0  0  0  0  0  0  0  0  0  0
  191.4800  176.7730  147.3730 C   0  0  0  0  0  0  0  0  0  0  0  0
  187.7660  177.3930  145.1910 C   0  0  0  0  0  0  0  0  0  0  0  0
  185.2410  177.3330  146.4130 C   0  0  0  0  0  3  0  0  0  0  0  0
  190.3170  177.1380  146.6880 C   0  0  0  0  0  3  0  0  0  0  0  0
  188.3110  175.9410  142.7520 C   0  0  2  0  0  3  0  0  0  0  0  0
  186.0820  178.7070  148.2080 O   0  0  0  0  0  1  0  0  0  0  0  0
  191.3920  176.6450  143.1900 O   0  0  0  0  0  0  0  0  0  0  0  0
  191.5180  176.8280  149.1210 Cl  0  0  0  0  0  0  0  0  0  0  0  0
  186.8590  176.0180  143.2450 C   0  0  0  0  0  2  0  0  0  0  0  0
  189.0280  177.2500  143.0880 C   0  0  2  0  0  3  0  0  0  0  0  0
  187.5450  178.0720  146.3980 C   0  0  0  0  0  3  0  0  0  0  0  0
  192.6050  176.3500  146.6630 C   0  0  0  0  0  3  0  0  0  0  0  0
  186.7000  176.6860  144.5880 C   0  0  0  0  0  0  0  0  0  0  0  0
  185.4450  176.6640  145.2040 C   0  0  0  0  0  3  0  0  0  0  0  0
  190.4190  177.3790  142.4570 C   0  0  0  0  0  2  0  0  0  0  0  0
  191.4170  176.6890  144.5800 C   0  0  0  0  0  0  0  0  0  0  0  0
  192.5720  176.3050  145.2670 C   0  0  0  0  0  3  0  0  0  0  0  0
  188.3090  175.6950  141.3150 N   0  0  0  0  0  2  0  0  0  0  0  0
  189.5070  173.8770  142.3940 C   0  0  0  0  0  1  0  0  0  0  0  0
  189.1300  174.5160  141.0620 C   0  0  1  0  0  3  0  0  0  0  0  0
  190.2970  172.4410  138.2660 C   0  0  1  0  0  3  0  0  0  0  0  0
  189.0470  172.1150  140.2700 C   0  0  0  0  0  2  0  0  0  0  0  0
  187.7020  175.1070  138.4800 O   0  0  0  0  0  1  0  0  0  0  0  0
  191.6770  172.3920  137.6460 C   0  0  0  0  0  1  0  0  0  0  0  0
  190.3950  172.1560  139.6970 N   0  0  0  0  0  2  0  0  0  0  0  0
  188.3110  173.8700  138.6890 C   0  0  2  0  0  3  0  0  0  0  0  0
  188.3810  173.4950  140.1810 C   0  0  2  0  0  3  0  0  0  0  0  0
  189.6890  173.8230  138.0380 C   0  0  0  0  0  2  0  0  0  0  0  0
  1  9  1  0  0  0  0
  2  5  1  0  0  0  0
  2  3  1  0  0  0  0
  3  7  1  0  0  0  0
  4 11  1  0  0  0  0
  5 14  1  0  0  0  0
  6  1  1  0  0  0  0
  7  4  2  0  0  0  0
  8 21  1  6  0  0  0
  8 13  1  0  0  0  0
  8 12  1  0  0  0  0
 10 19  1  0  0  0  0
 12 16  1  0  0  0  0
 13 18  1  1  0  0  0
 13  2  1  0  0  0  0
 14  1  2  0  0  0  0
 15  4  1  0  0  0  0
 16  5  2  0  0  0  0
 16 17  1  0  0  0  0
 17  6  2  0  0  0  0
 18 10  1  0  0  0  0
 19 20  1  0  0  0  0
 19  3  2  0  0  0  0
 20 15  2  0  0  0  0
 23 21  1  0  0  0  0
 23 22  1  1  0  0  0
 24 27  1  1  0  0  0
 24 28  1  0  0  0  0
 28 25  1  0  0  0  0
 29 26  1  1  0  0  0
 29 30  1  0  0  0  0
 30 25  1  0  0  0  0
 30 23  1  1  0  0  0
 31 24  1  0  0  0  0
 31 29  1  0  0  0  0
M  END
>  <MODEL>
8

>  <REMARK>
 VINA RESULT:      -7.3      3.350      6.171
  Name = 
  3 active torsions:
  status: ('A' for Active; 'I' for Inactive)
    1  A    between atoms: C_5  and  N_16
    2  A    between atoms: C_5  and  C_30
    3  A    between atoms: C_10  and  N_16
                            x       y       z     vdW  Elec       q    Type
                         _______ _______ _______ _____ _____    ______ ____

>  <TORSDO>
F 3

$$$$
=
 OpenBabel11112416483D

 31 35  0  0  1  0  0  0  0  0999 V2000
  187.1060  177.2150  147.0790 C   0  0  0  0  0  0  0  0  0  0  0  0
  187.8330  176.0200  143.5920 N   0  0  0  0  0  0  0  0  0  0  0  0
  186.9110  176.6650  142.6770 C   0  0  0  0  0  0  0  0  0  0  0  0
  185.0670  178.1890  142.2240 C   0  0  0  0  0  0  0  0  0  0  0  0
  188.0120  176.4930  144.9430 C   0  0  0  0  0  0  0  0  0  0  0  0
  188.4000  177.4280  147.5590 C   0  0  0  0  0  3  0  0  0  0  0  0
  185.8970  177.5260  143.1310 C   0  0  0  0  0  3  0  0  0  0  0  0
  190.2270  176.0420  143.1430 C   0  0  2  0  0  3  0  0  0  0  0  0
  186.0130  177.4690  147.8950 O   0  0  0  0  0  1  0  0  0  0  0  0
  188.0760  175.6390  140.8230 O   0  0  0  0  0  0  0  0  0  0  0  0
  183.8090  179.2550  142.8080 Cl  0  0  0  0  0  0  0  0  0  0  0  0
  190.5360  176.3600  144.6130 C   0  0  0  0  0  2  0  0  0  0  0  0
  188.9440  175.2120  143.0650 C   0  0  2  0  0  3  0  0  0  0  0  0
  186.9130  176.7450  145.7770 C   0  0  0  0  0  3  0  0  0  0  0  0
  185.2530  178.0150  140.8500 C   0  0  0  0  0  3  0  0  0  0  0  0
  189.3200  176.7040  145.4360 C   0  0  0  0  0  0  0  0  0  0  0  0
  189.5030  177.1680  146.7420 C   0  0  0  0  0  3  0  0  0  0  0  0
  188.6490  174.6510  141.6690 C   0  0  0  0  0  2  0  0  0  0  0  0
  187.0770  176.4850  141.2920 C   0  0  0  0  0  0  0  0  0  0  0  0
  186.2590  177.1660  140.3850 C   0  0  0  0  0  3  0  0  0  0  0  0
  191.3580  175.3200  142.5700 N   0  0  0  0  0  2  0  0  0  0  0  0
  191.3980  173.0580  143.4560 C   0  0  0  0  0  1  0  0  0  0  0  0
  191.9270  174.4780  143.6160 C   0  0  1  0  0  3  0  0  0  0  0  0
  194.4250  176.1640  145.7150 C   0  0  1  0  0  3  0  0  0  0  0  0
  194.0650  173.9650  144.8690 C   0  0  0  0  0  2  0  0  0  0  0  0
  193.6420  176.4160  142.0810 O   0  0  0  0  0  1  0  0  0  0  0  0
  194.1910  177.0930  146.8880 C   0  0  0  0  0  1  0  0  0  0  0  0
  193.7580  174.8870  145.9660 N   0  0  0  0  0  2  0  0  0  0  0  0
  194.0960  175.8560  143.2740 C   0  0  2  0  0  3  0  0  0  0  0  0
  193.4690  174.4770  143.5500 C   0  0  2  0  0  3  0  0  0  0  0  0
  193.8810  176.8100  144.4430 C   0  0  0  0  0  2  0  0  0  0  0  0
  1  6  1  0  0  0  0
  1  9  1  0  0  0  0
  2  5  1  0  0  0  0
  3  7  1  0  0  0  0
  3  2  1  0  0  0  0
  4 11  1  0  0  0  0
  4  7  2  0  0  0  0
  5 16  2  0  0  0  0
  5 14  1  0  0  0  0
  8 21  1  1  0  0  0
  8 12  1  0  0  0  0
 10 19  1  0  0  0  0
 10 18  1  0  0  0  0
 12 16  1  0  0  0  0
 13 18  1  6  0  0  0
 13  8  1  0  0  0  0
 13  2  1  0  0  0  0
 14  1  2  0  0  0  0
 15  4  1  0  0  0  0
 16 17  1  0  0  0  0
 17  6  2  0  0  0  0
 19  3  2  0  0  0  0
 20 15  2  0  0  0  0
 20 19  1  0  0  0  0
 21 23  1  0  0  0  0
 23 22  1  6  0  0  0
 24 28  1  0  0  0  0
 24 27  1  1  0  0  0
 25 28  1  0  0  0  0
 29 26  1  6  0  0  0
 29 30  1  0  0  0  0
 29 31  1  0  0  0  0
 30 23  1  1  0  0  0
 30 25  1  0  0  0  0
 31 24  1  0  0  0  0
M  END
>  <MODEL>
9

>  <REMARK>
 VINA RESULT:      -7.2      1.745      2.410
  Name = 
  3 active torsions:
  status: ('A' for Active; 'I' for Inactive)
    1  A    between atoms: C_5  and  N_16
    2  A    between atoms: C_5  and  C_30
    3  A    between atoms: C_10  and  N_16
                            x       y       z     vdW  Elec       q    Type
                         _______ _______ _______ _____ _____    ______ ____

>  <TORSDO>
F 3

$$$$
