=
 OpenBabel11112416293D

 32 38  0  0  1  0  0  0  0  0999 V2000
  194.0340  174.4500  145.7890 C   0  0  2  0  0  3  0  0  0  0  0  0
  189.3180  176.1390  144.5490 C   0  0  1  0  0  3  0  0  0  0  0  0
  186.6930  178.7420  147.9830 C   0  0  0  0  0  3  0  0  0  0  0  0
  185.8310  179.1210  147.0290 C   0  0  0  0  0  3  0  0  0  0  0  0
  188.2540  175.7670  142.2540 C   0  0  2  0  0  3  0  0  0  0  0  0
  186.9870  175.8120  141.3700 C   0  0  2  0  0  3  0  0  0  0  0  0
  191.1670  174.7250  145.2240 C   0  0  0  0  0  0  0  0  0  0  0  0
  190.4170  176.7250  146.6580 C   0  0  0  0  0  2  0  0  0  0  0  0
  186.2850  177.9760  141.1930 C   0  0  1  0  0  3  0  0  0  0  0  0
  192.8240  176.0760  146.7450 C   0  0  0  0  0  2  0  0  0  0  0  0
  187.7910  177.7440  147.7240 C   0  0  0  0  0  2  0  0  0  0  0  0
  189.0630  176.4150  146.0330 C   0  0  1  0  0  3  0  0  0  0  0  0
  188.1170  177.5980  146.2330 C   0  0  1  0  0  3  0  0  0  0  0  0
  187.0810  177.1210  143.9760 C   0  0  2  0  0  3  0  0  0  0  0  0
  187.1400  177.6780  140.0480 N   0  0  0  0  0  2  0  0  0  0  0  0
  193.4400  173.7300  144.6020 C   0  0  0  0  0  2  0  0  0  0  0  0
  191.3840  175.5510  146.5150 C   0  0  2  0  0  3  0  0  0  0  0  0
  187.3790  176.2890  140.0540 N   0  0  0  0  0  2  0  0  0  0  0  0
  191.9680  173.4630  144.9510 C   0  0  0  0  0  2  0  0  0  0  0  0
  193.6220  175.8430  145.5600 N   0  0  1  0  0  0  0  0  0  0  0  0
  185.9610  178.6670  145.5990 C   0  0  0  0  0  2  0  0  0  0  0  0
  186.8100  177.3960  145.4580 C   0  0  2  0  0  3  0  0  0  0  0  0
  185.7690  176.8320  143.2630 C   0  0  0  0  0  2  0  0  0  0  0  0
  190.1970  174.9940  144.4130 N   0  0  0  0  0  0  0  0  0  0  0  0
  188.9740  174.4660  141.9350 C   0  0  0  0  0  1  0  0  0  0  0  0
  185.0330  178.6870  140.7180 C   0  0  0  0  0  1  0  0  0  0  0  0
  188.0010  175.9190  143.7690 C   0  0  2  0  0  3  0  0  0  0  0  0
  185.9300  176.7150  141.8130 N   0  0  2  0  0  0  0  0  0  0  0  0
  195.0410  175.5230  145.7740 C   0  0  2  0  0  3  0  0  0  0  0  0
  195.8570  175.6010  144.4700 C   0  0  0  0  0  3  0  0  0  0  0  0
  197.0990  174.9650  144.5590 O   0  0  0  0  0  1  0  0  0  0  0  0
  196.0280  176.9280  144.0740 O   0  0  0  0  0  1  0  0  0  0  0  0
  1 16  1  6  0  0  0
  2 24  1  1  0  0  0
  2 12  1  0  0  0  0
  4  3  2  0  0  0  0
  5 25  1  1  0  0  0
  5 27  1  0  0  0  0
  6 18  1  6  0  0  0
  6 28  1  0  0  0  0
  6  5  1  0  0  0  0
  7 17  1  0  0  0  0
  9 26  1  6  0  0  0
  9 28  1  0  0  0  0
 11  3  1  0  0  0  0
 12 13  1  0  0  0  0
 12  8  1  1  0  0  0
 13 11  1  1  0  0  0
 14 23  1  6  0  0  0
 14 22  1  0  0  0  0
 15 18  1  0  0  0  0
 15  9  1  0  0  0  0
 16 19  1  0  0  0  0
 17  8  1  6  0  0  0
 17 10  1  0  0  0  0
 19  7  1  0  0  0  0
 20 29  1  0  0  0  0
 20  1  1  0  0  0  0
 20 10  1  1  0  0  0
 21  4  1  0  0  0  0
 22 21  1  6  0  0  0
 22 13  1  0  0  0  0
 24  7  2  0  0  0  0
 27 14  1  0  0  0  0
 27  2  1  0  0  0  0
 28 23  1  0  0  0  0
 29  1  1  0  0  0  0
 30 31  1  0  0  0  0
 30 29  1  0  0  0  0
 32 30  1  0  0  0  0
M  END
>  <MODEL>
1

>  <REMARK>
 VINA RESULT:      -8.8      0.000      0.000
  Name = 
  1 active torsions:
  status: ('A' for Active; 'I' for Inactive)
    1  A    between atoms: C_29  and  C_30
                            x       y       z     vdW  Elec       q    Type
                         _______ _______ _______ _____ _____    ______ ____

>  <TORSDO>
F 1

$$$$
=
 OpenBabel11112416293D

 32 38  0  0  1  0  0  0  0  0999 V2000
  187.0110  178.5780  144.6600 C   0  0  2  0  0  3  0  0  0  0  0  0
  190.7070  175.1410  143.5750 C   0  0  1  0  0  3  0  0  0  0  0  0
  195.0650  175.3880  146.1050 C   0  0  0  0  0  3  0  0  0  0  0  0
  195.3940  174.1720  145.6470 C   0  0  0  0  0  3  0  0  0  0  0  0
  190.4250  173.2790  141.8480 C   0  0  2  0  0  3  0  0  0  0  0  0
  191.0800  172.1730  140.9870 C   0  0  2  0  0  3  0  0  0  0  0  0
  189.2290  177.0610  143.4780 C   0  0  0  0  0  0  0  0  0  0  0  0
  190.9020  176.7550  145.4080 C   0  0  0  0  0  2  0  0  0  0  0  0
  191.9450  170.5760  142.3690 C   0  0  1  0  0  3  0  0  0  0  0  0
  188.7810  177.9740  145.8960 C   0  0  0  0  0  2  0  0  0  0  0  0
  193.8370  176.1210  145.6320 C   0  0  0  0  0  2  0  0  0  0  0  0
  191.7000  176.0190  144.3410 C   0  0  1  0  0  3  0  0  0  0  0  0
  192.8000  175.1870  144.9980 C   0  0  1  0  0  3  0  0  0  0  0  0
  192.4960  173.4210  143.2130 C   0  0  2  0  0  3  0  0  0  0  0  0
  190.6010  170.1620  141.9760 N   0  0  0  0  0  2  0  0  0  0  0  0
  186.8170  177.9000  143.3240 C   0  0  0  0  0  2  0  0  0  0  0  0
  189.8130  177.6320  144.7920 C   0  0  2  0  0  3  0  0  0  0  0  0
  190.1740  171.0370  140.9570 N   0  0  0  0  0  2  0  0  0  0  0  0
  188.2050  177.8360  142.6670 C   0  0  0  0  0  2  0  0  0  0  0  0
  187.4770  177.4750  145.5150 N   0  0  1  0  0  0  0  0  0  0  0  0
  194.5050  173.3970  144.7110 C   0  0  0  0  0  2  0  0  0  0  0  0
  193.5030  174.2920  143.9700 C   0  0  2  0  0  3  0  0  0  0  0  0
  193.2200  172.6210  142.1410 C   0  0  0  0  0  2  0  0  0  0  0  0
  189.7020  175.9800  142.9500 N   0  0  0  0  0  0  0  0  0  0  0  0
  189.4410  174.0150  140.9530 C   0  0  0  0  0  1  0  0  0  0  0  0
  192.8970  169.4040  142.2290 C   0  0  0  0  0  1  0  0  0  0  0  0
  191.4120  174.2510  142.5270 C   0  0  2  0  0  3  0  0  0  0  0  0
  192.3480  171.6480  141.4800 N   0  0  2  0  0  0  0  0  0  0  0  0
  186.3170  178.2810  145.9230 C   0  0  2  0  0  3  0  0  0  0  0  0
  184.9900  177.5200  145.7480 C   0  0  0  0  0  3  0  0  0  0  0  0
  183.8670  178.2930  146.0570 O   0  0  0  0  0  1  0  0  0  0  0  0
  184.9880  176.3500  146.5100 O   0  0  0  0  0  1  0  0  0  0  0  0
  1 16  1  6  0  0  0
  1 20  1  0  0  0  0
  1 29  1  0  0  0  0
  2 24  1  6  0  0  0
  2 12  1  0  0  0  0
  4  3  2  0  0  0  0
  5 25  1  6  0  0  0
  5 27  1  0  0  0  0
  6 18  1  1  0  0  0
  6 28  1  0  0  0  0
  6  5  1  0  0  0  0
  7 17  1  0  0  0  0
  9 26  1  6  0  0  0
 11  3  1  0  0  0  0
 12 13  1  0  0  0  0
 12  8  1  1  0  0  0
 13 11  1  6  0  0  0
 14 23  1  6  0  0  0
 14 22  1  0  0  0  0
 15  9  1  0  0  0  0
 17  8  1  1  0  0  0
 17 10  1  0  0  0  0
 18 15  1  0  0  0  0
 19 16  1  0  0  0  0
 19  7  1  0  0  0  0
 20 10  1  1  0  0  0
 20 29  1  0  0  0  0
 21  4  1  0  0  0  0
 22 21  1  1  0  0  0
 22 13  1  0  0  0  0
 24  7  2  0  0  0  0
 27 14  1  0  0  0  0
 27  2  1  0  0  0  0
 28 23  1  0  0  0  0
 28  9  1  0  0  0  0
 30 29  1  0  0  0  0
 30 31  1  0  0  0  0
 30 32  1  0  0  0  0
M  END
>  <MODEL>
2

>  <REMARK>
 VINA RESULT:      -7.7      3.888      7.540
  Name = 
  1 active torsions:
  status: ('A' for Active; 'I' for Inactive)
    1  A    between atoms: C_29  and  C_30
                            x       y       z     vdW  Elec       q    Type
                         _______ _______ _______ _____ _____    ______ ____

>  <TORSDO>
F 1

$$$$
=
 OpenBabel11112416293D

 32 38  0  0  1  0  0  0  0  0999 V2000
  193.7150  172.7160  141.1430 C   0  0  2  0  0  3  0  0  0  0  0  0
  190.1850  175.3810  143.8040 C   0  0  1  0  0  3  0  0  0  0  0  0
  191.4080  177.1350  148.3730 C   0  0  0  0  0  3  0  0  0  0  0  0
  190.3180  177.9150  148.3600 C   0  0  0  0  0  3  0  0  0  0  0  0
  187.8510  175.9030  142.9030 C   0  0  2  0  0  3  0  0  0  0  0  0
  186.4160  176.4070  143.1820 C   0  0  2  0  0  3  0  0  0  0  0  0
  191.4480  173.5710  142.8010 C   0  0  0  0  0  0  0  0  0  0  0  0
  192.4940  175.1100  144.5780 C   0  0  0  0  0  2  0  0  0  0  0  0
  186.5120  178.5970  143.8190 C   0  0  1  0  0  3  0  0  0  0  0  0
  194.0130  174.1220  142.8630 C   0  0  0  0  0  2  0  0  0  0  0  0
  191.6830  176.1180  147.2970 C   0  0  0  0  0  2  0  0  0  0  0  0
  191.0520  175.2130  145.0550 C   0  0  1  0  0  3  0  0  0  0  0  0
  190.9040  176.3990  146.0070 C   0  0  1  0  0  3  0  0  0  0  0  0
  188.5790  176.8080  145.0990 C   0  0  2  0  0  3  0  0  0  0  0  0
  186.2750  178.5490  142.3790 N   0  0  0  0  0  2  0  0  0  0  0  0
  192.3070  172.4990  140.6420 C   0  0  0  0  0  2  0  0  0  0  0  0
  192.6950  173.9120  143.6510 C   0  0  2  0  0  3  0  0  0  0  0  0
  185.9960  177.2080  142.0450 N   0  0  0  0  0  2  0  0  0  0  0  0
  191.4230  172.3550  141.8900 C   0  0  0  0  0  2  0  0  0  0  0  0
  193.7300  174.1570  141.4440 N   0  0  1  0  0  0  0  0  0  0  0  0
  189.3430  177.9160  147.2130 C   0  0  0  0  0  2  0  0  0  0  0  0
  189.4330  176.6430  146.3610 C   0  0  2  0  0  3  0  0  0  0  0  0
  187.1170  176.9520  145.4890 C   0  0  0  0  0  2  0  0  0  0  0  0
  190.3400  174.2190  142.9490 N   0  0  0  0  0  0  0  0  0  0  0  0
  187.7270  174.6770  142.0130 C   0  0  0  0  0  1  0  0  0  0  0  0
  185.5660  179.5950  144.4560 C   0  0  0  0  0  1  0  0  0  0  0  0
  188.6980  175.6090  144.1590 C   0  0  2  0  0  3  0  0  0  0  0  0
  186.2580  177.2710  144.3470 N   0  0  2  0  0  0  0  0  0  0  0  0
  194.7510  173.5810  140.5550 C   0  0  2  0  0  3  0  0  0  0  0  0
  194.5040  173.9420  139.0780 C   0  0  0  0  0  3  0  0  0  0  0  0
  195.5780  173.6140  138.2450 O   0  0  0  0  0  1  0  0  0  0  0  0
  194.1940  175.2970  138.9470 O   0  0  0  0  0  1  0  0  0  0  0  0
  1 16  1  6  0  0  0
  1 20  1  0  0  0  0
  2 24  1  6  0  0  0
  2 27  1  0  0  0  0
  2 12  1  0  0  0  0
  4  3  2  0  0  0  0
  5 25  1  1  0  0  0
  5  6  1  0  0  0  0
  5 27  1  0  0  0  0
  6 18  1  6  0  0  0
  6 28  1  0  0  0  0
  7 24  2  0  0  0  0
  7 17  1  0  0  0  0
  9 28  1  0  0  0  0
  9 26  1  1  0  0  0
 11  3  1  0  0  0  0
 12  8  1  6  0  0  0
 12 13  1  0  0  0  0
 13 22  1  0  0  0  0
 13 11  1  1  0  0  0
 14 23  1  1  0  0  0
 14 22  1  0  0  0  0
 15  9  1  0  0  0  0
 16 19  1  0  0  0  0
 17 10  1  6  0  0  0
 17  8  1  0  0  0  0
 18 15  1  0  0  0  0
 19  7  1  0  0  0  0
 20 10  1  1  0  0  0
 21  4  1  0  0  0  0
 22 21  1  1  0  0  0
 27 14  1  0  0  0  0
 28 23  1  0  0  0  0
 29  1  1  0  0  0  0
 29 20  1  0  0  0  0
 30 29  1  0  0  0  0
 31 30  1  0  0  0  0
 32 30  1  0  0  0  0
M  END
>  <MODEL>
3

>  <REMARK>
 VINA RESULT:      -7.7      2.722      3.691
  Name = 
  1 active torsions:
  status: ('A' for Active; 'I' for Inactive)
    1  A    between atoms: C_29  and  C_30
                            x       y       z     vdW  Elec       q    Type
                         _______ _______ _______ _____ _____    ______ ____

>  <TORSDO>
F 1

$$$$
=
 OpenBabel11112416293D

 32 38  0  0  1  0  0  0  0  0999 V2000
  190.3660  171.6090  138.0130 C   0  0  2  0  0  3  0  0  0  0  0  0
  190.2070  174.6830  142.1570 C   0  0  1  0  0  3  0  0  0  0  0  0
  185.8470  176.9240  143.3470 C   0  0  0  0  0  3  0  0  0  0  0  0
  186.3460  177.2480  144.5480 C   0  0  0  0  0  3  0  0  0  0  0  0
  192.2210  175.0930  143.6750 C   0  0  2  0  0  3  0  0  0  0  0  0
  192.8650  175.9220  144.8110 C   0  0  2  0  0  3  0  0  0  0  0  0
  190.5840  173.8320  139.9180 C   0  0  0  0  0  0  0  0  0  0  0  0
  188.2070  174.1030  140.8650 C   0  0  0  0  0  2  0  0  0  0  0  0
  191.6560  175.6200  146.7230 C   0  0  1  0  0  3  0  0  0  0  0  0
  188.5880  172.2910  139.1940 C   0  0  0  0  0  2  0  0  0  0  0  0
  186.6870  176.2910  142.2690 C   0  0  0  0  0  2  0  0  0  0  0  0
  188.8630  175.2230  141.6610 C   0  0  1  0  0  3  0  0  0  0  0  0
  187.9570  175.6340  142.8210 C   0  0  1  0  0  3  0  0  0  0  0  0
  190.0080  176.0730  144.2360 C   0  0  2  0  0  3  0  0  0  0  0  0
  192.7580  174.6630  146.7230 N   0  0  0  0  0  2  0  0  0  0  0  0
  191.7320  172.0690  138.4630 C   0  0  0  0  0  2  0  0  0  0  0  0
  189.0630  173.6870  139.6700 C   0  0  2  0  0  3  0  0  0  0  0  0
  193.6150  175.0100  145.6590 N   0  0  0  0  0  2  0  0  0  0  0  0
  191.5920  173.5580  138.8150 C   0  0  0  0  0  2  0  0  0  0  0  0
  189.6800  171.3470  139.2880 N   0  0  1  0  0  0  0  0  0  0  0  0
  187.7550  176.9020  144.9530 C   0  0  0  0  0  2  0  0  0  0  0  0
  188.6660  176.6280  143.7490 C   0  0  2  0  0  3  0  0  0  0  0  0
  190.7200  177.1230  145.0730 C   0  0  0  0  0  2  0  0  0  0  0  0
  191.0370  174.3340  141.0190 N   0  0  0  0  0  0  0  0  0  0  0  0
  193.2890  174.8920  142.6110 C   0  0  0  0  0  1  0  0  0  0  0  0
  191.5660  176.2890  148.0800 C   0  0  0  0  0  1  0  0  0  0  0  0
  190.9300  175.6910  143.0780 C   0  0  2  0  0  3  0  0  0  0  0  0
  191.9380  176.6100  145.7030 N   0  0  2  0  0  0  0  0  0  0  0  0
  189.7380  170.3010  138.2550 C   0  0  2  0  0  3  0  0  0  0  0  0
  190.7330  169.1830  138.6160 C   0  0  0  0  0  3  0  0  0  0  0  0
  190.7910  168.1670  137.6580 O   0  0  0  0  0  1  0  0  0  0  0  0
  190.4330  168.6410  139.8680 O   0  0  0  0  0  1  0  0  0  0  0  0
  1 29  1  0  0  0  0
  1 16  1  1  0  0  0
  1 20  1  0  0  0  0
  2 24  1  6  0  0  0
  2 27  1  0  0  0  0
  3  4  2  0  0  0  0
  4 21  1  0  0  0  0
  5 25  1  6  0  0  0
  5  6  1  0  0  0  0
  6 18  1  1  0  0  0
  6 28  1  0  0  0  0
  7 24  2  0  0  0  0
  9 15  1  0  0  0  0
  9 26  1  1  0  0  0
 11  3  1  0  0  0  0
 12  8  1  1  0  0  0
 12  2  1  0  0  0  0
 12 13  1  0  0  0  0
 13 11  1  6  0  0  0
 13 22  1  0  0  0  0
 14 23  1  6  0  0  0
 16 19  1  0  0  0  0
 17 10  1  1  0  0  0
 17  7  1  0  0  0  0
 17  8  1  0  0  0  0
 18 15  1  0  0  0  0
 19  7  1  0  0  0  0
 20 10  1  6  0  0  0
 22 14  1  0  0  0  0
 22 21  1  1  0  0  0
 23 28  1  0  0  0  0
 27  5  1  0  0  0  0
 27 14  1  0  0  0  0
 28  9  1  0  0  0  0
 29 30  1  0  0  0  0
 29 20  1  0  0  0  0
 30 32  1  0  0  0  0
 31 30  1  0  0  0  0
M  END
>  <MODEL>
4

>  <REMARK>
 VINA RESULT:      -7.5      3.916      7.002
  Name = 
  1 active torsions:
  status: ('A' for Active; 'I' for Inactive)
    1  A    between atoms: C_29  and  C_30
                            x       y       z     vdW  Elec       q    Type
                         _______ _______ _______ _____ _____    ______ ____

>  <TORSDO>
F 1

$$$$
=
 OpenBabel11112416293D

 32 38  0  0  1  0  0  0  0  0999 V2000
  191.8000  172.2940  141.0490 C   0  0  2  0  0  3  0  0  0  0  0  0
  188.4820  175.8030  142.8710 C   0  0  1  0  0  3  0  0  0  0  0  0
  185.1640  177.8840  139.6910 C   0  0  0  0  0  3  0  0  0  0  0  0
  184.4790  178.3740  140.7340 C   0  0  0  0  0  3  0  0  0  0  0  0
  188.3980  176.5110  145.3260 C   0  0  2  0  0  3  0  0  0  0  0  0
  187.8770  177.5040  146.3910 C   0  0  2  0  0  3  0  0  0  0  0  0
  190.4860  174.7290  142.0310 C   0  0  0  0  0  0  0  0  0  0  0  0
  188.3770  174.9550  140.5750 C   0  0  0  0  0  2  0  0  0  0  0  0
  185.6030  177.3450  146.5000 C   0  0  1  0  0  3  0  0  0  0  0  0
  189.8610  172.9920  140.1670 C   0  0  0  0  0  2  0  0  0  0  0  0
  186.4890  177.1880  139.8550 C   0  0  0  0  0  2  0  0  0  0  0  0
  188.1590  176.1980  141.4270 C   0  0  1  0  0  3  0  0  0  0  0  0
  186.7170  176.6800  141.2830 C   0  0  1  0  0  3  0  0  0  0  0  0
  186.7410  177.4060  143.7050 C   0  0  2  0  0  3  0  0  0  0  0  0
  186.1720  176.4660  147.5170 N   0  0  0  0  0  2  0  0  0  0  0  0
  192.2300  172.8880  142.3690 C   0  0  0  0  0  2  0  0  0  0  0  0
  189.8200  174.4600  140.6600 C   0  0  2  0  0  3  0  0  0  0  0  0
  187.5530  176.7440  147.5870 N   0  0  0  0  0  2  0  0  0  0  0  0
  191.9480  174.3960  142.2770 C   0  0  0  0  0  2  0  0  0  0  0  0
  190.3470  172.1350  141.2270 N   0  0  1  0  0  0  0  0  0  0  0  0
  184.9230  178.1670  142.1570 C   0  0  0  0  0  2  0  0  0  0  0  0
  186.4130  177.8160  142.2660 C   0  0  2  0  0  3  0  0  0  0  0  0
  186.5180  178.5880  144.6350 C   0  0  0  0  0  2  0  0  0  0  0  0
  189.8670  175.3810  142.9600 N   0  0  0  0  0  0  0  0  0  0  0  0
  189.8660  176.2580  145.6330 C   0  0  0  0  0  1  0  0  0  0  0  0
  184.4760  178.1570  147.1060 C   0  0  0  0  0  1  0  0  0  0  0  0
  188.1920  176.9540  143.8620 C   0  0  2  0  0  3  0  0  0  0  0  0
  186.6590  178.2290  146.0470 N   0  0  2  0  0  0  0  0  0  0  0  0
  191.1680  170.9850  140.8210 C   0  0  2  0  0  3  0  0  0  0  0  0
  191.3700  169.9800  141.9700 C   0  0  0  0  0  3  0  0  0  0  0  0
  192.6950  169.5570  142.1060 O   0  0  0  0  0  1  0  0  0  0  0  0
  190.5300  168.8760  141.8130 O   0  0  0  0  0  1  0  0  0  0  0  0
  1 20  1  0  0  0  0
  1 16  1  1  0  0  0
  2 24  1  6  0  0  0
  2 27  1  0  0  0  0
  3 11  1  0  0  0  0
  3  4  2  0  0  0  0
  4 21  1  0  0  0  0
  5 25  1  1  0  0  0
  5  6  1  0  0  0  0
  6 18  1  1  0  0  0
  7 19  1  0  0  0  0
  7 24  2  0  0  0  0
  8 17  1  0  0  0  0
  9 26  1  1  0  0  0
  9 15  1  0  0  0  0
 12  8  1  6  0  0  0
 12  2  1  0  0  0  0
 13 11  1  6  0  0  0
 13 12  1  0  0  0  0
 13 22  1  0  0  0  0
 14 27  1  0  0  0  0
 14 23  1  1  0  0  0
 15 18  1  0  0  0  0
 17 10  1  1  0  0  0
 17  7  1  0  0  0  0
 19 16  1  0  0  0  0
 20 10  1  6  0  0  0
 22 21  1  1  0  0  0
 22 14  1  0  0  0  0
 23 28  1  0  0  0  0
 27  5  1  0  0  0  0
 28  6  1  0  0  0  0
 28  9  1  0  0  0  0
 29  1  1  0  0  0  0
 29 20  1  0  0  0  0
 29 30  1  0  0  0  0
 30 31  1  0  0  0  0
 32 30  1  0  0  0  0
M  END
>  <MODEL>
5

>  <REMARK>
 VINA RESULT:      -7.5      3.228      5.713
  Name = 
  1 active torsions:
  status: ('A' for Active; 'I' for Inactive)
    1  A    between atoms: C_29  and  C_30
                            x       y       z     vdW  Elec       q    Type
                         _______ _______ _______ _____ _____    ______ ____

>  <TORSDO>
F 1

$$$$
=
 OpenBabel11112416293D

 32 38  0  0  1  0  0  0  0  0999 V2000
  193.1040  173.4800  143.1660 C   0  0  2  0  0  3  0  0  0  0  0  0
  188.9030  176.4160  143.7760 C   0  0  1  0  0  3  0  0  0  0  0  0
  186.0740  177.4700  139.7340 C   0  0  0  0  0  3  0  0  0  0  0  0
  185.0970  177.9120  140.5380 C   0  0  0  0  0  3  0  0  0  0  0  0
  188.1490  177.3300  146.0410 C   0  0  2  0  0  3  0  0  0  0  0  0
  187.2370  178.2980  146.8300 C   0  0  2  0  0  3  0  0  0  0  0  0
  191.2000  175.6870  143.5150 C   0  0  0  0  0  0  0  0  0  0  0  0
  189.4660  175.3430  141.6460 C   0  0  0  0  0  2  0  0  0  0  0  0
  185.0600  177.6990  146.4990 C   0  0  1  0  0  3  0  0  0  0  0  0
  191.3220  173.6860  141.8230 C   0  0  0  0  0  2  0  0  0  0  0  0
  187.4290  177.0720  140.2570 C   0  0  0  0  0  2  0  0  0  0  0  0
  188.8490  176.5950  142.2560 C   0  0  1  0  0  3  0  0  0  0  0  0
  187.4150  176.7620  141.7580 C   0  0  1  0  0  3  0  0  0  0  0  0
  186.7680  177.7120  144.0100 C   0  0  2  0  0  3  0  0  0  0  0  0
  185.5300  177.0560  147.7220 N   0  0  0  0  0  2  0  0  0  0  0  0
  193.1170  174.2750  144.4500 C   0  0  0  0  0  2  0  0  0  0  0  0
  190.9160  175.1570  142.0890 C   0  0  2  0  0  3  0  0  0  0  0  0
  186.7890  177.6090  148.0290 N   0  0  0  0  0  2  0  0  0  0  0  0
  192.6050  175.6790  144.0940 C   0  0  0  0  0  2  0  0  0  0  0  0
  191.7000  173.0520  143.0680 N   0  0  1  0  0  0  0  0  0  0  0  0
  185.2400  177.9390  142.0370 C   0  0  0  0  0  2  0  0  0  0  0  0
  186.7050  177.9050  142.4920 C   0  0  2  0  0  3  0  0  0  0  0  0
  186.1390  178.9110  144.7020 C   0  0  0  0  0  2  0  0  0  0  0  0
  190.2840  176.2900  144.1990 N   0  0  0  0  0  0  0  0  0  0  0  0
  189.5310  177.4070  146.6690 C   0  0  0  0  0  1  0  0  0  0  0  0
  183.7010  178.3250  146.7450 C   0  0  0  0  0  1  0  0  0  0  0  0
  188.2030  177.5770  144.5180 C   0  0  2  0  0  3  0  0  0  0  0  0
  186.0200  178.7270  146.1500 N   0  0  2  0  0  0  0  0  0  0  0  0
  192.7780  172.0550  142.9990 C   0  0  2  0  0  3  0  0  0  0  0  0
  192.8880  171.2290  144.2940 C   0  0  0  0  0  3  0  0  0  0  0  0
  194.2070  171.0400  144.7160 O   0  0  0  0  0  1  0  0  0  0  0  0
  192.2530  169.9940  144.1460 O   0  0  0  0  0  1  0  0  0  0  0  0
  1 16  1  1  0  0  0
  2 24  1  1  0  0  0
  2 27  1  0  0  0  0
  3 11  1  0  0  0  0
  3  4  2  0  0  0  0
  4 21  1  0  0  0  0
  5 25  1  1  0  0  0
  5  6  1  0  0  0  0
  6 18  1  1  0  0  0
  7 19  1  0  0  0  0
  7 24  2  0  0  0  0
  9 26  1  1  0  0  0
  9 15  1  0  0  0  0
 10 17  1  0  0  0  0
 12  8  1  6  0  0  0
 12  2  1  0  0  0  0
 13 11  1  6  0  0  0
 13 12  1  0  0  0  0
 13 22  1  0  0  0  0
 14 27  1  0  0  0  0
 14 23  1  1  0  0  0
 15 18  1  0  0  0  0
 17  8  1  1  0  0  0
 17  7  1  0  0  0  0
 19 16  1  0  0  0  0
 20 10  1  6  0  0  0
 20  1  1  0  0  0  0
 22 21  1  6  0  0  0
 22 14  1  0  0  0  0
 23 28  1  0  0  0  0
 27  5  1  0  0  0  0
 28  9  1  0  0  0  0
 28  6  1  0  0  0  0
 29 20  1  0  0  0  0
 29  1  1  0  0  0  0
 29 30  1  0  0  0  0
 30 31  1  0  0  0  0
 32 30  1  0  0  0  0
M  END
>  <MODEL>
6

>  <REMARK>
 VINA RESULT:      -7.5      2.694      5.000
  Name = 
  1 active torsions:
  status: ('A' for Active; 'I' for Inactive)
    1  A    between atoms: C_29  and  C_30
                            x       y       z     vdW  Elec       q    Type
                         _______ _______ _______ _____ _____    ______ ____

>  <TORSDO>
F 1

$$$$
=
 OpenBabel11112416293D

 32 38  0  0  1  0  0  0  0  0999 V2000
  186.0400  176.8330  145.0560 C   0  0  2  0  0  3  0  0  0  0  0  0
  190.9210  175.5880  143.9310 C   0  0  1  0  0  3  0  0  0  0  0  0
  191.8520  173.0160  139.6920 C   0  0  0  0  0  3  0  0  0  0  0  0
  193.1580  173.2910  139.8180 C   0  0  0  0  0  3  0  0  0  0  0  0
  192.9090  176.2530  145.3940 C   0  0  2  0  0  3  0  0  0  0  0  0
  194.4090  176.0820  145.7310 C   0  0  2  0  0  3  0  0  0  0  0  0
  188.7000  175.6000  144.9020 C   0  0  0  0  0  0  0  0  0  0  0  0
  189.0630  175.1640  142.3920 C   0  0  0  0  0  2  0  0  0  0  0  0
  195.6520  176.7910  143.9530 C   0  0  1  0  0  3  0  0  0  0  0  0
  186.9270  176.2530  143.0810 C   0  0  0  0  0  2  0  0  0  0  0  0
  190.8480  173.3750  140.7560 C   0  0  0  0  0  2  0  0  0  0  0  0
  190.3930  174.6070  142.8810 C   0  0  1  0  0  3  0  0  0  0  0  0
  191.3580  174.4640  141.7060 C   0  0  1  0  0  3  0  0  0  0  0  0
  193.2760  175.0730  143.2380 C   0  0  2  0  0  3  0  0  0  0  0  0
  195.5120  177.9040  144.8870 N   0  0  0  0  0  2  0  0  0  0  0  0
  186.9600  176.9030  146.2510 C   0  0  0  0  0  2  0  0  0  0  0  0
  188.0520  175.2880  143.5310 C   0  0  2  0  0  3  0  0  0  0  0  0
  194.9410  177.3910  146.0690 N   0  0  0  0  0  2  0  0  0  0  0  0
  187.8670  175.6660  146.1710 C   0  0  0  0  0  2  0  0  0  0  0  0
  186.8720  177.3880  143.9770 N   0  0  1  0  0  0  0  0  0  0  0  0
  193.7070  174.0780  140.9790 C   0  0  0  0  0  2  0  0  0  0  0  0
  192.7620  174.0820  142.1880 C   0  0  2  0  0  3  0  0  0  0  0  0
  194.6260  174.6070  143.7590 C   0  0  0  0  0  2  0  0  0  0  0  0
  189.9830  175.6660  145.0350 N   0  0  0  0  0  0  0  0  0  0  0  0
  192.1560  176.2810  146.7140 C   0  0  0  0  0  1  0  0  0  0  0  0
  197.0980  176.6780  143.5130 C   0  0  0  0  0  1  0  0  0  0  0  0
  192.3290  175.1950  144.4310 C   0  0  2  0  0  3  0  0  0  0  0  0
  195.2540  175.5840  144.6510 N   0  0  2  0  0  0  0  0  0  0  0  0
  185.5410  177.9540  144.2440 C   0  0  2  0  0  3  0  0  0  0  0  0
  185.6210  179.3230  144.9440 C   0  0  0  0  0  3  0  0  0  0  0  0
  184.6330  179.5030  145.9160 O   0  0  0  0  0  1  0  0  0  0  0  0
  185.5670  180.3590  144.0100 O   0  0  0  0  0  1  0  0  0  0  0  0
  1 16  1  1  0  0  0
  2 27  1  0  0  0  0
  2 24  1  1  0  0  0
  3  4  2  0  0  0  0
  3 11  1  0  0  0  0
  4 21  1  0  0  0  0
  5  6  1  0  0  0  0
  5 25  1  1  0  0  0
  6 18  1  6  0  0  0
  7 24  2  0  0  0  0
  7 19  1  0  0  0  0
  9 26  1  1  0  0  0
  9 28  1  0  0  0  0
  9 15  1  0  0  0  0
 10 17  1  0  0  0  0
 12  8  1  6  0  0  0
 12  2  1  0  0  0  0
 13 11  1  6  0  0  0
 13 22  1  0  0  0  0
 13 12  1  0  0  0  0
 14 23  1  1  0  0  0
 14 27  1  0  0  0  0
 15 18  1  0  0  0  0
 17  8  1  6  0  0  0
 17  7  1  0  0  0  0
 19 16  1  0  0  0  0
 20 10  1  6  0  0  0
 20 29  1  0  0  0  0
 20  1  1  0  0  0  0
 22 21  1  6  0  0  0
 22 14  1  0  0  0  0
 23 28  1  0  0  0  0
 27  5  1  0  0  0  0
 28  6  1  0  0  0  0
 29 30  1  0  0  0  0
 29  1  1  0  0  0  0
 30 31  1  0  0  0  0
 32 30  1  0  0  0  0
M  END
>  <MODEL>
7

>  <REMARK>
 VINA RESULT:      -7.1      3.513      8.299
  Name = 
  1 active torsions:
  status: ('A' for Active; 'I' for Inactive)
    1  A    between atoms: C_29  and  C_30
                            x       y       z     vdW  Elec       q    Type
                         _______ _______ _______ _____ _____    ______ ____

>  <TORSDO>
F 1

$$$$
=
 OpenBabel11112416293D

 32 38  0  0  1  0  0  0  0  0999 V2000
  193.1760  173.0210  138.7980 C   0  0  2  0  0  3  0  0  0  0  0  0
  190.2740  175.0610  142.5470 C   0  0  1  0  0  3  0  0  0  0  0  0
  192.2770  175.5870  147.1480 C   0  0  0  0  0  3  0  0  0  0  0  0
  191.2560  176.3830  147.4960 C   0  0  0  0  0  3  0  0  0  0  0  0
  187.8770  175.8690  142.1820 C   0  0  2  0  0  3  0  0  0  0  0  0
  186.5390  176.3360  142.7990 C   0  0  2  0  0  3  0  0  0  0  0  0
  191.2440  173.5140  140.9520 C   0  0  0  0  0  0  0  0  0  0  0  0
  192.6460  174.5300  142.8550 C   0  0  0  0  0  2  0  0  0  0  0  0
  186.8840  178.2950  143.9180 C   0  0  1  0  0  3  0  0  0  0  0  0
  193.8220  173.9460  140.7340 C   0  0  0  0  0  2  0  0  0  0  0  0
  192.3170  174.8600  145.8300 C   0  0  0  0  0  2  0  0  0  0  0  0
  191.3010  174.5600  143.5670 C   0  0  1  0  0  3  0  0  0  0  0  0
  191.3800  175.4780  144.7860 C   0  0  1  0  0  3  0  0  0  0  0  0
  188.9830  176.1770  144.3860 C   0  0  2  0  0  3  0  0  0  0  0  0
  186.4350  178.6130  142.5650 N   0  0  0  0  0  2  0  0  0  0  0  0
  191.6980  172.9820  138.4910 C   0  0  0  0  0  2  0  0  0  0  0  0
  192.6230  173.5920  141.6490 C   0  0  2  0  0  3  0  0  0  0  0  0
  186.0150  177.4080  141.9690 N   0  0  0  0  0  2  0  0  0  0  0  0
  190.9980  172.5630  139.7930 C   0  0  0  0  0  2  0  0  0  0  0  0
  193.3380  174.3410  139.4280 N   0  0  1  0  0  0  0  0  0  0  0  0
  190.1260  176.7000  146.5540 C   0  0  0  0  0  2  0  0  0  0  0  0
  189.9980  175.6760  145.4180 C   0  0  2  0  0  3  0  0  0  0  0  0
  187.6070  176.2690  145.0270 C   0  0  0  0  0  2  0  0  0  0  0  0
  190.2190  174.1420  141.4260 N   0  0  0  0  0  0  0  0  0  0  0  0
  187.5360  174.9060  141.0560 C   0  0  0  0  0  1  0  0  0  0  0  0
  186.1160  179.1360  144.9180 C   0  0  0  0  0  1  0  0  0  0  0  0
  188.8760  175.2450  143.1790 C   0  0  2  0  0  3  0  0  0  0  0  0
  186.6160  176.8890  144.1470 N   0  0  2  0  0  0  0  0  0  0  0  0
  194.1740  173.9690  138.2760 C   0  0  2  0  0  3  0  0  0  0  0  0
  193.7400  174.6920  136.9870 C   0  0  0  0  0  3  0  0  0  0  0  0
  194.7550  174.7650  136.0290 O   0  0  0  0  0  1  0  0  0  0  0  0
  193.2630  175.9720  137.2770 O   0  0  0  0  0  1  0  0  0  0  0  0
  1 16  1  6  0  0  0
  1 20  1  0  0  0  0
  2 24  1  6  0  0  0
  2 27  1  0  0  0  0
  2 12  1  0  0  0  0
  3  4  2  0  0  0  0
  5 25  1  6  0  0  0
  5  6  1  0  0  0  0
  5 27  1  0  0  0  0
  6 18  1  6  0  0  0
  6 28  1  0  0  0  0
  7 24  2  0  0  0  0
  7 17  1  0  0  0  0
  9 28  1  0  0  0  0
  9 26  1  1  0  0  0
 11  3  1  0  0  0  0
 12  8  1  6  0  0  0
 12 13  1  0  0  0  0
 13 22  1  0  0  0  0
 13 11  1  1  0  0  0
 14 23  1  1  0  0  0
 14 22  1  0  0  0  0
 15  9  1  0  0  0  0
 16 19  1  0  0  0  0
 17 10  1  6  0  0  0
 17  8  1  0  0  0  0
 18 15  1  0  0  0  0
 19  7  1  0  0  0  0
 20 10  1  1  0  0  0
 21  4  1  0  0  0  0
 22 21  1  1  0  0  0
 27 14  1  0  0  0  0
 28 23  1  0  0  0  0
 29  1  1  0  0  0  0
 29 20  1  0  0  0  0
 30 32  1  0  0  0  0
 30 29  1  0  0  0  0
 31 30  1  0  0  0  0
M  END
>  <MODEL>
8

>  <REMARK>
 VINA RESULT:      -6.9      3.483      4.967
  Name = 
  1 active torsions:
  status: ('A' for Active; 'I' for Inactive)
    1  A    between atoms: C_29  and  C_30
                            x       y       z     vdW  Elec       q    Type
                         _______ _______ _______ _____ _____    ______ ____

>  <TORSDO>
F 1

$$$$
=
 OpenBabel11112416293D

 32 38  0  0  1  0  0  0  0  0999 V2000
  188.6970  176.3020  146.6110 C   0  0  2  0  0  3  0  0  0  0  0  0
  193.0120  174.4830  144.4400 C   0  0  1  0  0  3  0  0  0  0  0  0
  193.2190  169.6020  143.1790 C   0  0  0  0  0  3  0  0  0  0  0  0
  194.3210  169.8420  142.4530 C   0  0  0  0  0  3  0  0  0  0  0  0
  195.0440  175.9440  143.9230 C   0  0  2  0  0  3  0  0  0  0  0  0
  196.5350  176.0280  143.5210 C   0  0  2  0  0  3  0  0  0  0  0  0
  191.3890  175.2680  146.0610 C   0  0  0  0  0  0  0  0  0  0  0  0
  190.9880  173.1250  144.6940 C   0  0  0  0  0  2  0  0  0  0  0  0
  196.7830  175.1750  141.4190 C   0  0  1  0  0  3  0  0  0  0  0  0
  188.9880  174.4360  145.4040 C   0  0  0  0  0  2  0  0  0  0  0  0
  192.5850  170.6550  144.0490 C   0  0  0  0  0  2  0  0  0  0  0  0
  192.5090  173.0620  144.7130 C   0  0  1  0  0  3  0  0  0  0  0  0
  193.0010  172.0760  143.6550 C   0  0  1  0  0  3  0  0  0  0  0  0
  195.0140  173.5530  143.2490 C   0  0  2  0  0  3  0  0  0  0  0  0
  196.6150  176.6210  141.3090 N   0  0  0  0  0  2  0  0  0  0  0  0
  189.8950  177.1960  146.8320 C   0  0  0  0  0  2  0  0  0  0  0  0
  190.4510  174.0730  145.7650 C   0  0  2  0  0  3  0  0  0  0  0  0
  196.6880  177.1520  142.6120 N   0  0  0  0  0  2  0  0  0  0  0  0
  191.0720  176.2650  147.1620 C   0  0  0  0  0  2  0  0  0  0  0  0
  188.8740  175.8670  145.2170 N   0  0  1  0  0  0  0  0  0  0  0  0
  194.9430  171.2100  142.3620 C   0  0  0  0  0  2  0  0  0  0  0  0
  194.5270  172.1260  143.5210 C   0  0  2  0  0  3  0  0  0  0  0  0
  196.5340  173.5750  143.2180 C   0  0  0  0  0  2  0  0  0  0  0  0
  192.5420  175.3710  145.4860 N   0  0  0  0  0  0  0  0  0  0  0  0
  194.8270  176.9510  145.0410 C   0  0  0  0  0  1  0  0  0  0  0  0
  197.9400  174.7310  140.5460 C   0  0  0  0  0  1  0  0  0  0  0  0
  194.5520  174.5370  144.3230 C   0  0  2  0  0  3  0  0  0  0  0  0
  197.0700  174.8740  142.8070 N   0  0  2  0  0  0  0  0  0  0  0  0
  187.6090  176.4880  145.6370 C   0  0  2  0  0  3  0  0  0  0  0  0
  187.4700  177.9310  145.1180 C   0  0  0  0  0  3  0  0  0  0  0  0
  186.1850  178.4550  145.2850 O   0  0  0  0  0  1  0  0  0  0  0  0
  187.8470  178.0110  143.7760 O   0  0  0  0  0  1  0  0  0  0  0  0
  1 16  1  6  0  0  0
  2 12  1  0  0  0  0
  2 24  1  1  0  0  0
  3 11  1  0  0  0  0
  4  3  2  0  0  0  0
  5 27  1  0  0  0  0
  5 25  1  1  0  0  0
  6 18  1  6  0  0  0
  6  5  1  0  0  0  0
  7 19  1  0  0  0  0
  9 26  1  6  0  0  0
  9 28  1  0  0  0  0
 10 17  1  0  0  0  0
 12  8  1  6  0  0  0
 13 11  1  1  0  0  0
 13 12  1  0  0  0  0
 14 23  1  1  0  0  0
 14 22  1  0  0  0  0
 14 27  1  0  0  0  0
 15  9  1  0  0  0  0
 15 18  1  0  0  0  0
 16 19  1  0  0  0  0
 17  8  1  6  0  0  0
 17  7  1  0  0  0  0
 20 10  1  1  0  0  0
 20 29  1  0  0  0  0
 20  1  1  0  0  0  0
 21  4  1  0  0  0  0
 22 21  1  6  0  0  0
 22 13  1  0  0  0  0
 24  7  2  0  0  0  0
 27  2  1  0  0  0  0
 28 23  1  0  0  0  0
 28  6  1  0  0  0  0
 29  1  1  0  0  0  0
 30 31  1  0  0  0  0
 30 29  1  0  0  0  0
 32 30  1  0  0  0  0
M  END
>  <MODEL>
9

>  <REMARK>
 VINA RESULT:      -6.9      3.510      8.462
  Name = 
  1 active torsions:
  status: ('A' for Active; 'I' for Inactive)
    1  A    between atoms: C_29  and  C_30
                            x       y       z     vdW  Elec       q    Type
                         _______ _______ _______ _____ _____    ______ ____

>  <TORSDO>
F 1

$$$$
