=
 OpenBabel11112416263D

 30 35  0  0  1  0  0  0  0  0999 V2000
  190.0430  175.7870  143.8700 C   0  0  1  0  0  3  0  0  0  0  0  0
  192.2390  176.0290  145.1810 C   0  0  0  0  0  0  0  0  0  0  0  0
  187.8180  177.5710  146.9220 N   0  0  0  0  0  2  0  0  0  0  0  0
  188.9480  176.7740  143.4300 C   0  0  1  0  0  3  0  0  0  0  0  0
  190.8260  175.4480  142.7480 O   0  0  0  0  0  0  0  0  0  0  0  0
  188.1540  174.7940  140.4700 O   0  0  0  0  0  0  0  0  0  0  0  0
  185.8200  177.2370  142.5000 C   0  0  1  0  0  3  0  0  0  0  0  0
  188.7420  175.2170  141.5020 C   0  0  0  0  0  0  0  0  0  0  0  0
  185.9900  178.0800  143.7350 C   0  0  1  0  0  3  0  0  0  0  0  0
  186.5270  177.7300  146.2340 C   0  0  2  0  0  3  0  0  0  0  0  0
  190.0600  174.6000  141.9060 C   0  0  2  0  0  3  0  0  0  0  0  0
  188.1510  176.2540  142.3100 N   0  0  0  0  0  0  0  0  0  0  0  0
  192.9040  176.4070  146.4690 C   0  0  0  0  0  2  0  0  0  0  0  0
  184.5670  178.4650  144.0940 C   0  0  0  0  0  2  0  0  0  0  0  0
  184.7040  177.8990  141.7190 C   0  0  0  0  0  2  0  0  0  0  0  0
  192.9110  175.4410  144.2930 O   0  0  0  0  0  0  0  0  0  0  0  0
  188.6420  176.8740  145.9490 C   0  0  1  0  0  3  0  0  0  0  0  0
  191.9220  176.2870  147.6010 C   0  0  0  0  0  3  0  0  0  0  0  0
  190.8440  176.3560  144.9800 N   0  0  0  0  0  0  0  0  0  0  0  0
  188.1780  177.3740  144.6230 C   0  0  2  0  0  3  0  0  0  0  0  0
  185.4660  176.9070  146.9390 C   0  0  0  0  0  1  0  0  0  0  0  0
  186.6950  177.2380  144.7880 C   0  0  2  0  0  3  0  0  0  0  0  0
  183.8250  178.5630  142.7680 C   0  0  0  0  0  2  0  0  0  0  0  0
  187.2720  177.6160  140.6250 O   0  0  0  0  0  0  0  0  0  0  0  0
  190.6310  176.5970  147.4230 C   0  0  0  0  0  3  0  0  0  0  0  0
  190.1480  177.0780  146.0790 C   0  0  2  0  0  3  0  0  0  0  0  0
  187.1060  177.0650  141.7490 C   0  0  0  0  0  0  0  0  0  0  0  0
  189.8670  173.2060  142.5050 C   0  0  0  0  0  2  0  0  0  0  0  0
  191.3510  172.2380  144.2590 C   0  0  0  0  0  1  0  0  0  0  0  0
  191.2040  172.5360  142.7790 C   0  0  0  0  0  2  0  0  0  0  0  0
  1  5  1  6  0  0  0
  1 19  1  0  0  0  0
  2 13  1  0  0  0  0
  4 12  1  6  0  0  0
  4  1  1  0  0  0  0
  4 20  1  0  0  0  0
  6  8  2  0  0  0  0
  7 15  1  6  0  0  0
  7  9  1  0  0  0  0
  8 11  1  0  0  0  0
  8 12  1  0  0  0  0
  9 14  1  1  0  0  0
  9 22  1  0  0  0  0
 10  3  1  0  0  0  0
 10 21  1  1  0  0  0
 11 28  1  1  0  0  0
 11  5  1  0  0  0  0
 13 18  1  0  0  0  0
 15 23  1  0  0  0  0
 16  2  2  0  0  0  0
 17 26  1  0  0  0  0
 17  3  1  1  0  0  0
 19  2  1  0  0  0  0
 19 26  1  0  0  0  0
 20 22  1  0  0  0  0
 20 17  1  0  0  0  0
 22 10  1  0  0  0  0
 23 14  1  0  0  0  0
 24 27  2  0  0  0  0
 25 18  2  0  0  0  0
 26 25  1  0  0  0  0
 27 12  1  0  0  0  0
 27  7  1  0  0  0  0
 28 30  1  0  0  0  0
 30 29  1  0  0  0  0
M  END
>  <MODEL>
1

>  <REMARK>
 VINA RESULT:      -8.9      0.000      0.000
  Name = 
  2 active torsions:
  status: ('A' for Active; 'I' for Inactive)
    1  A    between atoms: C_11  and  C_28
    2  A    between atoms: C_28  and  C_30
                            x       y       z     vdW  Elec       q    Type
                         _______ _______ _______ _____ _____    ______ ____

>  <TORSDO>
F 2

$$$$
=
 OpenBabel11112416263D

 30 35  0  0  1  0  0  0  0  0999 V2000
  190.4720  175.6110  143.4740 C   0  0  1  0  0  3  0  0  0  0  0  0
  192.8480  175.8060  144.4320 C   0  0  0  0  0  0  0  0  0  0  0  0
  188.7770  177.4220  146.8350 N   0  0  0  0  0  2  0  0  0  0  0  0
  189.3420  176.6200  143.2080 C   0  0  1  0  0  3  0  0  0  0  0  0
  191.0680  175.2630  142.2440 O   0  0  0  0  0  0  0  0  0  0  0  0
  188.0660  174.6690  140.4020 O   0  0  0  0  0  0  0  0  0  0  0  0
  186.1180  177.1450  142.7710 C   0  0  1  0  0  3  0  0  0  0  0  0
  188.8140  175.0760  141.3330 C   0  0  0  0  0  0  0  0  0  0  0  0
  186.4910  177.9790  143.9670 C   0  0  1  0  0  3  0  0  0  0  0  0
  187.3980  177.6080  146.3530 C   0  0  2  0  0  3  0  0  0  0  0  0
  190.1660  174.4330  141.5280 C   0  0  2  0  0  3  0  0  0  0  0  0
  188.3730  176.1200  142.2230 N   0  0  0  0  0  0  0  0  0  0  0  0
  193.7100  176.1670  145.6040 C   0  0  0  0  0  2  0  0  0  0  0  0
  185.1480  178.3890  144.5400 C   0  0  0  0  0  2  0  0  0  0  0  0
  184.9080  177.8310  142.1710 C   0  0  0  0  0  2  0  0  0  0  0  0
  193.3650  175.2100  143.4500 O   0  0  0  0  0  0  0  0  0  0  0  0
  189.4290  176.7140  145.7450 C   0  0  1  0  0  3  0  0  0  0  0  0
  192.9120  176.0590  146.8730 C   0  0  0  0  0  3  0  0  0  0  0  0
  191.4460  176.1600  144.4490 N   0  0  0  0  0  0  0  0  0  0  0  0
  188.7760  177.2290  144.5070 C   0  0  2  0  0  3  0  0  0  0  0  0
  186.4430  176.8010  147.2110 C   0  0  0  0  0  1  0  0  0  0  0  0
  187.3340  177.1200  144.8970 C   0  0  2  0  0  3  0  0  0  0  0  0
  184.2130  178.5060  143.3450 C   0  0  0  0  0  2  0  0  0  0  0  0
  187.2710  177.5050  140.6960 O   0  0  0  0  0  0  0  0  0  0  0  0
  191.6150  176.3940  146.8950 C   0  0  0  0  0  3  0  0  0  0  0  0
  190.9400  176.8890  145.6430 C   0  0  2  0  0  3  0  0  0  0  0  0
  187.2690  176.9530  141.8310 C   0  0  0  0  0  0  0  0  0  0  0  0
  190.0400  173.0400  142.1480 C   0  0  0  0  0  2  0  0  0  0  0  0
  190.3550  171.8580  139.9740 C   0  0  0  0  0  1  0  0  0  0  0  0
  190.8780  172.0240  141.3880 C   0  0  0  0  0  2  0  0  0  0  0  0
  1  5  1  6  0  0  0
  1 19  1  0  0  0  0
  2 19  1  0  0  0  0
  2 13  1  0  0  0  0
  4 12  1  1  0  0  0
  4  1  1  0  0  0  0
  4 20  1  0  0  0  0
  6  8  2  0  0  0  0
  7 15  1  6  0  0  0
  7  9  1  0  0  0  0
  8 11  1  0  0  0  0
  8 12  1  0  0  0  0
  9 14  1  1  0  0  0
  9 22  1  0  0  0  0
 10  3  1  0  0  0  0
 10 21  1  1  0  0  0
 11 28  1  1  0  0  0
 11  5  1  0  0  0  0
 13 18  1  0  0  0  0
 15 23  1  0  0  0  0
 16  2  2  0  0  0  0
 17  3  1  1  0  0  0
 18 25  2  0  0  0  0
 19 26  1  0  0  0  0
 20 22  1  0  0  0  0
 20 17  1  0  0  0  0
 22 10  1  0  0  0  0
 23 14  1  0  0  0  0
 24 27  2  0  0  0  0
 26 17  1  0  0  0  0
 26 25  1  0  0  0  0
 27 12  1  0  0  0  0
 27  7  1  0  0  0  0
 29 30  1  0  0  0  0
 30 28  1  0  0  0  0
M  END
>  <MODEL>
2

>  <REMARK>
 VINA RESULT:      -8.6      0.898      1.113
  Name = 
  2 active torsions:
  status: ('A' for Active; 'I' for Inactive)
    1  A    between atoms: C_11  and  C_28
    2  A    between atoms: C_28  and  C_30
                            x       y       z     vdW  Elec       q    Type
                         _______ _______ _______ _____ _____    ______ ____

>  <TORSDO>
F 2

$$$$
=
 OpenBabel11112416263D

 30 35  0  0  1  0  0  0  0  0999 V2000
  190.0120  175.0100  144.5390 C   0  0  1  0  0  3  0  0  0  0  0  0
  190.8550  172.7320  143.7040 C   0  0  0  0  0  0  0  0  0  0  0  0
  187.6340  175.5710  141.1500 N   0  0  0  0  0  2  0  0  0  0  0  0
  188.6150  175.6090  144.7760 C   0  0  1  0  0  3  0  0  0  0  0  0
  190.5870  174.6920  145.7860 O   0  0  0  0  0  0  0  0  0  0  0  0
  189.8360  177.7560  147.4620 O   0  0  0  0  0  0  0  0  0  0  0  0
  186.7540  178.3140  145.0690 C   0  0  1  0  0  3  0  0  0  0  0  0
  189.7870  176.8550  146.5800 C   0  0  0  0  0  0  0  0  0  0  0  0
  186.1570  177.5510  143.9160 C   0  0  1  0  0  3  0  0  0  0  0  0
  186.8750  176.7600  141.5690 C   0  0  2  0  0  3  0  0  0  0  0  0
  190.9490  175.9020  146.4340 C   0  0  2  0  0  3  0  0  0  0  0  0
  188.6520  176.7530  145.6980 N   0  0  0  0  0  0  0  0  0  0  0  0
  190.8980  171.7340  142.5860 C   0  0  0  0  0  2  0  0  0  0  0  0
  185.2070  178.5530  143.2890 C   0  0  0  0  0  2  0  0  0  0  0  0
  185.6150  179.1420  145.6270 C   0  0  0  0  0  2  0  0  0  0  0  0
  191.6200  172.5770  144.6930 O   0  0  0  0  0  0  0  0  0  0  0  0
  188.5580  175.3480  142.2500 C   0  0  1  0  0  3  0  0  0  0  0  0
  190.6460  172.4290  141.2770 C   0  0  0  0  0  3  0  0  0  0  0  0
  189.9320  173.8420  143.6280 N   0  0  0  0  0  0  0  0  0  0  0  0
  187.8170  175.7850  143.4690 C   0  0  2  0  0  3  0  0  0  0  0  0
  187.1880  177.9190  140.6420 C   0  0  0  0  0  1  0  0  0  0  0  0
  187.2930  177.1090  143.0050 C   0  0  2  0  0  3  0  0  0  0  0  0
  184.7020  179.4120  144.4400 C   0  0  0  0  0  2  0  0  0  0  0  0
  186.9330  177.2360  147.2070 O   0  0  0  0  0  0  0  0  0  0  0  0
  189.7850  173.4520  141.2000 C   0  0  0  0  0  3  0  0  0  0  0  0
  189.0520  173.9170  142.4320 C   0  0  2  0  0  3  0  0  0  0  0  0
  187.4260  177.4110  146.0590 C   0  0  0  0  0  0  0  0  0  0  0  0
  192.1500  176.5800  145.7710 C   0  0  0  0  0  2  0  0  0  0  0  0
  194.5720  177.1430  145.9750 C   0  0  0  0  0  1  0  0  0  0  0  0
  193.4160  176.3750  146.5880 C   0  0  0  0  0  2  0  0  0  0  0  0
  1  4  1  0  0  0  0
  1  5  1  1  0  0  0
  2 16  2  0  0  0  0
  3 10  1  0  0  0  0
  4 12  1  6  0  0  0
  5 11  1  0  0  0  0
  7 15  1  1  0  0  0
  7 27  1  0  0  0  0
  8  6  2  0  0  0  0
  9 14  1  6  0  0  0
  9  7  1  0  0  0  0
 10 21  1  6  0  0  0
 10 22  1  0  0  0  0
 11 28  1  6  0  0  0
 11  8  1  0  0  0  0
 12 27  1  0  0  0  0
 12  8  1  0  0  0  0
 13  2  1  0  0  0  0
 14 23  1  0  0  0  0
 17  3  1  6  0  0  0
 17 26  1  0  0  0  0
 17 20  1  0  0  0  0
 18 13  1  0  0  0  0
 19  2  1  0  0  0  0
 19  1  1  0  0  0  0
 20  4  1  0  0  0  0
 22 20  1  0  0  0  0
 22  9  1  0  0  0  0
 23 15  1  0  0  0  0
 25 18  2  0  0  0  0
 25 26  1  0  0  0  0
 26 19  1  0  0  0  0
 27 24  2  0  0  0  0
 28 30  1  0  0  0  0
 29 30  1  0  0  0  0
M  END
>  <MODEL>
3

>  <REMARK>
 VINA RESULT:      -8.3      2.163      4.708
  Name = 
  2 active torsions:
  status: ('A' for Active; 'I' for Inactive)
    1  A    between atoms: C_11  and  C_28
    2  A    between atoms: C_28  and  C_30
                            x       y       z     vdW  Elec       q    Type
                         _______ _______ _______ _____ _____    ______ ____

>  <TORSDO>
F 2

$$$$
=
 OpenBabel11112416263D

 30 35  0  0  1  0  0  0  0  0999 V2000
  190.9750  174.1980  143.8460 C   0  0  1  0  0  3  0  0  0  0  0  0
  191.7560  172.3040  142.2960 C   0  0  0  0  0  0  0  0  0  0  0  0
  188.1760  175.5620  141.0600 N   0  0  0  0  0  2  0  0  0  0  0  0
  189.6060  174.6240  144.4050 C   0  0  1  0  0  3  0  0  0  0  0  0
  191.7100  173.5720  144.8730 O   0  0  0  0  0  0  0  0  0  0  0  0
  191.1090  175.9840  147.4380 O   0  0  0  0  0  0  0  0  0  0  0  0
  187.7370  177.0210  145.6800 C   0  0  1  0  0  3  0  0  0  0  0  0
  190.9690  175.3700  146.3450 C   0  0  0  0  0  0  0  0  0  0  0  0
  187.0170  176.5850  144.4320 C   0  0  1  0  0  3  0  0  0  0  0  0
  187.4490  176.5360  141.8890 C   0  0  2  0  0  3  0  0  0  0  0  0
  192.1250  174.5670  145.7970 C   0  0  2  0  0  3  0  0  0  0  0  0
  189.7340  175.4580  145.6080 N   0  0  0  0  0  0  0  0  0  0  0  0
  191.6780  171.6700  140.9400 C   0  0  0  0  0  2  0  0  0  0  0  0
  185.9720  177.6670  144.2340 C   0  0  0  0  0  2  0  0  0  0  0  0
  186.6600  177.5890  146.5800 C   0  0  0  0  0  2  0  0  0  0  0  0
  192.6420  171.9190  143.1040 O   0  0  0  0  0  0  0  0  0  0  0  0
  189.2360  175.0890  141.9350 C   0  0  1  0  0  3  0  0  0  0  0  0
  191.2480  172.6920  139.9260 C   0  0  0  0  0  3  0  0  0  0  0  0
  190.8060  173.3350  142.6510 N   0  0  0  0  0  0  0  0  0  0  0  0
  188.6450  175.1180  143.3050 C   0  0  2  0  0  3  0  0  0  0  0  0
  187.6160  177.9270  141.3090 C   0  0  0  0  0  1  0  0  0  0  0  0
  188.0370  176.4870  143.3080 C   0  0  2  0  0  3  0  0  0  0  0  0
  185.5990  178.1320  145.6350 C   0  0  0  0  0  2  0  0  0  0  0  0
  188.2090  175.3910  147.3790 O   0  0  0  0  0  0  0  0  0  0  0  0
  190.3610  173.6440  140.2480 C   0  0  0  0  0  3  0  0  0  0  0  0
  189.7800  173.6960  141.6370 C   0  0  2  0  0  3  0  0  0  0  0  0
  188.5500  175.9140  146.2820 C   0  0  0  0  0  0  0  0  0  0  0  0
  193.2170  175.4730  145.2250 C   0  0  0  0  0  2  0  0  0  0  0  0
  194.4250  177.1760  146.5900 C   0  0  0  0  0  1  0  0  0  0  0  0
  194.3250  175.7030  146.2400 C   0  0  0  0  0  2  0  0  0  0  0  0
  1  4  1  0  0  0  0
  1  5  1  1  0  0  0
  2 19  1  0  0  0  0
  2 16  2  0  0  0  0
  3 10  1  0  0  0  0
  4 12  1  1  0  0  0
  5 11  1  0  0  0  0
  7 27  1  0  0  0  0
  7 15  1  1  0  0  0
  8  6  2  0  0  0  0
  9 14  1  6  0  0  0
  9  7  1  0  0  0  0
 10 21  1  6  0  0  0
 10 22  1  0  0  0  0
 11 28  1  6  0  0  0
 11  8  1  0  0  0  0
 12 27  1  0  0  0  0
 12  8  1  0  0  0  0
 13  2  1  0  0  0  0
 14 23  1  0  0  0  0
 17  3  1  6  0  0  0
 17 20  1  0  0  0  0
 18 25  2  0  0  0  0
 18 13  1  0  0  0  0
 19  1  1  0  0  0  0
 20 22  1  0  0  0  0
 20  4  1  0  0  0  0
 22  9  1  0  0  0  0
 23 15  1  0  0  0  0
 25 26  1  0  0  0  0
 26 17  1  0  0  0  0
 26 19  1  0  0  0  0
 27 24  2  0  0  0  0
 28 30  1  0  0  0  0
 30 29  1  0  0  0  0
M  END
>  <MODEL>
4

>  <REMARK>
 VINA RESULT:      -7.9      2.339      5.053
  Name = 
  2 active torsions:
  status: ('A' for Active; 'I' for Inactive)
    1  A    between atoms: C_11  and  C_28
    2  A    between atoms: C_28  and  C_30
                            x       y       z     vdW  Elec       q    Type
                         _______ _______ _______ _____ _____    ______ ____

>  <TORSDO>
F 2

$$$$
=
 OpenBabel11112416263D

 30 35  0  0  1  0  0  0  0  0999 V2000
  187.4730  176.4380  144.1260 C   0  0  1  0  0  3  0  0  0  0  0  0
  185.6370  177.4200  145.6310 C   0  0  0  0  0  0  0  0  0  0  0  0
  190.2330  176.3320  147.2600 N   0  0  0  0  0  2  0  0  0  0  0  0
  188.3650  175.1870  144.2090 C   0  0  1  0  0  3  0  0  0  0  0  0
  186.4700  176.2170  143.1590 O   0  0  0  0  0  0  0  0  0  0  0  0
  188.5660  174.9160  140.5760 O   0  0  0  0  0  0  0  0  0  0  0  0
  191.1470  173.6800  143.2860 C   0  0  1  0  0  3  0  0  0  0  0  0
  188.2120  175.2840  141.7290 C   0  0  0  0  0  0  0  0  0  0  0  0
  191.2190  173.7480  144.7890 C   0  0  1  0  0  3  0  0  0  0  0  0
  191.3110  175.5610  146.6210 C   0  0  2  0  0  3  0  0  0  0  0  0
  187.0700  176.2620  141.8730 C   0  0  2  0  0  3  0  0  0  0  0  0
  188.9080  174.8050  142.8970 N   0  0  0  0  0  0  0  0  0  0  0  0
  185.2720  177.9860  146.9700 C   0  0  0  0  0  2  0  0  0  0  0  0
  192.6570  173.3710  145.0880 C   0  0  0  0  0  2  0  0  0  0  0  0
  192.0010  172.4890  142.9040 C   0  0  0  0  0  2  0  0  0  0  0  0
  184.8140  177.5100  144.6810 O   0  0  0  0  0  0  0  0  0  0  0  0
  189.2490  176.4910  146.2010 C   0  0  1  0  0  3  0  0  0  0  0  0
  186.4990  178.5400  147.6380 C   0  0  0  0  0  3  0  0  0  0  0  0
  186.9200  176.7750  145.4600 N   0  0  0  0  0  0  0  0  0  0  0  0
  189.3530  175.2430  145.3900 C   0  0  2  0  0  3  0  0  0  0  0  0
  192.5600  176.4160  146.5210 C   0  0  0  0  0  1  0  0  0  0  0  0
  190.8390  175.1580  145.2150 C   0  0  2  0  0  3  0  0  0  0  0  0
  193.0570  172.3910  143.9940 C   0  0  0  0  0  2  0  0  0  0  0  0
  189.2720  172.5860  142.2600 O   0  0  0  0  0  0  0  0  0  0  0  0
  187.6870  177.9400  147.4910 C   0  0  0  0  0  3  0  0  0  0  0  0
  187.8070  176.6940  146.6520 C   0  0  2  0  0  3  0  0  0  0  0  0
  189.7350  173.6360  142.7870 C   0  0  0  0  0  0  0  0  0  0  0  0
  187.4920  177.6780  141.4770 C   0  0  0  0  0  2  0  0  0  0  0  0
  185.2160  178.2910  140.6590 C   0  0  0  0  0  1  0  0  0  0  0  0
  186.3350  178.6550  141.6170 C   0  0  0  0  0  2  0  0  0  0  0  0
  1  5  1  6  0  0  0
  1  4  1  0  0  0  0
  1 19  1  0  0  0  0
  2 13  1  0  0  0  0
  4 12  1  6  0  0  0
  4 20  1  0  0  0  0
  6  8  2  0  0  0  0
  7 15  1  1  0  0  0
  7  9  1  0  0  0  0
  8 11  1  0  0  0  0
  8 12  1  0  0  0  0
  9 14  1  6  0  0  0
  9 22  1  0  0  0  0
 10 21  1  6  0  0  0
 10  3  1  0  0  0  0
 11 28  1  1  0  0  0
 11  5  1  0  0  0  0
 13 18  1  0  0  0  0
 15 23  1  0  0  0  0
 16  2  2  0  0  0  0
 17 26  1  0  0  0  0
 17  3  1  1  0  0  0
 19  2  1  0  0  0  0
 19 26  1  0  0  0  0
 20 17  1  0  0  0  0
 22 20  1  0  0  0  0
 22 10  1  0  0  0  0
 23 14  1  0  0  0  0
 24 27  2  0  0  0  0
 25 18  2  0  0  0  0
 26 25  1  0  0  0  0
 27 12  1  0  0  0  0
 27  7  1  0  0  0  0
 28 30  1  0  0  0  0
 29 30  1  0  0  0  0
M  END
>  <MODEL>
5

>  <REMARK>
 VINA RESULT:      -7.5      1.841      5.836
  Name = 
  2 active torsions:
  status: ('A' for Active; 'I' for Inactive)
    1  A    between atoms: C_11  and  C_28
    2  A    between atoms: C_28  and  C_30
                            x       y       z     vdW  Elec       q    Type
                         _______ _______ _______ _____ _____    ______ ____

>  <TORSDO>
F 2

$$$$
=
 OpenBabel11112416263D

 30 35  0  0  1  0  0  0  0  0999 V2000
  188.1860  177.0450  144.5070 C   0  0  1  0  0  3  0  0  0  0  0  0
  186.4960  178.6800  143.4710 C   0  0  0  0  0  0  0  0  0  0  0  0
  188.6090  174.9380  140.9240 N   0  0  0  0  0  2  0  0  0  0  0  0
  189.6130  176.6090  144.1360 C   0  0  1  0  0  3  0  0  0  0  0  0
  188.2500  177.9160  145.6140 O   0  0  0  0  0  0  0  0  0  0  0  0
  190.4800  175.9800  147.6230 O   0  0  0  0  0  0  0  0  0  0  0  0
  191.9840  174.3320  144.3750 C   0  0  1  0  0  3  0  0  0  0  0  0
  189.8540  176.3640  146.5980 C   0  0  0  0  0  0  0  0  0  0  0  0
  191.7130  174.4600  142.8990 C   0  0  1  0  0  3  0  0  0  0  0  0
  189.7480  174.0730  141.2740 C   0  0  2  0  0  3  0  0  0  0  0  0
  188.5770  177.1530  146.7650 C   0  0  2  0  0  3  0  0  0  0  0  0
  190.3300  176.0290  145.2800 N   0  0  0  0  0  0  0  0  0  0  0  0
  185.6530  179.0410  142.2860 C   0  0  0  0  0  2  0  0  0  0  0  0
  192.4400  173.2700  142.3040 C   0  0  0  0  0  2  0  0  0  0  0  0
  193.4160  173.8460  144.4720 C   0  0  0  0  0  2  0  0  0  0  0  0
  186.3160  179.2880  144.5600 O   0  0  0  0  0  0  0  0  0  0  0  0
  188.3350  175.6600  142.1560 C   0  0  1  0  0  3  0  0  0  0  0  0
  185.3830  177.8120  141.4630 C   0  0  0  0  0  3  0  0  0  0  0  0
  187.5040  177.6520  143.3370 N   0  0  0  0  0  0  0  0  0  0  0  0
  189.6680  175.8330  142.8040 C   0  0  2  0  0  3  0  0  0  0  0  0
  189.3180  172.6190  141.2280 C   0  0  0  0  0  1  0  0  0  0  0  0
  190.2050  174.4390  142.6940 C   0  0  2  0  0  3  0  0  0  0  0  0
  193.6490  173.0420  143.2020 C   0  0  0  0  0  2  0  0  0  0  0  0
  192.6300  176.2850  145.6120 O   0  0  0  0  0  0  0  0  0  0  0  0
  186.3170  176.8610  141.3280 C   0  0  0  0  0  3  0  0  0  0  0  0
  187.6560  177.0160  142.0010 C   0  0  2  0  0  3  0  0  0  0  0  0
  191.6920  175.6000  145.1180 C   0  0  0  0  0  0  0  0  0  0  0  0
  187.4210  176.2590  147.2180 C   0  0  0  0  0  2  0  0  0  0  0  0
  185.0890  176.7910  146.5130 C   0  0  0  0  0  1  0  0  0  0  0  0
  186.1790  177.0800  147.5260 C   0  0  0  0  0  2  0  0  0  0  0  0
  1  5  1  1  0  0  0
  2 16  2  0  0  0  0
  3 10  1  0  0  0  0
  4  1  1  0  0  0  0
  4 12  1  1  0  0  0
  5 11  1  0  0  0  0
  7 15  1  6  0  0  0
  7 27  1  0  0  0  0
  8 11  1  0  0  0  0
  8  6  2  0  0  0  0
  9 14  1  6  0  0  0
  9  7  1  0  0  0  0
 10 21  1  1  0  0  0
 10 22  1  0  0  0  0
 11 28  1  6  0  0  0
 12  8  1  0  0  0  0
 13  2  1  0  0  0  0
 14 23  1  0  0  0  0
 17  3  1  6  0  0  0
 17 20  1  0  0  0  0
 18 13  1  0  0  0  0
 19  2  1  0  0  0  0
 19  1  1  0  0  0  0
 20  4  1  0  0  0  0
 22 20  1  0  0  0  0
 22  9  1  0  0  0  0
 23 15  1  0  0  0  0
 25 18  2  0  0  0  0
 25 26  1  0  0  0  0
 26 17  1  0  0  0  0
 26 19  1  0  0  0  0
 27 12  1  0  0  0  0
 27 24  2  0  0  0  0
 28 30  1  0  0  0  0
 29 30  1  0  0  0  0
M  END
>  <MODEL>
6

>  <REMARK>
 VINA RESULT:      -7.4      2.052      6.826
  Name = 
  2 active torsions:
  status: ('A' for Active; 'I' for Inactive)
    1  A    between atoms: C_11  and  C_28
    2  A    between atoms: C_28  and  C_30
                            x       y       z     vdW  Elec       q    Type
                         _______ _______ _______ _____ _____    ______ ____

>  <TORSDO>
F 2

$$$$
=
 OpenBabel11112416263D

 30 35  0  0  1  0  0  0  0  0999 V2000
  192.5730  175.0590  142.6330 C   0  0  1  0  0  3  0  0  0  0  0  0
  195.0810  175.4180  142.2120 C   0  0  0  0  0  0  0  0  0  0  0  0
  192.8650  176.3870  146.5830 N   0  0  0  0  0  2  0  0  0  0  0  0
  191.4340  175.9640  143.1350 C   0  0  1  0  0  3  0  0  0  0  0  0
  192.4310  174.8820  141.2410 O   0  0  0  0  0  0  0  0  0  0  0  0
  188.9380  174.1390  141.1990 O   0  0  0  0  0  0  0  0  0  0  0  0
  188.4580  176.1850  144.5330 C   0  0  1  0  0  3  0  0  0  0  0  0
  190.0500  174.5410  141.6390 C   0  0  0  0  0  0  0  0  0  0  0  0
  189.3780  176.9480  145.4490 C   0  0  1  0  0  3  0  0  0  0  0  0
  191.4360  176.4690  146.9280 C   0  0  2  0  0  3  0  0  0  0  0  0
  191.3220  174.0280  141.0080 C   0  0  2  0  0  3  0  0  0  0  0  0
  190.1100  175.4530  142.7540 N   0  0  0  0  0  0  0  0  0  0  0  0
  196.4210  175.7640  142.7890 C   0  0  0  0  0  2  0  0  0  0  0  0
  188.5350  177.1650  146.6910 C   0  0  0  0  0  2  0  0  0  0  0  0
  187.0870  176.7910  144.7550 C   0  0  0  0  0  2  0  0  0  0  0  0
  195.0170  174.9660  141.0380 O   0  0  0  0  0  0  0  0  0  0  0  0
  192.8620  175.8480  145.2330 C   0  0  1  0  0  3  0  0  0  0  0  0
  196.4310  175.4650  144.2620 C   0  0  0  0  0  3  0  0  0  0  0  0
  193.8920  175.6210  143.0100 N   0  0  0  0  0  0  0  0  0  0  0  0
  191.6260  176.3960  144.6020 C   0  0  2  0  0  3  0  0  0  0  0  0
  191.1240  175.4970  148.0490 C   0  0  0  0  0  1  0  0  0  0  0  0
  190.6230  176.1040  145.6760 C   0  0  2  0  0  3  0  0  0  0  0  0
  187.1010  177.2860  146.1930 C   0  0  0  0  0  2  0  0  0  0  0  0
  188.3050  176.8420  142.2290 O   0  0  0  0  0  0  0  0  0  0  0  0
  195.3350  175.6600  145.0070 C   0  0  0  0  0  3  0  0  0  0  0  0
  194.0740  176.1880  144.3730 C   0  0  2  0  0  3  0  0  0  0  0  0
  188.9340  176.1970  143.1120 C   0  0  0  0  0  0  0  0  0  0  0  0
  191.6060  172.5810  141.4160 C   0  0  0  0  0  2  0  0  0  0  0  0
  190.4420  171.0450  139.8330 C   0  0  0  0  0  1  0  0  0  0  0  0
  191.7670  171.6880  140.1960 C   0  0  0  0  0  2  0  0  0  0  0  0
  1  5  1  6  0  0  0
  1 19  1  0  0  0  0
  1  4  1  0  0  0  0
  2 13  1  0  0  0  0
  2 19  1  0  0  0  0
  3 10  1  0  0  0  0
  4 12  1  1  0  0  0
  4 20  1  0  0  0  0
  6  8  2  0  0  0  0
  7 15  1  6  0  0  0
  7  9  1  0  0  0  0
  8 12  1  0  0  0  0
  9 22  1  0  0  0  0
  9 14  1  1  0  0  0
 10 21  1  1  0  0  0
 11  5  1  0  0  0  0
 11 28  1  1  0  0  0
 11  8  1  0  0  0  0
 12 27  1  0  0  0  0
 13 18  1  0  0  0  0
 15 23  1  0  0  0  0
 16  2  2  0  0  0  0
 17  3  1  1  0  0  0
 18 25  2  0  0  0  0
 19 26  1  0  0  0  0
 20 17  1  0  0  0  0
 20 22  1  0  0  0  0
 22 10  1  0  0  0  0
 23 14  1  0  0  0  0
 24 27  2  0  0  0  0
 26 25  1  0  0  0  0
 26 17  1  0  0  0  0
 27  7  1  0  0  0  0
 29 30  1  0  0  0  0
 30 28  1  0  0  0  0
M  END
>  <MODEL>
7

>  <REMARK>
 VINA RESULT:      -7.2      2.347      3.912
  Name = 
  2 active torsions:
  status: ('A' for Active; 'I' for Inactive)
    1  A    between atoms: C_11  and  C_28
    2  A    between atoms: C_28  and  C_30
                            x       y       z     vdW  Elec       q    Type
                         _______ _______ _______ _____ _____    ______ ____

>  <TORSDO>
F 2

$$$$
=
 OpenBabel11112416263D

 30 35  0  0  1  0  0  0  0  0999 V2000
  189.5650  176.6190  144.5640 C   0  0  1  0  0  3  0  0  0  0  0  0
  187.8510  177.6090  142.9260 C   0  0  0  0  0  0  0  0  0  0  0  0
  191.2260  174.1660  141.6180 N   0  0  0  0  0  2  0  0  0  0  0  0
  191.0990  176.4990  144.5600 C   0  0  1  0  0  3  0  0  0  0  0  0
  189.1920  177.6350  145.4670 O   0  0  0  0  0  0  0  0  0  0  0  0
  191.2610  176.6380  148.2020 O   0  0  0  0  0  0  0  0  0  0  0  0
  193.7770  174.9420  145.6860 C   0  0  1  0  0  3  0  0  0  0  0  0
  190.8180  176.6960  147.0220 C   0  0  0  0  0  0  0  0  0  0  0  0
  193.8270  174.7750  144.1910 C   0  0  1  0  0  3  0  0  0  0  0  0
  192.4110  173.6730  142.3390 C   0  0  2  0  0  3  0  0  0  0  0  0
  189.4000  177.1600  146.7880 C   0  0  2  0  0  3  0  0  0  0  0  0
  191.6420  176.2940  145.9100 N   0  0  0  0  0  0  0  0  0  0  0  0
  187.2430  177.5660  141.5570 C   0  0  0  0  0  2  0  0  0  0  0  0
  194.9050  173.7270  143.9920 C   0  0  0  0  0  2  0  0  0  0  0  0
  195.2180  174.8460  146.1430 C   0  0  0  0  0  2  0  0  0  0  0  0
  187.3050  178.3110  143.8190 O   0  0  0  0  0  0  0  0  0  0  0  0
  190.5340  174.9750  142.6080 C   0  0  1  0  0  3  0  0  0  0  0  0
  187.4330  176.2000  140.9610 C   0  0  0  0  0  3  0  0  0  0  0  0
  189.0560  176.8540  143.1910 N   0  0  0  0  0  0  0  0  0  0  0  0
  191.6160  175.5690  143.4440 C   0  0  2  0  0  3  0  0  0  0  0  0
  192.3180  172.1680  142.5050 C   0  0  0  0  0  1  0  0  0  0  0  0
  192.4450  174.3510  143.7170 C   0  0  2  0  0  3  0  0  0  0  0  0
  195.8970  173.9430  145.1260 C   0  0  0  0  0  2  0  0  0  0  0  0
  193.6990  177.1590  146.6060 O   0  0  0  0  0  0  0  0  0  0  0  0
  188.5510  175.5000  141.1950 C   0  0  0  0  0  3  0  0  0  0  0  0
  189.6380  176.0810  142.0610 C   0  0  2  0  0  3  0  0  0  0  0  0
  193.0640  176.1960  146.0930 C   0  0  0  0  0  0  0  0  0  0  0  0
  188.3860  176.0860  147.1870 C   0  0  0  0  0  2  0  0  0  0  0  0
  186.2960  177.3580  147.6700 C   0  0  0  0  0  1  0  0  0  0  0  0
  186.9930  176.4350  146.6890 C   0  0  0  0  0  2  0  0  0  0  0  0
  1  5  1  1  0  0  0
  2 19  1  0  0  0  0
  2 16  2  0  0  0  0
  3 10  1  0  0  0  0
  4  1  1  0  0  0  0
  4 12  1  1  0  0  0
  5 11  1  0  0  0  0
  7 27  1  0  0  0  0
  7 15  1  6  0  0  0
  8  6  2  0  0  0  0
  9 14  1  1  0  0  0
  9  7  1  0  0  0  0
 10 21  1  1  0  0  0
 10 22  1  0  0  0  0
 11  8  1  0  0  0  0
 11 28  1  6  0  0  0
 12 27  1  0  0  0  0
 12  8  1  0  0  0  0
 13  2  1  0  0  0  0
 14 23  1  0  0  0  0
 17  3  1  6  0  0  0
 17 20  1  0  0  0  0
 18 25  2  0  0  0  0
 18 13  1  0  0  0  0
 19  1  1  0  0  0  0
 20 22  1  0  0  0  0
 20  4  1  0  0  0  0
 22  9  1  0  0  0  0
 23 15  1  0  0  0  0
 25 26  1  0  0  0  0
 26 17  1  0  0  0  0
 26 19  1  0  0  0  0
 27 24  2  0  0  0  0
 30 28  1  0  0  0  0
 30 29  1  0  0  0  0
M  END
>  <MODEL>
8

>  <REMARK>
 VINA RESULT:      -7.1      2.230      7.299
  Name = 
  2 active torsions:
  status: ('A' for Active; 'I' for Inactive)
    1  A    between atoms: C_11  and  C_28
    2  A    between atoms: C_28  and  C_30
                            x       y       z     vdW  Elec       q    Type
                         _______ _______ _______ _____ _____    ______ ____

>  <TORSDO>
F 2

$$$$
=
 OpenBabel11112416263D

 30 35  0  0  1  0  0  0  0  0999 V2000
  187.9840  176.0800  143.7000 C   0  0  1  0  0  3  0  0  0  0  0  0
  186.3640  176.7910  145.5620 C   0  0  0  0  0  0  0  0  0  0  0  0
  191.2980  176.3780  146.2260 N   0  0  0  0  0  2  0  0  0  0  0  0
  189.0430  174.9710  143.5720 C   0  0  1  0  0  3  0  0  0  0  0  0
  186.8520  175.7160  142.9430 O   0  0  0  0  0  0  0  0  0  0  0  0
  188.5560  174.7260  139.9640 O   0  0  0  0  0  0  0  0  0  0  0  0
  191.7710  173.8790  142.0800 C   0  0  1  0  0  3  0  0  0  0  0  0
  188.3890  175.0410  141.1740 C   0  0  0  0  0  0  0  0  0  0  0  0
  192.1290  173.9590  143.5400 C   0  0  1  0  0  3  0  0  0  0  0  0
  192.3260  175.7700  145.3670 C   0  0  2  0  0  3  0  0  0  0  0  0
  187.1720  175.8450  141.5670 C   0  0  2  0  0  3  0  0  0  0  0  0
  189.3630  174.6700  142.1700 N   0  0  0  0  0  0  0  0  0  0  0  0
  186.1950  177.3000  146.9620 C   0  0  0  0  0  2  0  0  0  0  0  0
  193.6370  173.7940  143.5410 C   0  0  0  0  0  2  0  0  0  0  0  0
  192.6920  172.8230  141.5050 C   0  0  0  0  0  2  0  0  0  0  0  0
  185.3650  176.7600  144.7960 O   0  0  0  0  0  0  0  0  0  0  0  0
  190.1120  176.3920  145.3860 C   0  0  1  0  0  3  0  0  0  0  0  0
  187.4390  178.0250  147.3910 C   0  0  0  0  0  3  0  0  0  0  0  0
  187.6650  176.3370  145.1250 N   0  0  0  0  0  0  0  0  0  0  0  0
  190.2280  175.1710  144.5370 C   0  0  2  0  0  3  0  0  0  0  0  0
  193.3970  176.7950  145.0460 C   0  0  0  0  0  1  0  0  0  0  0  0
  191.6460  175.3010  144.0710 C   0  0  2  0  0  3  0  0  0  0  0  0
  193.9460  172.8790  142.3630 C   0  0  0  0  0  2  0  0  0  0  0  0
  189.9040  172.5250  141.4130 O   0  0  0  0  0  0  0  0  0  0  0  0
  188.6480  177.6030  146.9960 C   0  0  0  0  0  3  0  0  0  0  0  0
  188.7730  176.3860  146.1160 C   0  0  2  0  0  3  0  0  0  0  0  0
  190.3090  173.6310  141.8670 C   0  0  0  0  0  0  0  0  0  0  0  0
  187.3010  177.3070  141.1330 C   0  0  0  0  0  2  0  0  0  0  0  0
  186.0380  179.0350  142.4120 C   0  0  0  0  0  1  0  0  0  0  0  0
  185.9760  178.0390  141.2700 C   0  0  0  0  0  2  0  0  0  0  0  0
  1  5  1  6  0  0  0
  1 19  1  0  0  0  0
  2 13  1  0  0  0  0
  4 12  1  6  0  0  0
  4  1  1  0  0  0  0
  4 20  1  0  0  0  0
  6  8  2  0  0  0  0
  7 15  1  1  0  0  0
  7  9  1  0  0  0  0
  8 11  1  0  0  0  0
  8 12  1  0  0  0  0
  9 14  1  6  0  0  0
  9 22  1  0  0  0  0
 10 21  1  6  0  0  0
 10  3  1  0  0  0  0
 11 28  1  1  0  0  0
 11  5  1  0  0  0  0
 13 18  1  0  0  0  0
 15 23  1  0  0  0  0
 16  2  2  0  0  0  0
 17 26  1  0  0  0  0
 17  3  1  1  0  0  0
 19  2  1  0  0  0  0
 19 26  1  0  0  0  0
 20 17  1  0  0  0  0
 22 20  1  0  0  0  0
 22 10  1  0  0  0  0
 23 14  1  0  0  0  0
 24 27  2  0  0  0  0
 25 18  2  0  0  0  0
 26 25  1  0  0  0  0
 27  7  1  0  0  0  0
 27 12  1  0  0  0  0
 28 30  1  0  0  0  0
 30 29  1  0  0  0  0
M  END
>  <MODEL>
9

>  <REMARK>
 VINA RESULT:      -7.1      1.863      5.853
  Name = 
  2 active torsions:
  status: ('A' for Active; 'I' for Inactive)
    1  A    between atoms: C_11  and  C_28
    2  A    between atoms: C_28  and  C_30
                            x       y       z     vdW  Elec       q    Type
                         _______ _______ _______ _____ _____    ______ ____

>  <TORSDO>
F 2

$$$$
