=
 OpenBabel11112417253D

 37 44  0  0  1  0  0  0  0  0999 V2000
  190.2580  173.8750  141.4530 C   0  0  2  0  0  3  0  0  0  0  0  0
  194.4670  174.4390  143.2590 C   0  0  0  0  0  0  0  0  0  0  0  0
  191.2490  176.0780  145.3360 C   0  0  0  0  0  0  0  0  0  0  0  0
  190.8830  173.2810  140.2980 N   0  0  0  0  0  0  0  0  0  0  0  0
  187.8230  175.5150  144.0780 C   0  0  0  0  0  3  0  0  0  0  0  0
  193.6190  175.5800  145.2890 C   0  0  0  0  0  0  0  0  0  0  0  0
  190.1870  175.9560  144.4330 C   0  0  0  0  0  0  0  0  0  0  0  0
  188.1600  173.9110  140.6940 C   0  0  2  0  0  3  0  0  0  0  0  0
  192.3740  175.6460  144.7030 C   0  0  0  0  0  0  0  0  0  0  0  0
  188.8030  176.1680  144.7410 C   0  0  0  0  0  0  0  0  0  0  0  0
  193.7430  175.9960  146.6180 C   0  0  0  0  0  3  0  0  0  0  0  0
  189.5900  173.9860  140.1170 C   0  0  1  0  0  3  0  0  0  0  0  0
  192.1490  175.3120  143.4470 N   0  0  0  0  0  0  0  0  0  0  0  0
  194.2600  172.9550  143.5080 C   0  0  0  0  0  1  0  0  0  0  0  0
  190.3090  177.1280  147.3270 C   0  0  0  0  0  3  0  0  0  0  0  0
  192.6000  176.4710  147.2960 C   0  0  0  0  0  3  0  0  0  0  0  0
  193.2310  174.9970  142.5080 C   0  0  0  0  0  2  0  0  0  0  0  0
  187.9790  175.0860  141.7230 C   0  0  1  0  0  3  0  0  0  0  0  0
  187.9840  174.6010  143.0520 O   0  0  0  0  0  0  0  0  0  0  0  0
  191.3390  176.5230  146.6540 C   0  0  0  0  0  0  0  0  0  0  0  0
  190.8320  175.5180  143.2190 C   0  0  0  0  0  0  0  0  0  0  0  0
  194.6870  175.1040  144.5200 O   0  0  0  0  0  0  0  0  0  0  0  0
  188.3690  177.0120  145.7540 N   0  0  0  0  0  0  0  0  0  0  0  0
  195.6910  174.6140  142.3870 C   0  0  0  0  0  1  0  0  0  0  0  0
  189.0510  176.0270  141.6120 O   0  0  0  0  0  0  0  0  0  0  0  0
  187.8290  172.6570  141.2260 O   0  0  0  0  0  1  0  0  0  0  0  0
  190.3130  175.3690  141.8100 C   0  0  2  0  0  3  0  0  0  0  0  0
  189.0200  177.3840  146.8920 C   0  0  0  0  0  3  0  0  0  0  0  0
  186.0110  177.0530  146.5300 C   0  0  0  0  0  3  0  0  0  0  0  0
  187.0290  177.5580  145.7000 C   0  0  0  0  0  0  0  0  0  0  0  0
  186.7300  178.6080  144.8150 C   0  0  0  0  0  3  0  0  0  0  0  0
  185.1610  180.1500  143.9000 F   0  0  0  0  0  0  0  0  0  0  0  0
  184.4350  178.6290  145.5850 C   0  0  0  0  0  3  0  0  0  0  0  0
  185.4390  179.1400  144.7570 C   0  0  0  0  0  0  0  0  0  0  0  0
  184.7210  177.5870  146.4700 C   0  0  0  0  0  3  0  0  0  0  0  0
  191.0500  171.2990  141.6840 C   0  0  0  0  0  1  0  0  0  0  0  0
  190.6090  171.8550  140.3460 C   0  0  0  0  0  2  0  0  0  0  0  0
  1  4  1  6  0  0  0
  1 27  1  0  0  0  0
  2 14  1  0  0  0  0
  2 22  1  0  0  0  0
  3 20  1  0  0  0  0
  4 37  1  0  0  0  0
  5 10  2  0  0  0  0
  6 11  2  0  0  0  0
  7 10  1  0  0  0  0
  7  3  1  0  0  0  0
  8 26  1  1  0  0  0
  8 18  1  0  0  0  0
  9  6  1  0  0  0  0
  9  3  2  0  0  0  0
 10 23  1  0  0  0  0
 11 16  1  0  0  0  0
 12  4  1  6  0  0  0
 12  8  1  0  0  0  0
 12  1  1  0  0  0  0
 13  9  1  0  0  0  0
 17  2  1  0  0  0  0
 17 13  1  0  0  0  0
 18 25  1  1  0  0  0
 18 19  1  0  0  0  0
 19  5  1  0  0  0  0
 20 16  2  0  0  0  0
 20 15  1  0  0  0  0
 21 13  1  0  0  0  0
 21  7  2  0  0  0  0
 22  6  1  0  0  0  0
 23 28  1  0  0  0  0
 24  2  1  0  0  0  0
 27 25  1  1  0  0  0
 27 21  1  0  0  0  0
 28 15  2  0  0  0  0
 30 23  1  0  0  0  0
 30 29  2  0  0  0  0
 31 30  1  0  0  0  0
 32 34  1  0  0  0  0
 33 35  2  0  0  0  0
 34 31  2  0  0  0  0
 34 33  1  0  0  0  0
 35 29  1  0  0  0  0
 37 36  1  0  0  0  0
M  END
>  <MODEL>
1

>  <REMARK>
 VINA RESULT:      -8.9      0.000      0.000
  Name = 
  2 active torsions:
  status: ('A' for Active; 'I' for Inactive)
    1  A    between atoms: N_4  and  C_37
    2  A    between atoms: N_23  and  C_30
                            x       y       z     vdW  Elec       q    Type
                         _______ _______ _______ _____ _____    ______ ____

>  <TORSDO>
F 2

$$$$
=
 OpenBabel11112417253D

 37 44  0  0  1  0  0  0  0  0999 V2000
  192.7400  174.5880  144.9050 C   0  0  2  0  0  3  0  0  0  0  0  0
  192.3250  172.1530  141.0070 C   0  0  0  0  0  0  0  0  0  0  0  0
  189.2470  174.7920  141.9610 C   0  0  0  0  0  0  0  0  0  0  0  0
  193.9280  173.8260  145.2000 N   0  0  0  0  0  0  0  0  0  0  0  0
  189.5740  176.9290  144.9540 C   0  0  0  0  0  3  0  0  0  0  0  0
  190.2110  173.2640  140.3470 C   0  0  0  0  0  0  0  0  0  0  0  0
  189.5440  175.1730  143.2730 C   0  0  0  0  0  0  0  0  0  0  0  0
  192.6090  175.7270  146.8190 C   0  0  2  0  0  3  0  0  0  0  0  0
  190.1590  173.8510  141.5920 C   0  0  0  0  0  0  0  0  0  0  0  0
  188.9170  176.2420  143.9940 C   0  0  0  0  0  0  0  0  0  0  0  0
  189.2570  173.6470  139.3990 C   0  0  0  0  0  3  0  0  0  0  0  0
  193.1280  174.3560  146.3330 C   0  0  1  0  0  3  0  0  0  0  0  0
  190.9860  173.5410  142.5720 N   0  0  0  0  0  0  0  0  0  0  0  0
  193.4330  173.1130  140.6120 C   0  0  0  0  0  1  0  0  0  0  0  0
  187.2090  175.9940  141.3680 C   0  0  0  0  0  3  0  0  0  0  0  0
  188.2830  174.6050  139.7570 C   0  0  0  0  0  3  0  0  0  0  0  0
  191.9320  172.4240  142.4820 C   0  0  0  0  0  2  0  0  0  0  0  0
  191.0810  175.8330  146.4640 C   0  0  1  0  0  3  0  0  0  0  0  0
  190.8730  176.7200  145.3820 O   0  0  0  0  0  0  0  0  0  0  0  0
  188.2660  175.1820  141.0490 C   0  0  0  0  0  0  0  0  0  0  0  0
  190.6300  174.2950  143.6370 C   0  0  0  0  0  0  0  0  0  0  0  0
  191.2120  172.3160  140.1050 O   0  0  0  0  0  0  0  0  0  0  0  0
  187.6250  176.6790  143.7360 N   0  0  0  0  0  0  0  0  0  0  0  0
  192.8520  170.7380  140.8910 C   0  0  0  0  0  1  0  0  0  0  0  0
  190.5620  174.5590  146.0740 O   0  0  0  0  0  0  0  0  0  0  0  0
  193.3610  176.8150  146.3520 O   0  0  0  0  0  1  0  0  0  0  0  0
  191.3070  174.0370  144.9610 C   0  0  2  0  0  3  0  0  0  0  0  0
  186.9140  176.6010  142.5760 C   0  0  0  0  0  3  0  0  0  0  0  0
  186.3180  178.6400  144.5150 C   0  0  0  0  0  3  0  0  0  0  0  0
  186.8910  177.3800  144.7690 C   0  0  0  0  0  0  0  0  0  0  0  0
  186.7410  176.8050  146.0420 C   0  0  0  0  0  3  0  0  0  0  0  0
  185.8950  176.9140  148.2670 F   0  0  0  0  0  0  0  0  0  0  0  0
  185.4700  178.7280  146.7810 C   0  0  0  0  0  3  0  0  0  0  0  0
  186.0340  177.4770  147.0430 C   0  0  0  0  0  0  0  0  0  0  0  0
  185.6120  179.3090  145.5190 C   0  0  0  0  0  3  0  0  0  0  0  0
  196.2420  174.2020  145.8180 C   0  0  0  0  0  1  0  0  0  0  0  0
  195.0650  174.7090  145.0080 C   0  0  0  0  0  2  0  0  0  0  0  0
  1 27  1  0  0  0  0
  1  4  1  6  0  0  0
  1 12  1  0  0  0  0
  2 17  1  0  0  0  0
  3  7  1  0  0  0  0
  5 19  1  0  0  0  0
  6  9  2  0  0  0  0
  7 21  2  0  0  0  0
  7 10  1  0  0  0  0
  8 26  1  6  0  0  0
  9  3  1  0  0  0  0
  9 13  1  0  0  0  0
 10  5  2  0  0  0  0
 11 16  2  0  0  0  0
 11  6  1  0  0  0  0
 12  4  1  6  0  0  0
 12  8  1  0  0  0  0
 13 21  1  0  0  0  0
 14  2  1  0  0  0  0
 15 28  2  0  0  0  0
 16 20  1  0  0  0  0
 17 13  1  0  0  0  0
 18 19  1  6  0  0  0
 18  8  1  0  0  0  0
 20 15  1  0  0  0  0
 20  3  2  0  0  0  0
 22  6  1  0  0  0  0
 22  2  1  0  0  0  0
 23 10  1  0  0  0  0
 23 30  1  0  0  0  0
 24  2  1  0  0  0  0
 25 18  1  0  0  0  0
 27 21  1  6  0  0  0
 27 25  1  0  0  0  0
 28 23  1  0  0  0  0
 29 30  2  0  0  0  0
 29 35  1  0  0  0  0
 30 31  1  0  0  0  0
 31 34  2  0  0  0  0
 33 34  1  0  0  0  0
 34 32  1  0  0  0  0
 35 33  2  0  0  0  0
 37  4  1  0  0  0  0
 37 36  1  0  0  0  0
M  END
>  <MODEL>
2

>  <REMARK>
 VINA RESULT:      -8.9      2.094      5.066
  Name = 
  2 active torsions:
  status: ('A' for Active; 'I' for Inactive)
    1  A    between atoms: N_4  and  C_37
    2  A    between atoms: N_23  and  C_30
                            x       y       z     vdW  Elec       q    Type
                         _______ _______ _______ _____ _____    ______ ____

>  <TORSDO>
F 2

$$$$
=
 OpenBabel11112417253D

 37 44  0  0  1  0  0  0  0  0999 V2000
  192.6950  174.6550  145.0200 C   0  0  2  0  0  3  0  0  0  0  0  0
  192.5730  171.8630  141.3490 C   0  0  0  0  0  0  0  0  0  0  0  0
  189.4350  174.5640  141.8140 C   0  0  0  0  0  0  0  0  0  0  0  0
  193.8550  173.9310  145.4750 N   0  0  0  0  0  0  0  0  0  0  0  0
  189.5380  176.9740  144.6090 C   0  0  0  0  0  3  0  0  0  0  0  0
  190.5170  172.8950  140.4290 C   0  0  0  0  0  0  0  0  0  0  0  0
  189.6330  175.0680  143.1040 C   0  0  0  0  0  0  0  0  0  0  0  0
  192.4210  175.9680  146.8030 C   0  0  2  0  0  3  0  0  0  0  0  0
  190.3710  173.5970  141.6060 C   0  0  0  0  0  0  0  0  0  0  0  0
  188.9550  176.1960  143.6710 C   0  0  0  0  0  0  0  0  0  0  0  0
  189.6390  173.1830  139.3800 C   0  0  0  0  0  3  0  0  0  0  0  0
  192.9720  174.5600  146.4890 C   0  0  1  0  0  3  0  0  0  0  0  0
  191.1210  173.3840  142.6700 N   0  0  0  0  0  0  0  0  0  0  0  0
  193.7090  172.7880  140.9500 C   0  0  0  0  0  1  0  0  0  0  0  0
  187.4500  175.6930  140.9580 C   0  0  0  0  0  3  0  0  0  0  0  0
  188.6420  174.1650  139.5700 C   0  0  0  0  0  3  0  0  0  0  0  0
  192.0690  172.2690  142.7570 C   0  0  0  0  0  2  0  0  0  0  0  0
  190.9240  176.0320  146.3260 C   0  0  1  0  0  3  0  0  0  0  0  0
  190.8000  176.8120  145.1520 O   0  0  0  0  0  0  0  0  0  0  0  0
  188.5280  174.8610  140.7980 C   0  0  0  0  0  0  0  0  0  0  0  0
  190.6870  174.2330  143.6290 C   0  0  0  0  0  0  0  0  0  0  0  0
  191.5320  171.9350  140.3530 O   0  0  0  0  0  0  0  0  0  0  0  0
  187.6870  176.6000  143.2760 N   0  0  0  0  0  0  0  0  0  0  0  0
  193.1040  170.4470  141.4070 C   0  0  0  0  0  1  0  0  0  0  0  0
  190.4340  174.7240  146.0190 O   0  0  0  0  0  0  0  0  0  0  0  0
  193.2070  177.0110  146.2950 O   0  0  0  0  0  1  0  0  0  0  0  0
  191.2600  174.1050  145.0190 C   0  0  2  0  0  3  0  0  0  0  0  0
  187.0660  176.4090  142.0770 C   0  0  0  0  0  3  0  0  0  0  0  0
  186.5460  176.9080  145.4590 C   0  0  0  0  0  3  0  0  0  0  0  0
  186.8780  177.3910  144.1800 C   0  0  0  0  0  0  0  0  0  0  0  0
  186.4160  178.6580  143.7880 C   0  0  0  0  0  3  0  0  0  0  0  0
  185.1930  180.6470  144.2670 F   0  0  0  0  0  0  0  0  0  0  0  0
  185.3100  178.9370  145.9220 C   0  0  0  0  0  3  0  0  0  0  0  0
  185.6350  179.4270  144.6550 C   0  0  0  0  0  0  0  0  0  0  0  0
  185.7650  177.6780  146.3240 C   0  0  0  0  0  3  0  0  0  0  0  0
  196.2570  174.0880  145.7630 C   0  0  0  0  0  1  0  0  0  0  0  0
  195.0050  174.7980  145.2880 C   0  0  0  0  0  2  0  0  0  0  0  0
  1  4  1  6  0  0  0
  1 12  1  0  0  0  0
  2 24  1  0  0  0  0
  2 17  1  0  0  0  0
  3  7  1  0  0  0  0
  5 19  1  0  0  0  0
  6  9  2  0  0  0  0
  7 21  2  0  0  0  0
  7 10  1  0  0  0  0
  8 26  1  6  0  0  0
  9  3  1  0  0  0  0
  9 13  1  0  0  0  0
 10  5  2  0  0  0  0
 11 16  2  0  0  0  0
 11  6  1  0  0  0  0
 12  4  1  6  0  0  0
 12  8  1  0  0  0  0
 13 17  1  0  0  0  0
 13 21  1  0  0  0  0
 14  2  1  0  0  0  0
 15 28  2  0  0  0  0
 16 20  1  0  0  0  0
 18 19  1  6  0  0  0
 18  8  1  0  0  0  0
 20 15  1  0  0  0  0
 20  3  2  0  0  0  0
 22  6  1  0  0  0  0
 22  2  1  0  0  0  0
 23 10  1  0  0  0  0
 23 30  1  0  0  0  0
 25 18  1  0  0  0  0
 27 21  1  6  0  0  0
 27  1  1  0  0  0  0
 27 25  1  0  0  0  0
 28 23  1  0  0  0  0
 29 35  1  0  0  0  0
 30 29  2  0  0  0  0
 31 30  1  0  0  0  0
 31 34  2  0  0  0  0
 32 34  1  0  0  0  0
 33 35  2  0  0  0  0
 34 33  1  0  0  0  0
 37  4  1  0  0  0  0
 37 36  1  0  0  0  0
M  END
>  <MODEL>
3

>  <REMARK>
 VINA RESULT:      -8.7      1.917      4.958
  Name = 
  2 active torsions:
  status: ('A' for Active; 'I' for Inactive)
    1  A    between atoms: N_4  and  C_37
    2  A    between atoms: N_23  and  C_30
                            x       y       z     vdW  Elec       q    Type
                         _______ _______ _______ _____ _____    ______ ____

>  <TORSDO>
F 2

$$$$
=
 OpenBabel11112417253D

 37 44  0  0  1  0  0  0  0  0999 V2000
  190.9910  173.7800  142.3870 C   0  0  2  0  0  3  0  0  0  0  0  0
  189.9460  172.6970  138.0240 C   0  0  0  0  0  0  0  0  0  0  0  0
  187.6690  175.6600  139.8680 C   0  0  0  0  0  0  0  0  0  0  0  0
  191.9370  172.6920  142.3820 N   0  0  0  0  0  0  0  0  0  0  0  0
  188.5500  176.7360  143.2880 C   0  0  0  0  0  3  0  0  0  0  0  0
  188.1960  174.4420  137.8400 C   0  0  0  0  0  0  0  0  0  0  0  0
  188.0580  175.5770  141.2080 C   0  0  0  0  0  0  0  0  0  0  0  0
  191.1660  174.3430  144.5380 C   0  0  2  0  0  3  0  0  0  0  0  0
  188.3020  174.6580  139.1960 C   0  0  0  0  0  0  0  0  0  0  0  0
  187.7350  176.5290  142.2300 C   0  0  0  0  0  0  0  0  0  0  0  0
  187.3760  175.2990  137.1000 C   0  0  0  0  0  3  0  0  0  0  0  0
  191.3060  173.0740  143.6690 C   0  0  1  0  0  3  0  0  0  0  0  0
  189.0200  173.8920  139.9950 N   0  0  0  0  0  0  0  0  0  0  0  0
  191.2660  173.4180  137.8170 C   0  0  0  0  0  1  0  0  0  0  0  0
  186.0170  177.4510  139.7660 C   0  0  0  0  0  3  0  0  0  0  0  0
  186.6880  176.3350  137.7690 C   0  0  0  0  0  3  0  0  0  0  0  0
  189.6400  172.6420  139.5430 C   0  0  0  0  0  2  0  0  0  0  0  0
  189.7190  174.9230  144.3380 C   0  0  1  0  0  3  0  0  0  0  0  0
  189.7490  176.0970  143.5480 O   0  0  0  0  0  0  0  0  0  0  0  0
  186.8240  176.5190  139.1660 C   0  0  0  0  0  0  0  0  0  0  0  0
  188.8760  174.3880  141.2450 C   0  0  0  0  0  0  0  0  0  0  0  0
  188.9140  173.3780  137.2820 O   0  0  0  0  0  0  0  0  0  0  0  0
  186.6020  177.3300  142.1930 N   0  0  0  0  0  0  0  0  0  0  0  0
  190.0830  171.2840  137.4990 C   0  0  0  0  0  1  0  0  0  0  0  0
  188.8830  173.9790  143.6630 O   0  0  0  0  0  0  0  0  0  0  0  0
  192.1760  175.2910  144.3230 O   0  0  0  0  0  1  0  0  0  0  0  0
  189.4630  173.6150  142.4000 C   0  0  2  0  0  3  0  0  0  0  0  0
  185.8940  177.7560  141.1090 C   0  0  0  0  0  3  0  0  0  0  0  0
  185.9660  179.2730  143.6010 C   0  0  0  0  0  3  0  0  0  0  0  0
  186.0790  177.8820  143.4260 C   0  0  0  0  0  0  0  0  0  0  0  0
  185.6750  177.0280  144.4660 C   0  0  0  0  0  3  0  0  0  0  0  0
  184.7840  176.7210  146.6540 F   0  0  0  0  0  0  0  0  0  0  0  0
  185.0630  178.9360  145.8220 C   0  0  0  0  0  3  0  0  0  0  0  0
  185.1700  177.5530  145.6580 C   0  0  0  0  0  0  0  0  0  0  0  0
  185.4600  179.7960  144.7950 C   0  0  0  0  0  3  0  0  0  0  0  0
  193.3740  174.2200  141.1660 C   0  0  0  0  0  1  0  0  0  0  0  0
  193.2660  173.2780  142.3470 C   0  0  0  0  0  2  0  0  0  0  0  0
  1  4  1  6  0  0  0
  1 27  1  0  0  0  0
  1 12  1  0  0  0  0
  2 17  1  0  0  0  0
  3  7  1  0  0  0  0
  5 19  1  0  0  0  0
  6  9  2  0  0  0  0
  7 21  2  0  0  0  0
  7 10  1  0  0  0  0
  8 26  1  6  0  0  0
  9  3  1  0  0  0  0
  9 13  1  0  0  0  0
 10  5  2  0  0  0  0
 11 16  2  0  0  0  0
 11  6  1  0  0  0  0
 12  4  1  6  0  0  0
 12  8  1  0  0  0  0
 13 21  1  0  0  0  0
 14  2  1  0  0  0  0
 15 28  2  0  0  0  0
 16 20  1  0  0  0  0
 17 13  1  0  0  0  0
 18 19  1  6  0  0  0
 18  8  1  0  0  0  0
 20 15  1  0  0  0  0
 20  3  2  0  0  0  0
 22  6  1  0  0  0  0
 22  2  1  0  0  0  0
 23 10  1  0  0  0  0
 23 30  1  0  0  0  0
 24  2  1  0  0  0  0
 25 18  1  0  0  0  0
 27 21  1  6  0  0  0
 27 25  1  0  0  0  0
 28 23  1  0  0  0  0
 29 35  1  0  0  0  0
 30 29  2  0  0  0  0
 30 31  1  0  0  0  0
 31 34  2  0  0  0  0
 34 33  1  0  0  0  0
 34 32  1  0  0  0  0
 35 33  2  0  0  0  0
 36 37  1  0  0  0  0
 37  4  1  0  0  0  0
M  END
>  <MODEL>
4

>  <REMARK>
 VINA RESULT:      -8.4      2.418      5.628
  Name = 
  2 active torsions:
  status: ('A' for Active; 'I' for Inactive)
    1  A    between atoms: N_4  and  C_37
    2  A    between atoms: N_23  and  C_30
                            x       y       z     vdW  Elec       q    Type
                         _______ _______ _______ _____ _____    ______ ____

>  <TORSDO>
F 2

$$$$
=
 OpenBabel11112417253D

 37 44  0  0  1  0  0  0  0  0999 V2000
  191.8910  172.5050  141.7380 C   0  0  2  0  0  3  0  0  0  0  0  0
  194.6290  173.7680  145.2300 C   0  0  0  0  0  0  0  0  0  0  0  0
  190.9900  175.7550  144.8250 C   0  0  0  0  0  0  0  0  0  0  0  0
  192.9520  171.6440  141.2780 N   0  0  0  0  0  0  0  0  0  0  0  0
  188.6420  174.6860  142.1840 C   0  0  0  0  0  3  0  0  0  0  0  0
  192.9900  175.3870  146.1430 C   0  0  0  0  0  0  0  0  0  0  0  0
  190.5290  175.3300  143.5760 C   0  0  0  0  0  0  0  0  0  0  0  0
  190.4860  172.2180  140.0290 C   0  0  2  0  0  3  0  0  0  0  0  0
  192.2300  175.2220  145.0060 C   0  0  0  0  0  0  0  0  0  0  0  0
  189.2110  175.5490  143.0550 C   0  0  0  0  0  0  0  0  0  0  0  0
  192.4630  176.1640  147.1790 C   0  0  0  0  0  3  0  0  0  0  0  0
  192.0100  172.2020  140.2760 C   0  0  1  0  0  3  0  0  0  0  0  0
  192.6410  174.5380  143.9560 N   0  0  0  0  0  0  0  0  0  0  0  0
  194.1750  172.4050  145.7200 C   0  0  0  0  0  1  0  0  0  0  0  0
  189.2820  177.2710  145.6830 C   0  0  0  0  0  3  0  0  0  0  0  0
  191.1890  176.7510  147.0150 C   0  0  0  0  0  3  0  0  0  0  0  0
  194.0110  174.0290  143.8330 C   0  0  0  0  0  2  0  0  0  0  0  0
  189.9290  173.6240  140.4600 C   0  0  1  0  0  3  0  0  0  0  0  0
  189.2070  173.5310  141.6740 O   0  0  0  0  0  0  0  0  0  0  0  0
  190.4430  176.5560  145.8280 C   0  0  0  0  0  0  0  0  0  0  0  0
  191.6530  174.6040  143.0360 C   0  0  0  0  0  0  0  0  0  0  0  0
  194.2450  174.7700  146.1940 O   0  0  0  0  0  0  0  0  0  0  0  0
  188.4110  176.6180  143.4320 N   0  0  0  0  0  0  0  0  0  0  0  0
  196.1380  173.7550  145.1050 C   0  0  0  0  0  1  0  0  0  0  0  0
  190.9980  174.5490  140.6730 O   0  0  0  0  0  0  0  0  0  0  0  0
  189.8040  171.1480  140.6240 O   0  0  0  0  0  1  0  0  0  0  0  0
  191.9090  174.0390  141.6600 C   0  0  2  0  0  3  0  0  0  0  0  0
  188.4270  177.3270  144.5970 C   0  0  0  0  0  3  0  0  0  0  0  0
  187.6040  177.3270  141.1940 C   0  0  0  0  0  3  0  0  0  0  0  0
  187.3480  177.0580  142.5520 C   0  0  0  0  0  0  0  0  0  0  0  0
  186.0430  177.2180  143.0450 C   0  0  0  0  0  3  0  0  0  0  0  0
  183.7590  177.7950  142.6870 F   0  0  0  0  0  0  0  0  0  0  0  0
  185.2780  177.9080  140.8550 C   0  0  0  0  0  3  0  0  0  0  0  0
  185.0130  177.6420  142.2010 C   0  0  0  0  0  0  0  0  0  0  0  0
  186.5720  177.7510  140.3520 C   0  0  0  0  0  3  0  0  0  0  0  0
  192.2690  170.1200  143.0350 C   0  0  0  0  0  1  0  0  0  0  0  0
  192.5470  170.2760  141.5540 C   0  0  0  0  0  2  0  0  0  0  0  0
  1  4  1  1  0  0  0
  2 14  1  0  0  0  0
  2 22  1  0  0  0  0
  3  9  2  0  0  0  0
  3 20  1  0  0  0  0
  4 37  1  0  0  0  0
  5 10  2  0  0  0  0
  6 22  1  0  0  0  0
  6 11  2  0  0  0  0
  7  3  1  0  0  0  0
  8 12  1  0  0  0  0
  8 18  1  0  0  0  0
  8 26  1  1  0  0  0
  9  6  1  0  0  0  0
 10 23  1  0  0  0  0
 10  7  1  0  0  0  0
 12  4  1  1  0  0  0
 12  1  1  0  0  0  0
 13  9  1  0  0  0  0
 15 20  1  0  0  0  0
 16 11  1  0  0  0  0
 17 13  1  0  0  0  0
 17  2  1  0  0  0  0
 18 25  1  1  0  0  0
 18 19  1  0  0  0  0
 19  5  1  0  0  0  0
 20 16  2  0  0  0  0
 21  7  2  0  0  0  0
 21 13  1  0  0  0  0
 23 28  1  0  0  0  0
 24  2  1  0  0  0  0
 27 25  1  6  0  0  0
 27  1  1  0  0  0  0
 27 21  1  0  0  0  0
 28 15  2  0  0  0  0
 29 30  1  0  0  0  0
 30 31  2  0  0  0  0
 30 23  1  0  0  0  0
 33 34  2  0  0  0  0
 34 32  1  0  0  0  0
 34 31  1  0  0  0  0
 35 33  1  0  0  0  0
 35 29  2  0  0  0  0
 37 36  1  0  0  0  0
M  END
>  <MODEL>
5

>  <REMARK>
 VINA RESULT:      -7.8      1.934      2.655
  Name = 
  2 active torsions:
  status: ('A' for Active; 'I' for Inactive)
    1  A    between atoms: N_4  and  C_37
    2  A    between atoms: N_23  and  C_30
                            x       y       z     vdW  Elec       q    Type
                         _______ _______ _______ _____ _____    ______ ____

>  <TORSDO>
F 2

$$$$
=
 OpenBabel11112417253D

 37 44  0  0  1  0  0  0  0  0999 V2000
  192.1870  172.5290  140.2490 C   0  0  2  0  0  3  0  0  0  0  0  0
  196.2390  174.6190  139.5400 C   0  0  0  0  0  0  0  0  0  0  0  0
  194.1390  175.6200  142.9960 C   0  0  0  0  0  0  0  0  0  0  0  0
  192.3180  171.9330  138.9430 N   0  0  0  0  0  0  0  0  0  0  0  0
  190.9830  173.8610  143.7540 C   0  0  0  0  0  3  0  0  0  0  0  0
  196.1760  175.8300  141.7010 C   0  0  0  0  0  0  0  0  0  0  0  0
  192.8890  175.0260  142.7960 C   0  0  0  0  0  0  0  0  0  0  0  0
  190.1280  171.8110  140.7200 C   0  0  2  0  0  3  0  0  0  0  0  0
  194.8720  175.4200  141.8650 C   0  0  0  0  0  0  0  0  0  0  0  0
  191.8660  174.8830  143.7900 C   0  0  0  0  0  0  0  0  0  0  0  0
  196.7900  176.5080  142.7580 C   0  0  0  0  0  3  0  0  0  0  0  0
  190.9540  172.1860  139.4710 C   0  0  1  0  0  3  0  0  0  0  0  0
  194.1850  174.8020  140.9230 N   0  0  0  0  0  0  0  0  0  0  0  0
  196.7110  173.2140  139.8710 C   0  0  0  0  0  1  0  0  0  0  0  0
  194.0150  176.7110  145.1740 C   0  0  0  0  0  3  0  0  0  0  0  0
  196.0520  176.7520  143.9360 C   0  0  0  0  0  3  0  0  0  0  0  0
  194.6890  174.6420  139.5560 C   0  0  0  0  0  2  0  0  0  0  0  0
  190.0870  173.0570  141.6790 C   0  0  1  0  0  3  0  0  0  0  0  0
  190.9180  172.8550  142.8070 O   0  0  0  0  0  0  0  0  0  0  0  0
  194.7120  176.3140  144.0620 C   0  0  0  0  0  0  0  0  0  0  0  0
  192.9510  174.5710  141.4280 C   0  0  0  0  0  0  0  0  0  0  0  0
  196.8100  175.5460  140.4860 O   0  0  0  0  0  0  0  0  0  0  0  0
  191.7310  175.7410  144.8730 N   0  0  0  0  0  0  0  0  0  0  0  0
  196.7210  174.9720  138.1490 C   0  0  0  0  0  1  0  0  0  0  0  0
  190.5590  174.2280  141.0090 O   0  0  0  0  0  0  0  0  0  0  0  0
  190.5620  170.6390  141.3570 O   0  0  0  0  0  1  0  0  0  0  0  0
  191.8900  174.0140  140.5110 C   0  0  2  0  0  3  0  0  0  0  0  0
  192.6850  176.4950  145.4880 C   0  0  0  0  0  3  0  0  0  0  0  0
  189.5400  176.8680  145.1730 C   0  0  0  0  0  3  0  0  0  0  0  0
  190.4470  175.8560  145.5340 C   0  0  0  0  0  0  0  0  0  0  0  0
  190.0920  174.9500  146.5470 C   0  0  0  0  0  3  0  0  0  0  0  0
  188.5230  174.1770  148.1660 F   0  0  0  0  0  0  0  0  0  0  0  0
  187.9620  176.0650  146.8250 C   0  0  0  0  0  3  0  0  0  0  0  0
  188.8560  175.0550  147.1900 C   0  0  0  0  0  0  0  0  0  0  0  0
  188.3040  176.9710  145.8180 C   0  0  0  0  0  3  0  0  0  0  0  0
  191.8640  169.7000  138.1160 C   0  0  0  0  0  1  0  0  0  0  0  0
  192.6160  170.5250  139.1400 C   0  0  0  0  0  2  0  0  0  0  0  0
  1  4  1  6  0  0  0
  1 27  1  0  0  0  0
  2 17  1  0  0  0  0
  2 14  1  0  0  0  0
  2 22  1  0  0  0  0
  3 20  1  0  0  0  0
  4 37  1  0  0  0  0
  5 10  2  0  0  0  0
  6  9  1  0  0  0  0
  6 11  2  0  0  0  0
  7  3  1  0  0  0  0
  7 10  1  0  0  0  0
  8 26  1  1  0  0  0
  8 18  1  0  0  0  0
  9  3  2  0  0  0  0
 10 23  1  0  0  0  0
 11 16  1  0  0  0  0
 12  4  1  6  0  0  0
 12  1  1  0  0  0  0
 12  8  1  0  0  0  0
 13 21  1  0  0  0  0
 13  9  1  0  0  0  0
 15 28  2  0  0  0  0
 16 20  2  0  0  0  0
 17 13  1  0  0  0  0
 18 25  1  6  0  0  0
 18 19  1  0  0  0  0
 19  5  1  0  0  0  0
 20 15  1  0  0  0  0
 21  7  2  0  0  0  0
 22  6  1  0  0  0  0
 23 28  1  0  0  0  0
 23 30  1  0  0  0  0
 24  2  1  0  0  0  0
 27 25  1  1  0  0  0
 27 21  1  0  0  0  0
 29 30  2  0  0  0  0
 29 35  1  0  0  0  0
 30 31  1  0  0  0  0
 31 34  2  0  0  0  0
 33 34  1  0  0  0  0
 34 32  1  0  0  0  0
 35 33  2  0  0  0  0
 36 37  1  0  0  0  0
M  END
>  <MODEL>
6

>  <REMARK>
 VINA RESULT:      -7.8      2.636      3.987
  Name = 
  2 active torsions:
  status: ('A' for Active; 'I' for Inactive)
    1  A    between atoms: N_4  and  C_37
    2  A    between atoms: N_23  and  C_30
                            x       y       z     vdW  Elec       q    Type
                         _______ _______ _______ _____ _____    ______ ____

>  <TORSDO>
F 2

$$$$
=
 OpenBabel11112417253D

 37 44  0  0  1  0  0  0  0  0999 V2000
  190.0600  173.3110  140.8060 C   0  0  2  0  0  3  0  0  0  0  0  0
  187.4780  176.4760  142.9520 C   0  0  0  0  0  0  0  0  0  0  0  0
  191.0440  175.3430  144.7830 C   0  0  0  0  0  0  0  0  0  0  0  0
  188.9970  173.1630  139.8440 N   0  0  0  0  0  0  0  0  0  0  0  0
  193.2760  172.9640  143.0530 C   0  0  0  0  0  3  0  0  0  0  0  0
  189.1240  176.8210  144.7710 C   0  0  0  0  0  0  0  0  0  0  0  0
  191.4500  174.2320  144.0370 C   0  0  0  0  0  0  0  0  0  0  0  0
  191.3800  171.6670  140.0760 C   0  0  2  0  0  3  0  0  0  0  0  0
  189.8280  175.7310  144.3090 C   0  0  0  0  0  0  0  0  0  0  0  0
  192.7330  173.5980  144.1160 C   0  0  0  0  0  0  0  0  0  0  0  0
  189.6860  177.5750  145.8060 C   0  0  0  0  0  3  0  0  0  0  0  0
  189.8720  171.9950  140.1160 C   0  0  1  0  0  3  0  0  0  0  0  0
  189.3790  174.9310  143.3610 N   0  0  0  0  0  0  0  0  0  0  0  0
  187.9890  177.2920  141.7780 C   0  0  0  0  0  1  0  0  0  0  0  0
  192.7590  175.6590  146.4880 C   0  0  0  0  0  3  0  0  0  0  0  0
  190.9360  177.1870  146.3360 C   0  0  0  0  0  3  0  0  0  0  0  0
  188.0160  175.0280  142.8270 C   0  0  0  0  0  2  0  0  0  0  0  0
  191.9260  171.6690  141.5510 C   0  0  1  0  0  3  0  0  0  0  0  0
  192.7120  172.8200  141.7980 O   0  0  0  0  0  0  0  0  0  0  0  0
  191.6240  176.0580  145.8310 C   0  0  0  0  0  0  0  0  0  0  0  0
  190.3160  173.9740  143.1810 C   0  0  0  0  0  0  0  0  0  0  0  0
  187.8880  177.1080  144.1820 O   0  0  0  0  0  0  0  0  0  0  0  0
  193.5270  173.6250  145.2540 N   0  0  0  0  0  0  0  0  0  0  0  0
  185.9650  176.4450  142.8930 C   0  0  0  0  0  1  0  0  0  0  0  0
  190.8490  171.6810  142.4900 O   0  0  0  0  0  0  0  0  0  0  0  0
  192.1170  172.4920  139.2140 O   0  0  0  0  0  1  0  0  0  0  0  0
  190.0020  172.8190  142.2610 C   0  0  2  0  0  3  0  0  0  0  0  0
  193.5540  174.5520  146.2540 C   0  0  0  0  0  3  0  0  0  0  0  0
  195.9010  172.9240  145.4420 C   0  0  0  0  0  3  0  0  0  0  0  0
  194.5320  172.6000  145.4460 C   0  0  0  0  0  0  0  0  0  0  0  0
  194.1470  171.2630  145.6420 C   0  0  0  0  0  3  0  0  0  0  0  0
  194.7310  168.9830  146.0150 F   0  0  0  0  0  0  0  0  0  0  0  0
  196.4690  170.6010  145.8200 C   0  0  0  0  0  3  0  0  0  0  0  0
  195.1120  170.2680  145.8280 C   0  0  0  0  0  0  0  0  0  0  0  0
  196.8630  171.9270  145.6270 C   0  0  0  0  0  3  0  0  0  0  0  0
  188.2490  174.2640  137.8180 C   0  0  0  0  0  1  0  0  0  0  0  0
  189.4470  173.7760  138.6070 C   0  0  0  0  0  2  0  0  0  0  0  0
  1  4  1  1  0  0  0
  1 27  1  0  0  0  0
  2 22  1  0  0  0  0
  3 20  1  0  0  0  0
  5 10  2  0  0  0  0
  6 11  2  0  0  0  0
  7 10  1  0  0  0  0
  7  3  1  0  0  0  0
  8 26  1  6  0  0  0
  8 12  1  0  0  0  0
  8 18  1  0  0  0  0
  9  6  1  0  0  0  0
  9  3  2  0  0  0  0
 10 23  1  0  0  0  0
 11 16  1  0  0  0  0
 12  4  1  6  0  0  0
 12  1  1  0  0  0  0
 13  9  1  0  0  0  0
 14  2  1  0  0  0  0
 17  2  1  0  0  0  0
 17 13  1  0  0  0  0
 18 19  1  6  0  0  0
 18 25  1  0  0  0  0
 19  5  1  0  0  0  0
 20 16  2  0  0  0  0
 20 15  1  0  0  0  0
 21 13  1  0  0  0  0
 21  7  2  0  0  0  0
 22  6  1  0  0  0  0
 23 30  1  0  0  0  0
 23 28  1  0  0  0  0
 24  2  1  0  0  0  0
 27 25  1  6  0  0  0
 27 21  1  0  0  0  0
 28 15  2  0  0  0  0
 29 30  2  0  0  0  0
 29 35  1  0  0  0  0
 30 31  1  0  0  0  0
 31 34  2  0  0  0  0
 33 34  1  0  0  0  0
 34 32  1  0  0  0  0
 35 33  2  0  0  0  0
 36 37  1  0  0  0  0
 37  4  1  0  0  0  0
M  END
>  <MODEL>
7

>  <REMARK>
 VINA RESULT:      -7.8      3.302      6.890
  Name = 
  2 active torsions:
  status: ('A' for Active; 'I' for Inactive)
    1  A    between atoms: N_4  and  C_37
    2  A    between atoms: N_23  and  C_30
                            x       y       z     vdW  Elec       q    Type
                         _______ _______ _______ _____ _____    ______ ____

>  <TORSDO>
F 2

$$$$
=
 OpenBabel11112417253D

 37 44  0  0  1  0  0  0  0  0999 V2000
  189.9180  173.6000  142.2200 C   0  0  2  0  0  3  0  0  0  0  0  0
  189.7870  175.2040  146.5450 C   0  0  0  0  0  0  0  0  0  0  0  0
  193.3880  175.5440  144.4760 C   0  0  0  0  0  0  0  0  0  0  0  0
  188.5830  173.0910  142.4170 N   0  0  0  0  0  0  0  0  0  0  0  0
  193.5420  174.4710  140.9470 C   0  0  0  0  0  3  0  0  0  0  0  0
  192.1080  176.0700  146.4660 C   0  0  0  0  0  0  0  0  0  0  0  0
  193.1760  174.7690  143.3320 C   0  0  0  0  0  0  0  0  0  0  0  0
  190.2940  172.7290  140.2010 C   0  0  2  0  0  3  0  0  0  0  0  0
  192.2850  175.4180  145.2650 C   0  0  0  0  0  0  0  0  0  0  0  0
  194.0290  174.7330  142.1800 C   0  0  0  0  0  0  0  0  0  0  0  0
  193.1320  176.9080  146.9150 C   0  0  0  0  0  3  0  0  0  0  0  0
  189.4750  172.3850  141.4640 C   0  0  1  0  0  3  0  0  0  0  0  0
  191.4000  174.5790  144.7620 N   0  0  0  0  0  0  0  0  0  0  0  0
  188.9370  176.2470  145.8420 C   0  0  0  0  0  1  0  0  0  0  0  0
  195.6540  176.4220  144.2730 C   0  0  0  0  0  3  0  0  0  0  0  0
  194.2990  177.0440  146.1320 C   0  0  0  0  0  3  0  0  0  0  0  0
  190.2210  174.1330  145.5110 C   0  0  0  0  0  2  0  0  0  0  0  0
  191.8080  172.8480  140.6090 C   0  0  1  0  0  3  0  0  0  0  0  0
  192.2260  174.1990  140.6160 O   0  0  0  0  0  0  0  0  0  0  0  0
  194.4390  176.3540  144.9050 C   0  0  0  0  0  0  0  0  0  0  0  0
  191.9120  174.1240  143.5960 C   0  0  0  0  0  0  0  0  0  0  0  0
  190.9160  175.8530  147.1660 O   0  0  0  0  0  0  0  0  0  0  0  0
  195.3890  175.0040  142.2310 N   0  0  0  0  0  0  0  0  0  0  0  0
  188.9470  174.5410  147.6160 C   0  0  0  0  0  1  0  0  0  0  0  0
  192.0190  172.3310  141.9260 O   0  0  0  0  0  0  0  0  0  0  0  0
  189.8210  173.8510  139.5060 O   0  0  0  0  0  1  0  0  0  0  0  0
  191.1840  173.0190  142.8700 C   0  0  2  0  0  3  0  0  0  0  0  0
  196.0720  175.7760  143.1230 C   0  0  0  0  0  3  0  0  0  0  0  0
  196.6750  173.1440  141.2080 C   0  0  0  0  0  3  0  0  0  0  0  0
  196.2570  174.4880  141.1930 C   0  0  0  0  0  0  0  0  0  0  0  0
  196.6900  175.3260  140.1530 C   0  0  0  0  0  3  0  0  0  0  0  0
  197.9410  175.6510  138.1510 F   0  0  0  0  0  0  0  0  0  0  0  0
  197.9400  173.4990  139.1740 C   0  0  0  0  0  3  0  0  0  0  0  0
  197.5280  174.8340  139.1490 C   0  0  0  0  0  0  0  0  0  0  0  0
  197.5140  172.6550  140.2020 C   0  0  0  0  0  3  0  0  0  0  0  0
  187.8150  175.3690  142.1050 C   0  0  0  0  0  1  0  0  0  0  0  0
  187.6840  173.9310  141.6450 C   0  0  0  0  0  2  0  0  0  0  0  0
  1  4  1  1  0  0  0
  1 27  1  0  0  0  0
  2 22  1  0  0  0  0
  2 24  1  0  0  0  0
  3 20  2  0  0  0  0
  3  9  1  0  0  0  0
  5 10  2  0  0  0  0
  6 11  1  0  0  0  0
  6 22  1  0  0  0  0
  7 21  2  0  0  0  0
  7  3  1  0  0  0  0
  8 26  1  1  0  0  0
  8 18  1  0  0  0  0
  8 12  1  0  0  0  0
  9  6  2  0  0  0  0
 10 23  1  0  0  0  0
 10  7  1  0  0  0  0
 12  1  1  0  0  0  0
 12  4  1  6  0  0  0
 13  9  1  0  0  0  0
 13 17  1  0  0  0  0
 14  2  1  0  0  0  0
 15 20  1  0  0  0  0
 16 11  2  0  0  0  0
 17  2  1  0  0  0  0
 18 19  1  1  0  0  0
 18 25  1  0  0  0  0
 19  5  1  0  0  0  0
 20 16  1  0  0  0  0
 21 13  1  0  0  0  0
 23 28  1  0  0  0  0
 27 25  1  6  0  0  0
 27 21  1  0  0  0  0
 28 15  2  0  0  0  0
 30 29  1  0  0  0  0
 30 23  1  0  0  0  0
 31 30  2  0  0  0  0
 32 34  1  0  0  0  0
 33 35  1  0  0  0  0
 34 33  2  0  0  0  0
 34 31  1  0  0  0  0
 35 29  2  0  0  0  0
 37 36  1  0  0  0  0
 37  4  1  0  0  0  0
M  END
>  <MODEL>
8

>  <REMARK>
 VINA RESULT:      -7.6      3.452      7.218
  Name = 
  2 active torsions:
  status: ('A' for Active; 'I' for Inactive)
    1  A    between atoms: N_4  and  C_37
    2  A    between atoms: N_23  and  C_30
                            x       y       z     vdW  Elec       q    Type
                         _______ _______ _______ _____ _____    ______ ____

>  <TORSDO>
F 2

$$$$
=
 OpenBabel11112417253D

 37 44  0  0  1  0  0  0  0  0999 V2000
  189.9020  176.4990  145.5740 C   0  0  2  0  0  3  0  0  0  0  0  0
  187.7360  176.3050  141.5040 C   0  0  0  0  0  0  0  0  0  0  0  0
  190.9890  173.7650  142.0730 C   0  0  0  0  0  0  0  0  0  0  0  0
  189.0600  177.6170  145.9170 N   0  0  0  0  0  0  0  0  0  0  0  0
  192.6670  173.7020  145.3600 C   0  0  0  0  0  3  0  0  0  0  0  0
  189.1360  174.4410  140.6640 C   0  0  0  0  0  0  0  0  0  0  0  0
  191.5550  174.2290  143.2640 C   0  0  0  0  0  0  0  0  0  0  0  0
  191.2300  176.5400  147.3650 C   0  0  2  0  0  3  0  0  0  0  0  0
  189.9610  174.6000  141.7560 C   0  0  0  0  0  0  0  0  0  0  0  0
  192.5720  173.5580  144.0200 C   0  0  0  0  0  0  0  0  0  0  0  0
  189.3740  173.3570  139.8140 C   0  0  0  0  0  3  0  0  0  0  0  0
  190.4140  177.5410  146.5190 C   0  0  1  0  0  3  0  0  0  0  0  0
  189.8490  175.6040  142.6050 N   0  0  0  0  0  0  0  0  0  0  0  0
  186.6920  175.6610  142.3990 C   0  0  0  0  0  1  0  0  0  0  0  0
  192.3740  171.8860  141.3670 C   0  0  0  0  0  3  0  0  0  0  0  0
  190.4460  172.4840  140.1000 C   0  0  0  0  0  3  0  0  0  0  0  0
  188.9440  176.7350  142.3740 C   0  0  0  0  0  2  0  0  0  0  0  0
  192.2570  175.8140  146.4210 C   0  0  1  0  0  3  0  0  0  0  0  0
  191.8590  174.4800  146.1700 O   0  0  0  0  0  0  0  0  0  0  0  0
  191.2700  172.6870  141.2330 C   0  0  0  0  0  0  0  0  0  0  0  0
  190.8250  175.4460  143.5270 C   0  0  0  0  0  0  0  0  0  0  0  0
  188.1110  175.3730  140.4690 O   0  0  0  0  0  0  0  0  0  0  0  0
  193.4930  172.6890  143.4540 N   0  0  0  0  0  0  0  0  0  0  0  0
  187.1280  177.5350  140.8650 C   0  0  0  0  0  1  0  0  0  0  0  0
  192.3390  176.4780  145.1580 O   0  0  0  0  0  0  0  0  0  0  0  0
  190.4410  175.6500  148.1090 O   0  0  0  0  0  1  0  0  0  0  0  0
  191.0410  176.5400  144.5430 C   0  0  2  0  0  3  0  0  0  0  0  0
  193.3740  171.9370  142.3230 C   0  0  0  0  0  3  0  0  0  0  0  0
  194.9800  171.2290  144.8030 C   0  0  0  0  0  3  0  0  0  0  0  0
  194.7500  172.4430  144.1310 C   0  0  0  0  0  0  0  0  0  0  0  0
  195.7600  173.4200  144.1200 C   0  0  0  0  0  3  0  0  0  0  0  0
  197.9410  174.1370  144.7560 F   0  0  0  0  0  0  0  0  0  0  0  0
  197.1920  171.9810  145.4380 C   0  0  0  0  0  3  0  0  0  0  0  0
  196.9750  173.1890  144.7710 C   0  0  0  0  0  0  0  0  0  0  0  0
  196.1950  171.0010  145.4540 C   0  0  0  0  0  3  0  0  0  0  0  0
  186.8020  176.7910  146.2240 C   0  0  0  0  0  1  0  0  0  0  0  0
  188.1060  177.1500  146.9070 C   0  0  0  0  0  2  0  0  0  0  0  0
  1  4  1  6  0  0  0
  1 12  1  0  0  0  0
  2 17  1  0  0  0  0
  2 14  1  0  0  0  0
  3  7  1  0  0  0  0
  4 37  1  0  0  0  0
  5 19  1  0  0  0  0
  6  9  2  0  0  0  0
  7 21  2  0  0  0  0
  7 10  1  0  0  0  0
  8 26  1  6  0  0  0
  9  3  1  0  0  0  0
  9 13  1  0  0  0  0
 10  5  2  0  0  0  0
 11 16  2  0  0  0  0
 11  6  1  0  0  0  0
 12  4  1  1  0  0  0
 12  8  1  0  0  0  0
 13 21  1  0  0  0  0
 15 28  2  0  0  0  0
 16 20  1  0  0  0  0
 17 13  1  0  0  0  0
 18 25  1  6  0  0  0
 18  8  1  0  0  0  0
 19 18  1  0  0  0  0
 20 15  1  0  0  0  0
 20  3  2  0  0  0  0
 22  6  1  0  0  0  0
 22  2  1  0  0  0  0
 23 10  1  0  0  0  0
 23 30  1  0  0  0  0
 24  2  1  0  0  0  0
 27 21  1  6  0  0  0
 27 25  1  0  0  0  0
 27  1  1  0  0  0  0
 28 23  1  0  0  0  0
 29 35  1  0  0  0  0
 30 29  2  0  0  0  0
 31 30  1  0  0  0  0
 31 34  2  0  0  0  0
 32 34  1  0  0  0  0
 33 35  2  0  0  0  0
 34 33  1  0  0  0  0
 36 37  1  0  0  0  0
M  END
>  <MODEL>
9

>  <REMARK>
 VINA RESULT:      -7.6      3.095      7.991
  Name = 
  2 active torsions:
  status: ('A' for Active; 'I' for Inactive)
    1  A    between atoms: N_4  and  C_37
    2  A    between atoms: N_23  and  C_30
                            x       y       z     vdW  Elec       q    Type
                         _______ _______ _______ _____ _____    ______ ____

>  <TORSDO>
F 2

$$$$
