=
 OpenBabel11112416213D

 30 35  0  0  1  0  0  0  0  0999 V2000
  186.1680  177.1790  143.7830 C   0  0  0  0  0  0  0  0  0  0  0  0
  184.6510  178.3200  145.5090 C   0  0  0  0  0  0  0  0  0  0  0  0
  188.7580  175.8900  146.7030 N   0  0  0  0  0  2  0  0  0  0  0  0
  187.3270  176.4100  143.4790 C   0  0  0  0  0  0  0  0  0  0  0  0
  185.2440  177.5480  142.6520 C   0  0  0  0  0  2  0  0  0  0  0  0
  187.3270  176.5910  139.8490 O   0  0  0  0  0  0  0  0  0  0  0  0
  189.8550  175.1450  142.0540 C   0  0  1  0  0  3  0  0  0  0  0  0
  186.9860  176.7970  141.0460 C   0  0  0  0  0  0  0  0  0  0  0  0
  190.2870  174.9680  143.5010 C   0  0  2  0  0  3  0  0  0  0  0  0
  189.6610  175.3080  145.8850 C   0  0  0  0  0  0  0  0  0  0  0  0
  186.0120  177.8940  141.3790 C   0  0  1  0  0  3  0  0  0  0  0  0
  187.5840  176.0370  142.1110 N   0  0  0  0  0  0  0  0  0  0  0  0
  184.4850  178.7670  146.8950 C   0  0  0  0  0  3  0  0  0  0  0  0
  190.7380  173.5280  143.6220 C   0  0  0  0  0  2  0  0  0  0  0  0
  190.7120  174.1660  141.2650 C   0  0  0  0  0  2  0  0  0  0  0  0
  183.7880  178.6650  144.6600 O   0  0  0  0  0  0  0  0  0  0  0  0
  187.8290  176.3420  145.8440 C   0  0  0  0  0  0  0  0  0  0  0  0
  185.2900  178.3370  147.8630 C   0  0  0  0  0  3  0  0  0  0  0  0
  185.8420  177.5050  145.1340 C   0  0  0  0  0  0  0  0  0  0  0  0
  188.1620  176.0290  144.5510 C   0  0  0  0  0  0  0  0  0  0  0  0
  190.7250  174.7940  146.3210 O   0  0  0  0  0  0  0  0  0  0  0  0
  189.3430  175.3560  144.5650 N   0  0  0  0  0  0  0  0  0  0  0  0
  191.3110  173.1840  142.2620 C   0  0  0  0  0  2  0  0  0  0  0  0
  187.8170  173.5900  142.3640 C   0  0  0  0  0  1  0  0  0  0  0  0
  186.3740  177.3210  147.6320 C   0  0  0  0  0  2  0  0  0  0  0  0
  186.6940  177.0740  146.1780 C   0  0  0  0  0  0  0  0  0  0  0  0
  188.3850  174.8750  141.7670 C   0  0  2  0  0  3  0  0  0  0  0  0
  185.0500  178.2180  140.2330 C   0  0  0  0  0  2  0  0  0  0  0  0
  182.6140  177.7700  140.1380 C   0  0  0  0  0  1  0  0  0  0  0  0
  183.6820  178.6660  140.7280 C   0  0  0  0  0  2  0  0  0  0  0  0
  1 19  1  0  0  0  0
  2 13  1  0  0  0  0
  4  1  2  0  0  0  0
  4 20  1  0  0  0  0
  5  1  1  0  0  0  0
  6  8  2  0  0  0  0
  7 15  1  6  0  0  0
  7  9  1  0  0  0  0
  8 11  1  0  0  0  0
  8 12  1  0  0  0  0
  9 14  1  1  0  0  0
  9 22  1  0  0  0  0
 10 21  2  0  0  0  0
 10  3  1  0  0  0  0
 11 28  1  6  0  0  0
 11  5  1  0  0  0  0
 12  4  1  0  0  0  0
 13 18  2  0  0  0  0
 15 23  1  0  0  0  0
 16  2  2  0  0  0  0
 17 26  1  0  0  0  0
 17  3  1  0  0  0  0
 19  2  1  0  0  0  0
 19 26  2  0  0  0  0
 20 22  1  0  0  0  0
 20 17  2  0  0  0  0
 22 10  1  0  0  0  0
 23 14  1  0  0  0  0
 25 18  1  0  0  0  0
 26 25  1  0  0  0  0
 27  7  1  0  0  0  0
 27 12  1  0  0  0  0
 27 24  1  1  0  0  0
 28 30  1  0  0  0  0
 29 30  1  0  0  0  0
M  END
>  <MODEL>
1

>  <REMARK>
 VINA RESULT:      -8.7      0.000      0.000
  Name = 
  2 active torsions:
  status: ('A' for Active; 'I' for Inactive)
    1  A    between atoms: C_11  and  C_28
    2  A    between atoms: C_28  and  C_30
                            x       y       z     vdW  Elec       q    Type
                         _______ _______ _______ _____ _____    ______ ____

>  <TORSDO>
F 2

$$$$
=
 OpenBabel11112416213D

 30 35  0  0  1  0  0  0  0  0999 V2000
  189.5390  175.3440  143.7590 C   0  0  0  0  0  0  0  0  0  0  0  0
  190.8910  173.6340  142.4070 C   0  0  0  0  0  0  0  0  0  0  0  0
  187.1760  176.2470  140.5180 N   0  0  0  0  0  2  0  0  0  0  0  0
  188.4870  176.2990  143.8340 C   0  0  0  0  0  0  0  0  0  0  0  0
  190.3070  175.0330  145.0170 C   0  0  0  0  0  2  0  0  0  0  0  0
  189.0740  177.6960  147.1390 O   0  0  0  0  0  0  0  0  0  0  0  0
  186.6650  178.7700  144.6110 C   0  0  1  0  0  3  0  0  0  0  0  0
  189.2380  176.9980  146.1000 C   0  0  0  0  0  0  0  0  0  0  0  0
  186.1970  178.5730  143.1780 C   0  0  2  0  0  3  0  0  0  0  0  0
  186.4390  177.2120  141.1090 C   0  0  0  0  0  0  0  0  0  0  0  0
  190.5390  176.2790  145.8660 C   0  0  1  0  0  3  0  0  0  0  0  0
  188.2120  176.9440  145.0930 N   0  0  0  0  0  0  0  0  0  0  0  0
  191.2060  173.0820  141.0860 C   0  0  0  0  0  3  0  0  0  0  0  0
  184.6840  178.5690  143.2370 C   0  0  0  0  0  2  0  0  0  0  0  0
  185.5640  179.5820  145.2760 C   0  0  0  0  0  2  0  0  0  0  0  0
  191.5850  173.2660  143.3910 O   0  0  0  0  0  0  0  0  0  0  0  0
  187.9930  175.8510  141.5090 C   0  0  0  0  0  0  0  0  0  0  0  0
  190.4360  173.3330  140.0290 C   0  0  0  0  0  3  0  0  0  0  0  0
  189.7940  174.6320  142.5480 C   0  0  0  0  0  0  0  0  0  0  0  0
  187.7420  176.5510  142.6620 C   0  0  0  0  0  0  0  0  0  0  0  0
  185.5710  177.8710  140.4770 O   0  0  0  0  0  0  0  0  0  0  0  0
  186.7360  177.4310  142.4170 N   0  0  0  0  0  0  0  0  0  0  0  0
  184.3360  179.5000  144.3810 C   0  0  0  0  0  2  0  0  0  0  0  0
  185.8030  176.4420  145.3220 C   0  0  0  0  0  1  0  0  0  0  0  0
  189.1660  174.1310  140.1160 C   0  0  0  0  0  2  0  0  0  0  0  0
  189.0000  174.8960  141.4070 C   0  0  0  0  0  0  0  0  0  0  0  0
  186.9050  177.4960  145.4070 C   0  0  2  0  0  3  0  0  0  0  0  0
  191.2780  175.9280  147.1600 C   0  0  0  0  0  2  0  0  0  0  0  0
  193.6600  175.9990  146.4800 C   0  0  0  0  0  1  0  0  0  0  0  0
  192.5260  175.0930  146.9110 C   0  0  0  0  0  2  0  0  0  0  0  0
  1  4  1  0  0  0  0
  1  5  1  0  0  0  0
  2 19  1  0  0  0  0
  2 16  2  0  0  0  0
  3 10  1  0  0  0  0
  3 17  1  0  0  0  0
  4 12  1  0  0  0  0
  5 11  1  0  0  0  0
  7 15  1  1  0  0  0
  7 27  1  0  0  0  0
  8  6  2  0  0  0  0
  9 14  1  1  0  0  0
  9  7  1  0  0  0  0
 10 22  1  0  0  0  0
 11  8  1  0  0  0  0
 11 28  1  1  0  0  0
 12 27  1  0  0  0  0
 12  8  1  0  0  0  0
 13  2  1  0  0  0  0
 14 23  1  0  0  0  0
 17 20  1  0  0  0  0
 18 25  1  0  0  0  0
 18 13  2  0  0  0  0
 19  1  2  0  0  0  0
 20  4  2  0  0  0  0
 21 10  2  0  0  0  0
 22 20  1  0  0  0  0
 22  9  1  0  0  0  0
 23 15  1  0  0  0  0
 25 26  1  0  0  0  0
 26 17  2  0  0  0  0
 26 19  1  0  0  0  0
 27 24  1  6  0  0  0
 29 30  1  0  0  0  0
 30 28  1  0  0  0  0
M  END
>  <MODEL>
2

>  <REMARK>
 VINA RESULT:      -8.4      1.971      7.354
  Name = 
  2 active torsions:
  status: ('A' for Active; 'I' for Inactive)
    1  A    between atoms: C_11  and  C_28
    2  A    between atoms: C_28  and  C_30
                            x       y       z     vdW  Elec       q    Type
                         _______ _______ _______ _____ _____    ______ ____

>  <TORSDO>
F 2

$$$$
=
 OpenBabel11112416213D

 30 35  0  0  1  0  0  0  0  0999 V2000
  186.5040  177.1930  143.9290 C   0  0  0  0  0  0  0  0  0  0  0  0
  184.6170  178.4630  142.7430 C   0  0  0  0  0  0  0  0  0  0  0  0
  187.8770  175.6370  140.3800 N   0  0  0  0  0  2  0  0  0  0  0  0
  187.6360  176.3320  143.8690 C   0  0  0  0  0  0  0  0  0  0  0  0
  186.1170  177.7660  145.2670 C   0  0  0  0  0  2  0  0  0  0  0  0
  188.2350  175.7550  147.4070 O   0  0  0  0  0  0  0  0  0  0  0  0
  189.8860  174.2070  144.5390 C   0  0  1  0  0  3  0  0  0  0  0  0
  187.6870  176.1720  146.3500 C   0  0  0  0  0  0  0  0  0  0  0  0
  189.8760  174.0710  143.0240 C   0  0  2  0  0  3  0  0  0  0  0  0
  188.8650  174.8780  140.8980 C   0  0  0  0  0  0  0  0  0  0  0  0
  186.3000  176.7540  146.3940 C   0  0  1  0  0  3  0  0  0  0  0  0
  188.3500  176.0250  145.0830 N   0  0  0  0  0  0  0  0  0  0  0  0
  183.8580  178.6630  141.5050 C   0  0  0  0  0  3  0  0  0  0  0  0
  191.3250  174.1570  142.5960 C   0  0  0  0  0  2  0  0  0  0  0  0
  191.2230  173.6300  144.9770 C   0  0  0  0  0  2  0  0  0  0  0  0
  184.2110  179.0270  143.7920 O   0  0  0  0  0  0  0  0  0  0  0  0
  187.3540  176.2250  141.4690 C   0  0  0  0  0  0  0  0  0  0  0  0
  184.2990  178.1980  140.3380 C   0  0  0  0  0  3  0  0  0  0  0  0
  185.8160  177.5780  142.7380 C   0  0  0  0  0  0  0  0  0  0  0  0
  188.0190  175.8370  142.6040 C   0  0  0  0  0  0  0  0  0  0  0  0
  189.5760  174.1240  140.1810 O   0  0  0  0  0  0  0  0  0  0  0  0
  189.0020  174.9700  142.2480 N   0  0  0  0  0  0  0  0  0  0  0  0
  192.1080  173.5470  143.7420 C   0  0  0  0  0  2  0  0  0  0  0  0
  190.6390  176.6740  144.4160 C   0  0  0  0  0  1  0  0  0  0  0  0
  185.6230  177.5020  140.1860 C   0  0  0  0  0  2  0  0  0  0  0  0
  186.2570  177.0810  141.4890 C   0  0  0  0  0  0  0  0  0  0  0  0
  189.7460  175.6250  145.0750 C   0  0  2  0  0  3  0  0  0  0  0  0
  185.9470  177.3760  147.7480 C   0  0  0  0  0  2  0  0  0  0  0  0
  187.1440  179.4000  148.5310 C   0  0  0  0  0  1  0  0  0  0  0  0
  185.9710  178.8970  147.7160 C   0  0  0  0  0  2  0  0  0  0  0  0
  1  5  1  0  0  0  0
  2 16  2  0  0  0  0
  3 10  1  0  0  0  0
  3 17  1  0  0  0  0
  4  1  1  0  0  0  0
  4 12  1  0  0  0  0
  5 11  1  0  0  0  0
  7 15  1  6  0  0  0
  7 27  1  0  0  0  0
  8 11  1  0  0  0  0
  8  6  2  0  0  0  0
  9 14  1  6  0  0  0
  9  7  1  0  0  0  0
 10 22  1  0  0  0  0
 11 28  1  1  0  0  0
 12  8  1  0  0  0  0
 13  2  1  0  0  0  0
 14 23  1  0  0  0  0
 17 26  2  0  0  0  0
 17 20  1  0  0  0  0
 18 13  2  0  0  0  0
 19  2  1  0  0  0  0
 19  1  2  0  0  0  0
 20  4  2  0  0  0  0
 21 10  2  0  0  0  0
 22 20  1  0  0  0  0
 22  9  1  0  0  0  0
 23 15  1  0  0  0  0
 25 18  1  0  0  0  0
 25 26  1  0  0  0  0
 26 19  1  0  0  0  0
 27 24  1  6  0  0  0
 27 12  1  0  0  0  0
 30 28  1  0  0  0  0
 30 29  1  0  0  0  0
M  END
>  <MODEL>
3

>  <REMARK>
 VINA RESULT:      -8.4      1.381      4.880
  Name = 
  2 active torsions:
  status: ('A' for Active; 'I' for Inactive)
    1  A    between atoms: C_11  and  C_28
    2  A    between atoms: C_28  and  C_30
                            x       y       z     vdW  Elec       q    Type
                         _______ _______ _______ _____ _____    ______ ____

>  <TORSDO>
F 2

$$$$
=
 OpenBabel11112416213D

 30 35  0  0  1  0  0  0  0  0999 V2000
  187.2520  176.9930  143.5750 C   0  0  0  0  0  0  0  0  0  0  0  0
  185.5250  178.3890  142.2910 C   0  0  0  0  0  0  0  0  0  0  0  0
  188.3780  174.9930  140.1650 N   0  0  0  0  0  2  0  0  0  0  0  0
  188.2670  175.9950  143.5850 C   0  0  0  0  0  0  0  0  0  0  0  0
  186.9560  177.7170  144.8630 C   0  0  0  0  0  2  0  0  0  0  0  0
  188.8300  175.6360  147.1580 O   0  0  0  0  0  0  0  0  0  0  0  0
  190.2400  173.6640  144.4240 C   0  0  1  0  0  3  0  0  0  0  0  0
  188.3260  176.0310  146.0710 C   0  0  0  0  0  0  0  0  0  0  0  0
  190.1950  173.4080  142.9260 C   0  0  2  0  0  3  0  0  0  0  0  0
  189.2690  174.1600  140.7420 C   0  0  0  0  0  0  0  0  0  0  0  0
  187.0230  176.7850  146.0690 C   0  0  1  0  0  3  0  0  0  0  0  0
  188.9500  175.7000  144.8190 N   0  0  0  0  0  0  0  0  0  0  0  0
  184.7830  178.5830  141.0430 C   0  0  0  0  0  3  0  0  0  0  0  0
  191.6390  173.2750  142.4900 C   0  0  0  0  0  2  0  0  0  0  0  0
  191.4990  172.9610  144.9070 C   0  0  0  0  0  2  0  0  0  0  0  0
  185.2060  179.0840  143.2920 O   0  0  0  0  0  0  0  0  0  0  0  0
  187.9450  175.7290  141.2020 C   0  0  0  0  0  0  0  0  0  0  0  0
  185.1490  177.9720  139.9180 C   0  0  0  0  0  3  0  0  0  0  0  0
  186.6040  177.3640  142.3580 C   0  0  0  0  0  0  0  0  0  0  0  0
  188.5700  175.3540  142.3650 C   0  0  0  0  0  0  0  0  0  0  0  0
  189.8710  173.2670  140.0890 O   0  0  0  0  0  0  0  0  0  0  0  0
  189.4320  174.3430  142.0790 N   0  0  0  0  0  0  0  0  0  0  0  0
  192.3520  172.6670  143.6810 C   0  0  0  0  0  2  0  0  0  0  0  0
  191.2950  175.9980  144.0990 C   0  0  0  0  0  1  0  0  0  0  0  0
  186.3730  177.1040  139.8210 C   0  0  0  0  0  2  0  0  0  0  0  0
  186.9650  176.7150  141.1540 C   0  0  0  0  0  0  0  0  0  0  0  0
  190.2850  175.1270  144.8420 C   0  0  2  0  0  3  0  0  0  0  0  0
  186.7660  177.5540  147.3680 C   0  0  0  0  0  2  0  0  0  0  0  0
  184.4510  178.3480  146.9780 C   0  0  0  0  0  1  0  0  0  0  0  0
  185.8910  178.7810  147.1560 C   0  0  0  0  0  2  0  0  0  0  0  0
  1  4  1  0  0  0  0
  1  5  1  0  0  0  0
  2 19  1  0  0  0  0
  2 16  2  0  0  0  0
  3 10  1  0  0  0  0
  3 17  1  0  0  0  0
  4 12  1  0  0  0  0
  5 11  1  0  0  0  0
  7 27  1  0  0  0  0
  7 15  1  6  0  0  0
  8  6  2  0  0  0  0
  9 14  1  6  0  0  0
  9  7  1  0  0  0  0
 10 22  1  0  0  0  0
 11  8  1  0  0  0  0
 11 28  1  1  0  0  0
 12 27  1  0  0  0  0
 12  8  1  0  0  0  0
 13  2  1  0  0  0  0
 14 23  1  0  0  0  0
 17 20  1  0  0  0  0
 18 13  2  0  0  0  0
 19  1  2  0  0  0  0
 20  4  2  0  0  0  0
 21 10  2  0  0  0  0
 22 20  1  0  0  0  0
 22  9  1  0  0  0  0
 23 15  1  0  0  0  0
 25 18  1  0  0  0  0
 25 26  1  0  0  0  0
 26 17  2  0  0  0  0
 26 19  1  0  0  0  0
 27 24  1  6  0  0  0
 29 30  1  0  0  0  0
 30 28  1  0  0  0  0
M  END
>  <MODEL>
4

>  <REMARK>
 VINA RESULT:      -8.2      1.495      4.832
  Name = 
  2 active torsions:
  status: ('A' for Active; 'I' for Inactive)
    1  A    between atoms: C_11  and  C_28
    2  A    between atoms: C_28  and  C_30
                            x       y       z     vdW  Elec       q    Type
                         _______ _______ _______ _____ _____    ______ ____

>  <TORSDO>
F 2

$$$$
=
 OpenBabel11112416213D

 30 35  0  0  1  0  0  0  0  0999 V2000
  187.4620  176.7330  144.2140 C   0  0  0  0  0  0  0  0  0  0  0  0
  185.3840  177.9780  145.0600 C   0  0  0  0  0  0  0  0  0  0  0  0
  189.4560  177.3710  147.7520 N   0  0  0  0  0  2  0  0  0  0  0  0
  188.7820  176.2500  144.4350 C   0  0  0  0  0  0  0  0  0  0  0  0
  186.7890  176.3920  142.9110 C   0  0  0  0  0  2  0  0  0  0  0  0
  189.6330  175.0630  141.1060 O   0  0  0  0  0  0  0  0  0  0  0  0
  191.7730  175.2790  144.0590 C   0  0  1  0  0  3  0  0  0  0  0  0
  188.9780  175.5990  142.0420 C   0  0  0  0  0  0  0  0  0  0  0  0
  191.8640  175.7760  145.4930 C   0  0  2  0  0  3  0  0  0  0  0  0
  190.6240  176.7940  147.3950 C   0  0  0  0  0  0  0  0  0  0  0  0
  187.7650  176.4340  141.7380 C   0  0  1  0  0  3  0  0  0  0  0  0
  189.4300  175.4800  143.4030 N   0  0  0  0  0  0  0  0  0  0  0  0
  184.8040  178.8440  146.0900 C   0  0  0  0  0  3  0  0  0  0  0  0
  192.5340  174.6630  146.2710 C   0  0  0  0  0  2  0  0  0  0  0  0
  192.9630  174.3480  143.8880 C   0  0  0  0  0  2  0  0  0  0  0  0
  184.7050  177.7370  144.0280 O   0  0  0  0  0  0  0  0  0  0  0  0
  188.6970  177.2030  146.6560 C   0  0  0  0  0  0  0  0  0  0  0  0
  185.4160  179.0390  147.2570 C   0  0  0  0  0  3  0  0  0  0  0  0
  186.7610  177.4370  145.2400 C   0  0  0  0  0  0  0  0  0  0  0  0
  189.3870  176.5350  145.6770 C   0  0  0  0  0  0  0  0  0  0  0  0
  191.6270  176.7870  148.1580 O   0  0  0  0  0  0  0  0  0  0  0  0
  190.6340  176.2610  146.1450 N   0  0  0  0  0  0  0  0  0  0  0  0
  193.4750  174.0070  145.2810 C   0  0  0  0  0  2  0  0  0  0  0  0
  190.0480  173.4630  144.6890 C   0  0  0  0  0  1  0  0  0  0  0  0
  186.6930  178.3430  147.6340 C   0  0  0  0  0  2  0  0  0  0  0  0
  187.3980  177.6700  146.4820 C   0  0  0  0  0  0  0  0  0  0  0  0
  190.4940  174.5370  143.6990 C   0  0  2  0  0  3  0  0  0  0  0  0
  187.0670  176.0370  140.4340 C   0  0  0  0  0  2  0  0  0  0  0  0
  185.4740  177.9170  140.1750 C   0  0  0  0  0  1  0  0  0  0  0  0
  186.6920  177.2410  139.5830 C   0  0  0  0  0  2  0  0  0  0  0  0
  1  4  2  0  0  0  0
  1 19  1  0  0  0  0
  2 19  1  0  0  0  0
  2 13  1  0  0  0  0
  4 20  1  0  0  0  0
  5  1  1  0  0  0  0
  6  8  2  0  0  0  0
  7 15  1  1  0  0  0
  7  9  1  0  0  0  0
  8 12  1  0  0  0  0
  9 22  1  0  0  0  0
  9 14  1  1  0  0  0
 10  3  1  0  0  0  0
 10 21  2  0  0  0  0
 11 28  1  6  0  0  0
 11  8  1  0  0  0  0
 11  5  1  0  0  0  0
 12 27  1  0  0  0  0
 12  4  1  0  0  0  0
 13 18  2  0  0  0  0
 15 23  1  0  0  0  0
 16  2  2  0  0  0  0
 17  3  1  0  0  0  0
 18 25  1  0  0  0  0
 19 26  2  0  0  0  0
 20 22  1  0  0  0  0
 20 17  2  0  0  0  0
 22 10  1  0  0  0  0
 23 14  1  0  0  0  0
 26 17  1  0  0  0  0
 26 25  1  0  0  0  0
 27  7  1  0  0  0  0
 27 24  1  1  0  0  0
 30 29  1  0  0  0  0
 30 28  1  0  0  0  0
M  END
>  <MODEL>
5

>  <REMARK>
 VINA RESULT:      -8.2      1.683      2.389
  Name = 
  2 active torsions:
  status: ('A' for Active; 'I' for Inactive)
    1  A    between atoms: C_11  and  C_28
    2  A    between atoms: C_28  and  C_30
                            x       y       z     vdW  Elec       q    Type
                         _______ _______ _______ _____ _____    ______ ____

>  <TORSDO>
F 2

$$$$
=
 OpenBabel11112416213D

 30 35  0  0  1  0  0  0  0  0999 V2000
  189.7960  175.7180  143.9210 C   0  0  0  0  0  0  0  0  0  0  0  0
  191.8790  175.1020  145.2850 C   0  0  0  0  0  0  0  0  0  0  0  0
  188.0100  177.4750  147.1790 N   0  0  0  0  0  2  0  0  0  0  0  0
  188.5090  176.3210  143.8430 C   0  0  0  0  0  0  0  0  0  0  0  0
  190.3960  175.1580  142.6570 C   0  0  0  0  0  2  0  0  0  0  0  0
  187.4900  175.3140  140.5020 O   0  0  0  0  0  0  0  0  0  0  0  0
  185.5360  177.0630  143.0460 C   0  0  1  0  0  3  0  0  0  0  0  0
  188.1840  175.4090  141.5520 C   0  0  0  0  0  0  0  0  0  0  0  0
  185.5190  177.5380  144.4900 C   0  0  2  0  0  3  0  0  0  0  0  0
  186.8420  177.7950  146.5820 C   0  0  0  0  0  0  0  0  0  0  0  0
  189.3470  174.4820  141.7790 C   0  0  1  0  0  3  0  0  0  0  0  0
  187.8240  176.3530  142.5750 N   0  0  0  0  0  0  0  0  0  0  0  0
  192.4940  174.9960  146.6110 C   0  0  0  0  0  3  0  0  0  0  0  0
  184.9380  178.9360  144.4540 C   0  0  0  0  0  2  0  0  0  0  0  0
  184.3700  177.7780  142.3820 C   0  0  0  0  0  2  0  0  0  0  0  0
  192.5000  174.6260  144.2980 O   0  0  0  0  0  0  0  0  0  0  0  0
  188.7030  176.8980  146.1840 C   0  0  0  0  0  0  0  0  0  0  0  0
  191.9520  175.5850  147.6750 C   0  0  0  0  0  3  0  0  0  0  0  0
  190.5360  175.7310  145.1420 C   0  0  0  0  0  0  0  0  0  0  0  0
  187.9750  176.8840  145.0210 C   0  0  0  0  0  0  0  0  0  0  0  0
  185.8910  178.3260  147.2130 O   0  0  0  0  0  0  0  0  0  0  0  0
  186.7710  177.4650  145.2650 N   0  0  0  0  0  0  0  0  0  0  0  0
  183.9590  178.9230  143.2980 C   0  0  0  0  0  2  0  0  0  0  0  0
  187.3580  178.7730  142.3950 C   0  0  0  0  0  1  0  0  0  0  0  0
  190.7250  176.4490  147.5920 C   0  0  0  0  0  2  0  0  0  0  0  0
  189.9720  176.3360  146.2890 C   0  0  0  0  0  0  0  0  0  0  0  0
  186.8140  177.3520  142.2710 C   0  0  2  0  0  3  0  0  0  0  0  0
  189.9730  173.9660  140.4810 C   0  0  0  0  0  2  0  0  0  0  0  0
  188.7220  172.3670  139.0590 C   0  0  0  0  0  1  0  0  0  0  0  0
  189.6700  172.4950  140.2320 C   0  0  0  0  0  2  0  0  0  0  0  0
  1 19  1  0  0  0  0
  2 13  1  0  0  0  0
  4  1  2  0  0  0  0
  4 20  1  0  0  0  0
  5  1  1  0  0  0  0
  6  8  2  0  0  0  0
  7 15  1  6  0  0  0
  7  9  1  0  0  0  0
  8 11  1  0  0  0  0
  8 12  1  0  0  0  0
  9 14  1  6  0  0  0
  9 22  1  0  0  0  0
 10  3  1  0  0  0  0
 10 21  2  0  0  0  0
 11 28  1  6  0  0  0
 11  5  1  0  0  0  0
 12  4  1  0  0  0  0
 13 18  2  0  0  0  0
 15 23  1  0  0  0  0
 16  2  2  0  0  0  0
 17 26  1  0  0  0  0
 17  3  1  0  0  0  0
 19  2  1  0  0  0  0
 19 26  2  0  0  0  0
 20 22  1  0  0  0  0
 20 17  2  0  0  0  0
 22 10  1  0  0  0  0
 23 14  1  0  0  0  0
 25 18  1  0  0  0  0
 26 25  1  0  0  0  0
 27 24  1  1  0  0  0
 27 12  1  0  0  0  0
 27  7  1  0  0  0  0
 29 30  1  0  0  0  0
 30 28  1  0  0  0  0
M  END
>  <MODEL>
6

>  <REMARK>
 VINA RESULT:      -8.0      1.831      5.680
  Name = 
  2 active torsions:
  status: ('A' for Active; 'I' for Inactive)
    1  A    between atoms: C_11  and  C_28
    2  A    between atoms: C_28  and  C_30
                            x       y       z     vdW  Elec       q    Type
                         _______ _______ _______ _____ _____    ______ ____

>  <TORSDO>
F 2

$$$$
=
 OpenBabel11112416213D

 30 35  0  0  1  0  0  0  0  0999 V2000
  191.2370  175.3800  143.3300 C   0  0  0  0  0  0  0  0  0  0  0  0
  193.6070  174.9860  144.2300 C   0  0  0  0  0  0  0  0  0  0  0  0
  190.0730  177.2360  146.8080 N   0  0  0  0  0  2  0  0  0  0  0  0
  189.9220  175.8950  143.5080 C   0  0  0  0  0  0  0  0  0  0  0  0
  191.5880  174.7750  141.9960 C   0  0  0  0  0  2  0  0  0  0  0  0
  188.2810  174.6070  140.5310 O   0  0  0  0  0  0  0  0  0  0  0  0
  186.7990  176.3970  143.3500 C   0  0  1  0  0  3  0  0  0  0  0  0
  189.1770  174.8150  141.3950 C   0  0  0  0  0  0  0  0  0  0  0  0
  187.0600  176.9660  144.7360 C   0  0  2  0  0  3  0  0  0  0  0  0
  188.7830  177.4420  146.4680 C   0  0  0  0  0  0  0  0  0  0  0  0
  190.4270  173.9790  141.4070 C   0  0  1  0  0  3  0  0  0  0  0  0
  188.9780  175.8010  142.4230 N   0  0  0  0  0  0  0  0  0  0  0  0
  194.5000  175.0070  145.3910 C   0  0  0  0  0  3  0  0  0  0  0  0
  186.3830  178.3190  144.7580 C   0  0  0  0  0  2  0  0  0  0  0  0
  185.4660  176.9930  142.9240 C   0  0  0  0  0  2  0  0  0  0  0  0
  194.0320  174.4850  143.1560 O   0  0  0  0  0  0  0  0  0  0  0  0
  190.5750  176.6370  145.7150 C   0  0  0  0  0  0  0  0  0  0  0  0
  194.1590  175.6300  146.5170 C   0  0  0  0  0  3  0  0  0  0  0  0
  192.2210  175.5200  144.3550 C   0  0  0  0  0  0  0  0  0  0  0  0
  189.6150  176.5010  144.7440 C   0  0  0  0  0  0  0  0  0  0  0  0
  187.9540  177.9540  147.2660 O   0  0  0  0  0  0  0  0  0  0  0  0
  188.4530  177.0220  145.2180 N   0  0  0  0  0  0  0  0  0  0  0  0
  185.1800  178.1680  143.8490 C   0  0  0  0  0  2  0  0  0  0  0  0
  188.3030  178.1700  142.2260 C   0  0  0  0  0  1  0  0  0  0  0  0
  192.8820  176.4100  146.6630 C   0  0  0  0  0  2  0  0  0  0  0  0
  191.8750  176.1630  145.5660 C   0  0  0  0  0  0  0  0  0  0  0  0
  187.8530  176.7120  142.2990 C   0  0  2  0  0  3  0  0  0  0  0  0
  190.7940  173.4170  140.0310 C   0  0  0  0  0  2  0  0  0  0  0  0
  190.4500  171.2730  141.2270 C   0  0  0  0  0  1  0  0  0  0  0  0
  190.4030  171.9540  139.8750 C   0  0  0  0  0  2  0  0  0  0  0  0
  1  4  2  0  0  0  0
  1 19  1  0  0  0  0
  2 19  1  0  0  0  0
  2 13  1  0  0  0  0
  4 20  1  0  0  0  0
  5  1  1  0  0  0  0
  6  8  2  0  0  0  0
  7 15  1  6  0  0  0
  7  9  1  0  0  0  0
  8 11  1  0  0  0  0
  8 12  1  0  0  0  0
  9 14  1  6  0  0  0
  9 22  1  0  0  0  0
 10  3  1  0  0  0  0
 10 21  2  0  0  0  0
 11 28  1  6  0  0  0
 11  5  1  0  0  0  0
 12  4  1  0  0  0  0
 13 18  2  0  0  0  0
 15 23  1  0  0  0  0
 16  2  2  0  0  0  0
 17  3  1  0  0  0  0
 18 25  1  0  0  0  0
 19 26  2  0  0  0  0
 20 22  1  0  0  0  0
 20 17  2  0  0  0  0
 22 10  1  0  0  0  0
 23 14  1  0  0  0  0
 26 17  1  0  0  0  0
 26 25  1  0  0  0  0
 27 24  1  1  0  0  0
 27 12  1  0  0  0  0
 27  7  1  0  0  0  0
 30 28  1  0  0  0  0
 30 29  1  0  0  0  0
M  END
>  <MODEL>
7

>  <REMARK>
 VINA RESULT:      -8.0      2.357      6.242
  Name = 
  2 active torsions:
  status: ('A' for Active; 'I' for Inactive)
    1  A    between atoms: C_11  and  C_28
    2  A    between atoms: C_28  and  C_30
                            x       y       z     vdW  Elec       q    Type
                         _______ _______ _______ _____ _____    ______ ____

>  <TORSDO>
F 2

$$$$
=
 OpenBabel11112416213D

 30 35  0  0  1  0  0  0  0  0999 V2000
  187.5610  176.3750  143.6370 C   0  0  0  0  0  0  0  0  0  0  0  0
  185.3270  177.5930  143.9700 C   0  0  0  0  0  0  0  0  0  0  0  0
  188.9380  177.6050  147.3100 N   0  0  0  0  0  2  0  0  0  0  0  0
  188.8470  176.0080  144.1230 C   0  0  0  0  0  0  0  0  0  0  0  0
  187.1180  175.8210  142.3080 C   0  0  0  0  0  2  0  0  0  0  0  0
  190.2640  174.4370  141.1670 O   0  0  0  0  0  0  0  0  0  0  0  0
  191.8950  175.1800  144.3510 C   0  0  1  0  0  3  0  0  0  0  0  0
  189.4480  175.0530  141.9070 C   0  0  0  0  0  0  0  0  0  0  0  0
  191.7370  175.8710  145.6960 C   0  0  2  0  0  3  0  0  0  0  0  0
  190.1690  177.0580  147.2220 C   0  0  0  0  0  0  0  0  0  0  0  0
  188.2670  175.7640  141.3050 C   0  0  1  0  0  3  0  0  0  0  0  0
  189.6810  175.1470  143.3230 N   0  0  0  0  0  0  0  0  0  0  0  0
  184.5570  178.5540  144.7640 C   0  0  0  0  0  3  0  0  0  0  0  0
  192.3170  174.9160  146.7180 C   0  0  0  0  0  2  0  0  0  0  0  0
  193.1330  174.3090  144.4990 C   0  0  0  0  0  2  0  0  0  0  0  0
  184.8320  177.1740  142.8910 O   0  0  0  0  0  0  0  0  0  0  0  0
  188.3710  177.2450  146.1470 C   0  0  0  0  0  0  0  0  0  0  0  0
  184.9660  178.9410  145.9710 C   0  0  0  0  0  3  0  0  0  0  0  0
  186.6780  177.1660  144.4330 C   0  0  0  0  0  0  0  0  0  0  0  0
  189.2340  176.4940  145.3900 C   0  0  0  0  0  0  0  0  0  0  0  0
  191.0370  177.2150  148.1210 O   0  0  0  0  0  0  0  0  0  0  0  0
  190.4000  176.3620  146.0770 N   0  0  0  0  0  0  0  0  0  0  0  0
  193.4290  174.1910  145.9870 C   0  0  0  0  0  2  0  0  0  0  0  0
  190.1650  173.3630  144.9630 C   0  0  0  0  0  1  0  0  0  0  0  0
  186.1930  178.3820  146.6340 C   0  0  0  0  0  2  0  0  0  0  0  0
  187.0990  177.6040  145.7110 C   0  0  0  0  0  0  0  0  0  0  0  0
  190.7200  174.3190  143.9100 C   0  0  2  0  0  3  0  0  0  0  0  0
  187.8030  175.1520  139.9790 C   0  0  0  0  0  2  0  0  0  0  0  0
  187.0680  175.6640  137.6680 C   0  0  0  0  0  1  0  0  0  0  0  0
  187.0660  176.1540  139.1010 C   0  0  0  0  0  2  0  0  0  0  0  0
  1  4  2  0  0  0  0
  1 19  1  0  0  0  0
  2 19  1  0  0  0  0
  2 13  1  0  0  0  0
  4 20  1  0  0  0  0
  5  1  1  0  0  0  0
  6  8  2  0  0  0  0
  7 15  1  1  0  0  0
  7  9  1  0  0  0  0
  8 12  1  0  0  0  0
  9 22  1  0  0  0  0
  9 14  1  1  0  0  0
 10  3  1  0  0  0  0
 10 21  2  0  0  0  0
 11 28  1  6  0  0  0
 11  8  1  0  0  0  0
 11  5  1  0  0  0  0
 12 27  1  0  0  0  0
 12  4  1  0  0  0  0
 13 18  2  0  0  0  0
 15 23  1  0  0  0  0
 16  2  2  0  0  0  0
 17  3  1  0  0  0  0
 18 25  1  0  0  0  0
 19 26  2  0  0  0  0
 20 22  1  0  0  0  0
 20 17  2  0  0  0  0
 22 10  1  0  0  0  0
 23 14  1  0  0  0  0
 26 17  1  0  0  0  0
 26 25  1  0  0  0  0
 27  7  1  0  0  0  0
 27 24  1  1  0  0  0
 29 30  1  0  0  0  0
 30 28  1  0  0  0  0
M  END
>  <MODEL>
8

>  <REMARK>
 VINA RESULT:      -7.9      2.054      2.936
  Name = 
  2 active torsions:
  status: ('A' for Active; 'I' for Inactive)
    1  A    between atoms: C_11  and  C_28
    2  A    between atoms: C_28  and  C_30
                            x       y       z     vdW  Elec       q    Type
                         _______ _______ _______ _____ _____    ______ ____

>  <TORSDO>
F 2

$$$$
=
 OpenBabel11112416213D

 30 35  0  0  1  0  0  0  0  0999 V2000
  188.8990  176.3170  144.6930 C   0  0  0  0  0  0  0  0  0  0  0  0
  189.7460  177.0580  146.9980 C   0  0  0  0  0  0  0  0  0  0  0  0
  192.1960  173.9360  144.0910 N   0  0  0  0  0  2  0  0  0  0  0  0
  189.0690  175.5470  143.5080 C   0  0  0  0  0  0  0  0  0  0  0  0
  187.6260  177.1070  144.8510 C   0  0  0  0  0  2  0  0  0  0  0  0
  186.3140  176.7940  141.4900 O   0  0  0  0  0  0  0  0  0  0  0  0
  188.9760  174.4840  140.5260 C   0  0  1  0  0  3  0  0  0  0  0  0
  187.1160  176.6740  142.4570 C   0  0  0  0  0  0  0  0  0  0  0  0
  190.2810  173.8390  140.9660 C   0  0  2  0  0  3  0  0  0  0  0  0
  191.8840  173.5260  142.8440 C   0  0  0  0  0  0  0  0  0  0  0  0
  187.1720  177.7250  143.5310 C   0  0  1  0  0  3  0  0  0  0  0  0
  188.0370  175.5700  142.5010 N   0  0  0  0  0  0  0  0  0  0  0  0
  190.8640  177.0900  147.9450 C   0  0  0  0  0  3  0  0  0  0  0  0
  190.1810  172.3870  140.5510 C   0  0  0  0  0  2  0  0  0  0  0  0
  188.5380  173.6930  139.3030 C   0  0  0  0  0  2  0  0  0  0  0  0
  188.7180  177.7350  147.2620 O   0  0  0  0  0  0  0  0  0  0  0  0
  191.1570  174.7250  144.4120 C   0  0  0  0  0  0  0  0  0  0  0  0
  191.9270  176.3040  147.7900 C   0  0  0  0  0  3  0  0  0  0  0  0
  189.8640  176.2630  145.7430 C   0  0  0  0  0  0  0  0  0  0  0  0
  190.2430  174.7740  143.3890 C   0  0  0  0  0  0  0  0  0  0  0  0
  192.6520  172.7890  142.1700 O   0  0  0  0  0  0  0  0  0  0  0  0
  190.7000  173.9980  142.3710 N   0  0  0  0  0  0  0  0  0  0  0  0
  189.3390  172.3990  139.2910 C   0  0  0  0  0  2  0  0  0  0  0  0
  187.6090  173.1480  142.2630 C   0  0  0  0  0  1  0  0  0  0  0  0
  192.0350  175.2870  146.6880 C   0  0  0  0  0  2  0  0  0  0  0  0
  191.0110  175.4480  145.5910 C   0  0  0  0  0  0  0  0  0  0  0  0
  187.8570  174.4800  141.5580 C   0  0  2  0  0  3  0  0  0  0  0  0
  185.8520  178.4810  143.7090 C   0  0  0  0  0  2  0  0  0  0  0  0
  184.3200  178.6650  145.6480 C   0  0  0  0  0  1  0  0  0  0  0  0
  185.6860  179.0420  145.1130 C   0  0  0  0  0  2  0  0  0  0  0  0
  1  5  1  0  0  0  0
  1 19  1  0  0  0  0
  2 16  2  0  0  0  0
  2 13  1  0  0  0  0
  3 17  1  0  0  0  0
  4  1  2  0  0  0  0
  6  8  2  0  0  0  0
  7 15  1  6  0  0  0
  7  9  1  0  0  0  0
  7 27  1  0  0  0  0
  8 12  1  0  0  0  0
  8 11  1  0  0  0  0
  9 14  1  1  0  0  0
  9 22  1  0  0  0  0
 10  3  1  0  0  0  0
 11 28  1  1  0  0  0
 11  5  1  0  0  0  0
 12  4  1  0  0  0  0
 17 26  1  0  0  0  0
 18 13  2  0  0  0  0
 19  2  1  0  0  0  0
 20  4  1  0  0  0  0
 20 17  2  0  0  0  0
 21 10  2  0  0  0  0
 22 10  1  0  0  0  0
 22 20  1  0  0  0  0
 23 15  1  0  0  0  0
 23 14  1  0  0  0  0
 25 18  1  0  0  0  0
 26 19  2  0  0  0  0
 26 25  1  0  0  0  0
 27 24  1  1  0  0  0
 27 12  1  0  0  0  0
 28 30  1  0  0  0  0
 30 29  1  0  0  0  0
M  END
>  <MODEL>
9

>  <REMARK>
 VINA RESULT:      -7.8      2.259      3.995
  Name = 
  2 active torsions:
  status: ('A' for Active; 'I' for Inactive)
    1  A    between atoms: C_11  and  C_28
    2  A    between atoms: C_28  and  C_30
                            x       y       z     vdW  Elec       q    Type
                         _______ _______ _______ _____ _____    ______ ____

>  <TORSDO>
F 2

$$$$
