=
 OpenBabel11112416533D

 31 35  0  0  1  0  0  0  0  0999 V2000
  185.9850  177.9200  140.8600 C   0  0  0  0  0  0  0  0  0  0  0  0
  188.0640  177.7440  143.9950 N   0  0  0  0  0  0  0  0  0  0  0  0
  187.1780  177.8140  145.1400 C   0  0  0  0  0  0  0  0  0  0  0  0
  191.3180  173.9920  142.2800 O   0  0  0  0  0  0  0  0  0  0  0  0
  191.8070  174.5200  143.3130 C   0  0  0  0  0  0  0  0  0  0  0  0
  185.0250  178.3440  146.1440 C   0  0  0  0  0  0  0  0  0  0  0  0
  187.5710  177.5320  142.6550 C   0  0  0  0  0  0  0  0  0  0  0  0
  186.6790  177.0190  140.0470 C   0  0  0  0  0  3  0  0  0  0  0  0
  185.8610  178.2860  145.0270 C   0  0  0  0  0  3  0  0  0  0  0  0
  190.0170  176.3420  143.4450 C   0  0  0  0  0  0  0  0  0  0  0  0
  184.8770  178.5410  140.3890 F   0  0  0  0  0  0  0  0  0  0  0  0
  189.0240  176.8570  146.5460 C   0  0  0  0  0  2  0  0  0  0  0  0
  183.3850  178.9340  145.9800 Cl  0  0  0  0  0  0  0  0  0  0  0  0
  189.4490  175.9860  142.3280 N   0  0  0  0  0  0  0  0  0  0  0  0
  189.5210  177.5700  144.1770 C   0  0  2  0  0  3  0  0  0  0  0  0
  191.1980  175.6740  143.9090 N   0  0  0  0  0  2  0  0  0  0  0  0
  186.4270  178.1750  142.1610 C   0  0  0  0  0  3  0  0  0  0  0  0
  185.4950  177.9270  147.3910 C   0  0  0  0  0  3  0  0  0  0  0  0
  188.2770  176.6420  141.8260 C   0  0  0  0  0  0  0  0  0  0  0  0
  187.8240  176.3790  140.5290 C   0  0  0  0  0  3  0  0  0  0  0  0
  189.9700  177.6330  145.6450 C   0  0  0  0  0  2  0  0  0  0  0  0
  187.6450  177.4080  146.4050 C   0  0  0  0  0  0  0  0  0  0  0  0
  186.8030  177.4540  147.5200 C   0  0  0  0  0  3  0  0  0  0  0  0
  194.2080  175.6570  146.0050 C   0  0  1  0  0  3  0  0  0  0  0  0
  192.8290  173.6390  145.4280 C   0  0  0  0  0  2  0  0  0  0  0  0
  194.5590  175.0050  142.2240 C   0  0  0  0  0  1  0  0  0  0  0  0
  194.2290  176.8370  146.7460 O   0  0  0  0  0  1  0  0  0  0  0  0
  192.8860  174.9310  146.2440 C   0  0  0  0  0  2  0  0  0  0  0  0
  194.3300  174.7020  143.6940 C   0  0  2  0  0  3  0  0  0  0  0  0
  193.0320  173.9070  143.9330 C   0  0  2  0  0  3  0  0  0  0  0  0
  194.3750  175.9850  144.5240 C   0  0  0  0  0  2  0  0  0  0  0  0
  1 17  1  0  0  0  0
  2 15  1  0  0  0  0
  2  3  1  0  0  0  0
  3 22  1  0  0  0  0
  4  5  2  0  0  0  0
  5 16  1  0  0  0  0
  6 18  2  0  0  0  0
  7  2  1  0  0  0  0
  8 20  1  0  0  0  0
  8  1  2  0  0  0  0
  9  3  2  0  0  0  0
  9  6  1  0  0  0  0
 10 16  1  0  0  0  0
 10 15  1  0  0  0  0
 11  1  1  0  0  0  0
 13  6  1  0  0  0  0
 14 10  2  0  0  0  0
 15 21  1  1  0  0  0
 17  7  2  0  0  0  0
 18 23  1  0  0  0  0
 19 14  1  0  0  0  0
 19  7  1  0  0  0  0
 20 19  2  0  0  0  0
 21 12  1  0  0  0  0
 22 12  1  0  0  0  0
 22 23  2  0  0  0  0
 24 28  1  0  0  0  0
 24 27  1  1  0  0  0
 25 28  1  0  0  0  0
 29 26  1  6  0  0  0
 29 30  1  0  0  0  0
 29 31  1  0  0  0  0
 30  5  1  1  0  0  0
 30 25  1  0  0  0  0
 31 24  1  0  0  0  0
M  END
>  <MODEL>
1

>  <REMARK>
 VINA RESULT:      -9.3      0.000      0.000
  Name = 
  1 active torsions:
  status: ('A' for Active; 'I' for Inactive)
    1  A    between atoms: C_5  and  C_30
                            x       y       z     vdW  Elec       q    Type
                         _______ _______ _______ _____ _____    ______ ____

>  <TORSDO>
F 1

$$$$
=
 OpenBabel11112416533D

 31 35  0  0  1  0  0  0  0  0999 V2000
  184.9540  177.9650  146.8320 C   0  0  0  0  0  0  0  0  0  0  0  0
  186.7310  176.5550  143.8250 N   0  0  0  0  0  0  0  0  0  0  0  0
  186.0940  177.0710  142.6290 C   0  0  0  0  0  0  0  0  0  0  0  0
  191.5870  177.1100  145.7530 O   0  0  0  0  0  0  0  0  0  0  0  0
  191.6280  176.3530  144.7470 C   0  0  0  0  0  0  0  0  0  0  0  0
  184.2160  178.1280  141.4970 C   0  0  0  0  0  0  0  0  0  0  0  0
  186.4560  177.0950  145.1350 C   0  0  0  0  0  0  0  0  0  0  0  0
  186.0380  178.1730  147.6900 C   0  0  0  0  0  3  0  0  0  0  0  0
  184.8100  177.6370  142.6620 C   0  0  0  0  0  3  0  0  0  0  0  0
  189.0840  176.2530  144.4980 C   0  0  0  0  0  0  0  0  0  0  0  0
  183.7020  178.2900  147.2330 F   0  0  0  0  0  0  0  0  0  0  0  0
  188.1570  176.4500  141.3410 C   0  0  0  0  0  2  0  0  0  0  0  0
  182.6140  178.8300  141.5610 Cl  0  0  0  0  0  0  0  0  0  0  0  0
  188.8640  176.9420  145.5820 N   0  0  0  0  0  0  0  0  0  0  0  0
  187.9150  175.6760  143.7300 C   0  0  2  0  0  3  0  0  0  0  0  0
  190.4220  175.9120  144.1090 N   0  0  0  0  0  2  0  0  0  0  0  0
  185.1610  177.4310  145.5570 C   0  0  0  0  0  3  0  0  0  0  0  0
  184.9030  178.0640  140.2830 C   0  0  0  0  0  3  0  0  0  0  0  0
  187.5400  177.2870  146.0100 C   0  0  0  0  0  0  0  0  0  0  0  0
  187.3310  177.8350  147.2800 C   0  0  0  0  0  3  0  0  0  0  0  0
  188.2670  175.2690  142.2910 C   0  0  0  0  0  2  0  0  0  0  0  0
  186.7720  177.0010  141.3960 C   0  0  0  0  0  0  0  0  0  0  0  0
  186.1820  177.5060  140.2340 C   0  0  0  0  0  3  0  0  0  0  0  0
  193.3700  173.0150  144.4010 C   0  0  1  0  0  3  0  0  0  0  0  0
  192.8160  175.0160  142.9880 C   0  0  0  0  0  2  0  0  0  0  0  0
  194.0680  176.1820  146.4800 C   0  0  0  0  0  1  0  0  0  0  0  0
  192.9470  171.7400  144.7700 O   0  0  0  0  0  1  0  0  0  0  0  0
  192.3830  173.6080  143.3990 C   0  0  0  0  0  2  0  0  0  0  0  0
  193.9070  175.3080  145.2500 C   0  0  2  0  0  3  0  0  0  0  0  0
  192.9660  175.9370  144.2040 C   0  0  2  0  0  3  0  0  0  0  0  0
  193.4660  173.8980  145.6420 C   0  0  0  0  0  2  0  0  0  0  0  0
  1 11  1  0  0  0  0
  1  8  1  0  0  0  0
  2  7  1  0  0  0  0
  3  9  1  0  0  0  0
  3  2  1  0  0  0  0
  5  4  2  0  0  0  0
  6 13  1  0  0  0  0
  6  9  2  0  0  0  0
  7 17  1  0  0  0  0
  7 19  2  0  0  0  0
 10 14  2  0  0  0  0
 12 22  1  0  0  0  0
 12 21  1  0  0  0  0
 14 19  1  0  0  0  0
 15 21  1  6  0  0  0
 15  2  1  0  0  0  0
 15 10  1  0  0  0  0
 16 10  1  0  0  0  0
 16  5  1  0  0  0  0
 17  1  2  0  0  0  0
 18  6  1  0  0  0  0
 19 20  1  0  0  0  0
 20  8  2  0  0  0  0
 22  3  2  0  0  0  0
 23 18  2  0  0  0  0
 23 22  1  0  0  0  0
 24 27  1  1  0  0  0
 24 31  1  0  0  0  0
 25 28  1  0  0  0  0
 25 30  1  0  0  0  0
 28 24  1  0  0  0  0
 29 31  1  0  0  0  0
 29 26  1  1  0  0  0
 30  5  1  1  0  0  0
 30 29  1  0  0  0  0
M  END
>  <MODEL>
2

>  <REMARK>
 VINA RESULT:      -8.9      2.084      4.447
  Name = 
  1 active torsions:
  status: ('A' for Active; 'I' for Inactive)
    1  A    between atoms: C_5  and  C_30
                            x       y       z     vdW  Elec       q    Type
                         _______ _______ _______ _____ _____    ______ ____

>  <TORSDO>
F 1

$$$$
=
 OpenBabel11112416533D

 31 35  0  0  1  0  0  0  0  0999 V2000
  184.7330  178.5010  146.2800 C   0  0  0  0  0  0  0  0  0  0  0  0
  186.9400  176.4160  144.0510 N   0  0  0  0  0  0  0  0  0  0  0  0
  186.7050  176.8040  142.6750 C   0  0  0  0  0  0  0  0  0  0  0  0
  191.2060  176.6800  147.1090 O   0  0  0  0  0  0  0  0  0  0  0  0
  191.3690  175.7710  146.2530 C   0  0  0  0  0  0  0  0  0  0  0  0
  185.3520  177.8840  140.9640 C   0  0  0  0  0  0  0  0  0  0  0  0
  186.4440  177.1910  145.1640 C   0  0  0  0  0  0  0  0  0  0  0  0
  185.5950  178.7120  147.3600 C   0  0  0  0  0  3  0  0  0  0  0  0
  185.5580  177.5200  142.2960 C   0  0  0  0  0  3  0  0  0  0  0  0
  188.9800  175.9430  145.3550 C   0  0  0  0  0  0  0  0  0  0  0  0
  183.4900  179.0370  146.2920 F   0  0  0  0  0  0  0  0  0  0  0  0
  188.8920  175.7360  142.0670 C   0  0  0  0  0  2  0  0  0  0  0  0
  183.9160  178.7770  140.5130 Cl  0  0  0  0  0  0  0  0  0  0  0  0
  188.6150  176.8200  146.2470 N   0  0  0  0  0  0  0  0  0  0  0  0
  187.9560  175.3950  144.3850 C   0  0  2  0  0  3  0  0  0  0  0  0
  190.3000  175.3820  145.3790 N   0  0  0  0  0  2  0  0  0  0  0  0
  185.1570  177.7450  145.1830 C   0  0  0  0  0  3  0  0  0  0  0  0
  186.2950  177.5410  139.9920 C   0  0  0  0  0  3  0  0  0  0  0  0
  187.2990  177.3880  146.2630 C   0  0  0  0  0  0  0  0  0  0  0  0
  186.8780  178.1570  147.3530 C   0  0  0  0  0  3  0  0  0  0  0  0
  188.5780  174.7200  143.1530 C   0  0  0  0  0  2  0  0  0  0  0  0
  187.6420  176.4530  141.6840 C   0  0  0  0  0  0  0  0  0  0  0  0
  187.4410  176.8300  140.3540 C   0  0  0  0  0  3  0  0  0  0  0  0
  194.0530  175.7790  143.5900 C   0  0  1  0  0  3  0  0  0  0  0  0
  193.8420  176.1480  146.0650 C   0  0  0  0  0  2  0  0  0  0  0  0
  191.7190  173.0640  145.0130 C   0  0  0  0  0  1  0  0  0  0  0  0
  194.0850  176.4160  142.3510 O   0  0  0  0  0  1  0  0  0  0  0  0
  193.8960  176.8220  144.6940 C   0  0  0  0  0  2  0  0  0  0  0  0
  192.8300  174.0990  144.9850 C   0  0  2  0  0  3  0  0  0  0  0  0
  192.7150  175.1120  146.1400 C   0  0  2  0  0  3  0  0  0  0  0  0
  192.8920  174.7890  143.6230 C   0  0  0  0  0  2  0  0  0  0  0  0
  1 11  1  0  0  0  0
  1  8  1  0  0  0  0
  2 15  1  0  0  0  0
  2  7  1  0  0  0  0
  3  2  1  0  0  0  0
  5  4  2  0  0  0  0
  6  9  2  0  0  0  0
  7 17  1  0  0  0  0
  7 19  2  0  0  0  0
  9  3  1  0  0  0  0
 10 16  1  0  0  0  0
 10 14  2  0  0  0  0
 12 21  1  0  0  0  0
 13  6  1  0  0  0  0
 14 19  1  0  0  0  0
 15 21  1  6  0  0  0
 15 10  1  0  0  0  0
 16  5  1  0  0  0  0
 17  1  2  0  0  0  0
 18 23  2  0  0  0  0
 18  6  1  0  0  0  0
 19 20  1  0  0  0  0
 20  8  2  0  0  0  0
 22 12  1  0  0  0  0
 22  3  2  0  0  0  0
 23 22  1  0  0  0  0
 24 27  1  6  0  0  0
 24 31  1  0  0  0  0
 24 28  1  0  0  0  0
 25 30  1  0  0  0  0
 28 25  1  0  0  0  0
 29 26  1  6  0  0  0
 29 30  1  0  0  0  0
 30  5  1  6  0  0  0
 31 29  1  0  0  0  0
M  END
>  <MODEL>
3

>  <REMARK>
 VINA RESULT:      -8.8      2.087      4.431
  Name = 
  1 active torsions:
  status: ('A' for Active; 'I' for Inactive)
    1  A    between atoms: C_5  and  C_30
                            x       y       z     vdW  Elec       q    Type
                         _______ _______ _______ _____ _____    ______ ____

>  <TORSDO>
F 1

$$$$
=
 OpenBabel11112416533D

 31 35  0  0  1  0  0  0  0  0999 V2000
  185.4090  178.2560  140.8350 C   0  0  0  0  0  0  0  0  0  0  0  0
  187.8870  177.7910  143.6330 N   0  0  0  0  0  0  0  0  0  0  0  0
  187.1640  177.7530  144.8880 C   0  0  0  0  0  0  0  0  0  0  0  0
  190.8390  174.2190  141.1550 O   0  0  0  0  0  0  0  0  0  0  0  0
  191.4690  174.6490  142.1580 C   0  0  0  0  0  0  0  0  0  0  0  0
  185.1700  178.1840  146.2170 C   0  0  0  0  0  0  0  0  0  0  0  0
  187.2170  177.7040  142.3570 C   0  0  0  0  0  0  0  0  0  0  0  0
  185.9770  177.4350  139.8570 C   0  0  0  0  0  3  0  0  0  0  0  0
  185.8480  178.2310  144.9970 C   0  0  0  0  0  3  0  0  0  0  0  0
  189.7330  176.4490  142.6980 C   0  0  0  0  0  0  0  0  0  0  0  0
  184.2550  178.9170  140.5770 F   0  0  0  0  0  0  0  0  0  0  0  0
  189.1700  176.6710  145.9380 C   0  0  0  0  0  2  0  0  0  0  0  0
  183.5300  178.7850  146.3300 Cl  0  0  0  0  0  0  0  0  0  0  0  0
  189.0160  176.1980  141.6390 N   0  0  0  0  0  0  0  0  0  0  0  0
  189.3530  177.6020  143.6000 C   0  0  2  0  0  3  0  0  0  0  0  0
  190.9580  175.7410  142.9340 N   0  0  0  0  0  2  0  0  0  0  0  0
  186.0240  178.3890  142.0830 C   0  0  0  0  0  3  0  0  0  0  0  0
  185.7990  177.6530  147.3450 C   0  0  0  0  0  3  0  0  0  0  0  0
  187.7950  176.8960  141.3620 C   0  0  0  0  0  0  0  0  0  0  0  0
  187.1700  176.7550  140.1190 C   0  0  0  0  0  3  0  0  0  0  0  0
  189.9960  177.5290  144.9940 C   0  0  0  0  0  2  0  0  0  0  0  0
  187.7910  177.2310  146.0360 C   0  0  0  0  0  0  0  0  0  0  0  0
  187.1070  177.1720  147.2530 C   0  0  0  0  0  3  0  0  0  0  0  0
  195.1020  175.6650  141.9090 C   0  0  1  0  0  3  0  0  0  0  0  0
  193.4980  174.7810  143.6270 C   0  0  0  0  0  2  0  0  0  0  0  0
  192.9920  172.8940  140.2650 C   0  0  0  0  0  1  0  0  0  0  0  0
  195.6760  176.8240  141.3890 O   0  0  0  0  0  1  0  0  0  0  0  0
  194.1540  176.0350  143.0470 C   0  0  0  0  0  2  0  0  0  0  0  0
  193.6940  173.6690  141.3650 C   0  0  2  0  0  3  0  0  0  0  0  0
  192.7580  173.9820  142.5480 C   0  0  2  0  0  3  0  0  0  0  0  0
  194.3490  174.9310  140.8040 C   0  0  0  0  0  2  0  0  0  0  0  0
  1 17  1  0  0  0  0
  2  3  1  0  0  0  0
  3  9  2  0  0  0  0
  3 22  1  0  0  0  0
  4  5  2  0  0  0  0
  5 16  1  0  0  0  0
  6 13  1  0  0  0  0
  6 18  2  0  0  0  0
  7  2  1  0  0  0  0
  8 20  1  0  0  0  0
  8  1  2  0  0  0  0
  9  6  1  0  0  0  0
 10 16  1  0  0  0  0
 10 15  1  0  0  0  0
 11  1  1  0  0  0  0
 12 22  1  0  0  0  0
 14 10  2  0  0  0  0
 15  2  1  0  0  0  0
 15 21  1  1  0  0  0
 17  7  2  0  0  0  0
 19 14  1  0  0  0  0
 19  7  1  0  0  0  0
 20 19  2  0  0  0  0
 21 12  1  0  0  0  0
 22 23  2  0  0  0  0
 23 18  1  0  0  0  0
 24 27  1  6  0  0  0
 24 28  1  0  0  0  0
 28 25  1  0  0  0  0
 29 26  1  6  0  0  0
 29 30  1  0  0  0  0
 30  5  1  6  0  0  0
 30 25  1  0  0  0  0
 31 29  1  0  0  0  0
 31 24  1  0  0  0  0
M  END
>  <MODEL>
4

>  <REMARK>
 VINA RESULT:      -8.3      1.453      1.901
  Name = 
  1 active torsions:
  status: ('A' for Active; 'I' for Inactive)
    1  A    between atoms: C_5  and  C_30
                            x       y       z     vdW  Elec       q    Type
                         _______ _______ _______ _____ _____    ______ ____

>  <TORSDO>
F 1

$$$$
=
 OpenBabel11112416533D

 31 35  0  0  1  0  0  0  0  0999 V2000
  185.3630  178.2980  140.7080 C   0  0  0  0  0  0  0  0  0  0  0  0
  187.7530  177.8290  143.5810 N   0  0  0  0  0  0  0  0  0  0  0  0
  186.9970  177.8420  144.8170 C   0  0  0  0  0  0  0  0  0  0  0  0
  190.6650  174.1170  141.2660 O   0  0  0  0  0  0  0  0  0  0  0  0
  191.2800  174.5540  142.2750 C   0  0  0  0  0  0  0  0  0  0  0  0
  184.9830  178.3610  146.0820 C   0  0  0  0  0  0  0  0  0  0  0  0
  187.1150  177.7310  142.2910 C   0  0  0  0  0  0  0  0  0  0  0  0
  185.9330  177.4390  139.7650 C   0  0  0  0  0  3  0  0  0  0  0  0
  185.6940  178.3600  144.8800 C   0  0  0  0  0  3  0  0  0  0  0  0
  189.5830  176.4140  142.7270 C   0  0  0  0  0  0  0  0  0  0  0  0
  184.2360  178.9850  140.4040 F   0  0  0  0  0  0  0  0  0  0  0  0
  188.9430  176.7290  145.9450 C   0  0  0  0  0  2  0  0  0  0  0  0
  183.3590  179.0110  146.1380 Cl  0  0  0  0  0  0  0  0  0  0  0  0
  188.8880  176.1580  141.6550 N   0  0  0  0  0  0  0  0  0  0  0  0
  189.2140  177.5990  143.5920 C   0  0  2  0  0  3  0  0  0  0  0  0
  190.7810  175.6780  143.0120 N   0  0  0  0  0  2  0  0  0  0  0  0
  185.9500  178.4430  141.9690 C   0  0  0  0  0  3  0  0  0  0  0  0
  185.5660  177.8390  147.2390 C   0  0  0  0  0  3  0  0  0  0  0  0
  187.6950  176.8840  141.3300 C   0  0  0  0  0  0  0  0  0  0  0  0
  187.0980  176.7310  140.0740 C   0  0  0  0  0  3  0  0  0  0  0  0
  189.8180  177.5410  145.0030 C   0  0  0  0  0  2  0  0  0  0  0  0
  187.5790  177.3300  145.9930 C   0  0  0  0  0  0  0  0  0  0  0  0
  186.8620  177.3190  147.1920 C   0  0  0  0  0  3  0  0  0  0  0  0
  192.2640  170.9190  142.6150 C   0  0  1  0  0  3  0  0  0  0  0  0
  193.1470  173.0290  141.5790 C   0  0  0  0  0  2  0  0  0  0  0  0
  191.7640  173.7910  145.1330 C   0  0  0  0  0  1  0  0  0  0  0  0
  191.5250  169.7630  142.3710 O   0  0  0  0  0  1  0  0  0  0  0  0
  192.3530  171.7450  141.3350 C   0  0  0  0  0  2  0  0  0  0  0  0
  192.3820  173.0080  143.9880 C   0  0  2  0  0  3  0  0  0  0  0  0
  192.5390  173.8600  142.7140 C   0  0  2  0  0  3  0  0  0  0  0  0
  191.5950  171.7240  143.7250 C   0  0  0  0  0  2  0  0  0  0  0  0
  1 17  1  0  0  0  0
  2 15  1  0  0  0  0
  2  3  1  0  0  0  0
  3  9  2  0  0  0  0
  3 22  1  0  0  0  0
  4  5  2  0  0  0  0
  5 16  1  0  0  0  0
  6 13  1  0  0  0  0
  6 18  2  0  0  0  0
  7  2  1  0  0  0  0
  8 20  1  0  0  0  0
  8  1  2  0  0  0  0
  9  6  1  0  0  0  0
 10 16  1  0  0  0  0
 10 15  1  0  0  0  0
 11  1  1  0  0  0  0
 12 22  1  0  0  0  0
 14 10  2  0  0  0  0
 15 21  1  1  0  0  0
 17  7  2  0  0  0  0
 19 14  1  0  0  0  0
 19  7  1  0  0  0  0
 20 19  2  0  0  0  0
 21 12  1  0  0  0  0
 22 23  2  0  0  0  0
 23 18  1  0  0  0  0
 24 27  1  6  0  0  0
 24 31  1  0  0  0  0
 25 30  1  0  0  0  0
 28 25  1  0  0  0  0
 28 24  1  0  0  0  0
 29 26  1  1  0  0  0
 30  5  1  6  0  0  0
 30 29  1  0  0  0  0
 31 29  1  0  0  0  0
M  END
>  <MODEL>
5

>  <REMARK>
 VINA RESULT:      -8.2      1.790      2.714
  Name = 
  1 active torsions:
  status: ('A' for Active; 'I' for Inactive)
    1  A    between atoms: C_5  and  C_30
                            x       y       z     vdW  Elec       q    Type
                         _______ _______ _______ _____ _____    ______ ____

>  <TORSDO>
F 1

$$$$
=
 OpenBabel11112416533D

 31 35  0  0  1  0  0  0  0  0999 V2000
  192.1280  169.9770  142.8850 C   0  0  0  0  0  0  0  0  0  0  0  0
  192.1720  173.0930  145.0010 N   0  0  0  0  0  0  0  0  0  0  0  0
  193.5490  173.4200  145.3120 C   0  0  0  0  0  0  0  0  0  0  0  0
  188.4670  175.6460  142.2860 O   0  0  0  0  0  0  0  0  0  0  0  0
  188.6510  176.2340  143.3850 C   0  0  0  0  0  0  0  0  0  0  0  0
  195.9010  172.8150  145.4820 C   0  0  0  0  0  0  0  0  0  0  0  0
  191.8220  172.1090  144.0040 C   0  0  0  0  0  0  0  0  0  0  0  0
  191.0860  170.2850  142.0060 C   0  0  0  0  0  3  0  0  0  0  0  0
  194.5810  172.4770  145.1770 C   0  0  0  0  0  3  0  0  0  0  0  0
  190.2300  174.4340  144.2870 C   0  0  0  0  0  0  0  0  0  0  0  0
  192.7870  168.8000  142.7670 F   0  0  0  0  0  0  0  0  0  0  0  0
  192.8020  175.7480  145.8740 C   0  0  0  0  0  2  0  0  0  0  0  0
  197.1710  171.6240  145.3050 Cl  0  0  0  0  0  0  0  0  0  0  0  0
  190.0660  173.6520  143.2570 N   0  0  0  0  0  0  0  0  0  0  0  0
  191.0680  173.9640  145.4560 C   0  0  2  0  0  3  0  0  0  0  0  0
  189.5050  175.6680  144.3890 N   0  0  0  0  0  2  0  0  0  0  0  0
  192.4980  170.8870  143.8790 C   0  0  0  0  0  3  0  0  0  0  0  0
  196.2080  174.1040  145.9220 C   0  0  0  0  0  3  0  0  0  0  0  0
  190.7600  172.4050  143.1300 C   0  0  0  0  0  0  0  0  0  0  0  0
  190.4020  171.4980  142.1270 C   0  0  0  0  0  3  0  0  0  0  0  0
  191.5230  175.1030  146.3810 C   0  0  0  0  0  2  0  0  0  0  0  0
  193.8700  174.7130  145.7690 C   0  0  0  0  0  0  0  0  0  0  0  0
  195.1930  175.0540  146.0600 C   0  0  0  0  0  3  0  0  0  0  0  0
  185.7530  177.3290  145.5520 C   0  0  1  0  0  3  0  0  0  0  0  0
  188.1250  178.0060  145.0810 C   0  0  0  0  0  2  0  0  0  0  0  0
  186.3160  177.1540  141.7460 C   0  0  0  0  0  1  0  0  0  0  0  0
  184.9380  176.5850  146.4030 O   0  0  0  0  0  1  0  0  0  0  0  0
  187.2050  177.2100  146.0080 C   0  0  0  0  0  2  0  0  0  0  0  0
  186.5050  177.6090  143.1820 C   0  0  2  0  0  3  0  0  0  0  0  0
  187.9800  177.5580  143.6230 C   0  0  2  0  0  3  0  0  0  0  0  0
  185.5980  176.8170  144.1230 C   0  0  0  0  0  2  0  0  0  0  0  0
  1 17  1  0  0  0  0
  2  3  1  0  0  0  0
  2 15  1  0  0  0  0
  3 22  1  0  0  0  0
  4  5  2  0  0  0  0
  5 16  1  0  0  0  0
  6 18  2  0  0  0  0
  7  2  1  0  0  0  0
  8 20  1  0  0  0  0
  8  1  2  0  0  0  0
  9  3  2  0  0  0  0
  9  6  1  0  0  0  0
 10 16  1  0  0  0  0
 10 15  1  0  0  0  0
 11  1  1  0  0  0  0
 12 21  1  0  0  0  0
 13  6  1  0  0  0  0
 14 10  2  0  0  0  0
 15 21  1  6  0  0  0
 17  7  2  0  0  0  0
 18 23  1  0  0  0  0
 19 14  1  0  0  0  0
 19  7  1  0  0  0  0
 20 19  2  0  0  0  0
 22 12  1  0  0  0  0
 22 23  2  0  0  0  0
 24 28  1  0  0  0  0
 24 27  1  1  0  0  0
 25 28  1  0  0  0  0
 29 26  1  6  0  0  0
 29 30  1  0  0  0  0
 29 31  1  0  0  0  0
 30  5  1  1  0  0  0
 30 25  1  0  0  0  0
 31 24  1  0  0  0  0
M  END
>  <MODEL>
6

>  <REMARK>
 VINA RESULT:      -7.9      4.448      7.984
  Name = 
  1 active torsions:
  status: ('A' for Active; 'I' for Inactive)
    1  A    between atoms: C_5  and  C_30
                            x       y       z     vdW  Elec       q    Type
                         _______ _______ _______ _____ _____    ______ ____

>  <TORSDO>
F 1

$$$$
=
 OpenBabel11112416533D

 31 35  0  0  1  0  0  0  0  0999 V2000
  189.6910  177.5340  147.0870 C   0  0  0  0  0  0  0  0  0  0  0  0
  188.4360  175.9800  143.8940 N   0  0  0  0  0  0  0  0  0  0  0  0
  187.5090  176.9010  143.2660 C   0  0  0  0  0  0  0  0  0  0  0  0
  193.0800  174.0580  142.3610 O   0  0  0  0  0  0  0  0  0  0  0  0
  192.1680  173.5270  141.6740 C   0  0  0  0  0  0  0  0  0  0  0  0
  186.0290  178.8310  143.3540 C   0  0  0  0  0  0  0  0  0  0  0  0
  189.2830  176.3740  144.9940 C   0  0  0  0  0  0  0  0  0  0  0  0
  191.0240  177.1130  147.0640 C   0  0  0  0  0  3  0  0  0  0  0  0
  186.9190  177.9560  143.9800 C   0  0  0  0  0  3  0  0  0  0  0  0
  190.2790  174.5830  143.0390 C   0  0  0  0  0  0  0  0  0  0  0  0
  189.2430  178.3050  148.1060 F   0  0  0  0  0  0  0  0  0  0  0  0
  187.8290  175.6540  141.1120 C   0  0  0  0  0  2  0  0  0  0  0  0
  185.3060  180.1410  144.2630 Cl  0  0  0  0  0  0  0  0  0  0  0  0
  191.0910  175.1200  143.9060 N   0  0  0  0  0  0  0  0  0  0  0  0
  188.7850  174.6990  143.2430 C   0  0  2  0  0  3  0  0  0  0  0  0
  190.7860  173.7600  141.9800 N   0  0  0  0  0  2  0  0  0  0  0  0
  188.8230  177.1690  146.0540 C   0  0  0  0  0  3  0  0  0  0  0  0
  185.7210  178.6660  142.0030 C   0  0  0  0  0  3  0  0  0  0  0  0
  190.6190  175.9360  144.9870 C   0  0  0  0  0  0  0  0  0  0  0  0
  191.4890  176.3150  146.0140 C   0  0  0  0  0  3  0  0  0  0  0  0
  187.9680  174.4100  141.9740 C   0  0  0  0  0  2  0  0  0  0  0  0
  187.1800  176.7360  141.9060 C   0  0  0  0  0  0  0  0  0  0  0  0
  186.3000  177.6210  141.2780 C   0  0  0  0  0  3  0  0  0  0  0  0
  190.1920  171.8980  138.8910 C   0  0  1  0  0  3  0  0  0  0  0  0
  192.2270  173.3430  139.1730 C   0  0  0  0  0  2  0  0  0  0  0  0
  192.2290  170.5350  141.8630 C   0  0  0  0  0  1  0  0  0  0  0  0
  188.8220  171.9130  138.6370 O   0  0  0  0  0  1  0  0  0  0  0  0
  190.7260  173.3280  138.8800 C   0  0  0  0  0  2  0  0  0  0  0  0
  191.9490  171.2410  140.5490 C   0  0  2  0  0  3  0  0  0  0  0  0
  192.5480  172.6600  140.5060 C   0  0  2  0  0  3  0  0  0  0  0  0
  190.4510  171.2430  140.2450 C   0  0  0  0  0  2  0  0  0  0  0  0
  1 11  1  0  0  0  0
  2  7  1  0  0  0  0
  3  2  1  0  0  0  0
  3  9  1  0  0  0  0
  5 16  1  0  0  0  0
  5  4  2  0  0  0  0
  6  9  2  0  0  0  0
  6 13  1  0  0  0  0
  7 17  1  0  0  0  0
  8  1  1  0  0  0  0
 10 15  1  0  0  0  0
 10 14  2  0  0  0  0
 12 22  1  0  0  0  0
 12 21  1  0  0  0  0
 14 19  1  0  0  0  0
 15 21  1  6  0  0  0
 15  2  1  0  0  0  0
 16 10  1  0  0  0  0
 17  1  2  0  0  0  0
 18  6  1  0  0  0  0
 19  7  2  0  0  0  0
 19 20  1  0  0  0  0
 20  8  2  0  0  0  0
 22  3  2  0  0  0  0
 23 22  1  0  0  0  0
 23 18  2  0  0  0  0
 24 27  1  1  0  0  0
 24 31  1  0  0  0  0
 25 30  1  0  0  0  0
 28 24  1  0  0  0  0
 28 25  1  0  0  0  0
 29 26  1  1  0  0  0
 30 29  1  0  0  0  0
 30  5  1  1  0  0  0
 31 29  1  0  0  0  0
M  END
>  <MODEL>
7

>  <REMARK>
 VINA RESULT:      -7.8      3.090      5.463
  Name = 
  1 active torsions:
  status: ('A' for Active; 'I' for Inactive)
    1  A    between atoms: C_5  and  C_30
                            x       y       z     vdW  Elec       q    Type
                         _______ _______ _______ _____ _____    ______ ____

>  <TORSDO>
F 1

$$$$
=
 OpenBabel11112416533D

 31 35  0  0  1  0  0  0  0  0999 V2000
  186.7650  177.8070  144.9870 C   0  0  0  0  0  0  0  0  0  0  0  0
  190.0030  176.2870  143.8080 N   0  0  0  0  0  0  0  0  0  0  0  0
  190.8690  176.0980  144.9540 C   0  0  0  0  0  0  0  0  0  0  0  0
  187.8160  172.8920  140.4450 O   0  0  0  0  0  0  0  0  0  0  0  0
  189.0520  172.9660  140.2100 C   0  0  0  0  0  0  0  0  0  0  0  0
  191.4910  176.5710  147.2600 C   0  0  0  0  0  0  0  0  0  0  0  0
  188.6030  176.6110  143.9470 C   0  0  0  0  0  0  0  0  0  0  0  0
  185.8580  177.1380  144.1600 C   0  0  0  0  0  3  0  0  0  0  0  0
  190.6430  176.7690  146.1670 C   0  0  0  0  0  3  0  0  0  0  0  0
  189.4320  174.8800  141.8640 C   0  0  0  0  0  0  0  0  0  0  0  0
  186.3170  178.7050  145.8960 F   0  0  0  0  0  0  0  0  0  0  0  0
  192.2050  174.4660  143.5960 C   0  0  0  0  0  2  0  0  0  0  0  0
  191.1910  177.4160  148.7630 Cl  0  0  0  0  0  0  0  0  0  0  0  0
  188.1650  175.0060  142.1420 N   0  0  0  0  0  0  0  0  0  0  0  0
  190.4280  175.8500  142.4600 C   0  0  2  0  0  3  0  0  0  0  0  0
  189.8730  173.9290  140.8850 N   0  0  0  0  0  2  0  0  0  0  0  0
  188.1330  177.5430  144.8840 C   0  0  0  0  0  3  0  0  0  0  0  0
  192.5740  175.6960  147.1550 C   0  0  0  0  0  3  0  0  0  0  0  0
  187.6880  175.9570  143.1030 C   0  0  0  0  0  0  0  0  0  0  0  0
  186.3170  176.2130  143.2190 C   0  0  0  0  0  3  0  0  0  0  0  0
  191.8800  175.3510  142.4050 C   0  0  0  0  0  2  0  0  0  0  0  0
  191.9710  175.2270  144.8560 C   0  0  0  0  0  0  0  0  0  0  0  0
  192.8100  175.0210  145.9550 C   0  0  0  0  0  3  0  0  0  0  0  0
  192.5690  172.4570  138.9180 C   0  0  1  0  0  3  0  0  0  0  0  0
  190.6990  171.0990  139.9000 C   0  0  0  0  0  2  0  0  0  0  0  0
  189.2710  173.6030  137.2890 C   0  0  0  0  0  1  0  0  0  0  0  0
  193.7420  173.1470  139.2160 O   0  0  0  0  0  1  0  0  0  0  0  0
  191.9970  171.8490  140.1960 C   0  0  0  0  0  2  0  0  0  0  0  0
  190.2610  172.6780  137.9750 C   0  0  2  0  0  3  0  0  0  0  0  0
  189.6640  172.0070  139.2270 C   0  0  2  0  0  3  0  0  0  0  0  0
  191.5630  173.4160  138.2870 C   0  0  0  0  0  2  0  0  0  0  0  0
  1 11  1  0  0  0  0
  2  7  1  0  0  0  0
  2  3  1  0  0  0  0
  3  9  1  0  0  0  0
  5  4  2  0  0  0  0
  5 16  1  0  0  0  0
  6 13  1  0  0  0  0
  7 17  2  0  0  0  0
  8  1  2  0  0  0  0
  9  6  2  0  0  0  0
 10 14  2  0  0  0  0
 10 15  1  0  0  0  0
 12 22  1  0  0  0  0
 14 19  1  0  0  0  0
 15 21  1  1  0  0  0
 15  2  1  0  0  0  0
 16 10  1  0  0  0  0
 17  1  1  0  0  0  0
 18  6  1  0  0  0  0
 19 20  2  0  0  0  0
 19  7  1  0  0  0  0
 20  8  1  0  0  0  0
 21 12  1  0  0  0  0
 22  3  2  0  0  0  0
 22 23  1  0  0  0  0
 23 18  2  0  0  0  0
 24 27  1  1  0  0  0
 24 28  1  0  0  0  0
 25 28  1  0  0  0  0
 29 26  1  1  0  0  0
 29 31  1  0  0  0  0
 29 30  1  0  0  0  0
 30 25  1  0  0  0  0
 30  5  1  1  0  0  0
 31 24  1  0  0  0  0
M  END
>  <MODEL>
8

>  <REMARK>
 VINA RESULT:      -7.8      3.379      5.432
  Name = 
  1 active torsions:
  status: ('A' for Active; 'I' for Inactive)
    1  A    between atoms: C_5  and  C_30
                            x       y       z     vdW  Elec       q    Type
                         _______ _______ _______ _____ _____    ______ ____

>  <TORSDO>
F 1

$$$$
=
 OpenBabel11112416533D

 31 35  0  0  1  0  0  0  0  0999 V2000
  191.4210  172.0550  141.5880 C   0  0  0  0  0  0  0  0  0  0  0  0
  190.4120  174.6180  144.1560 N   0  0  0  0  0  0  0  0  0  0  0  0
  191.5760  174.9630  144.9460 C   0  0  0  0  0  0  0  0  0  0  0  0
  187.3730  177.4480  140.9350 O   0  0  0  0  0  0  0  0  0  0  0  0
  187.1400  177.7880  142.1250 C   0  0  0  0  0  0  0  0  0  0  0  0
  193.8300  174.5000  145.7400 C   0  0  0  0  0  0  0  0  0  0  0  0
  190.5110  173.8590  142.9320 C   0  0  0  0  0  0  0  0  0  0  0  0
  190.6560  172.4780  140.4970 C   0  0  0  0  0  3  0  0  0  0  0  0
  192.7190  174.1480  144.9720 C   0  0  0  0  0  3  0  0  0  0  0  0
  188.6070  175.9470  143.1260 C   0  0  0  0  0  0  0  0  0  0  0  0
  192.2380  170.9820  141.4660 F   0  0  0  0  0  0  0  0  0  0  0  0
  190.3880  177.0510  145.6700 C   0  0  0  0  0  2  0  0  0  0  0  0
  195.2440  173.4690  145.7570 Cl  0  0  0  0  0  0  0  0  0  0  0  0
  188.8640  175.4040  141.9700 N   0  0  0  0  0  0  0  0  0  0  0  0
  189.1150  175.2890  144.3900 C   0  0  2  0  0  3  0  0  0  0  0  0
  187.7250  177.0740  143.2230 N   0  0  0  0  0  2  0  0  0  0  0  0
  191.3520  172.7450  142.8010 C   0  0  0  0  0  3  0  0  0  0  0  0
  193.8150  175.6770  146.4910 C   0  0  0  0  0  3  0  0  0  0  0  0
  189.7270  174.2670  141.8380 C   0  0  0  0  0  0  0  0  0  0  0  0
  189.8100  173.5830  140.6200 C   0  0  0  0  0  3  0  0  0  0  0  0
  189.1160  176.2220  145.6110 C   0  0  0  0  0  2  0  0  0  0  0  0
  191.5680  176.1420  145.7170 C   0  0  0  0  0  0  0  0  0  0  0  0
  192.6860  176.5000  146.4750 C   0  0  0  0  0  3  0  0  0  0  0  0
  184.7100  178.6750  144.8830 C   0  0  1  0  0  3  0  0  0  0  0  0
  186.6540  179.7030  143.6710 C   0  0  0  0  0  2  0  0  0  0  0  0
  184.3160  177.9190  141.1260 C   0  0  0  0  0  1  0  0  0  0  0  0
  184.3380  177.9540  146.0160 O   0  0  0  0  0  1  0  0  0  0  0  0
  186.2150  178.9260  144.9130 C   0  0  0  0  0  2  0  0  0  0  0  0
  184.7480  178.6570  142.3800 C   0  0  2  0  0  3  0  0  0  0  0  0
  186.2560  178.9760  142.3820 C   0  0  2  0  0  3  0  0  0  0  0  0
  184.3250  177.8900  143.6320 C   0  0  0  0  0  2  0  0  0  0  0  0
  1 17  1  0  0  0  0
  2 15  1  0  0  0  0
  2  3  1  0  0  0  0
  3  9  2  0  0  0  0
  3 22  1  0  0  0  0
  4  5  2  0  0  0  0
  5 16  1  0  0  0  0
  6 13  1  0  0  0  0
  6 18  2  0  0  0  0
  7  2  1  0  0  0  0
  8 20  1  0  0  0  0
  8  1  2  0  0  0  0
  9  6  1  0  0  0  0
 10 16  1  0  0  0  0
 10 15  1  0  0  0  0
 11  1  1  0  0  0  0
 12 22  1  0  0  0  0
 14 10  2  0  0  0  0
 15 21  1  1  0  0  0
 17  7  2  0  0  0  0
 19 14  1  0  0  0  0
 19  7  1  0  0  0  0
 20 19  2  0  0  0  0
 21 12  1  0  0  0  0
 22 23  2  0  0  0  0
 23 18  1  0  0  0  0
 24 28  1  0  0  0  0
 24 27  1  1  0  0  0
 25 28  1  0  0  0  0
 29 26  1  6  0  0  0
 29 30  1  0  0  0  0
 29 31  1  0  0  0  0
 30  5  1  1  0  0  0
 30 25  1  0  0  0  0
 31 24  1  0  0  0  0
M  END
>  <MODEL>
9

>  <REMARK>
 VINA RESULT:      -7.7      3.925      7.282
  Name = 
  1 active torsions:
  status: ('A' for Active; 'I' for Inactive)
    1  A    between atoms: C_5  and  C_30
                            x       y       z     vdW  Elec       q    Type
                         _______ _______ _______ _____ _____    ______ ____

>  <TORSDO>
F 1

$$$$
