=
 OpenBabel11112417253D

 37 43  0  0  1  0  0  0  0  0999 V2000
  190.0470  174.0350  141.3320 O   0  0  0  0  0  0  0  0  0  0  0  0
  186.7040  177.3000  143.1440 C   0  0  0  0  0  0  0  0  0  0  0  0
  190.0570  176.0510  145.3100 C   0  0  0  0  0  0  0  0  0  0  0  0
  189.7190  172.9320  140.5250 C   0  0  2  0  0  3  0  0  0  0  0  0
  192.6920  174.4820  143.2450 C   0  0  0  0  0  2  0  0  0  0  0  0
  188.0610  177.4360  145.3100 C   0  0  0  0  0  0  0  0  0  0  0  0
  190.5980  175.0730  144.5430 N   0  0  0  0  0  0  0  0  0  0  0  0
  192.1400  172.1120  140.4530 C   0  0  0  0  0  0  0  0  0  0  0  0
  188.9050  176.5070  144.7390 C   0  0  0  0  0  0  0  0  0  0  0  0
  191.9690  174.5980  144.5650 C   0  0  0  0  0  0  0  0  0  0  0  0
  188.4120  177.9270  146.5760 C   0  0  0  0  0  3  0  0  0  0  0  0
  190.6990  171.7590  140.7050 C   0  0  0  0  0  2  0  0  0  0  0  0
  188.6580  175.8030  143.6160 C   0  0  0  0  0  0  0  0  0  0  0  0
  187.4040  178.3530  142.3000 C   0  0  0  0  0  1  0  0  0  0  0  0
  191.3800  175.7850  147.4320 C   0  0  0  0  0  3  0  0  0  0  0  0
  189.5750  177.4380  147.2170 C   0  0  0  0  0  3  0  0  0  0  0  0
  187.3560  175.9160  142.8820 C   0  0  0  0  0  2  0  0  0  0  0  0
  192.8030  173.2400  141.1830 C   0  0  1  0  0  3  0  0  0  0  0  0
  192.6150  173.0940  142.6450 C   0  0  1  0  0  3  0  0  0  0  0  0
  190.4040  176.4740  146.5970 C   0  0  0  0  0  0  0  0  0  0  0  0
  189.6940  174.8850  143.5270 C   0  0  0  0  0  0  0  0  0  0  0  0
  186.7430  177.7310  144.6380 C   0  0  0  0  0  2  0  0  0  0  0  0
  192.7020  174.4650  145.7020 C   0  0  0  0  0  0  0  0  0  0  0  0
  185.2570  177.2350  142.7040 C   0  0  0  0  0  1  0  0  0  0  0  0
  193.8300  172.7610  142.0160 O   0  0  0  0  0  0  0  0  0  0  0  0
  192.7750  171.4740  139.6300 O   0  0  0  0  0  0  0  0  0  0  0  0
  189.6480  173.6930  142.6270 C   0  0  0  0  0  2  0  0  0  0  0  0
  192.3170  174.9240  147.0510 C   0  0  0  0  0  3  0  0  0  0  0  0
  195.1910  174.6900  145.6890 C   0  0  0  0  0  3  0  0  0  0  0  0
  194.0550  173.8660  145.6590 C   0  0  0  0  0  0  0  0  0  0  0  0
  194.2160  172.4740  145.6320 C   0  0  0  0  0  3  0  0  0  0  0  0
  195.6490  170.4980  145.5730 N   0  0  0  0  0  1  0  0  0  0  0  0
  196.6210  172.7370  145.6290 C   0  0  0  0  0  3  0  0  0  0  0  0
  195.4950  171.9110  145.6110 C   0  0  0  0  0  0  0  0  0  0  0  0
  196.4690  174.1270  145.6700 C   0  0  0  0  0  3  0  0  0  0  0  0
  188.3830  174.1550  138.8140 C   0  0  0  0  0  1  0  0  0  0  0  0
  189.6440  173.3510  139.0650 C   0  0  0  0  0  2  0  0  0  0  0  0
  1 27  1  0  0  0  0
  2 22  1  0  0  0  0
  3 20  1  0  0  0  0
  4 37  1  6  0  0  0
  4 12  1  0  0  0  0
  4  1  1  0  0  0  0
  5 10  1  0  0  0  0
  6 11  2  0  0  0  0
  7 10  1  0  0  0  0
  7  3  1  0  0  0  0
  8 12  1  0  0  0  0
  9  3  2  0  0  0  0
  9  6  1  0  0  0  0
 10 23  2  0  0  0  0
 11 16  1  0  0  0  0
 13  9  1  0  0  0  0
 14  2  1  0  0  0  0
 17  2  1  0  0  0  0
 17 13  1  0  0  0  0
 18  8  1  6  0  0  0
 18 25  1  0  0  0  0
 18 19  1  0  0  0  0
 19  5  1  1  0  0  0
 20 16  2  0  0  0  0
 20 15  1  0  0  0  0
 21 13  2  0  0  0  0
 21  7  1  0  0  0  0
 22  6  1  0  0  0  0
 23 28  1  0  0  0  0
 24  2  1  0  0  0  0
 25 19  1  0  0  0  0
 26  8  2  0  0  0  0
 27 21  1  0  0  0  0
 28 15  2  0  0  0  0
 30 29  2  0  0  0  0
 30 23  1  0  0  0  0
 31 30  1  0  0  0  0
 32 34  1  0  0  0  0
 33 35  2  0  0  0  0
 34 33  1  0  0  0  0
 34 31  2  0  0  0  0
 35 29  1  0  0  0  0
 36 37  1  0  0  0  0
M  END
>  <MODEL>
1

>  <REMARK>
 VINA RESULT:      -9.2      0.000      0.000
  Name = 
  2 active torsions:
  status: ('A' for Active; 'I' for Inactive)
    1  A    between atoms: C_4  and  C_37
    2  A    between atoms: C_23  and  C_30
                            x       y       z     vdW  Elec       q    Type
                         _______ _______ _______ _____ _____    ______ ____

>  <TORSDO>
F 2

$$$$
=
 OpenBabel11112417253D

 37 43  0  0  1  0  0  0  0  0999 V2000
  192.2650  175.5020  145.4000 O   0  0  0  0  0  0  0  0  0  0  0  0
  193.3810  173.2720  141.0530 C   0  0  0  0  0  0  0  0  0  0  0  0
  189.5700  174.7560  141.9260 C   0  0  0  0  0  0  0  0  0  0  0  0
  192.7850  175.1110  146.6460 C   0  0  2  0  0  3  0  0  0  0  0  0
  189.4890  177.1490  144.7440 C   0  0  0  0  0  2  0  0  0  0  0  0
  190.9630  173.6240  140.2900 C   0  0  0  0  0  0  0  0  0  0  0  0
  189.6510  175.1260  143.2280 N   0  0  0  0  0  0  0  0  0  0  0  0
  191.3920  176.8470  147.9060 C   0  0  0  0  0  0  0  0  0  0  0  0
  190.7450  174.1900  141.5290 C   0  0  0  0  0  0  0  0  0  0  0  0
  188.8080  176.0790  143.9240 C   0  0  0  0  0  0  0  0  0  0  0  0
  189.8870  173.6190  139.3900 C   0  0  0  0  0  3  0  0  0  0  0  0
  191.8170  175.4060  147.8060 C   0  0  0  0  0  2  0  0  0  0  0  0
  191.5920  174.1440  142.5770 C   0  0  0  0  0  0  0  0  0  0  0  0
  194.0080  174.5930  140.6360 C   0  0  0  0  0  1  0  0  0  0  0  0
  187.0930  174.9400  141.5300 C   0  0  0  0  0  3  0  0  0  0  0  0
  188.6400  174.1550  139.7900 C   0  0  0  0  0  3  0  0  0  0  0  0
  192.8820  173.3810  142.5180 C   0  0  0  0  0  2  0  0  0  0  0  0
  190.7730  177.5570  146.7420 C   0  0  1  0  0  3  0  0  0  0  0  0
  189.6330  176.7780  146.2050 C   0  0  1  0  0  3  0  0  0  0  0  0
  188.4600  174.7130  141.0770 C   0  0  0  0  0  0  0  0  0  0  0  0
  190.8870  174.6880  143.6380 C   0  0  0  0  0  0  0  0  0  0  0  0
  192.2600  172.8950  140.0410 C   0  0  0  0  0  2  0  0  0  0  0  0
  187.4710  176.2020  143.7080 C   0  0  0  0  0  0  0  0  0  0  0  0
  194.4540  172.2060  140.9940 C   0  0  0  0  0  1  0  0  0  0  0  0
  189.4400  177.9090  147.0210 O   0  0  0  0  0  0  0  0  0  0  0  0
  191.5660  177.4480  148.9530 O   0  0  0  0  0  0  0  0  0  0  0  0
  191.3150  174.5350  145.0620 C   0  0  0  0  0  2  0  0  0  0  0  0
  186.6910  175.5370  142.6460 C   0  0  0  0  0  3  0  0  0  0  0  0
  186.2650  176.7380  145.8290 C   0  0  0  0  0  3  0  0  0  0  0  0
  186.6570  177.1180  144.5370 C   0  0  0  0  0  0  0  0  0  0  0  0
  186.3050  178.3880  144.0570 C   0  0  0  0  0  3  0  0  0  0  0  0
  185.1910  180.5410  144.3520 N   0  0  0  0  0  1  0  0  0  0  0  0
  185.1560  178.8690  146.1320 C   0  0  0  0  0  3  0  0  0  0  0  0
  185.5520  179.2580  144.8500 C   0  0  0  0  0  0  0  0  0  0  0  0
  185.5140  177.6100  146.6220 C   0  0  0  0  0  3  0  0  0  0  0  0
  194.4620  176.7200  145.7490 C   0  0  0  0  0  1  0  0  0  0  0  0
  194.1310  175.7750  146.8880 C   0  0  0  0  0  2  0  0  0  0  0  0
  1  4  1  0  0  0  0
  2 17  1  0  0  0  0
  3  7  1  0  0  0  0
  4 37  1  1  0  0  0
  4 12  1  0  0  0  0
  6  9  2  0  0  0  0
  7 21  1  0  0  0  0
  7 10  1  0  0  0  0
  8 26  2  0  0  0  0
  9  3  1  0  0  0  0
  9 13  1  0  0  0  0
 10  5  1  0  0  0  0
 11 16  2  0  0  0  0
 11  6  1  0  0  0  0
 12  8  1  0  0  0  0
 13 21  2  0  0  0  0
 14  2  1  0  0  0  0
 15 28  2  0  0  0  0
 16 20  1  0  0  0  0
 17 13  1  0  0  0  0
 18 25  1  1  0  0  0
 18  8  1  0  0  0  0
 19  5  1  6  0  0  0
 19 18  1  0  0  0  0
 19 25  1  0  0  0  0
 20 15  1  0  0  0  0
 20  3  2  0  0  0  0
 21 27  1  0  0  0  0
 22  6  1  0  0  0  0
 22  2  1  0  0  0  0
 23 10  2  0  0  0  0
 23 30  1  0  0  0  0
 24  2  1  0  0  0  0
 27  1  1  0  0  0  0
 28 23  1  0  0  0  0
 29 35  1  0  0  0  0
 30 29  2  0  0  0  0
 31 30  1  0  0  0  0
 31 34  2  0  0  0  0
 32 34  1  0  0  0  0
 33 35  2  0  0  0  0
 34 33  1  0  0  0  0
 36 37  1  0  0  0  0
M  END
>  <MODEL>
2

>  <REMARK>
 VINA RESULT:      -8.6      2.678      8.062
  Name = 
  2 active torsions:
  status: ('A' for Active; 'I' for Inactive)
    1  A    between atoms: C_4  and  C_37
    2  A    between atoms: C_23  and  C_30
                            x       y       z     vdW  Elec       q    Type
                         _______ _______ _______ _____ _____    ______ ____

>  <TORSDO>
F 2

$$$$
=
 OpenBabel11112417253D

 37 43  0  0  1  0  0  0  0  0999 V2000
  191.3390  172.7850  141.3610 O   0  0  0  0  0  0  0  0  0  0  0  0
  195.5710  172.8160  144.0460 C   0  0  0  0  0  0  0  0  0  0  0  0
  192.4050  175.4520  144.7730 C   0  0  0  0  0  0  0  0  0  0  0  0
  191.2810  172.5390  139.9790 C   0  0  2  0  0  3  0  0  0  0  0  0
  189.1960  174.4110  143.2620 C   0  0  0  0  0  2  0  0  0  0  0  0
  194.6360  174.7530  145.4350 C   0  0  0  0  0  0  0  0  0  0  0  0
  191.5450  175.2220  143.7510 N   0  0  0  0  0  0  0  0  0  0  0  0
  188.7570  172.9410  139.8920 C   0  0  0  0  0  0  0  0  0  0  0  0
  193.5250  174.6900  144.6190 C   0  0  0  0  0  0  0  0  0  0  0  0
  190.1240  175.5110  143.7190 C   0  0  0  0  0  0  0  0  0  0  0  0
  194.6060  175.6830  146.4840 C   0  0  0  0  0  3  0  0  0  0  0  0
  190.1030  173.2620  139.3000 C   0  0  0  0  0  2  0  0  0  0  0  0
  193.4300  173.9870  143.4720 C   0  0  0  0  0  0  0  0  0  0  0  0
  195.0010  171.6240  144.7970 C   0  0  0  0  0  1  0  0  0  0  0  0
  191.4050  177.5250  145.7850 C   0  0  0  0  0  3  0  0  0  0  0  0
  193.4780  176.5230  146.6420 C   0  0  0  0  0  3  0  0  0  0  0  0
  194.5930  173.2240  142.9120 C   0  0  0  0  0  2  0  0  0  0  0  0
  188.4870  173.1210  141.3540 C   0  0  1  0  0  3  0  0  0  0  0  0
  188.8640  174.4870  141.7860 C   0  0  1  0  0  3  0  0  0  0  0  0
  192.3680  176.4310  145.7700 C   0  0  0  0  0  0  0  0  0  0  0  0
  192.2140  174.3580  142.9190 C   0  0  0  0  0  0  0  0  0  0  0  0
  195.8650  173.9640  145.0550 C   0  0  0  0  0  2  0  0  0  0  0  0
  189.5670  176.6190  144.2760 C   0  0  0  0  0  0  0  0  0  0  0  0
  196.8790  172.3910  143.4150 C   0  0  0  0  0  1  0  0  0  0  0  0
  187.5220  174.1230  141.5640 O   0  0  0  0  0  0  0  0  0  0  0  0
  187.8740  172.5140  139.1660 O   0  0  0  0  0  0  0  0  0  0  0  0
  191.8500  174.0790  141.4970 C   0  0  0  0  0  2  0  0  0  0  0  0
  190.2510  177.6070  145.1330 C   0  0  0  0  0  3  0  0  0  0  0  0
  187.2200  176.6000  145.1330 C   0  0  0  0  0  3  0  0  0  0  0  0
  188.1250  176.9040  144.1040 C   0  0  0  0  0  0  0  0  0  0  0  0
  187.6550  177.5160  142.9330 C   0  0  0  0  0  3  0  0  0  0  0  0
  185.8260  178.4130  141.5880 N   0  0  0  0  0  1  0  0  0  0  0  0
  185.3980  177.4860  143.8060 C   0  0  0  0  0  3  0  0  0  0  0  0
  186.2950  177.8010  142.7830 C   0  0  0  0  0  0  0  0  0  0  0  0
  185.8610  176.8880  144.9820 C   0  0  0  0  0  3  0  0  0  0  0  0
  191.1120  170.2810  141.0190 C   0  0  0  0  0  1  0  0  0  0  0  0
  191.2180  171.0430  139.7120 C   0  0  0  0  0  2  0  0  0  0  0  0
  1 27  1  0  0  0  0
  2 14  1  0  0  0  0
  2 22  1  0  0  0  0
  3 20  1  0  0  0  0
  4 37  1  1  0  0  0
  4  1  1  0  0  0  0
  5 10  1  0  0  0  0
  6 11  2  0  0  0  0
  7  3  1  0  0  0  0
  9  3  2  0  0  0  0
  9  6  1  0  0  0  0
 10  7  1  0  0  0  0
 10 23  2  0  0  0  0
 11 16  1  0  0  0  0
 12  8  1  0  0  0  0
 12  4  1  0  0  0  0
 13  9  1  0  0  0  0
 17 13  1  0  0  0  0
 17  2  1  0  0  0  0
 18  8  1  6  0  0  0
 18 25  1  0  0  0  0
 18 19  1  0  0  0  0
 19  5  1  1  0  0  0
 20 15  1  0  0  0  0
 20 16  2  0  0  0  0
 21 13  2  0  0  0  0
 21  7  1  0  0  0  0
 22  6  1  0  0  0  0
 23 28  1  0  0  0  0
 24  2  1  0  0  0  0
 25 19  1  0  0  0  0
 26  8  2  0  0  0  0
 27 21  1  0  0  0  0
 28 15  2  0  0  0  0
 30 23  1  0  0  0  0
 30 29  2  0  0  0  0
 31 30  1  0  0  0  0
 32 34  1  0  0  0  0
 33 35  2  0  0  0  0
 34 31  2  0  0  0  0
 34 33  1  0  0  0  0
 35 29  1  0  0  0  0
 37 36  1  0  0  0  0
M  END
>  <MODEL>
3

>  <REMARK>
 VINA RESULT:      -8.5      1.809      6.763
  Name = 
  2 active torsions:
  status: ('A' for Active; 'I' for Inactive)
    1  A    between atoms: C_4  and  C_37
    2  A    between atoms: C_23  and  C_30
                            x       y       z     vdW  Elec       q    Type
                         _______ _______ _______ _____ _____    ______ ____

>  <TORSDO>
F 2

$$$$
=
 OpenBabel11112417253D

 37 43  0  0  1  0  0  0  0  0999 V2000
  191.4820  172.3670  141.2050 O   0  0  0  0  0  0  0  0  0  0  0  0
  195.8630  171.8510  143.5840 C   0  0  0  0  0  0  0  0  0  0  0  0
  193.1340  174.8870  144.4920 C   0  0  0  0  0  0  0  0  0  0  0  0
  191.2920  172.1230  139.8330 C   0  0  2  0  0  3  0  0  0  0  0  0
  189.7150  174.2740  143.2270 C   0  0  0  0  0  2  0  0  0  0  0  0
  195.2940  173.9020  145.0060 C   0  0  0  0  0  0  0  0  0  0  0  0
  192.1790  174.7690  143.5370 N   0  0  0  0  0  0  0  0  0  0  0  0
  188.8440  172.8560  139.9190 C   0  0  0  0  0  0  0  0  0  0  0  0
  194.1290  173.9830  144.2710 C   0  0  0  0  0  0  0  0  0  0  0  0
  190.8110  175.2430  143.6010 C   0  0  0  0  0  0  0  0  0  0  0  0
  195.4630  174.8340  146.0410 C   0  0  0  0  0  3  0  0  0  0  0  0
  190.1750  172.9930  139.2290 C   0  0  0  0  0  2  0  0  0  0  0  0
  193.8590  173.2920  143.1450 C   0  0  0  0  0  0  0  0  0  0  0  0
  195.1960  170.7480  144.3900 C   0  0  0  0  0  1  0  0  0  0  0  0
  192.4920  177.0810  145.5410 C   0  0  0  0  0  3  0  0  0  0  0  0
  194.4710  175.8160  146.2640 C   0  0  0  0  0  3  0  0  0  0  0  0
  194.8680  172.3780  142.5160 C   0  0  0  0  0  2  0  0  0  0  0  0
  188.7060  173.0790  141.3930 C   0  0  1  0  0  3  0  0  0  0  0  0
  189.2900  174.3850  141.7770 C   0  0  1  0  0  3  0  0  0  0  0  0
  193.2980  175.8680  145.4750 C   0  0  0  0  0  0  0  0  0  0  0  0
  192.6670  173.8180  142.6730 C   0  0  0  0  0  0  0  0  0  0  0  0
  196.3780  172.9550  144.5520 C   0  0  0  0  0  2  0  0  0  0  0  0
  190.4460  176.4190  144.1790 C   0  0  0  0  0  0  0  0  0  0  0  0
  197.0550  171.2510  142.8680 C   0  0  0  0  0  1  0  0  0  0  0  0
  187.9000  174.2010  141.6560 O   0  0  0  0  0  0  0  0  0  0  0  0
  187.8630  172.5460  139.2630 O   0  0  0  0  0  0  0  0  0  0  0  0
  192.1680  173.5830  141.2850 C   0  0  0  0  0  2  0  0  0  0  0  0
  191.3150  177.3110  144.9710 C   0  0  0  0  0  3  0  0  0  0  0  0
  188.6170  177.6540  143.0080 C   0  0  0  0  0  3  0  0  0  0  0  0
  189.0460  176.8910  144.1050 C   0  0  0  0  0  0  0  0  0  0  0  0
  188.1250  176.5470  145.1050 C   0  0  0  0  0  3  0  0  0  0  0  0
  185.8740  176.6330  146.0460 N   0  0  0  0  0  1  0  0  0  0  0  0
  186.3810  177.7470  143.9330 C   0  0  0  0  0  3  0  0  0  0  0  0
  186.7990  176.9780  145.0220 C   0  0  0  0  0  0  0  0  0  0  0  0
  187.2890  178.0820  142.9250 C   0  0  0  0  0  3  0  0  0  0  0  0
  191.0130  169.8940  140.9110 C   0  0  0  0  0  1  0  0  0  0  0  0
  191.0140  170.6480  139.5950 C   0  0  0  0  0  2  0  0  0  0  0  0
  1 27  1  0  0  0  0
  2 14  1  0  0  0  0
  2 22  1  0  0  0  0
  3 20  1  0  0  0  0
  4 37  1  1  0  0  0
  4  1  1  0  0  0  0
  5 10  1  0  0  0  0
  6 11  2  0  0  0  0
  7 10  1  0  0  0  0
  7  3  1  0  0  0  0
  9  3  2  0  0  0  0
  9  6  1  0  0  0  0
 10 23  2  0  0  0  0
 11 16  1  0  0  0  0
 12  4  1  0  0  0  0
 12  8  1  0  0  0  0
 13  9  1  0  0  0  0
 17 13  1  0  0  0  0
 17  2  1  0  0  0  0
 18  8  1  6  0  0  0
 18 25  1  0  0  0  0
 18 19  1  0  0  0  0
 19  5  1  1  0  0  0
 20 15  1  0  0  0  0
 20 16  2  0  0  0  0
 21 13  2  0  0  0  0
 21  7  1  0  0  0  0
 22  6  1  0  0  0  0
 23 28  1  0  0  0  0
 24  2  1  0  0  0  0
 25 19  1  0  0  0  0
 26  8  2  0  0  0  0
 27 21  1  0  0  0  0
 28 15  2  0  0  0  0
 29 30  1  0  0  0  0
 30 23  1  0  0  0  0
 30 31  2  0  0  0  0
 33 34  2  0  0  0  0
 34 31  1  0  0  0  0
 34 32  1  0  0  0  0
 35 29  2  0  0  0  0
 35 33  1  0  0  0  0
 37 36  1  0  0  0  0
M  END
>  <MODEL>
4

>  <REMARK>
 VINA RESULT:      -8.2      1.799      6.741
  Name = 
  2 active torsions:
  status: ('A' for Active; 'I' for Inactive)
    1  A    between atoms: C_4  and  C_37
    2  A    between atoms: C_23  and  C_30
                            x       y       z     vdW  Elec       q    Type
                         _______ _______ _______ _____ _____    ______ ____

>  <TORSDO>
F 2

$$$$
=
 OpenBabel11112417253D

 37 43  0  0  1  0  0  0  0  0999 V2000
  189.4350  175.5290  145.3100 O   0  0  0  0  0  0  0  0  0  0  0  0
  185.5860  178.6780  145.9300 C   0  0  0  0  0  0  0  0  0  0  0  0
  186.5550  176.9830  142.2310 C   0  0  0  0  0  0  0  0  0  0  0  0
  190.6660  175.6430  145.9780 C   0  0  2  0  0  3  0  0  0  0  0  0
  188.7640  174.0270  142.4560 C   0  0  0  0  0  2  0  0  0  0  0  0
  185.0560  178.4680  143.4340 C   0  0  0  0  0  0  0  0  0  0  0  0
  187.7240  176.3360  142.4620 N   0  0  0  0  0  0  0  0  0  0  0  0
  191.6680  173.6520  144.7240 C   0  0  0  0  0  0  0  0  0  0  0  0
  186.1560  177.6400  143.3570 C   0  0  0  0  0  0  0  0  0  0  0  0
  188.2870  175.2410  141.6960 C   0  0  0  0  0  0  0  0  0  0  0  0
  184.3130  178.6550  142.2590 C   0  0  0  0  0  3  0  0  0  0  0  0
  191.8390  175.0860  145.1510 C   0  0  0  0  0  2  0  0  0  0  0  0
  187.0800  177.4660  144.3230 C   0  0  0  0  0  0  0  0  0  0  0  0
  184.8160  177.4920  146.4870 C   0  0  0  0  0  1  0  0  0  0  0  0
  186.4230  176.8540  139.7230 C   0  0  0  0  0  3  0  0  0  0  0  0
  184.7290  178.0270  141.0620 C   0  0  0  0  0  3  0  0  0  0  0  0
  187.0390  178.2420  145.6060 C   0  0  0  0  0  2  0  0  0  0  0  0
  190.4570  173.2080  143.9630 C   0  0  1  0  0  3  0  0  0  0  0  0
  190.2440  174.0690  142.7770 C   0  0  1  0  0  3  0  0  0  0  0  0
  185.8730  177.1960  141.0290 C   0  0  0  0  0  0  0  0  0  0  0  0
  188.0720  176.6910  143.7430 C   0  0  0  0  0  0  0  0  0  0  0  0
  184.8220  179.2530  144.7010 C   0  0  0  0  0  2  0  0  0  0  0  0
  188.2090  175.1490  140.3410 C   0  0  0  0  0  0  0  0  0  0  0  0
  185.6370  179.7470  147.0010 C   0  0  0  0  0  1  0  0  0  0  0  0
  190.8080  172.7830  142.6690 O   0  0  0  0  0  0  0  0  0  0  0  0
  192.5280  172.8380  145.0150 O   0  0  0  0  0  0  0  0  0  0  0  0
  189.4330  176.5330  144.3380 C   0  0  0  0  0  2  0  0  0  0  0  0
  187.4200  176.0200  139.4490 C   0  0  0  0  0  3  0  0  0  0  0  0
  188.1920  172.9320  139.1890 C   0  0  0  0  0  3  0  0  0  0  0  0
  188.9060  174.0610  139.6200 C   0  0  0  0  0  0  0  0  0  0  0  0
  190.2720  174.1660  139.3220 C   0  0  0  0  0  3  0  0  0  0  0  0
  192.3100  173.2550  138.3340 N   0  0  0  0  0  1  0  0  0  0  0  0
  190.2080  172.0190  138.2080 C   0  0  0  0  0  3  0  0  0  0  0  0
  190.9220  173.1460  138.6230 C   0  0  0  0  0  0  0  0  0  0  0  0
  188.8430  171.9130  138.4880 C   0  0  0  0  0  3  0  0  0  0  0  0
  189.1690  174.5410  147.6370 C   0  0  0  0  0  1  0  0  0  0  0  0
  190.5940  174.9620  147.3360 C   0  0  0  0  0  2  0  0  0  0  0  0
  1  4  1  0  0  0  0
  2 14  1  0  0  0  0
  2 24  1  0  0  0  0
  3  7  1  0  0  0  0
  3  9  1  0  0  0  0
  4 37  1  1  0  0  0
  6 22  1  0  0  0  0
  7 21  1  0  0  0  0
  8 26  2  0  0  0  0
  8 12  1  0  0  0  0
  9  6  2  0  0  0  0
  9 13  1  0  0  0  0
 10  5  1  0  0  0  0
 10  7  1  0  0  0  0
 11  6  1  0  0  0  0
 12  4  1  0  0  0  0
 13 17  1  0  0  0  0
 15 20  1  0  0  0  0
 16 11  2  0  0  0  0
 17  2  1  0  0  0  0
 18 25  1  6  0  0  0
 18  8  1  0  0  0  0
 19  5  1  6  0  0  0
 19 18  1  0  0  0  0
 20 16  1  0  0  0  0
 20  3  2  0  0  0  0
 21 13  2  0  0  0  0
 21 27  1  0  0  0  0
 22  2  1  0  0  0  0
 23 10  2  0  0  0  0
 25 19  1  0  0  0  0
 27  1  1  0  0  0  0
 28 15  2  0  0  0  0
 28 23  1  0  0  0  0
 29 30  1  0  0  0  0
 30 23  1  0  0  0  0
 31 30  2  0  0  0  0
 32 34  1  0  0  0  0
 33 35  1  0  0  0  0
 33 34  2  0  0  0  0
 34 31  1  0  0  0  0
 35 29  2  0  0  0  0
 37 36  1  0  0  0  0
M  END
>  <MODEL>
5

>  <REMARK>
 VINA RESULT:      -8.2      2.719      6.279
  Name = 
  2 active torsions:
  status: ('A' for Active; 'I' for Inactive)
    1  A    between atoms: C_4  and  C_37
    2  A    between atoms: C_23  and  C_30
                            x       y       z     vdW  Elec       q    Type
                         _______ _______ _______ _____ _____    ______ ____

>  <TORSDO>
F 2

$$$$
=
 OpenBabel11112417253D

 37 43  0  0  1  0  0  0  0  0999 V2000
  190.0270  174.5600  141.6030 O   0  0  0  0  0  0  0  0  0  0  0  0
  187.3440  176.9080  145.1240 C   0  0  0  0  0  0  0  0  0  0  0  0
  191.4280  176.1090  145.5430 C   0  0  0  0  0  0  0  0  0  0  0  0
  189.5420  173.5060  140.8100 C   0  0  2  0  0  3  0  0  0  0  0  0
  193.1430  175.3040  142.3690 C   0  0  0  0  0  2  0  0  0  0  0  0
  189.4500  177.0750  146.5710 C   0  0  0  0  0  0  0  0  0  0  0  0
  191.7250  175.3400  144.4670 N   0  0  0  0  0  0  0  0  0  0  0  0
  191.7970  173.1800  139.6500 C   0  0  0  0  0  0  0  0  0  0  0  0
  190.0940  176.3910  145.5600 C   0  0  0  0  0  0  0  0  0  0  0  0
  193.0290  175.1390  143.8650 C   0  0  0  0  0  0  0  0  0  0  0  0
  190.2290  177.4870  147.6620 C   0  0  0  0  0  3  0  0  0  0  0  0
  190.6540  172.5310  140.3810 C   0  0  0  0  0  2  0  0  0  0  0  0
  189.4960  175.7750  144.5200 C   0  0  0  0  0  0  0  0  0  0  0  0
  187.4820  178.1600  144.2730 C   0  0  0  0  0  1  0  0  0  0  0  0
  193.5380  175.8800  146.8920 C   0  0  0  0  0  3  0  0  0  0  0  0
  191.6060  177.1670  147.6970 C   0  0  0  0  0  3  0  0  0  0  0  0
  188.0040  175.7120  144.3900 C   0  0  0  0  0  2  0  0  0  0  0  0
  192.5480  174.3310  140.2460 C   0  0  1  0  0  3  0  0  0  0  0  0
  193.0080  173.9980  141.6140 C   0  0  1  0  0  3  0  0  0  0  0  0
  192.2200  176.4520  146.6430 C   0  0  0  0  0  0  0  0  0  0  0  0
  190.5120  175.0890  143.8720 C   0  0  0  0  0  0  0  0  0  0  0  0
  187.9450  177.1790  146.5340 C   0  0  0  0  0  2  0  0  0  0  0  0
  194.1810  175.0300  144.5800 C   0  0  0  0  0  0  0  0  0  0  0  0
  185.8680  176.6120  145.2850 C   0  0  0  0  0  1  0  0  0  0  0  0
  193.8830  173.9750  140.5100 O   0  0  0  0  0  0  0  0  0  0  0  0
  192.1090  172.7670  138.5450 O   0  0  0  0  0  0  0  0  0  0  0  0
  190.2540  174.0130  142.8690 C   0  0  0  0  0  2  0  0  0  0  0  0
  194.3360  175.2610  146.0290 C   0  0  0  0  0  3  0  0  0  0  0  0
  196.2970  175.7450  143.4610 C   0  0  0  0  0  3  0  0  0  0  0  0
  195.4580  174.7120  143.9040 C   0  0  0  0  0  0  0  0  0  0  0  0
  195.8620  173.3790  143.7390 C   0  0  0  0  0  3  0  0  0  0  0  0
  197.4770  171.7280  142.9470 N   0  0  0  0  0  1  0  0  0  0  0  0
  197.9040  174.1170  142.6690 C   0  0  0  0  0  3  0  0  0  0  0  0
  197.0790  173.0830  143.1190 C   0  0  0  0  0  0  0  0  0  0  0  0
  197.5140  175.4480  142.8420 C   0  0  0  0  0  3  0  0  0  0  0  0
  188.1940  172.9200  138.7970 C   0  0  0  0  0  1  0  0  0  0  0  0
  188.8100  174.0540  139.5950 C   0  0  0  0  0  2  0  0  0  0  0  0
  1 27  1  0  0  0  0
  2 24  1  0  0  0  0
  2 22  1  0  0  0  0
  3  9  2  0  0  0  0
  3 20  1  0  0  0  0
  4 37  1  6  0  0  0
  4  1  1  0  0  0  0
  5 10  1  0  0  0  0
  6 11  2  0  0  0  0
  7  3  1  0  0  0  0
  8 12  1  0  0  0  0
  9  6  1  0  0  0  0
 10  7  1  0  0  0  0
 10 23  2  0  0  0  0
 11 16  1  0  0  0  0
 12  4  1  0  0  0  0
 13  9  1  0  0  0  0
 14  2  1  0  0  0  0
 17 13  1  0  0  0  0
 17  2  1  0  0  0  0
 18  8  1  6  0  0  0
 18 25  1  0  0  0  0
 18 19  1  0  0  0  0
 19  5  1  1  0  0  0
 20 15  1  0  0  0  0
 20 16  2  0  0  0  0
 21  7  1  0  0  0  0
 21 13  2  0  0  0  0
 22  6  1  0  0  0  0
 23 28  1  0  0  0  0
 25 19  1  0  0  0  0
 26  8  2  0  0  0  0
 27 21  1  0  0  0  0
 28 15  2  0  0  0  0
 29 30  1  0  0  0  0
 30 23  1  0  0  0  0
 31 30  2  0  0  0  0
 32 34  1  0  0  0  0
 33 35  1  0  0  0  0
 33 34  2  0  0  0  0
 34 31  1  0  0  0  0
 35 29  2  0  0  0  0
 36 37  1  0  0  0  0
M  END
>  <MODEL>
6

>  <REMARK>
 VINA RESULT:      -8.1      1.614      2.004
  Name = 
  2 active torsions:
  status: ('A' for Active; 'I' for Inactive)
    1  A    between atoms: C_4  and  C_37
    2  A    between atoms: C_23  and  C_30
                            x       y       z     vdW  Elec       q    Type
                         _______ _______ _______ _____ _____    ______ ____

>  <TORSDO>
F 2

$$$$
=
 OpenBabel11112417253D

 37 43  0  0  1  0  0  0  0  0999 V2000
  189.6010  174.6020  142.0090 O   0  0  0  0  0  0  0  0  0  0  0  0
  186.6300  177.2890  145.0220 C   0  0  0  0  0  0  0  0  0  0  0  0
  190.6360  176.4840  145.9180 C   0  0  0  0  0  0  0  0  0  0  0  0
  189.1760  173.4860  141.2680 C   0  0  2  0  0  3  0  0  0  0  0  0
  192.6410  175.3770  143.0160 C   0  0  0  0  0  2  0  0  0  0  0  0
  188.5850  177.5610  146.6520 C   0  0  0  0  0  0  0  0  0  0  0  0
  191.0220  175.6180  144.9490 N   0  0  0  0  0  0  0  0  0  0  0  0
  191.5280  173.0320  140.3740 C   0  0  0  0  0  0  0  0  0  0  0  0
  189.3130  176.7820  145.7760 C   0  0  0  0  0  0  0  0  0  0  0  0
  192.3750  175.3490  144.5020 C   0  0  0  0  0  0  0  0  0  0  0  0
  189.2610  178.0620  147.7740 C   0  0  0  0  0  3  0  0  0  0  0  0
  190.3050  172.4640  141.0420 C   0  0  0  0  0  2  0  0  0  0  0  0
  188.8090  176.0810  144.7400 C   0  0  0  0  0  0  0  0  0  0  0  0
  186.8770  178.4560  144.0800 C   0  0  0  0  0  1  0  0  0  0  0  0
  192.5970  176.3550  147.4860 C   0  0  0  0  0  3  0  0  0  0  0  0
  190.6210  177.7310  147.9760 C   0  0  0  0  0  3  0  0  0  0  0  0
  187.3360  176.0230  144.4660 C   0  0  0  0  0  2  0  0  0  0  0  0
  192.2390  174.2240  140.9380 C   0  0  1  0  0  3  0  0  0  0  0  0
  192.5550  174.0100  142.3690 C   0  0  1  0  0  3  0  0  0  0  0  0
  191.3220  176.9160  147.0560 C   0  0  0  0  0  0  0  0  0  0  0  0
  189.8700  175.3290  144.2600 C   0  0  0  0  0  0  0  0  0  0  0  0
  187.0940  177.6780  146.4550 C   0  0  0  0  0  2  0  0  0  0  0  0
  193.4480  175.2920  145.3350 C   0  0  0  0  0  0  0  0  0  0  0  0
  185.1400  177.0250  145.0590 C   0  0  0  0  0  1  0  0  0  0  0  0
  193.5340  173.8780  141.3660 O   0  0  0  0  0  0  0  0  0  0  0  0
  191.9390  172.5170  139.3470 O   0  0  0  0  0  0  0  0  0  0  0  0
  189.6900  174.1690  143.3360 C   0  0  0  0  0  2  0  0  0  0  0  0
  193.4640  175.6510  146.7670 C   0  0  0  0  0  3  0  0  0  0  0  0
  195.1940  173.5610  144.8900 C   0  0  0  0  0  3  0  0  0  0  0  0
  194.7790  174.9000  144.8230 C   0  0  0  0  0  0  0  0  0  0  0  0
  195.6210  175.8510  144.2270 C   0  0  0  0  0  3  0  0  0  0  0  0
  197.7200  176.4460  143.1330 N   0  0  0  0  0  1  0  0  0  0  0  0
  197.2800  174.1400  143.8070 C   0  0  0  0  0  3  0  0  0  0  0  0
  196.8690  175.4730  143.7260 C   0  0  0  0  0  0  0  0  0  0  0  0
  196.4410  173.1840  144.3860 C   0  0  0  0  0  3  0  0  0  0  0  0
  188.1830  172.7230  139.1150 C   0  0  0  0  0  1  0  0  0  0  0  0
  188.5790  173.9300  139.9430 C   0  0  0  0  0  2  0  0  0  0  0  0
  1 27  1  0  0  0  0
  2 24  1  0  0  0  0
  2 22  1  0  0  0  0
  3 20  1  0  0  0  0
  4 37  1  6  0  0  0
  4  1  1  0  0  0  0
  5 10  1  0  0  0  0
  6 11  2  0  0  0  0
  7  3  1  0  0  0  0
  8 12  1  0  0  0  0
  9  3  2  0  0  0  0
  9  6  1  0  0  0  0
 10  7  1  0  0  0  0
 10 23  2  0  0  0  0
 11 16  1  0  0  0  0
 12  4  1  0  0  0  0
 13  9  1  0  0  0  0
 14  2  1  0  0  0  0
 17 13  1  0  0  0  0
 17  2  1  0  0  0  0
 18  8  1  6  0  0  0
 18 25  1  0  0  0  0
 18 19  1  0  0  0  0
 19  5  1  1  0  0  0
 20 15  1  0  0  0  0
 20 16  2  0  0  0  0
 21 13  2  0  0  0  0
 21  7  1  0  0  0  0
 22  6  1  0  0  0  0
 23 28  1  0  0  0  0
 25 19  1  0  0  0  0
 26  8  2  0  0  0  0
 27 21  1  0  0  0  0
 28 15  2  0  0  0  0
 30 29  1  0  0  0  0
 30 23  1  0  0  0  0
 31 30  2  0  0  0  0
 32 34  1  0  0  0  0
 33 35  1  0  0  0  0
 34 33  2  0  0  0  0
 34 31  1  0  0  0  0
 35 29  2  0  0  0  0
 36 37  1  0  0  0  0
M  END
>  <MODEL>
7

>  <REMARK>
 VINA RESULT:      -7.9      1.651      1.974
  Name = 
  2 active torsions:
  status: ('A' for Active; 'I' for Inactive)
    1  A    between atoms: C_4  and  C_37
    2  A    between atoms: C_23  and  C_30
                            x       y       z     vdW  Elec       q    Type
                         _______ _______ _______ _____ _____    ______ ____

>  <TORSDO>
F 2

$$$$
=
 OpenBabel11112417253D

 37 43  0  0  1  0  0  0  0  0999 V2000
  194.3120  175.4200  143.0960 O   0  0  0  0  0  0  0  0  0  0  0  0
  194.2240  173.4750  138.4770 C   0  0  0  0  0  0  0  0  0  0  0  0
  190.7640  174.0810  140.7490 C   0  0  0  0  0  0  0  0  0  0  0  0
  195.3150  175.1590  144.0450 C   0  0  2  0  0  3  0  0  0  0  0  0
  191.2080  176.4080  143.5870 C   0  0  0  0  0  2  0  0  0  0  0  0
  191.6770  173.2790  138.6450 C   0  0  0  0  0  0  0  0  0  0  0  0
  191.2300  174.4650  141.9620 N   0  0  0  0  0  0  0  0  0  0  0  0
  194.1410  176.5470  145.8440 C   0  0  0  0  0  0  0  0  0  0  0  0
  191.8070  173.7870  139.9210 C   0  0  0  0  0  0  0  0  0  0  0  0
  190.5160  175.2100  142.9810 C   0  0  0  0  0  0  0  0  0  0  0  0
  190.3750  173.0320  138.1850 C   0  0  0  0  0  3  0  0  0  0  0  0
  194.7910  175.2360  145.4910 C   0  0  0  0  0  2  0  0  0  0  0  0
  192.9650  173.9340  140.5960 C   0  0  0  0  0  0  0  0  0  0  0  0
  194.3690  174.9000  137.9680 C   0  0  0  0  0  1  0  0  0  0  0  0
  188.3310  173.7100  141.2650 C   0  0  0  0  0  3  0  0  0  0  0  0
  189.2740  173.2790  139.0380 C   0  0  0  0  0  3  0  0  0  0  0  0
  194.2750  173.4770  140.0290 C   0  0  0  0  0  2  0  0  0  0  0  0
  193.0110  177.0980  145.0290 C   0  0  1  0  0  3  0  0  0  0  0  0
  191.9430  176.0840  144.8710 C   0  0  1  0  0  3  0  0  0  0  0  0
  189.4580  173.7890  140.3440 C   0  0  0  0  0  0  0  0  0  0  0  0
  192.5930  174.3140  141.8760 C   0  0  0  0  0  0  0  0  0  0  0  0
  192.9190  172.8540  137.9000 C   0  0  0  0  0  2  0  0  0  0  0  0
  189.1970  175.0330  143.2600 C   0  0  0  0  0  0  0  0  0  0  0  0
  195.4000  172.6730  137.9640 C   0  0  0  0  0  1  0  0  0  0  0  0
  191.8270  177.1470  145.7870 O   0  0  0  0  0  0  0  0  0  0  0  0
  194.5520  177.1760  146.8040 O   0  0  0  0  0  0  0  0  0  0  0  0
  193.5270  174.2640  143.0410 C   0  0  0  0  0  2  0  0  0  0  0  0
  188.2440  174.2070  142.4940 C   0  0  0  0  0  3  0  0  0  0  0  0
  188.8060  175.3360  145.7090 C   0  0  0  0  0  3  0  0  0  0  0  0
  188.5650  175.7490  144.3900 C   0  0  0  0  0  0  0  0  0  0  0  0
  187.7540  176.8690  144.1580 C   0  0  0  0  0  3  0  0  0  0  0  0
  186.3460  178.6850  144.9830 N   0  0  0  0  0  1  0  0  0  0  0  0
  187.4100  177.1320  146.5380 C   0  0  0  0  0  3  0  0  0  0  0  0
  187.1750  177.5550  145.2280 C   0  0  0  0  0  0  0  0  0  0  0  0
  188.2270  176.0240  146.7790 C   0  0  0  0  0  3  0  0  0  0  0  0
  196.4390  176.7180  142.4600 C   0  0  0  0  0  1  0  0  0  0  0  0
  196.4880  176.1050  143.8470 C   0  0  0  0  0  2  0  0  0  0  0  0
  1  4  1  0  0  0  0
  2 17  1  0  0  0  0
  3  7  1  0  0  0  0
  4 37  1  1  0  0  0
  4 12  1  0  0  0  0
  6  9  1  0  0  0  0
  7 10  1  0  0  0  0
  8 26  2  0  0  0  0
  9 13  1  0  0  0  0
  9  3  2  0  0  0  0
 10 23  2  0  0  0  0
 10  5  1  0  0  0  0
 11  6  2  0  0  0  0
 11 16  1  0  0  0  0
 12  8  1  0  0  0  0
 13 21  2  0  0  0  0
 14  2  1  0  0  0  0
 15 28  2  0  0  0  0
 16 20  2  0  0  0  0
 17 13  1  0  0  0  0
 18 25  1  1  0  0  0
 18  8  1  0  0  0  0
 19  5  1  6  0  0  0
 19 18  1  0  0  0  0
 19 25  1  0  0  0  0
 20  3  1  0  0  0  0
 20 15  1  0  0  0  0
 21  7  1  0  0  0  0
 21 27  1  0  0  0  0
 22  2  1  0  0  0  0
 22  6  1  0  0  0  0
 23 30  1  0  0  0  0
 24  2  1  0  0  0  0
 27  1  1  0  0  0  0
 28 23  1  0  0  0  0
 29 35  1  0  0  0  0
 30 29  2  0  0  0  0
 31 30  1  0  0  0  0
 31 34  2  0  0  0  0
 32 34  1  0  0  0  0
 33 35  2  0  0  0  0
 34 33  1  0  0  0  0
 36 37  1  0  0  0  0
M  END
>  <MODEL>
8

>  <REMARK>
 VINA RESULT:      -7.8      2.621      7.571
  Name = 
  2 active torsions:
  status: ('A' for Active; 'I' for Inactive)
    1  A    between atoms: C_4  and  C_37
    2  A    between atoms: C_23  and  C_30
                            x       y       z     vdW  Elec       q    Type
                         _______ _______ _______ _____ _____    ______ ____

>  <TORSDO>
F 2

$$$$
=
 OpenBabel11112417253D

 37 43  0  0  1  0  0  0  0  0999 V2000
  191.9120  175.3790  145.2000 O   0  0  0  0  0  0  0  0  0  0  0  0
  194.8080  172.3730  142.4260 C   0  0  0  0  0  0  0  0  0  0  0  0
  191.0600  173.7190  141.1490 C   0  0  0  0  0  0  0  0  0  0  0  0
  191.8000  175.2990  146.5980 C   0  0  2  0  0  3  0  0  0  0  0  0
  189.7840  176.6390  143.0240 C   0  0  0  0  0  2  0  0  0  0  0  0
  193.0080  172.3750  140.6050 C   0  0  0  0  0  0  0  0  0  0  0  0
  190.5540  174.3600  142.2320 N   0  0  0  0  0  0  0  0  0  0  0  0
  190.0390  177.1520  146.6830 C   0  0  0  0  0  0  0  0  0  0  0  0
  192.2700  173.1710  141.4550 C   0  0  0  0  0  0  0  0  0  0  0  0
  189.5160  175.3730  142.2460 C   0  0  0  0  0  0  0  0  0  0  0  0
  192.4560  172.1000  139.3450 C   0  0  0  0  0  3  0  0  0  0  0  0
  190.4210  175.7590  147.1050 C   0  0  0  0  0  2  0  0  0  0  0  0
  192.5500  173.4100  142.7530 C   0  0  0  0  0  0  0  0  0  0  0  0
  195.5950  173.6190  142.0520 C   0  0  0  0  0  1  0  0  0  0  0  0
  189.0370  173.6300  139.6570 C   0  0  0  0  0  3  0  0  0  0  0  0
  191.1800  172.6140  139.0150 C   0  0  0  0  0  3  0  0  0  0  0  0
  193.7030  172.7510  143.4480 C   0  0  0  0  0  2  0  0  0  0  0  0
  190.0360  177.5530  145.2400 C   0  0  1  0  0  3  0  0  0  0  0  0
  189.2400  176.5960  144.4370 C   0  0  1  0  0  3  0  0  0  0  0  0
  190.4540  173.4160  139.9260 C   0  0  0  0  0  0  0  0  0  0  0  0
  191.4570  174.1120  143.2370 C   0  0  0  0  0  0  0  0  0  0  0  0
  194.2550  171.7080  141.1320 C   0  0  0  0  0  2  0  0  0  0  0  0
  188.4260  175.3470  141.4340 C   0  0  0  0  0  0  0  0  0  0  0  0
  195.7590  171.4010  143.0910 C   0  0  0  0  0  1  0  0  0  0  0  0
  188.7320  177.8560  144.8080 O   0  0  0  0  0  0  0  0  0  0  0  0
  189.7390  177.9720  147.5350 O   0  0  0  0  0  0  0  0  0  0  0  0
  191.1890  174.2940  144.6950 C   0  0  0  0  0  2  0  0  0  0  0  0
  188.1910  174.4170  140.3120 C   0  0  0  0  0  3  0  0  0  0  0  0
  187.0520  177.2270  140.5280 C   0  0  0  0  0  3  0  0  0  0  0  0
  187.3520  176.3540  141.5850 C   0  0  0  0  0  0  0  0  0  0  0  0
  186.5970  176.4180  142.7650 C   0  0  0  0  0  3  0  0  0  0  0  0
  184.8160  177.4210  144.1000 N   0  0  0  0  0  1  0  0  0  0  0  0
  185.2850  178.2300  141.8450 C   0  0  0  0  0  3  0  0  0  0  0  0
  185.5700  177.3560  142.8960 C   0  0  0  0  0  0  0  0  0  0  0  0
  186.0230  178.1640  140.6600 C   0  0  0  0  0  3  0  0  0  0  0  0
  194.1520  176.0950  146.3920 C   0  0  0  0  0  1  0  0  0  0  0  0
  192.9100  176.0970  147.2630 C   0  0  0  0  0  2  0  0  0  0  0  0
  1  4  1  0  0  0  0
  2 24  1  0  0  0  0
  2 17  1  0  0  0  0
  3  9  1  0  0  0  0
  3  7  1  0  0  0  0
  4 12  1  0  0  0  0
  4 37  1  1  0  0  0
  6 22  1  0  0  0  0
  6  9  2  0  0  0  0
  7 10  1  0  0  0  0
  7 21  1  0  0  0  0
  8 12  1  0  0  0  0
  8 26  2  0  0  0  0
  9 13  1  0  0  0  0
 10  5  1  0  0  0  0
 11  6  1  0  0  0  0
 13 21  2  0  0  0  0
 13 17  1  0  0  0  0
 14  2  1  0  0  0  0
 15 20  1  0  0  0  0
 15 28  2  0  0  0  0
 16 11  2  0  0  0  0
 16 20  1  0  0  0  0
 18 25  1  1  0  0  0
 18  8  1  0  0  0  0
 19  5  1  6  0  0  0
 19 25  1  0  0  0  0
 19 18  1  0  0  0  0
 20  3  2  0  0  0  0
 21 27  1  0  0  0  0
 22  2  1  0  0  0  0
 23 30  1  0  0  0  0
 23 10  2  0  0  0  0
 27  1  1  0  0  0  0
 28 23  1  0  0  0  0
 29 35  2  0  0  0  0
 29 30  1  0  0  0  0
 30 31  2  0  0  0  0
 31 34  1  0  0  0  0
 33 34  2  0  0  0  0
 34 32  1  0  0  0  0
 35 33  1  0  0  0  0
 36 37  1  0  0  0  0
M  END
>  <MODEL>
9

>  <REMARK>
 VINA RESULT:      -7.8      2.473      8.357
  Name = 
  2 active torsions:
  status: ('A' for Active; 'I' for Inactive)
    1  A    between atoms: C_4  and  C_37
    2  A    between atoms: C_23  and  C_30
                            x       y       z     vdW  Elec       q    Type
                         _______ _______ _______ _____ _____    ______ ____

>  <TORSDO>
F 2

$$$$
