=
 OpenBabel11112417143D

 37 43  0  0  1  0  0  0  0  0999 V2000
  191.1060  172.9590  142.2470 C   0  0  0  0  0  2  0  0  0  0  0  0
  195.4260  175.4240  142.9950 C   0  0  1  0  0  0  0  0  0  0  0  0
  191.5860  175.6870  144.8300 N   0  0  1  0  0  0  0  0  0  0  0  0
  191.2360  171.7930  141.2700 C   0  0  2  0  0  3  0  0  0  0  0  0
  188.5660  175.3080  142.6740 O   0  0  0  0  0  0  0  0  0  0  0  0
  194.0850  175.9210  145.1250 C   0  0  1  0  0  3  0  0  0  0  0  0
  190.6830  175.8920  143.6800 C   0  0  2  0  0  3  0  0  0  0  0  0
  188.9580  172.4390  140.3050 C   0  0  1  0  0  3  0  0  0  0  0  0
  192.8530  176.0480  144.2220 C   0  0  1  0  0  3  0  0  0  0  0  0
  189.3600  175.0980  143.8080 C   0  0  1  0  0  3  0  0  0  0  0  0
  193.6810  175.4810  146.5270 C   0  0  0  0  0  2  0  0  0  0  0  0
  190.3740  171.9430  140.0100 C   0  0  0  0  0  2  0  0  0  0  0  0
  192.9100  175.2630  142.9730 C   0  0  2  0  0  3  0  0  0  0  0  0
  196.1200  174.3760  142.3920 O   0  0  0  0  0  1  0  0  0  0  0  0
  190.0620  176.6040  146.6260 C   0  0  0  0  0  2  0  0  0  0  0  0
  192.5030  176.3380  147.0380 C   0  0  0  0  0  2  0  0  0  0  0  0
  194.1320  175.6920  142.1800 C   0  0  0  0  0  2  0  0  0  0  0  0
  188.9150  173.9000  140.7810 C   0  0  1  0  0  3  0  0  0  0  0  0
  188.3100  174.0320  142.1740 C   0  0  0  0  0  2  0  0  0  0  0  0
  191.4320  176.6230  145.9570 C   0  0  1  0  0  3  0  0  0  0  0  0
  191.5390  175.5370  142.4020 C   0  0  1  0  0  3  0  0  0  0  0  0
  195.1780  175.0540  144.4840 C   0  0  0  0  0  2  0  0  0  0  0  0
  188.5190  175.4060  145.0610 C   0  0  1  0  0  3  0  0  0  0  0  0
  196.2920  176.6680  142.9350 C   0  0  0  0  0  1  0  0  0  0  0  0
  190.1220  174.6260  140.5870 O   0  0  0  0  0  0  0  0  0  0  0  0
  188.1770  172.3070  139.1580 O   0  0  0  0  0  1  0  0  0  0  0  0
  191.1420  174.3270  141.5350 C   0  0  2  0  0  3  0  0  0  0  0  0
  189.2740  175.3280  146.3840 C   0  0  0  0  0  2  0  0  0  0  0  0
  187.8670  177.5700  143.9740 C   0  0  0  0  0  3  0  0  0  0  0  0
  187.6050  176.6000  144.9500 C   0  0  0  0  0  0  0  0  0  0  0  0
  186.4910  176.7470  145.7900 C   0  0  0  0  0  3  0  0  0  0  0  0
  184.2680  178.0360  146.7140 Cl  0  0  0  0  0  0  0  0  0  0  0  0
  185.9220  178.8250  144.6870 C   0  0  0  0  0  3  0  0  0  0  0  0
  185.6540  177.8580  145.6590 C   0  0  0  0  0  0  0  0  0  0  0  0
  187.0280  178.6810  143.8440 C   0  0  0  0  0  3  0  0  0  0  0  0
  190.9600  169.2640  140.6050 C   0  0  0  0  0  1  0  0  0  0  0  0
  190.8400  170.2420  142.1300 S   0  0  0  0  0  0  0  0  0  0  0  0
  2 24  1  6  0  0  0
  2 22  1  0  0  0  0
  3 20  1  0  0  0  0
  4 37  1  0  0  0  0
  4  1  1  0  0  0  0
  5 10  1  0  0  0  0
  6 11  1  0  0  0  0
  7 10  1  0  0  0  0
  7  3  1  0  0  0  0
  8 18  1  0  0  0  0
  9  3  1  0  0  0  0
  9  6  1  0  0  0  0
 10 23  1  0  0  0  0
 11 16  1  0  0  0  0
 12  8  1  0  0  0  0
 12  4  1  0  0  0  0
 13  9  1  0  0  0  0
 14  2  1  0  0  0  0
 17 13  1  0  0  0  0
 17  2  1  0  0  0  0
 18 19  1  0  0  0  0
 19  5  1  0  0  0  0
 20 15  1  0  0  0  0
 20 16  1  0  0  0  0
 21 13  1  0  0  0  0
 21  7  1  0  0  0  0
 22  6  1  0  0  0  0
 23 28  1  0  0  0  0
 25 18  1  0  0  0  0
 25 27  1  0  0  0  0
 26  8  1  0  0  0  0
 27  1  1  0  0  0  0
 27 21  1  0  0  0  0
 28 15  1  0  0  0  0
 29 30  1  0  0  0  0
 30 23  1  0  0  0  0
 30 31  2  0  0  0  0
 33 34  2  0  0  0  0
 34 31  1  0  0  0  0
 34 32  1  0  0  0  0
 35 29  2  0  0  0  0
 35 33  1  0  0  0  0
 36 37  1  0  0  0  0
M  END
>  <MODEL>
1

>  <REMARK>
 VINA RESULT:      -9.2      0.000      0.000
  Name = 
  2 active torsions:
  status: ('A' for Active; 'I' for Inactive)
    1  A    between atoms: C_4  and  S_37
    2  A    between atoms: C_23  and  C_30
                            x       y       z     vdW  Elec       q    Type
                         _______ _______ _______ _____ _____    ______ ____

>  <TORSDO>
F 2

$$$$
=
 OpenBabel11112417143D

 37 43  0  0  1  0  0  0  0  0999 V2000
  191.1050  172.9860  142.2340 C   0  0  0  0  0  2  0  0  0  0  0  0
  195.4510  175.4850  142.6370 C   0  0  1  0  0  0  0  0  0  0  0  0
  191.8340  175.5830  144.8930 N   0  0  1  0  0  0  0  0  0  0  0  0
  191.1410  171.8750  141.1870 C   0  0  2  0  0  3  0  0  0  0  0  0
  188.6000  175.2630  143.0630 O   0  0  0  0  0  0  0  0  0  0  0  0
  194.3470  175.8460  144.9250 C   0  0  1  0  0  3  0  0  0  0  0  0
  190.8070  175.8320  143.8610 C   0  0  2  0  0  3  0  0  0  0  0  0
  188.7620  172.5300  140.5140 C   0  0  1  0  0  3  0  0  0  0  0  0
  193.0210  175.9980  144.1700 C   0  0  1  0  0  3  0  0  0  0  0  0
  189.5160  175.0090  144.0900 C   0  0  1  0  0  3  0  0  0  0  0  0
  194.1050  175.3260  146.3370 C   0  0  0  0  0  2  0  0  0  0  0  0
  190.1430  172.0750  140.0390 C   0  0  0  0  0  2  0  0  0  0  0  0
  192.9500  175.2800  142.8820 C   0  0  2  0  0  3  0  0  0  0  0  0
  196.0860  174.4830  141.9060 O   0  0  0  0  0  1  0  0  0  0  0  0
  190.5060  176.3770  146.8910 C   0  0  0  0  0  2  0  0  0  0  0  0
  192.9810  176.1340  147.0190 C   0  0  0  0  0  2  0  0  0  0  0  0
  194.0720  175.7720  141.9840 C   0  0  0  0  0  2  0  0  0  0  0  0
  188.7540  173.9630  141.0700 C   0  0  1  0  0  3  0  0  0  0  0  0
  188.3050  174.0110  142.5260 C   0  0  0  0  0  2  0  0  0  0  0  0
  191.7940  176.4560  146.0780 C   0  0  1  0  0  3  0  0  0  0  0  0
  191.5210  175.5590  142.4800 C   0  0  1  0  0  3  0  0  0  0  0  0
  195.3730  175.0330  144.1230 C   0  0  0  0  0  2  0  0  0  0  0  0
  188.8150  175.2350  145.4420 C   0  0  1  0  0  3  0  0  0  0  0  0
  196.2900  176.7450  142.5500 C   0  0  0  0  0  1  0  0  0  0  0  0
  189.9240  174.7190  140.7840 O   0  0  0  0  0  0  0  0  0  0  0  0
  187.8620  172.4440  139.4540 O   0  0  0  0  0  1  0  0  0  0  0  0
  191.0460  174.3900  141.5980 C   0  0  2  0  0  3  0  0  0  0  0  0
  189.7110  175.1020  146.6680 C   0  0  0  0  0  2  0  0  0  0  0  0
  187.3050  176.7760  146.7210 C   0  0  0  0  0  3  0  0  0  0  0  0
  187.8800  176.4180  145.4960 C   0  0  0  0  0  0  0  0  0  0  0  0
  187.5910  177.1730  144.3490 C   0  0  0  0  0  3  0  0  0  0  0  0
  186.3730  179.2050  142.9920 Cl  0  0  0  0  0  0  0  0  0  0  0  0
  186.1560  178.6210  145.6530 C   0  0  0  0  0  3  0  0  0  0  0  0
  186.7300  178.2700  144.4290 C   0  0  0  0  0  0  0  0  0  0  0  0
  186.4440  177.8750  146.7990 C   0  0  0  0  0  3  0  0  0  0  0  0
  190.9910  169.3590  140.4380 C   0  0  0  0  0  1  0  0  0  0  0  0
  190.8610  170.2750  142.0000 S   0  0  0  0  0  0  0  0  0  0  0  0
  2 24  1  6  0  0  0
  2 22  1  0  0  0  0
  3 20  1  0  0  0  0
  4 37  1  0  0  0  0
  4  1  1  0  0  0  0
  5 10  1  0  0  0  0
  6 11  1  0  0  0  0
  7 10  1  0  0  0  0
  7  3  1  0  0  0  0
  8 18  1  0  0  0  0
  9  3  1  0  0  0  0
  9  6  1  0  0  0  0
 10 23  1  0  0  0  0
 11 16  1  0  0  0  0
 12  8  1  0  0  0  0
 12  4  1  0  0  0  0
 13  9  1  0  0  0  0
 14  2  1  0  0  0  0
 17  2  1  0  0  0  0
 17 13  1  0  0  0  0
 18 19  1  0  0  0  0
 19  5  1  0  0  0  0
 20 15  1  0  0  0  0
 20 16  1  0  0  0  0
 21 13  1  0  0  0  0
 21  7  1  0  0  0  0
 22  6  1  0  0  0  0
 23 30  1  0  0  0  0
 23 28  1  0  0  0  0
 25 18  1  0  0  0  0
 25 27  1  0  0  0  0
 26  8  1  0  0  0  0
 27  1  1  0  0  0  0
 27 21  1  0  0  0  0
 28 15  1  0  0  0  0
 29 35  1  0  0  0  0
 30 29  2  0  0  0  0
 31 34  2  0  0  0  0
 31 30  1  0  0  0  0
 32 34  1  0  0  0  0
 33 35  2  0  0  0  0
 34 33  1  0  0  0  0
 36 37  1  0  0  0  0
M  END
>  <MODEL>
2

>  <REMARK>
 VINA RESULT:      -9.0      0.885      1.154
  Name = 
  2 active torsions:
  status: ('A' for Active; 'I' for Inactive)
    1  A    between atoms: C_4  and  S_37
    2  A    between atoms: C_23  and  C_30
                            x       y       z     vdW  Elec       q    Type
                         _______ _______ _______ _____ _____    ______ ____

>  <TORSDO>
F 2

$$$$
=
 OpenBabel11112417143D

 37 43  0  0  1  0  0  0  0  0999 V2000
  193.1230  175.0660  143.3670 C   0  0  0  0  0  2  0  0  0  0  0  0
  191.7610  170.4670  141.8520 C   0  0  1  0  0  0  0  0  0  0  0  0
  189.6580  174.1660  142.1320 N   0  0  1  0  0  0  0  0  0  0  0  0
  194.6190  175.1930  143.6460 C   0  0  2  0  0  3  0  0  0  0  0  0
  190.3680  176.3890  145.0420 O   0  0  0  0  0  0  0  0  0  0  0  0
  189.9150  171.9750  140.9010 C   0  0  1  0  0  3  0  0  0  0  0  0
  189.8740  174.5650  143.5370 C   0  0  2  0  0  3  0  0  0  0  0  0
  194.0460  176.6470  145.6700 C   0  0  1  0  0  3  0  0  0  0  0  0
  189.9870  172.7560  142.2170 C   0  0  1  0  0  3  0  0  0  0  0  0
  190.1370  176.0830  143.6950 C   0  0  1  0  0  3  0  0  0  0  0  0
  189.4430  172.8760  139.7660 C   0  0  0  0  0  2  0  0  0  0  0  0
  194.9480  175.5510  145.1010 C   0  0  0  0  0  2  0  0  0  0  0  0
  191.2970  172.7140  142.8980 C   0  0  2  0  0  3  0  0  0  0  0  0
  193.1000  170.1520  141.6300 O   0  0  0  0  0  1  0  0  0  0  0  0
  187.6000  175.5680  141.6950 C   0  0  0  0  0  2  0  0  0  0  0  0
  188.1910  173.6680  140.1980 C   0  0  0  0  0  2  0  0  0  0  0  0
  191.6570  171.2660  143.1800 C   0  0  0  0  0  2  0  0  0  0  0  0
  192.5930  176.1910  145.8750 C   0  0  1  0  0  3  0  0  0  0  0  0
  191.6090  177.0210  145.0590 C   0  0  0  0  0  2  0  0  0  0  0  0
  188.2660  174.1970  141.6510 C   0  0  1  0  0  3  0  0  0  0  0  0
  191.0400  173.6410  144.0630 C   0  0  1  0  0  3  0  0  0  0  0  0
  191.2240  171.2260  140.6060 C   0  0  0  0  0  2  0  0  0  0  0  0
  189.0260  177.0080  143.1640 C   0  0  1  0  0  3  0  0  0  0  0  0
  190.9850  169.1750  142.0130 C   0  0  0  0  0  1  0  0  0  0  0  0
  192.3930  174.7840  145.7940 O   0  0  0  0  0  0  0  0  0  0  0  0
  194.5660  177.0830  146.8870 O   0  0  0  0  0  1  0  0  0  0  0  0
  192.3870  174.2720  144.4650 C   0  0  2  0  0  3  0  0  0  0  0  0
  188.5790  176.7290  141.7330 C   0  0  0  0  0  2  0  0  0  0  0  0
  187.7740  176.4820  145.2720 C   0  0  0  0  0  3  0  0  0  0  0  0
  187.8880  177.2670  144.1190 C   0  0  0  0  0  0  0  0  0  0  0  0
  186.9560  178.2890  143.8820 C   0  0  0  0  0  3  0  0  0  0  0  0
  184.7570  179.7910  144.4850 Cl  0  0  0  0  0  0  0  0  0  0  0  0
  185.8050  177.7260  145.9360 C   0  0  0  0  0  3  0  0  0  0  0  0
  185.9170  178.5150  144.7880 C   0  0  0  0  0  0  0  0  0  0  0  0
  186.7330  176.7100  146.1780 C   0  0  0  0  0  3  0  0  0  0  0  0
  196.9870  176.2700  143.2630 C   0  0  0  0  0  1  0  0  0  0  0  0
  195.3400  176.4160  142.5120 S   0  0  0  0  0  0  0  0  0  0  0  0
  1  4  1  0  0  0  0
  1 27  1  0  0  0  0
  2 24  1  1  0  0  0
  2 17  1  0  0  0  0
  3  9  1  0  0  0  0
  3  7  1  0  0  0  0
  4 12  1  0  0  0  0
  5 19  1  0  0  0  0
  6  9  1  0  0  0  0
  7 10  1  0  0  0  0
  7 21  1  0  0  0  0
  8 18  1  0  0  0  0
  8 26  1  0  0  0  0
  9 13  1  0  0  0  0
 10  5  1  0  0  0  0
 11 16  1  0  0  0  0
 11  6  1  0  0  0  0
 12  8  1  0  0  0  0
 13 17  1  0  0  0  0
 13 21  1  0  0  0  0
 14  2  1  0  0  0  0
 15 28  1  0  0  0  0
 16 20  1  0  0  0  0
 19 18  1  0  0  0  0
 20 15  1  0  0  0  0
 20  3  1  0  0  0  0
 21 27  1  0  0  0  0
 22  6  1  0  0  0  0
 22  2  1  0  0  0  0
 23 10  1  0  0  0  0
 23 30  1  0  0  0  0
 25 18  1  0  0  0  0
 27 25  1  0  0  0  0
 28 23  1  0  0  0  0
 29 35  1  0  0  0  0
 30 29  2  0  0  0  0
 31 30  1  0  0  0  0
 31 34  2  0  0  0  0
 32 34  1  0  0  0  0
 33 35  2  0  0  0  0
 34 33  1  0  0  0  0
 37 36  1  0  0  0  0
 37  4  1  0  0  0  0
M  END
>  <MODEL>
3

>  <REMARK>
 VINA RESULT:      -8.6      2.404      5.630
  Name = 
  2 active torsions:
  status: ('A' for Active; 'I' for Inactive)
    1  A    between atoms: C_4  and  S_37
    2  A    between atoms: C_23  and  C_30
                            x       y       z     vdW  Elec       q    Type
                         _______ _______ _______ _____ _____    ______ ____

>  <TORSDO>
F 2

$$$$
=
 OpenBabel11112417143D

 37 43  0  0  1  0  0  0  0  0999 V2000
  191.6270  173.0040  141.7530 C   0  0  0  0  0  2  0  0  0  0  0  0
  189.5150  175.9380  145.2520 C   0  0  1  0  0  0  0  0  0  0  0  0
  193.3630  174.1290  144.9260 N   0  0  1  0  0  0  0  0  0  0  0  0
  190.7720  172.8490  140.4980 C   0  0  2  0  0  3  0  0  0  0  0  0
  193.5880  170.6980  143.4800 O   0  0  0  0  0  0  0  0  0  0  0  0
  192.0200  176.0890  145.7850 C   0  0  1  0  0  3  0  0  0  0  0  0
  193.0420  172.7040  144.7100 C   0  0  2  0  0  3  0  0  0  0  0  0
  191.4670  170.3890  140.4150 C   0  0  1  0  0  3  0  0  0  0  0  0
  192.0980  174.5930  145.4610 C   0  0  1  0  0  3  0  0  0  0  0  0
  193.9650  172.0340  143.6640 C   0  0  1  0  0  3  0  0  0  0  0  0
  193.3590  176.7680  145.5150 C   0  0  0  0  0  2  0  0  0  0  0  0
  190.3390  171.4030  140.2190 C   0  0  0  0  0  2  0  0  0  0  0  0
  191.0820  174.1080  144.5050 C   0  0  2  0  0  3  0  0  0  0  0  0
  188.5970  176.3910  144.3060 O   0  0  0  0  0  1  0  0  0  0  0  0
  195.7290  173.8210  145.7600 C   0  0  0  0  0  2  0  0  0  0  0  0
  194.5070  175.9550  146.1480 C   0  0  0  0  0  2  0  0  0  0  0  0
  189.7010  174.4080  145.0630 C   0  0  0  0  0  2  0  0  0  0  0  0
  191.8820  170.2200  141.8850 C   0  0  1  0  0  3  0  0  0  0  0  0
  193.3460  170.5770  142.1140 C   0  0  0  0  0  2  0  0  0  0  0  0
  194.3460  174.4240  145.9820 C   0  0  1  0  0  3  0  0  0  0  0  0
  191.5060  172.6680  144.3470 C   0  0  1  0  0  3  0  0  0  0  0  0
  190.8240  176.7640  145.0990 C   0  0  0  0  0  2  0  0  0  0  0  0
  195.4720  172.0800  143.9800 C   0  0  1  0  0  3  0  0  0  0  0  0
  188.9390  176.1800  146.6330 C   0  0  0  0  0  1  0  0  0  0  0  0
  190.9780  170.7840  142.8280 O   0  0  0  0  0  0  0  0  0  0  0  0
  191.0670  169.1550  139.9060 O   0  0  0  0  0  1  0  0  0  0  0  0
  191.0680  172.2010  142.9460 C   0  0  2  0  0  3  0  0  0  0  0  0
  196.0220  173.4620  144.3130 C   0  0  0  0  0  2  0  0  0  0  0  0
  197.3090  170.5730  144.7820 C   0  0  0  0  0  3  0  0  0  0  0  0
  195.9760  170.9880  144.8900 C   0  0  0  0  0  0  0  0  0  0  0  0
  195.1420  170.3950  145.8510 C   0  0  0  0  0  3  0  0  0  0  0  0
  194.5900  168.6570  147.8820 Cl  0  0  0  0  0  0  0  0  0  0  0  0
  196.9670  168.9790  146.5740 C   0  0  0  0  0  3  0  0  0  0  0  0
  195.6370  169.3930  146.6880 C   0  0  0  0  0  0  0  0  0  0  0  0
  197.8030  169.5700  145.6210 C   0  0  0  0  0  3  0  0  0  0  0  0
  193.0730  174.0550  140.0970 C   0  0  0  0  0  1  0  0  0  0  0  0
  191.6700  173.5290  139.0720 S   0  0  0  0  0  0  0  0  0  0  0  0
  1 27  1  0  0  0  0
  2 24  1  1  0  0  0
  3  9  1  0  0  0  0
  3 20  1  0  0  0  0
  4  1  1  0  0  0  0
  5 10  1  0  0  0  0
  7  3  1  0  0  0  0
  8 18  1  0  0  0  0
  9  6  1  0  0  0  0
 10 23  1  0  0  0  0
 10  7  1  0  0  0  0
 11  6  1  0  0  0  0
 11 16  1  0  0  0  0
 12  8  1  0  0  0  0
 12  4  1  0  0  0  0
 13 17  1  0  0  0  0
 13  9  1  0  0  0  0
 14  2  1  0  0  0  0
 15 20  1  0  0  0  0
 17  2  1  0  0  0  0
 18 19  1  0  0  0  0
 18 25  1  0  0  0  0
 19  5  1  0  0  0  0
 20 16  1  0  0  0  0
 21 13  1  0  0  0  0
 21  7  1  0  0  0  0
 22  2  1  0  0  0  0
 22  6  1  0  0  0  0
 23 28  1  0  0  0  0
 23 30  1  0  0  0  0
 25 27  1  0  0  0  0
 26  8  1  0  0  0  0
 27 21  1  0  0  0  0
 28 15  1  0  0  0  0
 29 30  2  0  0  0  0
 29 35  1  0  0  0  0
 30 31  1  0  0  0  0
 31 34  2  0  0  0  0
 33 34  1  0  0  0  0
 34 32  1  0  0  0  0
 35 33  2  0  0  0  0
 37 36  1  0  0  0  0
 37  4  1  0  0  0  0
M  END
>  <MODEL>
4

>  <REMARK>
 VINA RESULT:      -8.0      3.864      7.062
  Name = 
  2 active torsions:
  status: ('A' for Active; 'I' for Inactive)
    1  A    between atoms: C_4  and  S_37
    2  A    between atoms: C_23  and  C_30
                            x       y       z     vdW  Elec       q    Type
                         _______ _______ _______ _____ _____    ______ ____

>  <TORSDO>
F 2

$$$$
=
 OpenBabel11112417143D

 37 43  0  0  1  0  0  0  0  0999 V2000
  190.1090  173.7100  139.9150 C   0  0  0  0  0  2  0  0  0  0  0  0
  187.1800  176.6680  142.7390 C   0  0  1  0  0  0  0  0  0  0  0  0
  191.2990  175.5920  142.9790 N   0  0  1  0  0  0  0  0  0  0  0  0
  189.4220  173.2140  138.6440 C   0  0  2  0  0  3  0  0  0  0  0  0
  192.2650  172.0920  142.1240 O   0  0  0  0  0  0  0  0  0  0  0  0
  189.5540  177.3660  143.4150 C   0  0  1  0  0  3  0  0  0  0  0  0
  191.2560  174.1150  142.9730 C   0  0  2  0  0  3  0  0  0  0  0  0
  190.5440  170.9460  139.0080 C   0  0  1  0  0  3  0  0  0  0  0  0
  189.9250  175.8810  143.3420 C   0  0  1  0  0  3  0  0  0  0  0  0
  192.3820  173.4870  142.1160 C   0  0  1  0  0  3  0  0  0  0  0  0
  190.7720  178.2390  143.1340 C   0  0  0  0  0  2  0  0  0  0  0  0
  189.2800  171.6880  138.5730 C   0  0  0  0  0  2  0  0  0  0  0  0
  189.1090  175.0790  142.4090 C   0  0  2  0  0  3  0  0  0  0  0  0
  186.2940  176.7970  141.6710 O   0  0  0  0  0  1  0  0  0  0  0  0
  193.5880  175.8610  144.0160 C   0  0  0  0  0  2  0  0  0  0  0  0
  191.9770  177.7590  143.9690 C   0  0  0  0  0  2  0  0  0  0  0  0
  187.6490  175.1900  142.8120 C   0  0  0  0  0  2  0  0  0  0  0  0
  190.8350  171.0730  140.5110 C   0  0  1  0  0  3  0  0  0  0  0  0
  192.1840  171.7300  140.7810 C   0  0  0  0  0  2  0  0  0  0  0  0
  192.1060  176.2180  144.0400 C   0  0  1  0  0  3  0  0  0  0  0  0
  189.7940  173.7370  142.5150 C   0  0  1  0  0  3  0  0  0  0  0  0
  188.3300  177.6950  142.5480 C   0  0  0  0  0  2  0  0  0  0  0  0
  193.8180  173.8630  142.5260 C   0  0  1  0  0  3  0  0  0  0  0  0
  186.4360  176.9940  144.0190 C   0  0  0  0  0  1  0  0  0  0  0  0
  189.7580  171.5870  141.2850 O   0  0  0  0  0  0  0  0  0  0  0  0
  190.4190  169.5970  138.6770 O   0  0  0  0  0  1  0  0  0  0  0  0
  189.5850  172.9970  141.1790 C   0  0  2  0  0  3  0  0  0  0  0  0
  194.0810  175.3580  142.6690 C   0  0  0  0  0  2  0  0  0  0  0  0
  193.6110  172.6660  144.7200 C   0  0  0  0  0  3  0  0  0  0  0  0
  194.4140  173.0300  143.6320 C   0  0  0  0  0  0  0  0  0  0  0  0
  195.7490  172.5990  143.5830 C   0  0  0  0  0  3  0  0  0  0  0  0
  197.9410  171.2880  144.5480 Cl  0  0  0  0  0  0  0  0  0  0  0  0
  195.4700  171.4620  145.7010 C   0  0  0  0  0  3  0  0  0  0  0  0
  196.2740  171.8190  144.6160 C   0  0  0  0  0  0  0  0  0  0  0  0
  194.1380  171.8850  145.7530 C   0  0  0  0  0  3  0  0  0  0  0  0
  188.8180  174.5250  136.4460 C   0  0  0  0  0  1  0  0  0  0  0  0
  190.3230  173.8370  137.1940 S   0  0  0  0  0  0  0  0  0  0  0  0
  1 27  1  0  0  0  0
  2 17  1  0  0  0  0
  2 24  1  1  0  0  0
  3  9  1  0  0  0  0
  3 20  1  0  0  0  0
  4  1  1  0  0  0  0
  7  3  1  0  0  0  0
  8 18  1  0  0  0  0
  9  6  1  0  0  0  0
 10  5  1  0  0  0  0
 10 23  1  0  0  0  0
 10  7  1  0  0  0  0
 11  6  1  0  0  0  0
 11 16  1  0  0  0  0
 12  4  1  0  0  0  0
 12  8  1  0  0  0  0
 13 21  1  0  0  0  0
 13 17  1  0  0  0  0
 13  9  1  0  0  0  0
 14  2  1  0  0  0  0
 15 20  1  0  0  0  0
 16 20  1  0  0  0  0
 18 19  1  0  0  0  0
 18 25  1  0  0  0  0
 19  5  1  0  0  0  0
 21  7  1  0  0  0  0
 22  2  1  0  0  0  0
 22  6  1  0  0  0  0
 23 28  1  0  0  0  0
 23 30  1  0  0  0  0
 26  8  1  0  0  0  0
 27 25  1  0  0  0  0
 27 21  1  0  0  0  0
 28 15  1  0  0  0  0
 29 35  1  0  0  0  0
 30 29  2  0  0  0  0
 31 30  1  0  0  0  0
 31 34  2  0  0  0  0
 32 34  1  0  0  0  0
 33 35  2  0  0  0  0
 34 33  1  0  0  0  0
 36 37  1  0  0  0  0
 37  4  1  0  0  0  0
M  END
>  <MODEL>
5

>  <REMARK>
 VINA RESULT:      -7.6      3.486      6.674
  Name = 
  2 active torsions:
  status: ('A' for Active; 'I' for Inactive)
    1  A    between atoms: C_4  and  S_37
    2  A    between atoms: C_23  and  C_30
                            x       y       z     vdW  Elec       q    Type
                         _______ _______ _______ _____ _____    ______ ____

>  <TORSDO>
F 2

$$$$
=
 OpenBabel11112417143D

 37 43  0  0  1  0  0  0  0  0999 V2000
  194.6830  174.5820  142.9570 C   0  0  0  0  0  2  0  0  0  0  0  0
  191.1290  176.2780  146.0860 C   0  0  1  0  0  0  0  0  0  0  0  0
  191.0340  173.5790  142.7870 N   0  0  1  0  0  0  0  0  0  0  0  0
  196.0940  175.0080  143.3560 C   0  0  2  0  0  3  0  0  0  0  0  0
  193.1740  174.3300  139.8250 O   0  0  0  0  0  0  0  0  0  0  0  0
  190.0440  174.2100  145.0240 C   0  0  1  0  0  3  0  0  0  0  0  0
  191.6490  174.3650  141.6980 C   0  0  2  0  0  3  0  0  0  0  0  0
  196.6090  175.3700  140.8780 C   0  0  1  0  0  3  0  0  0  0  0  0
  190.6920  174.6480  143.7050 C   0  0  1  0  0  3  0  0  0  0  0  0
  192.5990  173.5220  140.8130 C   0  0  1  0  0  3  0  0  0  0  0  0
  189.8470  172.6990  145.0510 C   0  0  0  0  0  2  0  0  0  0  0  0
  196.7970  175.8800  142.3070 C   0  0  0  0  0  2  0  0  0  0  0  0
  191.9320  175.4350  143.8500 C   0  0  2  0  0  3  0  0  0  0  0  0
  192.1140  176.6070  147.0150 O   0  0  0  0  0  1  0  0  0  0  0  0
  189.8050  171.9060  141.3450 C   0  0  0  0  0  2  0  0  0  0  0  0
  189.1930  172.2220  143.7380 C   0  0  0  0  0  2  0  0  0  0  0  0
  191.6330  176.6760  144.6720 C   0  0  0  0  0  2  0  0  0  0  0  0
  195.1680  175.5200  140.3650 C   0  0  1  0  0  3  0  0  0  0  0  0
  194.5490  174.1780  139.9910 C   0  0  0  0  0  2  0  0  0  0  0  0
  189.7510  172.9260  142.4770 C   0  0  1  0  0  3  0  0  0  0  0  0
  192.3340  175.5990  142.4040 C   0  0  1  0  0  3  0  0  0  0  0  0
  190.7920  174.7690  146.2430 C   0  0  0  0  0  2  0  0  0  0  0  0
  191.9610  172.2950  140.1350 C   0  0  1  0  0  3  0  0  0  0  0  0
  189.8890  177.0940  146.3960 C   0  0  0  0  0  1  0  0  0  0  0  0
  194.3370  176.3570  141.1590 O   0  0  0  0  0  0  0  0  0  0  0  0
  197.4730  176.0600  140.0290 O   0  0  0  0  0  1  0  0  0  0  0  0
  193.8670  175.7460  142.3570 C   0  0  2  0  0  3  0  0  0  0  0  0
  191.1970  171.3630  141.0690 C   0  0  0  0  0  2  0  0  0  0  0  0
  191.7260  171.9730  137.6590 C   0  0  0  0  0  3  0  0  0  0  0  0
  191.2520  172.5700  138.8330 C   0  0  0  0  0  0  0  0  0  0  0  0
  190.1190  173.3970  138.7800 C   0  0  0  0  0  3  0  0  0  0  0  0
  188.0630  174.6610  137.5040 Cl  0  0  0  0  0  0  0  0  0  0  0  0
  189.9540  173.0310  136.3930 C   0  0  0  0  0  3  0  0  0  0  0  0
  189.4740  173.6270  137.5620 C   0  0  0  0  0  0  0  0  0  0  0  0
  191.0800  172.2040  136.4410 C   0  0  0  0  0  3  0  0  0  0  0  0
  197.1030  173.8760  145.5040 C   0  0  0  0  0  1  0  0  0  0  0  0
  197.0850  173.5300  143.7210 S   0  0  0  0  0  0  0  0  0  0  0  0
  1  4  1  0  0  0  0
  2 22  1  0  0  0  0
  2 24  1  1  0  0  0
  2 14  1  0  0  0  0
  3  9  1  0  0  0  0
  4 37  1  0  0  0  0
  5 19  1  0  0  0  0
  5 10  1  0  0  0  0
  6 11  1  0  0  0  0
  6 22  1  0  0  0  0
  7 21  1  0  0  0  0
  7  3  1  0  0  0  0
  8 12  1  0  0  0  0
  9 13  1  0  0  0  0
  9  6  1  0  0  0  0
 10  7  1  0  0  0  0
 12  4  1  0  0  0  0
 13 17  1  0  0  0  0
 15 20  1  0  0  0  0
 16 11  1  0  0  0  0
 17  2  1  0  0  0  0
 18  8  1  0  0  0  0
 18 25  1  0  0  0  0
 19 18  1  0  0  0  0
 20  3  1  0  0  0  0
 20 16  1  0  0  0  0
 21 13  1  0  0  0  0
 23 10  1  0  0  0  0
 23 28  1  0  0  0  0
 25 27  1  0  0  0  0
 26  8  1  0  0  0  0
 27 21  1  0  0  0  0
 27  1  1  0  0  0  0
 28 15  1  0  0  0  0
 29 30  1  0  0  0  0
 30 23  1  0  0  0  0
 31 30  2  0  0  0  0
 32 34  1  0  0  0  0
 33 35  1  0  0  0  0
 33 34  2  0  0  0  0
 34 31  1  0  0  0  0
 35 29  2  0  0  0  0
 37 36  1  0  0  0  0
M  END
>  <MODEL>
6

>  <REMARK>
 VINA RESULT:      -7.6      3.252      6.772
  Name = 
  2 active torsions:
  status: ('A' for Active; 'I' for Inactive)
    1  A    between atoms: C_4  and  S_37
    2  A    between atoms: C_23  and  C_30
                            x       y       z     vdW  Elec       q    Type
                         _______ _______ _______ _____ _____    ______ ____

>  <TORSDO>
F 2

$$$$
=
 OpenBabel11112417143D

 37 43  0  0  1  0  0  0  0  0999 V2000
  195.6990  173.7290  142.6100 C   0  0  0  0  0  2  0  0  0  0  0  0
  194.8910  169.2540  144.7630 C   0  0  1  0  0  0  0  0  0  0  0  0
  192.2680  172.2510  143.2390 N   0  0  1  0  0  0  0  0  0  0  0  0
  197.1720  174.0020  142.3180 C   0  0  2  0  0  3  0  0  0  0  0  0
  193.1720  175.8300  143.7720 O   0  0  0  0  0  0  0  0  0  0  0  0
  192.6460  169.7850  143.6410 C   0  0  1  0  0  3  0  0  0  0  0  0
  192.7050  173.4680  143.9530 C   0  0  2  0  0  3  0  0  0  0  0  0
  196.7930  176.4250  143.0430 C   0  0  1  0  0  3  0  0  0  0  0  0
  192.8550  171.2350  144.0920 C   0  0  1  0  0  3  0  0  0  0  0  0
  192.7180  174.7220  143.0470 C   0  0  1  0  0  3  0  0  0  0  0  0
  191.7880  169.7320  142.3820 C   0  0  0  0  0  2  0  0  0  0  0  0
  197.7340  175.2200  143.0630 C   0  0  0  0  0  2  0  0  0  0  0  0
  194.2660  171.6420  144.2490 C   0  0  2  0  0  3  0  0  0  0  0  0
  196.1870  168.8670  144.4250 O   0  0  0  0  0  1  0  0  0  0  0  0
  189.9480  173.0370  142.6170 C   0  0  0  0  0  2  0  0  0  0  0  0
  190.5370  170.6190  142.5500 C   0  0  0  0  0  2  0  0  0  0  0  0
  194.9320  170.7250  145.2600 C   0  0  0  0  0  2  0  0  0  0  0  0
  195.5230  176.2160  143.8830 C   0  0  1  0  0  3  0  0  0  0  0  0
  194.2550  176.3180  143.0430 C   0  0  0  0  0  2  0  0  0  0  0  0
  190.8240  171.9660  143.2580 C   0  0  1  0  0  3  0  0  0  0  0  0
  194.1020  173.1050  144.5900 C   0  0  1  0  0  3  0  0  0  0  0  0
  193.9730  169.0220  143.5300 C   0  0  0  0  0  2  0  0  0  0  0  0
  191.3720  175.0820  142.3900 C   0  0  1  0  0  3  0  0  0  0  0  0
  194.4120  168.3790  145.9050 C   0  0  0  0  0  1  0  0  0  0  0  0
  195.5660  175.0950  144.7590 O   0  0  0  0  0  0  0  0  0  0  0  0
  197.4740  177.5460  143.5130 O   0  0  0  0  0  1  0  0  0  0  0  0
  195.3680  173.8410  144.1130 C   0  0  2  0  0  3  0  0  0  0  0  0
  190.6880  173.9410  141.6460 C   0  0  0  0  0  2  0  0  0  0  0  0
  189.9890  177.1410  142.7630 C   0  0  0  0  0  3  0  0  0  0  0  0
  190.4360  175.9040  143.2410 C   0  0  0  0  0  0  0  0  0  0  0  0
  189.9930  175.4430  144.4910 C   0  0  0  0  0  3  0  0  0  0  0  0
  188.5700  175.6390  146.8130 Cl  0  0  0  0  0  0  0  0  0  0  0  0
  188.6770  177.4550  144.7740 C   0  0  0  0  0  3  0  0  0  0  0  0
  189.1170  176.2190  145.2540 C   0  0  0  0  0  0  0  0  0  0  0  0
  189.1120  177.9160  143.5280 C   0  0  0  0  0  3  0  0  0  0  0  0
  195.6150  174.2380  140.2130 C   0  0  0  0  0  1  0  0  0  0  0  0
  197.4030  174.1910  140.5260 S   0  0  0  0  0  0  0  0  0  0  0  0
  1 27  1  0  0  0  0
  2 17  1  0  0  0  0
  2 24  1  1  0  0  0
  3 20  1  0  0  0  0
  3  7  1  0  0  0  0
  3  9  1  0  0  0  0
  4  1  1  0  0  0  0
  4 12  1  0  0  0  0
  6  9  1  0  0  0  0
  7 21  1  0  0  0  0
  8 12  1  0  0  0  0
  8 26  1  0  0  0  0
  8 18  1  0  0  0  0
  9 13  1  0  0  0  0
 10  5  1  0  0  0  0
 10  7  1  0  0  0  0
 11 16  1  0  0  0  0
 11  6  1  0  0  0  0
 13 21  1  0  0  0  0
 13 17  1  0  0  0  0
 14  2  1  0  0  0  0
 15 20  1  0  0  0  0
 16 20  1  0  0  0  0
 18 25  1  0  0  0  0
 19  5  1  0  0  0  0
 19 18  1  0  0  0  0
 22  6  1  0  0  0  0
 22  2  1  0  0  0  0
 23 10  1  0  0  0  0
 23 30  1  0  0  0  0
 27 21  1  0  0  0  0
 27 25  1  0  0  0  0
 28 23  1  0  0  0  0
 28 15  1  0  0  0  0
 29 30  2  0  0  0  0
 29 35  1  0  0  0  0
 30 31  1  0  0  0  0
 31 34  2  0  0  0  0
 33 34  1  0  0  0  0
 34 32  1  0  0  0  0
 35 33  2  0  0  0  0
 36 37  1  0  0  0  0
 37  4  1  0  0  0  0
M  END
>  <MODEL>
7

>  <REMARK>
 VINA RESULT:      -7.5      3.144      5.975
  Name = 
  2 active torsions:
  status: ('A' for Active; 'I' for Inactive)
    1  A    between atoms: C_4  and  S_37
    2  A    between atoms: C_23  and  C_30
                            x       y       z     vdW  Elec       q    Type
                         _______ _______ _______ _____ _____    ______ ____

>  <TORSDO>
F 2

$$$$
=
 OpenBabel11112417143D

 37 43  0  0  1  0  0  0  0  0999 V2000
  194.3570  174.0880  141.8140 C   0  0  0  0  0  2  0  0  0  0  0  0
  192.0760  170.4700  139.1660 C   0  0  1  0  0  0  0  0  0  0  0  0
  190.6020  173.7590  141.4440 N   0  0  1  0  0  0  0  0  0  0  0  0
  195.8750  174.0890  141.6530 C   0  0  2  0  0  3  0  0  0  0  0  0
  192.3570  174.6430  144.6140 O   0  0  0  0  0  0  0  0  0  0  0  0
  190.2380  172.2350  139.4610 C   0  0  1  0  0  3  0  0  0  0  0  0
  191.2470  173.5670  142.7580 C   0  0  2  0  0  3  0  0  0  0  0  0
  196.0680  174.6230  144.1460 C   0  0  1  0  0  3  0  0  0  0  0  0
  190.7670  172.4300  140.8860 C   0  0  1  0  0  3  0  0  0  0  0  0
  191.7260  174.8970  143.3900 C   0  0  1  0  0  3  0  0  0  0  0  0
  189.5830  173.5140  138.9510 C   0  0  0  0  0  2  0  0  0  0  0  0
  196.6360  173.8410  142.9620 C   0  0  0  0  0  2  0  0  0  0  0  0
  192.1990  172.1180  141.0690 C   0  0  2  0  0  3  0  0  0  0  0  0
  193.2530  170.2660  138.4470 O   0  0  0  0  0  1  0  0  0  0  0  0
  188.6910  175.2240  142.2140 C   0  0  0  0  0  2  0  0  0  0  0  0
  188.6070  174.0720  140.0080 C   0  0  0  0  0  2  0  0  0  0  0  0
  192.4430  170.6770  140.6600 C   0  0  0  0  0  2  0  0  0  0  0  0
  194.6850  174.1260  144.5940 C   0  0  1  0  0  3  0  0  0  0  0  0
  193.6220  175.2140  144.4910 C   0  0  0  0  0  2  0  0  0  0  0  0
  189.1460  173.9810  141.4570 C   0  0  1  0  0  3  0  0  0  0  0  0
  192.3910  172.5070  142.5160 C   0  0  1  0  0  3  0  0  0  0  0  0
  191.3120  171.6620  138.5250 C   0  0  0  0  0  2  0  0  0  0  0  0
  190.6330  175.9590  143.6110 C   0  0  1  0  0  3  0  0  0  0  0  0
  191.2240  169.2210  139.0530 C   0  0  0  0  0  1  0  0  0  0  0  0
  194.3000  172.8680  144.0520 O   0  0  0  0  0  0  0  0  0  0  0  0
  196.9550  174.5390  145.2180 O   0  0  0  0  0  1  0  0  0  0  0  0
  193.8630  172.9240  142.6980 C   0  0  2  0  0  3  0  0  0  0  0  0
  189.7770  176.2720  142.3890 C   0  0  0  0  0  2  0  0  0  0  0  0
  190.0260  174.6810  145.6820 C   0  0  0  0  0  3  0  0  0  0  0  0
  189.8450  175.8210  144.8890 C   0  0  0  0  0  0  0  0  0  0  0  0
  188.9510  176.8190  145.3070 C   0  0  0  0  0  3  0  0  0  0  0  0
  187.1260  177.9190  147.0130 Cl  0  0  0  0  0  0  0  0  0  0  0  0
  188.4220  175.5300  147.2860 C   0  0  0  0  0  3  0  0  0  0  0  0
  188.2410  176.6710  146.5010 C   0  0  0  0  0  0  0  0  0  0  0  0
  189.3150  174.5350  146.8770 C   0  0  0  0  0  3  0  0  0  0  0  0
  194.7710  176.4250  141.1640 C   0  0  0  0  0  1  0  0  0  0  0  0
  196.3970  175.6610  140.9040 S   0  0  0  0  0  0  0  0  0  0  0  0
  1 27  1  0  0  0  0
  2 24  1  6  0  0  0
  2 17  1  0  0  0  0
  3 20  1  0  0  0  0
  3  7  1  0  0  0  0
  4  1  1  0  0  0  0
  4 12  1  0  0  0  0
  6  9  1  0  0  0  0
  7 10  1  0  0  0  0
  8 18  1  0  0  0  0
  8 26  1  0  0  0  0
  9 13  1  0  0  0  0
  9  3  1  0  0  0  0
 10 23  1  0  0  0  0
 10  5  1  0  0  0  0
 11  6  1  0  0  0  0
 11 16  1  0  0  0  0
 12  8  1  0  0  0  0
 13 21  1  0  0  0  0
 14  2  1  0  0  0  0
 15 28  1  0  0  0  0
 16 20  1  0  0  0  0
 17 13  1  0  0  0  0
 19 18  1  0  0  0  0
 19  5  1  0  0  0  0
 20 15  1  0  0  0  0
 21 27  1  0  0  0  0
 21  7  1  0  0  0  0
 22  2  1  0  0  0  0
 22  6  1  0  0  0  0
 23 30  1  0  0  0  0
 25 18  1  0  0  0  0
 27 25  1  0  0  0  0
 28 23  1  0  0  0  0
 29 35  1  0  0  0  0
 30 31  1  0  0  0  0
 30 29  2  0  0  0  0
 31 34  2  0  0  0  0
 34 32  1  0  0  0  0
 34 33  1  0  0  0  0
 35 33  2  0  0  0  0
 37 36  1  0  0  0  0
 37  4  1  0  0  0  0
M  END
>  <MODEL>
8

>  <REMARK>
 VINA RESULT:      -7.4      2.639      5.929
  Name = 
  2 active torsions:
  status: ('A' for Active; 'I' for Inactive)
    1  A    between atoms: C_4  and  S_37
    2  A    between atoms: C_23  and  C_30
                            x       y       z     vdW  Elec       q    Type
                         _______ _______ _______ _____ _____    ______ ____

>  <TORSDO>
F 2

$$$$
=
 OpenBabel11112417143D

 37 43  0  0  1  0  0  0  0  0999 V2000
  191.5530  171.7360  140.4960 C   0  0  0  0  0  2  0  0  0  0  0  0
  195.9780  173.2550  142.3440 C   0  0  1  0  0  0  0  0  0  0  0  0
  191.9430  174.1990  143.3470 N   0  0  1  0  0  0  0  0  0  0  0  0
  191.6800  170.6110  139.4710 C   0  0  2  0  0  3  0  0  0  0  0  0
  189.4620  174.5230  140.5810 O   0  0  0  0  0  0  0  0  0  0  0  0
  194.3120  173.9170  144.1790 C   0  0  1  0  0  3  0  0  0  0  0  0
  191.3720  174.6290  142.0550 C   0  0  2  0  0  3  0  0  0  0  0  0
  189.8340  171.7400  138.1100 C   0  0  1  0  0  3  0  0  0  0  0  0
  193.3570  174.3260  143.0520 C   0  0  1  0  0  3  0  0  0  0  0  0
  189.9310  174.1100  141.8340 C   0  0  1  0  0  3  0  0  0  0  0  0
  193.5320  173.5060  145.4220 C   0  0  0  0  0  2  0  0  0  0  0  0
  191.1620  170.9840  138.0760 C   0  0  0  0  0  2  0  0  0  0  0  0
  193.5450  173.6000  141.7800 C   0  0  2  0  0  3  0  0  0  0  0  0
  196.5820  172.1180  141.8120 O   0  0  0  0  0  1  0  0  0  0  0  0
  190.2540  175.3220  144.8550 C   0  0  0  0  0  2  0  0  0  0  0  0
  192.4500  174.5570  145.7460 C   0  0  0  0  0  2  0  0  0  0  0  0
  194.9710  173.8100  141.3010 C   0  0  0  0  0  2  0  0  0  0  0  0
  189.9560  173.1570  138.6900 C   0  0  1  0  0  3  0  0  0  0  0  0
  189.0920  173.3470  139.9310 C   0  0  0  0  0  2  0  0  0  0  0  0
  191.7180  175.0970  144.4920 C   0  0  1  0  0  3  0  0  0  0  0  0
  192.4100  174.1660  140.9600 C   0  0  1  0  0  3  0  0  0  0  0  0
  195.3410  172.8770  143.7100 C   0  0  0  0  0  2  0  0  0  0  0  0
  188.9040  174.5250  142.9040 C   0  0  1  0  0  3  0  0  0  0  0  0
  197.0500  174.3030  142.5740 C   0  0  0  0  0  1  0  0  0  0  0  0
  191.2900  173.6360  138.8160 O   0  0  0  0  0  0  0  0  0  0  0  0
  189.3170  171.8150  136.8170 O   0  0  0  0  0  1  0  0  0  0  0  0
  192.0000  173.0990  139.9280 C   0  0  2  0  0  3  0  0  0  0  0  0
  189.3170  174.2410  144.3440 C   0  0  0  0  0  2  0  0  0  0  0  0
  189.0930  176.9720  142.3910 C   0  0  0  0  0  3  0  0  0  0  0  0
  188.2750  175.8810  142.7060 C   0  0  0  0  0  0  0  0  0  0  0  0
  186.8880  176.0650  142.8140 C   0  0  0  0  0  3  0  0  0  0  0  0
  184.5980  177.5510  142.7550 Cl  0  0  0  0  0  0  0  0  0  0  0  0
  187.1510  178.4170  142.3050 C   0  0  0  0  0  3  0  0  0  0  0  0
  186.3290  177.3300  142.6160 C   0  0  0  0  0  0  0  0  0  0  0  0
  188.5320  178.2380  142.1920 C   0  0  0  0  0  3  0  0  0  0  0  0
  191.0490  168.2380  138.5300 C   0  0  0  0  0  1  0  0  0  0  0  0
  190.8220  169.1340  140.0930 S   0  0  0  0  0  0  0  0  0  0  0  0
  2 24  1  1  0  0  0
  2 22  1  0  0  0  0
  3 20  1  0  0  0  0
  4 37  1  0  0  0  0
  4  1  1  0  0  0  0
  5 10  1  0  0  0  0
  6 11  1  0  0  0  0
  7  3  1  0  0  0  0
  8 18  1  0  0  0  0
  9  3  1  0  0  0  0
  9  6  1  0  0  0  0
 10  7  1  0  0  0  0
 10 23  1  0  0  0  0
 11 16  1  0  0  0  0
 12  8  1  0  0  0  0
 12  4  1  0  0  0  0
 13  9  1  0  0  0  0
 14  2  1  0  0  0  0
 17 13  1  0  0  0  0
 17  2  1  0  0  0  0
 18 25  1  0  0  0  0
 18 19  1  0  0  0  0
 19  5  1  0  0  0  0
 20 15  1  0  0  0  0
 20 16  1  0  0  0  0
 21 13  1  0  0  0  0
 21  7  1  0  0  0  0
 22  6  1  0  0  0  0
 23 28  1  0  0  0  0
 25 27  1  0  0  0  0
 26  8  1  0  0  0  0
 27  1  1  0  0  0  0
 27 21  1  0  0  0  0
 28 15  1  0  0  0  0
 29 30  1  0  0  0  0
 30 31  2  0  0  0  0
 30 23  1  0  0  0  0
 33 34  2  0  0  0  0
 34 32  1  0  0  0  0
 34 31  1  0  0  0  0
 35 33  1  0  0  0  0
 35 29  2  0  0  0  0
 36 37  1  0  0  0  0
M  END
>  <MODEL>
9

>  <REMARK>
 VINA RESULT:      -7.3      1.986      2.420
  Name = 
  2 active torsions:
  status: ('A' for Active; 'I' for Inactive)
    1  A    between atoms: C_4  and  S_37
    2  A    between atoms: C_23  and  C_30
                            x       y       z     vdW  Elec       q    Type
                         _______ _______ _______ _____ _____    ______ ____

>  <TORSDO>
F 2

$$$$
