=
 OpenBabel11112417403D

 28 32  0  0  1  0  0  0  0  0999 V2000
  186.7350  178.2740  144.2120 C   0  0  0  0  0  0  0  0  0  0  0  0
  189.7580  178.1070  144.9640 O   0  0  0  0  0  0  0  0  0  0  0  0
  187.8410  173.4280  140.9200 O   0  0  0  0  0  0  0  0  0  0  0  0
  185.0520  177.7060  146.3850 C   0  0  0  0  0  3  0  0  0  0  0  0
  189.5910  174.0390  142.4060 C   0  0  1  0  0  3  0  0  0  0  0  0
  187.5180  178.6340  142.9940 C   0  0  0  0  0  2  0  0  0  0  0  0
  189.0740  177.6710  147.2870 O   0  0  0  0  0  0  0  0  0  0  0  0
  189.7130  177.0820  146.0610 S   0  0  0  0  0  0  0  0  0  0  0  0
  191.8140  175.3360  145.9530 C   0  0  0  0  0  0  0  0  0  0  0  0
  188.8160  175.6100  145.5690 C   0  0  2  0  0  3  0  0  0  0  0  0
  185.6140  177.2410  140.2190 O   0  0  0  0  0  0  0  0  0  0  0  0
  188.5070  175.9860  143.2300 N   0  0  1  0  0  0  0  0  0  0  0  0
  191.0850  174.5180  145.2520 N   0  0  0  0  0  0  0  0  0  0  0  0
  191.3160  176.5860  146.4220 N   0  0  0  0  0  2  0  0  0  0  0  0
  186.5950  177.3970  140.9910 C   0  0  0  0  0  0  0  0  0  0  0  0
  186.8050  177.0040  144.8420 C   0  0  0  0  0  0  0  0  0  0  0  0
  188.3040  174.2080  141.7400 C   0  0  0  0  0  0  0  0  0  0  0  0
  193.1980  174.9350  146.3160 C   0  0  0  0  0  1  0  0  0  0  0  0
  187.7060  176.4040  140.9650 C   0  0  0  0  0  2  0  0  0  0  0  0
  185.9500  176.7430  145.9240 C   0  0  0  0  0  3  0  0  0  0  0  0
  185.8300  179.2330  144.6870 C   0  0  0  0  0  3  0  0  0  0  0  0
  184.9960  178.9550  145.7680 C   0  0  0  0  0  3  0  0  0  0  0  0
  186.6470  178.5490  141.8330 N   0  0  0  0  0  2  0  0  0  0  0  0
  189.6750  175.1640  143.3690 N   0  0  1  0  0  0  0  0  0  0  0  0
  187.6610  175.4530  142.1540 C   0  0  2  0  0  3  0  0  0  0  0  0
  189.7110  174.7070  144.7650 C   0  0  2  0  0  3  0  0  0  0  0  0
  189.6640  172.7200  143.0320 N   0  0  0  0  0  1  0  0  0  0  0  0
  187.7820  175.8930  144.5010 C   0  0  2  0  0  3  0  0  0  0  0  0
  1 21  2  0  0  0  0
  1 16  1  0  0  0  0
  2  8  2  0  0  0  0
  3 17  2  0  0  0  0
  5 27  1  1  0  0  0
  5 24  1  0  0  0  0
  6  1  1  0  0  0  0
  8 14  1  0  0  0  0
  8  7  2  0  0  0  0
  9 18  1  0  0  0  0
  9 14  1  0  0  0  0
 10  8  1  6  0  0  0
 11 15  2  0  0  0  0
 12 24  1  0  0  0  0
 12 28  1  0  0  0  0
 13  9  2  0  0  0  0
 15 23  1  0  0  0  0
 16 20  2  0  0  0  0
 17 25  1  0  0  0  0
 17  5  1  0  0  0  0
 19 15  1  0  0  0  0
 19 25  1  0  0  0  0
 20  4  1  0  0  0  0
 21 22  1  0  0  0  0
 22  4  2  0  0  0  0
 23  6  1  0  0  0  0
 24 26  1  0  0  0  0
 25 12  1  0  0  0  0
 26 13  1  0  0  0  0
 26 10  1  0  0  0  0
 28 16  1  0  0  0  0
 28 10  1  0  0  0  0
M  END
>  <MODEL>
1

>  <REMARK>
 VINA RESULT:      -9.0      0.000      0.000
  Name = 
  0 active torsions:
  status: ('A' for Active; 'I' for Inactive)
                            x       y       z     vdW  Elec       q    Type
                         _______ _______ _______ _____ _____    ______ ____

>  <TORSDO>
F 0

$$$$
=
 OpenBabel11112417403D

 28 32  0  0  1  0  0  0  0  0999 V2000
  191.2010  174.7170  145.3440 C   0  0  0  0  0  0  0  0  0  0  0  0
  188.5450  175.6580  146.6840 O   0  0  0  0  0  0  0  0  0  0  0  0
  188.1430  175.1280  140.2430 O   0  0  0  0  0  0  0  0  0  0  0  0
  193.2320  176.6460  145.5090 C   0  0  0  0  0  3  0  0  0  0  0  0
  187.0570  176.0770  142.1300 C   0  0  1  0  0  3  0  0  0  0  0  0
  190.2220  173.5980  145.2270 C   0  0  0  0  0  2  0  0  0  0  0  0
  189.7160  177.7070  147.3800 O   0  0  0  0  0  0  0  0  0  0  0  0
  188.6470  177.1440  146.4860 S   0  0  0  0  0  0  0  0  0  0  0  0
  186.2500  178.2820  145.8300 C   0  0  0  0  0  0  0  0  0  0  0  0
  189.0080  177.5710  144.7820 C   0  0  2  0  0  3  0  0  0  0  0  0
  190.9180  172.0880  141.9870 O   0  0  0  0  0  0  0  0  0  0  0  0
  188.7460  175.4660  143.6850 N   0  0  1  0  0  0  0  0  0  0  0  0
  186.5490  178.1630  144.5700 N   0  0  0  0  0  0  0  0  0  0  0  0
  187.1330  177.8580  146.8650 N   0  0  0  0  0  2  0  0  0  0  0  0
  190.2490  172.6840  142.8700 C   0  0  0  0  0  0  0  0  0  0  0  0
  191.0110  175.9900  144.7450 C   0  0  0  0  0  0  0  0  0  0  0  0
  188.1150  175.3440  141.4460 C   0  0  0  0  0  0  0  0  0  0  0  0
  184.9640  178.9250  146.2070 C   0  0  0  0  0  1  0  0  0  0  0  0
  188.9740  173.3540  142.4870 C   0  0  0  0  0  2  0  0  0  0  0  0
  192.0440  176.9360  144.8380 C   0  0  0  0  0  3  0  0  0  0  0  0
  192.3990  174.4400  146.0180 C   0  0  0  0  0  3  0  0  0  0  0  0
  193.4070  175.3980  146.1050 C   0  0  0  0  0  3  0  0  0  0  0  0
  190.6980  172.6590  144.2250 N   0  0  0  0  0  2  0  0  0  0  0  0
  187.5030  176.1670  143.5420 N   0  0  1  0  0  0  0  0  0  0  0  0
  189.1180  174.8670  142.3960 C   0  0  2  0  0  3  0  0  0  0  0  0
  187.7430  177.5520  143.9680 C   0  0  2  0  0  3  0  0  0  0  0  0
  186.8520  177.3760  141.4930 N   0  0  0  0  0  1  0  0  0  0  0  0
  189.7480  176.4710  144.0540 C   0  0  2  0  0  3  0  0  0  0  0  0
  1 21  1  0  0  0  0
  3 17  2  0  0  0  0
  4 22  1  0  0  0  0
  5 27  1  6  0  0  0
  5 24  1  0  0  0  0
  6  1  1  0  0  0  0
  8  2  2  0  0  0  0
  8 14  1  0  0  0  0
  8  7  2  0  0  0  0
  9 18  1  0  0  0  0
  9 14  1  0  0  0  0
 10  8  1  1  0  0  0
 11 15  2  0  0  0  0
 12 28  1  0  0  0  0
 13  9  2  0  0  0  0
 15 23  1  0  0  0  0
 16 20  1  0  0  0  0
 16  1  2  0  0  0  0
 17  5  1  0  0  0  0
 17 25  1  0  0  0  0
 19 15  1  0  0  0  0
 20  4  2  0  0  0  0
 21 22  2  0  0  0  0
 23  6  1  0  0  0  0
 24 12  1  0  0  0  0
 24 26  1  0  0  0  0
 25 19  1  0  0  0  0
 25 12  1  0  0  0  0
 26 13  1  0  0  0  0
 26 10  1  0  0  0  0
 28 16  1  0  0  0  0
 28 10  1  0  0  0  0
M  END
>  <MODEL>
2

>  <REMARK>
 VINA RESULT:      -8.7      1.751      5.287
  Name = 
  0 active torsions:
  status: ('A' for Active; 'I' for Inactive)
                            x       y       z     vdW  Elec       q    Type
                         _______ _______ _______ _____ _____    ______ ____

>  <TORSDO>
F 0

$$$$
=
 OpenBabel11112417403D

 28 32  0  0  1  0  0  0  0  0999 V2000
  190.8510  175.1480  144.2210 C   0  0  0  0  0  0  0  0  0  0  0  0
  188.4470  175.5050  146.1760 O   0  0  0  0  0  0  0  0  0  0  0  0
  186.9910  176.8730  140.0180 O   0  0  0  0  0  0  0  0  0  0  0  0
  192.8700  177.0520  144.6370 C   0  0  0  0  0  3  0  0  0  0  0  0
  186.2250  177.1630  142.2470 C   0  0  1  0  0  3  0  0  0  0  0  0
  189.8730  174.0610  143.9270 C   0  0  0  0  0  2  0  0  0  0  0  0
  189.7040  177.3200  147.2630 O   0  0  0  0  0  0  0  0  0  0  0  0
  188.5060  176.9860  146.4190 S   0  0  0  0  0  0  0  0  0  0  0  0
  186.0270  178.1340  146.5160 C   0  0  0  0  0  0  0  0  0  0  0  0
  188.5790  177.9160  144.8870 C   0  0  2  0  0  3  0  0  0  0  0  0
  190.0340  173.6120  140.3170 O   0  0  0  0  0  0  0  0  0  0  0  0
  188.1520  176.2150  143.2640 N   0  0  1  0  0  0  0  0  0  0  0  0
  186.1150  178.4080  145.2480 N   0  0  0  0  0  0  0  0  0  0  0  0
  187.0720  177.4730  147.2250 N   0  0  0  0  0  2  0  0  0  0  0  0
  189.5170  173.8840  141.4300 C   0  0  0  0  0  0  0  0  0  0  0  0
  190.5580  176.5280  144.0670 C   0  0  0  0  0  0  0  0  0  0  0  0
  187.1610  176.7230  141.2190 C   0  0  0  0  0  0  0  0  0  0  0  0
  184.8160  178.5650  147.2630 C   0  0  0  0  0  1  0  0  0  0  0  0
  188.1910  174.5650  141.4700 C   0  0  0  0  0  2  0  0  0  0  0  0
  191.5860  177.4610  144.2770 C   0  0  0  0  0  3  0  0  0  0  0  0
  192.1450  174.7520  144.5850 C   0  0  0  0  0  3  0  0  0  0  0  0
  193.1490  175.6960  144.7970 C   0  0  0  0  0  3  0  0  0  0  0  0
  190.1830  173.4860  142.6280 N   0  0  0  0  0  2  0  0  0  0  0  0
  186.8980  176.8580  143.5330 N   0  0  1  0  0  0  0  0  0  0  0  0
  188.3100  176.0440  141.8140 C   0  0  2  0  0  3  0  0  0  0  0  0
  187.1970  178.0680  144.3120 C   0  0  2  0  0  3  0  0  0  0  0  0
  185.9100  178.5790  142.0680 N   0  0  0  0  0  1  0  0  0  0  0  0
  189.1950  177.1210  143.7570 C   0  0  2  0  0  3  0  0  0  0  0  0
  1 21  1  0  0  0  0
  2  8  2  0  0  0  0
  3 17  2  0  0  0  0
  4 22  1  0  0  0  0
  5 27  1  6  0  0  0
  5 24  1  0  0  0  0
  6  1  1  0  0  0  0
  8 14  1  0  0  0  0
  8  7  2  0  0  0  0
  9 14  1  0  0  0  0
  9 18  1  0  0  0  0
 10  8  1  1  0  0  0
 11 15  2  0  0  0  0
 12 24  1  0  0  0  0
 12 28  1  0  0  0  0
 13  9  2  0  0  0  0
 15 19  1  0  0  0  0
 15 23  1  0  0  0  0
 16  1  2  0  0  0  0
 16 20  1  0  0  0  0
 17 25  1  0  0  0  0
 17  5  1  0  0  0  0
 19 25  1  0  0  0  0
 20  4  2  0  0  0  0
 21 22  2  0  0  0  0
 23  6  1  0  0  0  0
 24 26  1  0  0  0  0
 25 12  1  0  0  0  0
 26 10  1  0  0  0  0
 26 13  1  0  0  0  0
 28 16  1  0  0  0  0
 28 10  1  0  0  0  0
M  END
>  <MODEL>
3

>  <REMARK>
 VINA RESULT:      -8.6      1.828      5.111
  Name = 
  0 active torsions:
  status: ('A' for Active; 'I' for Inactive)
                            x       y       z     vdW  Elec       q    Type
                         _______ _______ _______ _____ _____    ______ ____

>  <TORSDO>
F 0

$$$$
=
 OpenBabel11112417403D

 28 32  0  0  1  0  0  0  0  0999 V2000
  188.7220  176.0370  145.6940 C   0  0  0  0  0  0  0  0  0  0  0  0
  189.3330  173.5870  143.8610 O   0  0  0  0  0  0  0  0  0  0  0  0
  194.5610  177.1500  145.2380 O   0  0  0  0  0  0  0  0  0  0  0  0
  187.1760  177.9900  144.4010 C   0  0  0  0  0  3  0  0  0  0  0  0
  193.7490  175.4890  143.7490 C   0  0  1  0  0  3  0  0  0  0  0  0
  189.5070  175.0600  146.5030 C   0  0  0  0  0  2  0  0  0  0  0  0
  187.9230  174.6290  142.1350 O   0  0  0  0  0  0  0  0  0  0  0  0
  189.3260  174.2450  142.5110 S   0  0  0  0  0  0  0  0  0  0  0  0
  191.2890  173.2860  140.8670 C   0  0  0  0  0  0  0  0  0  0  0  0
  190.3750  175.6990  142.4660 C   0  0  2  0  0  3  0  0  0  0  0  0
  191.6410  177.1120  148.6240 O   0  0  0  0  0  0  0  0  0  0  0  0
  191.5160  175.5420  144.5590 N   0  0  1  0  0  0  0  0  0  0  0  0
  192.0710  174.2500  141.2550 N   0  0  0  0  0  0  0  0  0  0  0  0
  189.9580  173.1440  141.3560 N   0  0  0  0  0  2  0  0  0  0  0  0
  191.3550  176.2660  147.7390 C   0  0  0  0  0  0  0  0  0  0  0  0
  189.2220  176.6690  144.5260 C   0  0  0  0  0  0  0  0  0  0  0  0
  193.6430  176.4480  144.8420 C   0  0  0  0  0  0  0  0  0  0  0  0
  191.7820  172.3280  139.8440 C   0  0  0  0  0  1  0  0  0  0  0  0
  192.4210  175.7970  146.8080 C   0  0  0  0  0  2  0  0  0  0  0  0
  188.4320  177.6460  143.9000 C   0  0  0  0  0  3  0  0  0  0  0  0
  187.4580  176.3910  146.1850 C   0  0  0  0  0  3  0  0  0  0  0  0
  186.6860  177.3570  145.5430 C   0  0  0  0  0  3  0  0  0  0  0  0
  190.0310  175.7360  147.6790 N   0  0  0  0  0  2  0  0  0  0  0  0
  192.3760  174.9560  143.5710 N   0  0  1  0  0  0  0  0  0  0  0  0
  192.3030  176.4270  145.4270 C   0  0  2  0  0  3  0  0  0  0  0  0
  191.8080  175.2920  142.2580 C   0  0  2  0  0  3  0  0  0  0  0  0
  194.2860  176.1420  142.5570 N   0  0  0  0  0  1  0  0  0  0  0  0
  190.5290  176.3420  143.8260 C   0  0  2  0  0  3  0  0  0  0  0  0
  1 21  1  0  0  0  0
  1  6  1  0  0  0  0
  4 22  1  0  0  0  0
  5 27  1  6  0  0  0
  5 17  1  0  0  0  0
  6 23  1  0  0  0  0
  7  8  2  0  0  0  0
  8  2  2  0  0  0  0
  9 13  2  0  0  0  0
  9 14  1  0  0  0  0
 10  8  1  1  0  0  0
 10 28  1  0  0  0  0
 12 25  1  0  0  0  0
 13 26  1  0  0  0  0
 14  8  1  0  0  0  0
 15 11  2  0  0  0  0
 16  1  2  0  0  0  0
 17  3  2  0  0  0  0
 17 25  1  0  0  0  0
 18  9  1  0  0  0  0
 19 15  1  0  0  0  0
 20  4  2  0  0  0  0
 20 16  1  0  0  0  0
 22 21  2  0  0  0  0
 23 15  1  0  0  0  0
 24  5  1  0  0  0  0
 24 12  1  0  0  0  0
 25 19  1  0  0  0  0
 26 10  1  0  0  0  0
 26 24  1  0  0  0  0
 28 16  1  0  0  0  0
 28 12  1  0  0  0  0
M  END
>  <MODEL>
4

>  <REMARK>
 VINA RESULT:      -8.2      2.648      5.498
  Name = 
  0 active torsions:
  status: ('A' for Active; 'I' for Inactive)
                            x       y       z     vdW  Elec       q    Type
                         _______ _______ _______ _____ _____    ______ ____

>  <TORSDO>
F 0

$$$$
=
 OpenBabel11112417403D

 28 32  0  0  1  0  0  0  0  0999 V2000
  190.1760  174.6650  141.8780 C   0  0  0  0  0  0  0  0  0  0  0  0
  189.0390  177.5660  142.0330 O   0  0  0  0  0  0  0  0  0  0  0  0
  189.2560  174.5670  147.7670 O   0  0  0  0  0  0  0  0  0  0  0  0
  188.4630  172.9080  140.5180 C   0  0  0  0  0  3  0  0  0  0  0  0
  188.2860  176.4200  146.6430 C   0  0  1  0  0  3  0  0  0  0  0  0
  191.1890  175.5040  142.5820 C   0  0  0  0  0  2  0  0  0  0  0  0
  187.1440  176.8110  140.6570 O   0  0  0  0  0  0  0  0  0  0  0  0
  187.5630  177.2840  142.0200 S   0  0  0  0  0  0  0  0  0  0  0  0
  186.1700  178.9090  143.7210 C   0  0  0  0  0  0  0  0  0  0  0  0
  187.1010  176.0600  143.2450 C   0  0  2  0  0  3  0  0  0  0  0  0
  192.6230  173.3080  145.1090 O   0  0  0  0  0  0  0  0  0  0  0  0
  189.1240  175.8360  144.4970 N   0  0  1  0  0  0  0  0  0  0  0  0
  186.2640  178.0020  144.6490 N   0  0  0  0  0  0  0  0  0  0  0  0
  186.7210  178.7260  142.4200 N   0  0  0  0  0  2  0  0  0  0  0  0
  192.0020  174.3020  144.6530 C   0  0  0  0  0  0  0  0  0  0  0  0
  188.8670  174.4350  142.3760 C   0  0  0  0  0  0  0  0  0  0  0  0
  189.0890  175.2070  146.7400 C   0  0  0  0  0  0  0  0  0  0  0  0
  185.4210  180.1590  144.0120 C   0  0  0  0  0  1  0  0  0  0  0  0
  191.1960  175.1450  145.5810 C   0  0  0  0  0  2  0  0  0  0  0  0
  188.0310  173.5480  141.6790 C   0  0  0  0  0  3  0  0  0  0  0  0
  190.5960  174.0170  140.7080 C   0  0  0  0  0  3  0  0  0  0  0  0
  189.7460  173.1470  140.0290 C   0  0  0  0  0  3  0  0  0  0  0  0
  192.1270  174.6320  143.2700 N   0  0  0  0  0  2  0  0  0  0  0  0
  188.2990  176.7750  145.2030 N   0  0  1  0  0  0  0  0  0  0  0  0
  189.7010  174.8810  145.4520 C   0  0  2  0  0  3  0  0  0  0  0  0
  186.9630  176.7090  144.5950 C   0  0  2  0  0  3  0  0  0  0  0  0
  186.9470  176.1810  147.1780 N   0  0  0  0  0  1  0  0  0  0  0  0
  188.2370  175.1170  143.5770 C   0  0  2  0  0  3  0  0  0  0  0  0
  1 16  1  0  0  0  0
  1  6  1  0  0  0  0
  4 20  1  0  0  0  0
  5 17  1  0  0  0  0
  5 27  1  6  0  0  0
  6 23  1  0  0  0  0
  7  8  2  0  0  0  0
  8  2  2  0  0  0  0
  8 14  1  0  0  0  0
  9 18  1  0  0  0  0
  9 13  2  0  0  0  0
 10  8  1  6  0  0  0
 10 28  1  0  0  0  0
 10 26  1  0  0  0  0
 12 24  1  0  0  0  0
 12 25  1  0  0  0  0
 14  9  1  0  0  0  0
 15 11  2  0  0  0  0
 15 19  1  0  0  0  0
 16 28  1  0  0  0  0
 17  3  2  0  0  0  0
 20 16  2  0  0  0  0
 21  1  2  0  0  0  0
 22  4  2  0  0  0  0
 22 21  1  0  0  0  0
 23 15  1  0  0  0  0
 24  5  1  0  0  0  0
 25 19  1  0  0  0  0
 25 17  1  0  0  0  0
 26 13  1  0  0  0  0
 26 24  1  0  0  0  0
 28 12  1  0  0  0  0
M  END
>  <MODEL>
5

>  <REMARK>
 VINA RESULT:      -8.0      2.288      6.080
  Name = 
  0 active torsions:
  status: ('A' for Active; 'I' for Inactive)
                            x       y       z     vdW  Elec       q    Type
                         _______ _______ _______ _____ _____    ______ ____

>  <TORSDO>
F 0

$$$$
=
 OpenBabel11112417403D

 28 32  0  0  1  0  0  0  0  0999 V2000
  190.5540  175.3280  143.4470 C   0  0  0  0  0  0  0  0  0  0  0  0
  188.9140  177.2740  141.6420 O   0  0  0  0  0  0  0  0  0  0  0  0
  186.8420  177.0750  147.7720 O   0  0  0  0  0  0  0  0  0  0  0  0
  190.1680  172.6350  142.7560 C   0  0  0  0  0  3  0  0  0  0  0  0
  186.2060  177.7510  145.5860 C   0  0  1  0  0  3  0  0  0  0  0  0
  190.8740  176.7170  143.8840 C   0  0  0  0  0  2  0  0  0  0  0  0
  188.1750  175.3190  140.3430 O   0  0  0  0  0  0  0  0  0  0  0  0
  187.7420  176.4020  141.2900 S   0  0  0  0  0  0  0  0  0  0  0  0
  185.3790  177.7760  141.2830 C   0  0  0  0  0  0  0  0  0  0  0  0
  186.9960  175.6620  142.7420 C   0  0  2  0  0  3  0  0  0  0  0  0
  191.2660  176.4890  147.4980 O   0  0  0  0  0  0  0  0  0  0  0  0
  188.1090  176.8230  144.5090 N   0  0  1  0  0  0  0  0  0  0  0  0
  185.1820  177.4230  142.5190 N   0  0  0  0  0  0  0  0  0  0  0  0
  186.5330  177.3720  140.5520 N   0  0  0  0  0  2  0  0  0  0  0  0
  190.7660  176.8640  146.4060 C   0  0  0  0  0  0  0  0  0  0  0  0
  189.2540  174.7630  143.5210 C   0  0  0  0  0  0  0  0  0  0  0  0
  187.0850  177.1390  146.5760 C   0  0  0  0  0  0  0  0  0  0  0  0
  184.3430  178.5880  140.5930 C   0  0  0  0  0  1  0  0  0  0  0  0
  189.4470  177.5580  146.4100 C   0  0  0  0  0  2  0  0  0  0  0  0
  189.0880  173.4130  143.1740 C   0  0  0  0  0  3  0  0  0  0  0  0
  191.6300  174.5360  143.0230 C   0  0  0  0  0  3  0  0  0  0  0  0
  191.4400  173.1990  142.6750 C   0  0  0  0  0  3  0  0  0  0  0  0
  191.4970  176.6660  145.1960 N   0  0  0  0  0  2  0  0  0  0  0  0
  186.8670  177.5040  144.2820 N   0  0  1  0  0  0  0  0  0  0  0  0
  188.3130  176.6500  145.9530 C   0  0  2  0  0  3  0  0  0  0  0  0
  186.0650  176.6450  143.3990 C   0  0  2  0  0  3  0  0  0  0  0  0
  184.8640  177.1810  145.6850 N   0  0  0  0  0  1  0  0  0  0  0  0
  187.9780  175.5040  143.8810 C   0  0  2  0  0  3  0  0  0  0  0  0
  1 16  1  0  0  0  0
  1  6  1  0  0  0  0
  4 20  1  0  0  0  0
  5 27  1  6  0  0  0
  5 17  1  0  0  0  0
  6 23  1  0  0  0  0
  7  8  2  0  0  0  0
  8  2  2  0  0  0  0
  9 13  2  0  0  0  0
 10  8  1  6  0  0  0
 10 26  1  0  0  0  0
 10 28  1  0  0  0  0
 12 25  1  0  0  0  0
 13 26  1  0  0  0  0
 14  9  1  0  0  0  0
 14  8  1  0  0  0  0
 15 19  1  0  0  0  0
 15 11  2  0  0  0  0
 16 28  1  0  0  0  0
 17  3  2  0  0  0  0
 18  9  1  0  0  0  0
 20 16  2  0  0  0  0
 21  1  2  0  0  0  0
 22  4  2  0  0  0  0
 22 21  1  0  0  0  0
 23 15  1  0  0  0  0
 24 12  1  0  0  0  0
 24  5  1  0  0  0  0
 25 19  1  0  0  0  0
 25 17  1  0  0  0  0
 26 24  1  0  0  0  0
 28 12  1  0  0  0  0
M  END
>  <MODEL>
6

>  <REMARK>
 VINA RESULT:      -7.9      2.282      6.363
  Name = 
  0 active torsions:
  status: ('A' for Active; 'I' for Inactive)
                            x       y       z     vdW  Elec       q    Type
                         _______ _______ _______ _____ _____    ______ ____

>  <TORSDO>
F 0

$$$$
=
 OpenBabel11112417403D

 28 32  0  0  1  0  0  0  0  0999 V2000
  192.4520  174.5440  145.1630 C   0  0  0  0  0  0  0  0  0  0  0  0
  189.6760  174.7230  146.5750 O   0  0  0  0  0  0  0  0  0  0  0  0
  189.2710  174.3350  140.1250 O   0  0  0  0  0  0  0  0  0  0  0  0
  193.9250  176.9230  145.3770 C   0  0  0  0  0  3  0  0  0  0  0  0
  188.0240  174.9060  142.0630 C   0  0  1  0  0  3  0  0  0  0  0  0
  191.7900  173.2150  145.0150 C   0  0  0  0  0  2  0  0  0  0  0  0
  190.2990  176.9780  147.3370 O   0  0  0  0  0  0  0  0  0  0  0  0
  189.3900  176.1910  146.4350 S   0  0  0  0  0  0  0  0  0  0  0  0
  186.7660  176.6990  145.8590 C   0  0  0  0  0  0  0  0  0  0  0  0
  189.5890  176.7570  144.7460 C   0  0  2  0  0  3  0  0  0  0  0  0
  192.7730  172.0490  141.7080 O   0  0  0  0  0  0  0  0  0  0  0  0
  189.8490  174.6940  143.5680 N   0  0  1  0  0  0  0  0  0  0  0  0
  187.0560  176.7050  144.5910 N   0  0  0  0  0  0  0  0  0  0  0  0
  187.7530  176.4790  146.8640 N   0  0  0  0  0  2  0  0  0  0  0  0
  191.9950  172.4220  142.6220 C   0  0  0  0  0  0  0  0  0  0  0  0
  191.9290  175.7450  144.6180 C   0  0  0  0  0  0  0  0  0  0  0  0
  189.2180  174.4940  141.3360 C   0  0  0  0  0  0  0  0  0  0  0  0
  185.3670  176.9760  146.2780 C   0  0  0  0  0  1  0  0  0  0  0  0
  190.5820  172.7550  142.2850 C   0  0  0  0  0  2  0  0  0  0  0  0
  192.6870  176.9210  144.7350 C   0  0  0  0  0  3  0  0  0  0  0  0
  193.6960  174.5600  145.8080 C   0  0  0  0  0  3  0  0  0  0  0  0
  194.4280  175.7410  145.9200 C   0  0  0  0  0  3  0  0  0  0  0  0
  192.4670  172.4660  143.9690 N   0  0  0  0  0  2  0  0  0  0  0  0
  188.4650  175.0580  143.4710 N   0  0  1  0  0  0  0  0  0  0  0  0
  190.3320  174.2570  142.2520 C   0  0  2  0  0  3  0  0  0  0  0  0
  188.3520  176.4420  143.9490 C   0  0  2  0  0  3  0  0  0  0  0  0
  187.4780  176.1310  141.4810 N   0  0  0  0  0  1  0  0  0  0  0  0
  190.5680  175.9100  143.9640 C   0  0  2  0  0  3  0  0  0  0  0  0
  1 21  1  0  0  0  0
  3 17  2  0  0  0  0
  4 22  1  0  0  0  0
  5 27  1  6  0  0  0
  5 24  1  0  0  0  0
  6  1  1  0  0  0  0
  8  2  2  0  0  0  0
  8 14  1  0  0  0  0
  8  7  2  0  0  0  0
  9 18  1  0  0  0  0
  9 14  1  0  0  0  0
 10  8  1  1  0  0  0
 11 15  2  0  0  0  0
 12 28  1  0  0  0  0
 13  9  2  0  0  0  0
 15 23  1  0  0  0  0
 16 20  1  0  0  0  0
 16  1  2  0  0  0  0
 17  5  1  0  0  0  0
 17 25  1  0  0  0  0
 19 15  1  0  0  0  0
 20  4  2  0  0  0  0
 21 22  2  0  0  0  0
 23  6  1  0  0  0  0
 24 12  1  0  0  0  0
 24 26  1  0  0  0  0
 25 19  1  0  0  0  0
 25 12  1  0  0  0  0
 26 13  1  0  0  0  0
 26 10  1  0  0  0  0
 28 16  1  0  0  0  0
 28 10  1  0  0  0  0
M  END
>  <MODEL>
7

>  <REMARK>
 VINA RESULT:      -7.8      2.038      5.591
  Name = 
  0 active torsions:
  status: ('A' for Active; 'I' for Inactive)
                            x       y       z     vdW  Elec       q    Type
                         _______ _______ _______ _____ _____    ______ ____

>  <TORSDO>
F 0

$$$$
=
 OpenBabel11112417403D

 28 32  0  0  1  0  0  0  0  0999 V2000
  189.4160  176.5390  144.3960 C   0  0  0  0  0  0  0  0  0  0  0  0
  192.5180  176.7500  144.6440 O   0  0  0  0  0  0  0  0  0  0  0  0
  190.5170  171.2550  141.8660 O   0  0  0  0  0  0  0  0  0  0  0  0
  188.1520  176.2680  146.8880 C   0  0  0  0  0  3  0  0  0  0  0  0
  192.3970  172.2690  142.9040 C   0  0  1  0  0  3  0  0  0  0  0  0
  189.9610  176.7190  143.0200 C   0  0  0  0  0  2  0  0  0  0  0  0
  192.2450  176.7130  147.0890 O   0  0  0  0  0  0  0  0  0  0  0  0
  192.7500  175.9520  145.8950 S   0  0  0  0  0  0  0  0  0  0  0  0
  194.9830  174.3830  145.7410 C   0  0  0  0  0  0  0  0  0  0  0  0
  191.9500  174.3490  145.8270 C   0  0  2  0  0  3  0  0  0  0  0  0
  187.8160  174.6830  140.8950 O   0  0  0  0  0  0  0  0  0  0  0  0
  191.2510  174.2490  143.5450 N   0  0  1  0  0  0  0  0  0  0  0  0
  194.2470  173.3940  145.3280 N   0  0  0  0  0  0  0  0  0  0  0  0
  194.4330  175.6580  146.0610 N   0  0  0  0  0  2  0  0  0  0  0  0
  188.8810  175.0580  141.4500 C   0  0  0  0  0  0  0  0  0  0  0  0
  189.7150  175.4220  145.2180 C   0  0  0  0  0  0  0  0  0  0  0  0
  191.0140  172.2090  142.4460 C   0  0  0  0  0  0  0  0  0  0  0  0
  196.4410  174.1660  145.9300 C   0  0  0  0  0  1  0  0  0  0  0  0
  190.0750  174.1660  141.4110 C   0  0  0  0  0  2  0  0  0  0  0  0
  189.0670  175.3070  146.4580 C   0  0  0  0  0  3  0  0  0  0  0  0
  188.4960  177.4990  144.8420 C   0  0  0  0  0  3  0  0  0  0  0  0
  187.8710  177.3690  146.0800 C   0  0  0  0  0  3  0  0  0  0  0  0
  188.9380  176.3490  142.0560 N   0  0  0  0  0  2  0  0  0  0  0  0
  192.5060  173.5590  143.6270 N   0  0  1  0  0  0  0  0  0  0  0  0
  190.3120  173.4580  142.7380 C   0  0  2  0  0  3  0  0  0  0  0  0
  192.8030  173.3810  145.0550 C   0  0  2  0  0  3  0  0  0  0  0  0
  192.7040  171.1030  143.7300 N   0  0  0  0  0  1  0  0  0  0  0  0
  190.7420  174.3440  144.9170 C   0  0  2  0  0  3  0  0  0  0  0  0
  1 21  2  0  0  0  0
  1 16  1  0  0  0  0
  2  8  2  0  0  0  0
  3 17  2  0  0  0  0
  5 24  1  0  0  0  0
  5 27  1  1  0  0  0
  6  1  1  0  0  0  0
  8 14  1  0  0  0  0
  8  7  2  0  0  0  0
  9 18  1  0  0  0  0
  9 14  1  0  0  0  0
 10  8  1  6  0  0  0
 11 15  2  0  0  0  0
 12 24  1  0  0  0  0
 12 28  1  0  0  0  0
 13  9  2  0  0  0  0
 15 23  1  0  0  0  0
 16 20  2  0  0  0  0
 17 25  1  0  0  0  0
 17  5  1  0  0  0  0
 19 15  1  0  0  0  0
 19 25  1  0  0  0  0
 20  4  1  0  0  0  0
 21 22  1  0  0  0  0
 22  4  2  0  0  0  0
 23  6  1  0  0  0  0
 24 26  1  0  0  0  0
 25 12  1  0  0  0  0
 26 13  1  0  0  0  0
 26 10  1  0  0  0  0
 28 16  1  0  0  0  0
 28 10  1  0  0  0  0
M  END
>  <MODEL>
8

>  <REMARK>
 VINA RESULT:      -7.4      2.326      3.328
  Name = 
  0 active torsions:
  status: ('A' for Active; 'I' for Inactive)
                            x       y       z     vdW  Elec       q    Type
                         _______ _______ _______ _____ _____    ______ ____

>  <TORSDO>
F 0

$$$$
=
 OpenBabel11112417403D

 28 32  0  0  1  0  0  0  0  0999 V2000
  189.0000  176.1100  144.9800 C   0  0  0  0  0  0  0  0  0  0  0  0
  190.1940  173.6020  143.5600 O   0  0  0  0  0  0  0  0  0  0  0  0
  194.6840  177.5080  146.1110 O   0  0  0  0  0  0  0  0  0  0  0  0
  187.8150  177.9070  143.1780 C   0  0  0  0  0  3  0  0  0  0  0  0
  194.3890  175.7280  144.5670 C   0  0  1  0  0  3  0  0  0  0  0  0
  189.5590  175.2220  146.0400 C   0  0  0  0  0  2  0  0  0  0  0  0
  189.2950  174.4730  141.4410 O   0  0  0  0  0  0  0  0  0  0  0  0
  190.5470  174.1860  142.2210 S   0  0  0  0  0  0  0  0  0  0  0  0
  192.9290  173.2470  141.2630 C   0  0  0  0  0  0  0  0  0  0  0  0
  191.5120  175.6890  142.3760 C   0  0  2  0  0  3  0  0  0  0  0  0
  190.9270  177.4950  148.5340 O   0  0  0  0  0  0  0  0  0  0  0  0
  192.0170  175.7060  144.7110 N   0  0  1  0  0  0  0  0  0  0  0  0
  193.5340  174.2700  141.7910 N   0  0  0  0  0  0  0  0  0  0  0  0
  191.5200  173.0590  141.3660 N   0  0  0  0  0  2  0  0  0  0  0  0
  190.9340  176.5890  147.6620 C   0  0  0  0  0  0  0  0  0  0  0  0
  189.7890  176.7050  143.9600 C   0  0  0  0  0  0  0  0  0  0  0  0
  193.9420  176.7370  145.5200 C   0  0  0  0  0  0  0  0  0  0  0  0
  193.7270  172.2620  140.4850 C   0  0  0  0  0  1  0  0  0  0  0  0
  192.2370  176.1280  147.1020 C   0  0  0  0  0  2  0  0  0  0  0  0
  189.1730  177.6030  143.0740 C   0  0  0  0  0  3  0  0  0  0  0  0
  187.6370  176.4220  145.0710 C   0  0  0  0  0  3  0  0  0  0  0  0
  187.0450  177.3110  144.1750 C   0  0  0  0  0  3  0  0  0  0  0  0
  189.7020  175.9860  147.2680 N   0  0  0  0  0  2  0  0  0  0  0  0
  193.1430  175.1150  144.0460 N   0  0  1  0  0  0  0  0  0  0  0  0
  192.4930  176.6760  145.7050 C   0  0  2  0  0  3  0  0  0  0  0  0
  192.9600  175.3490  142.6070 C   0  0  2  0  0  3  0  0  0  0  0  0
  195.2190  176.3440  143.5340 N   0  0  0  0  0  1  0  0  0  0  0  0
  191.2520  176.4120  143.6790 C   0  0  2  0  0  3  0  0  0  0  0  0
  1 21  1  0  0  0  0
  1  6  1  0  0  0  0
  4 22  1  0  0  0  0
  5 27  1  6  0  0  0
  5 17  1  0  0  0  0
  6 23  1  0  0  0  0
  7  8  2  0  0  0  0
  8  2  2  0  0  0  0
  9 14  1  0  0  0  0
  9 13  2  0  0  0  0
 10  8  1  1  0  0  0
 10 26  1  0  0  0  0
 10 28  1  0  0  0  0
 12 25  1  0  0  0  0
 13 26  1  0  0  0  0
 14  8  1  0  0  0  0
 15 11  2  0  0  0  0
 16  1  2  0  0  0  0
 17 25  1  0  0  0  0
 17  3  2  0  0  0  0
 18  9  1  0  0  0  0
 19 15  1  0  0  0  0
 20  4  2  0  0  0  0
 20 16  1  0  0  0  0
 22 21  2  0  0  0  0
 23 15  1  0  0  0  0
 24  5  1  0  0  0  0
 24 12  1  0  0  0  0
 25 19  1  0  0  0  0
 26 24  1  0  0  0  0
 28 16  1  0  0  0  0
 28 12  1  0  0  0  0
M  END
>  <MODEL>
9

>  <REMARK>
 VINA RESULT:      -7.3      2.852      5.709
  Name = 
  0 active torsions:
  status: ('A' for Active; 'I' for Inactive)
                            x       y       z     vdW  Elec       q    Type
                         _______ _______ _______ _____ _____    ______ ____

>  <TORSDO>
F 0

$$$$
