=
 OpenBabel11112417403D

 28 32  0  0  1  0  0  0  0  0999 V2000
  191.1320  173.9020  142.7550 C   0  0  0  0  0  0  0  0  0  0  0  0
  187.8070  178.1160  143.3390 C   0  0  0  0  0  1  0  0  0  0  0  0
  193.2940  175.7570  146.3030 O   0  0  0  0  0  0  0  0  0  0  0  0
  190.2130  172.0610  144.6520 C   0  0  0  0  0  3  0  0  0  0  0  0
  191.0830  176.5180  146.5700 N   0  0  0  0  0  0  0  0  0  0  0  0
  191.6250  174.8460  141.8530 O   0  0  0  0  0  0  0  0  0  0  0  0
  186.9130  176.0340  142.4040 C   0  0  0  0  0  1  0  0  0  0  0  0
  187.2710  176.7370  143.7020 C   0  0  0  0  0  0  0  0  0  0  0  0
  186.1380  176.6470  145.9040 C   0  0  2  0  0  3  0  0  0  0  0  0
  188.3390  175.8850  144.4460 C   0  0  2  0  0  3  0  0  0  0  0  0
  194.0220  174.4830  143.7270 O   0  0  0  0  0  1  0  0  0  0  0  0
  190.6170  176.7660  144.2470 C   0  0  1  0  0  3  0  0  0  0  0  0
  187.5530  177.5420  146.6090 S   0  0  0  0  0  0  0  0  0  0  0  0
  186.0210  176.9080  144.4670 N   0  0  0  0  0  2  0  0  0  0  0  0
  193.7610  175.5170  142.8270 C   0  0  2  0  0  3  0  0  0  0  0  0
  190.1450  174.2900  143.6750 C   0  0  0  0  0  0  0  0  0  0  0  0
  192.1990  176.1270  145.8000 C   0  0  0  0  0  0  0  0  0  0  0  0
  184.8670  177.0840  146.5990 C   0  0  0  0  0  1  0  0  0  0  0  0
  193.0630  176.6990  143.5120 C   0  0  0  0  0  2  0  0  0  0  0  0
  189.7020  173.3610  144.6330 C   0  0  0  0  0  3  0  0  0  0  0  0
  191.6450  172.5980  142.7800 C   0  0  0  0  0  3  0  0  0  0  0  0
  191.1820  171.6780  143.7230 C   0  0  0  0  0  3  0  0  0  0  0  0
  193.0150  174.9970  141.5940 C   0  0  0  0  0  2  0  0  0  0  0  0
  190.1030  177.0950  145.6640 C   0  0  1  0  0  3  0  0  0  0  0  0
  191.9880  176.2720  144.4070 N   0  0  0  0  0  0  0  0  0  0  0  0
  188.7550  176.4140  145.8260 C   0  0  2  0  0  3  0  0  0  0  0  0
  191.1180  176.7700  148.0010 C   0  0  0  0  0  1  0  0  0  0  0  0
  189.6420  175.7220  143.6610 C   0  0  1  0  0  3  0  0  0  0  0  0
  1 21  2  0  0  0  0
  1 16  1  0  0  0  0
  2  8  1  0  0  0  0
  5 27  1  0  0  0  0
  6  1  1  0  0  0  0
  7  8  1  0  0  0  0
  8 14  1  0  0  0  0
  9 18  1  1  0  0  0
  9 13  1  0  0  0  0
 10  8  1  6  0  0  0
 10 26  1  0  0  0  0
 12 25  1  1  0  0  0
 12 24  1  0  0  0  0
 14  9  1  0  0  0  0
 15 19  1  0  0  0  0
 15 11  1  1  0  0  0
 16 20  2  0  0  0  0
 17  3  2  0  0  0  0
 17  5  1  0  0  0  0
 19 25  1  0  0  0  0
 20  4  1  0  0  0  0
 21 22  1  0  0  0  0
 22  4  2  0  0  0  0
 23  6  1  0  0  0  0
 23 15  1  0  0  0  0
 24 26  1  0  0  0  0
 24  5  1  1  0  0  0
 25 17  1  0  0  0  0
 26 13  1  6  0  0  0
 28 16  1  1  0  0  0
 28 12  1  0  0  0  0
 28 10  1  0  0  0  0
M  END
>  <MODEL>
1

>  <REMARK>
 VINA RESULT:      -7.8      0.000      0.000
  Name = 
  0 active torsions:
  status: ('A' for Active; 'I' for Inactive)
                            x       y       z     vdW  Elec       q    Type
                         _______ _______ _______ _____ _____    ______ ____

>  <TORSDO>
F 0

$$$$
=
 OpenBabel11112417403D

 28 32  0  0  1  0  0  0  0  0999 V2000
  188.6190  177.1010  144.6440 C   0  0  0  0  0  0  0  0  0  0  0  0
  193.5330  175.9850  142.7040 C   0  0  0  0  0  1  0  0  0  0  0  0
  187.4130  173.3610  142.3510 O   0  0  0  0  0  0  0  0  0  0  0  0
  188.3960  175.4420  146.8880 C   0  0  0  0  0  3  0  0  0  0  0  0
  189.6920  172.9920  142.8110 N   0  0  0  0  0  0  0  0  0  0  0  0
  188.7100  177.8820  143.4910 O   0  0  0  0  0  0  0  0  0  0  0  0
  193.3540  177.1660  144.8450 C   0  0  0  0  0  1  0  0  0  0  0  0
  193.3020  175.7930  144.1980 C   0  0  0  0  0  0  0  0  0  0  0  0
  194.1010  173.6140  145.0660 C   0  0  2  0  0  3  0  0  0  0  0  0
  191.9080  175.1650  144.4860 C   0  0  2  0  0  3  0  0  0  0  0  0
  186.3250  176.0780  142.8210 O   0  0  0  0  0  1  0  0  0  0  0  0
  190.3690  175.2640  142.5820 C   0  0  1  0  0  3  0  0  0  0  0  0
  193.2610  172.8100  143.6700 S   0  0  0  0  0  0  0  0  0  0  0  0
  194.4240  175.0070  144.7460 N   0  0  0  0  0  2  0  0  0  0  0  0
  187.1150  176.8430  141.9620 C   0  0  2  0  0  3  0  0  0  0  0  0
  189.6070  176.1360  144.8920 C   0  0  0  0  0  0  0  0  0  0  0  0
  188.5800  173.8090  142.5180 C   0  0  0  0  0  0  0  0  0  0  0  0
  195.3760  172.8640  145.3880 C   0  0  0  0  0  1  0  0  0  0  0  0
  188.2560  176.0140  141.3570 C   0  0  0  0  0  2  0  0  0  0  0  0
  189.4780  175.2980  146.0140 C   0  0  0  0  0  3  0  0  0  0  0  0
  187.5340  177.2400  145.5210 C   0  0  0  0  0  3  0  0  0  0  0  0
  187.4270  176.4160  146.6430 C   0  0  0  0  0  3  0  0  0  0  0  0
  187.5900  178.1260  142.6490 C   0  0  0  0  0  2  0  0  0  0  0  0
  190.8860  173.8150  142.7000 C   0  0  1  0  0  3  0  0  0  0  0  0
  188.9240  175.1730  142.3500 N   0  0  0  0  0  0  0  0  0  0  0  0
  191.7150  173.7330  143.9700 C   0  0  2  0  0  3  0  0  0  0  0  0
  189.6910  171.5410  142.7260 C   0  0  0  0  0  1  0  0  0  0  0  0
  190.7460  175.9700  143.9020 C   0  0  1  0  0  3  0  0  0  0  0  0
  1 16  2  0  0  0  0
  1 21  1  0  0  0  0
  2  8  1  0  0  0  0
  3 17  2  0  0  0  0
  6  1  1  0  0  0  0
  8 14  1  0  0  0  0
  8  7  1  0  0  0  0
  9 18  1  6  0  0  0
 10  8  1  6  0  0  0
 12 25  1  1  0  0  0
 12 24  1  0  0  0  0
 12 28  1  0  0  0  0
 13  9  1  0  0  0  0
 14  9  1  0  0  0  0
 15 23  1  0  0  0  0
 15 11  1  1  0  0  0
 16 20  1  0  0  0  0
 17  5  1  0  0  0  0
 19 15  1  0  0  0  0
 19 25  1  0  0  0  0
 20  4  2  0  0  0  0
 21 22  2  0  0  0  0
 22  4  1  0  0  0  0
 23  6  1  0  0  0  0
 24  5  1  1  0  0  0
 24 26  1  0  0  0  0
 25 17  1  0  0  0  0
 26 13  1  6  0  0  0
 26 10  1  0  0  0  0
 27  5  1  0  0  0  0
 28 10  1  0  0  0  0
 28 16  1  1  0  0  0
M  END
>  <MODEL>
2

>  <REMARK>
 VINA RESULT:      -7.7      2.986      6.123
  Name = 
  0 active torsions:
  status: ('A' for Active; 'I' for Inactive)
                            x       y       z     vdW  Elec       q    Type
                         _______ _______ _______ _____ _____    ______ ____

>  <TORSDO>
F 0

$$$$
=
 OpenBabel11112417403D

 28 32  0  0  1  0  0  0  0  0999 V2000
  190.8330  175.1800  144.2440 C   0  0  0  0  0  0  0  0  0  0  0  0
  185.7380  176.3950  145.5520 C   0  0  0  0  0  1  0  0  0  0  0  0
  189.0810  174.5120  140.0980 O   0  0  0  0  0  0  0  0  0  0  0  0
  191.8180  177.5490  143.1270 C   0  0  0  0  0  3  0  0  0  0  0  0
  187.5960  176.0630  141.0610 N   0  0  0  0  0  0  0  0  0  0  0  0
  190.3210  173.9820  144.7460 O   0  0  0  0  0  0  0  0  0  0  0  0
  187.5570  177.4490  146.8100 C   0  0  0  0  0  1  0  0  0  0  0  0
  186.7510  177.5320  145.5260 C   0  0  0  0  0  0  0  0  0  0  0  0
  185.9890  179.5290  144.2730 C   0  0  2  0  0  3  0  0  0  0  0  0
  187.7270  177.4020  144.3220 C   0  0  2  0  0  3  0  0  0  0  0  0
  191.0440  173.1820  141.8780 O   0  0  0  0  0  1  0  0  0  0  0  0
  187.7120  175.1870  143.2730 C   0  0  1  0  0  3  0  0  0  0  0  0
  185.4820  178.4240  142.9240 S   0  0  0  0  0  0  0  0  0  0  0  0
  186.0180  178.8110  145.5510 N   0  0  0  0  0  2  0  0  0  0  0  0
  190.2000  172.5360  142.7830 C   0  0  2  0  0  3  0  0  0  0  0  0
  189.9550  176.2450  143.9980 C   0  0  0  0  0  0  0  0  0  0  0  0
  188.4880  174.9710  141.1110 C   0  0  0  0  0  0  0  0  0  0  0  0
  185.0190  180.6870  144.3700 C   0  0  0  0  0  1  0  0  0  0  0  0
  188.7360  172.9510  142.5840 C   0  0  0  0  0  2  0  0  0  0  0  0
  190.4570  177.4260  143.4230 C   0  0  0  0  0  3  0  0  0  0  0  0
  192.1970  175.3050  143.9430 C   0  0  0  0  0  3  0  0  0  0  0  0
  192.6870  176.4900  143.3900 C   0  0  0  0  0  3  0  0  0  0  0  0
  190.6960  172.7150  144.2200 C   0  0  0  0  0  2  0  0  0  0  0  0
  186.9350  176.1530  142.3540 C   0  0  1  0  0  3  0  0  0  0  0  0
  188.5830  174.3940  142.4010 N   0  0  0  0  0  0  0  0  0  0  0  0
  187.0830  177.5480  142.9370 C   0  0  2  0  0  3  0  0  0  0  0  0
  187.0690  176.6400  139.8350 C   0  0  0  0  0  1  0  0  0  0  0  0
  188.4750  176.0670  144.2860 C   0  0  1  0  0  3  0  0  0  0  0  0
  1  6  1  0  0  0  0
  3 17  2  0  0  0  0
  4 22  2  0  0  0  0
  4 20  1  0  0  0  0
  5 17  1  0  0  0  0
  8 14  1  0  0  0  0
  8  2  1  0  0  0  0
  8  7  1  0  0  0  0
  9 18  1  1  0  0  0
  9 14  1  0  0  0  0
 10  8  1  1  0  0  0
 12 25  1  6  0  0  0
 12 28  1  0  0  0  0
 13  9  1  0  0  0  0
 15 11  1  6  0  0  0
 15 23  1  0  0  0  0
 16  1  1  0  0  0  0
 17 25  1  0  0  0  0
 19 15  1  0  0  0  0
 20 16  2  0  0  0  0
 21  1  2  0  0  0  0
 22 21  1  0  0  0  0
 23  6  1  0  0  0  0
 24  5  1  6  0  0  0
 24 26  1  0  0  0  0
 24 12  1  0  0  0  0
 25 19  1  0  0  0  0
 26 13  1  1  0  0  0
 26 10  1  0  0  0  0
 27  5  1  0  0  0  0
 28 16  1  6  0  0  0
 28 10  1  0  0  0  0
M  END
>  <MODEL>
3

>  <REMARK>
 VINA RESULT:      -7.2      2.327      4.530
  Name = 
  0 active torsions:
  status: ('A' for Active; 'I' for Inactive)
                            x       y       z     vdW  Elec       q    Type
                         _______ _______ _______ _____ _____    ______ ____

>  <TORSDO>
F 0

$$$$
=
 OpenBabel11112417403D

 28 32  0  0  1  0  0  0  0  0999 V2000
  188.9410  175.6650  145.4700 C   0  0  0  0  0  0  0  0  0  0  0  0
  190.4720  171.5490  142.3290 C   0  0  0  0  0  1  0  0  0  0  0  0
  193.2760  176.9710  145.0130 O   0  0  0  0  0  0  0  0  0  0  0  0
  188.4320  177.7350  143.6560 C   0  0  0  0  0  3  0  0  0  0  0  0
  192.8890  175.7140  143.0610 N   0  0  0  0  0  0  0  0  0  0  0  0
  189.2540  174.6500  146.3760 O   0  0  0  0  0  0  0  0  0  0  0  0
  188.1370  172.2910  142.2400 C   0  0  0  0  0  1  0  0  0  0  0  0
  189.5350  172.5880  141.7260 C   0  0  0  0  0  0  0  0  0  0  0  0
  190.2500  173.4160  139.5020 C   0  0  2  0  0  3  0  0  0  0  0  0
  189.9230  174.0300  142.1610 C   0  0  2  0  0  3  0  0  0  0  0  0
  191.2580  176.8240  147.1800 O   0  0  0  0  0  1  0  0  0  0  0  0
  191.4530  174.1060  144.0740 C   0  0  1  0  0  3  0  0  0  0  0  0
  191.9190  173.6440  140.1830 S   0  0  0  0  0  0  0  0  0  0  0  0
  189.5120  172.4030  140.2630 N   0  0  0  0  0  2  0  0  0  0  0  0
  191.2750  175.4610  147.4790 C   0  0  2  0  0  3  0  0  0  0  0  0
  189.2750  175.4970  144.1180 C   0  0  0  0  0  0  0  0  0  0  0  0
  192.7030  176.0130  144.4270 C   0  0  0  0  0  0  0  0  0  0  0  0
  190.3480  172.9840  138.0550 C   0  0  0  0  0  1  0  0  0  0  0  0
  192.1250  174.6740  146.4720 C   0  0  0  0  0  2  0  0  0  0  0  0
  189.0290  176.5490  143.2180 C   0  0  0  0  0  3  0  0  0  0  0  0
  188.3460  176.8570  145.9070 C   0  0  0  0  0  3  0  0  0  0  0  0
  188.0880  177.8870  145.0000 C   0  0  0  0  0  3  0  0  0  0  0  0
  189.8530  174.9160  147.6380 C   0  0  0  0  0  2  0  0  0  0  0  0
  192.2670  174.4250  142.8020 C   0  0  1  0  0  3  0  0  0  0  0  0
  191.8710  175.0770  145.0890 N   0  0  0  0  0  0  0  0  0  0  0  0
  191.2830  174.5260  141.6490 C   0  0  2  0  0  3  0  0  0  0  0  0
  193.9200  176.3040  142.2230 C   0  0  0  0  0  1  0  0  0  0  0  0
  189.9650  174.2180  143.6790 C   0  0  1  0  0  3  0  0  0  0  0  0
  1 21  1  0  0  0  0
  1  6  1  0  0  0  0
  4 22  1  0  0  0  0
  5 17  1  0  0  0  0
  6 23  1  0  0  0  0
  8  7  1  0  0  0  0
  8  2  1  0  0  0  0
  9 18  1  6  0  0  0
  9 13  1  0  0  0  0
  9 14  1  0  0  0  0
 10  8  1  1  0  0  0
 10 28  1  0  0  0  0
 12 25  1  1  0  0  0
 14  8  1  0  0  0  0
 15 11  1  6  0  0  0
 15 23  1  0  0  0  0
 16  1  2  0  0  0  0
 17  3  2  0  0  0  0
 17 25  1  0  0  0  0
 19 15  1  0  0  0  0
 20  4  2  0  0  0  0
 20 16  1  0  0  0  0
 22 21  2  0  0  0  0
 24  5  1  1  0  0  0
 24 12  1  0  0  0  0
 25 19  1  0  0  0  0
 26 13  1  6  0  0  0
 26 10  1  0  0  0  0
 26 24  1  0  0  0  0
 27  5  1  0  0  0  0
 28 12  1  0  0  0  0
 28 16  1  6  0  0  0
M  END
>  <MODEL>
4

>  <REMARK>
 VINA RESULT:      -7.1      2.823      5.461
  Name = 
  0 active torsions:
  status: ('A' for Active; 'I' for Inactive)
                            x       y       z     vdW  Elec       q    Type
                         _______ _______ _______ _____ _____    ______ ____

>  <TORSDO>
F 0

$$$$
=
 OpenBabel11112417403D

 28 32  0  0  1  0  0  0  0  0999 V2000
  186.3760  176.8940  143.9260 C   0  0  0  0  0  0  0  0  0  0  0  0
  189.0790  172.2930  143.1050 C   0  0  0  0  0  1  0  0  0  0  0  0
  190.0660  178.0470  146.3260 O   0  0  0  0  0  0  0  0  0  0  0  0
  187.4350  178.6400  142.0120 C   0  0  0  0  0  3  0  0  0  0  0  0
  190.9050  176.4890  144.7750 N   0  0  0  0  0  0  0  0  0  0  0  0
  185.8940  176.0410  144.9190 O   0  0  0  0  0  0  0  0  0  0  0  0
  187.4850  173.0410  141.4000 C   0  0  0  0  0  1  0  0  0  0  0  0
  188.9010  173.2300  141.9170 C   0  0  0  0  0  0  0  0  0  0  0  0
  190.9900  173.6650  140.6590 C   0  0  2  0  0  3  0  0  0  0  0  0
  189.0800  174.7180  142.3300 C   0  0  2  0  0  3  0  0  0  0  0  0
  187.1240  178.2910  146.5960 O   0  0  0  0  0  1  0  0  0  0  0  0
  188.9760  175.0910  144.7500 C   0  0  1  0  0  3  0  0  0  0  0  0
  191.8170  173.9820  142.2460 S   0  0  0  0  0  0  0  0  0  0  0  0
  189.8190  172.8040  140.8450 N   0  0  0  0  0  2  0  0  0  0  0  0
  186.7770  176.9960  146.9850 C   0  0  2  0  0  3  0  0  0  0  0  0
  187.4910  176.4990  143.1720 C   0  0  0  0  0  0  0  0  0  0  0  0
  189.9070  177.0130  145.6230 C   0  0  0  0  0  0  0  0  0  0  0  0
  191.9600  172.9980  139.7080 C   0  0  0  0  0  1  0  0  0  0  0  0
  187.9740  176.0410  146.8990 C   0  0  0  0  0  2  0  0  0  0  0  0
  188.0240  177.3900  142.2230 C   0  0  0  0  0  3  0  0  0  0  0  0
  185.7900  178.1510  143.7140 C   0  0  0  0  0  3  0  0  0  0  0  0
  186.3160  179.0180  142.7550 C   0  0  0  0  0  3  0  0  0  0  0  0
  185.5460  176.5040  146.2180 C   0  0  0  0  0  2  0  0  0  0  0  0
  190.4550  175.1830  144.3180 C   0  0  1  0  0  3  0  0  0  0  0  0
  188.7400  176.2120  145.6650 N   0  0  0  0  0  0  0  0  0  0  0  0
  190.4890  175.1040  142.8010 C   0  0  2  0  0  3  0  0  0  0  0  0
  192.2940  176.9170  144.7750 C   0  0  0  0  0  1  0  0  0  0  0  0
  188.1390  175.1560  143.4550 C   0  0  1  0  0  3  0  0  0  0  0  0
  1  6  1  0  0  0  0
  4 20  2  0  0  0  0
  4 22  1  0  0  0  0
  5 27  1  0  0  0  0
  5 17  1  0  0  0  0
  6 23  1  0  0  0  0
  7  8  1  0  0  0  0
  8  2  1  0  0  0  0
  9 18  1  6  0  0  0
  9 14  1  0  0  0  0
  9 13  1  0  0  0  0
 10  8  1  1  0  0  0
 10 26  1  0  0  0  0
 10 28  1  0  0  0  0
 12 25  1  1  0  0  0
 14  8  1  0  0  0  0
 15 11  1  6  0  0  0
 16  1  2  0  0  0  0
 17 25  1  0  0  0  0
 17  3  2  0  0  0  0
 19 15  1  0  0  0  0
 20 16  1  0  0  0  0
 21  1  1  0  0  0  0
 22 21  2  0  0  0  0
 23 15  1  0  0  0  0
 24 12  1  0  0  0  0
 24  5  1  6  0  0  0
 25 19  1  0  0  0  0
 26 13  1  1  0  0  0
 26 24  1  0  0  0  0
 28 16  1  6  0  0  0
 28 12  1  0  0  0  0
M  END
>  <MODEL>
5

>  <REMARK>
 VINA RESULT:      -6.9      2.995      5.940
  Name = 
  0 active torsions:
  status: ('A' for Active; 'I' for Inactive)
                            x       y       z     vdW  Elec       q    Type
                         _______ _______ _______ _____ _____    ______ ____

>  <TORSDO>
F 0

$$$$
=
 OpenBabel11112417403D

 28 32  0  0  1  0  0  0  0  0999 V2000
  193.2330  174.8610  144.3480 C   0  0  0  0  0  0  0  0  0  0  0  0
  188.1900  175.7090  146.0830 C   0  0  0  0  0  1  0  0  0  0  0  0
  191.2020  172.1140  141.3430 O   0  0  0  0  0  0  0  0  0  0  0  0
  193.4830  176.5880  142.1590 C   0  0  0  0  0  3  0  0  0  0  0  0
  189.5170  173.6740  141.8610 N   0  0  0  0  0  0  0  0  0  0  0  0
  193.0840  173.9580  145.4010 O   0  0  0  0  0  0  0  0  0  0  0  0
  189.8460  177.4940  146.3640 C   0  0  0  0  0  1  0  0  0  0  0  0
  188.8940  176.8550  145.3680 C   0  0  0  0  0  0  0  0  0  0  0  0
  187.5330  177.9160  143.5890 C   0  0  2  0  0  3  0  0  0  0  0  0
  189.7200  176.3490  144.1510 C   0  0  2  0  0  3  0  0  0  0  0  0
  193.6250  172.0690  143.0500 O   0  0  0  0  0  1  0  0  0  0  0  0
  190.1050  173.9290  144.1560 C   0  0  1  0  0  3  0  0  0  0  0  0
  187.1440  176.2530  142.9690 S   0  0  0  0  0  0  0  0  0  0  0  0
  187.8860  177.8710  145.0110 N   0  0  0  0  0  2  0  0  0  0  0  0
  193.0740  171.7800  144.2990 C   0  0  2  0  0  3  0  0  0  0  0  0
  192.1030  175.5440  143.8720 C   0  0  0  0  0  0  0  0  0  0  0  0
  190.6430  172.8820  142.1710 C   0  0  0  0  0  0  0  0  0  0  0  0
  186.3350  178.8200  143.3970 C   0  0  0  0  0  1  0  0  0  0  0  0
  191.5410  171.8200  144.2630 C   0  0  0  0  0  2  0  0  0  0  0  0
  192.2370  176.3970  142.7630 C   0  0  0  0  0  3  0  0  0  0  0  0
  194.4800  175.0520  143.7370 C   0  0  0  0  0  3  0  0  0  0  0  0
  194.6050  175.9170  142.6490 C   0  0  0  0  0  3  0  0  0  0  0  0
  193.6840  172.6690  145.3870 C   0  0  0  0  0  2  0  0  0  0  0  0
  189.0160  174.2350  143.1050 C   0  0  1  0  0  3  0  0  0  0  0  0
  191.0280  172.9770  143.5310 N   0  0  0  0  0  0  0  0  0  0  0  0
  188.8970  175.7460  143.0040 C   0  0  2  0  0  3  0  0  0  0  0  0
  188.7240  173.5390  140.6500 C   0  0  0  0  0  1  0  0  0  0  0  0
  190.7540  175.2830  144.5180 C   0  0  1  0  0  3  0  0  0  0  0  0
  1  6  1  0  0  0  0
  3 17  2  0  0  0  0
  4 22  2  0  0  0  0
  4 20  1  0  0  0  0
  5 17  1  0  0  0  0
  8  2  1  0  0  0  0
  8  7  1  0  0  0  0
  9 18  1  1  0  0  0
  9 14  1  0  0  0  0
 10 28  1  0  0  0  0
 10  8  1  1  0  0  0
 12 25  1  6  0  0  0
 12 28  1  0  0  0  0
 13  9  1  0  0  0  0
 14  8  1  0  0  0  0
 15 11  1  6  0  0  0
 15 23  1  0  0  0  0
 16  1  1  0  0  0  0
 17 25  1  0  0  0  0
 19 15  1  0  0  0  0
 20 16  2  0  0  0  0
 21  1  2  0  0  0  0
 22 21  1  0  0  0  0
 23  6  1  0  0  0  0
 24  5  1  6  0  0  0
 24 12  1  0  0  0  0
 25 19  1  0  0  0  0
 26 13  1  1  0  0  0
 26 24  1  0  0  0  0
 26 10  1  0  0  0  0
 27  5  1  0  0  0  0
 28 16  1  6  0  0  0
M  END
>  <MODEL>
6

>  <REMARK>
 VINA RESULT:      -6.7      2.049      4.274
  Name = 
  0 active torsions:
  status: ('A' for Active; 'I' for Inactive)
                            x       y       z     vdW  Elec       q    Type
                         _______ _______ _______ _____ _____    ______ ____

>  <TORSDO>
F 0

$$$$
=
 OpenBabel11112417403D

 28 32  0  0  1  0  0  0  0  0999 V2000
  191.8750  173.2820  141.9220 C   0  0  0  0  0  0  0  0  0  0  0  0
  188.8720  177.6400  142.9890 C   0  0  0  0  0  1  0  0  0  0  0  0
  194.8370  175.2470  144.7630 O   0  0  0  0  0  0  0  0  0  0  0  0
  191.3740  171.5810  144.0870 C   0  0  0  0  0  3  0  0  0  0  0  0
  192.7650  176.1010  145.4800 N   0  0  0  0  0  0  0  0  0  0  0  0
  192.1700  174.1570  140.8750 O   0  0  0  0  0  0  0  0  0  0  0  0
  187.7390  175.5450  142.4120 C   0  0  0  0  0  1  0  0  0  0  0  0
  188.4020  176.3040  143.5480 C   0  0  0  0  0  0  0  0  0  0  0  0
  187.8030  176.3750  145.9520 C   0  0  2  0  0  3  0  0  0  0  0  0
  189.5920  175.4550  144.0800 C   0  0  2  0  0  3  0  0  0  0  0  0
  194.9240  173.8090  142.1720 O   0  0  0  0  0  1  0  0  0  0  0  0
  191.7840  176.2390  143.3130 C   0  0  1  0  0  3  0  0  0  0  0  0
  189.3630  177.2540  146.2590 S   0  0  0  0  0  0  0  0  0  0  0  0
  187.3660  176.5620  144.5650 N   0  0  0  0  0  2  0  0  0  0  0  0
  194.4880  174.8010  141.2930 C   0  0  2  0  0  3  0  0  0  0  0  0
  191.1360  173.7550  143.0160 C   0  0  0  0  0  0  0  0  0  0  0  0
  193.6650  175.6280  144.5010 C   0  0  0  0  0  0  0  0  0  0  0  0
  186.7360  176.8950  146.8900 C   0  0  0  0  0  1  0  0  0  0  0  0
  193.9930  176.0440  142.0460 C   0  0  0  0  0  2  0  0  0  0  0  0
  190.9030  172.8970  144.1050 C   0  0  0  0  0  3  0  0  0  0  0  0
  192.3500  171.9630  141.9080 C   0  0  0  0  0  3  0  0  0  0  0  0
  192.0950  171.1140  142.9870 C   0  0  0  0  0  3  0  0  0  0  0  0
  193.4670  174.2430  140.2970 C   0  0  0  0  0  2  0  0  0  0  0  0
  191.6160  176.6640  144.7870 C   0  0  1  0  0  3  0  0  0  0  0  0
  193.1430  175.7050  143.1870 N   0  0  0  0  0  0  0  0  0  0  0  0
  190.3260  176.0420  145.2930 C   0  0  2  0  0  3  0  0  0  0  0  0
  193.1330  176.4290  146.8470 C   0  0  0  0  0  1  0  0  0  0  0  0
  190.6760  175.2020  143.0300 C   0  0  1  0  0  3  0  0  0  0  0  0
  1 16  1  0  0  0  0
  2  8  1  0  0  0  0
  4 20  1  0  0  0  0
  5 27  1  0  0  0  0
  6  1  1  0  0  0  0
  7  8  1  0  0  0  0
  8 14  1  0  0  0  0
  9 13  1  0  0  0  0
  9 18  1  1  0  0  0
 10  8  1  6  0  0  0
 10 26  1  0  0  0  0
 12 25  1  1  0  0  0
 12 24  1  0  0  0  0
 14  9  1  0  0  0  0
 15 19  1  0  0  0  0
 15 11  1  1  0  0  0
 16 20  2  0  0  0  0
 17  3  2  0  0  0  0
 17  5  1  0  0  0  0
 19 25  1  0  0  0  0
 21  1  2  0  0  0  0
 21 22  1  0  0  0  0
 22  4  2  0  0  0  0
 23  6  1  0  0  0  0
 23 15  1  0  0  0  0
 24 26  1  0  0  0  0
 24  5  1  1  0  0  0
 25 17  1  0  0  0  0
 26 13  1  6  0  0  0
 28 16  1  1  0  0  0
 28 12  1  0  0  0  0
 28 10  1  0  0  0  0
M  END
>  <MODEL>
7

>  <REMARK>
 VINA RESULT:      -6.7      1.373      1.639
  Name = 
  0 active torsions:
  status: ('A' for Active; 'I' for Inactive)
                            x       y       z     vdW  Elec       q    Type
                         _______ _______ _______ _____ _____    ______ ____

>  <TORSDO>
F 0

$$$$
=
 OpenBabel11112417403D

 28 32  0  0  1  0  0  0  0  0999 V2000
  195.9970  174.7060  144.9840 C   0  0  0  0  0  0  0  0  0  0  0  0
  191.2990  175.0750  147.6190 C   0  0  0  0  0  1  0  0  0  0  0  0
  193.8850  171.3820  142.7060 O   0  0  0  0  0  0  0  0  0  0  0  0
  195.5670  176.1830  142.6450 C   0  0  0  0  0  3  0  0  0  0  0  0
  192.1090  172.7540  143.4130 N   0  0  0  0  0  0  0  0  0  0  0  0
  196.1890  173.9210  146.1210 O   0  0  0  0  0  0  0  0  0  0  0  0
  192.6850  177.0850  147.4000 C   0  0  0  0  0  1  0  0  0  0  0  0
  191.6730  176.2130  146.6770 C   0  0  0  0  0  0  0  0  0  0  0  0
  189.8570  176.8680  145.1230 C   0  0  2  0  0  3  0  0  0  0  0  0
  192.3250  175.6820  145.3690 C   0  0  2  0  0  3  0  0  0  0  0  0
  196.5620  171.8580  143.8870 O   0  0  0  0  0  1  0  0  0  0  0  0
  193.0690  173.3520  145.5100 C   0  0  1  0  0  3  0  0  0  0  0  0
  189.6190  175.1070  144.7450 S   0  0  0  0  0  0  0  0  0  0  0  0
  190.4730  177.0380  146.4430 N   0  0  0  0  0  2  0  0  0  0  0  0
  196.3060  171.6460  145.2420 C   0  0  2  0  0  3  0  0  0  0  0  0
  194.7080  175.1730  144.6880 C   0  0  0  0  0  0  0  0  0  0  0  0
  193.3800  172.1610  143.5590 C   0  0  0  0  0  0  0  0  0  0  0  0
  188.5210  177.5770  145.0970 C   0  0  0  0  0  1  0  0  0  0  0  0
  194.8050  171.4780  145.5130 C   0  0  0  0  0  2  0  0  0  0  0  0
  194.5000  175.9010  143.5030 C   0  0  0  0  0  3  0  0  0  0  0  0
  197.0650  174.9880  144.1200 C   0  0  0  0  0  3  0  0  0  0  0  0
  196.8500  175.7290  142.9560 C   0  0  0  0  0  3  0  0  0  0  0  0
  196.9650  172.7290  146.1010 C   0  0  0  0  0  2  0  0  0  0  0  0
  191.7690  173.3860  144.6790 C   0  0  1  0  0  3  0  0  0  0  0  0
  193.9940  172.4640  144.7990 N   0  0  0  0  0  0  0  0  0  0  0  0
  191.4040  174.8460  144.4700 C   0  0  2  0  0  3  0  0  0  0  0  0
  191.1340  172.3740  142.4040 C   0  0  0  0  0  1  0  0  0  0  0  0
  193.5590  174.8120  145.6120 C   0  0  1  0  0  3  0  0  0  0  0  0
  1  6  1  0  0  0  0
  3 17  2  0  0  0  0
  4 22  2  0  0  0  0
  4 20  1  0  0  0  0
  5 17  1  0  0  0  0
  8  7  1  0  0  0  0
  8  2  1  0  0  0  0
  9 18  1  1  0  0  0
  9 14  1  0  0  0  0
 10 28  1  0  0  0  0
 10  8  1  1  0  0  0
 12 25  1  6  0  0  0
 12 28  1  0  0  0  0
 13  9  1  0  0  0  0
 14  8  1  0  0  0  0
 15 11  1  6  0  0  0
 15 19  1  0  0  0  0
 15 23  1  0  0  0  0
 16  1  1  0  0  0  0
 17 25  1  0  0  0  0
 20 16  2  0  0  0  0
 21  1  2  0  0  0  0
 22 21  1  0  0  0  0
 23  6  1  0  0  0  0
 24  5  1  6  0  0  0
 24 12  1  0  0  0  0
 25 19  1  0  0  0  0
 26 24  1  0  0  0  0
 26 13  1  1  0  0  0
 26 10  1  0  0  0  0
 27  5  1  0  0  0  0
 28 16  1  6  0  0  0
M  END
>  <MODEL>
8

>  <REMARK>
 VINA RESULT:      -6.7      2.857      5.357
  Name = 
  0 active torsions:
  status: ('A' for Active; 'I' for Inactive)
                            x       y       z     vdW  Elec       q    Type
                         _______ _______ _______ _____ _____    ______ ____

>  <TORSDO>
F 0

$$$$
=
 OpenBabel11112417403D

 28 32  0  0  1  0  0  0  0  0999 V2000
  190.6100  175.8520  145.0380 C   0  0  0  0  0  0  0  0  0  0  0  0
  190.7500  171.2900  142.1530 C   0  0  0  0  0  1  0  0  0  0  0  0
  194.8810  176.3360  143.5440 O   0  0  0  0  0  0  0  0  0  0  0  0
  190.0330  177.8250  143.1380 C   0  0  0  0  0  3  0  0  0  0  0  0
  193.8800  175.0120  141.8760 N   0  0  0  0  0  0  0  0  0  0  0  0
  190.9580  174.8760  145.9720 O   0  0  0  0  0  0  0  0  0  0  0  0
  188.5970  172.4200  142.4630 C   0  0  0  0  0  1  0  0  0  0  0  0
  189.8730  172.4250  141.6390 C   0  0  0  0  0  0  0  0  0  0  0  0
  190.1910  172.9310  139.2340 C   0  0  2  0  0  3  0  0  0  0  0  0
  190.5660  173.8070  141.8120 C   0  0  2  0  0  3  0  0  0  0  0  0
  193.4000  176.7220  146.0840 O   0  0  0  0  0  1  0  0  0  0  0  0
  192.4770  173.7690  143.3460 C   0  0  1  0  0  3  0  0  0  0  0  0
  191.9850  172.9180  139.5240 S   0  0  0  0  0  0  0  0  0  0  0  0
  189.4960  172.1290  140.2450 N   0  0  0  0  0  2  0  0  0  0  0  0
  193.2750  175.4060  146.5310 C   0  0  2  0  0  3  0  0  0  0  0  0
  190.6040  175.5190  143.6750 C   0  0  0  0  0  0  0  0  0  0  0  0
  194.0520  175.4490  143.2060 C   0  0  0  0  0  0  0  0  0  0  0  0
  189.8970  172.3730  137.8590 C   0  0  0  0  0  1  0  0  0  0  0  0
  193.7460  174.4020  145.4700 C   0  0  0  0  0  2  0  0  0  0  0  0
  190.3280  176.5210  142.7280 C   0  0  0  0  0  3  0  0  0  0  0  0
  190.3180  177.1620  145.4450 C   0  0  0  0  0  3  0  0  0  0  0  0
  190.0250  178.1430  144.4970 C   0  0  0  0  0  3  0  0  0  0  0  0
  191.8570  175.1330  147.0430 C   0  0  0  0  0  2  0  0  0  0  0  0
  193.0250  173.8360  141.9040 C   0  0  1  0  0  3  0  0  0  0  0  0
  193.2560  174.7310  144.1310 N   0  0  0  0  0  0  0  0  0  0  0  0
  191.8360  174.0130  140.9760 C   0  0  2  0  0  3  0  0  0  0  0  0
  194.7760  175.3420  140.7790 C   0  0  0  0  0  1  0  0  0  0  0  0
  190.9730  174.1080  143.2560 C   0  0  1  0  0  3  0  0  0  0  0  0
  1 21  1  0  0  0  0
  1  6  1  0  0  0  0
  4 22  1  0  0  0  0
  5 17  1  0  0  0  0
  6 23  1  0  0  0  0
  8  2  1  0  0  0  0
  8  7  1  0  0  0  0
  9 18  1  6  0  0  0
  9 13  1  0  0  0  0
  9 14  1  0  0  0  0
 10  8  1  1  0  0  0
 10 28  1  0  0  0  0
 12 25  1  1  0  0  0
 14  8  1  0  0  0  0
 15 11  1  6  0  0  0
 15 23  1  0  0  0  0
 16  1  2  0  0  0  0
 17  3  2  0  0  0  0
 17 25  1  0  0  0  0
 19 15  1  0  0  0  0
 20  4  2  0  0  0  0
 20 16  1  0  0  0  0
 22 21  2  0  0  0  0
 24  5  1  1  0  0  0
 24 12  1  0  0  0  0
 25 19  1  0  0  0  0
 26 13  1  6  0  0  0
 26 10  1  0  0  0  0
 26 24  1  0  0  0  0
 27  5  1  0  0  0  0
 28 12  1  0  0  0  0
 28 16  1  6  0  0  0
M  END
>  <MODEL>
9

>  <REMARK>
 VINA RESULT:      -6.5      3.257      5.646
  Name = 
  0 active torsions:
  status: ('A' for Active; 'I' for Inactive)
                            x       y       z     vdW  Elec       q    Type
                         _______ _______ _______ _____ _____    ______ ____

>  <TORSDO>
F 0

$$$$
