=
 OpenBabel11112416363D

 32 37  0  0  1  0  0  0  0  0999 V2000
  185.3050  179.4010  143.5740 C   0  0  0  0  0  2  0  0  0  0  0  0
  189.3250  175.7600  143.8020 C   0  0  2  0  0  3  0  0  0  0  0  0
  189.6020  173.4660  139.5020 C   0  0  0  0  0  3  0  0  0  0  0  0
  191.0230  173.0480  139.7470 C   0  0  0  0  0  2  0  0  0  0  0  0
  191.3220  175.6820  145.3550 C   0  0  0  0  0  0  0  0  0  0  0  0
  192.7660  175.5800  145.5190 C   0  0  0  0  0  0  0  0  0  0  0  0
  187.3280  177.2170  144.2230 C   0  0  2  0  0  3  0  0  0  0  0  0
  187.4610  175.8900  142.2050 C   0  0  0  0  0  2  0  0  0  0  0  0
  194.8460  175.0760  145.0540 N   0  0  0  0  0  0  0  0  0  0  0  0
  185.5080  177.0230  142.6980 C   0  0  0  0  0  2  0  0  0  0  0  0
  188.9390  174.2190  140.3840 C   0  0  0  0  0  3  0  0  0  0  0  0
  188.9830  175.8220  142.3180 C   0  0  2  0  0  3  0  0  0  0  0  0
  189.5670  174.6880  141.5940 N   0  0  0  0  0  0  0  0  0  0  0  0
  191.6480  175.2180  142.8770 C   0  0  2  0  0  3  0  0  0  0  0  0
  194.9360  175.4570  146.3600 O   0  0  0  0  0  0  0  0  0  0  0  0
  185.5580  178.7670  144.7960 O   0  0  0  0  0  0  0  0  0  0  0  0
  186.9600  177.1370  142.7900 N   0  0  1  0  0  0  0  0  0  0  0  0
  193.6110  175.8480  146.7100 C   0  0  0  0  0  2  0  0  0  0  0  0
  186.9440  178.5770  144.8160 C   0  0  0  0  0  2  0  0  0  0  0  0
  184.8460  178.3900  142.5190 C   0  0  1  0  0  3  0  0  0  0  0  0
  191.7430  174.0680  140.6210 C   0  0  0  0  0  2  0  0  0  0  0  0
  190.9410  174.2550  141.9100 C   0  0  2  0  0  3  0  0  0  0  0  0
  193.0070  174.6010  143.2880 C   0  0  0  0  0  2  0  0  0  0  0  0
  188.8430  177.0700  144.4170 C   0  0  0  0  0  2  0  0  0  0  0  0
  190.5860  175.8860  146.3580 O   0  0  0  0  0  0  0  0  0  0  0  0
  195.9960  175.1470  144.1690 C   0  0  0  0  0  1  0  0  0  0  0  0
  190.7640  175.5330  144.0300 N   0  0  0  0  0  0  0  0  0  0  0  0
  193.5300  175.1710  144.5690 C   0  0  0  0  0  0  0  0  0  0  0  0
  183.4010  178.2300  142.5780 N   0  0  0  0  0  2  0  0  0  0  0  0
  182.5840  178.1480  141.4080 C   0  0  0  0  0  0  0  0  0  0  0  0
  183.1010  178.1870  140.2600 O   0  0  0  0  0  0  0  0  0  0  0  0
  181.2080  178.0190  141.5390 O   0  0  0  0  0  1  0  0  0  0  0  0
  1 16  1  0  0  0  0
  2 27  1  0  0  0  0
  2 24  1  1  0  0  0
  3  4  1  0  0  0  0
  3 11  2  0  0  0  0
  4 21  1  0  0  0  0
  5  6  1  0  0  0  0
  5 25  2  0  0  0  0
  6 18  1  0  0  0  0
  7 24  1  6  0  0  0
  7 19  1  0  0  0  0
  9 15  1  0  0  0  0
 10 17  1  0  0  0  0
 11 13  1  0  0  0  0
 12  8  1  1  0  0  0
 12  2  1  0  0  0  0
 13 22  1  0  0  0  0
 13 12  1  0  0  0  0
 14 23  1  1  0  0  0
 14 27  1  0  0  0  0
 15 18  1  0  0  0  0
 16 19  1  0  0  0  0
 17  8  1  1  0  0  0
 17  7  1  0  0  0  0
 20 29  1  1  0  0  0
 20 10  1  0  0  0  0
 20  1  1  0  0  0  0
 22 21  1  6  0  0  0
 22 14  1  0  0  0  0
 23 28  1  0  0  0  0
 26  9  1  0  0  0  0
 27  5  1  0  0  0  0
 28  9  1  0  0  0  0
 28  6  2  0  0  0  0
 30 32  1  0  0  0  0
 30 29  1  0  0  0  0
 31 30  2  0  0  0  0
M  END
>  <MODEL>
1

>  <REMARK>
 VINA RESULT:      -8.4      0.000      0.000
  Name = 
  1 active torsions:
  status: ('A' for Active; 'I' for Inactive)
    1  A    between atoms: C_20  and  N_29
                            x       y       z     vdW  Elec       q    Type
                         _______ _______ _______ _____ _____    ______ ____

>  <TORSDO>
F 1

$$$$
=
 OpenBabel11112416363D

 32 37  0  0  1  0  0  0  0  0999 V2000
  182.3240  177.5100  140.0710 C   0  0  0  0  0  2  0  0  0  0  0  0
  186.5620  178.2470  143.3820 C   0  0  2  0  0  3  0  0  0  0  0  0
  184.9340  178.4560  147.9790 C   0  0  0  0  0  3  0  0  0  0  0  0
  186.2810  178.0980  148.5370 C   0  0  0  0  0  2  0  0  0  0  0  0
  189.0100  177.7460  142.9780 C   0  0  0  0  0  0  0  0  0  0  0  0
  190.2370  177.1030  143.4270 C   0  0  0  0  0  0  0  0  0  0  0  0
  184.8660  178.3300  141.5370 C   0  0  2  0  0  3  0  0  0  0  0  0
  184.1750  178.6210  143.8370 C   0  0  0  0  0  2  0  0  0  0  0  0
  191.7010  176.2210  144.7970 N   0  0  0  0  0  0  0  0  0  0  0  0
  182.6460  178.9560  142.1360 C   0  0  0  0  0  2  0  0  0  0  0  0
  184.7250  178.5200  146.6620 C   0  0  0  0  0  3  0  0  0  0  0  0
  185.4230  177.8920  144.3320 C   0  0  2  0  0  3  0  0  0  0  0  0
  185.7720  178.2180  145.7180 N   0  0  0  0  0  0  0  0  0  0  0  0
  187.9560  177.1120  145.2020 C   0  0  2  0  0  3  0  0  0  0  0  0
  192.4180  176.3080  143.6400 O   0  0  0  0  0  0  0  0  0  0  0  0
  183.4050  178.2700  139.6070 O   0  0  0  0  0  0  0  0  0  0  0  0
  183.7770  178.1160  142.5200 N   0  0  1  0  0  0  0  0  0  0  0  0
  191.4970  176.8330  142.6880 C   0  0  0  0  0  2  0  0  0  0  0  0
  184.5300  177.6780  140.1920 C   0  0  0  0  0  2  0  0  0  0  0  0
  181.6490  178.1930  141.2640 C   0  0  1  0  0  3  0  0  0  0  0  0
  187.0490  177.2070  147.5670 C   0  0  0  0  0  2  0  0  0  0  0  0
  187.1280  177.9200  146.2160 C   0  0  2  0  0  3  0  0  0  0  0  0
  189.4080  176.9950  145.7280 C   0  0  0  0  0  2  0  0  0  0  0  0
  186.1780  177.6930  142.0130 C   0  0  0  0  0  2  0  0  0  0  0  0
  188.9700  178.3150  141.8530 O   0  0  0  0  0  0  0  0  0  0  0  0
  192.0480  175.2540  145.8250 C   0  0  0  0  0  1  0  0  0  0  0  0
  187.8580  177.7240  143.8520 N   0  0  0  0  0  0  0  0  0  0  0  0
  190.3870  176.6950  144.6370 C   0  0  0  0  0  0  0  0  0  0  0  0
  180.6240  179.1130  140.7970 N   0  0  0  0  0  2  0  0  0  0  0  0
  179.3290  179.1970  141.3960 C   0  0  0  0  0  0  0  0  0  0  0  0
  179.0320  178.4780  142.3870 O   0  0  0  0  0  1  0  0  0  0  0  0
  178.3910  180.0830  140.8820 O   0  0  0  0  0  0  0  0  0  0  0  0
  1 20  1  0  0  0  0
  2 24  1  6  0  0  0
  2 27  1  0  0  0  0
  2 12  1  0  0  0  0
  3  4  1  0  0  0  0
  5  6  1  0  0  0  0
  5 27  1  0  0  0  0
  6 28  2  0  0  0  0
  7 19  1  6  0  0  0
  7 24  1  0  0  0  0
  7 17  1  0  0  0  0
  9 26  1  0  0  0  0
 11  3  2  0  0  0  0
 12  8  1  6  0  0  0
 12 13  1  0  0  0  0
 13 22  1  0  0  0  0
 13 11  1  0  0  0  0
 14 23  1  1  0  0  0
 14 22  1  0  0  0  0
 15  9  1  0  0  0  0
 16  1  1  0  0  0  0
 16 19  1  0  0  0  0
 17 10  1  6  0  0  0
 17  8  1  0  0  0  0
 18  6  1  0  0  0  0
 18 15  1  0  0  0  0
 20 29  1  6  0  0  0
 20 10  1  0  0  0  0
 21  4  1  0  0  0  0
 22 21  1  1  0  0  0
 25  5  2  0  0  0  0
 27 14  1  0  0  0  0
 28  9  1  0  0  0  0
 28 23  1  0  0  0  0
 29 30  1  0  0  0  0
 30 31  1  0  0  0  0
 32 30  2  0  0  0  0
M  END
>  <MODEL>
2

>  <REMARK>
 VINA RESULT:      -7.6      2.687      5.438
  Name = 
  1 active torsions:
  status: ('A' for Active; 'I' for Inactive)
    1  A    between atoms: C_20  and  N_29
                            x       y       z     vdW  Elec       q    Type
                         _______ _______ _______ _____ _____    ______ ____

>  <TORSDO>
F 1

$$$$
=
 OpenBabel11112416363D

 32 37  0  0  1  0  0  0  0  0999 V2000
  186.7140  178.6840  143.0470 C   0  0  0  0  0  2  0  0  0  0  0  0
  190.4220  174.7700  143.6760 C   0  0  2  0  0  3  0  0  0  0  0  0
  190.0680  171.6660  139.9250 C   0  0  0  0  0  3  0  0  0  0  0  0
  191.4670  171.1610  140.1310 C   0  0  0  0  0  2  0  0  0  0  0  0
  192.5530  174.7940  145.0410 C   0  0  0  0  0  0  0  0  0  0  0  0
  193.9920  174.5800  145.1010 C   0  0  0  0  0  0  0  0  0  0  0  0
  188.6050  176.4750  143.9570 C   0  0  2  0  0  3  0  0  0  0  0  0
  188.4220  174.7740  142.2470 C   0  0  0  0  0  2  0  0  0  0  0  0
  195.9660  173.7870  144.5760 N   0  0  0  0  0  0  0  0  0  0  0  0
  186.6290  176.1730  142.6600 C   0  0  0  0  0  2  0  0  0  0  0  0
  189.5630  172.6390  140.6880 C   0  0  0  0  0  3  0  0  0  0  0  0
  189.9360  174.5760  142.2440 C   0  0  2  0  0  3  0  0  0  0  0  0
  190.3470  173.2690  141.7200 N   0  0  0  0  0  0  0  0  0  0  0  0
  192.5850  173.8250  142.6910 C   0  0  2  0  0  3  0  0  0  0  0  0
  196.2190  174.4040  145.7660 O   0  0  0  0  0  0  0  0  0  0  0  0
  187.0360  178.2790  144.3470 O   0  0  0  0  0  0  0  0  0  0  0  0
  188.0870  176.1560  142.6050 N   0  0  1  0  0  0  0  0  0  0  0  0
  194.9740  174.9890  146.1380 C   0  0  0  0  0  2  0  0  0  0  0  0
  188.3970  177.9560  144.2900 C   0  0  0  0  0  2  0  0  0  0  0  0
  186.0680  177.5390  142.2620 C   0  0  1  0  0  3  0  0  0  0  0  0
  192.3550  172.2540  140.7160 C   0  0  0  0  0  2  0  0  0  0  0  0
  191.7060  172.7690  142.0020 C   0  0  2  0  0  3  0  0  0  0  0  0
  193.9240  173.1650  143.1040 C   0  0  0  0  0  2  0  0  0  0  0  0
  190.1140  176.2160  144.0490 C   0  0  0  0  0  2  0  0  0  0  0  0
  191.9420  175.2630  146.0390 O   0  0  0  0  0  0  0  0  0  0  0  0
  197.0220  173.5670  143.6030 C   0  0  0  0  0  1  0  0  0  0  0  0
  191.8520  174.4470  143.8250 N   0  0  0  0  0  0  0  0  0  0  0  0
  194.6190  173.9180  144.1940 C   0  0  0  0  0  0  0  0  0  0  0  0
  184.6280  177.5410  142.4720 N   0  0  0  0  0  2  0  0  0  0  0  0
  183.7130  178.1340  141.5490 C   0  0  0  0  0  0  0  0  0  0  0  0
  184.1280  178.6660  140.4850 O   0  0  0  0  0  0  0  0  0  0  0  0
  182.3520  178.1200  141.8250 O   0  0  0  0  0  1  0  0  0  0  0  0
  1 16  1  0  0  0  0
  2 27  1  0  0  0  0
  2 24  1  6  0  0  0
  3  4  1  0  0  0  0
  3 11  2  0  0  0  0
  4 21  1  0  0  0  0
  5  6  1  0  0  0  0
  5 25  2  0  0  0  0
  6 18  1  0  0  0  0
  7 24  1  6  0  0  0
  7 19  1  0  0  0  0
  9 15  1  0  0  0  0
 11 13  1  0  0  0  0
 12  8  1  1  0  0  0
 12  2  1  0  0  0  0
 13 22  1  0  0  0  0
 13 12  1  0  0  0  0
 14 23  1  1  0  0  0
 14 27  1  0  0  0  0
 15 18  1  0  0  0  0
 17  8  1  1  0  0  0
 17 10  1  0  0  0  0
 17  7  1  0  0  0  0
 19 16  1  0  0  0  0
 20 29  1  1  0  0  0
 20 10  1  0  0  0  0
 20  1  1  0  0  0  0
 22 21  1  6  0  0  0
 22 14  1  0  0  0  0
 23 28  1  0  0  0  0
 26  9  1  0  0  0  0
 27  5  1  0  0  0  0
 28  9  1  0  0  0  0
 28  6  2  0  0  0  0
 30 32  1  0  0  0  0
 30 29  1  0  0  0  0
 31 30  2  0  0  0  0
M  END
>  <MODEL>
3

>  <REMARK>
 VINA RESULT:      -7.5      1.446      1.615
  Name = 
  1 active torsions:
  status: ('A' for Active; 'I' for Inactive)
    1  A    between atoms: C_20  and  N_29
                            x       y       z     vdW  Elec       q    Type
                         _______ _______ _______ _____ _____    ______ ____

>  <TORSDO>
F 1

$$$$
=
 OpenBabel11112416363D

 32 37  0  0  1  0  0  0  0  0999 V2000
  190.6210  170.6430  141.8190 C   0  0  0  0  0  2  0  0  0  0  0  0
  188.7850  175.6030  143.0420 C   0  0  2  0  0  3  0  0  0  0  0  0
  186.1710  177.2740  139.2730 C   0  0  0  0  0  3  0  0  0  0  0  0
  185.4400  178.2610  140.1380 C   0  0  0  0  0  2  0  0  0  0  0  0
  188.4690  176.6730  145.3130 C   0  0  0  0  0  0  0  0  0  0  0  0
  187.5970  177.3730  146.2470 C   0  0  0  0  0  0  0  0  0  0  0  0
  190.1390  173.5220  142.6930 C   0  0  2  0  0  3  0  0  0  0  0  0
  188.9660  174.5350  140.8350 C   0  0  0  0  0  2  0  0  0  0  0  0
  185.9410  178.6190  146.9580 N   0  0  0  0  0  0  0  0  0  0  0  0
  190.4120  172.7730  140.4470 C   0  0  0  0  0  2  0  0  0  0  0  0
  187.0660  176.4290  139.7900 C   0  0  0  0  0  3  0  0  0  0  0  0
  187.9970  175.2290  141.7910 C   0  0  2  0  0  3  0  0  0  0  0  0
  187.3490  176.4050  141.2030 N   0  0  0  0  0  0  0  0  0  0  0  0
  186.6550  176.9270  143.5500 C   0  0  2  0  0  3  0  0  0  0  0  0
  186.6850  178.4680  148.0910 O   0  0  0  0  0  0  0  0  0  0  0  0
  191.4190  171.4670  142.6210 O   0  0  0  0  0  0  0  0  0  0  0  0
  189.4370  173.2720  141.4120 N   0  0  1  0  0  0  0  0  0  0  0  0
  187.7600  177.6170  147.7030 C   0  0  0  0  0  2  0  0  0  0  0  0
  190.5090  172.2060  143.3850 C   0  0  0  0  0  2  0  0  0  0  0  0
  190.4470  171.2450  140.4210 C   0  0  1  0  0  3  0  0  0  0  0  0
  185.3070  177.7350  141.5630 C   0  0  0  0  0  2  0  0  0  0  0  0
  186.7030  177.3950  142.0860 C   0  0  2  0  0  3  0  0  0  0  0  0
  186.1250  178.0890  144.4260 C   0  0  0  0  0  2  0  0  0  0  0  0
  189.2490  174.2950  143.6740 C   0  0  0  0  0  2  0  0  0  0  0  0
  189.6200  176.3100  145.6760 O   0  0  0  0  0  0  0  0  0  0  0  0
  184.5200  178.9160  147.0240 C   0  0  0  0  0  1  0  0  0  0  0  0
  187.9870  176.4210  143.9730 N   0  0  0  0  0  0  0  0  0  0  0  0
  186.5070  177.9390  145.8640 C   0  0  0  0  0  0  0  0  0  0  0  0
  191.5300  170.8090  139.5520 N   0  0  0  0  0  2  0  0  0  0  0  0
  191.3180  169.9760  138.4110 C   0  0  0  0  0  0  0  0  0  0  0  0
  190.1570  169.6020  138.0960 O   0  0  0  0  0  1  0  0  0  0  0  0
  192.4020  169.5790  137.6400 O   0  0  0  0  0  0  0  0  0  0  0  0
  1 16  1  0  0  0  0
  2 24  1  1  0  0  0
  2 27  1  0  0  0  0
  3 11  2  0  0  0  0
  3  4  1  0  0  0  0
  4 21  1  0  0  0  0
  5 25  2  0  0  0  0
  5  6  1  0  0  0  0
  6 18  1  0  0  0  0
  7 19  1  1  0  0  0
  7 24  1  0  0  0  0
  8 17  1  0  0  0  0
  9 26  1  0  0  0  0
  9 15  1  0  0  0  0
 11 13  1  0  0  0  0
 12  8  1  6  0  0  0
 12  2  1  0  0  0  0
 13 12  1  0  0  0  0
 13 22  1  0  0  0  0
 14 27  1  0  0  0  0
 14 23  1  1  0  0  0
 16 19  1  0  0  0  0
 17 10  1  6  0  0  0
 17  7  1  0  0  0  0
 18 15  1  0  0  0  0
 20 29  1  6  0  0  0
 20 10  1  0  0  0  0
 20  1  1  0  0  0  0
 22 21  1  6  0  0  0
 22 14  1  0  0  0  0
 23 28  1  0  0  0  0
 27  5  1  0  0  0  0
 28  6  2  0  0  0  0
 28  9  1  0  0  0  0
 30 29  1  0  0  0  0
 31 30  1  0  0  0  0
 32 30  2  0  0  0  0
M  END
>  <MODEL>
4

>  <REMARK>
 VINA RESULT:      -7.3      3.650      7.555
  Name = 
  1 active torsions:
  status: ('A' for Active; 'I' for Inactive)
    1  A    between atoms: C_20  and  N_29
                            x       y       z     vdW  Elec       q    Type
                         _______ _______ _______ _____ _____    ______ ____

>  <TORSDO>
F 1

$$$$
=
 OpenBabel11112416363D

 32 37  0  0  1  0  0  0  0  0999 V2000
  184.9010  177.5510  145.5520 C   0  0  0  0  0  2  0  0  0  0  0  0
  188.9950  175.2540  142.8270 C   0  0  2  0  0  3  0  0  0  0  0  0
  192.6500  174.3800  145.9430 C   0  0  0  0  0  3  0  0  0  0  0  0
  193.2470  173.3350  145.0460 C   0  0  0  0  0  2  0  0  0  0  0  0
  188.9470  174.0070  140.6260 C   0  0  0  0  0  0  0  0  0  0  0  0
  189.2890  172.8110  139.8670 C   0  0  0  0  0  0  0  0  0  0  0  0
  187.0960  176.6830  143.6250 C   0  0  2  0  0  3  0  0  0  0  0  0
  189.0400  176.3520  145.0260 C   0  0  0  0  0  2  0  0  0  0  0  0
  190.3520  170.9800  139.3040 N   0  0  0  0  0  0  0  0  0  0  0  0
  187.4200  177.8730  145.6640 C   0  0  0  0  0  2  0  0  0  0  0  0
  191.5140  175.0040  145.6200 C   0  0  0  0  0  3  0  0  0  0  0  0
  189.3850  175.0600  144.2890 C   0  0  2  0  0  3  0  0  0  0  0  0
  190.7960  174.6820  144.4130 N   0  0  0  0  0  0  0  0  0  0  0  0
  190.3050  173.0730  142.5610 C   0  0  2  0  0  3  0  0  0  0  0  0
  189.5670  171.1950  138.2100 O   0  0  0  0  0  0  0  0  0  0  0  0
  185.1060  177.9290  144.2200 O   0  0  0  0  0  0  0  0  0  0  0  0
  187.5910  176.5750  145.0180 N   0  0  1  0  0  0  0  0  0  0  0  0
  188.8070  172.3550  138.5380 C   0  0  0  0  0  2  0  0  0  0  0  0
  185.5660  176.7670  143.5900 C   0  0  0  0  0  2  0  0  0  0  0  0
  186.0950  177.9520  146.4230 C   0  0  1  0  0  3  0  0  0  0  0  0
  192.1630  172.6410  144.2290 C   0  0  0  0  0  2  0  0  0  0  0  0
  191.3730  173.7060  143.4690 C   0  0  2  0  0  3  0  0  0  0  0  0
  191.0130  172.2010  141.4950 C   0  0  0  0  0  2  0  0  0  0  0  0
  187.4830  175.4490  142.8000 C   0  0  0  0  0  2  0  0  0  0  0  0
  188.2550  174.9160  140.0930 O   0  0  0  0  0  0  0  0  0  0  0  0
  190.8400  169.6510  139.6310 C   0  0  0  0  0  1  0  0  0  0  0  0
  189.4280  174.1250  141.9840 N   0  0  0  0  0  0  0  0  0  0  0  0
  190.1560  171.9620  140.2920 C   0  0  0  0  0  0  0  0  0  0  0  0
  185.9140  179.3070  146.9240 N   0  0  0  0  0  2  0  0  0  0  0  0
  186.5530  179.7850  148.1090 C   0  0  0  0  0  0  0  0  0  0  0  0
  187.3320  179.0410  148.7630 O   0  0  0  0  0  1  0  0  0  0  0  0
  186.3160  181.0830  148.5410 O   0  0  0  0  0  0  0  0  0  0  0  0
  1 20  1  0  0  0  0
  2 24  1  1  0  0  0
  2 12  1  0  0  0  0
  4  3  1  0  0  0  0
  5 27  1  0  0  0  0
  6 28  2  0  0  0  0
  6  5  1  0  0  0  0
  7 24  1  6  0  0  0
  7 17  1  0  0  0  0
  9 26  1  0  0  0  0
  9 28  1  0  0  0  0
 10 20  1  0  0  0  0
 11  3  2  0  0  0  0
 12 13  1  0  0  0  0
 12  8  1  1  0  0  0
 13 11  1  0  0  0  0
 14 23  1  6  0  0  0
 14 22  1  0  0  0  0
 15 18  1  0  0  0  0
 15  9  1  0  0  0  0
 16  1  1  0  0  0  0
 17  8  1  6  0  0  0
 17 10  1  0  0  0  0
 18  6  1  0  0  0  0
 19  7  1  0  0  0  0
 19 16  1  0  0  0  0
 20 29  1  6  0  0  0
 21  4  1  0  0  0  0
 22 21  1  1  0  0  0
 22 13  1  0  0  0  0
 25  5  2  0  0  0  0
 27 14  1  0  0  0  0
 27  2  1  0  0  0  0
 28 23  1  0  0  0  0
 29 30  1  0  0  0  0
 30 32  2  0  0  0  0
 30 31  1  0  0  0  0
M  END
>  <MODEL>
5

>  <REMARK>
 VINA RESULT:      -7.1      2.966      5.718
  Name = 
  1 active torsions:
  status: ('A' for Active; 'I' for Inactive)
    1  A    between atoms: C_20  and  N_29
                            x       y       z     vdW  Elec       q    Type
                         _______ _______ _______ _____ _____    ______ ____

>  <TORSDO>
F 1

$$$$
=
 OpenBabel11112416363D

 32 37  0  0  1  0  0  0  0  0999 V2000
  185.6060  176.7960  144.7800 C   0  0  0  0  0  2  0  0  0  0  0  0
  189.7040  174.3930  142.1540 C   0  0  2  0  0  3  0  0  0  0  0  0
  193.1840  173.2660  145.3870 C   0  0  0  0  0  3  0  0  0  0  0  0
  193.7710  172.2210  144.4830 C   0  0  0  0  0  2  0  0  0  0  0  0
  189.6920  173.2120  139.9160 C   0  0  0  0  0  0  0  0  0  0  0  0
  190.0120  172.0240  139.1360 C   0  0  0  0  0  0  0  0  0  0  0  0
  187.8380  175.8840  142.9180 C   0  0  2  0  0  3  0  0  0  0  0  0
  189.7060  175.4260  144.3850 C   0  0  0  0  0  2  0  0  0  0  0  0
  191.0150  170.1630  138.5620 N   0  0  0  0  0  0  0  0  0  0  0  0
  188.1300  176.9990  145.0030 C   0  0  0  0  0  2  0  0  0  0  0  0
  192.0910  173.9510  145.0370 C   0  0  0  0  0  3  0  0  0  0  0  0
  190.0240  174.1400  143.6230 C   0  0  2  0  0  3  0  0  0  0  0  0
  191.4110  173.6950  143.7930 N   0  0  0  0  0  0  0  0  0  0  0  0
  190.9260  172.1630  141.8750 C   0  0  2  0  0  3  0  0  0  0  0  0
  190.2860  170.4450  137.4440 O   0  0  0  0  0  0  0  0  0  0  0  0
  185.8820  177.2010  143.4690 O   0  0  0  0  0  0  0  0  0  0  0  0
  188.2700  175.7140  144.3260 N   0  0  1  0  0  0  0  0  0  0  0  0
  189.5650  171.6280  137.7760 C   0  0  0  0  0  2  0  0  0  0  0  0
  186.3170  176.0380  142.8230 C   0  0  0  0  0  2  0  0  0  0  0  0
  186.7790  177.1170  145.7100 C   0  0  1  0  0  3  0  0  0  0  0  0
  192.6920  171.6000  143.6030 C   0  0  0  0  0  2  0  0  0  0  0  0
  191.9820  172.7220  142.8430 C   0  0  2  0  0  3  0  0  0  0  0  0
  191.6380  171.2900  140.8120 C   0  0  0  0  0  2  0  0  0  0  0  0
  188.2040  174.6570  142.0720 C   0  0  0  0  0  2  0  0  0  0  0  0
  189.0630  174.1660  139.3840 O   0  0  0  0  0  0  0  0  0  0  0  0
  191.4300  168.8050  138.8670 C   0  0  0  0  0  1  0  0  0  0  0  0
  190.1210  173.2700  141.2950 N   0  0  0  0  0  0  0  0  0  0  0  0
  190.8220  171.1250  139.5700 C   0  0  0  0  0  0  0  0  0  0  0  0
  186.6380  178.4640  146.2430 N   0  0  0  0  0  2  0  0  0  0  0  0
  186.2010  178.7250  147.5790 C   0  0  0  0  0  0  0  0  0  0  0  0
  185.9420  177.7770  148.3660 O   0  0  0  0  0  1  0  0  0  0  0  0
  186.0660  180.0370  148.0130 O   0  0  0  0  0  0  0  0  0  0  0  0
  1 20  1  0  0  0  0
  2 24  1  1  0  0  0
  2 12  1  0  0  0  0
  4  3  1  0  0  0  0
  5 27  1  0  0  0  0
  6 28  2  0  0  0  0
  6  5  1  0  0  0  0
  7 24  1  6  0  0  0
  7 17  1  0  0  0  0
  9 26  1  0  0  0  0
  9 28  1  0  0  0  0
 10 20  1  0  0  0  0
 11  3  2  0  0  0  0
 12 13  1  0  0  0  0
 12  8  1  1  0  0  0
 13 11  1  0  0  0  0
 14 23  1  6  0  0  0
 14 22  1  0  0  0  0
 15 18  1  0  0  0  0
 15  9  1  0  0  0  0
 16  1  1  0  0  0  0
 17  8  1  6  0  0  0
 17 10  1  0  0  0  0
 18  6  1  0  0  0  0
 19  7  1  0  0  0  0
 19 16  1  0  0  0  0
 20 29  1  6  0  0  0
 21  4  1  0  0  0  0
 22 21  1  1  0  0  0
 22 13  1  0  0  0  0
 25  5  2  0  0  0  0
 27 14  1  0  0  0  0
 27  2  1  0  0  0  0
 28 23  1  0  0  0  0
 29 30  1  0  0  0  0
 30 32  2  0  0  0  0
 30 31  1  0  0  0  0
M  END
>  <MODEL>
6

>  <REMARK>
 VINA RESULT:      -7.0      3.280      5.880
  Name = 
  1 active torsions:
  status: ('A' for Active; 'I' for Inactive)
    1  A    between atoms: C_20  and  N_29
                            x       y       z     vdW  Elec       q    Type
                         _______ _______ _______ _____ _____    ______ ____

>  <TORSDO>
F 1

$$$$
=
 OpenBabel11112416363D

 32 37  0  0  1  0  0  0  0  0999 V2000
  186.4040  176.2180  143.1930 C   0  0  0  0  0  2  0  0  0  0  0  0
  191.5260  174.5050  142.6400 C   0  0  2  0  0  3  0  0  0  0  0  0
  194.1910  176.3500  146.2900 C   0  0  0  0  0  3  0  0  0  0  0  0
  195.2450  175.2910  146.1380 C   0  0  0  0  0  2  0  0  0  0  0  0
  192.4100  172.4970  141.3800 C   0  0  0  0  0  0  0  0  0  0  0  0
  193.2190  171.2860  141.3830 C   0  0  0  0  0  0  0  0  0  0  0  0
  189.2070  175.4030  142.3180 C   0  0  2  0  0  3  0  0  0  0  0  0
  190.6720  176.3860  143.9730 C   0  0  0  0  0  2  0  0  0  0  0  0
  194.7800  169.8700  141.9800 N   0  0  0  0  0  0  0  0  0  0  0  0
  188.6390  177.3860  143.5110 C   0  0  0  0  0  2  0  0  0  0  0  0
  193.0940  176.3500  145.5290 C   0  0  0  0  0  3  0  0  0  0  0  0
  191.4980  175.1030  144.0430 C   0  0  2  0  0  3  0  0  0  0  0  0
  192.8560  175.3170  144.5520 N   0  0  0  0  0  0  0  0  0  0  0  0
  193.3070  173.0070  143.7030 C   0  0  2  0  0  3  0  0  0  0  0  0
  194.3270  169.3140  140.8200 O   0  0  0  0  0  0  0  0  0  0  0  0
  186.9050  176.0290  141.8990 O   0  0  0  0  0  0  0  0  0  0  0  0
  189.2780  176.0800  143.6350 N   0  0  1  0  0  0  0  0  0  0  0  0
  193.2660  170.1690  140.4040 C   0  0  0  0  0  2  0  0  0  0  0  0
  187.7780  174.9410  142.0130 C   0  0  0  0  0  2  0  0  0  0  0  0
  187.1660  177.3320  143.9170 C   0  0  1  0  0  3  0  0  0  0  0  0
  194.6340  173.9920  145.6240 C   0  0  0  0  0  2  0  0  0  0  0  0
  193.8880  174.2890  144.3220 C   0  0  2  0  0  3  0  0  0  0  0  0
  194.4740  172.0580  143.3380 C   0  0  0  0  0  2  0  0  0  0  0  0
  190.0850  174.1460  142.2900 C   0  0  0  0  0  2  0  0  0  0  0  0
  191.7220  172.7950  140.3660 O   0  0  0  0  0  0  0  0  0  0  0  0
  195.4330  169.0630  142.9970 C   0  0  0  0  0  1  0  0  0  0  0  0
  192.4280  173.3430  142.5520 N   0  0  0  0  0  0  0  0  0  0  0  0
  194.0870  171.0510  142.3020 C   0  0  0  0  0  0  0  0  0  0  0  0
  186.5480  178.6200  143.6390 N   0  0  0  0  0  2  0  0  0  0  0  0
  185.7710  179.3290  144.6050 C   0  0  0  0  0  0  0  0  0  0  0  0
  185.6110  178.8660  145.7650 O   0  0  0  0  0  1  0  0  0  0  0  0
  185.1910  180.5430  144.2630 O   0  0  0  0  0  0  0  0  0  0  0  0
  1 20  1  0  0  0  0
  2 24  1  1  0  0  0
  2 12  1  0  0  0  0
  4  3  1  0  0  0  0
  5  6  1  0  0  0  0
  5 27  1  0  0  0  0
  6 28  2  0  0  0  0
  7 19  1  1  0  0  0
  7 17  1  0  0  0  0
  9 28  1  0  0  0  0
  9 26  1  0  0  0  0
 10 20  1  0  0  0  0
 11  3  2  0  0  0  0
 12  8  1  6  0  0  0
 12 13  1  0  0  0  0
 13 11  1  0  0  0  0
 14 23  1  6  0  0  0
 14 22  1  0  0  0  0
 15  9  1  0  0  0  0
 16 19  1  0  0  0  0
 16  1  1  0  0  0  0
 17 10  1  6  0  0  0
 17  8  1  0  0  0  0
 18 15  1  0  0  0  0
 18  6  1  0  0  0  0
 20 29  1  6  0  0  0
 21  4  1  0  0  0  0
 22 13  1  0  0  0  0
 22 21  1  1  0  0  0
 24  7  1  0  0  0  0
 25  5  2  0  0  0  0
 27  2  1  0  0  0  0
 27 14  1  0  0  0  0
 28 23  1  0  0  0  0
 29 30  1  0  0  0  0
 30 31  1  0  0  0  0
 32 30  2  0  0  0  0
M  END
>  <MODEL>
7

>  <REMARK>
 VINA RESULT:      -7.0      3.085      5.195
  Name = 
  1 active torsions:
  status: ('A' for Active; 'I' for Inactive)
    1  A    between atoms: C_20  and  N_29
                            x       y       z     vdW  Elec       q    Type
                         _______ _______ _______ _____ _____    ______ ____

>  <TORSDO>
F 1

$$$$
=
 OpenBabel11112416363D

 32 37  0  0  1  0  0  0  0  0999 V2000
  193.3730  172.7600  140.1430 C   0  0  0  0  0  2  0  0  0  0  0  0
  189.5460  174.8350  143.3860 C   0  0  2  0  0  3  0  0  0  0  0  0
  191.5790  175.9610  147.6780 C   0  0  0  0  0  3  0  0  0  0  0  0
  190.4830  176.9310  148.0130 C   0  0  0  0  0  2  0  0  0  0  0  0
  187.3360  175.9010  142.7680 C   0  0  0  0  0  0  0  0  0  0  0  0
  186.4250  177.0330  142.8860 C   0  0  0  0  0  0  0  0  0  0  0  0
  190.8990  173.4730  141.7730 C   0  0  2  0  0  3  0  0  0  0  0  0
  191.7430  173.9180  143.9970 C   0  0  0  0  0  2  0  0  0  0  0  0
  185.4760  178.8130  143.7380 N   0  0  0  0  0  0  0  0  0  0  0  0
  192.8800  172.4520  142.6170 C   0  0  0  0  0  2  0  0  0  0  0  0
  191.5970  175.3120  146.5120 C   0  0  0  0  0  3  0  0  0  0  0  0
  190.8450  175.1470  144.1210 C   0  0  2  0  0  3  0  0  0  0  0  0
  190.5850  175.5350  145.5110 N   0  0  0  0  0  0  0  0  0  0  0  0
  188.7940  176.9900  144.5420 C   0  0  2  0  0  3  0  0  0  0  0  0
  184.6310  178.5100  142.7110 O   0  0  0  0  0  0  0  0  0  0  0  0
  192.0650  172.2770  140.0190 O   0  0  0  0  0  0  0  0  0  0  0  0
  192.1130  173.6930  142.5960 N   0  0  1  0  0  0  0  0  0  0  0  0
  185.2270  177.3790  142.0800 C   0  0  0  0  0  2  0  0  0  0  0  0
  191.2520  173.3850  140.2850 C   0  0  0  0  0  2  0  0  0  0  0  0
  193.9480  172.4320  141.5230 C   0  0  1  0  0  3  0  0  0  0  0  0
  189.9100  177.5570  146.7460 C   0  0  0  0  0  2  0  0  0  0  0  0
  189.4550  176.4320  145.8140 C   0  0  2  0  0  3  0  0  0  0  0  0
  187.5210  177.7740  144.9460 C   0  0  0  0  0  2  0  0  0  0  0  0
  189.9110  174.6370  141.9180 C   0  0  0  0  0  2  0  0  0  0  0  0
  187.0640  174.9520  141.9840 O   0  0  0  0  0  0  0  0  0  0  0  0
  185.5660  180.1650  144.2630 C   0  0  0  0  0  1  0  0  0  0  0  0
  188.5370  175.8940  143.5720 N   0  0  0  0  0  0  0  0  0  0  0  0
  186.5550  177.9140  143.8130 C   0  0  0  0  0  0  0  0  0  0  0  0
  194.5810  171.1220  141.5010 N   0  0  0  0  0  2  0  0  0  0  0  0
  195.7990  170.8390  142.1930 C   0  0  0  0  0  0  0  0  0  0  0  0
  196.3650  171.7280  142.8830 O   0  0  0  0  0  1  0  0  0  0  0  0
  196.3590  169.5720  142.1080 O   0  0  0  0  0  0  0  0  0  0  0  0
  1 20  1  0  0  0  0
  2 24  1  6  0  0  0
  2 27  1  0  0  0  0
  2 12  1  0  0  0  0
  3  4  1  0  0  0  0
  5  6  1  0  0  0  0
  5 27  1  0  0  0  0
  6 28  2  0  0  0  0
  7 19  1  6  0  0  0
  7 24  1  0  0  0  0
  7 17  1  0  0  0  0
  9 28  1  0  0  0  0
  9 26  1  0  0  0  0
 11  3  2  0  0  0  0
 12  8  1  1  0  0  0
 12 13  1  0  0  0  0
 13 22  1  0  0  0  0
 13 11  1  0  0  0  0
 14 23  1  1  0  0  0
 14 22  1  0  0  0  0
 15  9  1  0  0  0  0
 16  1  1  0  0  0  0
 16 19  1  0  0  0  0
 17 10  1  1  0  0  0
 17  8  1  0  0  0  0
 18 15  1  0  0  0  0
 18  6  1  0  0  0  0
 20 29  1  6  0  0  0
 20 10  1  0  0  0  0
 21  4  1  0  0  0  0
 22 21  1  1  0  0  0
 25  5  2  0  0  0  0
 27 14  1  0  0  0  0
 28 23  1  0  0  0  0
 29 30  1  0  0  0  0
 30 31  1  0  0  0  0
 32 30  2  0  0  0  0
M  END
>  <MODEL>
8

>  <REMARK>
 VINA RESULT:      -6.9      3.039      8.875
  Name = 
  1 active torsions:
  status: ('A' for Active; 'I' for Inactive)
    1  A    between atoms: C_20  and  N_29
                            x       y       z     vdW  Elec       q    Type
                         _______ _______ _______ _____ _____    ______ ____

>  <TORSDO>
F 1

$$$$
=
 OpenBabel11112416363D

 32 37  0  0  1  0  0  0  0  0999 V2000
  189.8570  174.0170  138.5110 C   0  0  0  0  0  2  0  0  0  0  0  0
  188.3890  175.1390  143.6150 C   0  0  2  0  0  3  0  0  0  0  0  0
  192.3230  174.7950  146.4840 C   0  0  0  0  0  3  0  0  0  0  0  0
  191.7020  175.6570  147.5440 C   0  0  0  0  0  2  0  0  0  0  0  0
  186.3820  176.4340  144.4510 C   0  0  0  0  0  0  0  0  0  0  0  0
  185.8540  177.5090  145.2810 C   0  0  0  0  0  0  0  0  0  0  0  0
  188.5790  174.2900  141.2640 C   0  0  2  0  0  3  0  0  0  0  0  0
  190.4090  173.9880  142.8180 C   0  0  0  0  0  2  0  0  0  0  0  0
  185.7470  178.9760  146.9040 N   0  0  0  0  0  0  0  0  0  0  0  0
  190.4980  172.9770  140.7410 C   0  0  0  0  0  2  0  0  0  0  0  0
  191.6870  174.5390  145.3380 C   0  0  0  0  0  3  0  0  0  0  0  0
  189.9130  175.1540  143.6700 C   0  0  2  0  0  3  0  0  0  0  0  0
  190.3920  175.1030  145.0550 N   0  0  0  0  0  0  0  0  0  0  0  0
  188.6620  176.8580  145.4910 C   0  0  2  0  0  3  0  0  0  0  0  0
  184.4870  179.0410  146.3850 O   0  0  0  0  0  0  0  0  0  0  0  0
  188.5720  173.6500  138.9280 O   0  0  0  0  0  0  0  0  0  0  0  0
  190.0510  174.1940  141.4110 N   0  0  1  0  0  0  0  0  0  0  0  0
  184.5080  178.1380  145.2830 C   0  0  0  0  0  2  0  0  0  0  0  0
  188.1910  174.6530  139.8270 C   0  0  0  0  0  2  0  0  0  0  0  0
  190.9260  173.2540  139.2990 C   0  0  1  0  0  3  0  0  0  0  0  0
  190.7430  176.6670  146.9250 C   0  0  0  0  0  2  0  0  0  0  0  0
  189.7130  175.9070  146.0890 C   0  0  2  0  0  3  0  0  0  0  0  0
  187.8840  177.5290  146.6490 C   0  0  0  0  0  2  0  0  0  0  0  0
  188.0010  175.3910  142.1620 C   0  0  0  0  0  2  0  0  0  0  0  0
  185.6120  175.7860  143.6920 O   0  0  0  0  0  0  0  0  0  0  0  0
  186.3160  180.0930  147.6380 C   0  0  0  0  0  1  0  0  0  0  0  0
  187.7920  176.1280  144.5320 N   0  0  0  0  0  0  0  0  0  0  0  0
  186.5530  178.0540  146.2130 C   0  0  0  0  0  0  0  0  0  0  0  0
  191.2220  171.9900  138.6400 N   0  0  0  0  0  2  0  0  0  0  0  0
  192.4960  171.7020  138.0590 C   0  0  0  0  0  0  0  0  0  0  0  0
  193.4330  172.5400  138.1200 O   0  0  0  0  0  1  0  0  0  0  0  0
  192.7010  170.4840  137.4250 O   0  0  0  0  0  0  0  0  0  0  0  0
  1 16  1  0  0  0  0
  1 20  1  0  0  0  0
  2 24  1  6  0  0  0
  2 12  1  0  0  0  0
  2 27  1  0  0  0  0
  3  4  1  0  0  0  0
  5 27  1  0  0  0  0
  5  6  1  0  0  0  0
  6 18  1  0  0  0  0
  6 28  2  0  0  0  0
  7 19  1  6  0  0  0
  7 17  1  0  0  0  0
  7 24  1  0  0  0  0
  9 26  1  0  0  0  0
 11  3  2  0  0  0  0
 12  8  1  6  0  0  0
 12 13  1  0  0  0  0
 13 11  1  0  0  0  0
 13 22  1  0  0  0  0
 14 22  1  0  0  0  0
 14 23  1  1  0  0  0
 15  9  1  0  0  0  0
 16 19  1  0  0  0  0
 17 10  1  6  0  0  0
 17  8  1  0  0  0  0
 18 15  1  0  0  0  0
 20 29  1  6  0  0  0
 20 10  1  0  0  0  0
 21  4  1  0  0  0  0
 22 21  1  6  0  0  0
 25  5  2  0  0  0  0
 27 14  1  0  0  0  0
 28 23  1  0  0  0  0
 28  9  1  0  0  0  0
 30 31  1  0  0  0  0
 30 29  1  0  0  0  0
 32 30  2  0  0  0  0
M  END
>  <MODEL>
9

>  <REMARK>
 VINA RESULT:      -6.9      3.356      7.732
  Name = 
  1 active torsions:
  status: ('A' for Active; 'I' for Inactive)
    1  A    between atoms: C_20  and  N_29
                            x       y       z     vdW  Elec       q    Type
                         _______ _______ _______ _____ _____    ______ ____

>  <TORSDO>
F 1

$$$$
