=
 OpenBabel11112416343D

 32 38  0  0  1  0  0  0  0  0999 V2000
  184.6290  178.0070  144.7040 C   0  0  1  0  0  3  0  0  0  0  0  0
  189.2720  175.6480  144.5630 C   0  0  2  0  0  3  0  0  0  0  0  0
  189.0650  172.8630  140.3960 C   0  0  0  0  0  2  0  0  0  0  0  0
  190.4520  173.3200  139.9510 C   0  0  0  0  0  2  0  0  0  0  0  0
  191.6380  175.8620  145.6610 C   0  0  0  0  0  0  0  0  0  0  0  0
  193.0860  176.0110  145.3170 C   0  0  1  0  0  3  0  0  0  0  0  0
  187.4150  177.1980  145.1170 C   0  0  2  0  0  3  0  0  0  0  0  0
  187.1740  175.5000  143.3310 N   0  0  0  0  0  2  0  0  0  0  0  0
  194.9290  174.9160  144.6230 C   0  0  1  0  0  3  0  0  0  0  0  0
  185.2660  176.9750  143.7560 C   0  0  2  0  0  3  0  0  0  0  0  0
  188.3800  173.9900  141.1540 C   0  0  0  0  0  2  0  0  0  0  0  0
  188.6250  175.4930  143.1790 C   0  0  2  0  0  3  0  0  0  0  0  0
  189.1550  174.2590  142.4440 C   0  0  2  0  0  3  0  0  0  0  0  0
  191.4470  175.2720  143.1820 C   0  0  2  0  0  3  0  0  0  0  0  0
  195.3000  175.5210  145.9070 N   0  0  0  0  0  2  0  0  0  0  0  0
  185.5600  178.7290  145.7010 C   0  0  0  0  0  2  0  0  0  0  0  0
  186.7910  176.8500  143.7570 C   0  0  1  0  0  3  0  0  0  0  0  0
  194.0640  176.0730  146.4530 C   0  0  0  0  0  2  0  0  0  0  0  0
  187.0560  178.6300  145.4310 C   0  0  0  0  0  2  0  0  0  0  0  0
  184.9140  178.3740  143.2640 C   0  0  1  0  0  3  0  0  0  0  0  0
  191.2220  173.9940  141.0590 C   0  0  0  0  0  3  0  0  0  0  0  0
  190.6440  174.4590  142.1830 C   0  0  0  0  0  0  0  0  0  0  0  0
  192.9710  174.9570  143.2030 C   0  0  0  0  0  2  0  0  0  0  0  0
  188.9380  177.0480  145.0660 C   0  0  0  0  0  2  0  0  0  0  0  0
  191.2010  176.1560  146.7630 O   0  0  0  0  0  0  0  0  0  0  0  0
  195.6240  173.2820  144.5110 Cl  0  0  0  0  0  0  0  0  0  0  0  0
  190.7680  175.2590  144.5810 C   0  0  2  0  0  3  0  0  0  0  0  0
  193.4800  174.8400  144.5720 N   0  0  2  0  0  0  0  0  0  0  0  0
  183.6890  178.3200  142.5050 N   0  0  0  0  0  0  0  0  0  0  0  0
  183.6610  178.2410  141.2180 C   0  0  0  0  0  0  0  0  0  0  0  0
  184.9120  178.1950  140.3960 C   0  0  0  0  0  1  0  0  0  0  0  0
  182.3460  178.1890  140.5230 C   0  0  0  0  0  1  0  0  0  0  0  0
  1 16  1  1  0  0  0
  2 27  1  0  0  0  0
  2 24  1  6  0  0  0
  3 11  1  0  0  0  0
  4  3  1  0  0  0  0
  4 21  1  0  0  0  0
  5 25  2  0  0  0  0
  6  5  1  0  0  0  0
  6 18  1  1  0  0  0
  7 24  1  6  0  0  0
  7 19  1  0  0  0  0
  8 17  1  0  0  0  0
  9 26  1  1  0  0  0
  9 15  1  0  0  0  0
 10 17  1  0  0  0  0
 10  1  1  0  0  0  0
 11 13  1  0  0  0  0
 12  8  1  0  0  0  0
 12  2  1  0  0  0  0
 13 12  1  0  0  0  0
 14 23  1  0  0  0  0
 14 27  1  0  0  0  0
 15 18  1  0  0  0  0
 17  7  1  0  0  0  0
 19 16  1  0  0  0  0
 20 10  1  0  0  0  0
 20  1  1  0  0  0  0
 21 22  2  0  0  0  0
 22 13  1  0  0  0  0
 22 14  1  0  0  0  0
 23 28  1  0  0  0  0
 27  5  1  0  0  0  0
 28  9  1  0  0  0  0
 28  6  1  0  0  0  0
 29 20  1  0  0  0  0
 30 29  2  0  0  0  0
 31 30  1  0  0  0  0
 32 30  1  0  0  0  0
M  END
>  <MODEL>
1

>  <REMARK>
 VINA RESULT:      -8.8      0.000      0.000
  Name = 
  1 active torsions:
  status: ('A' for Active; 'I' for Inactive)
    1  A    between atoms: C_20  and  N_29
                            x       y       z     vdW  Elec       q    Type
                         _______ _______ _______ _____ _____    ______ ____

>  <TORSDO>
F 1

$$$$
=
 OpenBabel11112416343D

 32 38  0  0  1  0  0  0  0  0999 V2000
  194.0240  171.7610  142.0360 C   0  0  1  0  0  3  0  0  0  0  0  0
  189.5250  174.3510  142.4650 C   0  0  2  0  0  3  0  0  0  0  0  0
  188.9440  174.9160  147.4150 C   0  0  0  0  0  2  0  0  0  0  0  0
  188.5730  176.3890  147.2620 C   0  0  0  0  0  2  0  0  0  0  0  0
  187.8910  175.7470  140.9700 C   0  0  0  0  0  0  0  0  0  0  0  0
  187.2260  177.0830  140.8850 C   0  0  1  0  0  3  0  0  0  0  0  0
  191.6090  173.3490  141.5620 C   0  0  2  0  0  3  0  0  0  0  0  0
  191.0860  173.2520  143.9810 N   0  0  0  0  0  2  0  0  0  0  0  0
  185.5270  178.3400  141.6650 C   0  0  1  0  0  3  0  0  0  0  0  0
  193.1860  172.2390  143.2350 C   0  0  2  0  0  3  0  0  0  0  0  0
  189.9420  174.5310  146.3320 C   0  0  0  0  0  2  0  0  0  0  0  0
  190.2440  174.4340  143.8190 C   0  0  2  0  0  3  0  0  0  0  0  0
  189.2570  174.6410  144.9690 C   0  0  2  0  0  3  0  0  0  0  0  0
  188.3630  176.4990  143.3660 C   0  0  2  0  0  3  0  0  0  0  0  0
  185.3330  178.2910  140.2120 N   0  0  0  0  0  2  0  0  0  0  0  0
  193.6670  172.3260  140.6440 C   0  0  0  0  0  2  0  0  0  0  0  0
  192.1650  173.3530  142.9940 C   0  0  1  0  0  3  0  0  0  0  0  0
  186.3150  177.3300  139.7180 C   0  0  0  0  0  2  0  0  0  0  0  0
  192.7690  173.5560  140.6190 C   0  0  0  0  0  2  0  0  0  0  0  0
  194.5730  172.8140  142.9740 C   0  0  1  0  0  3  0  0  0  0  0  0
  188.2430  176.7580  145.8380 C   0  0  0  0  0  3  0  0  0  0  0  0
  188.5780  175.9930  144.7800 C   0  0  0  0  0  0  0  0  0  0  0  0
  187.1980  177.5200  143.2090 C   0  0  0  0  0  2  0  0  0  0  0  0
  190.5880  174.4750  141.3770 C   0  0  0  0  0  2  0  0  0  0  0  0
  188.0230  175.0250  139.9930 O   0  0  0  0  0  0  0  0  0  0  0  0
  183.9500  178.2070  142.4800 Cl  0  0  0  0  0  0  0  0  0  0  0  0
  188.3250  175.3190  142.3540 C   0  0  2  0  0  3  0  0  0  0  0  0
  186.3700  177.2190  142.0390 N   0  0  2  0  0  0  0  0  0  0  0  0
  195.5220  172.2050  143.8740 N   0  0  0  0  0  0  0  0  0  0  0  0
  195.9050  172.7610  144.9720 C   0  0  0  0  0  0  0  0  0  0  0  0
  195.3910  174.0980  145.4110 C   0  0  0  0  0  1  0  0  0  0  0  0
  196.8870  172.0540  145.8390 C   0  0  0  0  0  1  0  0  0  0  0  0
  1 16  1  6  0  0  0
  1 20  1  0  0  0  0
  1 10  1  0  0  0  0
  2 24  1  6  0  0  0
  2 12  1  0  0  0  0
  4  3  1  0  0  0  0
  5 27  1  0  0  0  0
  6 18  1  6  0  0  0
  6  5  1  0  0  0  0
  6 28  1  0  0  0  0
  7 19  1  6  0  0  0
  7 17  1  0  0  0  0
  9 28  1  0  0  0  0
  9 26  1  1  0  0  0
 11  3  1  0  0  0  0
 12  8  1  0  0  0  0
 12 13  1  0  0  0  0
 13 11  1  0  0  0  0
 14 22  1  0  0  0  0
 15  9  1  0  0  0  0
 17 10  1  0  0  0  0
 17  8  1  0  0  0  0
 18 15  1  0  0  0  0
 19 16  1  0  0  0  0
 20 10  1  0  0  0  0
 20 29  1  0  0  0  0
 21  4  1  0  0  0  0
 22 13  1  0  0  0  0
 22 21  2  0  0  0  0
 23 14  1  0  0  0  0
 24  7  1  0  0  0  0
 25  5  2  0  0  0  0
 27  2  1  0  0  0  0
 27 14  1  0  0  0  0
 28 23  1  0  0  0  0
 29 30  2  0  0  0  0
 30 31  1  0  0  0  0
 30 32  1  0  0  0  0
M  END
>  <MODEL>
2

>  <REMARK>
 VINA RESULT:      -8.2      3.359      8.844
  Name = 
  1 active torsions:
  status: ('A' for Active; 'I' for Inactive)
    1  A    between atoms: C_20  and  N_29
                            x       y       z     vdW  Elec       q    Type
                         _______ _______ _______ _____ _____    ______ ____

>  <TORSDO>
F 1

$$$$
=
 OpenBabel11112416343D

 32 38  0  0  1  0  0  0  0  0999 V2000
  193.2310  172.1000  141.1640 C   0  0  1  0  0  3  0  0  0  0  0  0
  189.4090  174.7550  143.5060 C   0  0  2  0  0  3  0  0  0  0  0  0
  191.2470  175.7060  148.0750 C   0  0  0  0  0  2  0  0  0  0  0  0
  190.8050  177.1660  148.0130 C   0  0  0  0  0  2  0  0  0  0  0  0
  187.2190  176.0450  142.8790 C   0  0  0  0  0  0  0  0  0  0  0  0
  186.5560  177.3770  143.0260 C   0  0  1  0  0  3  0  0  0  0  0  0
  190.8370  173.6680  141.7910 C   0  0  2  0  0  3  0  0  0  0  0  0
  191.5360  173.7630  144.1650 N   0  0  0  0  0  2  0  0  0  0  0  0
  185.3990  178.7050  144.4310 C   0  0  1  0  0  3  0  0  0  0  0  0
  193.0540  172.6770  142.5800 C   0  0  2  0  0  3  0  0  0  0  0  0
  191.6170  175.2300  146.6780 C   0  0  0  0  0  2  0  0  0  0  0  0
  190.6850  174.9360  144.3410 C   0  0  2  0  0  3  0  0  0  0  0  0
  190.3620  175.2400  145.8050 C   0  0  2  0  0  3  0  0  0  0  0  0
  188.7560  176.9760  144.6950 C   0  0  2  0  0  3  0  0  0  0  0  0
  184.5370  178.5450  143.2560 N   0  0  0  0  0  2  0  0  0  0  0  0
  192.2360  172.5590  140.0770 C   0  0  0  0  0  2  0  0  0  0  0  0
  192.0100  173.7780  142.7770 C   0  0  1  0  0  3  0  0  0  0  0  0
  185.1910  177.5410  142.4230 C   0  0  0  0  0  2  0  0  0  0  0  0
  191.3990  173.7910  140.3960 C   0  0  0  0  0  2  0  0  0  0  0  0
  194.1300  173.2180  141.6460 C   0  0  1  0  0  3  0  0  0  0  0  0
  189.8240  177.4270  146.8970 C   0  0  0  0  0  3  0  0  0  0  0  0
  189.6350  176.5790  145.8670 C   0  0  0  0  0  0  0  0  0  0  0  0
  187.6290  177.9930  145.0420 C   0  0  0  0  0  2  0  0  0  0  0  0
  189.8190  174.7850  142.0370 C   0  0  0  0  0  2  0  0  0  0  0  0
  186.8900  175.2490  142.0130 O   0  0  0  0  0  0  0  0  0  0  0  0
  184.4080  178.6500  145.9090 Cl  0  0  0  0  0  0  0  0  0  0  0  0
  188.2740  175.7220  143.9130 C   0  0  2  0  0  3  0  0  0  0  0  0
  186.3520  177.6090  144.4360 N   0  0  2  0  0  0  0  0  0  0  0  0
  195.4110  172.6720  142.0250 N   0  0  0  0  0  0  0  0  0  0  0  0
  196.3030  173.3490  142.6620 C   0  0  0  0  0  0  0  0  0  0  0  0
  196.0810  174.7740  143.0700 C   0  0  0  0  0  1  0  0  0  0  0  0
  197.5960  172.6990  143.0110 C   0  0  0  0  0  1  0  0  0  0  0  0
  1 16  1  6  0  0  0
  1 20  1  0  0  0  0
  1 10  1  0  0  0  0
  2 24  1  6  0  0  0
  2 27  1  0  0  0  0
  2 12  1  0  0  0  0
  4  3  1  0  0  0  0
  5  6  1  0  0  0  0
  5 27  1  0  0  0  0
  6 18  1  6  0  0  0
  6 28  1  0  0  0  0
  7 19  1  6  0  0  0
  7 24  1  0  0  0  0
  7 17  1  0  0  0  0
  8 12  1  0  0  0  0
  9 28  1  0  0  0  0
  9 26  1  1  0  0  0
 10 17  1  0  0  0  0
 11  3  1  0  0  0  0
 12 13  1  0  0  0  0
 13 22  1  0  0  0  0
 13 11  1  0  0  0  0
 14 23  1  0  0  0  0
 14 22  1  0  0  0  0
 15  9  1  0  0  0  0
 16 19  1  0  0  0  0
 17  8  1  0  0  0  0
 18 15  1  0  0  0  0
 20 29  1  0  0  0  0
 20 10  1  0  0  0  0
 21  4  1  0  0  0  0
 22 21  2  0  0  0  0
 25  5  2  0  0  0  0
 27 14  1  0  0  0  0
 28 23  1  0  0  0  0
 29 30  2  0  0  0  0
 30 32  1  0  0  0  0
 30 31  1  0  0  0  0
M  END
>  <MODEL>
3

>  <REMARK>
 VINA RESULT:      -7.9      3.122      8.639
  Name = 
  1 active torsions:
  status: ('A' for Active; 'I' for Inactive)
    1  A    between atoms: C_20  and  N_29
                            x       y       z     vdW  Elec       q    Type
                         _______ _______ _______ _____ _____    ______ ____

>  <TORSDO>
F 1

$$$$
=
 OpenBabel11112416343D

 32 38  0  0  1  0  0  0  0  0999 V2000
  186.3340  178.2200  141.8360 C   0  0  1  0  0  3  0  0  0  0  0  0
  190.9030  176.1900  143.3020 C   0  0  2  0  0  3  0  0  0  0  0  0
  191.1160  177.1660  148.2170 C   0  0  0  0  0  2  0  0  0  0  0  0
  191.5660  175.7430  148.5400 C   0  0  0  0  0  2  0  0  0  0  0  0
  192.7130  174.5270  142.4020 C   0  0  0  0  0  0  0  0  0  0  0  0
  193.4440  173.2750  142.7650 C   0  0  1  0  0  3  0  0  0  0  0  0
  188.8520  176.7320  142.0130 C   0  0  2  0  0  3  0  0  0  0  0  0
  189.1770  177.5800  144.3170 N   0  0  0  0  0  2  0  0  0  0  0  0
  195.1340  172.4270  143.9910 C   0  0  1  0  0  3  0  0  0  0  0  0
  187.0970  178.1790  143.1730 C   0  0  2  0  0  3  0  0  0  0  0  0
  190.1900  177.1410  147.0110 C   0  0  0  0  0  2  0  0  0  0  0  0
  190.0830  176.4650  144.5710 C   0  0  2  0  0  3  0  0  0  0  0  0
  190.9850  176.6770  145.7890 C   0  0  2  0  0  3  0  0  0  0  0  0
  192.0890  174.4920  144.8790 C   0  0  2  0  0  3  0  0  0  0  0  0
  195.4390  172.0550  142.6050 N   0  0  0  0  0  2  0  0  0  0  0  0
  186.8270  177.2930  140.7050 C   0  0  0  0  0  2  0  0  0  0  0  0
  188.1840  177.1170  143.3420 C   0  0  1  0  0  3  0  0  0  0  0  0
  194.4550  172.7550  141.7850 C   0  0  0  0  0  2  0  0  0  0  0  0
  187.7810  176.1750  141.1080 C   0  0  0  0  0  2  0  0  0  0  0  0
  185.7630  177.4590  143.0130 C   0  0  1  0  0  3  0  0  0  0  0  0
  192.0250  174.9900  147.3170 C   0  0  0  0  0  3  0  0  0  0  0  0
  191.7400  175.3810  146.0590 C   0  0  0  0  0  0  0  0  0  0  0  0
  193.3090  173.5530  145.1090 C   0  0  0  0  0  2  0  0  0  0  0  0
  189.9360  175.6750  142.2400 C   0  0  0  0  0  2  0  0  0  0  0  0
  192.6250  174.9150  141.2460 O   0  0  0  0  0  0  0  0  0  0  0  0
  196.6330  172.9040  144.8230 Cl  0  0  0  0  0  0  0  0  0  0  0  0
  192.1510  175.3170  143.5620 C   0  0  2  0  0  3  0  0  0  0  0  0
  194.2120  173.5480  143.9560 N   0  0  2  0  0  0  0  0  0  0  0  0
  184.7190  178.2420  143.6280 N   0  0  0  0  0  0  0  0  0  0  0  0
  184.4540  178.1940  144.8880 C   0  0  0  0  0  0  0  0  0  0  0  0
  185.2170  177.3130  145.8300 C   0  0  0  0  0  1  0  0  0  0  0  0
  183.3570  179.0410  145.4320 C   0  0  0  0  0  1  0  0  0  0  0  0
  1 16  1  6  0  0  0
  1 20  1  0  0  0  0
  1 10  1  0  0  0  0
  2 24  1  6  0  0  0
  2 27  1  0  0  0  0
  2 12  1  0  0  0  0
  3  4  1  0  0  0  0
  5  6  1  0  0  0  0
  5 27  1  0  0  0  0
  6 18  1  6  0  0  0
  6 28  1  0  0  0  0
  7 19  1  6  0  0  0
  7 24  1  0  0  0  0
  7 17  1  0  0  0  0
  8 12  1  0  0  0  0
  9 26  1  6  0  0  0
 10 17  1  0  0  0  0
 11  3  1  0  0  0  0
 12 13  1  0  0  0  0
 13 22  1  0  0  0  0
 13 11  1  0  0  0  0
 14 23  1  0  0  0  0
 14 22  1  0  0  0  0
 15  9  1  0  0  0  0
 16 19  1  0  0  0  0
 17  8  1  0  0  0  0
 18 15  1  0  0  0  0
 20 10  1  0  0  0  0
 20 29  1  0  0  0  0
 21  4  1  0  0  0  0
 22 21  2  0  0  0  0
 25  5  2  0  0  0  0
 27 14  1  0  0  0  0
 28  9  1  0  0  0  0
 28 23  1  0  0  0  0
 29 30  2  0  0  0  0
 30 32  1  0  0  0  0
 30 31  1  0  0  0  0
M  END
>  <MODEL>
4

>  <REMARK>
 VINA RESULT:      -7.9      2.264      4.400
  Name = 
  1 active torsions:
  status: ('A' for Active; 'I' for Inactive)
    1  A    between atoms: C_20  and  N_29
                            x       y       z     vdW  Elec       q    Type
                         _______ _______ _______ _____ _____    ______ ____

>  <TORSDO>
F 1

$$$$
=
 OpenBabel11112416343D

 32 38  0  0  1  0  0  0  0  0999 V2000
  195.4470  174.6440  145.4390 C   0  0  1  0  0  3  0  0  0  0  0  0
  190.8110  176.0790  143.5430 C   0  0  2  0  0  3  0  0  0  0  0  0
  190.1670  173.0760  139.5780 C   0  0  0  0  0  2  0  0  0  0  0  0
  188.7310  172.7510  139.9830 C   0  0  0  0  0  2  0  0  0  0  0  0
  188.7010  177.4370  144.2860 C   0  0  0  0  0  0  0  0  0  0  0  0
  187.2180  177.3170  144.4360 C   0  0  1  0  0  3  0  0  0  0  0  0
  192.7730  175.7700  145.0330 C   0  0  2  0  0  3  0  0  0  0  0  0
  192.6360  174.6210  142.8430 N   0  0  0  0  0  2  0  0  0  0  0  0
  185.2540  177.3460  143.3330 C   0  0  1  0  0  3  0  0  0  0  0  0
  194.6200  174.2070  144.2160 C   0  0  2  0  0  3  0  0  0  0  0  0
  191.0070  173.2950  140.8270 C   0  0  0  0  0  2  0  0  0  0  0  0
  191.1810  174.7310  142.9070 C   0  0  2  0  0  3  0  0  0  0  0  0
  190.4960  174.5410  141.5520 C   0  0  2  0  0  3  0  0  0  0  0  0
  188.4080  175.2920  142.9300 C   0  0  2  0  0  3  0  0  0  0  0  0
  185.1450  178.4060  144.3400 N   0  0  0  0  0  2  0  0  0  0  0  0
  194.7380  175.4960  146.5130 C   0  0  0  0  0  2  0  0  0  0  0  0
  193.1210  174.5110  144.2230 C   0  0  1  0  0  3  0  0  0  0  0  0
  186.4740  178.5220  144.9340 C   0  0  0  0  0  2  0  0  0  0  0  0
  193.2160  175.5340  146.4560 C   0  0  0  0  0  2  0  0  0  0  0  0
  194.9030  173.2340  145.3540 C   0  0  1  0  0  3  0  0  0  0  0  0
  188.1990  173.6940  141.0330 C   0  0  0  0  0  3  0  0  0  0  0  0
  188.9890  174.4890  141.7800 C   0  0  0  0  0  0  0  0  0  0  0  0
  186.9080  175.6760  142.7630 C   0  0  0  0  0  2  0  0  0  0  0  0
  191.2650  176.0330  144.9990 C   0  0  0  0  0  2  0  0  0  0  0  0
  189.3460  178.2910  144.8760 O   0  0  0  0  0  0  0  0  0  0  0  0
  184.5150  177.8930  141.8090 Cl  0  0  0  0  0  0  0  0  0  0  0  0
  189.3380  176.4800  143.3050 C   0  0  2  0  0  3  0  0  0  0  0  0
  186.6650  177.0740  143.1260 N   0  0  2  0  0  0  0  0  0  0  0  0
  195.9610  172.3350  144.9640 N   0  0  0  0  0  0  0  0  0  0  0  0
  195.9890  171.0920  145.3030 C   0  0  0  0  0  0  0  0  0  0  0  0
  194.9110  170.4690  146.1380 C   0  0  0  0  0  1  0  0  0  0  0  0
  197.1230  170.2410  144.8510 C   0  0  0  0  0  1  0  0  0  0  0  0
  1 16  1  1  0  0  0
  2 24  1  1  0  0  0
  3  4  1  0  0  0  0
  3 11  1  0  0  0  0
  4 21  1  0  0  0  0
  5  6  1  0  0  0  0
  5 25  2  0  0  0  0
  6 18  1  6  0  0  0
  7 24  1  1  0  0  0
  7 19  1  0  0  0  0
  8 12  1  0  0  0  0
  8 17  1  0  0  0  0
  9 26  1  6  0  0  0
  9 15  1  0  0  0  0
 10 17  1  0  0  0  0
 10 20  1  0  0  0  0
 10  1  1  0  0  0  0
 11 13  1  0  0  0  0
 12  2  1  0  0  0  0
 13 22  1  0  0  0  0
 13 12  1  0  0  0  0
 14 27  1  0  0  0  0
 15 18  1  0  0  0  0
 17  7  1  0  0  0  0
 19 16  1  0  0  0  0
 20  1  1  0  0  0  0
 21 22  2  0  0  0  0
 22 14  1  0  0  0  0
 23 14  1  0  0  0  0
 23 28  1  0  0  0  0
 27  2  1  0  0  0  0
 27  5  1  0  0  0  0
 28  9  1  0  0  0  0
 28  6  1  0  0  0  0
 29 30  2  0  0  0  0
 29 20  1  0  0  0  0
 30 31  1  0  0  0  0
 32 30  1  0  0  0  0
M  END
>  <MODEL>
5

>  <REMARK>
 VINA RESULT:      -7.9      2.911      8.208
  Name = 
  1 active torsions:
  status: ('A' for Active; 'I' for Inactive)
    1  A    between atoms: C_20  and  N_29
                            x       y       z     vdW  Elec       q    Type
                         _______ _______ _______ _____ _____    ______ ____

>  <TORSDO>
F 1

$$$$
=
 OpenBabel11112416343D

 32 38  0  0  1  0  0  0  0  0999 V2000
  186.9070  178.2900  144.0650 C   0  0  1  0  0  3  0  0  0  0  0  0
  189.8650  174.6520  141.7940 C   0  0  2  0  0  3  0  0  0  0  0  0
  193.4870  173.7950  145.1560 C   0  0  0  0  0  2  0  0  0  0  0  0
  193.3460  172.2820  145.0090 C   0  0  0  0  0  2  0  0  0  0  0  0
  189.7370  172.9470  139.8130 C   0  0  0  0  0  0  0  0  0  0  0  0
  189.8780  171.4910  139.5040 C   0  0  1  0  0  3  0  0  0  0  0  0
  187.9820  176.1700  142.3530 C   0  0  2  0  0  3  0  0  0  0  0  0
  189.9980  176.0520  143.7860 N   0  0  0  0  0  2  0  0  0  0  0  0
  191.3530  169.8260  139.1430 C   0  0  1  0  0  3  0  0  0  0  0  0
  188.2110  177.5790  144.4700 C   0  0  2  0  0  3  0  0  0  0  0  0
  192.1290  174.4500  144.9560 C   0  0  0  0  0  2  0  0  0  0  0  0
  190.2460  174.7050  143.2810 C   0  0  2  0  0  3  0  0  0  0  0  0
  191.6780  174.2200  143.5130 C   0  0  2  0  0  3  0  0  0  0  0  0
  190.8550  172.2540  142.0030 C   0  0  2  0  0  3  0  0  0  0  0  0
  190.5240  169.8750  137.9330 N   0  0  0  0  0  2  0  0  0  0  0  0
  186.1110  177.7020  142.8810 C   0  0  0  0  0  2  0  0  0  0  0  0
  188.5460  176.2550  143.7790 C   0  0  1  0  0  3  0  0  0  0  0  0
  189.6910  171.0650  138.0760 C   0  0  0  0  0  2  0  0  0  0  0  0
  186.4800  176.2890  142.4480 C   0  0  0  0  0  2  0  0  0  0  0  0
  186.9300  177.3750  145.2700 C   0  0  1  0  0  3  0  0  0  0  0  0
  192.5480  171.8900  143.7910 C   0  0  0  0  0  3  0  0  0  0  0  0
  191.7570  172.7500  143.1190 C   0  0  0  0  0  0  0  0  0  0  0  0
  191.3690  170.9820  141.2670 C   0  0  0  0  0  2  0  0  0  0  0  0
  188.3530  174.8330  141.7060 C   0  0  0  0  0  2  0  0  0  0  0  0
  189.1350  173.7110  139.0740 O   0  0  0  0  0  0  0  0  0  0  0  0
  193.0500  169.5360  138.6910 Cl  0  0  0  0  0  0  0  0  0  0  0  0
  190.4450  173.4210  141.0610 C   0  0  2  0  0  3  0  0  0  0  0  0
  191.2340  171.1080  139.8140 N   0  0  2  0  0  0  0  0  0  0  0  0
  186.9860  178.1690  146.4730 N   0  0  0  0  0  0  0  0  0  0  0  0
  185.9330  178.5830  147.0920 C   0  0  0  0  0  0  0  0  0  0  0  0
  184.5500  178.2680  146.6090 C   0  0  0  0  0  1  0  0  0  0  0  0
  186.0910  179.3970  148.3280 C   0  0  0  0  0  1  0  0  0  0  0  0
  1 16  1  6  0  0  0
  1 10  1  0  0  0  0
  1 20  1  0  0  0  0
  2 24  1  1  0  0  0
  2 12  1  0  0  0  0
  4  3  1  0  0  0  0
  5 27  1  0  0  0  0
  6 18  1  6  0  0  0
  6  5  1  0  0  0  0
  6 28  1  0  0  0  0
  7 24  1  1  0  0  0
  7 19  1  0  0  0  0
  7 17  1  0  0  0  0
  9 26  1  6  0  0  0
  9 28  1  0  0  0  0
 10 20  1  0  0  0  0
 11  3  1  0  0  0  0
 12 13  1  0  0  0  0
 12  8  1  0  0  0  0
 13 11  1  0  0  0  0
 14 22  1  0  0  0  0
 15 18  1  0  0  0  0
 15  9  1  0  0  0  0
 17  8  1  0  0  0  0
 17 10  1  0  0  0  0
 19 16  1  0  0  0  0
 20 29  1  0  0  0  0
 21  4  1  0  0  0  0
 22 13  1  0  0  0  0
 22 21  2  0  0  0  0
 23 14  1  0  0  0  0
 25  5  2  0  0  0  0
 27  2  1  0  0  0  0
 27 14  1  0  0  0  0
 28 23  1  0  0  0  0
 29 30  2  0  0  0  0
 30 32  1  0  0  0  0
 31 30  1  0  0  0  0
M  END
>  <MODEL>
6

>  <REMARK>
 VINA RESULT:      -7.7      3.354      5.699
  Name = 
  1 active torsions:
  status: ('A' for Active; 'I' for Inactive)
    1  A    between atoms: C_20  and  N_29
                            x       y       z     vdW  Elec       q    Type
                         _______ _______ _______ _____ _____    ______ ____

>  <TORSDO>
F 1

$$$$
=
 OpenBabel11112416343D

 32 38  0  0  1  0  0  0  0  0999 V2000
  186.8730  177.6280  143.2920 C   0  0  1  0  0  3  0  0  0  0  0  0
  191.2490  174.9610  142.3530 C   0  0  2  0  0  3  0  0  0  0  0  0
  194.4750  176.7300  145.7610 C   0  0  0  0  0  2  0  0  0  0  0  0
  194.9390  175.3250  146.1380 C   0  0  0  0  0  2  0  0  0  0  0  0
  192.0260  172.8160  141.0690 C   0  0  0  0  0  0  0  0  0  0  0  0
  192.7460  171.5220  141.2700 C   0  0  1  0  0  3  0  0  0  0  0  0
  188.8770  175.6920  142.3880 C   0  0  2  0  0  3  0  0  0  0  0  0
  190.5910  176.8480  143.7500 N   0  0  0  0  0  2  0  0  0  0  0  0
  194.7750  170.5640  141.4770 C   0  0  1  0  0  3  0  0  0  0  0  0
  188.2880  177.6640  143.8980 C   0  0  2  0  0  3  0  0  0  0  0  0
  193.0060  176.6890  145.3670 C   0  0  0  0  0  2  0  0  0  0  0  0
  191.3920  175.6270  143.7290 C   0  0  2  0  0  3  0  0  0  0  0  0
  192.8600  175.8560  144.0940 C   0  0  2  0  0  3  0  0  0  0  0  0
  193.0410  173.3580  143.3500 C   0  0  2  0  0  3  0  0  0  0  0  0
  194.1480  169.8940  140.3330 N   0  0  0  0  0  2  0  0  0  0  0  0
  186.5140  176.4300  142.3880 C   0  0  0  0  0  2  0  0  0  0  0  0
  189.1840  176.4410  143.6930 C   0  0  1  0  0  3  0  0  0  0  0  0
  192.9150  170.6310  140.0740 C   0  0  0  0  0  2  0  0  0  0  0  0
  187.4430  175.2240  142.4550 C   0  0  0  0  0  2  0  0  0  0  0  0
  187.0910  177.2300  144.7360 C   0  0  1  0  0  3  0  0  0  0  0  0
  194.5080  174.2850  145.1340 C   0  0  0  0  0  3  0  0  0  0  0  0
  193.5400  174.4970  144.2210 C   0  0  0  0  0  0  0  0  0  0  0  0
  194.0860  172.2360  143.0830 C   0  0  0  0  0  2  0  0  0  0  0  0
  189.8050  174.4840  142.2270 C   0  0  0  0  0  2  0  0  0  0  0  0
  191.2760  173.0010  140.1220 O   0  0  0  0  0  0  0  0  0  0  0  0
  196.4970  170.8500  141.1290 Cl  0  0  0  0  0  0  0  0  0  0  0  0
  192.3390  173.9020  142.0740 C   0  0  2  0  0  3  0  0  0  0  0  0
  194.0960  171.8320  141.6750 N   0  0  2  0  0  0  0  0  0  0  0  0
  186.6910  178.3150  145.5980 N   0  0  0  0  0  0  0  0  0  0  0  0
  186.3380  178.1440  146.8260 C   0  0  0  0  0  0  0  0  0  0  0  0
  186.3160  176.7910  147.4680 C   0  0  0  0  0  1  0  0  0  0  0  0
  185.9410  179.3270  147.6380 C   0  0  0  0  0  1  0  0  0  0  0  0
  1 16  1  6  0  0  0
  1 10  1  0  0  0  0
  1 20  1  0  0  0  0
  2 24  1  1  0  0  0
  2 12  1  0  0  0  0
  3  4  1  0  0  0  0
  5  6  1  0  0  0  0
  5 27  1  0  0  0  0
  6 18  1  6  0  0  0
  6 28  1  0  0  0  0
  7 24  1  1  0  0  0
  7 19  1  0  0  0  0
  7 17  1  0  0  0  0
  9 26  1  6  0  0  0
  9 28  1  0  0  0  0
 10 20  1  0  0  0  0
 11  3  1  0  0  0  0
 12  8  1  0  0  0  0
 12 13  1  0  0  0  0
 13 22  1  0  0  0  0
 13 11  1  0  0  0  0
 14 22  1  0  0  0  0
 15  9  1  0  0  0  0
 16 19  1  0  0  0  0
 17  8  1  0  0  0  0
 17 10  1  0  0  0  0
 18 15  1  0  0  0  0
 20 29  1  0  0  0  0
 21  4  1  0  0  0  0
 22 21  2  0  0  0  0
 23 14  1  0  0  0  0
 25  5  2  0  0  0  0
 27  2  1  0  0  0  0
 27 14  1  0  0  0  0
 28 23  1  0  0  0  0
 29 30  2  0  0  0  0
 30 31  1  0  0  0  0
 30 32  1  0  0  0  0
M  END
>  <MODEL>
7

>  <REMARK>
 VINA RESULT:      -7.7      2.809      5.277
  Name = 
  1 active torsions:
  status: ('A' for Active; 'I' for Inactive)
    1  A    between atoms: C_20  and  N_29
                            x       y       z     vdW  Elec       q    Type
                         _______ _______ _______ _____ _____    ______ ____

>  <TORSDO>
F 1

$$$$
=
 OpenBabel11112416343D

 32 38  0  0  1  0  0  0  0  0999 V2000
  187.0180  176.8700  144.6710 C   0  0  1  0  0  3  0  0  0  0  0  0
  191.6310  174.8630  143.3160 C   0  0  2  0  0  3  0  0  0  0  0  0
  190.7500  172.7700  138.8440 C   0  0  0  0  0  2  0  0  0  0  0  0
  192.0140  173.3800  138.2440 C   0  0  0  0  0  2  0  0  0  0  0  0
  194.1510  175.0490  143.9990 C   0  0  0  0  0  0  0  0  0  0  0  0
  195.5040  175.3420  143.4340 C   0  0  1  0  0  3  0  0  0  0  0  0
  189.8570  176.1850  144.4430 C   0  0  2  0  0  3  0  0  0  0  0  0
  189.3470  174.7810  142.4680 N   0  0  0  0  0  2  0  0  0  0  0  0
  197.2220  174.4920  142.2520 C   0  0  1  0  0  3  0  0  0  0  0  0
  187.5030  176.0450  143.4650 C   0  0  2  0  0  3  0  0  0  0  0  0
  190.1790  173.7170  139.8890 C   0  0  0  0  0  2  0  0  0  0  0  0
  190.7450  174.8900  142.0620 C   0  0  2  0  0  3  0  0  0  0  0  0
  191.1700  173.8260  141.0490 C   0  0  2  0  0  3  0  0  0  0  0  0
  193.5240  174.8510  141.5300 C   0  0  2  0  0  3  0  0  0  0  0  0
  197.8040  174.9060  143.5330 N   0  0  0  0  0  2  0  0  0  0  0  0
  188.0920  177.4820  145.5960 C   0  0  0  0  0  2  0  0  0  0  0  0
  189.0050  176.0180  143.1760 C   0  0  1  0  0  3  0  0  0  0  0  0
  196.6730  175.2840  144.3740 C   0  0  0  0  0  2  0  0  0  0  0  0
  189.5150  177.5220  145.0520 C   0  0  0  0  0  2  0  0  0  0  0  0
  187.0200  177.4790  143.2860 C   0  0  1  0  0  3  0  0  0  0  0  0
  192.9530  173.9160  139.2950 C   0  0  0  0  0  3  0  0  0  0  0  0
  192.5780  174.1580  140.5660 C   0  0  0  0  0  0  0  0  0  0  0  0
  195.0360  174.6330  141.2270 C   0  0  0  0  0  2  0  0  0  0  0  0
  191.3490  176.1420  144.0990 C   0  0  0  0  0  2  0  0  0  0  0  0
  193.9150  175.1350  145.1950 O   0  0  0  0  0  0  0  0  0  0  0  0
  197.9390  172.9430  141.7450 Cl  0  0  0  0  0  0  0  0  0  0  0  0
  193.1170  174.5720  143.0050 C   0  0  2  0  0  3  0  0  0  0  0  0
  195.7920  174.3320  142.4450 N   0  0  2  0  0  0  0  0  0  0  0  0
  185.6770  177.4700  142.7580 N   0  0  0  0  0  0  0  0  0  0  0  0
  184.8130  178.3900  143.0180 C   0  0  0  0  0  0  0  0  0  0  0  0
  185.1340  179.5590  143.8980 C   0  0  0  0  0  1  0  0  0  0  0  0
  183.4510  178.2950  142.4250 C   0  0  0  0  0  1  0  0  0  0  0  0
  1 16  1  1  0  0  0
  2 24  1  6  0  0  0
  3 11  1  0  0  0  0
  4  3  1  0  0  0  0
  4 21  1  0  0  0  0
  5 25  2  0  0  0  0
  6  5  1  0  0  0  0
  6 18  1  1  0  0  0
  7 24  1  6  0  0  0
  7 19  1  0  0  0  0
  8 17  1  0  0  0  0
  9 26  1  1  0  0  0
  9 28  1  0  0  0  0
  9 15  1  0  0  0  0
 10  1  1  0  0  0  0
 11 13  1  0  0  0  0
 12  8  1  0  0  0  0
 12  2  1  0  0  0  0
 13 12  1  0  0  0  0
 14 27  1  0  0  0  0
 15 18  1  0  0  0  0
 17 10  1  0  0  0  0
 17  7  1  0  0  0  0
 19 16  1  0  0  0  0
 20 10  1  0  0  0  0
 20  1  1  0  0  0  0
 21 22  2  0  0  0  0
 22 13  1  0  0  0  0
 22 14  1  0  0  0  0
 23 14  1  0  0  0  0
 23 28  1  0  0  0  0
 27  2  1  0  0  0  0
 27  5  1  0  0  0  0
 28  6  1  0  0  0  0
 29 30  2  0  0  0  0
 29 20  1  0  0  0  0
 30 31  1  0  0  0  0
 32 30  1  0  0  0  0
M  END
>  <MODEL>
8

>  <REMARK>
 VINA RESULT:      -7.5      1.870      2.794
  Name = 
  1 active torsions:
  status: ('A' for Active; 'I' for Inactive)
    1  A    between atoms: C_20  and  N_29
                            x       y       z     vdW  Elec       q    Type
                         _______ _______ _______ _____ _____    ______ ____

>  <TORSDO>
F 1

$$$$
=
 OpenBabel11112416343D

 32 38  0  0  1  0  0  0  0  0999 V2000
  189.6620  175.2740  147.6110 C   0  0  1  0  0  3  0  0  0  0  0  0
  192.6310  173.7510  143.6110 C   0  0  2  0  0  3  0  0  0  0  0  0
  189.3110  172.6550  140.0150 C   0  0  0  0  0  2  0  0  0  0  0  0
  190.1110  173.4200  138.9620 C   0  0  0  0  0  2  0  0  0  0  0  0
  195.1310  173.8610  142.8440 C   0  0  0  0  0  0  0  0  0  0  0  0
  195.9950  174.3120  141.7090 C   0  0  1  0  0  3  0  0  0  0  0  0
  191.8640  174.7420  145.7540 C   0  0  2  0  0  3  0  0  0  0  0  0
  190.2510  173.7860  144.1360 N   0  0  0  0  0  2  0  0  0  0  0  0
  196.7300  173.7910  139.6440 C   0  0  1  0  0  3  0  0  0  0  0  0
  189.3500  174.7470  146.2000 C   0  0  2  0  0  3  0  0  0  0  0  0
  189.4770  173.3340  141.3660 C   0  0  0  0  0  2  0  0  0  0  0  0
  191.2200  174.0230  143.0700 C   0  0  2  0  0  3  0  0  0  0  0  0
  190.9390  173.2180  141.8000 C   0  0  2  0  0  3  0  0  0  0  0  0
  193.2690  174.1860  141.1250 C   0  0  2  0  0  3  0  0  0  0  0  0
  197.9410  173.9350  140.4590 N   0  0  0  0  0  2  0  0  0  0  0  0
  191.1150  175.7030  147.9080 C   0  0  0  0  0  2  0  0  0  0  0  0
  190.4560  174.8290  145.1450 C   0  0  1  0  0  3  0  0  0  0  0  0
  197.4740  174.0870  141.8330 C   0  0  0  0  0  2  0  0  0  0  0  0
  192.0250  175.9040  146.7030 C   0  0  0  0  0  2  0  0  0  0  0  0
  188.9800  176.1700  146.5990 C   0  0  1  0  0  3  0  0  0  0  0  0
  191.5110  173.7430  139.4210 C   0  0  0  0  0  3  0  0  0  0  0  0
  191.8950  173.6910  140.7110 C   0  0  0  0  0  0  0  0  0  0  0  0
  194.3580  174.0860  140.0170 C   0  0  0  0  0  2  0  0  0  0  0  0
  192.9300  174.8200  144.6580 C   0  0  0  0  0  2  0  0  0  0  0  0
  195.5790  173.6780  143.9660 O   0  0  0  0  0  0  0  0  0  0  0  0
  196.9190  172.4120  138.5340 Cl  0  0  0  0  0  0  0  0  0  0  0  0
  193.6870  173.5810  142.4950 C   0  0  2  0  0  3  0  0  0  0  0  0
  195.6160  173.5500  140.5440 N   0  0  2  0  0  0  0  0  0  0  0  0
  187.5690  176.2350  146.8920 N   0  0  0  0  0  0  0  0  0  0  0  0
  186.7140  176.7980  146.1080 C   0  0  0  0  0  0  0  0  0  0  0  0
  187.1190  177.4360  144.8140 C   0  0  0  0  0  1  0  0  0  0  0  0
  185.2770  176.8130  146.4940 C   0  0  0  0  0  1  0  0  0  0  0  0
  1 16  1  6  0  0  0
  2 24  1  1  0  0  0
  3 11  1  0  0  0  0
  4 21  1  0  0  0  0
  4  3  1  0  0  0  0
  5 25  2  0  0  0  0
  6 18  1  1  0  0  0
  6  5  1  0  0  0  0
  7 24  1  6  0  0  0
  7 19  1  0  0  0  0
  8 17  1  0  0  0  0
  9 26  1  6  0  0  0
  9 15  1  0  0  0  0
  9 28  1  0  0  0  0
 10 20  1  0  0  0  0
 10  1  1  0  0  0  0
 11 13  1  0  0  0  0
 12  2  1  0  0  0  0
 12  8  1  0  0  0  0
 13 12  1  0  0  0  0
 14 27  1  0  0  0  0
 15 18  1  0  0  0  0
 17  7  1  0  0  0  0
 17 10  1  0  0  0  0
 19 16  1  0  0  0  0
 20 29  1  0  0  0  0
 20  1  1  0  0  0  0
 21 22  2  0  0  0  0
 22 14  1  0  0  0  0
 22 13  1  0  0  0  0
 23 28  1  0  0  0  0
 23 14  1  0  0  0  0
 27  5  1  0  0  0  0
 27  2  1  0  0  0  0
 28  6  1  0  0  0  0
 30 32  1  0  0  0  0
 30 29  2  0  0  0  0
 31 30  1  0  0  0  0
M  END
>  <MODEL>
9

>  <REMARK>
 VINA RESULT:      -7.4      3.163      4.774
  Name = 
  1 active torsions:
  status: ('A' for Active; 'I' for Inactive)
    1  A    between atoms: C_20  and  N_29
                            x       y       z     vdW  Elec       q    Type
                         _______ _______ _______ _____ _____    ______ ____

>  <TORSDO>
F 1

$$$$
