=
 OpenBabel11112417393D

 28 32  0  0  1  0  0  0  0  0999 V2000
  191.4030  173.6420  144.6410 C   0  0  0  0  0  0  0  0  0  0  0  0
  189.9140  175.3990  147.2810 O   0  0  0  0  0  0  0  0  0  0  0  0
  187.5480  176.1280  140.2720 O   0  0  0  0  0  1  0  0  0  0  0  0
  193.8060  175.0880  144.6200 C   0  0  0  0  0  3  0  0  0  0  0  0
  188.3980  177.7580  141.7810 C   0  0  2  0  0  3  0  0  0  0  0  0
  190.1460  172.8300  144.6260 C   0  0  0  0  0  2  0  0  0  0  0  0
  189.9100  177.8280  147.6690 O   0  0  0  0  0  0  0  0  0  0  0  0
  189.4060  176.7230  146.7860 S   0  0  0  0  0  0  0  0  0  0  0  0
  186.9650  176.9560  145.5700 C   0  0  0  0  0  0  0  0  0  0  0  0
  189.9350  177.0150  145.1150 C   0  0  2  0  0  3  0  0  0  0  0  0
  188.9580  172.5790  141.1640 O   0  0  0  0  0  0  0  0  0  0  0  0
  189.9170  176.2240  142.8250 C   0  0  2  0  0  3  0  0  0  0  0  0
  187.5490  177.4010  144.4950 N   0  0  0  0  0  0  0  0  0  0  0  0
  187.6860  176.7280  146.7790 N   0  0  0  0  0  2  0  0  0  0  0  0
  189.0780  173.0420  142.3270 C   0  0  0  0  0  0  0  0  0  0  0  0
  191.3790  175.0420  144.4810 C   0  0  0  0  0  0  0  0  0  0  0  0
  187.8920  176.3450  141.6070 C   0  0  2  0  0  3  0  0  0  0  0  0
  185.5820  176.6360  145.5230 N   0  0  0  0  0  1  0  0  0  0  0  0
  188.3660  174.3060  142.6890 C   0  0  0  0  0  2  0  0  0  0  0  0
  192.5890  175.7550  144.4640 C   0  0  0  0  0  3  0  0  0  0  0  0
  192.6280  172.9820  144.7910 C   0  0  0  0  0  3  0  0  0  0  0  0
  193.8240  173.7010  144.7850 C   0  0  0  0  0  3  0  0  0  0  0  0
  189.8800  172.3390  143.2810 N   0  0  0  0  0  2  0  0  0  0  0  0
  189.4230  177.6610  142.8950 C   0  0  2  0  0  3  0  0  0  0  0  0
  188.9730  175.4400  141.9920 N   0  0  2  0  0  0  0  0  0  0  0  0
  188.9400  177.8670  144.3430 C   0  0  2  0  0  3  0  0  0  0  0  0
  187.3580  178.6460  142.0690 O   0  0  0  0  0  1  0  0  0  0  0  0
  190.0740  175.7560  144.2790 C   0  0  1  0  0  3  0  0  0  0  0  0
  1 21  1  0  0  0  0
  3 17  1  0  0  0  0
  4 22  1  0  0  0  0
  5 27  1  1  0  0  0
  5 24  1  0  0  0  0
  6  1  1  0  0  0  0
  8  2  2  0  0  0  0
  8  7  2  0  0  0  0
  9 14  1  0  0  0  0
 10  8  1  1  0  0  0
 11 15  2  0  0  0  0
 12 24  1  0  0  0  0
 12 28  1  0  0  0  0
 13  9  2  0  0  0  0
 14  8  1  0  0  0  0
 15 19  1  0  0  0  0
 15 23  1  0  0  0  0
 16  1  2  0  0  0  0
 17  5  1  0  0  0  0
 17 25  1  0  0  0  0
 18  9  1  0  0  0  0
 20 16  1  0  0  0  0
 20  4  2  0  0  0  0
 22 21  2  0  0  0  0
 23  6  1  0  0  0  0
 24 26  1  0  0  0  0
 25 19  1  0  0  0  0
 25 12  1  0  0  0  0
 26 13  1  0  0  0  0
 26 10  1  0  0  0  0
 28 16  1  0  0  0  0
 28 10  1  0  0  0  0
M  END
>  <MODEL>
1

>  <REMARK>
 VINA RESULT:      -8.0      0.000      0.000
  Name = 
  0 active torsions:
  status: ('A' for Active; 'I' for Inactive)
                            x       y       z     vdW  Elec       q    Type
                         _______ _______ _______ _____ _____    ______ ____

>  <TORSDO>
F 0

$$$$
=
 OpenBabel11112417393D

 28 32  0  0  1  0  0  0  0  0999 V2000
  186.5570  178.2750  144.1800 C   0  0  0  0  0  0  0  0  0  0  0  0
  189.6950  178.2910  145.7380 O   0  0  0  0  0  0  0  0  0  0  0  0
  188.2450  173.9160  139.9060 O   0  0  0  0  0  1  0  0  0  0  0  0
  185.1830  176.9860  146.2570 C   0  0  0  0  0  3  0  0  0  0  0  0
  188.9310  173.3520  142.1120 C   0  0  2  0  0  3  0  0  0  0  0  0
  187.2420  178.9820  143.0530 C   0  0  0  0  0  2  0  0  0  0  0  0
  190.7650  176.4690  146.9990 O   0  0  0  0  0  0  0  0  0  0  0  0
  190.3150  176.9260  145.6410 S   0  0  0  0  0  0  0  0  0  0  0  0
  191.6910  176.1350  143.4110 C   0  0  0  0  0  0  0  0  0  0  0  0
  189.1560  175.7530  144.9790 C   0  0  2  0  0  3  0  0  0  0  0  0
  186.3230  177.3330  139.9070 O   0  0  0  0  0  0  0  0  0  0  0  0
  187.7220  175.1640  143.1170 C   0  0  2  0  0  3  0  0  0  0  0  0
  190.8480  175.1590  143.2430 N   0  0  0  0  0  0  0  0  0  0  0  0
  191.6600  176.9660  144.5700 N   0  0  0  0  0  2  0  0  0  0  0  0
  186.9860  177.5790  140.9470 C   0  0  0  0  0  0  0  0  0  0  0  0
  186.9960  177.0170  144.6380 C   0  0  0  0  0  0  0  0  0  0  0  0
  188.7320  174.4540  141.0980 C   0  0  2  0  0  3  0  0  0  0  0  0
  192.6360  176.4160  142.3880 N   0  0  0  0  0  1  0  0  0  0  0  0
  188.1800  176.7390  141.2680 C   0  0  0  0  0  2  0  0  0  0  0  0
  186.2960  176.3760  145.6730 C   0  0  0  0  0  3  0  0  0  0  0  0
  185.4370  178.8760  144.7680 C   0  0  0  0  0  3  0  0  0  0  0  0
  184.7550  178.2360  145.8050 C   0  0  0  0  0  3  0  0  0  0  0  0
  186.5910  178.6660  141.7900 N   0  0  0  0  0  2  0  0  0  0  0  0
  188.6600  174.0140  143.4500 C   0  0  2  0  0  3  0  0  0  0  0  0
  187.7570  175.3910  141.6510 N   0  0  2  0  0  0  0  0  0  0  0  0
  189.8480  174.6460  144.1990 C   0  0  2  0  0  3  0  0  0  0  0  0
  190.2100  172.7960  142.0250 O   0  0  0  0  0  1  0  0  0  0  0  0
  188.1710  176.3460  143.9880 C   0  0  1  0  0  3  0  0  0  0  0  0
  1 16  2  0  0  0  0
  1 21  1  0  0  0  0
  3 17  1  0  0  0  0
  5 27  1  1  0  0  0
  5 24  1  0  0  0  0
  6  1  1  0  0  0  0
  8  2  2  0  0  0  0
  8  7  2  0  0  0  0
  9 14  1  0  0  0  0
 10  8  1  6  0  0  0
 11 15  2  0  0  0  0
 12 24  1  0  0  0  0
 12 28  1  0  0  0  0
 13  9  2  0  0  0  0
 13 26  1  0  0  0  0
 14  8  1  0  0  0  0
 15 19  1  0  0  0  0
 15 23  1  0  0  0  0
 16 20  1  0  0  0  0
 17 25  1  0  0  0  0
 17  5  1  0  0  0  0
 18  9  1  0  0  0  0
 19 25  1  0  0  0  0
 20  4  2  0  0  0  0
 21 22  2  0  0  0  0
 22  4  1  0  0  0  0
 23  6  1  0  0  0  0
 24 26  1  0  0  0  0
 25 12  1  0  0  0  0
 26 10  1  0  0  0  0
 28 16  1  0  0  0  0
 28 10  1  0  0  0  0
M  END
>  <MODEL>
2

>  <REMARK>
 VINA RESULT:      -7.5      2.237      5.350
  Name = 
  0 active torsions:
  status: ('A' for Active; 'I' for Inactive)
                            x       y       z     vdW  Elec       q    Type
                         _______ _______ _______ _____ _____    ______ ____

>  <TORSDO>
F 0

$$$$
=
 OpenBabel11112417393D

 28 32  0  0  1  0  0  0  0  0999 V2000
  187.1580  177.2790  144.5310 C   0  0  0  0  0  0  0  0  0  0  0  0
  187.0790  174.2730  142.7350 O   0  0  0  0  0  0  0  0  0  0  0  0
  193.3420  176.8210  145.8230 O   0  0  0  0  0  1  0  0  0  0  0  0
  186.8440  178.9730  142.3180 C   0  0  0  0  0  3  0  0  0  0  0  0
  192.8410  176.3360  143.5500 C   0  0  2  0  0  3  0  0  0  0  0  0
  187.3080  176.4160  145.7440 C   0  0  0  0  0  2  0  0  0  0  0  0
  188.1910  173.7560  140.6020 O   0  0  0  0  0  0  0  0  0  0  0  0
  188.4030  174.0510  142.0590 S   0  0  0  0  0  0  0  0  0  0  0  0
  190.5160  172.9270  143.3850 C   0  0  0  0  0  0  0  0  0  0  0  0
  189.4420  175.4830  142.2260 C   0  0  2  0  0  3  0  0  0  0  0  0
  190.0660  177.7270  147.7780 O   0  0  0  0  0  0  0  0  0  0  0  0
  190.5470  177.0070  143.7510 C   0  0  2  0  0  3  0  0  0  0  0  0
  191.2140  174.0050  143.1780 N   0  0  0  0  0  0  0  0  0  0  0  0
  189.2290  172.7380  142.8010 N   0  0  0  0  0  2  0  0  0  0  0  0
  189.4860  177.0310  146.9060 C   0  0  0  0  0  0  0  0  0  0  0  0
  188.0680  177.2080  143.4570 C   0  0  0  0  0  0  0  0  0  0  0  0
  192.4010  176.2140  144.9900 C   0  0  2  0  0  3  0  0  0  0  0  0
  191.0270  171.9320  144.2630 N   0  0  0  0  0  1  0  0  0  0  0  0
  190.2950  176.1170  146.0420 C   0  0  0  0  0  2  0  0  0  0  0  0
  187.9060  178.0670  142.3570 C   0  0  0  0  0  3  0  0  0  0  0  0
  186.1000  178.1950  144.4850 C   0  0  0  0  0  3  0  0  0  0  0  0
  185.9410  179.0360  143.3820 C   0  0  0  0  0  3  0  0  0  0  0  0
  188.0640  177.1180  146.7720 N   0  0  0  0  0  2  0  0  0  0  0  0
  191.5470  176.4250  142.7630 C   0  0  2  0  0  3  0  0  0  0  0  0
  191.1160  176.8980  145.1170 N   0  0  2  0  0  0  0  0  0  0  0  0
  190.9170  175.1160  142.2530 C   0  0  2  0  0  3  0  0  0  0  0  0
  193.6430  175.2590  143.1630 O   0  0  0  0  0  1  0  0  0  0  0  0
  189.2280  176.2580  143.5140 C   0  0  1  0  0  3  0  0  0  0  0  0
  1  6  1  0  0  0  0
  4 20  2  0  0  0  0
  4 22  1  0  0  0  0
  5 27  1  6  0  0  0
  5 17  1  0  0  0  0
  6 23  1  0  0  0  0
  7  8  2  0  0  0  0
  8  2  2  0  0  0  0
  8 14  1  0  0  0  0
  9 18  1  0  0  0  0
 10  8  1  1  0  0  0
 10 26  1  0  0  0  0
 10 28  1  0  0  0  0
 12 25  1  0  0  0  0
 13  9  2  0  0  0  0
 14  9  1  0  0  0  0
 15 11  2  0  0  0  0
 16 28  1  0  0  0  0
 16  1  2  0  0  0  0
 17 25  1  0  0  0  0
 17  3  1  0  0  0  0
 19 15  1  0  0  0  0
 20 16  1  0  0  0  0
 21  1  1  0  0  0  0
 22 21  2  0  0  0  0
 23 15  1  0  0  0  0
 24  5  1  0  0  0  0
 24 12  1  0  0  0  0
 25 19  1  0  0  0  0
 26 24  1  0  0  0  0
 26 13  1  0  0  0  0
 28 12  1  0  0  0  0
M  END
>  <MODEL>
3

>  <REMARK>
 VINA RESULT:      -7.5      2.314      5.983
  Name = 
  0 active torsions:
  status: ('A' for Active; 'I' for Inactive)
                            x       y       z     vdW  Elec       q    Type
                         _______ _______ _______ _____ _____    ______ ____

>  <TORSDO>
F 0

$$$$
=
 OpenBabel11112417393D

 28 32  0  0  1  0  0  0  0  0999 V2000
  188.5300  176.3250  144.9510 C   0  0  0  0  0  0  0  0  0  0  0  0
  188.9630  173.4250  143.0330 O   0  0  0  0  0  0  0  0  0  0  0  0
  194.6790  176.7760  146.4030 O   0  0  0  0  0  1  0  0  0  0  0  0
  188.0040  178.0460  142.8000 C   0  0  0  0  0  3  0  0  0  0  0  0
  194.3110  176.3210  144.0980 C   0  0  2  0  0  3  0  0  0  0  0  0
  188.7860  175.4430  146.1320 C   0  0  0  0  0  2  0  0  0  0  0  0
  190.1900  173.1830  140.9140 O   0  0  0  0  0  0  0  0  0  0  0  0
  190.3200  173.4420  142.3880 S   0  0  0  0  0  0  0  0  0  0  0  0
  192.5530  172.6030  143.7290 C   0  0  0  0  0  0  0  0  0  0  0  0
  191.1180  175.0090  142.6430 C   0  0  2  0  0  3  0  0  0  0  0  0
  191.2590  177.0750  148.2960 O   0  0  0  0  0  0  0  0  0  0  0  0
  191.9370  176.6180  144.2590 C   0  0  2  0  0  3  0  0  0  0  0  0
  193.0770  173.7840  143.5850 N   0  0  0  0  0  0  0  0  0  0  0  0
  191.3240  172.2420  143.1000 N   0  0  0  0  0  2  0  0  0  0  0  0
  190.8140  176.3360  147.3800 C   0  0  0  0  0  0  0  0  0  0  0  0
  189.4630  176.4430  143.9020 C   0  0  0  0  0  0  0  0  0  0  0  0
  193.8630  176.0690  145.5190 C   0  0  2  0  0  3  0  0  0  0  0  0
  193.1920  171.6610  144.5800 N   0  0  0  0  0  1  0  0  0  0  0  0
  191.7750  175.5990  146.5050 C   0  0  0  0  0  2  0  0  0  0  0  0
  189.1940  177.3150  142.8330 C   0  0  0  0  0  3  0  0  0  0  0  0
  187.3430  177.0670  144.9110 C   0  0  0  0  0  3  0  0  0  0  0  0
  187.0790  177.9210  143.8380 C   0  0  0  0  0  3  0  0  0  0  0  0
  189.3990  176.2080  147.2080 N   0  0  0  0  0  2  0  0  0  0  0  0
  193.0370  176.2430  143.2780 C   0  0  2  0  0  3  0  0  0  0  0  0
  192.4840  176.5380  145.6360 N   0  0  2  0  0  0  0  0  0  0  0  0
  192.6310  174.8750  142.6980 C   0  0  2  0  0  3  0  0  0  0  0  0
  195.2800  175.3990  143.6920 O   0  0  0  0  0  1  0  0  0  0  0  0
  190.7570  175.6840  143.9540 C   0  0  1  0  0  3  0  0  0  0  0  0
  1  6  1  0  0  0  0
  4 20  2  0  0  0  0
  4 22  1  0  0  0  0
  5 27  1  6  0  0  0
  5 17  1  0  0  0  0
  6 23  1  0  0  0  0
  7  8  2  0  0  0  0
  8  2  2  0  0  0  0
  8 14  1  0  0  0  0
  9 18  1  0  0  0  0
 10  8  1  1  0  0  0
 10 26  1  0  0  0  0
 10 28  1  0  0  0  0
 12 25  1  0  0  0  0
 13  9  2  0  0  0  0
 14  9  1  0  0  0  0
 15 11  2  0  0  0  0
 16 28  1  0  0  0  0
 16  1  2  0  0  0  0
 17 25  1  0  0  0  0
 17  3  1  0  0  0  0
 19 15  1  0  0  0  0
 20 16  1  0  0  0  0
 21  1  1  0  0  0  0
 22 21  2  0  0  0  0
 23 15  1  0  0  0  0
 24  5  1  0  0  0  0
 24 12  1  0  0  0  0
 25 19  1  0  0  0  0
 26 24  1  0  0  0  0
 26 13  1  0  0  0  0
 28 12  1  0  0  0  0
M  END
>  <MODEL>
4

>  <REMARK>
 VINA RESULT:      -7.5      2.692      6.186
  Name = 
  0 active torsions:
  status: ('A' for Active; 'I' for Inactive)
                            x       y       z     vdW  Elec       q    Type
                         _______ _______ _______ _____ _____    ______ ____

>  <TORSDO>
F 0

$$$$
=
 OpenBabel11112417393D

 28 32  0  0  1  0  0  0  0  0999 V2000
  188.3160  176.0200  144.3020 C   0  0  0  0  0  0  0  0  0  0  0  0
  191.4460  177.5640  144.0000 O   0  0  0  0  0  0  0  0  0  0  0  0
  190.3960  170.4500  142.1180 O   0  0  0  0  0  1  0  0  0  0  0  0
  188.2890  175.9130  147.1040 C   0  0  0  0  0  3  0  0  0  0  0  0
  191.8600  171.4100  143.7270 C   0  0  2  0  0  3  0  0  0  0  0  0
  188.2750  176.0720  142.8070 C   0  0  0  0  0  2  0  0  0  0  0  0
  193.5060  177.0620  145.2470 O   0  0  0  0  0  0  0  0  0  0  0  0
  192.5340  176.5520  144.2220 S   0  0  0  0  0  0  0  0  0  0  0  0
  193.4080  174.9230  142.2050 C   0  0  0  0  0  0  0  0  0  0  0  0
  191.8520  175.0060  144.7740 C   0  0  2  0  0  3  0  0  0  0  0  0
  187.2870  172.7700  141.5490 O   0  0  0  0  0  0  0  0  0  0  0  0
  190.3390  173.1790  144.2840 C   0  0  2  0  0  3  0  0  0  0  0  0
  193.0550  173.8810  142.9000 N   0  0  0  0  0  0  0  0  0  0  0  0
  193.3590  176.2410  142.7460 N   0  0  0  0  0  2  0  0  0  0  0  0
  188.0490  173.6970  141.9240 C   0  0  0  0  0  0  0  0  0  0  0  0
  189.3630  175.3750  144.9900 C   0  0  0  0  0  0  0  0  0  0  0  0
  190.9260  171.6600  142.5660 C   0  0  2  0  0  3  0  0  0  0  0  0
  193.8020  174.7490  140.8510 N   0  0  0  0  0  1  0  0  0  0  0  0
  189.5240  173.4580  141.9680 C   0  0  0  0  0  2  0  0  0  0  0  0
  189.3350  175.3200  146.3930 C   0  0  0  0  0  3  0  0  0  0  0  0
  187.2690  176.6070  145.0230 C   0  0  0  0  0  3  0  0  0  0  0  0
  187.2580  176.5580  146.4190 C   0  0  0  0  0  3  0  0  0  0  0  0
  187.4890  174.9630  142.2860 N   0  0  0  0  0  2  0  0  0  0  0  0
  191.7310  172.6490  144.5930 C   0  0  2  0  0  3  0  0  0  0  0  0
  189.8490  172.5240  143.0460 N   0  0  2  0  0  0  0  0  0  0  0  0
  192.6930  173.8210  144.3290 C   0  0  2  0  0  3  0  0  0  0  0  0
  193.1690  171.1790  143.2940 O   0  0  0  0  0  1  0  0  0  0  0  0
  190.4690  174.7070  144.2250 C   0  0  1  0  0  3  0  0  0  0  0  0
  1 16  2  0  0  0  0
  1 21  1  0  0  0  0
  2  8  2  0  0  0  0
  3 17  1  0  0  0  0
  5 27  1  6  0  0  0
  5 24  1  0  0  0  0
  6  1  1  0  0  0  0
  8  7  2  0  0  0  0
  9 14  1  0  0  0  0
  9 13  2  0  0  0  0
 10  8  1  6  0  0  0
 11 15  2  0  0  0  0
 12 24  1  0  0  0  0
 13 26  1  0  0  0  0
 14  8  1  0  0  0  0
 15 19  1  0  0  0  0
 15 23  1  0  0  0  0
 16 20  1  0  0  0  0
 17 25  1  0  0  0  0
 17  5  1  0  0  0  0
 18  9  1  0  0  0  0
 19 25  1  0  0  0  0
 20  4  2  0  0  0  0
 21 22  2  0  0  0  0
 22  4  1  0  0  0  0
 23  6  1  0  0  0  0
 25 12  1  0  0  0  0
 26 24  1  0  0  0  0
 26 10  1  0  0  0  0
 28 12  1  0  0  0  0
 28 10  1  0  0  0  0
 28 16  1  0  0  0  0
M  END
>  <MODEL>
5

>  <REMARK>
 VINA RESULT:      -7.4      2.572      5.414
  Name = 
  0 active torsions:
  status: ('A' for Active; 'I' for Inactive)
                            x       y       z     vdW  Elec       q    Type
                         _______ _______ _______ _____ _____    ______ ____

>  <TORSDO>
F 0

$$$$
=
 OpenBabel11112417393D

 28 32  0  0  1  0  0  0  0  0999 V2000
  189.0400  175.5170  146.2820 C   0  0  0  0  0  0  0  0  0  0  0  0
  189.3180  172.2940  144.9400 O   0  0  0  0  0  0  0  0  0  0  0  0
  195.0550  177.0200  144.9850 O   0  0  0  0  0  1  0  0  0  0  0  0
  187.4130  176.5630  144.2520 C   0  0  0  0  0  3  0  0  0  0  0  0
  193.9620  175.9540  143.1630 C   0  0  2  0  0  3  0  0  0  0  0  0
  189.8910  175.0000  147.3990 C   0  0  0  0  0  2  0  0  0  0  0  0
  189.6940  171.6610  142.5920 O   0  0  0  0  0  0  0  0  0  0  0  0
  190.3040  172.3000  143.8060 S   0  0  0  0  0  0  0  0  0  0  0  0
  192.9960  172.0890  144.2510 C   0  0  0  0  0  0  0  0  0  0  0  0
  190.8000  173.9610  143.4130 C   0  0  2  0  0  3  0  0  0  0  0  0
  192.5970  177.3990  148.0160 O   0  0  0  0  0  0  0  0  0  0  0  0
  191.8100  176.0100  144.2190 C   0  0  2  0  0  3  0  0  0  0  0  0
  193.1760  173.2470  143.6860 N   0  0  0  0  0  0  0  0  0  0  0  0
  191.7250  171.4430  144.2580 N   0  0  0  0  0  2  0  0  0  0  0  0
  192.0070  176.4060  147.5190 C   0  0  0  0  0  0  0  0  0  0  0  0
  189.4730  175.4700  144.9420 C   0  0  0  0  0  0  0  0  0  0  0  0
  194.1340  176.0220  144.6620 C   0  0  2  0  0  3  0  0  0  0  0  0
  194.0850  171.4750  144.9270 N   0  0  0  0  0  1  0  0  0  0  0  0
  192.7050  175.5840  146.4830 C   0  0  0  0  0  2  0  0  0  0  0  0
  188.6540  176.0040  143.9340 C   0  0  0  0  0  3  0  0  0  0  0  0
  187.7980  176.0840  146.5920 C   0  0  0  0  0  3  0  0  0  0  0  0
  186.9860  176.6010  145.5800 C   0  0  0  0  0  3  0  0  0  0  0  0
  190.6880  176.0780  147.9670 N   0  0  0  0  0  2  0  0  0  0  0  0
  192.5200  175.5250  142.9650 C   0  0  2  0  0  3  0  0  0  0  0  0
  192.8320  176.3460  145.2410 N   0  0  2  0  0  0  0  0  0  0  0  0
  192.2180  174.0180  142.8690 C   0  0  2  0  0  3  0  0  0  0  0  0
  194.8790  175.0760  142.5780 O   0  0  0  0  0  1  0  0  0  0  0  0
  190.8200  174.9010  144.6040 C   0  0  1  0  0  3  0  0  0  0  0  0
  1 21  1  0  0  0  0
  1  6  1  0  0  0  0
  4 22  1  0  0  0  0
  5 27  1  1  0  0  0
  5 17  1  0  0  0  0
  6 23  1  0  0  0  0
  7  8  2  0  0  0  0
  8 14  1  0  0  0  0
  8  2  2  0  0  0  0
  9 14  1  0  0  0  0
  9 18  1  0  0  0  0
 10  8  1  1  0  0  0
 10 28  1  0  0  0  0
 12 28  1  0  0  0  0
 12 25  1  0  0  0  0
 13  9  2  0  0  0  0
 15 23  1  0  0  0  0
 15 11  2  0  0  0  0
 16  1  2  0  0  0  0
 17  3  1  0  0  0  0
 17 25  1  0  0  0  0
 19 15  1  0  0  0  0
 20  4  2  0  0  0  0
 20 16  1  0  0  0  0
 22 21  2  0  0  0  0
 24  5  1  0  0  0  0
 24 12  1  0  0  0  0
 25 19  1  0  0  0  0
 26 24  1  0  0  0  0
 26 10  1  0  0  0  0
 26 13  1  0  0  0  0
 28 16  1  0  0  0  0
M  END
>  <MODEL>
6

>  <REMARK>
 VINA RESULT:      -7.4      3.172      6.189
  Name = 
  0 active torsions:
  status: ('A' for Active; 'I' for Inactive)
                            x       y       z     vdW  Elec       q    Type
                         _______ _______ _______ _____ _____    ______ ____

>  <TORSDO>
F 0

$$$$
=
 OpenBabel11112417393D

 28 32  0  0  1  0  0  0  0  0999 V2000
  188.5380  177.0190  144.2090 C   0  0  0  0  0  0  0  0  0  0  0  0
  191.8400  177.5410  145.2540 O   0  0  0  0  0  0  0  0  0  0  0  0
  189.8650  171.4960  141.4050 O   0  0  0  0  0  1  0  0  0  0  0  0
  187.4860  176.4840  146.7530 C   0  0  0  0  0  3  0  0  0  0  0  0
  190.8410  171.6870  143.5640 C   0  0  2  0  0  3  0  0  0  0  0  0
  189.0480  177.3160  142.8340 C   0  0  0  0  0  2  0  0  0  0  0  0
  193.1340  176.2320  146.8880 O   0  0  0  0  0  0  0  0  0  0  0  0
  192.5010  176.2190  145.5260 S   0  0  0  0  0  0  0  0  0  0  0  0
  193.6220  174.7390  143.5160 C   0  0  0  0  0  0  0  0  0  0  0  0
  191.3180  174.8950  145.4390 C   0  0  2  0  0  3  0  0  0  0  0  0
  187.8160  174.7270  140.5440 O   0  0  0  0  0  0  0  0  0  0  0  0
  189.6910  173.7290  144.0740 C   0  0  2  0  0  3  0  0  0  0  0  0
  192.8060  173.7620  143.7850 N   0  0  0  0  0  0  0  0  0  0  0  0
  193.7000  175.9040  144.3340 N   0  0  0  0  0  2  0  0  0  0  0  0
  188.5920  175.3000  141.3520 C   0  0  0  0  0  0  0  0  0  0  0  0
  189.0820  175.9800  144.9900 C   0  0  0  0  0  0  0  0  0  0  0  0
  190.4720  172.3950  142.2820 C   0  0  2  0  0  3  0  0  0  0  0  0
  194.4210  174.6670  142.3420 N   0  0  0  0  0  1  0  0  0  0  0  0
  189.8510  174.6100  141.7700 C   0  0  0  0  0  2  0  0  0  0  0  0
  188.5420  175.7150  146.2590 C   0  0  0  0  0  3  0  0  0  0  0  0
  187.4750  177.7800  144.7100 C   0  0  0  0  0  3  0  0  0  0  0  0
  186.9540  177.5170  145.9790 C   0  0  0  0  0  3  0  0  0  0  0  0
  188.2590  176.6030  141.8390 N   0  0  0  0  0  2  0  0  0  0  0  0
  190.7110  172.7510  144.6380 C   0  0  2  0  0  3  0  0  0  0  0  0
  189.5350  173.4630  142.6220 N   0  0  2  0  0  0  0  0  0  0  0  0
  191.9540  173.5930  144.9780 C   0  0  2  0  0  3  0  0  0  0  0  0
  192.1210  171.1320  143.4970 O   0  0  0  0  0  1  0  0  0  0  0  0
  190.1940  175.1310  144.4460 C   0  0  1  0  0  3  0  0  0  0  0  0
  1 21  2  0  0  0  0
  1 16  1  0  0  0  0
  2  8  2  0  0  0  0
  3 17  1  0  0  0  0
  5 27  1  6  0  0  0
  5 24  1  0  0  0  0
  6  1  1  0  0  0  0
  8  7  2  0  0  0  0
  9 13  2  0  0  0  0
  9 14  1  0  0  0  0
 10  8  1  6  0  0  0
 11 15  2  0  0  0  0
 12 28  1  0  0  0  0
 12 24  1  0  0  0  0
 13 26  1  0  0  0  0
 14  8  1  0  0  0  0
 15 19  1  0  0  0  0
 15 23  1  0  0  0  0
 16 20  2  0  0  0  0
 17 25  1  0  0  0  0
 17  5  1  0  0  0  0
 18  9  1  0  0  0  0
 19 25  1  0  0  0  0
 20  4  1  0  0  0  0
 21 22  1  0  0  0  0
 22  4  2  0  0  0  0
 23  6  1  0  0  0  0
 24 26  1  0  0  0  0
 25 12  1  0  0  0  0
 26 10  1  0  0  0  0
 28 16  1  0  0  0  0
 28 10  1  0  0  0  0
M  END
>  <MODEL>
7

>  <REMARK>
 VINA RESULT:      -7.3      2.312      5.309
  Name = 
  0 active torsions:
  status: ('A' for Active; 'I' for Inactive)
                            x       y       z     vdW  Elec       q    Type
                         _______ _______ _______ _____ _____    ______ ____

>  <TORSDO>
F 0

$$$$
=
 OpenBabel11112417393D

 28 32  0  0  1  0  0  0  0  0999 V2000
  192.9320  174.0290  142.4080 C   0  0  0  0  0  0  0  0  0  0  0  0
  193.4140  174.5920  145.8320 O   0  0  0  0  0  0  0  0  0  0  0  0
  186.8950  175.9400  142.5240 O   0  0  0  0  0  1  0  0  0  0  0  0
  194.5150  176.1640  141.5150 C   0  0  0  0  0  3  0  0  0  0  0  0
  188.3440  177.4060  143.7090 C   0  0  2  0  0  3  0  0  0  0  0  0
  192.0940  172.8660  142.8360 C   0  0  0  0  0  2  0  0  0  0  0  0
  193.3950  176.7430  147.0280 O   0  0  0  0  0  0  0  0  0  0  0  0
  192.5580  175.7430  146.2810 S   0  0  0  0  0  0  0  0  0  0  0  0
  189.9280  175.3970  146.9510 C   0  0  0  0  0  0  0  0  0  0  0  0
  191.7920  176.5390  144.8890 C   0  0  2  0  0  3  0  0  0  0  0  0
  188.9280  172.9630  140.9830 O   0  0  0  0  0  0  0  0  0  0  0  0
  190.3330  176.2850  142.9720 C   0  0  2  0  0  3  0  0  0  0  0  0
  189.5840  176.2250  146.0090 N   0  0  0  0  0  0  0  0  0  0  0  0
  191.2930  175.1750  147.2980 N   0  0  0  0  0  2  0  0  0  0  0  0
  189.7440  173.1850  141.9140 C   0  0  0  0  0  0  0  0  0  0  0  0
  192.6490  175.3410  142.8370 C   0  0  0  0  0  0  0  0  0  0  0  0
  188.0170  175.9750  143.3520 C   0  0  2  0  0  3  0  0  0  0  0  0
  188.9180  174.6500  147.6170 N   0  0  0  0  0  1  0  0  0  0  0  0
  189.3220  174.0320  143.0700 C   0  0  0  0  0  2  0  0  0  0  0  0
  193.4430  176.4040  142.3770 C   0  0  0  0  0  3  0  0  0  0  0  0
  194.0060  173.7990  141.5390 C   0  0  0  0  0  3  0  0  0  0  0  0
  194.7970  174.8620  141.0980 C   0  0  0  0  0  3  0  0  0  0  0  0
  191.0520  172.6070  141.8510 N   0  0  0  0  0  2  0  0  0  0  0  0
  189.8540  177.4260  143.8580 C   0  0  2  0  0  3  0  0  0  0  0  0
  189.1710  175.4240  142.6430 N   0  0  2  0  0  0  0  0  0  0  0  0
  190.4490  177.1500  145.2510 C   0  0  2  0  0  3  0  0  0  0  0  0
  187.6750  177.8140  144.8660 O   0  0  0  0  0  1  0  0  0  0  0  0
  191.4760  175.6030  143.7370 C   0  0  1  0  0  3  0  0  0  0  0  0
  1  6  1  0  0  0  0
  1 16  1  0  0  0  0
  2  8  2  0  0  0  0
  3 17  1  0  0  0  0
  4 20  1  0  0  0  0
  5 24  1  0  0  0  0
  5 27  1  1  0  0  0
  8  7  2  0  0  0  0
  8 14  1  0  0  0  0
  9 14  1  0  0  0  0
  9 18  1  0  0  0  0
 10 26  1  0  0  0  0
 10  8  1  1  0  0  0
 11 15  2  0  0  0  0
 12 28  1  0  0  0  0
 12 24  1  0  0  0  0
 13  9  2  0  0  0  0
 15 19  1  0  0  0  0
 16 28  1  0  0  0  0
 17  5  1  0  0  0  0
 20 16  2  0  0  0  0
 21  1  2  0  0  0  0
 22  4  2  0  0  0  0
 22 21  1  0  0  0  0
 23 15  1  0  0  0  0
 23  6  1  0  0  0  0
 24 26  1  0  0  0  0
 25 12  1  0  0  0  0
 25 19  1  0  0  0  0
 25 17  1  0  0  0  0
 26 13  1  0  0  0  0
 28 10  1  0  0  0  0
M  END
>  <MODEL>
8

>  <REMARK>
 VINA RESULT:      -7.1      2.353      2.664
  Name = 
  0 active torsions:
  status: ('A' for Active; 'I' for Inactive)
                            x       y       z     vdW  Elec       q    Type
                         _______ _______ _______ _____ _____    ______ ____

>  <TORSDO>
F 0

$$$$
=
 OpenBabel11112417393D

 28 32  0  0  1  0  0  0  0  0999 V2000
  188.6620  177.1810  144.8470 C   0  0  0  0  0  0  0  0  0  0  0  0
  192.0760  176.7890  145.5260 O   0  0  0  0  0  0  0  0  0  0  0  0
  188.6090  172.6660  140.4050 O   0  0  0  0  0  1  0  0  0  0  0  0
  187.7350  176.0660  147.2470 C   0  0  0  0  0  3  0  0  0  0  0  0
  189.7770  172.0080  142.3690 C   0  0  2  0  0  3  0  0  0  0  0  0
  189.1080  177.8010  143.5600 C   0  0  0  0  0  2  0  0  0  0  0  0
  193.2070  174.8400  146.5130 O   0  0  0  0  0  0  0  0  0  0  0  0
  192.4750  175.3570  145.3080 S   0  0  0  0  0  0  0  0  0  0  0  0
  193.1050  174.4100  142.8190 C   0  0  0  0  0  0  0  0  0  0  0  0
  191.0460  174.3450  145.0070 C   0  0  2  0  0  3  0  0  0  0  0  0
  187.1940  176.2990  140.8140 O   0  0  0  0  0  0  0  0  0  0  0  0
  189.1110  173.9530  143.6040 C   0  0  2  0  0  3  0  0  0  0  0  0
  192.1330  173.5500  142.9050 N   0  0  0  0  0  0  0  0  0  0  0  0
  193.4840  175.2330  143.9210 N   0  0  0  0  0  2  0  0  0  0  0  0
  188.1330  176.4530  141.6360 C   0  0  0  0  0  0  0  0  0  0  0  0
  189.0470  175.8750  145.2090 C   0  0  0  0  0  0  0  0  0  0  0  0
  189.4560  173.1310  141.4110 C   0  0  2  0  0  3  0  0  0  0  0  0
  193.7740  174.5740  141.5760 N   0  0  0  0  0  1  0  0  0  0  0  0
  189.2560  175.4670  141.6560 C   0  0  0  0  0  2  0  0  0  0  0  0
  188.5710  175.3230  146.4100 C   0  0  0  0  0  3  0  0  0  0  0  0
  187.8200  177.9160  145.6910 C   0  0  0  0  0  3  0  0  0  0  0  0
  187.3620  177.3620  146.8880 C   0  0  0  0  0  3  0  0  0  0  0  0
  188.1120  177.5770  142.5220 N   0  0  0  0  0  2  0  0  0  0  0  0
  189.9530  172.6910  143.7120 C   0  0  2  0  0  3  0  0  0  0  0  0
  188.7850  174.1820  142.1740 N   0  0  2  0  0  0  0  0  0  0  0  0
  191.3650  173.1640  144.1050 C   0  0  2  0  0  3  0  0  0  0  0  0
  190.9090  171.2940  141.9650 O   0  0  0  0  0  1  0  0  0  0  0  0
  189.9160  175.0640  144.2930 C   0  0  1  0  0  3  0  0  0  0  0  0
  1 16  2  0  0  0  0
  1 21  1  0  0  0  0
  3 17  1  0  0  0  0
  5 27  1  6  0  0  0
  5 24  1  0  0  0  0
  6  1  1  0  0  0  0
  8  2  2  0  0  0  0
  8  7  2  0  0  0  0
  9 13  2  0  0  0  0
  9 14  1  0  0  0  0
 10  8  1  6  0  0  0
 11 15  2  0  0  0  0
 12 24  1  0  0  0  0
 12 28  1  0  0  0  0
 13 26  1  0  0  0  0
 14  8  1  0  0  0  0
 15 19  1  0  0  0  0
 15 23  1  0  0  0  0
 16 20  1  0  0  0  0
 17 25  1  0  0  0  0
 17  5  1  0  0  0  0
 18  9  1  0  0  0  0
 19 25  1  0  0  0  0
 20  4  2  0  0  0  0
 21 22  2  0  0  0  0
 22  4  1  0  0  0  0
 23  6  1  0  0  0  0
 24 26  1  0  0  0  0
 25 12  1  0  0  0  0
 26 10  1  0  0  0  0
 28 10  1  0  0  0  0
 28 16  1  0  0  0  0
M  END
>  <MODEL>
9

>  <REMARK>
 VINA RESULT:      -7.1      2.156      5.192
  Name = 
  0 active torsions:
  status: ('A' for Active; 'I' for Inactive)
                            x       y       z     vdW  Elec       q    Type
                         _______ _______ _______ _____ _____    ______ ____

>  <TORSDO>
F 0

$$$$
