=
 OpenBabel11112416303D

 32 37  0  0  1  0  0  0  0  0999 V2000
  192.6580  171.7890  141.8850 C   0  0  0  0  0  2  0  0  0  0  0  0
  189.3970  176.2680  142.8480 C   0  0  1  0  0  3  0  0  0  0  0  0
  192.0670  175.9880  147.0360 C   0  0  0  0  0  2  0  0  0  0  0  0
  191.0010  176.7650  147.8200 C   0  0  0  0  0  2  0  0  0  0  0  0
  186.9390  176.8470  143.0630 C   0  0  0  0  0  0  0  0  0  0  0  0
  185.9300  177.6760  143.7360 C   0  0  0  0  0  0  0  0  0  0  0  0
  190.6540  174.4120  141.6860 C   0  0  1  0  0  3  0  0  0  0  0  0
  191.9390  176.1530  142.6430 C   0  0  0  0  0  2  0  0  0  0  0  0
  184.8830  178.9460  145.3270 C   0  0  1  0  0  3  0  0  0  0  0  0
  193.0480  174.2760  141.8120 C   0  0  0  0  0  2  0  0  0  0  0  0
  192.1690  176.4930  145.5940 C   0  0  0  0  0  2  0  0  0  0  0  0
  190.7580  176.7120  143.4470 C   0  0  2  0  0  3  0  0  0  0  0  0
  190.7980  176.3720  144.9360 C   0  0  2  0  0  3  0  0  0  0  0  0
  188.5140  177.5520  144.9090 C   0  0  2  0  0  3  0  0  0  0  0  0
  184.0420  178.8230  144.1360 N   0  0  0  0  0  0  0  0  0  0  0  0
  191.1820  171.9600  142.2250 C   0  0  0  0  0  2  0  0  0  0  0  0
  191.8400  174.7040  142.5070 N   0  0  2  0  0  0  0  0  0  0  0  0
  184.6370  178.1030  143.2380 C   0  0  0  0  0  3  0  0  0  0  0  0
  190.5440  172.9430  141.2500 C   0  0  0  0  0  2  0  0  0  0  0  0
  193.5130  172.9490  142.3950 C   0  0  2  0  0  3  0  0  0  0  0  0
  189.6460  176.7250  147.1080 C   0  0  0  0  0  2  0  0  0  0  0  0
  189.8180  177.2730  145.6930 C   0  0  1  0  0  3  0  0  0  0  0  0
  187.3010  177.8880  145.7950 C   0  0  0  0  0  2  0  0  0  0  0  0
  189.4000  174.7840  142.4690 C   0  0  0  0  0  2  0  0  0  0  0  0
  186.7100  176.3780  141.9160 O   0  0  0  0  0  0  0  0  0  0  0  0
  184.1880  178.2960  146.5100 C   0  0  0  0  0  1  0  0  0  0  0  0
  188.2080  176.5030  143.8090 C   0  0  2  0  0  3  0  0  0  0  0  0
  186.0960  178.1690  144.9450 C   0  0  0  0  0  0  0  0  0  0  0  0
  194.9050  172.7300  142.0330 N   0  0  0  0  0  2  0  0  0  0  0  0
  195.9890  173.0600  142.9030 C   0  0  0  0  0  0  0  0  0  0  0  0
  195.7730  173.5870  144.0270 O   0  0  0  0  0  0  0  0  0  0  0  0
  197.3260  172.7980  142.4930 N   0  0  0  0  0  1  0  0  0  0  0  0
  1 16  1  0  0  0  0
  1 20  1  0  0  0  0
  2 24  1  1  0  0  0
  2 12  1  0  0  0  0
  2 27  1  0  0  0  0
  3  4  1  0  0  0  0
  5  6  1  0  0  0  0
  6 28  2  0  0  0  0
  7 19  1  1  0  0  0
  7 24  1  0  0  0  0
  7 17  1  0  0  0  0
  9 26  1  1  0  0  0
 10 20  1  0  0  0  0
 11  3  1  0  0  0  0
 12  8  1  6  0  0  0
 12 13  1  0  0  0  0
 13 11  1  1  0  0  0
 13 22  1  0  0  0  0
 14 22  1  0  0  0  0
 14 23  1  1  0  0  0
 15  9  1  0  0  0  0
 17 10  1  6  0  0  0
 17  8  1  0  0  0  0
 18  6  1  0  0  0  0
 18 15  2  0  0  0  0
 19 16  1  0  0  0  0
 20 29  1  6  0  0  0
 21  4  1  0  0  0  0
 22 21  1  1  0  0  0
 25  5  2  0  0  0  0
 27  5  1  6  0  0  0
 27 14  1  0  0  0  0
 28  9  1  0  0  0  0
 28 23  1  0  0  0  0
 29 30  1  0  0  0  0
 30 31  2  0  0  0  0
 32 30  1  0  0  0  0
M  END
>  <MODEL>
1

>  <REMARK>
 VINA RESULT:      -9.0      0.000      0.000
  Name = 
  1 active torsions:
  status: ('A' for Active; 'I' for Inactive)
    1  A    between atoms: C_20  and  N_29
                            x       y       z     vdW  Elec       q    Type
                         _______ _______ _______ _____ _____    ______ ____

>  <TORSDO>
F 1

$$$$
=
 OpenBabel11112416303D

 32 37  0  0  1  0  0  0  0  0999 V2000
  195.2320  175.5600  145.1180 C   0  0  0  0  0  2  0  0  0  0  0  0
  189.6570  175.7900  145.8200 C   0  0  1  0  0  3  0  0  0  0  0  0
  190.0640  174.2230  141.1160 C   0  0  0  0  0  2  0  0  0  0  0  0
  188.6590  174.7380  140.7760 C   0  0  0  0  0  2  0  0  0  0  0  0
  187.8510  177.4930  146.3350 C   0  0  0  0  0  0  0  0  0  0  0  0
  186.4670  177.9200  146.0960 C   0  0  0  0  0  0  0  0  0  0  0  0
  192.1370  175.6890  146.2790 C   0  0  1  0  0  3  0  0  0  0  0  0
  191.1300  173.7570  145.3570 C   0  0  0  0  0  2  0  0  0  0  0  0
  184.4430  178.2270  145.0710 C   0  0  1  0  0  3  0  0  0  0  0  0
  193.4550  173.8250  145.5350 C   0  0  0  0  0  2  0  0  0  0  0  0
  190.1260  173.6970  142.5530 C   0  0  0  0  0  2  0  0  0  0  0  0
  189.8350  174.4920  144.9890 C   0  0  2  0  0  3  0  0  0  0  0  0
  189.7000  174.8140  143.5010 C   0  0  2  0  0  3  0  0  0  0  0  0
  187.5720  176.0070  144.3090 C   0  0  2  0  0  3  0  0  0  0  0  0
  184.4480  178.8550  146.3930 N   0  0  0  0  0  0  0  0  0  0  0  0
  194.2300  176.7060  145.1960 C   0  0  0  0  0  2  0  0  0  0  0  0
  192.2830  174.6450  145.2530 N   0  0  2  0  0  0  0  0  0  0  0  0
  185.5950  178.6790  146.9700 C   0  0  0  0  0  3  0  0  0  0  0  0
  193.3880  176.5650  146.4590 C   0  0  0  0  0  2  0  0  0  0  0  0
  194.5960  174.2600  144.6260 C   0  0  2  0  0  3  0  0  0  0  0  0
  188.1920  175.7900  141.7860 C   0  0  0  0  0  2  0  0  0  0  0  0
  188.2480  175.1850  143.1880 C   0  0  1  0  0  3  0  0  0  0  0  0
  186.4160  176.9040  143.8310 C   0  0  0  0  0  2  0  0  0  0  0  0
  190.9610  176.5870  145.9140 C   0  0  0  0  0  2  0  0  0  0  0  0
  188.4400  177.8210  147.4000 O   0  0  0  0  0  0  0  0  0  0  0  0
  184.2640  179.2920  144.0030 C   0  0  0  0  0  1  0  0  0  0  0  0
  188.5730  176.7320  145.2460 C   0  0  2  0  0  3  0  0  0  0  0  0
  185.8080  177.6370  144.9910 C   0  0  0  0  0  0  0  0  0  0  0  0
  195.6000  173.2080  144.5830 N   0  0  0  0  0  2  0  0  0  0  0  0
  196.3680  172.9240  143.4120 C   0  0  0  0  0  0  0  0  0  0  0  0
  196.1800  173.5710  142.3480 O   0  0  0  0  0  0  0  0  0  0  0  0
  197.3500  171.8950  143.4480 N   0  0  0  0  0  1  0  0  0  0  0  0
  1 16  1  0  0  0  0
  2 24  1  6  0  0  0
  3 11  1  0  0  0  0
  4  3  1  0  0  0  0
  4 21  1  0  0  0  0
  5 25  2  0  0  0  0
  6  5  1  0  0  0  0
  6 18  1  0  0  0  0
  7 24  1  6  0  0  0
  7 19  1  0  0  0  0
  9 26  1  6  0  0  0
  9 15  1  0  0  0  0
 12  8  1  6  0  0  0
 12  2  1  0  0  0  0
 13 11  1  6  0  0  0
 13 12  1  0  0  0  0
 14 23  1  6  0  0  0
 14 27  1  0  0  0  0
 15 18  2  0  0  0  0
 16 19  1  0  0  0  0
 17  8  1  1  0  0  0
 17 10  1  0  0  0  0
 17  7  1  0  0  0  0
 20 29  1  1  0  0  0
 20  1  1  0  0  0  0
 20 10  1  0  0  0  0
 22 21  1  6  0  0  0
 22 13  1  0  0  0  0
 22 14  1  0  0  0  0
 23 28  1  0  0  0  0
 27  2  1  0  0  0  0
 27  5  1  1  0  0  0
 28  9  1  0  0  0  0
 28  6  2  0  0  0  0
 30 32  1  0  0  0  0
 30 29  1  0  0  0  0
 31 30  2  0  0  0  0
M  END
>  <MODEL>
2

>  <REMARK>
 VINA RESULT:      -8.9      2.027      3.961
  Name = 
  1 active torsions:
  status: ('A' for Active; 'I' for Inactive)
    1  A    between atoms: C_20  and  N_29
                            x       y       z     vdW  Elec       q    Type
                         _______ _______ _______ _____ _____    ______ ____

>  <TORSDO>
F 1

$$$$
=
 OpenBabel11112416303D

 32 37  0  0  1  0  0  0  0  0999 V2000
  185.3700  177.5640  146.5560 C   0  0  0  0  0  2  0  0  0  0  0  0
  190.6420  176.4980  144.9140 C   0  0  1  0  0  3  0  0  0  0  0  0
  187.9920  173.4860  141.9720 C   0  0  0  0  0  2  0  0  0  0  0  0
  189.1990  172.5660  141.7520 C   0  0  0  0  0  2  0  0  0  0  0  0
  192.8080  175.5930  145.8690 C   0  0  0  0  0  0  0  0  0  0  0  0
  194.0220  174.8050  145.6190 C   0  0  0  0  0  0  0  0  0  0  0  0
  188.6180  177.6090  145.9360 C   0  0  1  0  0  3  0  0  0  0  0  0
  188.7220  177.5160  143.5740 C   0  0  0  0  0  2  0  0  0  0  0  0
  195.4490  173.2500  144.7320 C   0  0  1  0  0  3  0  0  0  0  0  0
  186.7540  178.2690  144.5740 C   0  0  0  0  0  2  0  0  0  0  0  0
  188.4270  174.9490  142.0900 C   0  0  0  0  0  2  0  0  0  0  0  0
  189.8670  176.4950  143.5700 C   0  0  2  0  0  3  0  0  0  0  0  0
  189.4320  175.0690  143.2320 C   0  0  2  0  0  3  0  0  0  0  0  0
  191.9010  174.5680  143.7440 C   0  0  2  0  0  3  0  0  0  0  0  0
  196.1260  174.0370  145.7620 N   0  0  0  0  0  0  0  0  0  0  0  0
  186.5270  176.7910  147.1780 C   0  0  0  0  0  2  0  0  0  0  0  0
  187.8430  177.3120  144.7210 N   0  0  2  0  0  0  0  0  0  0  0  0
  195.3160  174.9150  146.2620 C   0  0  0  0  0  3  0  0  0  0  0  0
  187.7700  177.6730  147.2160 C   0  0  0  0  0  2  0  0  0  0  0  0
  185.4560  177.6190  145.0310 C   0  0  2  0  0  3  0  0  0  0  0  0
  190.2530  172.7570  142.8460 C   0  0  0  0  0  2  0  0  0  0  0  0
  190.6630  174.2290  142.8820 C   0  0  1  0  0  3  0  0  0  0  0  0
  192.9090  173.4150  143.8880 C   0  0  0  0  0  2  0  0  0  0  0  0
  189.6930  176.5440  146.1160 C   0  0  0  0  0  2  0  0  0  0  0  0
  192.8000  176.4750  146.7690 O   0  0  0  0  0  0  0  0  0  0  0  0
  195.3820  171.7950  145.1640 C   0  0  0  0  0  1  0  0  0  0  0  0
  191.5570  175.2630  145.0880 C   0  0  2  0  0  3  0  0  0  0  0  0
  194.0840  173.8490  144.7160 C   0  0  0  0  0  0  0  0  0  0  0  0
  184.3310  178.3740  144.5020 N   0  0  0  0  0  2  0  0  0  0  0  0
  183.9190  178.2900  143.1370 C   0  0  0  0  0  0  0  0  0  0  0  0
  184.5440  177.5620  142.3210 O   0  0  0  0  0  0  0  0  0  0  0  0
  182.7940  179.0410  142.6930 N   0  0  0  0  0  1  0  0  0  0  0  0
  1 16  1  0  0  0  0
  2 27  1  0  0  0  0
  2 24  1  1  0  0  0
  3 11  1  0  0  0  0
  4  3  1  0  0  0  0
  4 21  1  0  0  0  0
  5 25  2  0  0  0  0
  6  5  1  0  0  0  0
  6 18  1  0  0  0  0
  7 24  1  1  0  0  0
  7 19  1  0  0  0  0
  9 26  1  1  0  0  0
  9 15  1  0  0  0  0
 10 17  1  0  0  0  0
 10 20  1  0  0  0  0
 12  8  1  1  0  0  0
 12  2  1  0  0  0  0
 13 11  1  6  0  0  0
 13 12  1  0  0  0  0
 14 23  1  1  0  0  0
 14 27  1  0  0  0  0
 15 18  2  0  0  0  0
 16 19  1  0  0  0  0
 17  8  1  6  0  0  0
 17  7  1  0  0  0  0
 20 29  1  1  0  0  0
 20  1  1  0  0  0  0
 22 21  1  1  0  0  0
 22 13  1  0  0  0  0
 22 14  1  0  0  0  0
 23 28  1  0  0  0  0
 27  5  1  6  0  0  0
 28  9  1  0  0  0  0
 28  6  2  0  0  0  0
 30 29  1  0  0  0  0
 31 30  2  0  0  0  0
 32 30  1  0  0  0  0
M  END
>  <MODEL>
3

>  <REMARK>
 VINA RESULT:      -8.7      2.126      8.628
  Name = 
  1 active torsions:
  status: ('A' for Active; 'I' for Inactive)
    1  A    between atoms: C_20  and  N_29
                            x       y       z     vdW  Elec       q    Type
                         _______ _______ _______ _____ _____    ______ ____

>  <TORSDO>
F 1

$$$$
=
 OpenBabel11112416303D

 32 37  0  0  1  0  0  0  0  0999 V2000
  193.3310  171.5880  144.1290 C   0  0  0  0  0  2  0  0  0  0  0  0
  190.1360  175.9170  142.4930 C   0  0  1  0  0  3  0  0  0  0  0  0
  190.5970  176.7340  147.3780 C   0  0  0  0  0  2  0  0  0  0  0  0
  189.3180  177.5800  147.4020 C   0  0  0  0  0  2  0  0  0  0  0  0
  187.8690  176.3450  141.4430 C   0  0  0  0  0  0  0  0  0  0  0  0
  186.6920  177.2220  141.3850 C   0  0  0  0  0  0  0  0  0  0  0  0
  191.7230  173.9530  142.4680 C   0  0  1  0  0  3  0  0  0  0  0  0
  192.4880  175.9480  143.4860 C   0  0  0  0  0  2  0  0  0  0  0  0
  185.0790  178.7220  142.0050 C   0  0  1  0  0  3  0  0  0  0  0  0
  193.7920  174.0240  143.6860 C   0  0  0  0  0  2  0  0  0  0  0  0
  191.3610  176.9260  146.0650 C   0  0  0  0  0  2  0  0  0  0  0  0
  191.0890  176.5770  143.5240 C   0  0  2  0  0  3  0  0  0  0  0  0
  190.4360  176.5670  144.9050 C   0  0  2  0  0  3  0  0  0  0  0  0
  188.4540  177.5420  143.5900 C   0  0  2  0  0  3  0  0  0  0  0  0
  184.8680  178.2860  140.6250 N   0  0  0  0  0  0  0  0  0  0  0  0
  191.8680  171.7180  143.7200 C   0  0  0  0  0  2  0  0  0  0  0  0
  192.4140  174.4990  143.6470 N   0  0  2  0  0  0  0  0  0  0  0  0
  185.7830  177.4370  140.2770 C   0  0  0  0  0  3  0  0  0  0  0  0
  191.7760  172.4200  142.3700 C   0  0  0  0  0  2  0  0  0  0  0  0
  193.8980  172.8900  144.6960 C   0  0  2  0  0  3  0  0  0  0  0  0
  188.4340  177.2890  146.1860 C   0  0  0  0  0  2  0  0  0  0  0  0
  189.2490  177.5340  144.9170 C   0  0  1  0  0  3  0  0  0  0  0  0
  186.9830  177.9690  143.7350 C   0  0  0  0  0  2  0  0  0  0  0  0
  190.2630  174.3900  142.4990 C   0  0  0  0  0  2  0  0  0  0  0  0
  188.1730  175.6270  140.4520 O   0  0  0  0  0  0  0  0  0  0  0  0
  183.9010  178.2900  142.8610 C   0  0  0  0  0  1  0  0  0  0  0  0
  188.6480  176.2630  142.7350 C   0  0  2  0  0  3  0  0  0  0  0  0
  186.3060  177.9730  142.3950 C   0  0  0  0  0  0  0  0  0  0  0  0
  195.2940  172.7010  145.0580 N   0  0  0  0  0  2  0  0  0  0  0  0
  196.0380  173.6770  145.7890 C   0  0  0  0  0  0  0  0  0  0  0  0
  195.5080  174.7670  146.1310 O   0  0  0  0  0  0  0  0  0  0  0  0
  197.3950  173.4160  146.1300 N   0  0  0  0  0  1  0  0  0  0  0  0
  1 20  1  0  0  0  0
  2 24  1  1  0  0  0
  2 27  1  0  0  0  0
  2 12  1  0  0  0  0
  3  4  1  0  0  0  0
  6  5  1  0  0  0  0
  6 28  2  0  0  0  0
  7 19  1  1  0  0  0
  7 24  1  0  0  0  0
  7 17  1  0  0  0  0
  9 28  1  0  0  0  0
  9 26  1  1  0  0  0
 10 20  1  0  0  0  0
 11  3  1  0  0  0  0
 12  8  1  1  0  0  0
 12 13  1  0  0  0  0
 13 22  1  0  0  0  0
 13 11  1  1  0  0  0
 14 23  1  1  0  0  0
 14 22  1  0  0  0  0
 15  9  1  0  0  0  0
 16  1  1  0  0  0  0
 17  8  1  6  0  0  0
 17 10  1  0  0  0  0
 18 15  2  0  0  0  0
 18  6  1  0  0  0  0
 19 16  1  0  0  0  0
 20 29  1  6  0  0  0
 21  4  1  0  0  0  0
 22 21  1  1  0  0  0
 25  5  2  0  0  0  0
 27  5  1  6  0  0  0
 27 14  1  0  0  0  0
 28 23  1  0  0  0  0
 29 30  1  0  0  0  0
 30 32  1  0  0  0  0
 30 31  2  0  0  0  0
M  END
>  <MODEL>
4

>  <REMARK>
 VINA RESULT:      -8.2      1.832      2.191
  Name = 
  1 active torsions:
  status: ('A' for Active; 'I' for Inactive)
    1  A    between atoms: C_20  and  N_29
                            x       y       z     vdW  Elec       q    Type
                         _______ _______ _______ _____ _____    ______ ____

>  <TORSDO>
F 1

$$$$
=
 OpenBabel11112416303D

 32 37  0  0  1  0  0  0  0  0999 V2000
  186.8720  176.7250  146.8690 C   0  0  0  0  0  2  0  0  0  0  0  0
  191.6190  176.7440  143.8540 C   0  0  1  0  0  3  0  0  0  0  0  0
  188.9070  173.2830  141.5270 C   0  0  0  0  0  2  0  0  0  0  0  0
  190.1640  172.6240  140.9460 C   0  0  0  0  0  2  0  0  0  0  0  0
  194.0930  176.2830  144.1580 C   0  0  0  0  0  0  0  0  0  0  0  0
  195.3240  175.7550  143.5550 C   0  0  0  0  0  0  0  0  0  0  0  0
  189.7680  177.4220  145.4310 C   0  0  1  0  0  3  0  0  0  0  0  0
  189.2550  177.3670  143.1220 C   0  0  0  0  0  2  0  0  0  0  0  0
  196.7320  174.5220  142.2370 C   0  0  1  0  0  3  0  0  0  0  0  0
  187.5180  177.7060  144.6410 C   0  0  0  0  0  2  0  0  0  0  0  0
  189.0700  174.8030  141.6150 C   0  0  0  0  0  2  0  0  0  0  0  0
  190.5300  176.5950  142.7590 C   0  0  2  0  0  3  0  0  0  0  0  0
  190.3010  175.1140  142.4620 C   0  0  2  0  0  3  0  0  0  0  0  0
  192.8650  175.1120  142.2850 C   0  0  2  0  0  3  0  0  0  0  0  0
  197.4970  175.4220  143.1010 N   0  0  0  0  0  0  0  0  0  0  0  0
  188.2790  176.1940  147.1220 C   0  0  0  0  0  2  0  0  0  0  0  0
  188.7690  176.9840  144.4430 N   0  0  2  0  0  0  0  0  0  0  0  0
  196.6970  176.1180  143.8450 C   0  0  0  0  0  3  0  0  0  0  0  0
  189.2950  177.3070  146.8880 C   0  0  0  0  0  2  0  0  0  0  0  0
  186.5370  176.8060  145.3800 C   0  0  2  0  0  3  0  0  0  0  0  0
  191.4150  173.0150  141.7390 C   0  0  0  0  0  2  0  0  0  0  0  0
  191.5310  174.5380  141.7550 C   0  0  1  0  0  3  0  0  0  0  0  0
  194.0770  174.1830  142.0930 C   0  0  0  0  0  2  0  0  0  0  0  0
  191.0350  176.5910  145.2620 C   0  0  0  0  0  2  0  0  0  0  0  0
  194.1570  177.1400  145.0800 O   0  0  0  0  0  0  0  0  0  0  0  0
  197.0620  173.0810  142.5840 C   0  0  0  0  0  1  0  0  0  0  0  0
  192.7660  175.7150  143.7100 C   0  0  2  0  0  3  0  0  0  0  0  0
  195.3240  174.8370  142.6120 C   0  0  0  0  0  0  0  0  0  0  0  0
  185.1890  177.3250  145.2080 N   0  0  0  0  0  2  0  0  0  0  0  0
  184.7750  178.5840  145.7400 C   0  0  0  0  0  0  0  0  0  0  0  0
  185.5720  179.2920  146.4120 O   0  0  0  0  0  0  0  0  0  0  0  0
  183.4460  179.0410  145.5140 N   0  0  0  0  0  1  0  0  0  0  0  0
  1 16  1  0  0  0  0
  2 24  1  1  0  0  0
  3 11  1  0  0  0  0
  4  3  1  0  0  0  0
  4 21  1  0  0  0  0
  5 25  2  0  0  0  0
  6 18  1  0  0  0  0
  6  5  1  0  0  0  0
  7 24  1  1  0  0  0
  7 19  1  0  0  0  0
  9 26  1  1  0  0  0
  9 28  1  0  0  0  0
  9 15  1  0  0  0  0
 10 20  1  0  0  0  0
 12  8  1  1  0  0  0
 12  2  1  0  0  0  0
 13 11  1  6  0  0  0
 13 12  1  0  0  0  0
 14 23  1  1  0  0  0
 14 27  1  0  0  0  0
 15 18  2  0  0  0  0
 17  8  1  6  0  0  0
 17 10  1  0  0  0  0
 17  7  1  0  0  0  0
 19 16  1  0  0  0  0
 20 29  1  1  0  0  0
 20  1  1  0  0  0  0
 22 21  1  1  0  0  0
 22 14  1  0  0  0  0
 22 13  1  0  0  0  0
 23 28  1  0  0  0  0
 27  2  1  0  0  0  0
 27  5  1  6  0  0  0
 28  6  2  0  0  0  0
 29 30  1  0  0  0  0
 30 31  2  0  0  0  0
 32 30  1  0  0  0  0
M  END
>  <MODEL>
5

>  <REMARK>
 VINA RESULT:      -7.8      2.065      8.721
  Name = 
  1 active torsions:
  status: ('A' for Active; 'I' for Inactive)
    1  A    between atoms: C_20  and  N_29
                            x       y       z     vdW  Elec       q    Type
                         _______ _______ _______ _____ _____    ______ ____

>  <TORSDO>
F 1

$$$$
=
 OpenBabel11112416303D

 32 37  0  0  1  0  0  0  0  0999 V2000
  188.4830  174.6840  140.4030 C   0  0  0  0  0  2  0  0  0  0  0  0
  191.5940  172.0170  144.2550 C   0  0  1  0  0  3  0  0  0  0  0  0
  193.2120  176.7040  144.6540 C   0  0  0  0  0  2  0  0  0  0  0  0
  194.5430  176.2400  145.2590 C   0  0  0  0  0  2  0  0  0  0  0  0
  193.3210  170.1670  144.3870 C   0  0  0  0  0  0  0  0  0  0  0  0
  194.5340  169.6690  145.0490 C   0  0  0  0  0  0  0  0  0  0  0  0
  189.7640  172.5770  142.6070 C   0  0  1  0  0  3  0  0  0  0  0  0
  189.8590  173.8590  144.5940 C   0  0  0  0  0  2  0  0  0  0  0  0
  196.5240  169.6350  146.1790 C   0  0  1  0  0  3  0  0  0  0  0  0
  188.3790  174.5150  142.9140 C   0  0  0  0  0  2  0  0  0  0  0  0
  192.0580  175.8040  145.1030 C   0  0  0  0  0  2  0  0  0  0  0  0
  191.2600  173.3560  144.9650 C   0  0  2  0  0  3  0  0  0  0  0  0
  192.3760  174.3660  144.7060 C   0  0  2  0  0  3  0  0  0  0  0  0
  193.8530  172.3980  145.4490 C   0  0  2  0  0  3  0  0  0  0  0  0
  196.0990  168.2740  145.8510 N   0  0  0  0  0  0  0  0  0  0  0  0
  189.6710  173.7330  140.3180 C   0  0  0  0  0  2  0  0  0  0  0  0
  189.7010  173.9460  143.1460 N   0  0  2  0  0  0  0  0  0  0  0  0
  194.9720  168.2970  145.2120 C   0  0  0  0  0  3  0  0  0  0  0  0
  189.3760  172.4730  141.1240 C   0  0  0  0  0  2  0  0  0  0  0  0
  188.4460  175.4580  141.7210 C   0  0  2  0  0  3  0  0  0  0  0  0
  194.8160  174.7670  144.9410 C   0  0  0  0  0  2  0  0  0  0  0  0
  193.6430  173.9300  145.4480 C   0  0  1  0  0  3  0  0  0  0  0  0
  195.3200  171.9590  145.5990 C   0  0  0  0  0  2  0  0  0  0  0  0
  191.1790  172.0380  142.7800 C   0  0  0  0  0  2  0  0  0  0  0  0
  192.5250  169.3610  143.8330 O   0  0  0  0  0  0  0  0  0  0  0  0
  197.8300  169.9450  145.4670 C   0  0  0  0  0  1  0  0  0  0  0  0
  193.0980  171.6600  144.3130 C   0  0  2  0  0  3  0  0  0  0  0  0
  195.4180  170.4610  145.6180 C   0  0  0  0  0  0  0  0  0  0  0  0
  187.2880  176.3380  141.7420 N   0  0  0  0  0  2  0  0  0  0  0  0
  187.4030  177.7610  141.7890 C   0  0  0  0  0  0  0  0  0  0  0  0
  188.5340  178.3130  141.8400 O   0  0  0  0  0  0  0  0  0  0  0  0
  186.2270  178.5630  141.7840 N   0  0  0  0  0  1  0  0  0  0  0  0
  1 20  1  0  0  0  0
  2 24  1  6  0  0  0
  2 27  1  0  0  0  0
  2 12  1  0  0  0  0
  3 11  1  0  0  0  0
  3  4  1  0  0  0  0
  5  6  1  0  0  0  0
  6 18  1  0  0  0  0
  6 28  2  0  0  0  0
  7 19  1  6  0  0  0
  7 24  1  0  0  0  0
  7 17  1  0  0  0  0
  9 26  1  6  0  0  0
 12  8  1  6  0  0  0
 13 12  1  0  0  0  0
 13 11  1  1  0  0  0
 13 22  1  0  0  0  0
 14 23  1  6  0  0  0
 15  9  1  0  0  0  0
 16  1  1  0  0  0  0
 16 19  1  0  0  0  0
 17 10  1  1  0  0  0
 17  8  1  0  0  0  0
 18 15  2  0  0  0  0
 20 29  1  6  0  0  0
 20 10  1  0  0  0  0
 21  4  1  0  0  0  0
 22 21  1  6  0  0  0
 22 14  1  0  0  0  0
 23 28  1  0  0  0  0
 25  5  2  0  0  0  0
 27  5  1  1  0  0  0
 27 14  1  0  0  0  0
 28  9  1  0  0  0  0
 29 30  1  0  0  0  0
 30 31  2  0  0  0  0
 32 30  1  0  0  0  0
M  END
>  <MODEL>
6

>  <REMARK>
 VINA RESULT:      -7.7      3.124      8.435
  Name = 
  1 active torsions:
  status: ('A' for Active; 'I' for Inactive)
    1  A    between atoms: C_20  and  N_29
                            x       y       z     vdW  Elec       q    Type
                         _______ _______ _______ _____ _____    ______ ____

>  <TORSDO>
F 1

$$$$
=
 OpenBabel11112416303D

 32 37  0  0  1  0  0  0  0  0999 V2000
  190.0570  174.6590  142.6910 C   0  0  0  0  0  2  0  0  0  0  0  0
  185.7130  178.1830  142.1100 C   0  0  1  0  0  3  0  0  0  0  0  0
  186.3730  178.1270  147.0400 C   0  0  0  0  0  2  0  0  0  0  0  0
  184.9240  178.5690  147.2840 C   0  0  0  0  0  2  0  0  0  0  0  0
  183.3300  178.1720  141.2470 C   0  0  0  0  0  0  0  0  0  0  0  0
  181.9650  178.6880  141.4130 C   0  0  0  0  0  0  0  0  0  0  0  0
  187.7490  176.7710  141.6200 C   0  0  1  0  0  3  0  0  0  0  0  0
  188.0540  178.6610  143.0110 C   0  0  0  0  0  2  0  0  0  0  0  0
  180.0770  179.5390  142.3880 C   0  0  1  0  0  3  0  0  0  0  0  0
  189.8260  177.1660  142.7590 C   0  0  0  0  0  2  0  0  0  0  0  0
  186.9410  178.7720  145.7730 C   0  0  0  0  0  2  0  0  0  0  0  0
  186.5480  178.8640  143.2260 C   0  0  2  0  0  3  0  0  0  0  0  0
  186.0440  178.4070  144.5940 C   0  0  2  0  0  3  0  0  0  0  0  0
  183.7690  179.0410  143.5800 C   0  0  2  0  0  3  0  0  0  0  0  0
  179.8670  179.3390  140.9540 N   0  0  0  0  0  0  0  0  0  0  0  0
  188.5810  174.4610  142.3660 C   0  0  0  0  0  2  0  0  0  0  0  0
  188.3740  177.2450  142.8650 N   0  0  2  0  0  0  0  0  0  0  0  0
  180.9370  178.8570  140.4060 C   0  0  0  0  0  3  0  0  0  0  0  0
  188.1900  175.3610  141.1990 C   0  0  0  0  0  2  0  0  0  0  0  0
  190.3120  175.9300  143.5020 C   0  0  2  0  0  3  0  0  0  0  0  0
  184.0440  178.2910  146.0620 C   0  0  0  0  0  2  0  0  0  0  0  0
  184.6520  178.9910  144.8480 C   0  0  1  0  0  3  0  0  0  0  0  0
  182.2560  179.0120  143.8580 C   0  0  0  0  0  2  0  0  0  0  0  0
  186.2340  176.7780  141.7890 C   0  0  0  0  0  2  0  0  0  0  0  0
  183.7220  177.7710  140.1180 O   0  0  0  0  0  0  0  0  0  0  0  0
  179.1320  178.6430  143.1700 C   0  0  0  0  0  1  0  0  0  0  0  0
  184.2140  178.0550  142.4680 C   0  0  2  0  0  3  0  0  0  0  0  0
  181.4860  179.0920  142.5710 C   0  0  0  0  0  0  0  0  0  0  0  0
  191.7350  176.0630  143.7720 N   0  0  0  0  0  2  0  0  0  0  0  0
  192.3110  175.7550  145.0420 C   0  0  0  0  0  0  0  0  0  0  0  0
  191.5880  175.3730  146.0000 O   0  0  0  0  0  0  0  0  0  0  0  0
  193.7160  175.8870  145.2290 N   0  0  0  0  0  1  0  0  0  0  0  0
  1 20  1  0  0  0  0
  2 24  1  1  0  0  0
  2 27  1  0  0  0  0
  2 12  1  0  0  0  0
  3  4  1  0  0  0  0
  5  6  1  0  0  0  0
  6 28  2  0  0  0  0
  7 19  1  1  0  0  0
  7 24  1  0  0  0  0
  7 17  1  0  0  0  0
  9 28  1  0  0  0  0
  9 26  1  1  0  0  0
 10 20  1  0  0  0  0
 11  3  1  0  0  0  0
 12  8  1  6  0  0  0
 12 13  1  0  0  0  0
 13 22  1  0  0  0  0
 13 11  1  1  0  0  0
 14 23  1  1  0  0  0
 14 22  1  0  0  0  0
 15  9  1  0  0  0  0
 16  1  1  0  0  0  0
 17 10  1  6  0  0  0
 17  8  1  0  0  0  0
 18 15  2  0  0  0  0
 18  6  1  0  0  0  0
 19 16  1  0  0  0  0
 20 29  1  6  0  0  0
 21  4  1  0  0  0  0
 22 21  1  1  0  0  0
 25  5  2  0  0  0  0
 27  5  1  6  0  0  0
 27 14  1  0  0  0  0
 28 23  1  0  0  0  0
 29 30  1  0  0  0  0
 30 32  1  0  0  0  0
 30 31  2  0  0  0  0
M  END
>  <MODEL>
7

>  <REMARK>
 VINA RESULT:      -7.7      2.825      4.916
  Name = 
  1 active torsions:
  status: ('A' for Active; 'I' for Inactive)
    1  A    between atoms: C_20  and  N_29
                            x       y       z     vdW  Elec       q    Type
                         _______ _______ _______ _____ _____    ______ ____

>  <TORSDO>
F 1

$$$$
=
 OpenBabel11112416303D

 32 37  0  0  1  0  0  0  0  0999 V2000
  186.9180  178.4790  142.4250 C   0  0  0  0  0  2  0  0  0  0  0  0
  190.8530  174.7350  143.8840 C   0  0  1  0  0  3  0  0  0  0  0  0
  190.5290  177.5670  147.9610 C   0  0  0  0  0  2  0  0  0  0  0  0
  191.9410  177.1660  148.4060 C   0  0  0  0  0  2  0  0  0  0  0  0
  193.1640  173.9900  143.1560 C   0  0  0  0  0  0  0  0  0  0  0  0
  194.4800  173.4950  143.5780 C   0  0  0  0  0  0  0  0  0  0  0  0
  188.9360  175.8720  142.6980 C   0  0  1  0  0  3  0  0  0  0  0  0
  188.5420  175.1090  144.9030 C   0  0  0  0  0  2  0  0  0  0  0  0
  196.3370  173.1050  144.8580 C   0  0  1  0  0  3  0  0  0  0  0  0
  186.9100  176.4150  143.8680 C   0  0  0  0  0  2  0  0  0  0  0  0
  189.8180  176.4050  147.2630 C   0  0  0  0  0  2  0  0  0  0  0  0
  190.0320  174.8820  145.1920 C   0  0  2  0  0  3  0  0  0  0  0  0
  190.6670  175.9530  146.0780 C   0  0  2  0  0  3  0  0  0  0  0  0
  192.7980  174.6050  145.5800 C   0  0  2  0  0  3  0  0  0  0  0  0
  196.4700  172.4580  143.5530 N   0  0  0  0  0  0  0  0  0  0  0  0
  188.3820  178.2910  142.0420 C   0  0  0  0  0  2  0  0  0  0  0  0
  188.3510  176.2380  143.9990 N   0  0  2  0  0  0  0  0  0  0  0  0
  195.4180  172.6810  142.8310 C   0  0  0  0  0  3  0  0  0  0  0  0
  188.6060  176.8590  141.5670 C   0  0  0  0  0  2  0  0  0  0  0  0
  186.5960  177.9030  143.8040 C   0  0  2  0  0  3  0  0  0  0  0  0
  192.7620  176.6210  147.2330 C   0  0  0  0  0  2  0  0  0  0  0  0
  192.0100  175.4460  146.6110 C   0  0  1  0  0  3  0  0  0  0  0  0
  194.3210  174.6040  145.7940 C   0  0  0  0  0  2  0  0  0  0  0  0
  190.4500  175.7810  142.8400 C   0  0  0  0  0  2  0  0  0  0  0  0
  192.7380  173.7480  141.9940 O   0  0  0  0  0  0  0  0  0  0  0  0
  197.4140  174.1650  145.0120 C   0  0  0  0  0  1  0  0  0  0  0  0
  192.3780  174.8610  144.1090 C   0  0  2  0  0  3  0  0  0  0  0  0
  194.9930  173.7410  144.7650 C   0  0  0  0  0  0  0  0  0  0  0  0
  185.1870  178.1080  144.1040 N   0  0  0  0  0  2  0  0  0  0  0  0
  184.7420  178.8610  145.2330 C   0  0  0  0  0  0  0  0  0  0  0  0
  185.5700  179.3640  146.0380 O   0  0  0  0  0  0  0  0  0  0  0  0
  183.3480  179.0410  145.4540 N   0  0  0  0  0  1  0  0  0  0  0  0
  1 20  1  0  0  0  0
  2 24  1  6  0  0  0
  2 27  1  0  0  0  0
  2 12  1  0  0  0  0
  3  4  1  0  0  0  0
  5  6  1  0  0  0  0
  6 28  2  0  0  0  0
  7 19  1  6  0  0  0
  7 24  1  0  0  0  0
  7 17  1  0  0  0  0
  9 26  1  6  0  0  0
 11  3  1  0  0  0  0
 12  8  1  6  0  0  0
 12 13  1  0  0  0  0
 13 22  1  0  0  0  0
 13 11  1  1  0  0  0
 14 23  1  6  0  0  0
 14 22  1  0  0  0  0
 15  9  1  0  0  0  0
 16  1  1  0  0  0  0
 17 10  1  6  0  0  0
 17  8  1  0  0  0  0
 18 15  2  0  0  0  0
 18  6  1  0  0  0  0
 19 16  1  0  0  0  0
 20 10  1  0  0  0  0
 20 29  1  6  0  0  0
 21  4  1  0  0  0  0
 22 21  1  6  0  0  0
 25  5  2  0  0  0  0
 27  5  1  6  0  0  0
 27 14  1  0  0  0  0
 28  9  1  0  0  0  0
 28 23  1  0  0  0  0
 29 30  1  0  0  0  0
 30 32  1  0  0  0  0
 30 31  2  0  0  0  0
M  END
>  <MODEL>
8

>  <REMARK>
 VINA RESULT:      -7.4      2.040      8.145
  Name = 
  1 active torsions:
  status: ('A' for Active; 'I' for Inactive)
    1  A    between atoms: C_20  and  N_29
                            x       y       z     vdW  Elec       q    Type
                         _______ _______ _______ _____ _____    ______ ____

>  <TORSDO>
F 1

$$$$
=
 OpenBabel11112416303D

 32 37  0  0  1  0  0  0  0  0999 V2000
  194.9210  172.3740  142.9890 C   0  0  0  0  0  2  0  0  0  0  0  0
  189.7370  174.1140  144.3050 C   0  0  1  0  0  3  0  0  0  0  0  0
  189.4150  173.4710  139.3830 C   0  0  0  0  0  2  0  0  0  0  0  0
  188.2290  174.4400  139.2890 C   0  0  0  0  0  2  0  0  0  0  0  0
  188.5830  176.1400  145.3000 C   0  0  0  0  0  0  0  0  0  0  0  0
  187.3930  177.0000  145.2870 C   0  0  0  0  0  0  0  0  0  0  0  0
  192.0800  173.1870  144.4750 C   0  0  1  0  0  3  0  0  0  0  0  0
  190.4760  171.8690  143.3390 C   0  0  0  0  0  2  0  0  0  0  0  0
  185.5220  178.0960  144.5530 C   0  0  1  0  0  3  0  0  0  0  0  0
  192.7100  171.2020  143.2790 C   0  0  0  0  0  2  0  0  0  0  0  0
  189.3760  172.6740  140.6900 C   0  0  0  0  0  2  0  0  0  0  0  0
  189.4610  173.0160  143.2450 C   0  0  2  0  0  3  0  0  0  0  0  0
  189.3650  173.6540  141.8590 C   0  0  2  0  0  3  0  0  0  0  0  0
  187.7580  175.2420  143.0860 C   0  0  2  0  0  3  0  0  0  0  0  0
  185.7850  178.4160  145.9560 N   0  0  0  0  0  0  0  0  0  0  0  0
  194.3330  173.7270  143.3720 C   0  0  0  0  0  2  0  0  0  0  0  0
  191.8430  172.3740  143.2710 N   0  0  2  0  0  0  0  0  0  0  0  0
  186.8440  177.7940  146.3680 C   0  0  0  0  0  3  0  0  0  0  0  0
  193.5480  173.5940  144.6720 C   0  0  0  0  0  2  0  0  0  0  0  0
  193.8870  171.4490  142.3450 C   0  0  2  0  0  3  0  0  0  0  0  0
  188.1620  175.3590  140.5120 C   0  0  0  0  0  2  0  0  0  0  0  0
  188.0900  174.4970  141.7720 C   0  0  1  0  0  3  0  0  0  0  0  0
  186.9220  176.5190  142.8970 C   0  0  0  0  0  2  0  0  0  0  0  0
  191.2290  174.4490  144.4000 C   0  0  0  0  0  2  0  0  0  0  0  0
  189.2930  176.0570  146.3380 O   0  0  0  0  0  0  0  0  0  0  0  0
  185.6370  179.3570  143.7130 C   0  0  0  0  0  1  0  0  0  0  0  0
  188.9790  175.4320  144.0240 C   0  0  2  0  0  3  0  0  0  0  0  0
  186.6290  177.1530  144.2260 C   0  0  0  0  0  0  0  0  0  0  0  0
  194.5080  170.1760  142.0120 N   0  0  0  0  0  2  0  0  0  0  0  0
  194.6240  169.7040  140.6690 C   0  0  0  0  0  0  0  0  0  0  0  0
  194.1610  170.3760  139.7090 O   0  0  0  0  0  0  0  0  0  0  0  0
  195.2630  168.4590  140.4130 N   0  0  0  0  0  1  0  0  0  0  0  0
  1 16  1  0  0  0  0
  2 24  1  6  0  0  0
  3 11  1  0  0  0  0
  4  3  1  0  0  0  0
  4 21  1  0  0  0  0
  5 25  2  0  0  0  0
  6  5  1  0  0  0  0
  6 18  1  0  0  0  0
  7 24  1  6  0  0  0
  7 19  1  0  0  0  0
  9 26  1  6  0  0  0
  9 15  1  0  0  0  0
 12  8  1  6  0  0  0
 12  2  1  0  0  0  0
 13 11  1  6  0  0  0
 13 12  1  0  0  0  0
 14 23  1  6  0  0  0
 14 27  1  0  0  0  0
 15 18  2  0  0  0  0
 16 19  1  0  0  0  0
 17 10  1  1  0  0  0
 17  8  1  0  0  0  0
 17  7  1  0  0  0  0
 20 29  1  1  0  0  0
 20  1  1  0  0  0  0
 20 10  1  0  0  0  0
 22 21  1  6  0  0  0
 22 13  1  0  0  0  0
 22 14  1  0  0  0  0
 23 28  1  0  0  0  0
 27  2  1  0  0  0  0
 27  5  1  1  0  0  0
 28  9  1  0  0  0  0
 28  6  2  0  0  0  0
 30 29  1  0  0  0  0
 31 30  2  0  0  0  0
 32 30  1  0  0  0  0
M  END
>  <MODEL>
9

>  <REMARK>
 VINA RESULT:      -7.0      2.382      4.335
  Name = 
  1 active torsions:
  status: ('A' for Active; 'I' for Inactive)
    1  A    between atoms: C_20  and  N_29
                            x       y       z     vdW  Elec       q    Type
                         _______ _______ _______ _____ _____    ______ ____

>  <TORSDO>
F 1

$$$$
