=
 OpenBabel11112417423D

 28 32  0  0  1  0  0  0  0  0999 V2000
  191.6850  174.0660  143.3780 C   0  0  0  0  0  0  0  0  0  0  0  0
  188.9580  178.2540  141.8600 O   0  0  0  0  0  0  0  0  0  0  0  0
  191.2250  175.3710  147.8190 C   0  0  0  0  0  1  0  0  0  0  0  0
  189.8090  172.1890  144.2690 C   0  0  0  0  0  3  0  0  0  0  0  0
  189.6840  177.0230  146.8120 C   0  0  2  0  0  3  0  0  0  0  0  0
  192.6240  175.0210  142.9800 O   0  0  0  0  0  0  0  0  0  0  0  0
  187.9200  176.2200  140.9530 O   0  0  0  0  0  0  0  0  0  0  0  0
  187.9950  177.1350  142.1430 S   0  0  0  0  0  0  0  0  0  0  0  0
  186.0340  177.6020  143.9510 C   0  0  2  0  0  3  0  0  0  0  0  0
  188.5200  176.2110  143.5910 C   0  0  2  0  0  3  0  0  0  0  0  0
  195.1880  175.8040  145.5880 C   0  0  0  0  0  1  0  0  0  0  0  0
  190.6270  176.8550  144.6020 C   0  0  1  0  0  3  0  0  0  0  0  0
  187.2310  177.9590  144.8260 C   0  0  0  0  0  2  0  0  0  0  0  0
  186.3850  177.8130  142.4860 C   0  0  0  0  0  2  0  0  0  0  0  0
  193.8100  175.4650  145.0620 C   0  0  1  0  0  3  0  0  0  0  0  0
  190.3680  174.4740  143.6480 C   0  0  0  0  0  0  0  0  0  0  0  0
  191.1170  176.5530  146.8720 C   0  0  2  0  0  3  0  0  0  0  0  0
  184.8600  178.4850  144.3140 C   0  0  0  0  0  1  0  0  0  0  0  0
  192.8680  176.6400  145.3080 C   0  0  0  0  0  2  0  0  0  0  0  0
  189.4380  173.5260  144.1060 C   0  0  0  0  0  3  0  0  0  0  0  0
  192.0570  172.7260  143.5520 C   0  0  0  0  0  3  0  0  0  0  0  0
  191.1180  171.7890  143.9910 C   0  0  0  0  0  3  0  0  0  0  0  0
  193.9140  175.1130  143.5760 C   0  0  0  0  0  2  0  0  0  0  0  0
  189.4660  177.4410  145.3790 C   0  0  1  0  0  3  0  0  0  0  0  0
  191.5130  176.1470  145.5300 N   0  0  2  0  0  0  0  0  0  0  0  0
  188.2180  176.8700  144.8810 N   0  0  2  0  0  0  0  0  0  0  0  0
  189.5080  178.1200  147.6550 O   0  0  0  0  0  1  0  0  0  0  0  0
  190.0120  175.9450  143.5340 C   0  0  1  0  0  3  0  0  0  0  0  0
  1 21  2  0  0  0  0
  1 16  1  0  0  0  0
  2  8  2  0  0  0  0
  5 17  1  0  0  0  0
  5 27  1  1  0  0  0
  6  1  1  0  0  0  0
  6 23  1  0  0  0  0
  7  8  2  0  0  0  0
  8 14  1  0  0  0  0
  9 18  1  1  0  0  0
  9 13  1  0  0  0  0
 10  8  1  6  0  0  0
 10 26  1  0  0  0  0
 12 24  1  0  0  0  0
 12 25  1  0  0  0  0
 13 26  1  0  0  0  0
 14  9  1  0  0  0  0
 15 19  1  0  0  0  0
 15 11  1  0  0  0  0
 16 20  2  0  0  0  0
 17  3  1  0  0  0  0
 19 25  1  0  0  0  0
 20  4  1  0  0  0  0
 21 22  1  0  0  0  0
 22  4  2  0  0  0  0
 23 15  1  0  0  0  0
 24  5  1  0  0  0  0
 25 17  1  0  0  0  0
 26 24  1  0  0  0  0
 28 10  1  0  0  0  0
 28 16  1  0  0  0  0
 28 12  1  0  0  0  0
M  END
>  <MODEL>
1

>  <REMARK>
 VINA RESULT:      -8.4      0.000      0.000
  Name = 
  0 active torsions:
  status: ('A' for Active; 'I' for Inactive)
                            x       y       z     vdW  Elec       q    Type
                         _______ _______ _______ _____ _____    ______ ____

>  <TORSDO>
F 0

$$$$
=
 OpenBabel11112417423D

 28 32  0  0  1  0  0  0  0  0999 V2000
  189.5920  176.4840  145.0410 C   0  0  0  0  0  0  0  0  0  0  0  0
  194.7200  176.3650  144.0580 O   0  0  0  0  0  0  0  0  0  0  0  0
  189.1120  172.2980  143.0700 C   0  0  0  0  0  1  0  0  0  0  0  0
  189.1920  174.8940  147.3110 C   0  0  0  0  0  3  0  0  0  0  0  0
  191.5850  172.3930  143.0840 C   0  0  2  0  0  3  0  0  0  0  0  0
  189.7840  177.2360  143.8810 O   0  0  0  0  0  0  0  0  0  0  0  0
  194.3480  176.7620  146.4540 O   0  0  0  0  0  0  0  0  0  0  0  0
  194.4740  175.7100  145.3880 S   0  0  0  0  0  0  0  0  0  0  0  0
  195.3680  173.1750  145.7140 C   0  0  2  0  0  3  0  0  0  0  0  0
  192.9780  174.7180  145.3280 C   0  0  2  0  0  3  0  0  0  0  0  0
  187.7060  176.1110  140.9820 C   0  0  0  0  0  1  0  0  0  0  0  0
  191.6910  174.7910  143.2750 C   0  0  1  0  0  3  0  0  0  0  0  0
  194.5190  172.9510  144.4670 C   0  0  0  0  0  2  0  0  0  0  0  0
  195.8310  174.6220  145.7700 C   0  0  0  0  0  2  0  0  0  0  0  0
  188.5530  175.9400  142.2260 C   0  0  1  0  0  3  0  0  0  0  0  0
  190.6070  175.6090  145.4660 C   0  0  0  0  0  0  0  0  0  0  0  0
  190.3300  173.0330  142.5390 C   0  0  2  0  0  3  0  0  0  0  0  0
  196.5770  172.2650  145.6740 C   0  0  0  0  0  1  0  0  0  0  0  0
  189.8540  175.2310  141.8620 C   0  0  0  0  0  2  0  0  0  0  0  0
  190.3900  174.8070  146.5990 C   0  0  0  0  0  3  0  0  0  0  0  0
  188.3870  176.5610  145.7530 C   0  0  0  0  0  3  0  0  0  0  0  0
  188.1900  175.7710  146.8880 C   0  0  0  0  0  3  0  0  0  0  0  0
  188.8020  177.3140  142.8540 C   0  0  0  0  0  2  0  0  0  0  0  0
  192.5380  173.5350  143.3250 C   0  0  1  0  0  3  0  0  0  0  0  0
  190.3040  174.4190  142.9870 N   0  0  2  0  0  0  0  0  0  0  0  0
  193.1350  173.4110  144.6520 N   0  0  2  0  0  0  0  0  0  0  0  0
  192.1220  171.5210  142.1380 O   0  0  0  0  0  1  0  0  0  0  0  0
  191.8680  175.4810  144.6310 C   0  0  1  0  0  3  0  0  0  0  0  0
  1 16  2  0  0  0  0
  1 21  1  0  0  0  0
  2  8  2  0  0  0  0
  5 27  1  6  0  0  0
  5 24  1  0  0  0  0
  6  1  1  0  0  0  0
  8 14  1  0  0  0  0
  8  7  2  0  0  0  0
  9 18  1  6  0  0  0
  9 14  1  0  0  0  0
 10  8  1  6  0  0  0
 11 15  1  0  0  0  0
 12 24  1  0  0  0  0
 12 28  1  0  0  0  0
 13 26  1  0  0  0  0
 13  9  1  0  0  0  0
 15 23  1  0  0  0  0
 16 20  1  0  0  0  0
 17 25  1  0  0  0  0
 17  3  1  0  0  0  0
 17  5  1  0  0  0  0
 19 15  1  0  0  0  0
 19 25  1  0  0  0  0
 20  4  2  0  0  0  0
 21 22  2  0  0  0  0
 22  4  1  0  0  0  0
 23  6  1  0  0  0  0
 24 26  1  0  0  0  0
 25 12  1  0  0  0  0
 26 10  1  0  0  0  0
 28 10  1  0  0  0  0
 28 16  1  0  0  0  0
M  END
>  <MODEL>
2

>  <REMARK>
 VINA RESULT:      -7.8      2.626      6.644
  Name = 
  0 active torsions:
  status: ('A' for Active; 'I' for Inactive)
                            x       y       z     vdW  Elec       q    Type
                         _______ _______ _______ _____ _____    ______ ____

>  <TORSDO>
F 0

$$$$
=
 OpenBabel11112417423D

 28 32  0  0  1  0  0  0  0  0999 V2000
  187.3190  176.8100  144.5190 C   0  0  0  0  0  0  0  0  0  0  0  0
  189.2180  172.1200  143.2280 O   0  0  0  0  0  0  0  0  0  0  0  0
  191.4980  178.7120  143.7740 C   0  0  0  0  0  1  0  0  0  0  0  0
  186.8460  178.1550  142.1090 C   0  0  0  0  0  3  0  0  0  0  0  0
  191.9810  176.4560  142.8810 C   0  0  2  0  0  3  0  0  0  0  0  0
  187.6010  176.1590  145.7210 O   0  0  0  0  0  0  0  0  0  0  0  0
  187.2560  172.6260  141.8390 O   0  0  0  0  0  0  0  0  0  0  0  0
  188.7420  172.8020  141.9760 S   0  0  0  0  0  0  0  0  0  0  0  0
  190.5280  173.1060  139.9640 C   0  0  2  0  0  3  0  0  0  0  0  0
  189.1480  174.5510  142.0260 C   0  0  2  0  0  3  0  0  0  0  0  0
  189.8630  178.0840  147.9940 C   0  0  0  0  0  1  0  0  0  0  0  0
  190.1740  175.3850  144.0580 C   0  0  1  0  0  3  0  0  0  0  0  0
  191.3260  173.7850  141.0720 C   0  0  0  0  0  2  0  0  0  0  0  0
  189.5670  172.0930  140.5660 C   0  0  0  0  0  2  0  0  0  0  0  0
  189.3470  177.5720  146.6660 C   0  0  1  0  0  3  0  0  0  0  0  0
  187.8870  176.3250  143.3280 C   0  0  0  0  0  0  0  0  0  0  0  0
  191.6050  177.2370  144.1170 C   0  0  2  0  0  3  0  0  0  0  0  0
  191.4740  172.3950  139.0200 C   0  0  0  0  0  1  0  0  0  0  0  0
  190.3870  176.6490  146.0380 C   0  0  0  0  0  2  0  0  0  0  0  0
  187.6530  177.0150  142.1270 C   0  0  0  0  0  3  0  0  0  0  0  0
  186.5180  177.9600  144.4980 C   0  0  0  0  0  3  0  0  0  0  0  0
  186.2780  178.6270  143.2950 C   0  0  0  0  0  3  0  0  0  0  0  0
  188.0090  176.8620  146.8900 C   0  0  0  0  0  2  0  0  0  0  0  0
  191.2230  175.1560  142.9890 C   0  0  1  0  0  3  0  0  0  0  0  0
  190.3160  176.7440  144.5840 N   0  0  2  0  0  0  0  0  0  0  0  0
  190.5630  174.8610  141.7220 N   0  0  2  0  0  0  0  0  0  0  0  0
  193.3520  176.2040  142.8760 O   0  0  0  0  0  1  0  0  0  0  0  0
  188.8190  175.1290  143.3890 C   0  0  1  0  0  3  0  0  0  0  0  0
  1  6  1  0  0  0  0
  3 17  1  0  0  0  0
  4 20  2  0  0  0  0
  4 22  1  0  0  0  0
  5 27  1  1  0  0  0
  5 24  1  0  0  0  0
  5 17  1  0  0  0  0
  6 23  1  0  0  0  0
  7  8  2  0  0  0  0
  8  2  2  0  0  0  0
  9 18  1  6  0  0  0
  9 14  1  0  0  0  0
  9 13  1  0  0  0  0
 10  8  1  1  0  0  0
 10 28  1  0  0  0  0
 12 25  1  0  0  0  0
 13 26  1  0  0  0  0
 14  8  1  0  0  0  0
 15 23  1  0  0  0  0
 15 11  1  0  0  0  0
 16 28  1  0  0  0  0
 16  1  2  0  0  0  0
 17 25  1  0  0  0  0
 19 15  1  0  0  0  0
 20 16  1  0  0  0  0
 21  1  1  0  0  0  0
 22 21  2  0  0  0  0
 24 12  1  0  0  0  0
 25 19  1  0  0  0  0
 26 10  1  0  0  0  0
 26 24  1  0  0  0  0
 28 12  1  0  0  0  0
M  END
>  <MODEL>
3

>  <REMARK>
 VINA RESULT:      -7.7      2.485      5.572
  Name = 
  0 active torsions:
  status: ('A' for Active; 'I' for Inactive)
                            x       y       z     vdW  Elec       q    Type
                         _______ _______ _______ _____ _____    ______ ____

>  <TORSDO>
F 0

$$$$
=
 OpenBabel11112417423D

 28 32  0  0  1  0  0  0  0  0999 V2000
  192.1520  174.4220  142.1280 C   0  0  0  0  0  0  0  0  0  0  0  0
  188.6210  178.2690  142.0440 O   0  0  0  0  0  0  0  0  0  0  0  0
  192.5600  174.8910  146.7380 C   0  0  0  0  0  1  0  0  0  0  0  0
  190.7960  172.1320  142.9950 C   0  0  0  0  0  3  0  0  0  0  0  0
  190.6240  176.3950  146.4070 C   0  0  2  0  0  3  0  0  0  0  0  0
  192.8400  175.5750  141.7420 O   0  0  0  0  0  0  0  0  0  0  0  0
  187.6800  176.2620  140.9850 O   0  0  0  0  0  0  0  0  0  0  0  0
  187.9060  176.9710  142.2910 S   0  0  0  0  0  0  0  0  0  0  0  0
  186.3700  176.7960  144.5140 C   0  0  2  0  0  3  0  0  0  0  0  0
  188.8670  175.9290  143.3930 C   0  0  2  0  0  3  0  0  0  0  0  0
  195.8100  176.3530  143.8780 C   0  0  0  0  0  1  0  0  0  0  0  0
  191.0470  176.7520  144.0630 C   0  0  1  0  0  3  0  0  0  0  0  0
  187.6780  177.2060  145.1810 C   0  0  0  0  0  2  0  0  0  0  0  0
  186.3430  177.2980  143.0790 C   0  0  0  0  0  2  0  0  0  0  0  0
  194.4040  175.8720  143.5870 C   0  0  1  0  0  3  0  0  0  0  0  0
  190.8900  174.5490  142.7330 C   0  0  0  0  0  0  0  0  0  0  0  0
  192.0820  176.1740  146.0820 C   0  0  2  0  0  3  0  0  0  0  0  0
  185.2050  177.3930  145.2730 C   0  0  0  0  0  1  0  0  0  0  0  0
  193.3980  176.8130  144.2440 C   0  0  0  0  0  2  0  0  0  0  0  0
  190.2240  173.3930  143.1760 C   0  0  0  0  0  3  0  0  0  0  0  0
  192.7270  173.1550  141.9570 C   0  0  0  0  0  3  0  0  0  0  0  0
  192.0470  172.0130  142.3850 C   0  0  0  0  0  3  0  0  0  0  0  0
  194.2080  175.7890  142.0710 C   0  0  0  0  0  2  0  0  0  0  0  0
  190.0290  176.9960  145.1580 C   0  0  1  0  0  3  0  0  0  0  0  0
  192.2080  176.0660  144.6350 N   0  0  2  0  0  0  0  0  0  0  0  0
  188.7860  176.3080  144.8210 N   0  0  2  0  0  0  0  0  0  0  0  0
  190.5050  177.2940  147.4660 O   0  0  0  0  0  1  0  0  0  0  0  0
  190.3280  175.9350  142.9840 C   0  0  1  0  0  3  0  0  0  0  0  0
  1 16  1  0  0  0  0
  2  8  2  0  0  0  0
  4 20  1  0  0  0  0
  5 27  1  1  0  0  0
  6 23  1  0  0  0  0
  6  1  1  0  0  0  0
  7  8  2  0  0  0  0
  8 14  1  0  0  0  0
  9 13  1  0  0  0  0
  9 18  1  1  0  0  0
 10  8  1  6  0  0  0
 10 26  1  0  0  0  0
 12 25  1  0  0  0  0
 12 24  1  0  0  0  0
 14  9  1  0  0  0  0
 15 11  1  0  0  0  0
 15 19  1  0  0  0  0
 16 28  1  0  0  0  0
 16 20  2  0  0  0  0
 17  5  1  0  0  0  0
 17  3  1  0  0  0  0
 19 25  1  0  0  0  0
 21  1  2  0  0  0  0
 21 22  1  0  0  0  0
 22  4  2  0  0  0  0
 23 15  1  0  0  0  0
 24  5  1  0  0  0  0
 25 17  1  0  0  0  0
 26 24  1  0  0  0  0
 26 13  1  0  0  0  0
 28 10  1  0  0  0  0
 28 12  1  0  0  0  0
M  END
>  <MODEL>
4

>  <REMARK>
 VINA RESULT:      -7.5      1.146      1.239
  Name = 
  0 active torsions:
  status: ('A' for Active; 'I' for Inactive)
                            x       y       z     vdW  Elec       q    Type
                         _______ _______ _______ _____ _____    ______ ____

>  <TORSDO>
F 0

$$$$
=
 OpenBabel11112417423D

 28 32  0  0  1  0  0  0  0  0999 V2000
  194.2660  173.8830  145.4130 C   0  0  0  0  0  0  0  0  0  0  0  0
  189.5060  174.6560  147.4190 O   0  0  0  0  0  0  0  0  0  0  0  0
  192.3980  173.3090  141.1910 C   0  0  0  0  0  1  0  0  0  0  0  0
  195.0050  176.2940  144.1960 C   0  0  0  0  0  3  0  0  0  0  0  0
  190.3600  174.0690  142.3710 C   0  0  2  0  0  3  0  0  0  0  0  0
  193.8770  172.6660  145.9760 O   0  0  0  0  0  0  0  0  0  0  0  0
  190.9590  176.5540  147.9880 O   0  0  0  0  0  0  0  0  0  0  0  0
  190.0430  175.9770  146.9450 S   0  0  0  0  0  0  0  0  0  0  0  0
  188.5550  177.3600  145.1550 C   0  0  2  0  0  3  0  0  0  0  0  0
  190.9330  175.7700  145.3980 C   0  0  2  0  0  3  0  0  0  0  0  0
  194.0190  169.7810  143.6000 C   0  0  0  0  0  1  0  0  0  0  0  0
  191.1780  173.5060  144.5650 C   0  0  1  0  0  3  0  0  0  0  0  0
  188.6680  176.0500  144.3830 C   0  0  0  0  0  2  0  0  0  0  0  0
  188.6890  177.0930  146.6470 C   0  0  0  0  0  2  0  0  0  0  0  0
  193.7710  171.2140  144.0230 C   0  0  1  0  0  3  0  0  0  0  0  0
  193.2890  174.8620  145.1580 C   0  0  0  0  0  0  0  0  0  0  0  0
  191.4060  172.9830  142.2940 C   0  0  2  0  0  3  0  0  0  0  0  0
  187.2090  177.9960  144.8820 C   0  0  0  0  0  1  0  0  0  0  0  0
  192.2810  171.5250  143.9150 C   0  0  0  0  0  2  0  0  0  0  0  0
  193.6700  176.0630  144.5360 C   0  0  0  0  0  3  0  0  0  0  0  0
  195.6020  174.1150  145.0610 C   0  0  0  0  0  3  0  0  0  0  0  0
  195.9710  175.3210  144.4590 C   0  0  0  0  0  3  0  0  0  0  0  0
  194.2980  171.4140  145.4460 C   0  0  0  0  0  2  0  0  0  0  0  0
  190.0550  174.2200  143.8400 C   0  0  1  0  0  3  0  0  0  0  0  0
  192.0940  172.9310  143.5770 N   0  0  2  0  0  0  0  0  0  0  0  0
  190.0670  175.6330  144.2060 N   0  0  2  0  0  0  0  0  0  0  0  0
  189.2110  173.6710  141.6880 O   0  0  0  0  0  1  0  0  0  0  0  0
  191.8370  174.5530  145.4690 C   0  0  1  0  0  3  0  0  0  0  0  0
  1  6  1  0  0  0  0
  3 17  1  0  0  0  0
  4 22  2  0  0  0  0
  4 20  1  0  0  0  0
  5 27  1  6  0  0  0
  5 24  1  0  0  0  0
  8  2  2  0  0  0  0
  8  7  2  0  0  0  0
  9 18  1  1  0  0  0
  9 14  1  0  0  0  0
 10 28  1  0  0  0  0
 10  8  1  1  0  0  0
 11 15  1  0  0  0  0
 12 28  1  0  0  0  0
 13  9  1  0  0  0  0
 14  8  1  0  0  0  0
 15 23  1  0  0  0  0
 16  1  1  0  0  0  0
 16 28  1  0  0  0  0
 17  5  1  0  0  0  0
 17 25  1  0  0  0  0
 19 15  1  0  0  0  0
 20 16  2  0  0  0  0
 21  1  2  0  0  0  0
 22 21  1  0  0  0  0
 23  6  1  0  0  0  0
 24 26  1  0  0  0  0
 24 12  1  0  0  0  0
 25 19  1  0  0  0  0
 25 12  1  0  0  0  0
 26 13  1  0  0  0  0
 26 10  1  0  0  0  0
M  END
>  <MODEL>
5

>  <REMARK>
 VINA RESULT:      -7.1      2.324      4.895
  Name = 
  0 active torsions:
  status: ('A' for Active; 'I' for Inactive)
                            x       y       z     vdW  Elec       q    Type
                         _______ _______ _______ _____ _____    ______ ____

>  <TORSDO>
F 0

$$$$
=
 OpenBabel11112417423D

 28 32  0  0  1  0  0  0  0  0999 V2000
  195.0910  175.8580  143.9930 C   0  0  0  0  0  0  0  0  0  0  0  0
  190.2530  176.3870  145.8860 O   0  0  0  0  0  0  0  0  0  0  0  0
  193.9710  171.6790  142.2850 C   0  0  0  0  0  1  0  0  0  0  0  0
  194.9340  176.4490  141.2610 C   0  0  0  0  0  3  0  0  0  0  0  0
  191.7040  172.3900  142.9750 C   0  0  2  0  0  3  0  0  0  0  0  0
  195.1610  175.5150  145.3450 O   0  0  0  0  0  0  0  0  0  0  0  0
  190.7940  178.3100  144.4570 O   0  0  0  0  0  0  0  0  0  0  0  0
  190.2710  176.9020  144.4740 S   0  0  0  0  0  0  0  0  0  0  0  0
  188.5230  175.8030  142.7220 C   0  0  2  0  0  3  0  0  0  0  0  0
  191.3020  175.8540  143.4410 C   0  0  2  0  0  3  0  0  0  0  0  0
  196.6240  172.1310  145.9770 C   0  0  0  0  0  1  0  0  0  0  0  0
  192.4830  174.0450  144.5410 C   0  0  1  0  0  3  0  0  0  0  0  0
  189.2050  174.5210  143.1870 C   0  0  0  0  0  2  0  0  0  0  0  0
  188.6200  176.8620  143.8100 C   0  0  0  0  0  2  0  0  0  0  0  0
  195.8010  173.1660  145.2400 C   0  0  1  0  0  3  0  0  0  0  0  0
  193.8370  175.8930  143.3600 C   0  0  0  0  0  0  0  0  0  0  0  0
  193.0930  172.0570  143.4640 C   0  0  2  0  0  3  0  0  0  0  0  0
  187.0650  175.5240  142.4270 C   0  0  0  0  0  1  0  0  0  0  0  0
  194.3230  172.7950  145.3250 C   0  0  0  0  0  2  0  0  0  0  0  0
  193.7710  176.1790  141.9860 C   0  0  0  0  0  3  0  0  0  0  0  0
  196.2570  176.1190  143.2590 C   0  0  0  0  0  3  0  0  0  0  0  0
  196.1770  176.4200  141.8980 C   0  0  0  0  0  3  0  0  0  0  0  0
  196.0820  174.5470  145.8370 C   0  0  0  0  0  2  0  0  0  0  0  0
  191.2380  173.5240  143.8520 C   0  0  1  0  0  3  0  0  0  0  0  0
  193.6320  173.2410  144.1200 N   0  0  2  0  0  0  0  0  0  0  0  0
  190.6660  174.5840  143.0270 N   0  0  2  0  0  0  0  0  0  0  0  0
  190.8660  171.2880  143.1430 O   0  0  0  0  0  1  0  0  0  0  0  0
  192.5990  175.5230  144.1550 C   0  0  1  0  0  3  0  0  0  0  0  0
  1  6  1  0  0  0  0
  3 17  1  0  0  0  0
  4 22  2  0  0  0  0
  4 20  1  0  0  0  0
  5 27  1  1  0  0  0
  5 17  1  0  0  0  0
  5 24  1  0  0  0  0
  6 23  1  0  0  0  0
  7  8  2  0  0  0  0
  8  2  2  0  0  0  0
  9 18  1  1  0  0  0
  9 13  1  0  0  0  0
  9 14  1  0  0  0  0
 10 28  1  0  0  0  0
 10  8  1  1  0  0  0
 14  8  1  0  0  0  0
 15 19  1  0  0  0  0
 15 23  1  0  0  0  0
 15 11  1  0  0  0  0
 16  1  1  0  0  0  0
 16 28  1  0  0  0  0
 17 25  1  0  0  0  0
 20 16  2  0  0  0  0
 21  1  2  0  0  0  0
 22 21  1  0  0  0  0
 24 12  1  0  0  0  0
 25 12  1  0  0  0  0
 25 19  1  0  0  0  0
 26 13  1  0  0  0  0
 26 10  1  0  0  0  0
 26 24  1  0  0  0  0
 28 12  1  0  0  0  0
M  END
>  <MODEL>
6

>  <REMARK>
 VINA RESULT:      -6.8      2.569      4.791
  Name = 
  0 active torsions:
  status: ('A' for Active; 'I' for Inactive)
                            x       y       z     vdW  Elec       q    Type
                         _______ _______ _______ _____ _____    ______ ____

>  <TORSDO>
F 0

$$$$
=
 OpenBabel11112417423D

 28 32  0  0  1  0  0  0  0  0999 V2000
  193.3710  173.8290  141.6560 C   0  0  0  0  0  0  0  0  0  0  0  0
  190.2530  177.9160  142.5800 O   0  0  0  0  0  0  0  0  0  0  0  0
  195.4490  174.4790  145.7670 C   0  0  0  0  0  1  0  0  0  0  0  0
  192.3070  171.6860  143.1090 C   0  0  0  0  0  3  0  0  0  0  0  0
  193.6050  176.1040  146.0500 C   0  0  2  0  0  3  0  0  0  0  0  0
  193.9300  174.9100  140.9700 O   0  0  0  0  0  0  0  0  0  0  0  0
  188.8900  175.9360  142.0720 O   0  0  0  0  0  0  0  0  0  0  0  0
  189.6110  176.6860  143.1570 S   0  0  0  0  0  0  0  0  0  0  0  0
  188.9810  176.7260  145.7900 C   0  0  2  0  0  3  0  0  0  0  0  0
  190.8520  175.6280  143.9100 C   0  0  2  0  0  3  0  0  0  0  0  0
  197.5090  175.5670  141.8360 C   0  0  0  0  0  1  0  0  0  0  0  0
  193.1650  176.3200  143.6920 C   0  0  1  0  0  3  0  0  0  0  0  0
  190.4610  177.0700  145.9130 C   0  0  0  0  0  2  0  0  0  0  0  0
  188.4600  177.1630  144.4290 C   0  0  0  0  0  2  0  0  0  0  0  0
  196.0700  175.1770  142.1030 C   0  0  1  0  0  3  0  0  0  0  0  0
  192.4240  174.0750  142.6640 C   0  0  0  0  0  0  0  0  0  0  0  0
  194.8320  175.7620  145.2400 C   0  0  2  0  0  3  0  0  0  0  0  0
  188.2030  177.4410  146.8740 C   0  0  0  0  0  1  0  0  0  0  0  0
  195.4210  176.2180  143.0110 C   0  0  0  0  0  2  0  0  0  0  0  0
  191.9050  172.9930  143.3960 C   0  0  0  0  0  3  0  0  0  0  0  0
  193.7790  172.5170  141.3780 C   0  0  0  0  0  3  0  0  0  0  0  0
  193.2430  171.4480  142.1000 C   0  0  0  0  0  3  0  0  0  0  0  0
  195.3330  175.0390  140.7690 C   0  0  0  0  0  2  0  0  0  0  0  0
  192.6290  176.6880  145.0610 C   0  0  1  0  0  3  0  0  0  0  0  0
  194.4180  175.5780  143.8550 N   0  0  2  0  0  0  0  0  0  0  0  0
  191.3150  176.0780  145.2420 N   0  0  2  0  0  0  0  0  0  0  0  0
  193.9250  177.0570  147.0170 O   0  0  0  0  0  1  0  0  0  0  0  0
  192.0630  175.5090  143.0040 C   0  0  1  0  0  3  0  0  0  0  0  0
  1 16  1  0  0  0  0
  2  8  2  0  0  0  0
  4 20  1  0  0  0  0
  5 27  1  1  0  0  0
  6  1  1  0  0  0  0
  7  8  2  0  0  0  0
  8 14  1  0  0  0  0
  9 13  1  0  0  0  0
  9 18  1  1  0  0  0
 10  8  1  6  0  0  0
 10 26  1  0  0  0  0
 11 15  1  0  0  0  0
 12 25  1  0  0  0  0
 12 24  1  0  0  0  0
 14  9  1  0  0  0  0
 15 19  1  0  0  0  0
 16 28  1  0  0  0  0
 16 20  2  0  0  0  0
 17  3  1  0  0  0  0
 17  5  1  0  0  0  0
 19 25  1  0  0  0  0
 21  1  2  0  0  0  0
 21 22  1  0  0  0  0
 22  4  2  0  0  0  0
 23  6  1  0  0  0  0
 23 15  1  0  0  0  0
 24 26  1  0  0  0  0
 24  5  1  0  0  0  0
 25 17  1  0  0  0  0
 26 13  1  0  0  0  0
 28 12  1  0  0  0  0
 28 10  1  0  0  0  0
M  END
>  <MODEL>
7

>  <REMARK>
 VINA RESULT:      -6.7      2.069      3.232
  Name = 
  0 active torsions:
  status: ('A' for Active; 'I' for Inactive)
                            x       y       z     vdW  Elec       q    Type
                         _______ _______ _______ _____ _____    ______ ____

>  <TORSDO>
F 0

$$$$
=
 OpenBabel11112417423D

 28 32  0  0  1  0  0  0  0  0999 V2000
  187.1640  176.8070  143.5890 C   0  0  0  0  0  0  0  0  0  0  0  0
  188.9410  171.8970  143.5790 O   0  0  0  0  0  0  0  0  0  0  0  0
  190.3560  177.9620  146.7690 C   0  0  0  0  0  1  0  0  0  0  0  0
  188.9410  178.2880  142.0130 C   0  0  0  0  0  3  0  0  0  0  0  0
  191.1800  175.6850  146.2620 C   0  0  2  0  0  3  0  0  0  0  0  0
  186.3040  176.0800  144.4150 O   0  0  0  0  0  0  0  0  0  0  0  0
  188.9590  172.7850  141.2890 O   0  0  0  0  0  0  0  0  0  0  0  0
  189.7290  172.6910  142.5760 S   0  0  0  0  0  0  0  0  0  0  0  0
  192.4220  172.7360  142.8560 C   0  0  2  0  0  3  0  0  0  0  0  0
  190.0660  174.3380  143.2080 C   0  0  2  0  0  3  0  0  0  0  0  0
  185.9410  177.5030  147.8540 C   0  0  0  0  0  1  0  0  0  0  0  0
  189.0880  174.9140  145.3510 C   0  0  1  0  0  3  0  0  0  0  0  0
  192.0460  173.2290  144.2500 C   0  0  0  0  0  2  0  0  0  0  0  0
  191.2930  171.8910  142.2860 C   0  0  0  0  0  2  0  0  0  0  0  0
  186.6720  177.1320  146.5820 C   0  0  1  0  0  3  0  0  0  0  0  0
  188.4180  176.2660  143.2610 C   0  0  0  0  0  0  0  0  0  0  0  0
  190.0240  176.4810  146.8180 C   0  0  2  0  0  3  0  0  0  0  0  0
  193.6800  171.8990  142.9360 C   0  0  0  0  0  1  0  0  0  0  0  0
  187.7130  176.0590  146.8880 C   0  0  0  0  0  2  0  0  0  0  0  0
  189.3080  177.0240  142.4790 C   0  0  0  0  0  3  0  0  0  0  0  0
  186.8040  178.0810  143.1270 C   0  0  0  0  0  3  0  0  0  0  0  0
  187.6900  178.8170  142.3360 C   0  0  0  0  0  3  0  0  0  0  0  0
  185.6540  176.6640  145.5390 C   0  0  0  0  0  2  0  0  0  0  0  0
  190.5460  174.5370  145.5170 C   0  0  1  0  0  3  0  0  0  0  0  0
  188.8550  176.2100  145.9920 N   0  0  2  0  0  0  0  0  0  0  0  0
  191.1610  174.4020  144.2000 N   0  0  2  0  0  0  0  0  0  0  0  0
  191.9640  175.1940  147.3060 O   0  0  0  0  0  1  0  0  0  0  0  0
  188.8180  174.9230  143.8430 C   0  0  1  0  0  3  0  0  0  0  0  0
  1  6  1  0  0  0  0
  3 17  1  0  0  0  0
  4 22  2  0  0  0  0
  4 20  1  0  0  0  0
  5 17  1  0  0  0  0
  5 27  1  1  0  0  0
  6 23  1  0  0  0  0
  7  8  2  0  0  0  0
  8  2  2  0  0  0  0
  9 18  1  1  0  0  0
  9 13  1  0  0  0  0
 10  8  1  1  0  0  0
 10 28  1  0  0  0  0
 10 26  1  0  0  0  0
 12 24  1  0  0  0  0
 12 25  1  0  0  0  0
 14  8  1  0  0  0  0
 14  9  1  0  0  0  0
 15 19  1  0  0  0  0
 15 11  1  0  0  0  0
 16  1  1  0  0  0  0
 16 28  1  0  0  0  0
 20 16  2  0  0  0  0
 21  1  2  0  0  0  0
 22 21  1  0  0  0  0
 23 15  1  0  0  0  0
 24  5  1  0  0  0  0
 25 17  1  0  0  0  0
 25 19  1  0  0  0  0
 26 13  1  0  0  0  0
 26 24  1  0  0  0  0
 28 12  1  0  0  0  0
M  END
>  <MODEL>
8

>  <REMARK>
 VINA RESULT:      -6.6      2.463      5.854
  Name = 
  0 active torsions:
  status: ('A' for Active; 'I' for Inactive)
                            x       y       z     vdW  Elec       q    Type
                         _______ _______ _______ _____ _____    ______ ____

>  <TORSDO>
F 0

$$$$
=
 OpenBabel11112417423D

 28 32  0  0  1  0  0  0  0  0999 V2000
  190.1130  174.9020  146.6420 C   0  0  0  0  0  0  0  0  0  0  0  0
  185.2000  175.9330  145.2020 O   0  0  0  0  0  0  0  0  0  0  0  0
  191.6920  177.2400  142.9440 C   0  0  0  0  0  1  0  0  0  0  0  0
  191.0720  177.2230  147.8780 C   0  0  0  0  0  3  0  0  0  0  0  0
  189.3040  177.8540  142.7480 C   0  0  2  0  0  3  0  0  0  0  0  0
  189.6520  173.7600  145.9820 O   0  0  0  0  0  0  0  0  0  0  0  0
  185.5590  176.6890  147.5120 O   0  0  0  0  0  0  0  0  0  0  0  0
  185.6920  177.0630  146.0620 S   0  0  0  0  0  0  0  0  0  0  0  0
  185.5930  179.5600  145.0190 C   0  0  2  0  0  3  0  0  0  0  0  0
  187.4070  177.4360  145.6820 C   0  0  2  0  0  3  0  0  0  0  0  0
  191.8200  172.6770  143.1340 C   0  0  0  0  0  1  0  0  0  0  0  0
  188.5130  176.0030  144.0690 C   0  0  1  0  0  3  0  0  0  0  0  0
  186.4070  178.8920  143.9160 C   0  0  0  0  0  2  0  0  0  0  0  0
  184.7320  178.5240  145.7240 C   0  0  0  0  0  2  0  0  0  0  0  0
  191.1240  173.6670  144.0420 C   0  0  1  0  0  3  0  0  0  0  0  0
  189.4200  176.1130  146.4800 C   0  0  0  0  0  0  0  0  0  0  0  0
  190.2890  176.7100  142.7160 C   0  0  2  0  0  3  0  0  0  0  0  0
  184.7010  180.6240  144.4170 C   0  0  0  0  0  1  0  0  0  0  0  0
  190.0690  174.4310  143.2480 C   0  0  0  0  0  2  0  0  0  0  0  0
  189.9170  177.2740  147.0950 C   0  0  0  0  0  3  0  0  0  0  0  0
  191.2780  174.8560  147.4210 C   0  0  0  0  0  3  0  0  0  0  0  0
  191.7520  176.0140  148.0420 C   0  0  0  0  0  3  0  0  0  0  0  0
  190.5160  172.9160  145.2300 C   0  0  0  0  0  2  0  0  0  0  0  0
  188.0720  177.2960  143.4150 C   0  0  1  0  0  3  0  0  0  0  0  0
  189.9320  175.7820  143.7810 N   0  0  2  0  0  0  0  0  0  0  0  0
  187.6050  178.2200  144.4430 N   0  0  2  0  0  0  0  0  0  0  0  0
  188.9970  178.2520  141.4470 O   0  0  0  0  0  1  0  0  0  0  0  0
  188.2110  176.1540  145.5640 C   0  0  1  0  0  3  0  0  0  0  0  0
  1 21  1  0  0  0  0
  2  8  2  0  0  0  0
  4 22  1  0  0  0  0
  5 27  1  6  0  0  0
  5 24  1  0  0  0  0
  6  1  1  0  0  0  0
  8  7  2  0  0  0  0
  9 18  1  6  0  0  0
  9 14  1  0  0  0  0
 10  8  1  6  0  0  0
 11 15  1  0  0  0  0
 12 28  1  0  0  0  0
 13 26  1  0  0  0  0
 13  9  1  0  0  0  0
 14  8  1  0  0  0  0
 15 23  1  0  0  0  0
 16  1  2  0  0  0  0
 16 20  1  0  0  0  0
 17  5  1  0  0  0  0
 17  3  1  0  0  0  0
 17 25  1  0  0  0  0
 19 25  1  0  0  0  0
 19 15  1  0  0  0  0
 20  4  2  0  0  0  0
 21 22  2  0  0  0  0
 23  6  1  0  0  0  0
 24 12  1  0  0  0  0
 24 26  1  0  0  0  0
 25 12  1  0  0  0  0
 26 10  1  0  0  0  0
 28 10  1  0  0  0  0
 28 16  1  0  0  0  0
M  END
>  <MODEL>
9

>  <REMARK>
 VINA RESULT:      -6.6      2.267      4.222
  Name = 
  0 active torsions:
  status: ('A' for Active; 'I' for Inactive)
                            x       y       z     vdW  Elec       q    Type
                         _______ _______ _______ _____ _____    ______ ____

>  <TORSDO>
F 0

$$$$
