=
 OpenBabel11112416313D

 32 37  0  0  1  0  0  0  0  0999 V2000
  185.8010  176.7870  146.6840 C   0  0  0  0  0  2  0  0  0  0  0  0
  190.7490  176.0900  144.3990 C   0  0  1  0  0  3  0  0  0  0  0  0
  190.0370  173.6050  140.1270 C   0  0  0  0  0  3  0  0  0  0  0  0
  191.4210  173.5480  139.9490 C   0  0  0  0  0  3  0  0  0  0  0  0
  193.1030  175.8470  145.4420 C   0  0  0  0  0  0  0  0  0  0  0  0
  194.5550  175.9390  145.0190 C   0  0  1  0  0  3  0  0  0  0  0  0
  188.8450  177.2040  145.5760 C   0  0  1  0  0  3  0  0  0  0  0  0
  188.5240  176.1940  143.2690 C   0  0  0  0  0  2  0  0  0  0  0  0
  196.1190  175.1260  143.4850 C   0  0  2  0  0  3  0  0  0  0  0  0
  186.5930  177.3640  144.3190 C   0  0  0  0  0  2  0  0  0  0  0  0
  189.5040  174.2000  141.2720 C   0  0  0  0  0  3  0  0  0  0  0  0
  189.7480  175.3150  143.5220 C   0  0  1  0  0  3  0  0  0  0  0  0
  190.3470  174.7580  142.2450 C   0  0  0  0  0  0  0  0  0  0  0  0
  192.6650  175.2970  143.0870 C   0  0  2  0  0  3  0  0  0  0  0  0
  196.6190  174.7940  144.8820 C   0  0  0  0  0  2  0  0  0  0  0  0
  187.1500  176.5420  147.3820 C   0  0  0  0  0  2  0  0  0  0  0  0
  187.8500  176.5340  144.5970 C   0  0  2  0  0  3  0  0  0  0  0  0
  195.4330  174.9850  145.7900 C   0  0  0  0  0  2  0  0  0  0  0  0
  188.2540  177.5170  146.9590 C   0  0  0  0  0  2  0  0  0  0  0  0
  185.8490  177.8420  145.5700 C   0  0  1  0  0  3  0  0  0  0  0  0
  192.2730  174.0760  140.9210 C   0  0  0  0  0  3  0  0  0  0  0  0
  191.7480  174.6530  142.0850 C   0  0  0  0  0  0  0  0  0  0  0  0
  193.9270  174.6930  143.1470 O   0  0  0  0  0  0  0  0  0  0  0  0
  190.0910  176.3370  145.7540 C   0  0  0  0  0  2  0  0  0  0  0  0
  192.7970  176.1450  146.5860 O   0  0  0  0  0  0  0  0  0  0  0  0
  197.0410  176.1380  142.8360 C   0  0  0  0  0  1  0  0  0  0  0  0
  192.0620  175.3040  144.4860 C   0  0  2  0  0  3  0  0  0  0  0  0
  194.7690  175.6760  143.5830 N   0  0  1  0  0  0  0  0  0  0  0  0
  184.4450  178.2720  145.1790 C   0  0  0  0  0  2  0  0  0  0  0  0
  184.4720  179.1170  143.9500 C   0  0  0  0  0  0  0  0  0  0  0  0
  183.7780  178.7160  142.8170 O   0  0  0  0  0  0  0  0  0  0  0  0
  185.0980  180.2080  143.9510 O   0  0  0  0  0  1  0  0  0  0  0  0
  1 16  1  0  0  0  0
  2 27  1  0  0  0  0
  2 24  1  1  0  0  0
  3 11  1  0  0  0  0
  4  3  2  0  0  0  0
  4 21  1  0  0  0  0
  5 25  2  0  0  0  0
  6  5  1  0  0  0  0
  6 18  1  1  0  0  0
  7 24  1  1  0  0  0
  7 19  1  0  0  0  0
  9 26  1  1  0  0  0
  9 28  1  0  0  0  0
  9 15  1  0  0  0  0
 10 17  1  0  0  0  0
 10 20  1  0  0  0  0
 11 13  2  0  0  0  0
 12  8  1  6  0  0  0
 12  2  1  0  0  0  0
 13 12  1  0  0  0  0
 14 22  1  6  0  0  0
 14 23  1  0  0  0  0
 14 27  1  0  0  0  0
 15 18  1  0  0  0  0
 17  8  1  6  0  0  0
 17  7  1  0  0  0  0
 19 16  1  0  0  0  0
 20 29  1  6  0  0  0
 20  1  1  0  0  0  0
 21 22  2  0  0  0  0
 22 13  1  0  0  0  0
 27  5  1  1  0  0  0
 28 23  1  1  0  0  0
 28  6  1  0  0  0  0
 30 32  1  0  0  0  0
 30 29  1  0  0  0  0
 31 30  2  0  0  0  0
M  END
>  <MODEL>
1

>  <REMARK>
 VINA RESULT:      -8.9      0.000      0.000
  Name = 
  2 active torsions:
  status: ('A' for Active; 'I' for Inactive)
    1  A    between atoms: C_20  and  C_29
    2  A    between atoms: C_29  and  C_30
                            x       y       z     vdW  Elec       q    Type
                         _______ _______ _______ _____ _____    ______ ____

>  <TORSDO>
F 2

$$$$
=
 OpenBabel11112416313D

 32 37  0  0  1  0  0  0  0  0999 V2000
  186.4810  178.5800  142.8440 C   0  0  0  0  0  2  0  0  0  0  0  0
  190.0260  174.4980  143.8270 C   0  0  1  0  0  3  0  0  0  0  0  0
  193.8980  176.4960  146.2680 C   0  0  0  0  0  3  0  0  0  0  0  0
  194.5430  175.2580  146.2220 C   0  0  0  0  0  3  0  0  0  0  0  0
  190.5400  172.3210  142.5300 C   0  0  0  0  0  0  0  0  0  0  0  0
  191.2230  170.9880  142.7610 C   0  0  1  0  0  3  0  0  0  0  0  0
  187.8550  175.7220  143.6300 C   0  0  1  0  0  3  0  0  0  0  0  0
  189.7130  176.6180  145.1110 C   0  0  0  0  0  2  0  0  0  0  0  0
  193.2230  169.9990  143.4570 C   0  0  2  0  0  3  0  0  0  0  0  0
  187.5550  177.8580  145.0540 C   0  0  0  0  0  2  0  0  0  0  0  0
  192.6480  176.6540  145.6650 C   0  0  0  0  0  3  0  0  0  0  0  0
  190.7110  175.7960  144.2970 C   0  0  1  0  0  3  0  0  0  0  0  0
  192.0230  175.5750  145.0230 C   0  0  0  0  0  0  0  0  0  0  0  0
  192.0240  173.1560  144.3020 C   0  0  2  0  0  3  0  0  0  0  0  0
  192.9380  169.5290  142.0400 C   0  0  0  0  0  2  0  0  0  0  0  0
  186.8060  177.3610  141.9610 C   0  0  0  0  0  2  0  0  0  0  0  0
  188.5140  176.9850  144.2390 C   0  0  2  0  0  3  0  0  0  0  0  0
  191.8830  170.4640  141.5100 C   0  0  0  0  0  2  0  0  0  0  0  0
  186.6790  176.0180  142.6870 C   0  0  0  0  0  2  0  0  0  0  0  0
  186.2630  178.2450  144.3260 C   0  0  1  0  0  3  0  0  0  0  0  0
  193.9460  174.1820  145.5640 C   0  0  0  0  0  3  0  0  0  0  0  0
  192.7030  174.3380  144.9340 C   0  0  0  0  0  0  0  0  0  0  0  0
  192.9250  172.2140  143.7880 O   0  0  0  0  0  0  0  0  0  0  0  0
  188.8910  174.8830  142.8820 C   0  0  0  0  0  2  0  0  0  0  0  0
  189.6040  172.3810  141.7490 O   0  0  0  0  0  0  0  0  0  0  0  0
  193.1180  168.8300  144.4160 C   0  0  0  0  0  1  0  0  0  0  0  0
  191.0710  173.5760  143.1900 C   0  0  2  0  0  3  0  0  0  0  0  0
  192.2500  171.0270  143.8200 N   0  0  1  0  0  0  0  0  0  0  0  0
  185.6160  179.4150  145.0490 C   0  0  0  0  0  2  0  0  0  0  0  0
  185.0960  178.9920  146.3820 C   0  0  0  0  0  0  0  0  0  0  0  0
  185.7520  179.3860  147.5400 O   0  0  0  0  0  1  0  0  0  0  0  0
  184.0450  178.3040  146.4570 O   0  0  0  0  0  0  0  0  0  0  0  0
  1 20  1  0  0  0  0
  2 24  1  6  0  0  0
  2 12  1  0  0  0  0
  4  3  1  0  0  0  0
  5  6  1  0  0  0  0
  6 18  1  6  0  0  0
  6 28  1  0  0  0  0
  7 19  1  6  0  0  0
  7 17  1  0  0  0  0
  9 28  1  0  0  0  0
  9 26  1  1  0  0  0
 11  3  2  0  0  0  0
 12 13  1  0  0  0  0
 12  8  1  1  0  0  0
 13 11  1  0  0  0  0
 14 23  1  6  0  0  0
 14 22  1  0  0  0  0
 15  9  1  0  0  0  0
 16 19  1  0  0  0  0
 16  1  1  0  0  0  0
 17 10  1  1  0  0  0
 17  8  1  0  0  0  0
 18 15  1  0  0  0  0
 20 29  1  1  0  0  0
 20 10  1  0  0  0  0
 21  4  2  0  0  0  0
 22 13  2  0  0  0  0
 22 21  1  0  0  0  0
 24  7  1  0  0  0  0
 25  5  2  0  0  0  0
 27  5  1  1  0  0  0
 27  2  1  0  0  0  0
 27 14  1  0  0  0  0
 28 23  1  6  0  0  0
 29 30  1  0  0  0  0
 30 32  2  0  0  0  0
 30 31  1  0  0  0  0
M  END
>  <MODEL>
2

>  <REMARK>
 VINA RESULT:      -8.8      2.776      4.726
  Name = 
  2 active torsions:
  status: ('A' for Active; 'I' for Inactive)
    1  A    between atoms: C_20  and  C_29
    2  A    between atoms: C_29  and  C_30
                            x       y       z     vdW  Elec       q    Type
                         _______ _______ _______ _____ _____    ______ ____

>  <TORSDO>
F 2

$$$$
=
 OpenBabel11112416313D

 32 37  0  0  1  0  0  0  0  0999 V2000
  185.4670  179.1780  144.2150 C   0  0  0  0  0  2  0  0  0  0  0  0
  188.7210  174.9910  142.7750 C   0  0  1  0  0  3  0  0  0  0  0  0
  192.4280  174.8190  146.1160 C   0  0  0  0  0  3  0  0  0  0  0  0
  193.0210  173.7910  145.3810 C   0  0  0  0  0  3  0  0  0  0  0  0
  189.2590  173.9490  140.4700 C   0  0  0  0  0  0  0  0  0  0  0  0
  189.8580  172.6790  139.9030 C   0  0  1  0  0  3  0  0  0  0  0  0
  186.6340  176.2910  143.2300 C   0  0  1  0  0  3  0  0  0  0  0  0
  188.3810  175.9760  145.0450 C   0  0  0  0  0  2  0  0  0  0  0  0
  191.7380  171.2920  139.9800 C   0  0  2  0  0  3  0  0  0  0  0  0
  186.2940  177.2060  145.6230 C   0  0  0  0  0  2  0  0  0  0  0  0
  191.2490  175.4140  145.6610 C   0  0  0  0  0  3  0  0  0  0  0  0
  189.4140  175.7000  143.9540 C   0  0  1  0  0  3  0  0  0  0  0  0
  190.6410  174.9770  144.4750 C   0  0  0  0  0  0  0  0  0  0  0  0
  190.6050  173.4500  142.4650 C   0  0  2  0  0  3  0  0  0  0  0  0
  191.5670  171.7690  138.5470 C   0  0  0  0  0  2  0  0  0  0  0  0
  185.8200  178.6840  142.8010 C   0  0  0  0  0  2  0  0  0  0  0  0
  187.2870  176.8920  144.4990 C   0  0  2  0  0  3  0  0  0  0  0  0
  190.6090  172.9290  138.6190 C   0  0  0  0  0  2  0  0  0  0  0  0
  185.5660  177.1880  142.5860 C   0  0  0  0  0  2  0  0  0  0  0  0
  185.0950  178.0600  145.2000 C   0  0  1  0  0  3  0  0  0  0  0  0
  192.4410  173.3630  144.1850 C   0  0  0  0  0  3  0  0  0  0  0  0
  191.2720  173.9710  143.7070 C   0  0  0  0  0  0  0  0  0  0  0  0
  191.5070  172.9100  141.5400 O   0  0  0  0  0  0  0  0  0  0  0  0
  187.6980  175.9580  142.1840 C   0  0  0  0  0  2  0  0  0  0  0  0
  188.4050  174.5410  139.8300 O   0  0  0  0  0  0  0  0  0  0  0  0
  191.4920  169.7980  140.0560 C   0  0  0  0  0  1  0  0  0  0  0  0
  189.7800  174.5260  141.7700 C   0  0  2  0  0  3  0  0  0  0  0  0
  190.7810  171.9960  140.8310 N   0  0  1  0  0  0  0  0  0  0  0  0
  184.4350  178.6390  146.4410 C   0  0  0  0  0  2  0  0  0  0  0  0
  185.4110  178.7300  147.5660 C   0  0  0  0  0  0  0  0  0  0  0  0
  185.6260  177.6320  148.3880 O   0  0  0  0  0  1  0  0  0  0  0  0
  186.0610  179.7910  147.7500 O   0  0  0  0  0  0  0  0  0  0  0  0
  1 20  1  0  0  0  0
  2 24  1  6  0  0  0
  2 12  1  0  0  0  0
  4  3  2  0  0  0  0
  6 18  1  6  0  0  0
  6  5  1  0  0  0  0
  6 28  1  0  0  0  0
  7 24  1  6  0  0  0
  7 17  1  0  0  0  0
  9 26  1  6  0  0  0
  9 28  1  0  0  0  0
 11  3  1  0  0  0  0
 12 13  1  0  0  0  0
 12  8  1  1  0  0  0
 13 11  2  0  0  0  0
 14 23  1  6  0  0  0
 14 22  1  0  0  0  0
 15 18  1  0  0  0  0
 15  9  1  0  0  0  0
 16  1  1  0  0  0  0
 17  8  1  1  0  0  0
 17 10  1  0  0  0  0
 19 16  1  0  0  0  0
 19  7  1  0  0  0  0
 20 10  1  0  0  0  0
 20 29  1  1  0  0  0
 21  4  1  0  0  0  0
 22 21  2  0  0  0  0
 22 13  1  0  0  0  0
 25  5  2  0  0  0  0
 27  5  1  6  0  0  0
 27 14  1  0  0  0  0
 27  2  1  0  0  0  0
 28 23  1  1  0  0  0
 29 30  1  0  0  0  0
 30 32  2  0  0  0  0
 30 31  1  0  0  0  0
M  END
>  <MODEL>
3

>  <REMARK>
 VINA RESULT:      -8.6      2.782      5.043
  Name = 
  2 active torsions:
  status: ('A' for Active; 'I' for Inactive)
    1  A    between atoms: C_20  and  C_29
    2  A    between atoms: C_29  and  C_30
                            x       y       z     vdW  Elec       q    Type
                         _______ _______ _______ _____ _____    ______ ____

>  <TORSDO>
F 2

$$$$
=
 OpenBabel11112416313D

 32 37  0  0  1  0  0  0  0  0999 V2000
  186.7870  176.7590  146.6570 C   0  0  0  0  0  2  0  0  0  0  0  0
  191.1190  175.8610  143.3980 C   0  0  1  0  0  3  0  0  0  0  0  0
  189.6610  172.5960  139.9120 C   0  0  0  0  0  3  0  0  0  0  0  0
  190.9670  172.5670  139.4180 C   0  0  0  0  0  3  0  0  0  0  0  0
  193.6620  175.9160  143.8680 C   0  0  0  0  0  0  0  0  0  0  0  0
  194.9650  175.9890  143.0980 C   0  0  1  0  0  3  0  0  0  0  0  0
  189.4480  177.0920  144.7920 C   0  0  1  0  0  3  0  0  0  0  0  0
  188.6940  175.6580  142.8370 C   0  0  0  0  0  2  0  0  0  0  0  0
  196.1980  174.9730  141.3930 C   0  0  2  0  0  3  0  0  0  0  0  0
  186.9630  176.9190  144.1070 C   0  0  0  0  0  2  0  0  0  0  0  0
  189.3560  173.3710  141.0330 C   0  0  0  0  0  3  0  0  0  0  0  0
  190.0140  174.8940  142.9340 C   0  0  1  0  0  3  0  0  0  0  0  0
  190.3490  174.1360  141.6640 C   0  0  0  0  0  0  0  0  0  0  0  0
  192.7430  174.9200  141.8180 C   0  0  2  0  0  3  0  0  0  0  0  0
  197.0320  174.9290  142.6640 C   0  0  0  0  0  2  0  0  0  0  0  0
  188.2770  176.7050  147.0390 C   0  0  0  0  0  2  0  0  0  0  0  0
  188.3160  176.2100  144.2110 C   0  0  2  0  0  3  0  0  0  0  0  0
  196.0740  175.2340  143.7850 C   0  0  0  0  0  2  0  0  0  0  0  0
  189.1660  177.6310  146.2020 C   0  0  0  0  0  2  0  0  0  0  0  0
  186.4880  177.5900  145.4000 C   0  0  1  0  0  3  0  0  0  0  0  0
  191.9710  173.3020  140.0510 C   0  0  0  0  0  3  0  0  0  0  0  0
  191.6800  174.0620  141.1920 C   0  0  0  0  0  0  0  0  0  0  0  0
  194.0320  174.3910  141.6730 O   0  0  0  0  0  0  0  0  0  0  0  0
  190.7720  176.3270  144.8100 C   0  0  0  0  0  2  0  0  0  0  0  0
  193.6020  176.4090  144.9830 O   0  0  0  0  0  0  0  0  0  0  0  0
  196.8570  175.8850  140.3780 C   0  0  0  0  0  1  0  0  0  0  0  0
  192.4790  175.1610  143.2990 C   0  0  2  0  0  3  0  0  0  0  0  0
  194.8650  175.4730  141.7190 N   0  0  1  0  0  0  0  0  0  0  0  0
  185.0000  177.8790  145.2930 C   0  0  0  0  0  2  0  0  0  0  0  0
  184.7250  178.8300  144.1770 C   0  0  0  0  0  0  0  0  0  0  0  0
  185.3580  180.0650  144.1450 O   0  0  0  0  0  1  0  0  0  0  0  0
  183.9430  178.5000  143.2480 O   0  0  0  0  0  0  0  0  0  0  0  0
  1 16  1  0  0  0  0
  2 24  1  1  0  0  0
  3 11  1  0  0  0  0
  4  3  2  0  0  0  0
  4 21  1  0  0  0  0
  5 25  2  0  0  0  0
  6 18  1  1  0  0  0
  6  5  1  0  0  0  0
  7 24  1  1  0  0  0
  7 19  1  0  0  0  0
  9 26  1  6  0  0  0
  9 28  1  0  0  0  0
  9 15  1  0  0  0  0
 10 17  1  0  0  0  0
 10 20  1  0  0  0  0
 11 13  2  0  0  0  0
 12  8  1  6  0  0  0
 12  2  1  0  0  0  0
 13 12  1  0  0  0  0
 14 22  1  1  0  0  0
 14 27  1  0  0  0  0
 15 18  1  0  0  0  0
 17  8  1  6  0  0  0
 17  7  1  0  0  0  0
 19 16  1  0  0  0  0
 20 29  1  6  0  0  0
 20  1  1  0  0  0  0
 21 22  2  0  0  0  0
 22 13  1  0  0  0  0
 23 14  1  0  0  0  0
 27  2  1  0  0  0  0
 27  5  1  6  0  0  0
 28 23  1  1  0  0  0
 28  6  1  0  0  0  0
 30 29  1  0  0  0  0
 31 30  1  0  0  0  0
 32 30  2  0  0  0  0
M  END
>  <MODEL>
4

>  <REMARK>
 VINA RESULT:      -8.3      1.109      1.450
  Name = 
  2 active torsions:
  status: ('A' for Active; 'I' for Inactive)
    1  A    between atoms: C_20  and  C_29
    2  A    between atoms: C_29  and  C_30
                            x       y       z     vdW  Elec       q    Type
                         _______ _______ _______ _____ _____    ______ ____

>  <TORSDO>
F 2

$$$$
=
 OpenBabel11112416313D

 32 37  0  0  1  0  0  0  0  0999 V2000
  184.4410  177.8920  144.4600 C   0  0  0  0  0  2  0  0  0  0  0  0
  189.6030  176.0980  143.8830 C   0  0  1  0  0  3  0  0  0  0  0  0
  189.3570  171.7030  141.5260 C   0  0  0  0  0  3  0  0  0  0  0  0
  190.7390  171.5660  141.6730 C   0  0  0  0  0  3  0  0  0  0  0  0
  191.7190  176.4640  145.3250 C   0  0  0  0  0  0  0  0  0  0  0  0
  193.2220  176.3200  145.2040 C   0  0  1  0  0  3  0  0  0  0  0  0
  187.6520  177.6620  143.9050 C   0  0  1  0  0  3  0  0  0  0  0  0
  187.6140  175.5680  142.4680 C   0  0  0  0  0  2  0  0  0  0  0  0
  194.9280  174.8170  144.6620 C   0  0  2  0  0  3  0  0  0  0  0  0
  185.6630  177.1100  142.3500 C   0  0  0  0  0  2  0  0  0  0  0  0
  188.7050  172.8180  142.0570 C   0  0  0  0  0  3  0  0  0  0  0  0
  188.6870  174.9690  143.3750 C   0  0  1  0  0  3  0  0  0  0  0  0
  189.4280  173.8150  142.7280 C   0  0  0  0  0  0  0  0  0  0  0  0
  191.6190  174.7320  143.5830 C   0  0  2  0  0  3  0  0  0  0  0  0
  195.1570  175.2910  146.0890 C   0  0  0  0  0  2  0  0  0  0  0  0
  185.6280  178.0660  145.4250 C   0  0  0  0  0  2  0  0  0  0  0  0
  186.7690  176.5660  143.2580 C   0  0  2  0  0  3  0  0  0  0  0  0
  193.8630  175.9340  146.5130 C   0  0  0  0  0  2  0  0  0  0  0  0
  186.8770  178.6660  144.7700 C   0  0  0  0  0  2  0  0  0  0  0  0
  184.7760  178.1830  142.9900 C   0  0  1  0  0  3  0  0  0  0  0  0
  191.4680  172.5370  142.3610 C   0  0  0  0  0  3  0  0  0  0  0  0
  190.8190  173.6470  142.9190 C   0  0  0  0  0  0  0  0  0  0  0  0
  192.7890  174.2600  144.1930 O   0  0  0  0  0  0  0  0  0  0  0  0
  188.7600  177.0310  144.7490 C   0  0  0  0  0  2  0  0  0  0  0  0
  191.2610  177.3290  146.0540 O   0  0  0  0  0  0  0  0  0  0  0  0
  196.0400  175.3260  143.7670 C   0  0  0  0  0  1  0  0  0  0  0  0
  190.7990  175.4880  144.6220 C   0  0  2  0  0  3  0  0  0  0  0  0
  193.6410  175.3270  144.1950 N   0  0  1  0  0  0  0  0  0  0  0  0
  183.5040  178.3300  142.1710 C   0  0  0  0  0  2  0  0  0  0  0  0
  183.8060  178.2910  140.7110 C   0  0  0  0  0  0  0  0  0  0  0  0
  183.0090  177.5400  139.8570 O   0  0  0  0  0  0  0  0  0  0  0  0
  184.7640  178.9630  140.2490 O   0  0  0  0  0  1  0  0  0  0  0  0
  1 16  1  0  0  0  0
  2 27  1  0  0  0  0
  2 24  1  1  0  0  0
  3  4  2  0  0  0  0
  3 11  1  0  0  0  0
  4 21  1  0  0  0  0
  5 25  2  0  0  0  0
  6  5  1  0  0  0  0
  6 18  1  1  0  0  0
  7 24  1  1  0  0  0
  7 19  1  0  0  0  0
  8 17  1  0  0  0  0
  9 26  1  6  0  0  0
  9 15  1  0  0  0  0
 10 20  1  0  0  0  0
 11 13  2  0  0  0  0
 12  8  1  6  0  0  0
 12  2  1  0  0  0  0
 13 22  1  0  0  0  0
 13 12  1  0  0  0  0
 14 22  1  1  0  0  0
 14 23  1  0  0  0  0
 14 27  1  0  0  0  0
 15 18  1  0  0  0  0
 17 10  1  6  0  0  0
 17  7  1  0  0  0  0
 19 16  1  0  0  0  0
 20 29  1  6  0  0  0
 20  1  1  0  0  0  0
 21 22  2  0  0  0  0
 27  5  1  6  0  0  0
 28 23  1  1  0  0  0
 28  9  1  0  0  0  0
 28  6  1  0  0  0  0
 30 29  1  0  0  0  0
 31 30  2  0  0  0  0
 32 30  1  0  0  0  0
M  END
>  <MODEL>
5

>  <REMARK>
 VINA RESULT:      -8.0      1.709      2.205
  Name = 
  2 active torsions:
  status: ('A' for Active; 'I' for Inactive)
    1  A    between atoms: C_20  and  C_29
    2  A    between atoms: C_29  and  C_30
                            x       y       z     vdW  Elec       q    Type
                         _______ _______ _______ _____ _____    ______ ____

>  <TORSDO>
F 2

$$$$
=
 OpenBabel11112416313D

 32 37  0  0  1  0  0  0  0  0999 V2000
  186.9950  178.3330  144.6690 C   0  0  0  0  0  2  0  0  0  0  0  0
  189.0280  174.1850  141.6930 C   0  0  1  0  0  3  0  0  0  0  0  0
  193.4620  173.0170  143.6690 C   0  0  0  0  0  3  0  0  0  0  0  0
  193.6560  172.0900  142.6430 C   0  0  0  0  0  3  0  0  0  0  0  0
  188.7210  173.5450  139.2060 C   0  0  0  0  0  0  0  0  0  0  0  0
  188.9340  172.3500  138.2990 C   0  0  1  0  0  3  0  0  0  0  0  0
  187.3800  175.5800  142.9540 C   0  0  1  0  0  3  0  0  0  0  0  0
  189.5030  174.7560  144.0780 C   0  0  0  0  0  2  0  0  0  0  0  0
  190.5230  170.7910  137.5880 C   0  0  2  0  0  3  0  0  0  0  0  0
  187.8800  176.0580  145.4440 C   0  0  0  0  0  2  0  0  0  0  0  0
  192.3070  173.8020  143.6920 C   0  0  0  0  0  3  0  0  0  0  0  0
  190.1280  174.5870  142.6940 C   0  0  1  0  0  3  0  0  0  0  0  0
  191.3270  173.6590  142.6990 C   0  0  0  0  0  0  0  0  0  0  0  0
  190.4870  172.5480  140.5940 C   0  0  2  0  0  3  0  0  0  0  0  0
  190.0260  171.5440  136.3650 C   0  0  0  0  0  2  0  0  0  0  0  0
  186.8510  178.0800  143.1580 C   0  0  0  0  0  2  0  0  0  0  0  0
  188.4510  175.8630  144.0370 C   0  0  2  0  0  3  0  0  0  0  0  0
  189.3160  172.7600  136.8990 C   0  0  0  0  0  2  0  0  0  0  0  0
  186.3230  176.6840  142.8100 C   0  0  0  0  0  2  0  0  0  0  0  0
  186.7540  177.0930  145.5420 C   0  0  1  0  0  3  0  0  0  0  0  0
  192.7020  171.9560  141.6330 C   0  0  0  0  0  3  0  0  0  0  0  0
  191.5520  172.7560  141.6340 C   0  0  0  0  0  0  0  0  0  0  0  0
  190.9960  172.1030  139.3670 O   0  0  0  0  0  0  0  0  0  0  0  0
  188.0380  175.3440  141.5950 C   0  0  0  0  0  2  0  0  0  0  0  0
  187.8200  174.3290  138.9540 O   0  0  0  0  0  0  0  0  0  0  0  0
  190.0850  169.3420  137.5130 C   0  0  0  0  0  1  0  0  0  0  0  0
  189.6730  173.8120  140.3530 C   0  0  2  0  0  3  0  0  0  0  0  0
  189.9680  171.4160  138.7860 N   0  0  1  0  0  0  0  0  0  0  0  0
  186.5710  177.4930  146.9970 C   0  0  0  0  0  2  0  0  0  0  0  0
  185.5900  178.6090  147.1210 C   0  0  0  0  0  0  0  0  0  0  0  0
  184.2800  178.4320  146.6960 O   0  0  0  0  0  0  0  0  0  0  0  0
  185.9410  179.7010  147.6380 O   0  0  0  0  0  1  0  0  0  0  0  0
  1 20  1  0  0  0  0
  2 24  1  6  0  0  0
  2 12  1  0  0  0  0
  3 11  1  0  0  0  0
  4  3  2  0  0  0  0
  6 18  1  6  0  0  0
  6 28  1  0  0  0  0
  6  5  1  0  0  0  0
  7 24  1  6  0  0  0
  7 17  1  0  0  0  0
  9 26  1  6  0  0  0
  9 28  1  0  0  0  0
 10 20  1  0  0  0  0
 12 13  1  0  0  0  0
 12  8  1  1  0  0  0
 13 11  2  0  0  0  0
 14 23  1  6  0  0  0
 14 22  1  0  0  0  0
 15 18  1  0  0  0  0
 15  9  1  0  0  0  0
 16  1  1  0  0  0  0
 17  8  1  1  0  0  0
 17 10  1  0  0  0  0
 19  7  1  0  0  0  0
 19 16  1  0  0  0  0
 20 29  1  1  0  0  0
 21 22  2  0  0  0  0
 21  4  1  0  0  0  0
 22 13  1  0  0  0  0
 25  5  2  0  0  0  0
 27  5  1  6  0  0  0
 27 14  1  0  0  0  0
 27  2  1  0  0  0  0
 28 23  1  6  0  0  0
 29 30  1  0  0  0  0
 30 32  1  0  0  0  0
 31 30  2  0  0  0  0
M  END
>  <MODEL>
6

>  <REMARK>
 VINA RESULT:      -8.0      3.108      5.746
  Name = 
  2 active torsions:
  status: ('A' for Active; 'I' for Inactive)
    1  A    between atoms: C_20  and  C_29
    2  A    between atoms: C_29  and  C_30
                            x       y       z     vdW  Elec       q    Type
                         _______ _______ _______ _____ _____    ______ ____

>  <TORSDO>
F 2

$$$$
=
 OpenBabel11112416313D

 32 37  0  0  1  0  0  0  0  0999 V2000
  192.3330  172.1140  141.3050 C   0  0  0  0  0  2  0  0  0  0  0  0
  188.3050  175.2120  143.3950 C   0  0  1  0  0  3  0  0  0  0  0  0
  186.1600  177.5840  139.5590 C   0  0  0  0  0  3  0  0  0  0  0  0
  185.3490  178.2750  140.4620 C   0  0  0  0  0  3  0  0  0  0  0  0
  188.0420  176.3640  145.6950 C   0  0  0  0  0  0  0  0  0  0  0  0
  186.9510  176.9830  146.5450 C   0  0  1  0  0  3  0  0  0  0  0  0
  189.7910  173.2360  143.0220 C   0  0  1  0  0  3  0  0  0  0  0  0
  188.4830  174.2510  141.0960 C   0  0  0  0  0  2  0  0  0  0  0  0
  185.2450  178.5800  146.5410 C   0  0  2  0  0  3  0  0  0  0  0  0
  189.8630  172.2280  140.6430 C   0  0  0  0  0  2  0  0  0  0  0  0
  187.1210  176.6860  140.0290 C   0  0  0  0  0  3  0  0  0  0  0  0
  188.3840  175.5500  141.8940 C   0  0  1  0  0  3  0  0  0  0  0  0
  187.2730  176.4580  141.4050 C   0  0  0  0  0  0  0  0  0  0  0  0
  186.5930  176.9240  143.7910 C   0  0  2  0  0  3  0  0  0  0  0  0
  186.2180  178.9380  147.6520 C   0  0  0  0  0  2  0  0  0  0  0  0
  192.2990  172.8580  142.6520 C   0  0  0  0  0  2  0  0  0  0  0  0
  189.7500  173.4960  141.4950 C   0  0  2  0  0  3  0  0  0  0  0  0
  187.4610  178.1340  147.3750 C   0  0  0  0  0  2  0  0  0  0  0  0
  191.0690  172.5370  143.5070 C   0  0  0  0  0  2  0  0  0  0  0  0
  191.0540  171.3280  140.9860 C   0  0  1  0  0  3  0  0  0  0  0  0
  185.5060  178.0780  141.8350 C   0  0  0  0  0  3  0  0  0  0  0  0
  186.4850  177.1980  142.3170 C   0  0  0  0  0  0  0  0  0  0  0  0
  186.2240  178.0190  144.5830 O   0  0  0  0  0  0  0  0  0  0  0  0
  189.6180  174.5440  143.7950 C   0  0  0  0  0  2  0  0  0  0  0  0
  188.9940  175.8320  146.2440 O   0  0  0  0  0  0  0  0  0  0  0  0
  183.9130  178.1700  147.1370 C   0  0  0  0  0  1  0  0  0  0  0  0
  187.9980  176.4880  144.1860 C   0  0  2  0  0  3  0  0  0  0  0  0
  185.8010  177.4760  145.7620 N   0  0  1  0  0  0  0  0  0  0  0  0
  191.2930  170.3620  139.8380 C   0  0  0  0  0  2  0  0  0  0  0  0
  190.8400  168.9870  140.1990 C   0  0  0  0  0  0  0  0  0  0  0  0
  190.7520  168.6140  141.5330 O   0  0  0  0  0  1  0  0  0  0  0  0
  190.5070  168.1770  139.2960 O   0  0  0  0  0  0  0  0  0  0  0  0
  1 16  1  0  0  0  0
  2 24  1  1  0  0  0
  2 27  1  0  0  0  0
  3 11  2  0  0  0  0
  3  4  1  0  0  0  0
  4 21  2  0  0  0  0
  5 25  2  0  0  0  0
  5  6  1  0  0  0  0
  6 18  1  6  0  0  0
  7 19  1  6  0  0  0
  7 24  1  0  0  0  0
  8 17  1  0  0  0  0
  9 26  1  1  0  0  0
  9 15  1  0  0  0  0
 10 20  1  0  0  0  0
 11 13  1  0  0  0  0
 12  8  1  6  0  0  0
 12  2  1  0  0  0  0
 13 12  1  0  0  0  0
 13 22  2  0  0  0  0
 14 22  1  6  0  0  0
 14 27  1  0  0  0  0
 14 23  1  0  0  0  0
 16 19  1  0  0  0  0
 17 10  1  6  0  0  0
 17  7  1  0  0  0  0
 18 15  1  0  0  0  0
 20 29  1  6  0  0  0
 20  1  1  0  0  0  0
 21 22  1  0  0  0  0
 27  5  1  1  0  0  0
 28 23  1  6  0  0  0
 28  9  1  0  0  0  0
 28  6  1  0  0  0  0
 29 30  1  0  0  0  0
 30 31  1  0  0  0  0
 32 30  2  0  0  0  0
M  END
>  <MODEL>
7

>  <REMARK>
 VINA RESULT:      -7.9      3.404      8.172
  Name = 
  2 active torsions:
  status: ('A' for Active; 'I' for Inactive)
    1  A    between atoms: C_20  and  C_29
    2  A    between atoms: C_29  and  C_30
                            x       y       z     vdW  Elec       q    Type
                         _______ _______ _______ _____ _____    ______ ____

>  <TORSDO>
F 2

$$$$
=
 OpenBabel11112416313D

 32 37  0  0  1  0  0  0  0  0999 V2000
  189.7450  172.4460  139.3500 C   0  0  0  0  0  2  0  0  0  0  0  0
  188.6820  175.7330  143.6230 C   0  0  1  0  0  3  0  0  0  0  0  0
  192.2440  174.8940  147.0200 C   0  0  0  0  0  3  0  0  0  0  0  0
  191.5900  175.7630  147.8960 C   0  0  0  0  0  3  0  0  0  0  0  0
  186.4600  176.6690  144.5570 C   0  0  0  0  0  0  0  0  0  0  0  0
  185.9830  177.7660  145.4880 C   0  0  1  0  0  3  0  0  0  0  0  0
  188.9550  174.9790  141.2540 C   0  0  1  0  0  3  0  0  0  0  0  0
  190.8840  174.8040  142.8970 C   0  0  0  0  0  2  0  0  0  0  0  0
  186.2330  178.6420  147.6400 C   0  0  2  0  0  3  0  0  0  0  0  0
  191.2820  174.1150  140.5370 C   0  0  0  0  0  2  0  0  0  0  0  0
  191.6940  174.6220  145.7660 C   0  0  0  0  0  3  0  0  0  0  0  0
  189.8690  174.8440  144.0380 C   0  0  1  0  0  3  0  0  0  0  0  0
  190.4930  175.2260  145.3660 C   0  0  0  0  0  0  0  0  0  0  0  0
  188.5510  176.7670  145.8440 C   0  0  2  0  0  3  0  0  0  0  0  0
  184.7730  178.2590  147.4570 C   0  0  0  0  0  2  0  0  0  0  0  0
  188.3770  172.8740  139.9100 C   0  0  0  0  0  2  0  0  0  0  0  0
  190.2350  174.2020  141.6510 C   0  0  2  0  0  3  0  0  0  0  0  0
  184.7380  177.3710  146.2410 C   0  0  0  0  0  2  0  0  0  0  0  0
  188.2100  174.3910  140.0460 C   0  0  0  0  0  2  0  0  0  0  0  0
  190.7520  173.5950  139.1970 C   0  0  1  0  0  3  0  0  0  0  0  0
  190.3800  176.3510  147.5230 C   0  0  0  0  0  3  0  0  0  0  0  0
  189.8080  176.0650  146.2760 C   0  0  0  0  0  0  0  0  0  0  0  0
  187.7060  177.0910  146.9130 O   0  0  0  0  0  0  0  0  0  0  0  0
  187.9900  175.0650  142.4370 C   0  0  0  0  0  2  0  0  0  0  0  0
  185.7440  176.3240  143.6300 O   0  0  0  0  0  0  0  0  0  0  0  0
  186.3570  180.1470  147.7640 C   0  0  0  0  0  1  0  0  0  0  0  0
  187.7630  175.9470  144.8310 C   0  0  2  0  0  3  0  0  0  0  0  0
  186.9930  178.1740  146.4840 N   0  0  1  0  0  0  0  0  0  0  0  0
  191.9250  173.1660  138.3310 C   0  0  0  0  0  2  0  0  0  0  0  0
  192.2740  174.2300  137.3460 C   0  0  0  0  0  0  0  0  0  0  0  0
  193.3470  175.0760  137.5890 O   0  0  0  0  0  1  0  0  0  0  0  0
  191.6140  174.3410  136.2810 O   0  0  0  0  0  0  0  0  0  0  0  0
  1 16  1  0  0  0  0
  2 24  1  6  0  0  0
  2 12  1  0  0  0  0
  2 27  1  0  0  0  0
  3  4  1  0  0  0  0
  5  6  1  0  0  0  0
  6 18  1  1  0  0  0
  6 28  1  0  0  0  0
  7 19  1  6  0  0  0
  7 17  1  0  0  0  0
  7 24  1  0  0  0  0
  9 26  1  6  0  0  0
 11  3  2  0  0  0  0
 12  8  1  6  0  0  0
 12 13  1  0  0  0  0
 13 11  1  0  0  0  0
 13 22  2  0  0  0  0
 14 22  1  1  0  0  0
 14 23  1  0  0  0  0
 15  9  1  0  0  0  0
 16 19  1  0  0  0  0
 17 10  1  6  0  0  0
 17  8  1  0  0  0  0
 18 15  1  0  0  0  0
 20 29  1  6  0  0  0
 20  1  1  0  0  0  0
 20 10  1  0  0  0  0
 21  4  2  0  0  0  0
 22 21  1  0  0  0  0
 25  5  2  0  0  0  0
 27  5  1  6  0  0  0
 27 14  1  0  0  0  0
 28 23  1  1  0  0  0
 28  9  1  0  0  0  0
 30 31  1  0  0  0  0
 30 29  1  0  0  0  0
 32 30  2  0  0  0  0
M  END
>  <MODEL>
8

>  <REMARK>
 VINA RESULT:      -7.9      3.091      8.100
  Name = 
  2 active torsions:
  status: ('A' for Active; 'I' for Inactive)
    1  A    between atoms: C_20  and  C_29
    2  A    between atoms: C_29  and  C_30
                            x       y       z     vdW  Elec       q    Type
                         _______ _______ _______ _____ _____    ______ ____

>  <TORSDO>
F 2

$$$$
=
 OpenBabel11112416313D

 32 37  0  0  1  0  0  0  0  0999 V2000
  186.0380  177.8450  144.4260 C   0  0  0  0  0  2  0  0  0  0  0  0
  190.5960  174.9510  143.4050 C   0  0  1  0  0  3  0  0  0  0  0  0
  194.0010  176.3730  146.7700 C   0  0  0  0  0  3  0  0  0  0  0  0
  194.9410  175.5570  146.1380 C   0  0  0  0  0  3  0  0  0  0  0  0
  191.5500  173.9680  141.2120 C   0  0  0  0  0  0  0  0  0  0  0  0
  192.5750  172.9430  140.7700 C   0  0  1  0  0  3  0  0  0  0  0  0
  188.1710  175.4740  143.7230 C   0  0  1  0  0  3  0  0  0  0  0  0
  189.8480  175.9470  145.5710 C   0  0  0  0  0  2  0  0  0  0  0  0
  194.8150  172.3120  140.9890 C   0  0  2  0  0  3  0  0  0  0  0  0
  187.4440  176.4150  146.0170 C   0  0  0  0  0  2  0  0  0  0  0  0
  192.7080  176.4770  146.2540 C   0  0  0  0  0  3  0  0  0  0  0  0
  190.9540  175.9560  144.5170 C   0  0  1  0  0  3  0  0  0  0  0  0
  192.3350  175.7550  145.1100 C   0  0  0  0  0  0  0  0  0  0  0  0
  192.9080  174.1440  143.2530 C   0  0  2  0  0  3  0  0  0  0  0  0
  194.5450  172.5750  139.5160 C   0  0  0  0  0  2  0  0  0  0  0  0
  186.5940  177.3850  143.0670 C   0  0  0  0  0  2  0  0  0  0  0  0
  188.5260  176.3720  144.9340 C   0  0  2  0  0  3  0  0  0  0  0  0
  193.2410  173.3280  139.4730 C   0  0  0  0  0  2  0  0  0  0  0  0
  186.8850  175.8830  142.9910 C   0  0  0  0  0  2  0  0  0  0  0  0
  186.0400  176.7570  145.5090 C   0  0  1  0  0  3  0  0  0  0  0  0
  194.5930  174.8530  144.9840 C   0  0  0  0  0  3  0  0  0  0  0  0
  193.3040  174.9700  144.4440 C   0  0  0  0  0  0  0  0  0  0  0  0
  193.9770  173.8760  142.3880 O   0  0  0  0  0  0  0  0  0  0  0  0
  189.3250  175.4450  142.7190 C   0  0  0  0  0  2  0  0  0  0  0  0
  190.5690  174.1670  140.5130 O   0  0  0  0  0  0  0  0  0  0  0  0
  195.1000  170.8390  141.2040 C   0  0  0  0  0  1  0  0  0  0  0  0
  191.7890  174.8000  142.4550 C   0  0  2  0  0  3  0  0  0  0  0  0
  193.6410  172.7090  141.7640 N   0  0  1  0  0  0  0  0  0  0  0  0
  185.1730  177.1730  146.6860 C   0  0  0  0  0  2  0  0  0  0  0  0
  184.8380  178.6250  146.6100 C   0  0  0  0  0  0  0  0  0  0  0  0
  183.7040  179.0410  145.9260 O   0  0  0  0  0  0  0  0  0  0  0  0
  185.5670  179.4690  147.1910 O   0  0  0  0  0  1  0  0  0  0  0  0
  1 20  1  0  0  0  0
  2 24  1  6  0  0  0
  2 12  1  0  0  0  0
  4  3  2  0  0  0  0
  6 18  1  6  0  0  0
  6  5  1  0  0  0  0
  6 28  1  0  0  0  0
  7 24  1  6  0  0  0
  7 17  1  0  0  0  0
  9 26  1  6  0  0  0
  9 28  1  0  0  0  0
 11  3  1  0  0  0  0
 12 13  1  0  0  0  0
 12  8  1  1  0  0  0
 13 11  2  0  0  0  0
 14 23  1  6  0  0  0
 14 22  1  0  0  0  0
 15  9  1  0  0  0  0
 16  1  1  0  0  0  0
 17  8  1  1  0  0  0
 17 10  1  0  0  0  0
 18 15  1  0  0  0  0
 19 16  1  0  0  0  0
 19  7  1  0  0  0  0
 20 10  1  0  0  0  0
 20 29  1  1  0  0  0
 21  4  1  0  0  0  0
 22 21  2  0  0  0  0
 22 13  1  0  0  0  0
 25  5  2  0  0  0  0
 27  5  1  6  0  0  0
 27 14  1  0  0  0  0
 27  2  1  0  0  0  0
 28 23  1  6  0  0  0
 30 29  1  0  0  0  0
 30 32  1  0  0  0  0
 31 30  2  0  0  0  0
M  END
>  <MODEL>
9

>  <REMARK>
 VINA RESULT:      -7.8      1.929      4.249
  Name = 
  2 active torsions:
  status: ('A' for Active; 'I' for Inactive)
    1  A    between atoms: C_20  and  C_29
    2  A    between atoms: C_29  and  C_30
                            x       y       z     vdW  Elec       q    Type
                         _______ _______ _______ _____ _____    ______ ____

>  <TORSDO>
F 2

$$$$
