=
 OpenBabel11112417443D

 34 41  0  0  1  0  0  0  0  0999 V2000
  189.2520  175.8250  142.8680 C   0  0  0  0  0  0  0  0  0  0  0  0
  191.5480  174.8490  142.6780 C   0  0  0  0  0  3  0  0  0  0  0  0
  184.5190  178.7880  146.2800 C   0  0  0  0  0  0  0  0  0  0  0  0
  187.0750  176.8660  143.2420 C   0  0  0  0  0  0  0  0  0  0  0  0
  186.7200  177.9660  145.4300 C   0  0  0  0  0  0  0  0  0  0  0  0
  185.9400  178.6100  147.6940 C   0  0  0  0  0  2  0  0  0  0  0  0
  184.5250  178.5350  147.7010 O   0  0  0  0  0  0  0  0  0  0  0  0
  184.1000  179.0040  143.9860 C   0  0  0  0  0  2  0  0  0  0  0  0
  190.9950  175.7660  144.5660 C   0  0  0  0  0  0  0  0  0  0  0  0
  192.5270  175.3580  147.1880 C   0  0  0  0  0  3  0  0  0  0  0  0
  187.9600  177.6370  145.8330 C   0  0  0  0  0  3  0  0  0  0  0  0
  184.8220  177.7360  143.5480 C   0  0  0  0  0  2  0  0  0  0  0  0
  190.1730  176.5040  145.5710 C   0  0  1  0  0  3  0  0  0  0  0  0
  192.6480  174.7270  143.5240 C   0  0  0  0  0  3  0  0  0  0  0  0
  186.2440  177.5580  144.0480 C   0  0  0  0  0  0  0  0  0  0  0  0
  183.6330  178.8280  145.3470 N   0  0  0  0  0  0  0  0  0  0  0  0
  193.0880  175.4110  145.9700 C   0  0  0  0  0  0  0  0  0  0  0  0
  188.4260  176.4910  143.6980 C   0  0  0  0  0  0  0  0  0  0  0  0
  185.9900  178.9680  146.3020 C   0  0  2  0  0  3  0  0  0  0  0  0
  188.8400  176.8360  145.0350 N   0  0  0  0  0  0  0  0  0  0  0  0
  187.5850  175.7530  141.0730 C   0  0  0  0  0  3  0  0  0  0  0  0
  191.0910  175.2370  147.5320 C   0  0  0  0  0  3  0  0  0  0  0  0
  186.6750  176.4620  141.9220 N   0  0  0  0  0  2  0  0  0  0  0  0
  190.0520  175.6950  146.8260 C   0  0  0  0  0  3  0  0  0  0  0  0
  192.2810  175.3180  144.7270 C   0  0  0  0  0  0  0  0  0  0  0  0
  188.8120  175.4470  141.5060 C   0  0  0  0  0  3  0  0  0  0  0  0
  190.5580  175.4830  143.3360 N   0  0  0  0  0  0  0  0  0  0  0  0
  194.4840  175.5370  145.9350 O   0  0  0  0  0  0  0  0  0  0  0  0
  195.3830  174.4700  145.6580 C   0  0  0  0  0  2  0  0  0  0  0  0
  195.9380  174.4780  142.4420 O   0  0  0  0  0  0  0  0  0  0  0  0
  196.0580  176.2120  144.0380 C   0  0  0  0  0  2  0  0  0  0  0  0
  196.4730  174.9340  144.7050 C   0  0  2  0  0  3  0  0  0  0  0  0
  196.0570  175.8690  142.5680 C   0  0  0  0  0  2  0  0  0  0  0  0
  196.5960  173.9500  143.5640 C   0  0  0  0  0  2  0  0  0  0  0  0
  1 27  1  0  0  0  0
  1 18  2  0  0  0  0
  2 27  1  0  0  0  0
  2 14  2  0  0  0  0
  3 19  1  0  0  0  0
  3  7  1  0  0  0  0
  4 18  1  0  0  0  0
  4 15  2  0  0  0  0
  5 11  2  0  0  0  0
  5 19  1  0  0  0  0
  6  7  1  0  0  0  0
  8 16  1  0  0  0  0
  9 25  2  0  0  0  0
  9 13  1  0  0  0  0
 10 22  1  0  0  0  0
 12  8  1  0  0  0  0
 12 15  1  0  0  0  0
 13 24  1  1  0  0  0
 14 25  1  0  0  0  0
 15  5  1  0  0  0  0
 16  3  2  0  0  0  0
 17 10  2  0  0  0  0
 18 20  1  0  0  0  0
 19  6  1  1  0  0  0
 20 13  1  0  0  0  0
 20 11  1  0  0  0  0
 21 26  2  0  0  0  0
 21 23  1  0  0  0  0
 23  4  1  0  0  0  0
 24 22  2  0  0  0  0
 25 17  1  0  0  0  0
 26  1  1  0  0  0  0
 27  9  1  0  0  0  0
 28 17  1  0  0  0  0
 29 28  1  0  0  0  0
 30 33  1  0  0  0  0
 30 34  1  0  0  0  0
 31 32  1  0  0  0  0
 32 29  1  1  0  0  0
 33 31  1  0  0  0  0
 34 32  1  0  0  0  0
M  END
>  <MODEL>
1

>  <REMARK>
 VINA RESULT:      -9.0      0.000      0.000
  Name = 
  3 active torsions:
  status: ('A' for Active; 'I' for Inactive)
    1  A    between atoms: C_17  and  O_28
    2  A    between atoms: O_28  and  C_29
    3  A    between atoms: C_29  and  C_32
                            x       y       z     vdW  Elec       q    Type
                         _______ _______ _______ _____ _____    ______ ____

>  <TORSDO>
F 3

$$$$
=
 OpenBabel11112417443D

 34 41  0  0  1  0  0  0  0  0999 V2000
  191.6210  176.3610  145.6340 C   0  0  0  0  0  0  0  0  0  0  0  0
  189.2290  176.4810  146.3620 C   0  0  0  0  0  3  0  0  0  0  0  0
  196.2050  175.5240  141.0400 C   0  0  0  0  0  0  0  0  0  0  0  0
  193.8810  176.2530  144.7180 C   0  0  0  0  0  0  0  0  0  0  0  0
  194.0860  176.0340  142.2610 C   0  0  0  0  0  0  0  0  0  0  0  0
  194.5350  175.2530  139.9510 C   0  0  0  0  0  2  0  0  0  0  0  0
  195.8290  174.6770  139.9340 O   0  0  0  0  0  0  0  0  0  0  0  0
  197.1360  176.5850  142.9090 C   0  0  0  0  0  2  0  0  0  0  0  0
  189.6260  176.1750  144.2500 C   0  0  0  0  0  0  0  0  0  0  0  0
  187.5330  175.2110  142.2310 C   0  0  0  0  0  3  0  0  0  0  0  0
  192.7490  176.0310  142.1180 C   0  0  0  0  0  3  0  0  0  0  0  0
  196.1770  176.0100  143.9430 C   0  0  0  0  0  2  0  0  0  0  0  0
  190.4030  176.0250  142.9830 C   0  0  0  0  0  0  0  0  0  0  0  0
  187.9930  176.3960  145.7270 C   0  0  0  0  0  3  0  0  0  0  0  0
  194.6940  176.1530  143.6460 C   0  0  0  0  0  0  0  0  0  0  0  0
  197.2370  175.6570  141.8000 N   0  0  0  0  0  0  0  0  0  0  0  0
  187.2790  176.0070  143.2800 C   0  0  0  0  0  0  0  0  0  0  0  0
  192.4160  176.2300  144.5550 C   0  0  1  0  0  3  0  0  0  0  0  0
  194.8830  176.1920  140.9830 C   0  0  2  0  0  3  0  0  0  0  0  0
  191.8560  176.0560  143.2380 N   0  0  0  0  0  0  0  0  0  0  0  0
  193.5240  176.5110  147.1690 C   0  0  0  0  0  3  0  0  0  0  0  0
  188.7640  174.4380  141.9420 C   0  0  0  0  0  3  0  0  0  0  0  0
  194.4080  176.3760  146.0500 N   0  0  0  0  0  0  0  0  0  0  0  0
  190.0140  174.7550  142.2920 C   0  0  0  0  0  3  0  0  0  0  0  0
  188.2610  176.2020  144.3760 C   0  0  2  0  0  3  0  0  0  0  0  0
  192.2000  176.5090  146.9880 C   0  0  0  0  0  3  0  0  0  0  0  0
  190.2040  176.3430  145.4430 N   0  0  0  0  0  0  0  0  0  0  0  0
  186.0230  176.6310  143.2960 O   0  0  0  0  0  0  0  0  0  0  0  0
  185.5830  177.5800  142.3320 C   0  0  0  0  0  2  0  0  0  0  0  0
  184.1200  178.4950  145.1020 O   0  0  0  0  0  0  0  0  0  0  0  0
  186.1470  179.1950  144.1190 C   0  0  0  0  0  2  0  0  0  0  0  0
  185.1800  178.8770  143.0180 C   0  0  2  0  0  3  0  0  0  0  0  0
  185.2870  179.2290  145.3580 C   0  0  0  0  0  2  0  0  0  0  0  0
  183.8630  178.6780  143.7350 C   0  0  0  0  0  2  0  0  0  0  0  0
  1 26  2  0  0  0  0
  3 16  2  0  0  0  0
  4 23  1  0  0  0  0
  5 15  1  0  0  0  0
  7  6  1  0  0  0  0
  7  3  1  0  0  0  0
  8 12  1  0  0  0  0
  9 25  1  0  0  0  0
  9 27  1  0  0  0  0
 10 17  2  0  0  0  0
 11  5  2  0  0  0  0
 11 20  1  0  0  0  0
 13 20  1  0  0  0  0
 13  9  2  0  0  0  0
 14  2  2  0  0  0  0
 15 12  1  0  0  0  0
 15  4  2  0  0  0  0
 16  8  1  0  0  0  0
 17 28  1  0  0  0  0
 17 25  1  0  0  0  0
 18  4  1  1  0  0  0
 18  1  1  0  0  0  0
 19  6  1  6  0  0  0
 19  3  1  0  0  0  0
 19  5  1  0  0  0  0
 20 18  1  0  0  0  0
 22 10  1  0  0  0  0
 22 24  2  0  0  0  0
 23 21  2  0  0  0  0
 24 13  1  0  0  0  0
 25 14  1  1  0  0  0
 26 21  1  0  0  0  0
 27  1  1  0  0  0  0
 27  2  1  0  0  0  0
 29 28  1  0  0  0  0
 30 33  1  0  0  0  0
 31 33  1  0  0  0  0
 32 29  1  1  0  0  0
 32 34  1  0  0  0  0
 32 31  1  0  0  0  0
 34 30  1  0  0  0  0
M  END
>  <MODEL>
2

>  <REMARK>
 VINA RESULT:      -8.5      2.354      9.049
  Name = 
  3 active torsions:
  status: ('A' for Active; 'I' for Inactive)
    1  A    between atoms: C_17  and  O_28
    2  A    between atoms: O_28  and  C_29
    3  A    between atoms: C_29  and  C_32
                            x       y       z     vdW  Elec       q    Type
                         _______ _______ _______ _____ _____    ______ ____

>  <TORSDO>
F 3

$$$$
=
 OpenBabel11112417443D

 34 41  0  0  1  0  0  0  0  0999 V2000
  188.5680  177.5150  146.5510 C   0  0  0  0  0  0  0  0  0  0  0  0
  190.5860  176.9010  147.8970 C   0  0  0  0  0  3  0  0  0  0  0  0
  185.3570  177.9690  140.8670 C   0  0  0  0  0  0  0  0  0  0  0  0
  186.6860  178.0010  145.0740 C   0  0  0  0  0  0  0  0  0  0  0  0
  186.9080  177.3020  142.7100 C   0  0  0  0  0  0  0  0  0  0  0  0
  187.1180  177.2230  140.2400 C   0  0  0  0  0  2  0  0  0  0  0  0
  186.1850  178.1410  139.6980 O   0  0  0  0  0  0  0  0  0  0  0  0
  183.8420  178.0930  142.6490 C   0  0  0  0  0  2  0  0  0  0  0  0
  190.6250  176.4740  145.7700 C   0  0  0  0  0  0  0  0  0  0  0  0
  193.1700  175.8220  144.1940 C   0  0  0  0  0  3  0  0  0  0  0  0
  188.1360  176.8050  142.9380 C   0  0  0  0  0  3  0  0  0  0  0  0
  184.8100  178.6710  143.6730 C   0  0  0  0  0  2  0  0  0  0  0  0
  190.1470  176.3670  144.3580 C   0  0  0  0  0  0  0  0  0  0  0  0
  191.8200  176.3160  147.6250 C   0  0  0  0  0  3  0  0  0  0  0  0
  186.1300  177.9400  143.8460 C   0  0  0  0  0  0  0  0  0  0  0  0
  184.2730  178.4920  141.3230 N   0  0  0  0  0  0  0  0  0  0  0  0
  192.9400  175.4610  145.4650 C   0  0  0  0  0  0  0  0  0  0  0  0
  188.0410  177.4710  145.3130 C   0  0  1  0  0  3  0  0  0  0  0  0
  186.2870  176.9340  141.3780 C   0  0  2  0  0  3  0  0  0  0  0  0
  188.7880  176.9220  144.2090 N   0  0  0  0  0  0  0  0  0  0  0  0
  186.5870  178.6140  147.4850 C   0  0  0  0  0  3  0  0  0  0  0  0
  192.4100  176.7830  143.3600 C   0  0  0  0  0  3  0  0  0  0  0  0
  185.9880  178.5890  146.1840 N   0  0  0  0  0  0  0  0  0  0  0  0
  191.1060  177.0610  143.4400 C   0  0  0  0  0  3  0  0  0  0  0  0
  191.8320  176.0470  146.2610 C   0  0  2  0  0  3  0  0  0  0  0  0
  187.8080  178.1060  147.6760 C   0  0  0  0  0  3  0  0  0  0  0  0
  189.8800  176.9850  146.7530 N   0  0  0  0  0  0  0  0  0  0  0  0
  193.8190  174.5150  146.0110 O   0  0  0  0  0  0  0  0  0  0  0  0
  193.9590  173.1800  145.5390 C   0  0  0  0  0  2  0  0  0  0  0  0
  196.3020  174.1970  143.5060 O   0  0  0  0  0  0  0  0  0  0  0  0
  196.2910  173.9430  145.8520 C   0  0  0  0  0  2  0  0  0  0  0  0
  195.4230  172.8710  145.2630 C   0  0  2  0  0  3  0  0  0  0  0  0
  197.0320  174.5020  144.6620 C   0  0  0  0  0  2  0  0  0  0  0  0
  195.6850  172.9650  143.7760 C   0  0  0  0  0  2  0  0  0  0  0  0
  1 27  1  0  0  0  0
  1 26  2  0  0  0  0
  3 16  2  0  0  0  0
  3 19  1  0  0  0  0
  4 23  1  0  0  0  0
  5 11  2  0  0  0  0
  5 15  1  0  0  0  0
  7  6  1  0  0  0  0
  7  3  1  0  0  0  0
  8 12  1  0  0  0  0
  9 25  1  0  0  0  0
  9 27  1  0  0  0  0
 10 17  2  0  0  0  0
 11 20  1  0  0  0  0
 12 15  1  0  0  0  0
 13  9  2  0  0  0  0
 14  2  2  0  0  0  0
 15  4  2  0  0  0  0
 16  8  1  0  0  0  0
 17 28  1  0  0  0  0
 17 25  1  0  0  0  0
 18  4  1  6  0  0  0
 18  1  1  0  0  0  0
 19  6  1  6  0  0  0
 19  5  1  0  0  0  0
 20 13  1  0  0  0  0
 20 18  1  0  0  0  0
 21 26  1  0  0  0  0
 22 24  2  0  0  0  0
 22 10  1  0  0  0  0
 23 21  2  0  0  0  0
 24 13  1  0  0  0  0
 25 14  1  6  0  0  0
 27  2  1  0  0  0  0
 29 28  1  0  0  0  0
 30 34  1  0  0  0  0
 30 33  1  0  0  0  0
 32 29  1  6  0  0  0
 32 31  1  0  0  0  0
 33 31  1  0  0  0  0
 34 32  1  0  0  0  0
M  END
>  <MODEL>
3

>  <REMARK>
 VINA RESULT:      -8.4      2.055      3.900
  Name = 
  3 active torsions:
  status: ('A' for Active; 'I' for Inactive)
    1  A    between atoms: C_17  and  O_28
    2  A    between atoms: O_28  and  C_29
    3  A    between atoms: C_29  and  C_32
                            x       y       z     vdW  Elec       q    Type
                         _______ _______ _______ _____ _____    ______ ____

>  <TORSDO>
F 3

$$$$
=
 OpenBabel11112417443D

 34 41  0  0  1  0  0  0  0  0999 V2000
  188.3490  174.7200  140.1010 C   0  0  0  0  0  0  0  0  0  0  0  0
  187.0270  176.8340  140.3250 C   0  0  0  0  0  3  0  0  0  0  0  0
  192.3380  170.1390  142.5330 C   0  0  0  0  0  0  0  0  0  0  0  0
  189.6590  172.6610  140.0990 C   0  0  0  0  0  0  0  0  0  0  0  0
  190.6520  171.9620  142.2560 C   0  0  0  0  0  0  0  0  0  0  0  0
  192.1850  171.3750  144.1140 C   0  0  0  0  0  2  0  0  0  0  0  0
  193.2300  170.5830  143.5780 O   0  0  0  0  0  0  0  0  0  0  0  0
  191.2730  169.3270  140.6130 C   0  0  0  0  0  2  0  0  0  0  0  0
  188.0720  176.1070  142.0830 C   0  0  0  0  0  0  0  0  0  0  0  0
  188.6100  177.7960  144.5820 C   0  0  0  0  0  3  0  0  0  0  0  0
  190.1340  173.0350  142.8790 C   0  0  0  0  0  3  0  0  0  0  0  0
  191.0610  170.6760  139.9370 C   0  0  0  0  0  2  0  0  0  0  0  0
  188.8980  175.2080  142.9440 C   0  0  1  0  0  3  0  0  0  0  0  0
  186.7640  177.7360  141.3530 C   0  0  0  0  0  3  0  0  0  0  0  0
  190.4010  171.7580  140.7740 C   0  0  0  0  0  0  0  0  0  0  0  0
  192.4360  169.4150  141.4730 N   0  0  0  0  0  0  0  0  0  0  0  0
  187.5120  177.8850  143.8160 C   0  0  0  0  0  0  0  0  0  0  0  0
  189.1100  173.8450  140.7840 C   0  0  0  0  0  0  0  0  0  0  0  0
  191.2240  170.8900  143.1610 C   0  0  2  0  0  3  0  0  0  0  0  0
  189.4080  174.0540  142.1800 N   0  0  0  0  0  0  0  0  0  0  0  0
  188.5720  173.4660  138.0090 C   0  0  0  0  0  3  0  0  0  0  0  0
  189.8760  177.0820  144.2930 C   0  0  0  0  0  3  0  0  0  0  0  0
  189.3870  172.5090  138.6960 N   0  0  0  0  0  2  0  0  0  0  0  0
  190.0280  175.9790  143.5540 C   0  0  0  0  0  3  0  0  0  0  0  0
  187.4380  177.2590  142.4710 C   0  0  0  0  0  0  0  0  0  0  0  0
  188.0700  174.5180  138.6610 C   0  0  0  0  0  3  0  0  0  0  0  0
  187.8240  175.8540  140.7950 N   0  0  0  0  0  0  0  0  0  0  0  0
  186.4440  178.6220  144.3450 O   0  0  0  0  0  0  0  0  0  0  0  0
  185.1220  178.1210  144.5080 C   0  0  0  0  0  2  0  0  0  0  0  0
  186.3790  176.9120  147.2660 O   0  0  0  0  0  0  0  0  0  0  0  0
  185.5740  179.0690  146.7480 C   0  0  0  0  0  2  0  0  0  0  0  0
  184.7570  178.0690  145.9840 C   0  0  2  0  0  3  0  0  0  0  0  0
  186.3320  178.2280  147.7460 C   0  0  0  0  0  2  0  0  0  0  0  0
  185.1800  176.7360  146.5600 C   0  0  0  0  0  2  0  0  0  0  0  0
  1 18  2  0  0  0  0
  1 27  1  0  0  0  0
  2 27  1  0  0  0  0
  2 14  2  0  0  0  0
  3 19  1  0  0  0  0
  3  7  1  0  0  0  0
  4 15  2  0  0  0  0
  4 18  1  0  0  0  0
  5 11  2  0  0  0  0
  5 19  1  0  0  0  0
  7  6  1  0  0  0  0
  8 16  1  0  0  0  0
  9 25  2  0  0  0  0
  9 13  1  0  0  0  0
 12  8  1  0  0  0  0
 12 15  1  0  0  0  0
 13 24  1  6  0  0  0
 14 25  1  0  0  0  0
 15  5  1  0  0  0  0
 16  3  2  0  0  0  0
 17 28  1  0  0  0  0
 17 10  2  0  0  0  0
 18 20  1  0  0  0  0
 19  6  1  1  0  0  0
 20 11  1  0  0  0  0
 20 13  1  0  0  0  0
 21 26  2  0  0  0  0
 21 23  1  0  0  0  0
 22 10  1  0  0  0  0
 23  4  1  0  0  0  0
 24 22  2  0  0  0  0
 25 17  1  0  0  0  0
 26  1  1  0  0  0  0
 27  9  1  0  0  0  0
 28 29  1  0  0  0  0
 30 33  1  0  0  0  0
 31 33  1  0  0  0  0
 32 29  1  6  0  0  0
 32 34  1  0  0  0  0
 32 31  1  0  0  0  0
 34 30  1  0  0  0  0
M  END
>  <MODEL>
4

>  <REMARK>
 VINA RESULT:      -8.2      3.371      8.324
  Name = 
  3 active torsions:
  status: ('A' for Active; 'I' for Inactive)
    1  A    between atoms: C_17  and  O_28
    2  A    between atoms: O_28  and  C_29
    3  A    between atoms: C_29  and  C_32
                            x       y       z     vdW  Elec       q    Type
                         _______ _______ _______ _____ _____    ______ ____

>  <TORSDO>
F 3

$$$$
=
 OpenBabel11112417443D

 34 41  0  0  1  0  0  0  0  0999 V2000
  192.6790  176.0940  145.3430 C   0  0  0  0  0  0  0  0  0  0  0  0
  190.6170  176.7720  146.5880 C   0  0  0  0  0  3  0  0  0  0  0  0
  195.7740  174.3390  139.8510 C   0  0  0  0  0  0  0  0  0  0  0  0
  194.5800  175.4680  143.9450 C   0  0  0  0  0  0  0  0  0  0  0  0
  194.1740  175.3060  141.5090 C   0  0  0  0  0  0  0  0  0  0  0  0
  193.8910  174.5350  139.1690 C   0  0  0  0  0  2  0  0  0  0  0  0
  194.9620  173.6580  138.8710 O   0  0  0  0  0  0  0  0  0  0  0  0
  197.3300  175.0580  141.4460 C   0  0  0  0  0  2  0  0  0  0  0  0
  190.4470  176.4650  144.4460 C   0  0  0  0  0  0  0  0  0  0  0  0
  187.7860  176.1320  142.9640 C   0  0  0  0  0  3  0  0  0  0  0  0
  192.8820  175.6400  141.6690 C   0  0  0  0  0  3  0  0  0  0  0  0
  196.5110  174.6970  142.6780 C   0  0  0  0  0  2  0  0  0  0  0  0
  190.8610  176.1800  143.0390 C   0  0  0  0  0  0  0  0  0  0  0  0
  189.2900  177.0220  146.2480 C   0  0  0  0  0  3  0  0  0  0  0  0
  195.0840  175.2140  142.7190 C   0  0  0  0  0  0  0  0  0  0  0  0
  196.9470  174.1810  140.3570 N   0  0  0  0  0  0  0  0  0  0  0  0
  187.9780  176.9230  144.0310 C   0  0  0  0  0  0  0  0  0  0  0  0
  193.1570  175.8150  144.1160 C   0  0  1  0  0  3  0  0  0  0  0  0
  194.6830  175.3150  140.0820 C   0  0  2  0  0  3  0  0  0  0  0  0
  192.2940  175.8400  142.9610 N   0  0  0  0  0  0  0  0  0  0  0  0
  194.8510  175.7050  146.4090 C   0  0  0  0  0  3  0  0  0  0  0  0
  188.6890  175.0910  142.4190 C   0  0  0  0  0  3  0  0  0  0  0  0
  195.4020  175.4020  145.1220 N   0  0  0  0  0  0  0  0  0  0  0  0
  190.0240  175.0750  142.4740 C   0  0  0  0  0  3  0  0  0  0  0  0
  189.1950  176.8230  144.8750 C   0  0  2  0  0  3  0  0  0  0  0  0
  193.5620  176.0380  146.5300 C   0  0  0  0  0  3  0  0  0  0  0  0
  191.2980  176.4350  145.4750 N   0  0  0  0  0  0  0  0  0  0  0  0
  186.9540  177.8370  144.3180 O   0  0  0  0  0  0  0  0  0  0  0  0
  185.5650  177.5460  144.2240 C   0  0  0  0  0  2  0  0  0  0  0  0
  186.0160  177.1170  147.4270 O   0  0  0  0  0  0  0  0  0  0  0  0
  185.5680  179.0660  146.1750 C   0  0  0  0  0  2  0  0  0  0  0  0
  184.8610  177.9170  145.5200 C   0  0  2  0  0  3  0  0  0  0  0  0
  185.9850  178.5150  147.5170 C   0  0  0  0  0  2  0  0  0  0  0  0
  185.0050  176.7850  146.5120 C   0  0  0  0  0  2  0  0  0  0  0  0
  1 27  1  0  0  0  0
  1 26  2  0  0  0  0
  3 19  1  0  0  0  0
  3 16  2  0  0  0  0
  4 23  1  0  0  0  0
  5 11  2  0  0  0  0
  5 15  1  0  0  0  0
  7  6  1  0  0  0  0
  7  3  1  0  0  0  0
  8 12  1  0  0  0  0
  9 25  1  0  0  0  0
  9 27  1  0  0  0  0
 10 17  2  0  0  0  0
 11 20  1  0  0  0  0
 12 15  1  0  0  0  0
 13  9  2  0  0  0  0
 14  2  2  0  0  0  0
 15  4  2  0  0  0  0
 16  8  1  0  0  0  0
 17 28  1  0  0  0  0
 17 25  1  0  0  0  0
 18  4  1  1  0  0  0
 18  1  1  0  0  0  0
 19  6  1  6  0  0  0
 19  5  1  0  0  0  0
 20 13  1  0  0  0  0
 20 18  1  0  0  0  0
 21 26  1  0  0  0  0
 22 24  2  0  0  0  0
 22 10  1  0  0  0  0
 23 21  2  0  0  0  0
 24 13  1  0  0  0  0
 25 14  1  1  0  0  0
 27  2  1  0  0  0  0
 29 28  1  0  0  0  0
 30 33  1  0  0  0  0
 31 33  1  0  0  0  0
 32 29  1  6  0  0  0
 32 31  1  0  0  0  0
 32 34  1  0  0  0  0
 34 30  1  0  0  0  0
M  END
>  <MODEL>
5

>  <REMARK>
 VINA RESULT:      -8.1      2.580      9.134
  Name = 
  3 active torsions:
  status: ('A' for Active; 'I' for Inactive)
    1  A    between atoms: C_17  and  O_28
    2  A    between atoms: O_28  and  C_29
    3  A    between atoms: C_29  and  C_32
                            x       y       z     vdW  Elec       q    Type
                         _______ _______ _______ _____ _____    ______ ____

>  <TORSDO>
F 3

$$$$
=
 OpenBabel11112417443D

 34 41  0  0  1  0  0  0  0  0999 V2000
  190.8480  174.1900  141.2200 C   0  0  0  0  0  0  0  0  0  0  0  0
  188.4060  174.4480  141.7060 C   0  0  0  0  0  3  0  0  0  0  0  0
  197.1360  175.5050  142.4640 C   0  0  0  0  0  0  0  0  0  0  0  0
  193.2680  174.0330  140.9380 C   0  0  0  0  0  0  0  0  0  0  0  0
  194.6690  175.1510  142.6450 C   0  0  0  0  0  0  0  0  0  0  0  0
  196.2370  176.6330  143.8670 C   0  0  0  0  0  2  0  0  0  0  0  0
  197.3940  176.7910  143.0670 O   0  0  0  0  0  0  0  0  0  0  0  0
  196.9720  173.5770  141.1470 C   0  0  0  0  0  2  0  0  0  0  0  0
  189.8080  175.4500  143.0250 C   0  0  0  0  0  0  0  0  0  0  0  0
  189.0330  177.6720  144.9870 C   0  0  0  0  0  3  0  0  0  0  0  0
  193.5800  175.5750  143.3080 C   0  0  0  0  0  3  0  0  0  0  0  0
  195.6550  173.9280  140.4690 C   0  0  0  0  0  2  0  0  0  0  0  0
  191.1160  175.8750  143.6090 C   0  0  1  0  0  3  0  0  0  0  0  0
  187.6500  175.1130  142.6680 C   0  0  0  0  0  3  0  0  0  0  0  0
  194.5080  174.3270  141.3810 C   0  0  0  0  0  0  0  0  0  0  0  0
  197.6500  174.8040  141.5150 N   0  0  0  0  0  0  0  0  0  0  0  0
  188.2580  176.6250  144.6660 C   0  0  0  0  0  0  0  0  0  0  0  0
  192.0770  174.5180  141.6600 C   0  0  0  0  0  0  0  0  0  0  0  0
  195.9860  175.3050  143.3780 C   0  0  2  0  0  3  0  0  0  0  0  0
  192.2500  175.3490  142.8260 N   0  0  0  0  0  0  0  0  0  0  0  0
  191.7350  172.9260  139.3180 C   0  0  0  0  0  3  0  0  0  0  0  0
  190.2790  178.1280  144.3270 C   0  0  0  0  0  3  0  0  0  0  0  0
  193.0610  173.2500  139.7510 N   0  0  0  0  0  2  0  0  0  0  0  0
  191.1770  177.3690  143.6920 C   0  0  0  0  0  3  0  0  0  0  0  0
  188.5590  175.7490  143.5060 C   0  0  0  0  0  0  0  0  0  0  0  0
  190.6750  173.3620  140.0050 C   0  0  0  0  0  3  0  0  0  0  0  0
  189.7130  174.6690  141.9450 N   0  0  0  0  0  0  0  0  0  0  0  0
  187.1310  176.4160  145.4740 O   0  0  0  0  0  0  0  0  0  0  0  0
  187.1140  176.5730  146.8880 C   0  0  0  0  0  2  0  0  0  0  0  0
  185.5670  179.4130  146.4510 O   0  0  0  0  0  0  0  0  0  0  0  0
  184.8170  177.1890  146.2070 C   0  0  0  0  0  2  0  0  0  0  0  0
  185.8130  177.2260  147.3280 C   0  0  2  0  0  3  0  0  0  0  0  0
  184.5070  178.6440  145.9510 C   0  0  0  0  0  2  0  0  0  0  0  0
  186.0440  178.7020  147.5620 C   0  0  0  0  0  2  0  0  0  0  0  0
  1 18  2  0  0  0  0
  1 27  1  0  0  0  0
  2 27  1  0  0  0  0
  2 14  2  0  0  0  0
  3  7  1  0  0  0  0
  3 19  1  0  0  0  0
  4 15  2  0  0  0  0
  4 18  1  0  0  0  0
  5 11  2  0  0  0  0
  5 19  1  0  0  0  0
  7  6  1  0  0  0  0
  8 16  1  0  0  0  0
  9 25  2  0  0  0  0
  9 13  1  0  0  0  0
 12  8  1  0  0  0  0
 12 15  1  0  0  0  0
 13 24  1  6  0  0  0
 14 25  1  0  0  0  0
 15  5  1  0  0  0  0
 16  3  2  0  0  0  0
 17 10  2  0  0  0  0
 17 28  1  0  0  0  0
 18 20  1  0  0  0  0
 19  6  1  1  0  0  0
 20 11  1  0  0  0  0
 20 13  1  0  0  0  0
 21 23  1  0  0  0  0
 21 26  2  0  0  0  0
 22 10  1  0  0  0  0
 23  4  1  0  0  0  0
 24 22  2  0  0  0  0
 25 17  1  0  0  0  0
 26  1  1  0  0  0  0
 27  9  1  0  0  0  0
 28 29  1  0  0  0  0
 30 34  1  0  0  0  0
 31 32  1  0  0  0  0
 32 29  1  6  0  0  0
 32 34  1  0  0  0  0
 33 31  1  0  0  0  0
 33 30  1  0  0  0  0
M  END
>  <MODEL>
6

>  <REMARK>
 VINA RESULT:      -8.1      2.584      8.708
  Name = 
  3 active torsions:
  status: ('A' for Active; 'I' for Inactive)
    1  A    between atoms: C_17  and  O_28
    2  A    between atoms: O_28  and  C_29
    3  A    between atoms: C_29  and  C_32
                            x       y       z     vdW  Elec       q    Type
                         _______ _______ _______ _____ _____    ______ ____

>  <TORSDO>
F 3

$$$$
=
 OpenBabel11112417443D

 34 41  0  0  1  0  0  0  0  0999 V2000
  190.5420  172.8480  142.7820 C   0  0  0  0  0  0  0  0  0  0  0  0
  188.4190  174.1170  142.4050 C   0  0  0  0  0  3  0  0  0  0  0  0
  196.5960  172.3480  145.2170 C   0  0  0  0  0  0  0  0  0  0  0  0
  192.6670  171.7620  143.2970 C   0  0  0  0  0  0  0  0  0  0  0  0
  194.2170  172.9840  144.7910 C   0  0  0  0  0  0  0  0  0  0  0  0
  196.1270  174.2250  145.7700 C   0  0  0  0  0  2  0  0  0  0  0  0
  197.3190  173.5900  145.3430 O   0  0  0  0  0  0  0  0  0  0  0  0
  195.7560  170.2170  144.7280 C   0  0  0  0  0  2  0  0  0  0  0  0
  189.9610  175.0660  143.6010 C   0  0  0  0  0  0  0  0  0  0  0  0
  190.0180  178.0540  144.2750 C   0  0  0  0  0  3  0  0  0  0  0  0
  193.3550  174.0090  144.9000 C   0  0  0  0  0  3  0  0  0  0  0  0
  194.8070  170.6440  143.6160 C   0  0  0  0  0  2  0  0  0  0  0  0
  191.2500  175.2360  144.3370 C   0  0  1  0  0  3  0  0  0  0  0  0
  187.9260  175.3640  142.7850 C   0  0  0  0  0  3  0  0  0  0  0  0
  193.8540  171.7820  143.9380 C   0  0  0  0  0  0  0  0  0  0  0  0
  196.8550  171.1610  144.7910 N   0  0  0  0  0  0  0  0  0  0  0  0
  188.9060  177.3140  144.1570 C   0  0  0  0  0  0  0  0  0  0  0  0
  191.7350  172.8990  143.4050 C   0  0  0  0  0  0  0  0  0  0  0  0
  195.3800  172.9970  145.7620 C   0  0  2  0  0  3  0  0  0  0  0  0
  192.1210  174.0570  144.1730 N   0  0  0  0  0  0  0  0  0  0  0  0
  190.9960  170.6340  141.8370 C   0  0  0  0  0  3  0  0  0  0  0  0
  191.4030  177.6980  143.8860 C   0  0  0  0  0  3  0  0  0  0  0  0
  192.2740  170.6450  142.4830 N   0  0  0  0  0  2  0  0  0  0  0  0
  191.9460  176.4770  143.8700 C   0  0  0  0  0  3  0  0  0  0  0  0
  188.9220  175.9590  143.5500 C   0  0  0  0  0  0  0  0  0  0  0  0
  190.1620  171.6700  141.9710 C   0  0  0  0  0  3  0  0  0  0  0  0
  189.6560  173.9620  142.9130 N   0  0  0  0  0  0  0  0  0  0  0  0
  187.7190  177.9000  144.6200 O   0  0  0  0  0  0  0  0  0  0  0  0
  187.0080  177.4750  145.7770 C   0  0  0  0  0  2  0  0  0  0  0  0
  184.1400  179.0300  145.8450 O   0  0  0  0  0  0  0  0  0  0  0  0
  185.2070  177.8270  144.1180 C   0  0  0  0  0  2  0  0  0  0  0  0
  185.5590  177.1790  145.4250 C   0  0  2  0  0  3  0  0  0  0  0  0
  184.0760  178.7610  144.4710 C   0  0  0  0  0  2  0  0  0  0  0  0
  184.6500  177.8580  146.4250 C   0  0  0  0  0  2  0  0  0  0  0  0
  1 27  1  0  0  0  0
  1 18  2  0  0  0  0
  2 14  2  0  0  0  0
  2 27  1  0  0  0  0
  3  7  1  0  0  0  0
  3 19  1  0  0  0  0
  4 18  1  0  0  0  0
  4 15  2  0  0  0  0
  5 11  2  0  0  0  0
  5 19  1  0  0  0  0
  7  6  1  0  0  0  0
  8 16  1  0  0  0  0
  9 13  1  0  0  0  0
 12 15  1  0  0  0  0
 12  8  1  0  0  0  0
 13 24  1  6  0  0  0
 14 25  1  0  0  0  0
 15  5  1  0  0  0  0
 16  3  2  0  0  0  0
 17 10  2  0  0  0  0
 17 28  1  0  0  0  0
 18 20  1  0  0  0  0
 19  6  1  6  0  0  0
 20 13  1  0  0  0  0
 20 11  1  0  0  0  0
 21 26  2  0  0  0  0
 21 23  1  0  0  0  0
 22 10  1  0  0  0  0
 23  4  1  0  0  0  0
 24 22  2  0  0  0  0
 25  9  2  0  0  0  0
 25 17  1  0  0  0  0
 26  1  1  0  0  0  0
 27  9  1  0  0  0  0
 28 29  1  0  0  0  0
 30 34  1  0  0  0  0
 31 33  1  0  0  0  0
 31 32  1  0  0  0  0
 32 29  1  1  0  0  0
 32 34  1  0  0  0  0
 33 30  1  0  0  0  0
M  END
>  <MODEL>
7

>  <REMARK>
 VINA RESULT:      -7.8      2.760      8.884
  Name = 
  3 active torsions:
  status: ('A' for Active; 'I' for Inactive)
    1  A    between atoms: C_17  and  O_28
    2  A    between atoms: O_28  and  C_29
    3  A    between atoms: C_29  and  C_32
                            x       y       z     vdW  Elec       q    Type
                         _______ _______ _______ _____ _____    ______ ____

>  <TORSDO>
F 3

$$$$
=
 OpenBabel11112417443D

 34 41  0  0  1  0  0  0  0  0999 V2000
  190.5060  176.4530  146.1310 C   0  0  0  0  0  0  0  0  0  0  0  0
  192.6890  175.4160  146.7820 C   0  0  0  0  0  3  0  0  0  0  0  0
  185.8620  177.8090  141.7250 C   0  0  0  0  0  0  0  0  0  0  0  0
  188.3890  177.3500  145.3120 C   0  0  0  0  0  0  0  0  0  0  0  0
  187.7490  176.7700  142.9930 C   0  0  0  0  0  0  0  0  0  0  0  0
  187.1800  176.8090  140.5800 C   0  0  0  0  0  2  0  0  0  0  0  0
  186.3130  177.9060  140.3580 O   0  0  0  0  0  0  0  0  0  0  0  0
  185.0100  178.0850  143.8890 C   0  0  0  0  0  2  0  0  0  0  0  0
  192.0000  175.1200  144.7450 C   0  0  0  0  0  0  0  0  0  0  0  0
  193.7790  174.1340  142.4550 C   0  0  0  0  0  3  0  0  0  0  0  0
  188.8740  176.0540  142.8270 C   0  0  0  0  0  3  0  0  0  0  0  0
  186.3330  178.4210  144.5660 C   0  0  0  0  0  2  0  0  0  0  0  0
  191.1040  175.1860  143.5510 C   0  0  0  0  0  0  0  0  0  0  0  0
  193.6510  174.6420  146.1380 C   0  0  0  0  0  3  0  0  0  0  0  0
  187.4850  177.4630  144.3170 C   0  0  0  0  0  0  0  0  0  0  0  0
  185.0840  178.4840  142.4970 N   0  0  0  0  0  0  0  0  0  0  0  0
  193.8840  173.7410  143.7330 C   0  0  0  0  0  0  0  0  0  0  0  0
  189.6300  176.5790  145.1170 C   0  0  1  0  0  3  0  0  0  0  0  0
  186.6960  176.5980  141.9170 C   0  0  2  0  0  3  0  0  0  0  0  0
  189.8910  175.9770  143.8330 N   0  0  0  0  0  0  0  0  0  0  0  0
  189.1420  177.8210  147.6380 C   0  0  0  0  0  3  0  0  0  0  0  0
  192.9930  175.2620  141.9030 C   0  0  0  0  0  3  0  0  0  0  0  0
  188.1820  177.9800  146.5870 N   0  0  0  0  0  0  0  0  0  0  0  0
  191.8490  175.7580  142.3840 C   0  0  0  0  0  3  0  0  0  0  0  0
  193.1980  174.4600  144.8360 C   0  0  2  0  0  3  0  0  0  0  0  0
  190.2480  177.0980  147.4390 C   0  0  0  0  0  3  0  0  0  0  0  0
  191.6960  175.6920  145.9140 N   0  0  0  0  0  0  0  0  0  0  0  0
  194.6960  172.6240  143.9750 O   0  0  0  0  0  0  0  0  0  0  0  0
  195.8500  172.2880  143.2140 C   0  0  0  0  0  2  0  0  0  0  0  0
  197.1870  174.5490  145.1510 O   0  0  0  0  0  0  0  0  0  0  0  0
  196.7680  172.2550  145.5110 C   0  0  0  0  0  2  0  0  0  0  0  0
  197.1030  172.4460  144.0620 C   0  0  2  0  0  3  0  0  0  0  0  0
  197.1600  173.5650  146.1490 C   0  0  0  0  0  2  0  0  0  0  0  0
  197.5850  173.8780  143.9850 C   0  0  0  0  0  2  0  0  0  0  0  0
  1 26  2  0  0  0  0
  3 19  1  0  0  0  0
  3 16  2  0  0  0  0
  4 23  1  0  0  0  0
  5 15  1  0  0  0  0
  7  6  1  0  0  0  0
  7  3  1  0  0  0  0
  8 12  1  0  0  0  0
  9 25  1  0  0  0  0
  9 27  1  0  0  0  0
 10 17  2  0  0  0  0
 11  5  2  0  0  0  0
 11 20  1  0  0  0  0
 13 20  1  0  0  0  0
 13  9  2  0  0  0  0
 14  2  2  0  0  0  0
 15 12  1  0  0  0  0
 15  4  2  0  0  0  0
 16  8  1  0  0  0  0
 17 28  1  0  0  0  0
 17 25  1  0  0  0  0
 18  4  1  6  0  0  0
 18  1  1  0  0  0  0
 19  6  1  6  0  0  0
 19  5  1  0  0  0  0
 20 18  1  0  0  0  0
 22 24  2  0  0  0  0
 22 10  1  0  0  0  0
 23 21  2  0  0  0  0
 24 13  1  0  0  0  0
 25 14  1  6  0  0  0
 26 21  1  0  0  0  0
 27  1  1  0  0  0  0
 27  2  1  0  0  0  0
 29 28  1  0  0  0  0
 30 33  1  0  0  0  0
 31 33  1  0  0  0  0
 32 29  1  6  0  0  0
 32 31  1  0  0  0  0
 34 32  1  0  0  0  0
 34 30  1  0  0  0  0
M  END
>  <MODEL>
8

>  <REMARK>
 VINA RESULT:      -7.8      2.161      4.044
  Name = 
  3 active torsions:
  status: ('A' for Active; 'I' for Inactive)
    1  A    between atoms: C_17  and  O_28
    2  A    between atoms: O_28  and  C_29
    3  A    between atoms: C_29  and  C_32
                            x       y       z     vdW  Elec       q    Type
                         _______ _______ _______ _____ _____    ______ ____

>  <TORSDO>
F 3

$$$$
=
 OpenBabel11112417443D

 34 41  0  0  1  0  0  0  0  0999 V2000
  191.4940  176.4900  146.2430 C   0  0  0  0  0  0  0  0  0  0  0  0
  193.8800  175.8960  146.7080 C   0  0  0  0  0  3  0  0  0  0  0  0
  186.3280  176.8610  142.2440 C   0  0  0  0  0  0  0  0  0  0  0  0
  189.1840  176.9550  145.6040 C   0  0  0  0  0  0  0  0  0  0  0  0
  188.4760  176.2210  143.3490 C   0  0  0  0  0  0  0  0  0  0  0  0
  187.7120  176.1060  140.9930 C   0  0  0  0  0  2  0  0  0  0  0  0
  186.6370  177.0160  140.8430 O   0  0  0  0  0  0  0  0  0  0  0  0
  185.6220  177.0110  144.4720 C   0  0  0  0  0  2  0  0  0  0  0  0
  193.0930  175.4370  144.7380 C   0  0  0  0  0  0  0  0  0  0  0  0
  194.8320  174.7630  142.3070 C   0  0  0  0  0  3  0  0  0  0  0  0
  189.6990  175.7280  143.0900 C   0  0  0  0  0  3  0  0  0  0  0  0
  186.9080  177.6040  145.0330 C   0  0  0  0  0  2  0  0  0  0  0  0
  192.1060  175.3100  143.6240 C   0  0  0  0  0  0  0  0  0  0  0  0
  194.9160  175.3060  145.9860 C   0  0  0  0  0  3  0  0  0  0  0  0
  188.1960  176.8760  144.6890 C   0  0  0  0  0  0  0  0  0  0  0  0
  185.5020  177.3910  143.0780 N   0  0  0  0  0  0  0  0  0  0  0  0
  195.1150  174.4200  143.5730 C   0  0  0  0  0  0  0  0  0  0  0  0
  190.5290  176.4280  145.3060 C   0  0  1  0  0  3  0  0  0  0  0  0
  187.3890  175.8330  142.3670 C   0  0  2  0  0  3  0  0  0  0  0  0
  190.7920  175.8630  144.0060 N   0  0  0  0  0  0  0  0  0  0  0  0
  190.0250  177.6030  147.8570 C   0  0  0  0  0  3  0  0  0  0  0  0
  193.8020  175.7110  141.8210 C   0  0  0  0  0  3  0  0  0  0  0  0
  188.9690  177.5580  146.8910 N   0  0  0  0  0  0  0  0  0  0  0  0
  192.6290  175.9910  142.3970 C   0  0  0  0  0  3  0  0  0  0  0  0
  194.3980  175.0180  144.7290 C   0  0  2  0  0  3  0  0  0  0  0  0
  191.2270  177.0980  147.5660 C   0  0  0  0  0  3  0  0  0  0  0  0
  192.7850  175.9630  145.9270 N   0  0  0  0  0  0  0  0  0  0  0  0
  196.1410  173.4820  143.7480 O   0  0  0  0  0  0  0  0  0  0  0  0
  195.9340  172.0890  143.9510 C   0  0  0  0  0  2  0  0  0  0  0  0
  195.1020  169.5420  145.8140 O   0  0  0  0  0  0  0  0  0  0  0  0
  196.8730  171.0890  146.0100 C   0  0  0  0  0  2  0  0  0  0  0  0
  195.6910  171.8040  145.4250 C   0  0  2  0  0  3  0  0  0  0  0  0
  196.2980  169.7840  146.5040 C   0  0  0  0  0  2  0  0  0  0  0  0
  194.5580  170.8120  145.5660 C   0  0  0  0  0  2  0  0  0  0  0  0
  1 26  2  0  0  0  0
  3 19  1  0  0  0  0
  3 16  2  0  0  0  0
  4 23  1  0  0  0  0
  5 15  1  0  0  0  0
  7  6  1  0  0  0  0
  7  3  1  0  0  0  0
  8 12  1  0  0  0  0
  9 27  1  0  0  0  0
 10 17  2  0  0  0  0
 11  5  2  0  0  0  0
 11 20  1  0  0  0  0
 13 20  1  0  0  0  0
 13  9  2  0  0  0  0
 14  2  2  0  0  0  0
 15 12  1  0  0  0  0
 15  4  2  0  0  0  0
 16  8  1  0  0  0  0
 17 28  1  0  0  0  0
 17 25  1  0  0  0  0
 18  4  1  6  0  0  0
 18  1  1  0  0  0  0
 19  6  1  6  0  0  0
 19  5  1  0  0  0  0
 20 18  1  0  0  0  0
 22 10  1  0  0  0  0
 22 24  2  0  0  0  0
 23 21  2  0  0  0  0
 24 13  1  0  0  0  0
 25  9  1  0  0  0  0
 25 14  1  6  0  0  0
 26 21  1  0  0  0  0
 27  1  1  0  0  0  0
 27  2  1  0  0  0  0
 28 29  1  0  0  0  0
 30 33  1  0  0  0  0
 31 33  1  0  0  0  0
 32 29  1  6  0  0  0
 32 34  1  0  0  0  0
 32 31  1  0  0  0  0
 34 30  1  0  0  0  0
M  END
>  <MODEL>
9

>  <REMARK>
 VINA RESULT:      -7.7      2.500      4.614
  Name = 
  3 active torsions:
  status: ('A' for Active; 'I' for Inactive)
    1  A    between atoms: C_17  and  O_28
    2  A    between atoms: O_28  and  C_29
    3  A    between atoms: C_29  and  C_32
                            x       y       z     vdW  Elec       q    Type
                         _______ _______ _______ _____ _____    ______ ____

>  <TORSDO>
F 3

$$$$
