=
 OpenBabel11112416343D

 32 37  0  0  1  0  0  0  0  0999 V2000
  194.6060  175.2690  146.2550 C   0  0  0  0  0  2  0  0  0  0  0  0
  189.9360  176.3130  144.2080 C   0  0  0  0  0  0  0  0  0  0  0  0
  189.8960  173.6450  140.1380 C   0  0  0  0  0  3  0  0  0  0  0  0
  188.5360  173.9100  139.9700 C   0  0  0  0  0  3  0  0  0  0  0  0
  187.8430  177.4400  145.0800 C   0  0  1  0  0  3  0  0  0  0  0  0
  186.6230  178.0870  144.5040 C   0  0  0  0  0  0  0  0  0  0  0  0
  191.9000  176.0630  145.7580 C   0  0  1  0  0  3  0  0  0  0  0  0
  192.0030  175.2200  143.4460 N   0  0  0  0  0  2  0  0  0  0  0  0
  184.7700  178.3790  143.3070 C   0  0  0  0  0  0  0  0  0  0  0  0
  193.9990  174.9270  144.8840 C   0  0  2  0  0  3  0  0  0  0  0  0
  190.5830  174.1810  141.2280 C   0  0  0  0  0  3  0  0  0  0  0  0
  190.6120  175.5230  143.2580 C   0  0  0  0  0  0  0  0  0  0  0  0
  189.9180  174.9870  142.1640 C   0  0  0  0  0  0  0  0  0  0  0  0
  187.8610  176.0660  142.9300 C   0  0  0  0  0  0  0  0  0  0  0  0
  184.6870  179.3100  144.1990 N   0  0  0  0  0  0  0  0  0  0  0  0
  194.1970  176.6570  146.7440 C   0  0  0  0  0  2  0  0  0  0  0  0
  192.7840  175.8070  144.5310 C   0  0  2  0  0  3  0  0  0  0  0  0
  185.8570  179.2360  145.0740 C   0  0  0  0  0  2  0  0  0  0  0  0
  192.6740  176.7570  146.8890 C   0  0  0  0  0  2  0  0  0  0  0  0
  187.8620  174.7110  140.8930 C   0  0  0  0  0  3  0  0  0  0  0  0
  188.5380  175.2580  141.9970 C   0  0  0  0  0  0  0  0  0  0  0  0
  186.3820  176.3510  142.7500 C   0  0  0  0  0  2  0  0  0  0  0  0
  190.7030  176.9190  145.3580 C   0  0  0  0  0  2  0  0  0  0  0  0
  187.3790  176.4280  146.4720 Cl  0  0  0  0  0  0  0  0  0  0  0  0
  183.7320  178.1610  142.2640 C   0  0  0  0  0  1  0  0  0  0  0  0
  188.5640  176.5950  144.0460 C   0  0  0  0  0  0  0  0  0  0  0  0
  185.9760  177.5990  143.4680 C   0  0  0  0  0  0  0  0  0  0  0  0
  193.6520  173.5710  144.8690 O   0  0  0  0  0  0  0  0  0  0  0  0
  194.7640  172.9100  145.3930 C   0  0  0  0  0  2  0  0  0  0  0  0
  194.5080  171.4440  145.4140 C   0  0  0  0  0  0  0  0  0  0  0  0
  195.2090  170.6940  146.1400 O   0  0  0  0  0  0  0  0  0  0  0  0
  193.4980  170.8870  144.5810 N   0  0  0  0  0  1  0  0  0  0  0  0
  1 16  1  0  0  0  0
  2 23  1  0  0  0  0
  3 11  1  0  0  0  0
  4  3  2  0  0  0  0
  4 20  1  0  0  0  0
  5 24  1  1  0  0  0
  6 18  1  0  0  0  0
  6  5  1  0  0  0  0
  7 23  1  6  0  0  0
  7 19  1  0  0  0  0
  9 27  1  0  0  0  0
  9 15  2  0  0  0  0
 10 28  1  1  0  0  0
 10  1  1  0  0  0  0
 11 13  2  0  0  0  0
 12  8  1  0  0  0  0
 12  2  2  0  0  0  0
 13 12  1  0  0  0  0
 14 26  2  0  0  0  0
 15 18  1  0  0  0  0
 16 19  1  0  0  0  0
 17  8  1  6  0  0  0
 17 10  1  0  0  0  0
 17  7  1  0  0  0  0
 20 21  2  0  0  0  0
 21 13  1  0  0  0  0
 21 14  1  0  0  0  0
 22 14  1  0  0  0  0
 22 27  1  0  0  0  0
 25  9  1  0  0  0  0
 26  2  1  0  0  0  0
 26  5  1  0  0  0  0
 27  6  2  0  0  0  0
 28 29  1  0  0  0  0
 29 30  1  0  0  0  0
 30 31  2  0  0  0  0
 32 30  1  0  0  0  0
M  END
>  <MODEL>
1

>  <REMARK>
 VINA RESULT:      -8.5      0.000      0.000
  Name = 
  3 active torsions:
  status: ('A' for Active; 'I' for Inactive)
    1  A    between atoms: C_10  and  O_20
    2  A    between atoms: O_20  and  C_29
    3  A    between atoms: C_29  and  C_30
                            x       y       z     vdW  Elec       q    Type
                         _______ _______ _______ _____ _____    ______ ____

>  <TORSDO>
F 3

$$$$
=
 OpenBabel11112416343D

 32 37  0  0  1  0  0  0  0  0999 V2000
  184.4060  178.3150  143.0520 C   0  0  0  0  0  2  0  0  0  0  0  0
  189.2180  176.3560  143.3690 C   0  0  0  0  0  0  0  0  0  0  0  0
  190.4590  177.2250  147.9950 C   0  0  0  0  0  3  0  0  0  0  0  0
  191.5890  176.4200  147.8490 C   0  0  0  0  0  3  0  0  0  0  0  0
  190.6110  174.8580  141.8770 C   0  0  1  0  0  3  0  0  0  0  0  0
  192.0600  174.5320  141.6940 C   0  0  0  0  0  0  0  0  0  0  0  0
  186.8720  176.9120  142.6580 C   0  0  1  0  0  3  0  0  0  0  0  0
  187.7930  177.7950  144.7650 N   0  0  0  0  0  2  0  0  0  0  0  0
  194.1420  173.8960  142.1560 C   0  0  0  0  0  0  0  0  0  0  0  0
  185.4720  178.4130  144.1580 C   0  0  2  0  0  3  0  0  0  0  0  0
  189.5930  177.4150  146.9170 C   0  0  0  0  0  3  0  0  0  0  0  0
  188.9730  176.9930  144.6010 C   0  0  0  0  0  0  0  0  0  0  0  0
  189.8460  176.8000  145.6810 C   0  0  0  0  0  0  0  0  0  0  0  0
  191.2560  175.3620  144.2940 C   0  0  0  0  0  0  0  0  0  0  0  0
  194.0860  173.7900  140.8700 N   0  0  0  0  0  0  0  0  0  0  0  0
  185.0120  178.3730  141.6520 C   0  0  0  0  0  2  0  0  0  0  0  0
  186.8890  178.0790  143.6530 C   0  0  2  0  0  3  0  0  0  0  0  0
  192.7500  174.1790  140.4180 C   0  0  0  0  0  3  0  0  0  0  0  0
  185.9940  177.2150  141.4340 C   0  0  0  0  0  2  0  0  0  0  0  0
  191.8540  175.8030  146.6250 C   0  0  0  0  0  3  0  0  0  0  0  0
  190.9920  175.9820  145.5300 C   0  0  0  0  0  0  0  0  0  0  0  0
  192.4830  174.4830  144.1370 C   0  0  0  0  0  2  0  0  0  0  0  0
  188.2940  176.6060  142.2020 C   0  0  0  0  0  2  0  0  0  0  0  0
  189.6460  173.3620  141.7800 Cl  0  0  0  0  0  0  0  0  0  0  0  0
  195.3580  173.5620  142.9450 C   0  0  0  0  0  1  0  0  0  0  0  0
  190.3600  175.5470  143.2070 C   0  0  0  0  0  0  0  0  0  0  0  0
  192.8880  174.3650  142.7020 C   0  0  2  0  0  3  0  0  0  0  0  0
  185.1070  177.5680  145.2130 O   0  0  0  0  0  0  0  0  0  0  0  0
  184.5820  178.4170  146.1880 C   0  0  0  0  0  2  0  0  0  0  0  0
  185.5410  178.5260  147.3210 C   0  0  0  0  0  0  0  0  0  0  0  0
  185.9220  179.6590  147.7160 O   0  0  0  0  0  0  0  0  0  0  0  0
  186.0580  177.3500  147.9310 N   0  0  0  0  0  1  0  0  0  0  0  0
  1 10  1  0  0  0  0
  2 12  1  0  0  0  0
  4  3  1  0  0  0  0
  5 24  1  1  0  0  0
  5 26  1  0  0  0  0
  6  5  1  0  0  0  0
  6 27  1  0  0  0  0
  7 19  1  6  0  0  0
  7 17  1  0  0  0  0
  9 27  1  0  0  0  0
  9 25  1  0  0  0  0
 10 28  1  1  0  0  0
 11  3  2  0  0  0  0
 12  8  1  0  0  0  0
 12 13  2  0  0  0  0
 13 11  1  0  0  0  0
 14 21  2  0  0  0  0
 15  9  2  0  0  0  0
 16  1  1  0  0  0  0
 17 10  1  0  0  0  0
 17  8  1  1  0  0  0
 18 15  1  0  0  0  0
 18  6  2  0  0  0  0
 19 16  1  0  0  0  0
 20  4  2  0  0  0  0
 21 13  1  0  0  0  0
 21 20  1  0  0  0  0
 22 14  1  0  0  0  0
 23  7  1  0  0  0  0
 23  2  1  0  0  0  0
 26  2  2  0  0  0  0
 26 14  1  0  0  0  0
 27 22  1  1  0  0  0
 28 29  1  0  0  0  0
 29 30  1  0  0  0  0
 30 31  2  0  0  0  0
 30 32  1  0  0  0  0
M  END
>  <MODEL>
2

>  <REMARK>
 VINA RESULT:      -8.3      3.523      8.219
  Name = 
  3 active torsions:
  status: ('A' for Active; 'I' for Inactive)
    1  A    between atoms: C_10  and  O_20
    2  A    between atoms: O_20  and  C_29
    3  A    between atoms: C_29  and  C_30
                            x       y       z     vdW  Elec       q    Type
                         _______ _______ _______ _____ _____    ______ ____

>  <TORSDO>
F 3

$$$$
=
 OpenBabel11112416343D

 32 37  0  0  1  0  0  0  0  0999 V2000
  190.6310  172.2950  139.2390 C   0  0  0  0  0  2  0  0  0  0  0  0
  188.7970  175.2370  143.1210 C   0  0  0  0  0  0  0  0  0  0  0  0
  192.2330  174.8120  146.5430 C   0  0  0  0  0  3  0  0  0  0  0  0
  191.6320  175.8330  147.2810 C   0  0  0  0  0  3  0  0  0  0  0  0
  186.9360  176.9430  143.3100 C   0  0  1  0  0  3  0  0  0  0  0  0
  186.1200  177.5620  144.4010 C   0  0  0  0  0  0  0  0  0  0  0  0
  189.2290  174.1730  140.8850 C   0  0  1  0  0  3  0  0  0  0  0  0
  190.5930  173.5800  142.8470 N   0  0  0  0  0  2  0  0  0  0  0  0
  185.5980  178.6390  146.2770 C   0  0  0  0  0  0  0  0  0  0  0  0
  191.1000  172.4640  140.6940 C   0  0  2  0  0  3  0  0  0  0  0  0
  191.6740  174.4060  145.3300 C   0  0  0  0  0  3  0  0  0  0  0  0
  189.9540  174.6060  143.6210 C   0  0  0  0  0  0  0  0  0  0  0  0
  190.5100  175.0170  144.8400 C   0  0  0  0  0  0  0  0  0  0  0  0
  188.7290  176.6720  145.1050 C   0  0  0  0  0  0  0  0  0  0  0  0
  184.4980  178.6870  145.6010 N   0  0  0  0  0  0  0  0  0  0  0  0
  189.1100  172.3180  139.1110 C   0  0  0  0  0  2  0  0  0  0  0  0
  190.0160  173.0720  141.6050 C   0  0  2  0  0  3  0  0  0  0  0  0
  184.6970  178.0080  144.3200 C   0  0  0  0  0  3  0  0  0  0  0  0
  188.5400  173.6490  139.6160 C   0  0  0  0  0  2  0  0  0  0  0  0
  190.4730  176.4490  146.8060 C   0  0  0  0  0  3  0  0  0  0  0  0
  189.8980  176.0540  145.5860 C   0  0  0  0  0  0  0  0  0  0  0  0
  188.0790  177.7850  145.9060 C   0  0  0  0  0  2  0  0  0  0  0  0
  188.1840  174.7570  141.8280 C   0  0  0  0  0  2  0  0  0  0  0  0
  187.4060  178.1980  142.1330 Cl  0  0  0  0  0  0  0  0  0  0  0  0
  185.7490  179.2510  147.6250 C   0  0  0  0  0  1  0  0  0  0  0  0
  188.1770  176.2640  143.8610 C   0  0  0  0  0  0  0  0  0  0  0  0
  186.6330  177.9360  145.5530 C   0  0  2  0  0  3  0  0  0  0  0  0
  192.2590  173.2480  140.7080 O   0  0  0  0  0  0  0  0  0  0  0  0
  192.5630  173.4630  139.3620 C   0  0  0  0  0  2  0  0  0  0  0  0
  193.5650  174.5580  139.2470 C   0  0  0  0  0  0  0  0  0  0  0  0
  194.1390  174.9950  140.2770 O   0  0  0  0  0  0  0  0  0  0  0  0
  193.8410  175.1380  137.9780 N   0  0  0  0  0  1  0  0  0  0  0  0
  1 10  1  0  0  0  0
  2 12  2  0  0  0  0
  2 26  1  0  0  0  0
  3  4  1  0  0  0  0
  5 24  1  6  0  0  0
  5 26  1  0  0  0  0
  5  6  1  0  0  0  0
  6 27  1  0  0  0  0
  7 19  1  6  0  0  0
  7 17  1  0  0  0  0
  7 23  1  0  0  0  0
  8 12  1  0  0  0  0
  9 25  1  0  0  0  0
 10 28  1  6  0  0  0
 10 17  1  0  0  0  0
 11  3  2  0  0  0  0
 12 13  1  0  0  0  0
 13 11  1  0  0  0  0
 13 21  2  0  0  0  0
 14 21  1  0  0  0  0
 14 22  1  0  0  0  0
 15  9  2  0  0  0  0
 16  1  1  0  0  0  0
 16 19  1  0  0  0  0
 17  8  1  1  0  0  0
 18  6  2  0  0  0  0
 18 15  1  0  0  0  0
 20  4  2  0  0  0  0
 21 20  1  0  0  0  0
 23  2  1  0  0  0  0
 26 14  2  0  0  0  0
 27 22  1  6  0  0  0
 27  9  1  0  0  0  0
 29 28  1  0  0  0  0
 30 29  1  0  0  0  0
 30 31  2  0  0  0  0
 32 30  1  0  0  0  0
M  END
>  <MODEL>
3

>  <REMARK>
 VINA RESULT:      -8.0      2.450      5.326
  Name = 
  3 active torsions:
  status: ('A' for Active; 'I' for Inactive)
    1  A    between atoms: C_10  and  O_20
    2  A    between atoms: O_20  and  C_29
    3  A    between atoms: C_29  and  C_30
                            x       y       z     vdW  Elec       q    Type
                         _______ _______ _______ _____ _____    ______ ____

>  <TORSDO>
F 3

$$$$
=
 OpenBabel11112416343D

 32 37  0  0  1  0  0  0  0  0999 V2000
  184.3890  178.6830  144.7620 C   0  0  0  0  0  2  0  0  0  0  0  0
  189.0690  176.5190  144.0480 C   0  0  0  0  0  0  0  0  0  0  0  0
  188.1920  173.0660  140.7310 C   0  0  0  0  0  3  0  0  0  0  0  0
  189.5630  172.8640  140.5710 C   0  0  0  0  0  3  0  0  0  0  0  0
  191.4270  177.1710  144.6970 C   0  0  1  0  0  3  0  0  0  0  0  0
  192.7510  176.4900  144.8540 C   0  0  0  0  0  0  0  0  0  0  0  0
  187.1840  178.0660  144.6600 C   0  0  1  0  0  3  0  0  0  0  0  0
  186.7490  175.9690  143.4440 N   0  0  0  0  0  2  0  0  0  0  0  0
  194.5570  175.2790  144.3800 C   0  0  0  0  0  0  0  0  0  0  0  0
  184.8160  177.4140  144.0040 C   0  0  2  0  0  3  0  0  0  0  0  0
  187.7280  174.0190  141.6400 C   0  0  0  0  0  3  0  0  0  0  0  0
  188.1590  175.7390  143.3060 C   0  0  0  0  0  0  0  0  0  0  0  0
  188.6300  174.7830  142.3960 C   0  0  0  0  0  0  0  0  0  0  0  0
  190.9360  175.3390  142.9900 C   0  0  0  0  0  0  0  0  0  0  0  0
  194.9320  175.9680  145.4070 N   0  0  0  0  0  0  0  0  0  0  0  0
  185.1850  178.8880  146.0490 C   0  0  0  0  0  2  0  0  0  0  0  0
  186.2090  176.9060  144.4260 C   0  0  2  0  0  3  0  0  0  0  0  0
  193.8270  176.8270  145.8340 C   0  0  0  0  0  2  0  0  0  0  0  0
  186.6820  179.0270  145.7490 C   0  0  0  0  0  2  0  0  0  0  0  0
  190.4710  173.6150  141.3170 C   0  0  0  0  0  3  0  0  0  0  0  0
  190.0230  174.5800  142.2350 C   0  0  0  0  0  0  0  0  0  0  0  0
  192.4270  175.1220  142.8120 C   0  0  0  0  0  2  0  0  0  0  0  0
  188.5500  177.5160  145.0550 C   0  0  0  0  0  2  0  0  0  0  0  0
  191.6590  178.7430  143.8880 Cl  0  0  0  0  0  0  0  0  0  0  0  0
  195.4470  174.3130  143.6830 C   0  0  0  0  0  1  0  0  0  0  0  0
  190.4560  176.3190  143.9000 C   0  0  0  0  0  0  0  0  0  0  0  0
  193.1920  175.5810  144.0130 C   0  0  0  0  0  0  0  0  0  0  0  0
  184.7770  177.6750  142.6290 O   0  0  0  0  0  0  0  0  0  0  0  0
  183.5430  178.2910  142.4150 C   0  0  0  0  0  2  0  0  0  0  0  0
  183.2320  178.2910  140.9600 C   0  0  0  0  0  0  0  0  0  0  0  0
  184.1670  178.2930  140.1180 O   0  0  0  0  0  0  0  0  0  0  0  0
  181.8800  178.3300  140.5210 N   0  0  0  0  0  1  0  0  0  0  0  0
  1 16  1  0  0  0  0
  2 23  1  0  0  0  0
  3 11  1  0  0  0  0
  4  3  2  0  0  0  0
  4 20  1  0  0  0  0
  5 24  1  6  0  0  0
  5  6  1  0  0  0  0
  6 18  1  0  0  0  0
  7 23  1  1  0  0  0
  7 19  1  0  0  0  0
  9 15  2  0  0  0  0
 10 28  1  6  0  0  0
 10 17  1  0  0  0  0
 10  1  1  0  0  0  0
 11 13  2  0  0  0  0
 12  8  1  0  0  0  0
 12  2  2  0  0  0  0
 13 12  1  0  0  0  0
 14 26  2  0  0  0  0
 15 18  1  0  0  0  0
 17  8  1  6  0  0  0
 17  7  1  0  0  0  0
 19 16  1  0  0  0  0
 20 21  2  0  0  0  0
 21 13  1  0  0  0  0
 21 14  1  0  0  0  0
 22 14  1  0  0  0  0
 22 27  1  0  0  0  0
 25  9  1  0  0  0  0
 26  2  1  0  0  0  0
 26  5  1  0  0  0  0
 27  9  1  0  0  0  0
 27  6  2  0  0  0  0
 29 28  1  0  0  0  0
 30 29  1  0  0  0  0
 31 30  2  0  0  0  0
 32 30  1  0  0  0  0
M  END
>  <MODEL>
4

>  <REMARK>
 VINA RESULT:      -8.0      3.535      7.903
  Name = 
  3 active torsions:
  status: ('A' for Active; 'I' for Inactive)
    1  A    between atoms: C_10  and  O_20
    2  A    between atoms: O_20  and  C_29
    3  A    between atoms: C_29  and  C_30
                            x       y       z     vdW  Elec       q    Type
                         _______ _______ _______ _____ _____    ______ ____

>  <TORSDO>
F 3

$$$$
=
 OpenBabel11112416343D

 32 37  0  0  1  0  0  0  0  0999 V2000
  184.2740  178.7750  144.7400 C   0  0  0  0  0  2  0  0  0  0  0  0
  188.4070  175.8730  143.4750 C   0  0  0  0  0  0  0  0  0  0  0  0
  191.2370  176.2080  147.4210 C   0  0  0  0  0  3  0  0  0  0  0  0
  192.0640  175.2020  146.9200 C   0  0  0  0  0  3  0  0  0  0  0  0
  188.8930  174.2140  141.6270 C   0  0  1  0  0  3  0  0  0  0  0  0
  190.1020  173.6140  140.9800 C   0  0  0  0  0  0  0  0  0  0  0  0
  186.1270  176.9300  143.5720 C   0  0  1  0  0  3  0  0  0  0  0  0
  187.8460  177.4870  145.2450 N   0  0  0  0  0  2  0  0  0  0  0  0
  192.0390  172.5470  140.7360 C   0  0  0  0  0  0  0  0  0  0  0  0
  185.6370  178.5930  145.4310 C   0  0  2  0  0  3  0  0  0  0  0  0
  190.1270  176.6300  146.6870 C   0  0  0  0  0  3  0  0  0  0  0  0
  188.7140  176.4750  144.7120 C   0  0  0  0  0  0  0  0  0  0  0  0
  189.8300  176.0480  145.4450 C   0  0  0  0  0  0  0  0  0  0  0  0
  190.3790  174.4380  143.6880 C   0  0  0  0  0  0  0  0  0  0  0  0
  191.5470  172.5280  139.5420 N   0  0  0  0  0  0  0  0  0  0  0  0
  184.3900  178.7900  143.2180 C   0  0  0  0  0  2  0  0  0  0  0  0
  186.7110  178.0100  144.4910 C   0  0  2  0  0  3  0  0  0  0  0  0
  190.2490  173.2040  139.5510 C   0  0  0  0  0  3  0  0  0  0  0  0
  184.9830  177.4730  142.7030 C   0  0  0  0  0  2  0  0  0  0  0  0
  191.7810  174.6150  145.6860 C   0  0  0  0  0  3  0  0  0  0  0  0
  190.6670  175.0260  144.9340 C   0  0  0  0  0  0  0  0  0  0  0  0
  191.2760  173.3400  143.1460 C   0  0  0  0  0  2  0  0  0  0  0  0
  187.2270  176.3710  142.6760 C   0  0  0  0  0  2  0  0  0  0  0  0
  187.6590  172.9500  141.8720 Cl  0  0  0  0  0  0  0  0  0  0  0  0
  193.3480  171.9300  141.0840 C   0  0  0  0  0  1  0  0  0  0  0  0
  189.2380  174.8610  142.9550 C   0  0  0  0  0  0  0  0  0  0  0  0
  191.1580  173.2260  141.6590 C   0  0  2  0  0  3  0  0  0  0  0  0
  185.4680  177.7800  146.5570 O   0  0  0  0  0  0  0  0  0  0  0  0
  185.0680  178.6500  147.5720 C   0  0  0  0  0  2  0  0  0  0  0  0
  186.2540  179.3780  148.1000 C   0  0  0  0  0  0  0  0  0  0  0  0
  186.2100  180.6270  148.2470 O   0  0  0  0  0  0  0  0  0  0  0  0
  187.4490  178.6680  148.3980 N   0  0  0  0  0  1  0  0  0  0  0  0
  1 10  1  0  0  0  0
  2 12  1  0  0  0  0
  4  3  1  0  0  0  0
  5 24  1  1  0  0  0
  5 26  1  0  0  0  0
  6  5  1  0  0  0  0
  6 27  1  0  0  0  0
  7 23  1  6  0  0  0
  7 17  1  0  0  0  0
  9 25  1  0  0  0  0
  9 27  1  0  0  0  0
 10 28  1  1  0  0  0
 11  3  2  0  0  0  0
 12  8  1  0  0  0  0
 12 13  2  0  0  0  0
 13 11  1  0  0  0  0
 14 21  2  0  0  0  0
 15 18  1  0  0  0  0
 15  9  2  0  0  0  0
 16  1  1  0  0  0  0
 17  8  1  1  0  0  0
 17 10  1  0  0  0  0
 18  6  2  0  0  0  0
 19 16  1  0  0  0  0
 19  7  1  0  0  0  0
 20  4  2  0  0  0  0
 21 13  1  0  0  0  0
 21 20  1  0  0  0  0
 22 14  1  0  0  0  0
 23  2  1  0  0  0  0
 26  2  2  0  0  0  0
 26 14  1  0  0  0  0
 27 22  1  1  0  0  0
 28 29  1  0  0  0  0
 29 30  1  0  0  0  0
 30 31  2  0  0  0  0
 30 32  1  0  0  0  0
M  END
>  <MODEL>
5

>  <REMARK>
 VINA RESULT:      -7.9      3.589      7.970
  Name = 
  3 active torsions:
  status: ('A' for Active; 'I' for Inactive)
    1  A    between atoms: C_10  and  O_20
    2  A    between atoms: O_20  and  C_29
    3  A    between atoms: C_29  and  C_30
                            x       y       z     vdW  Elec       q    Type
                         _______ _______ _______ _____ _____    ______ ____

>  <TORSDO>
F 3

$$$$
=
 OpenBabel11112416343D

 32 37  0  0  1  0  0  0  0  0999 V2000
  185.2820  178.2780  145.3650 C   0  0  0  0  0  2  0  0  0  0  0  0
  189.4940  175.5170  144.0510 C   0  0  0  0  0  0  0  0  0  0  0  0
  188.5250  174.1350  139.4860 C   0  0  0  0  0  3  0  0  0  0  0  0
  189.8370  173.6810  139.3390 C   0  0  0  0  0  3  0  0  0  0  0  0
  191.7900  175.2150  145.0730 C   0  0  1  0  0  3  0  0  0  0  0  0
  192.9070  174.2220  144.9900 C   0  0  0  0  0  0  0  0  0  0  0  0
  187.8760  177.0800  145.1730 C   0  0  1  0  0  3  0  0  0  0  0  0
  187.2470  175.8780  143.1180 N   0  0  0  0  0  2  0  0  0  0  0  0
  194.4920  172.9130  144.1380 C   0  0  0  0  0  0  0  0  0  0  0  0
  185.5720  177.3870  144.1450 C   0  0  2  0  0  3  0  0  0  0  0  0
  188.1120  174.6970  140.6950 C   0  0  0  0  0  3  0  0  0  0  0  0
  188.5870  175.3810  142.9810 C   0  0  0  0  0  0  0  0  0  0  0  0
  189.0070  174.8150  141.7700 C   0  0  0  0  0  0  0  0  0  0  0  0
  191.2430  174.4660  142.6960 C   0  0  0  0  0  0  0  0  0  0  0  0
  194.8170  172.9840  145.3860 N   0  0  0  0  0  0  0  0  0  0  0  0
  185.8730  177.7120  146.6530 C   0  0  0  0  0  2  0  0  0  0  0  0
  186.7450  176.4150  144.3800 C   0  0  2  0  0  3  0  0  0  0  0  0
  193.8470  173.8300  146.0830 C   0  0  0  0  0  2  0  0  0  0  0  0
  187.3970  177.5820  146.5440 C   0  0  0  0  0  2  0  0  0  0  0  0
  190.7360  173.7900  140.4000 C   0  0  0  0  0  3  0  0  0  0  0  0
  190.3380  174.3550  141.6230 C   0  0  0  0  0  0  0  0  0  0  0  0
  192.6700  173.9760  142.5350 C   0  0  0  0  0  2  0  0  0  0  0  0
  189.0190  176.0890  145.3640 C   0  0  0  0  0  2  0  0  0  0  0  0
  192.4610  176.8670  145.0760 Cl  0  0  0  0  0  0  0  0  0  0  0  0
  195.2780  172.1420  143.1380 C   0  0  0  0  0  1  0  0  0  0  0  0
  190.8190  175.0550  143.9180 C   0  0  0  0  0  0  0  0  0  0  0  0
  193.2960  173.6750  143.8600 C   0  0  0  0  0  0  0  0  0  0  0  0
  185.8180  178.2050  143.0360 O   0  0  0  0  0  0  0  0  0  0  0  0
  184.5870  178.3090  142.3860 C   0  0  0  0  0  2  0  0  0  0  0  0
  184.7880  178.1880  140.9170 C   0  0  0  0  0  0  0  0  0  0  0  0
  183.8060  178.2920  140.1380 O   0  0  0  0  0  0  0  0  0  0  0  0
  186.0830  177.9120  140.3960 N   0  0  0  0  0  1  0  0  0  0  0  0
  1 16  1  0  0  0  0
  2 23  1  0  0  0  0
  3 11  1  0  0  0  0
  4  3  2  0  0  0  0
  4 20  1  0  0  0  0
  5 24  1  6  0  0  0
  6  5  1  0  0  0  0
  6 18  1  0  0  0  0
  7 23  1  1  0  0  0
  7 19  1  0  0  0  0
  9 15  2  0  0  0  0
 10 28  1  6  0  0  0
 10 17  1  0  0  0  0
 10  1  1  0  0  0  0
 11 13  2  0  0  0  0
 12  8  1  0  0  0  0
 12  2  2  0  0  0  0
 13 12  1  0  0  0  0
 14 26  2  0  0  0  0
 15 18  1  0  0  0  0
 17  8  1  6  0  0  0
 17  7  1  0  0  0  0
 19 16  1  0  0  0  0
 20 21  2  0  0  0  0
 21 13  1  0  0  0  0
 21 14  1  0  0  0  0
 22 14  1  0  0  0  0
 22 27  1  0  0  0  0
 25  9  1  0  0  0  0
 26  2  1  0  0  0  0
 26  5  1  0  0  0  0
 27  9  1  0  0  0  0
 27  6  2  0  0  0  0
 29 28  1  0  0  0  0
 30 29  1  0  0  0  0
 31 30  2  0  0  0  0
 32 30  1  0  0  0  0
M  END
>  <MODEL>
6

>  <REMARK>
 VINA RESULT:      -7.8      3.339      7.689
  Name = 
  3 active torsions:
  status: ('A' for Active; 'I' for Inactive)
    1  A    between atoms: C_10  and  O_20
    2  A    between atoms: O_20  and  C_29
    3  A    between atoms: C_29  and  C_30
                            x       y       z     vdW  Elec       q    Type
                         _______ _______ _______ _____ _____    ______ ____

>  <TORSDO>
F 3

$$$$
=
 OpenBabel11112416343D

 32 37  0  0  1  0  0  0  0  0999 V2000
  192.4980  172.2530  139.9470 C   0  0  0  0  0  2  0  0  0  0  0  0
  189.4530  175.1740  142.9950 C   0  0  0  0  0  0  0  0  0  0  0  0
  191.9000  175.2990  147.2010 C   0  0  0  0  0  3  0  0  0  0  0  0
  191.0360  176.2850  147.6800 C   0  0  0  0  0  3  0  0  0  0  0  0
  187.4590  176.6750  142.5710 C   0  0  1  0  0  3  0  0  0  0  0  0
  186.3330  177.2570  143.3670 C   0  0  0  0  0  0  0  0  0  0  0  0
  190.5490  174.0490  141.0310 C   0  0  1  0  0  3  0  0  0  0  0  0
  191.4020  173.7080  143.3160 N   0  0  0  0  0  2  0  0  0  0  0  0
  185.2430  178.3660  144.9590 C   0  0  0  0  0  0  0  0  0  0  0  0
  192.5530  172.5460  141.4560 C   0  0  2  0  0  3  0  0  0  0  0  0
  191.7170  174.7730  145.9200 C   0  0  0  0  0  3  0  0  0  0  0  0
  190.4910  174.6980  143.8190 C   0  0  0  0  0  0  0  0  0  0  0  0
  190.6700  175.2290  145.1040 C   0  0  0  0  0  0  0  0  0  0  0  0
  188.7380  176.6920  144.7780 C   0  0  0  0  0  0  0  0  0  0  0  0
  184.3580  178.2590  144.0240 N   0  0  0  0  0  0  0  0  0  0  0  0
  191.0670  172.1040  139.4350 C   0  0  0  0  0  2  0  0  0  0  0  0
  191.2180  173.0790  142.0120 C   0  0  2  0  0  3  0  0  0  0  0  0
  184.9460  177.5410  142.8920 C   0  0  0  0  0  3  0  0  0  0  0  0
  190.2660  173.3890  139.6730 C   0  0  0  0  0  2  0  0  0  0  0  0
  189.9900  176.7460  146.8790 C   0  0  0  0  0  3  0  0  0  0  0  0
  189.7930  176.2300  145.5880 C   0  0  0  0  0  0  0  0  0  0  0  0
  187.8020  177.7670  145.2980 C   0  0  0  0  0  2  0  0  0  0  0  0
  189.2450  174.5640  141.6300 C   0  0  0  0  0  2  0  0  0  0  0  0
  188.1030  177.9110  141.4580 Cl  0  0  0  0  0  0  0  0  0  0  0  0
  184.9800  179.0580  146.2490 C   0  0  0  0  0  1  0  0  0  0  0  0
  188.5690  176.1630  143.4700 C   0  0  0  0  0  0  0  0  0  0  0  0
  186.4910  177.7420  144.5790 C   0  0  2  0  0  3  0  0  0  0  0  0
  193.5910  173.4510  141.7030 O   0  0  0  0  0  0  0  0  0  0  0  0
  194.6090  172.6840  142.2730 C   0  0  0  0  0  2  0  0  0  0  0  0
  195.0760  173.3300  143.5290 C   0  0  0  0  0  0  0  0  0  0  0  0
  195.9000  174.2790  143.4790 O   0  0  0  0  0  0  0  0  0  0  0  0
  194.6230  172.8480  144.7880 N   0  0  0  0  0  1  0  0  0  0  0  0
  1 10  1  0  0  0  0
  2 26  2  0  0  0  0
  2 12  1  0  0  0  0
  3  4  1  0  0  0  0
  5 24  1  6  0  0  0
  5  6  1  0  0  0  0
  5 26  1  0  0  0  0
  6 27  1  0  0  0  0
  7 19  1  6  0  0  0
  7 23  1  0  0  0  0
  7 17  1  0  0  0  0
  8 12  1  0  0  0  0
  9 25  1  0  0  0  0
 10 28  1  6  0  0  0
 10 17  1  0  0  0  0
 11  3  2  0  0  0  0
 12 13  2  0  0  0  0
 13 21  1  0  0  0  0
 13 11  1  0  0  0  0
 14 22  1  0  0  0  0
 14 21  2  0  0  0  0
 15  9  2  0  0  0  0
 16 19  1  0  0  0  0
 16  1  1  0  0  0  0
 17  8  1  1  0  0  0
 18  6  2  0  0  0  0
 18 15  1  0  0  0  0
 20  4  2  0  0  0  0
 21 20  1  0  0  0  0
 23  2  1  0  0  0  0
 26 14  1  0  0  0  0
 27  9  1  0  0  0  0
 27 22  1  6  0  0  0
 28 29  1  0  0  0  0
 29 30  1  0  0  0  0
 30 32  1  0  0  0  0
 31 30  2  0  0  0  0
M  END
>  <MODEL>
7

>  <REMARK>
 VINA RESULT:      -7.7      1.981      4.532
  Name = 
  3 active torsions:
  status: ('A' for Active; 'I' for Inactive)
    1  A    between atoms: C_10  and  O_20
    2  A    between atoms: O_20  and  C_29
    3  A    between atoms: C_29  and  C_30
                            x       y       z     vdW  Elec       q    Type
                         _______ _______ _______ _____ _____    ______ ____

>  <TORSDO>
F 3

$$$$
=
 OpenBabel11112416343D

 32 37  0  0  1  0  0  0  0  0999 V2000
  186.5480  177.8700  145.8210 C   0  0  0  0  0  2  0  0  0  0  0  0
  190.9590  175.5190  144.3650 C   0  0  0  0  0  0  0  0  0  0  0  0
  189.8230  173.6380  140.0220 C   0  0  0  0  0  3  0  0  0  0  0  0
  191.1650  173.3310  139.7980 C   0  0  0  0  0  3  0  0  0  0  0  0
  193.3460  175.5800  145.2050 C   0  0  1  0  0  3  0  0  0  0  0  0
  194.5680  174.7230  145.1030 C   0  0  0  0  0  0  0  0  0  0  0  0
  189.2490  176.9730  145.4990 C   0  0  1  0  0  3  0  0  0  0  0  0
  188.6200  175.5300  143.6050 N   0  0  0  0  0  2  0  0  0  0  0  0
  196.2330  173.5400  144.2200 C   0  0  0  0  0  0  0  0  0  0  0  0
  186.8530  176.9150  144.6530 C   0  0  2  0  0  3  0  0  0  0  0  0
  189.4360  174.2520  141.2150 C   0  0  0  0  0  3  0  0  0  0  0  0
  189.9960  175.1840  143.3920 C   0  0  0  0  0  0  0  0  0  0  0  0
  190.3890  174.5670  142.1960 C   0  0  0  0  0  0  0  0  0  0  0  0
  192.7160  174.5670  142.9500 C   0  0  0  0  0  0  0  0  0  0  0  0
  196.6420  173.7570  145.4270 N   0  0  0  0  0  0  0  0  0  0  0  0
  187.3020  177.4920  147.0940 C   0  0  0  0  0  2  0  0  0  0  0  0
  188.1530  176.1130  144.8600 C   0  0  2  0  0  3  0  0  0  0  0  0
  195.6310  174.5410  146.1370 C   0  0  0  0  0  2  0  0  0  0  0  0
  188.8180  177.5340  146.8630 C   0  0  0  0  0  2  0  0  0  0  0  0
  192.1230  173.6380  140.7660 C   0  0  0  0  0  3  0  0  0  0  0  0
  191.7520  174.2570  141.9710 C   0  0  0  0  0  0  0  0  0  0  0  0
  194.1760  174.2370  142.7030 C   0  0  0  0  0  2  0  0  0  0  0  0
  190.5180  176.1450  145.6660 C   0  0  0  0  0  2  0  0  0  0  0  0
  193.8040  177.2940  145.0210 Cl  0  0  0  0  0  0  0  0  0  0  0  0
  197.0310  172.7820  143.2190 C   0  0  0  0  0  1  0  0  0  0  0  0
  192.3160  175.2070  144.1540 C   0  0  0  0  0  0  0  0  0  0  0  0
  194.9340  174.1280  143.9890 C   0  0  0  0  0  0  0  0  0  0  0  0
  186.9100  177.6560  143.4670 O   0  0  0  0  0  0  0  0  0  0  0  0
  185.7700  177.2800  142.7540 C   0  0  0  0  0  2  0  0  0  0  0  0
  185.9750  177.5590  141.3060 C   0  0  0  0  0  0  0  0  0  0  0  0
  185.1610  178.2900  140.6860 O   0  0  0  0  0  0  0  0  0  0  0  0
  187.0660  176.9650  140.6150 N   0  0  0  0  0  1  0  0  0  0  0  0
  1 16  1  0  0  0  0
  2 23  1  0  0  0  0
  3 11  1  0  0  0  0
  4  3  2  0  0  0  0
  4 20  1  0  0  0  0
  5 24  1  6  0  0  0
  6  5  1  0  0  0  0
  6 18  1  0  0  0  0
  7 23  1  1  0  0  0
  7 19  1  0  0  0  0
  9 15  2  0  0  0  0
 10 28  1  6  0  0  0
 10 17  1  0  0  0  0
 10  1  1  0  0  0  0
 11 13  2  0  0  0  0
 12  8  1  0  0  0  0
 12  2  2  0  0  0  0
 13 12  1  0  0  0  0
 14 26  2  0  0  0  0
 15 18  1  0  0  0  0
 17  8  1  6  0  0  0
 17  7  1  0  0  0  0
 19 16  1  0  0  0  0
 20 21  2  0  0  0  0
 21 13  1  0  0  0  0
 21 14  1  0  0  0  0
 22 14  1  0  0  0  0
 22 27  1  0  0  0  0
 25  9  1  0  0  0  0
 26  2  1  0  0  0  0
 26  5  1  0  0  0  0
 27  9  1  0  0  0  0
 27  6  2  0  0  0  0
 29 28  1  0  0  0  0
 30 29  1  0  0  0  0
 31 30  2  0  0  0  0
 32 30  1  0  0  0  0
M  END
>  <MODEL>
8

>  <REMARK>
 VINA RESULT:      -7.3      3.282      7.632
  Name = 
  3 active torsions:
  status: ('A' for Active; 'I' for Inactive)
    1  A    between atoms: C_10  and  O_20
    2  A    between atoms: O_20  and  C_29
    3  A    between atoms: C_29  and  C_30
                            x       y       z     vdW  Elec       q    Type
                         _______ _______ _______ _____ _____    ______ ____

>  <TORSDO>
F 3

$$$$
=
 OpenBabel11112416343D

 32 37  0  0  1  0  0  0  0  0999 V2000
  185.5810  178.5390  143.8310 C   0  0  0  0  0  2  0  0  0  0  0  0
  189.3930  175.3490  142.2860 C   0  0  0  0  0  0  0  0  0  0  0  0
  192.2310  175.0330  146.2270 C   0  0  0  0  0  3  0  0  0  0  0  0
  192.9500  173.9950  145.6330 C   0  0  0  0  0  3  0  0  0  0  0  0
  189.7100  173.8210  140.2930 C   0  0  1  0  0  3  0  0  0  0  0  0
  190.8510  173.1590  139.5870 C   0  0  0  0  0  0  0  0  0  0  0  0
  187.2350  176.6240  142.4910 C   0  0  1  0  0  3  0  0  0  0  0  0
  188.9980  176.8470  144.1960 N   0  0  0  0  0  2  0  0  0  0  0  0
  192.6690  171.9230  139.2370 C   0  0  0  0  0  0  0  0  0  0  0  0
  186.9150  178.1550  144.4940 C   0  0  2  0  0  3  0  0  0  0  0  0
  191.1730  175.6320  145.5410 C   0  0  0  0  0  3  0  0  0  0  0  0
  189.7570  175.8020  143.5690 C   0  0  0  0  0  0  0  0  0  0  0  0
  190.8210  175.1980  144.2540 C   0  0  0  0  0  0  0  0  0  0  0  0
  191.2050  173.7030  142.3570 C   0  0  0  0  0  0  0  0  0  0  0  0
  192.1810  172.0630  138.0480 N   0  0  0  0  0  0  0  0  0  0  0  0
  185.7020  178.6780  142.3160 C   0  0  0  0  0  2  0  0  0  0  0  0
  187.9250  177.5510  143.4990 C   0  0  2  0  0  3  0  0  0  0  0  0
  190.9600  172.8660  138.1260 C   0  0  0  0  0  3  0  0  0  0  0  0
  186.1560  177.3580  141.6810 C   0  0  0  0  0  2  0  0  0  0  0  0
  192.6110  173.5550  144.3530 C   0  0  0  0  0  3  0  0  0  0  0  0
  191.5490  174.1450  143.6480 C   0  0  0  0  0  0  0  0  0  0  0  0
  191.9840  172.5720  141.7130 C   0  0  0  0  0  2  0  0  0  0  0  0
  188.2730  176.0360  141.5420 C   0  0  0  0  0  2  0  0  0  0  0  0
  188.3510  172.6750  140.4310 Cl  0  0  0  0  0  0  0  0  0  0  0  0
  193.9050  171.1450  139.5200 C   0  0  0  0  0  1  0  0  0  0  0  0
  190.1160  174.3070  141.6720 C   0  0  0  0  0  0  0  0  0  0  0  0
  191.8600  172.6040  140.2220 C   0  0  2  0  0  3  0  0  0  0  0  0
  186.6590  177.2660  145.5440 O   0  0  0  0  0  0  0  0  0  0  0  0
  185.4920  177.7440  146.1430 C   0  0  0  0  0  2  0  0  0  0  0  0
  185.8060  178.2570  147.5040 C   0  0  0  0  0  0  0  0  0  0  0  0
  185.8920  177.4580  148.4720 O   0  0  0  0  0  0  0  0  0  0  0  0
  185.9650  179.6540  147.7190 N   0  0  0  0  0  1  0  0  0  0  0  0
  1 10  1  0  0  0  0
  2 12  1  0  0  0  0
  4  3  1  0  0  0  0
  5 24  1  1  0  0  0
  5 26  1  0  0  0  0
  6 27  1  0  0  0  0
  6  5  1  0  0  0  0
  7 23  1  6  0  0  0
  7 17  1  0  0  0  0
  9 25  1  0  0  0  0
  9 27  1  0  0  0  0
 10 28  1  1  0  0  0
 11  3  2  0  0  0  0
 12  8  1  0  0  0  0
 12 13  2  0  0  0  0
 13 11  1  0  0  0  0
 14 21  2  0  0  0  0
 15 18  1  0  0  0  0
 15  9  2  0  0  0  0
 16  1  1  0  0  0  0
 17  8  1  1  0  0  0
 17 10  1  0  0  0  0
 18  6  2  0  0  0  0
 19 16  1  0  0  0  0
 19  7  1  0  0  0  0
 20  4  2  0  0  0  0
 21 13  1  0  0  0  0
 21 20  1  0  0  0  0
 22 14  1  0  0  0  0
 23  2  1  0  0  0  0
 26  2  2  0  0  0  0
 26 14  1  0  0  0  0
 27 22  1  1  0  0  0
 28 29  1  0  0  0  0
 29 30  1  0  0  0  0
 30 32  1  0  0  0  0
 30 31  2  0  0  0  0
M  END
>  <MODEL>
9

>  <REMARK>
 VINA RESULT:      -7.1      3.362      7.952
  Name = 
  3 active torsions:
  status: ('A' for Active; 'I' for Inactive)
    1  A    between atoms: C_10  and  O_20
    2  A    between atoms: O_20  and  C_29
    3  A    between atoms: C_29  and  C_30
                            x       y       z     vdW  Elec       q    Type
                         _______ _______ _______ _____ _____    ______ ____

>  <TORSDO>
F 3

$$$$
