=
 OpenBabel11112417153D

 37 43  0  0  1  0  0  0  0  0999 V2000
  193.0910  174.7360  144.0710 O   0  0  0  0  0  0  0  0  0  0  0  0
  190.6980  171.5490  140.8070 C   0  0  0  0  0  0  0  0  0  0  0  0
  189.7820  175.4670  142.3740 C   0  0  1  0  0  3  0  0  0  0  0  0
  194.2060  174.7670  144.9290 C   0  0  2  0  0  3  0  0  0  0  0  0
  189.3220  174.6860  146.2330 C   0  0  0  0  0  2  0  0  0  0  0  0
  189.1820  173.5830  140.7830 C   0  0  1  0  0  3  0  0  0  0  0  0
  190.1860  175.1650  143.8180 C   0  0  1  0  0  3  0  0  0  0  0  0
  192.8930  175.7760  146.8890 C   0  0  2  0  0  3  0  0  0  0  0  0
  190.3060  174.2960  141.5490 C   0  0  2  0  0  3  0  0  0  0  0  0
  189.0300  175.2950  144.8500 C   0  0  2  0  0  3  0  0  0  0  0  0
  188.4950  174.5410  139.9210 N   0  0  0  0  0  2  0  0  0  0  0  0
  194.0640  175.9380  145.9070 C   0  0  0  0  0  2  0  0  0  0  0  0
  191.1060  173.4010  142.4120 N   0  0  2  0  0  0  0  0  0  0  0  0
  191.9730  171.6070  140.2780 F   0  0  0  0  0  0  0  0  0  0  0  0
  187.7490  176.9910  142.8030 C   0  0  0  0  0  2  0  0  0  0  0  0
  187.8450  175.6160  140.6950 C   0  0  0  0  0  2  0  0  0  0  0  0
  190.7420  171.9830  142.2780 C   0  0  0  0  0  2  0  0  0  0  0  0
  191.7150  175.2510  146.1860 N   0  0  2  0  0  0  0  0  0  0  0  0
  190.4900  175.3430  146.9800 C   0  0  0  0  0  2  0  0  0  0  0  0
  188.2650  175.6920  142.1740 C   0  0  1  0  0  3  0  0  0  0  0  0
  190.8540  173.7880  143.7960 C   0  0  1  0  0  3  0  0  0  0  0  0
  189.7680  172.4390  139.9680 C   0  0  0  0  0  2  0  0  0  0  0  0
  188.5360  176.7510  144.9810 C   0  0  1  0  0  3  0  0  0  0  0  0
  190.2480  170.2440  140.7410 F   0  0  0  0  0  0  0  0  0  0  0  0
  191.9440  173.9260  145.9690 O   0  0  0  0  0  0  0  0  0  0  0  0
  192.6270  177.1480  147.5000 C   0  0  0  0  0  1  0  0  0  0  0  0
  192.1780  173.7810  144.5810 C   0  0  2  0  0  3  0  0  0  0  0  0
  188.6160  177.5140  143.7870 O   0  0  0  0  0  0  0  0  0  0  0  0
  187.4710  177.4480  147.1540 C   0  0  0  0  0  3  0  0  0  0  0  0
  187.2220  176.9160  145.7640 C   0  0  1  0  0  3  0  0  0  0  0  0
  186.1490  177.7020  145.0020 C   0  0  0  0  0  2  0  0  0  0  0  0
  183.9460  178.5900  145.1970 O   0  0  0  0  0  1  0  0  0  0  0  0
  185.3790  178.8090  147.0910 C   0  0  0  0  0  2  0  0  0  0  0  0
  184.9510  177.9410  145.9110 C   0  0  2  0  0  3  0  0  0  0  0  0
  186.6100  178.2690  147.7730 C   0  0  0  0  0  3  0  0  0  0  0  0
  195.9540  176.2330  144.2770 F   0  0  0  0  0  0  0  0  0  0  0  0
  195.4700  174.9490  144.1130 C   0  0  0  0  0  2  0  0  0  0  0  0
  1 27  1  0  0  0  0
  1  4  1  0  0  0  0
  2 17  1  0  0  0  0
  3  7  1  0  0  0  0
  4 12  1  0  0  0  0
  5 19  1  0  0  0  0
  6  9  1  0  0  0  0
  7 10  1  0  0  0  0
  8 26  1  0  0  0  0
  9  3  1  0  0  0  0
  9 13  1  0  0  0  0
 10 23  1  0  0  0  0
 10  5  1  0  0  0  0
 11 16  1  0  0  0  0
 11  6  1  0  0  0  0
 12  8  1  0  0  0  0
 13 21  1  0  0  0  0
 14  2  1  0  0  0  0
 15 28  1  0  0  0  0
 16 20  1  0  0  0  0
 17 13  1  0  0  0  0
 18  8  1  0  0  0  0
 18 19  1  0  0  0  0
 20  3  1  0  0  0  0
 20 15  1  0  0  0  0
 21  7  1  0  0  0  0
 21 27  1  0  0  0  0
 22  6  1  0  0  0  0
 22  2  1  0  0  0  0
 23 30  1  0  0  0  0
 24  2  1  0  0  0  0
 25 18  1  0  0  0  0
 27 25  1  0  0  0  0
 28 23  1  0  0  0  0
 29 35  2  0  0  0  0
 30 29  1  0  0  0  0
 31 30  1  0  0  0  0
 31 34  1  0  0  0  0
 32 34  1  0  0  0  0
 33 35  1  0  0  0  0
 34 33  1  0  0  0  0
 37 36  1  0  0  0  0
 37  4  1  0  0  0  0
M  END
>  <MODEL>
1

>  <REMARK>
 VINA RESULT:      -9.1      0.000      0.000
  Name = 
  2 active torsions:
  status: ('A' for Active; 'I' for Inactive)
    1  A    between atoms: C_4  and  C_37
    2  A    between atoms: C_23  and  C_30
                            x       y       z     vdW  Elec       q    Type
                         _______ _______ _______ _____ _____    ______ ____

>  <TORSDO>
F 2

$$$$
=
 OpenBabel11112417153D

 37 43  0  0  1  0  0  0  0  0999 V2000
  191.2280  173.0100  143.2080 O   0  0  0  0  0  0  0  0  0  0  0  0
  194.8340  176.1540  145.1200 C   0  0  0  0  0  0  0  0  0  0  0  0
  190.6240  175.6020  145.9080 C   0  0  1  0  0  3  0  0  0  0  0  0
  191.0560  172.0550  142.1900 C   0  0  2  0  0  3  0  0  0  0  0  0
  189.0260  176.6770  142.4430 C   0  0  0  0  0  2  0  0  0  0  0  0
  192.8040  176.7450  146.5240 C   0  0  1  0  0  3  0  0  0  0  0  0
  190.1970  175.4810  144.4440 C   0  0  1  0  0  3  0  0  0  0  0  0
  188.8240  173.0390  141.3950 C   0  0  2  0  0  3  0  0  0  0  0  0
  192.1460  175.5050  145.8990 C   0  0  2  0  0  3  0  0  0  0  0  0
  189.2080  176.5810  143.9680 C   0  0  2  0  0  3  0  0  0  0  0  0
  192.3160  176.9210  147.8890 N   0  0  0  0  0  2  0  0  0  0  0  0
  189.5610  171.8150  141.9620 C   0  0  0  0  0  2  0  0  0  0  0  0
  192.6160  175.2010  144.5320 N   0  0  2  0  0  0  0  0  0  0  0  0
  195.4360  174.9160  145.2290 F   0  0  0  0  0  0  0  0  0  0  0  0
  188.6060  176.9060  146.8390 C   0  0  0  0  0  2  0  0  0  0  0  0
  190.8610  177.1660  147.9300 C   0  0  0  0  0  2  0  0  0  0  0  0
  193.7070  176.0770  144.0810 C   0  0  0  0  0  2  0  0  0  0  0  0
  189.2850  174.2610  142.0700 N   0  0  2  0  0  0  0  0  0  0  0  0
  188.4340  175.4180  141.7960 C   0  0  0  0  0  2  0  0  0  0  0  0
  190.1220  176.8850  146.6090 C   0  0  1  0  0  3  0  0  0  0  0  0
  191.4900  175.4050  143.6270 C   0  0  1  0  0  3  0  0  0  0  0  0
  194.3180  176.5820  146.5030 C   0  0  0  0  0  2  0  0  0  0  0  0
  187.8430  176.4770  144.6820 C   0  0  1  0  0  3  0  0  0  0  0  0
  195.7740  177.0710  144.6900 F   0  0  0  0  0  0  0  0  0  0  0  0
  190.5160  174.5490  141.5650 O   0  0  0  0  0  0  0  0  0  0  0  0
  187.3330  172.8020  141.6030 C   0  0  0  0  0  1  0  0  0  0  0  0
  191.4480  174.2670  142.5920 C   0  0  2  0  0  3  0  0  0  0  0  0
  187.9070  175.9970  146.0160 O   0  0  0  0  0  0  0  0  0  0  0  0
  186.5570  177.8650  143.0210 C   0  0  0  0  0  3  0  0  0  0  0  0
  186.9150  177.6860  144.4760 C   0  0  1  0  0  3  0  0  0  0  0  0
  185.6930  177.6850  145.4010 C   0  0  0  0  0  2  0  0  0  0  0  0
  183.6920  178.8770  145.9080 O   0  0  0  0  0  1  0  0  0  0  0  0
  184.2450  178.6080  143.6030 C   0  0  0  0  0  2  0  0  0  0  0  0
  184.7660  178.8310  145.0200 C   0  0  2  0  0  3  0  0  0  0  0  0
  185.3610  178.3290  142.6280 C   0  0  0  0  0  3  0  0  0  0  0  0
  191.9620  170.7600  143.9600 F   0  0  0  0  0  0  0  0  0  0  0  0
  191.7140  170.7530  142.6000 C   0  0  0  0  0  2  0  0  0  0  0  0
  2 14  1  0  0  0  0
  2 22  1  0  0  0  0
  3 20  1  0  0  0  0
  4 37  1  0  0  0  0
  4  1  1  0  0  0  0
  5 10  1  0  0  0  0
  6 11  1  0  0  0  0
  7  3  1  0  0  0  0
  8 26  1  0  0  0  0
  8 12  1  0  0  0  0
  8 18  1  0  0  0  0
  9  3  1  0  0  0  0
  9  6  1  0  0  0  0
 10  7  1  0  0  0  0
 10 23  1  0  0  0  0
 11 16  1  0  0  0  0
 12  4  1  0  0  0  0
 13  9  1  0  0  0  0
 17 13  1  0  0  0  0
 17  2  1  0  0  0  0
 19 18  1  0  0  0  0
 19  5  1  0  0  0  0
 20 15  1  0  0  0  0
 20 16  1  0  0  0  0
 21  7  1  0  0  0  0
 21 13  1  0  0  0  0
 22  6  1  0  0  0  0
 23 28  1  0  0  0  0
 24  2  1  0  0  0  0
 25 18  1  0  0  0  0
 25 27  1  0  0  0  0
 27  1  1  0  0  0  0
 27 21  1  0  0  0  0
 28 15  1  0  0  0  0
 29 30  1  0  0  0  0
 30 23  1  0  0  0  0
 30 31  1  0  0  0  0
 33 34  1  0  0  0  0
 34 31  1  0  0  0  0
 34 32  1  0  0  0  0
 35 29  2  0  0  0  0
 35 33  1  0  0  0  0
 37 36  1  0  0  0  0
M  END
>  <MODEL>
2

>  <REMARK>
 VINA RESULT:      -9.1      1.782      5.398
  Name = 
  2 active torsions:
  status: ('A' for Active; 'I' for Inactive)
    1  A    between atoms: C_4  and  C_37
    2  A    between atoms: C_23  and  C_30
                            x       y       z     vdW  Elec       q    Type
                         _______ _______ _______ _____ _____    ______ ____

>  <TORSDO>
F 2

$$$$
=
 OpenBabel11112417153D

 37 43  0  0  1  0  0  0  0  0999 V2000
  191.5550  172.9240  142.3100 O   0  0  0  0  0  0  0  0  0  0  0  0
  195.4440  176.0900  143.4880 C   0  0  0  0  0  0  0  0  0  0  0  0
  191.6230  175.2380  145.3110 C   0  0  1  0  0  3  0  0  0  0  0  0
  191.1440  172.0510  141.2860 C   0  0  2  0  0  3  0  0  0  0  0  0
  189.1150  176.5140  142.5190 C   0  0  0  0  0  2  0  0  0  0  0  0
  193.8520  176.4440  145.4320 C   0  0  1  0  0  3  0  0  0  0  0  0
  190.8210  175.2180  144.0090 C   0  0  1  0  0  3  0  0  0  0  0  0
  188.7510  172.9730  141.2140 C   0  0  2  0  0  3  0  0  0  0  0  0
  193.0880  175.2280  144.8880 C   0  0  2  0  0  3  0  0  0  0  0  0
  189.7060  176.2990  143.9230 C   0  0  2  0  0  3  0  0  0  0  0  0
  193.7460  176.4760  146.8880 N   0  0  0  0  0  2  0  0  0  0  0  0
  189.6500  171.7480  141.4420 C   0  0  0  0  0  2  0  0  0  0  0  0
  193.1810  175.0670  143.4220 N   0  0  2  0  0  0  0  0  0  0  0  0
  196.0920  174.8820  143.3120 F   0  0  0  0  0  0  0  0  0  0  0  0
  189.8930  176.3430  146.8680 C   0  0  0  0  0  2  0  0  0  0  0  0
  192.3510  176.6340  147.3390 C   0  0  0  0  0  2  0  0  0  0  0  0
  194.0810  176.0380  142.7840 C   0  0  0  0  0  2  0  0  0  0  0  0
  189.3380  174.1560  141.8570 N   0  0  2  0  0  0  0  0  0  0  0  0
  188.4100  175.2830  141.9340 C   0  0  0  0  0  2  0  0  0  0  0  0
  191.2900  176.4260  146.2430 C   0  0  1  0  0  3  0  0  0  0  0  0
  191.8460  175.2850  142.8740 C   0  0  1  0  0  3  0  0  0  0  0  0
  195.3080  176.3680  144.9930 C   0  0  0  0  0  2  0  0  0  0  0  0
  188.5890  176.0570  144.9610 C   0  0  1  0  0  3  0  0  0  0  0  0
  196.2040  177.0910  142.9150 F   0  0  0  0  0  0  0  0  0  0  0  0
  190.3780  174.5550  141.0730 O   0  0  0  0  0  0  0  0  0  0  0  0
  187.3790  172.6360  141.7880 C   0  0  0  0  0  1  0  0  0  0  0  0
  191.5610  174.2380  141.7820 C   0  0  2  0  0  3  0  0  0  0  0  0
  189.0270  175.4690  146.1770 O   0  0  0  0  0  0  0  0  0  0  0  0
  186.4630  177.1310  144.1440 C   0  0  0  0  0  3  0  0  0  0  0  0
  187.6030  177.2260  145.1290 C   0  0  1  0  0  3  0  0  0  0  0  0
  187.1350  177.4300  146.5740 C   0  0  0  0  0  2  0  0  0  0  0  0
  185.6820  178.7430  147.9330 O   0  0  0  0  0  1  0  0  0  0  0  0
  184.8420  178.0250  145.8190 C   0  0  0  0  0  2  0  0  0  0  0  0
  186.0550  178.5030  146.6120 C   0  0  2  0  0  3  0  0  0  0  0  0
  185.2210  177.5390  144.4440 C   0  0  0  0  0  3  0  0  0  0  0  0
  193.1480  170.9890  141.9850 F   0  0  0  0  0  0  0  0  0  0  0  0
  191.9280  170.7570  141.3780 C   0  0  0  0  0  2  0  0  0  0  0  0
  2 22  1  0  0  0  0
  3 20  1  0  0  0  0
  4 37  1  0  0  0  0
  4 12  1  0  0  0  0
  4  1  1  0  0  0  0
  5 10  1  0  0  0  0
  6 11  1  0  0  0  0
  7  3  1  0  0  0  0
  8 12  1  0  0  0  0
  8 26  1  0  0  0  0
  8 18  1  0  0  0  0
  9  3  1  0  0  0  0
  9  6  1  0  0  0  0
 10  7  1  0  0  0  0
 10 23  1  0  0  0  0
 11 16  1  0  0  0  0
 13  9  1  0  0  0  0
 14  2  1  0  0  0  0
 17 13  1  0  0  0  0
 17  2  1  0  0  0  0
 18 19  1  0  0  0  0
 19  5  1  0  0  0  0
 20 15  1  0  0  0  0
 20 16  1  0  0  0  0
 21 13  1  0  0  0  0
 21  7  1  0  0  0  0
 22  6  1  0  0  0  0
 23 30  1  0  0  0  0
 23 28  1  0  0  0  0
 24  2  1  0  0  0  0
 25 27  1  0  0  0  0
 25 18  1  0  0  0  0
 27  1  1  0  0  0  0
 27 21  1  0  0  0  0
 28 15  1  0  0  0  0
 29 35  2  0  0  0  0
 29 30  1  0  0  0  0
 30 31  1  0  0  0  0
 31 34  1  0  0  0  0
 33 34  1  0  0  0  0
 34 32  1  0  0  0  0
 35 33  1  0  0  0  0
 37 36  1  0  0  0  0
M  END
>  <MODEL>
3

>  <REMARK>
 VINA RESULT:      -8.8      1.775      5.297
  Name = 
  2 active torsions:
  status: ('A' for Active; 'I' for Inactive)
    1  A    between atoms: C_4  and  C_37
    2  A    between atoms: C_23  and  C_30
                            x       y       z     vdW  Elec       q    Type
                         _______ _______ _______ _____ _____    ______ ____

>  <TORSDO>
F 2

$$$$
=
 OpenBabel11112417153D

 37 43  0  0  1  0  0  0  0  0999 V2000
  188.0220  176.4750  145.1590 O   0  0  0  0  0  0  0  0  0  0  0  0
  186.8040  177.2070  140.2070 C   0  0  0  0  0  0  0  0  0  0  0  0
  189.3300  174.3850  142.2800 C   0  0  1  0  0  3  0  0  0  0  0  0
  187.8350  177.0740  146.4180 C   0  0  2  0  0  3  0  0  0  0  0  0
  192.1260  176.7710  143.7640 C   0  0  0  0  0  2  0  0  0  0  0  0
  188.2720  175.1400  140.1020 C   0  0  1  0  0  3  0  0  0  0  0  0
  189.9720  175.4020  143.2260 C   0  0  1  0  0  3  0  0  0  0  0  0
  190.3020  176.8600  147.0860 C   0  0  2  0  0  3  0  0  0  0  0  0
  188.1570  175.1120  141.6330 C   0  0  2  0  0  3  0  0  0  0  0  0
  191.5130  175.5410  143.0730 C   0  0  2  0  0  3  0  0  0  0  0  0
  188.3630  173.7740  139.5940 N   0  0  0  0  0  2  0  0  0  0  0  0
  188.8450  176.4960  147.4130 C   0  0  0  0  0  2  0  0  0  0  0  0
  188.0000  176.4470  142.2480 N   0  0  2  0  0  0  0  0  0  0  0  0
  185.5620  177.1660  140.8110 F   0  0  0  0  0  0  0  0  0  0  0  0
  191.3630  172.8650  141.8370 C   0  0  0  0  0  2  0  0  0  0  0  0
  189.5700  173.0800  140.0820 C   0  0  0  0  0  2  0  0  0  0  0  0
  187.8690  177.5310  141.2640 C   0  0  0  0  0  2  0  0  0  0  0  0
  190.5380  176.7450  145.6400 N   0  0  2  0  0  0  0  0  0  0  0  0
  191.9560  176.7910  145.2890 C   0  0  0  0  0  2  0  0  0  0  0  0
  190.3020  173.7920  141.2340 C   0  0  1  0  0  3  0  0  0  0  0  0
  189.2020  176.7110  143.0310 C   0  0  1  0  0  3  0  0  0  0  0  0
  187.0660  175.8610  139.5140 C   0  0  0  0  0  2  0  0  0  0  0  0
  192.2510  174.2500  143.4850 C   0  0  1  0  0  3  0  0  0  0  0  0
  186.8030  178.2080  139.2550 F   0  0  0  0  0  0  0  0  0  0  0  0
  189.9530  177.8300  145.0600 O   0  0  0  0  0  0  0  0  0  0  0  0
  191.1910  175.9120  147.8840 C   0  0  0  0  0  1  0  0  0  0  0  0
  188.8110  177.3520  144.3740 C   0  0  2  0  0  3  0  0  0  0  0  0
  191.5380  173.0500  143.2260 O   0  0  0  0  0  0  0  0  0  0  0  0
  194.0430  175.1630  141.9700 C   0  0  0  0  0  3  0  0  0  0  0  0
  193.7400  174.2100  143.1000 C   0  0  1  0  0  3  0  0  0  0  0  0
  194.6860  174.3710  144.2950 C   0  0  0  0  0  2  0  0  0  0  0  0
  196.9890  174.5410  144.8850 O   0  0  0  0  0  1  0  0  0  0  0  0
  196.2740  175.7240  142.9420 C   0  0  0  0  0  2  0  0  0  0  0  0
  196.1220  174.4690  143.7970 C   0  0  2  0  0  3  0  0  0  0  0  0
  195.2120  175.8130  141.8750 C   0  0  0  0  0  3  0  0  0  0  0  0
  185.6270  176.4160  145.8500 F   0  0  0  0  0  0  0  0  0  0  0  0
  186.4300  176.7910  146.9110 C   0  0  0  0  0  2  0  0  0  0  0  0
  1  4  1  0  0  0  0
  2 14  1  0  0  0  0
  2 17  1  0  0  0  0
  3  7  1  0  0  0  0
  4 37  1  0  0  0  0
  4 12  1  0  0  0  0
  5 19  1  0  0  0  0
  6  9  1  0  0  0  0
  8 12  1  0  0  0  0
  8 26  1  0  0  0  0
  9 13  1  0  0  0  0
  9  3  1  0  0  0  0
 10  7  1  0  0  0  0
 10 23  1  0  0  0  0
 10  5  1  0  0  0  0
 11 16  1  0  0  0  0
 11  6  1  0  0  0  0
 13 21  1  0  0  0  0
 15 28  1  0  0  0  0
 16 20  1  0  0  0  0
 17 13  1  0  0  0  0
 18  8  1  0  0  0  0
 19 18  1  0  0  0  0
 20 15  1  0  0  0  0
 20  3  1  0  0  0  0
 21  7  1  0  0  0  0
 21 27  1  0  0  0  0
 22  6  1  0  0  0  0
 22  2  1  0  0  0  0
 24  2  1  0  0  0  0
 25 18  1  0  0  0  0
 27 25  1  0  0  0  0
 27  1  1  0  0  0  0
 28 23  1  0  0  0  0
 29 30  1  0  0  0  0
 30 23  1  0  0  0  0
 30 31  1  0  0  0  0
 33 34  1  0  0  0  0
 34 31  1  0  0  0  0
 34 32  1  0  0  0  0
 35 29  2  0  0  0  0
 35 33  1  0  0  0  0
 36 37  1  0  0  0  0
M  END
>  <MODEL>
4

>  <REMARK>
 VINA RESULT:      -8.6      3.157      6.594
  Name = 
  2 active torsions:
  status: ('A' for Active; 'I' for Inactive)
    1  A    between atoms: C_4  and  C_37
    2  A    between atoms: C_23  and  C_30
                            x       y       z     vdW  Elec       q    Type
                         _______ _______ _______ _____ _____    ______ ____

>  <TORSDO>
F 2

$$$$
=
 OpenBabel11112417153D

 37 43  0  0  1  0  0  0  0  0999 V2000
  191.4190  176.0780  145.6290 O   0  0  0  0  0  0  0  0  0  0  0  0
  187.5820  177.5650  142.5290 C   0  0  0  0  0  0  0  0  0  0  0  0
  190.3640  174.2620  142.4730 C   0  0  1  0  0  3  0  0  0  0  0  0
  192.1310  176.5240  146.7580 C   0  0  2  0  0  3  0  0  0  0  0  0
  193.8190  176.1500  142.0080 C   0  0  0  0  0  2  0  0  0  0  0  0
  188.3370  175.3950  141.4510 C   0  0  1  0  0  3  0  0  0  0  0  0
  191.5980  175.0800  142.8610 C   0  0  1  0  0  3  0  0  0  0  0  0
  194.4260  175.9830  145.7460 C   0  0  2  0  0  3  0  0  0  0  0  0
  189.1720  175.1790  142.7220 C   0  0  2  0  0  3  0  0  0  0  0  0
  192.7280  175.0860  141.7930 C   0  0  2  0  0  3  0  0  0  0  0  0
  187.8850  174.1050  140.9390 N   0  0  0  0  0  2  0  0  0  0  0  0
  193.4310  175.7250  146.8890 C   0  0  0  0  0  2  0  0  0  0  0  0
  189.6320  176.4320  143.3580 N   0  0  2  0  0  0  0  0  0  0  0  0
  186.9740  177.5670  143.7700 F   0  0  0  0  0  0  0  0  0  0  0  0
  191.4410  172.6220  140.8040 C   0  0  0  0  0  2  0  0  0  0  0  0
  189.0130  173.2380  140.5460 C   0  0  0  0  0  2  0  0  0  0  0  0
  189.1040  177.6420  142.7130 C   0  0  0  0  0  2  0  0  0  0  0  0
  193.7150  176.0360  144.4620 N   0  0  2  0  0  0  0  0  0  0  0  0
  194.6140  175.9870  143.3100 C   0  0  0  0  0  2  0  0  0  0  0  0
  190.3940  173.7190  141.0260 C   0  0  1  0  0  3  0  0  0  0  0  0
  191.0850  176.4730  143.2390 C   0  0  1  0  0  3  0  0  0  0  0  0
  187.1550  176.3010  141.7660 C   0  0  0  0  0  2  0  0  0  0  0  0
  193.3500  173.6870  141.6050 C   0  0  1  0  0  3  0  0  0  0  0  0
  187.1610  178.6760  141.8250 F   0  0  0  0  0  0  0  0  0  0  0  0
  193.0770  177.2380  144.4130 O   0  0  0  0  0  0  0  0  0  0  0  0
  195.4530  174.8570  145.7820 C   0  0  0  0  0  1  0  0  0  0  0  0
  191.6960  176.9680  144.5620 C   0  0  2  0  0  3  0  0  0  0  0  0
  192.4480  172.6070  141.7930 O   0  0  0  0  0  0  0  0  0  0  0  0
  193.8820  174.5190  139.2890 C   0  0  0  0  0  3  0  0  0  0  0  0
  194.2710  173.5510  140.3810 C   0  0  1  0  0  3  0  0  0  0  0  0
  195.7630  173.6020  140.7270 C   0  0  0  0  0  2  0  0  0  0  0  0
  197.9400  173.5830  139.7570 O   0  0  0  0  0  1  0  0  0  0  0  0
  196.2700  174.8820  138.6560 C   0  0  0  0  0  2  0  0  0  0  0  0
  196.5830  173.6130  139.4440 C   0  0  2  0  0  3  0  0  0  0  0  0
  194.7870  175.0850  138.4770 C   0  0  0  0  0  3  0  0  0  0  0  0
  191.4100  175.0120  148.4390 F   0  0  0  0  0  0  0  0  0  0  0  0
  191.2900  176.3180  148.0020 C   0  0  0  0  0  2  0  0  0  0  0  0
  1  4  1  0  0  0  0
  2 17  1  0  0  0  0
  2 14  1  0  0  0  0
  3  9  1  0  0  0  0
  3  7  1  0  0  0  0
  4 12  1  0  0  0  0
  4 37  1  0  0  0  0
  5 19  1  0  0  0  0
  6 22  1  0  0  0  0
  6  9  1  0  0  0  0
  7 21  1  0  0  0  0
  8 26  1  0  0  0  0
  8 12  1  0  0  0  0
  9 13  1  0  0  0  0
 10  5  1  0  0  0  0
 10  7  1  0  0  0  0
 11  6  1  0  0  0  0
 15 20  1  0  0  0  0
 15 28  1  0  0  0  0
 16 11  1  0  0  0  0
 16 20  1  0  0  0  0
 17 13  1  0  0  0  0
 18  8  1  0  0  0  0
 19 18  1  0  0  0  0
 20  3  1  0  0  0  0
 21 13  1  0  0  0  0
 21 27  1  0  0  0  0
 22  2  1  0  0  0  0
 23 28  1  0  0  0  0
 23 10  1  0  0  0  0
 24  2  1  0  0  0  0
 25 18  1  0  0  0  0
 25 27  1  0  0  0  0
 27  1  1  0  0  0  0
 29 30  1  0  0  0  0
 30 31  1  0  0  0  0
 30 23  1  0  0  0  0
 33 34  1  0  0  0  0
 34 32  1  0  0  0  0
 34 31  1  0  0  0  0
 35 33  1  0  0  0  0
 35 29  2  0  0  0  0
 37 36  1  0  0  0  0
M  END
>  <MODEL>
5

>  <REMARK>
 VINA RESULT:      -8.5      3.535      7.016
  Name = 
  2 active torsions:
  status: ('A' for Active; 'I' for Inactive)
    1  A    between atoms: C_4  and  C_37
    2  A    between atoms: C_23  and  C_30
                            x       y       z     vdW  Elec       q    Type
                         _______ _______ _______ _____ _____    ______ ____

>  <TORSDO>
F 2

$$$$
=
 OpenBabel11112417153D

 37 43  0  0  1  0  0  0  0  0999 V2000
  188.2080  175.4310  142.9950 O   0  0  0  0  0  0  0  0  0  0  0  0
  189.1790  172.5130  138.8620 C   0  0  0  0  0  0  0  0  0  0  0  0
  190.9070  172.7760  142.8110 C   0  0  1  0  0  3  0  0  0  0  0  0
  187.4130  176.5250  143.3840 C   0  0  2  0  0  3  0  0  0  0  0  0
  192.4290  176.4360  142.7640 C   0  0  0  0  0  2  0  0  0  0  0  0
  190.8100  171.5880  140.5710 C   0  0  1  0  0  3  0  0  0  0  0  0
  190.9290  174.3030  142.8800 C   0  0  1  0  0  3  0  0  0  0  0  0
  189.3480  177.7510  144.5390 C   0  0  2  0  0  3  0  0  0  0  0  0
  190.0450  172.4330  141.6000 C   0  0  2  0  0  3  0  0  0  0  0  0
  192.3490  174.9210  143.0240 C   0  0  2  0  0  3  0  0  0  0  0  0
  191.2960  170.3660  141.2080 N   0  0  0  0  0  2  0  0  0  0  0  0
  187.9570  177.1140  144.6880 C   0  0  0  0  0  2  0  0  0  0  0  0
  189.4590  173.6700  141.0430 N   0  0  2  0  0  0  0  0  0  0  0  0
  187.8160  172.3520  139.0220 F   0  0  0  0  0  0  0  0  0  0  0  0
  193.1140  172.2560  144.0340 C   0  0  0  0  0  2  0  0  0  0  0  0
  192.2520  170.6510  142.2950 C   0  0  0  0  0  2  0  0  0  0  0  0
  189.6240  173.7910  139.5880 C   0  0  0  0  0  2  0  0  0  0  0  0
  190.2020  176.9040  143.6950 N   0  0  2  0  0  0  0  0  0  0  0  0
  191.6110  177.2890  143.7430 C   0  0  0  0  0  2  0  0  0  0  0  0
  192.3070  172.1240  142.7380 C   0  0  1  0  0  3  0  0  0  0  0  0
  190.1530  174.7980  141.6560 C   0  0  1  0  0  3  0  0  0  0  0  0
  189.8960  171.2640  139.3980 C   0  0  0  0  0  2  0  0  0  0  0  0
  193.0010  174.5560  144.3740 C   0  0  1  0  0  3  0  0  0  0  0  0
  189.4580  172.6450  137.5160 F   0  0  0  0  0  0  0  0  0  0  0  0
  189.7880  177.0850  142.4100 O   0  0  0  0  0  0  0  0  0  0  0  0
  189.9200  177.9160  145.9420 C   0  0  0  0  0  1  0  0  0  0  0  0
  189.1340  175.8900  142.0270 C   0  0  2  0  0  3  0  0  0  0  0  0
  192.6400  173.2810  144.8820 O   0  0  0  0  0  0  0  0  0  0  0  0
  195.0730  174.4500  145.8010 C   0  0  0  0  0  3  0  0  0  0  0  0
  194.4990  174.8890  144.4760 C   0  0  1  0  0  3  0  0  0  0  0  0
  195.3180  174.4040  143.2740 C   0  0  0  0  0  2  0  0  0  0  0  0
  197.5380  174.2720  142.4160 O   0  0  0  0  0  1  0  0  0  0  0  0
  197.2390  173.8100  144.7370 C   0  0  0  0  0  2  0  0  0  0  0  0
  196.7980  174.6440  143.5370 C   0  0  2  0  0  3  0  0  0  0  0  0
  196.3330  174.0050  145.9250 C   0  0  0  0  0  3  0  0  0  0  0  0
  185.5660  176.4160  144.8700 F   0  0  0  0  0  0  0  0  0  0  0  0
  185.9860  176.0630  143.6010 C   0  0  0  0  0  2  0  0  0  0  0  0
  1  4  1  0  0  0  0
  2 14  1  0  0  0  0
  2 22  1  0  0  0  0
  2 17  1  0  0  0  0
  3  7  1  0  0  0  0
  4 37  1  0  0  0  0
  4 12  1  0  0  0  0
  5 10  1  0  0  0  0
  5 19  1  0  0  0  0
  6 11  1  0  0  0  0
  6  9  1  0  0  0  0
  7 10  1  0  0  0  0
  8 12  1  0  0  0  0
  8 26  1  0  0  0  0
  9  3  1  0  0  0  0
 10 23  1  0  0  0  0
 11 16  1  0  0  0  0
 13  9  1  0  0  0  0
 13 21  1  0  0  0  0
 15 28  1  0  0  0  0
 16 20  1  0  0  0  0
 17 13  1  0  0  0  0
 18 19  1  0  0  0  0
 18  8  1  0  0  0  0
 20  3  1  0  0  0  0
 20 15  1  0  0  0  0
 21 27  1  0  0  0  0
 21  7  1  0  0  0  0
 22  6  1  0  0  0  0
 23 30  1  0  0  0  0
 23 28  1  0  0  0  0
 24  2  1  0  0  0  0
 25 18  1  0  0  0  0
 27 25  1  0  0  0  0
 27  1  1  0  0  0  0
 29 35  2  0  0  0  0
 30 29  1  0  0  0  0
 31 34  1  0  0  0  0
 31 30  1  0  0  0  0
 32 34  1  0  0  0  0
 33 35  1  0  0  0  0
 34 33  1  0  0  0  0
 37 36  1  0  0  0  0
M  END
>  <MODEL>
6

>  <REMARK>
 VINA RESULT:      -8.0      2.847      6.674
  Name = 
  2 active torsions:
  status: ('A' for Active; 'I' for Inactive)
    1  A    between atoms: C_4  and  C_37
    2  A    between atoms: C_23  and  C_30
                            x       y       z     vdW  Elec       q    Type
                         _______ _______ _______ _____ _____    ______ ____

>  <TORSDO>
F 2

$$$$
=
 OpenBabel11112417153D

 37 43  0  0  1  0  0  0  0  0999 V2000
  189.1750  175.5160  142.8150 O   0  0  0  0  0  0  0  0  0  0  0  0
  191.1690  175.7530  147.5590 C   0  0  0  0  0  0  0  0  0  0  0  0
  192.8380  176.1040  143.5920 C   0  0  1  0  0  3  0  0  0  0  0  0
  187.9610  175.2230  142.1660 C   0  0  2  0  0  3  0  0  0  0  0  0
  192.2000  172.4700  142.1440 C   0  0  0  0  0  2  0  0  0  0  0  0
  193.1850  176.2510  146.1010 C   0  0  1  0  0  3  0  0  0  0  0  0
  192.0610  174.9360  142.9820 C   0  0  1  0  0  3  0  0  0  0  0  0
  189.0560  173.6980  140.4180 C   0  0  2  0  0  3  0  0  0  0  0  0
  192.1830  176.3710  144.9430 C   0  0  2  0  0  3  0  0  0  0  0  0
  192.9510  173.7770  142.4520 C   0  0  2  0  0  3  0  0  0  0  0  0
  194.2940  177.1780  145.8840 N   0  0  0  0  0  2  0  0  0  0  0  0
  188.2260  174.9650  140.6800 C   0  0  0  0  0  2  0  0  0  0  0  0
  190.9880  175.5140  145.0930 N   0  0  2  0  0  0  0  0  0  0  0  0
  190.1150  176.6420  147.6390 F   0  0  0  0  0  0  0  0  0  0  0  0
  195.0860  175.8130  142.3670 C   0  0  0  0  0  2  0  0  0  0  0  0
  195.0480  176.8620  144.6560 C   0  0  0  0  0  2  0  0  0  0  0  0
  190.9380  174.8010  146.3770 C   0  0  0  0  0  2  0  0  0  0  0  0
  190.1500  173.6010  141.3940 N   0  0  2  0  0  0  0  0  0  0  0  0
  191.1450  172.5920  141.0360 C   0  0  0  0  0  2  0  0  0  0  0  0
  194.3590  175.8570  143.7160 C   0  0  1  0  0  3  0  0  0  0  0  0
  191.0370  174.5070  144.0380 C   0  0  1  0  0  3  0  0  0  0  0  0
  192.4790  176.5450  147.4170 C   0  0  0  0  0  2  0  0  0  0  0  0
  193.8120  174.2170  141.2490 C   0  0  1  0  0  3  0  0  0  0  0  0
  191.2180  175.0130  148.7240 F   0  0  0  0  0  0  0  0  0  0  0  0
  189.5930  173.2040  142.5720 O   0  0  0  0  0  0  0  0  0  0  0  0
  189.5760  173.7890  138.9880 C   0  0  0  0  0  1  0  0  0  0  0  0
  189.6330  174.3260  143.4330 C   0  0  2  0  0  3  0  0  0  0  0  0
  194.2200  175.5760  141.2770 O   0  0  0  0  0  0  0  0  0  0  0  0
  195.7300  173.7390  139.6880 C   0  0  0  0  0  3  0  0  0  0  0  0
  194.9140  173.2210  140.8490 C   0  0  1  0  0  3  0  0  0  0  0  0
  195.7740  172.7520  142.0280 C   0  0  0  0  0  2  0  0  0  0  0  0
  197.6600  171.4070  142.5870 O   0  0  0  0  0  1  0  0  0  0  0  0
  197.8230  172.7450  140.6190 C   0  0  0  0  0  2  0  0  0  0  0  0
  196.9220  171.8960  141.5110 C   0  0  2  0  0  3  0  0  0  0  0  0
  197.0400  173.4810  139.5620 C   0  0  0  0  0  3  0  0  0  0  0  0
  185.9360  176.0410  143.0950 F   0  0  0  0  0  0  0  0  0  0  0  0
  187.0150  176.3990  142.3080 C   0  0  0  0  0  2  0  0  0  0  0  0
  1 27  1  0  0  0  0
  2 14  1  0  0  0  0
  2 24  1  0  0  0  0
  3 20  1  0  0  0  0
  3  9  1  0  0  0  0
  4 37  1  0  0  0  0
  4  1  1  0  0  0  0
  5 10  1  0  0  0  0
  6 22  1  0  0  0  0
  7  3  1  0  0  0  0
  7 21  1  0  0  0  0
  8 12  1  0  0  0  0
  8 18  1  0  0  0  0
  9 13  1  0  0  0  0
  9  6  1  0  0  0  0
 10  7  1  0  0  0  0
 11  6  1  0  0  0  0
 12  4  1  0  0  0  0
 13 17  1  0  0  0  0
 15 20  1  0  0  0  0
 16 11  1  0  0  0  0
 17  2  1  0  0  0  0
 18 25  1  0  0  0  0
 19 18  1  0  0  0  0
 19  5  1  0  0  0  0
 20 16  1  0  0  0  0
 21 13  1  0  0  0  0
 22  2  1  0  0  0  0
 23 28  1  0  0  0  0
 23 10  1  0  0  0  0
 25 27  1  0  0  0  0
 26  8  1  0  0  0  0
 27 21  1  0  0  0  0
 28 15  1  0  0  0  0
 29 30  1  0  0  0  0
 30 23  1  0  0  0  0
 30 31  1  0  0  0  0
 33 34  1  0  0  0  0
 34 31  1  0  0  0  0
 34 32  1  0  0  0  0
 35 29  2  0  0  0  0
 35 33  1  0  0  0  0
 37 36  1  0  0  0  0
M  END
>  <MODEL>
7

>  <REMARK>
 VINA RESULT:      -7.9      3.320      8.408
  Name = 
  2 active torsions:
  status: ('A' for Active; 'I' for Inactive)
    1  A    between atoms: C_4  and  C_37
    2  A    between atoms: C_23  and  C_30
                            x       y       z     vdW  Elec       q    Type
                         _______ _______ _______ _____ _____    ______ ____

>  <TORSDO>
F 2

$$$$
=
 OpenBabel11112417153D

 37 43  0  0  1  0  0  0  0  0999 V2000
  191.4290  175.9040  145.5620 O   0  0  0  0  0  0  0  0  0  0  0  0
  187.6630  177.4140  142.3870 C   0  0  0  0  0  0  0  0  0  0  0  0
  190.5910  174.2420  142.2590 C   0  0  1  0  0  3  0  0  0  0  0  0
  192.0720  176.3090  146.7450 C   0  0  2  0  0  3  0  0  0  0  0  0
  193.9740  176.2990  142.0620 C   0  0  0  0  0  2  0  0  0  0  0  0
  188.5600  175.3490  141.2160 C   0  0  1  0  0  3  0  0  0  0  0  0
  191.7690  175.0860  142.7500 C   0  0  1  0  0  3  0  0  0  0  0  0
  194.4290  175.9290  145.8070 C   0  0  2  0  0  3  0  0  0  0  0  0
  189.3490  175.0910  142.5090 C   0  0  2  0  0  3  0  0  0  0  0  0
  192.9420  175.2060  141.7360 C   0  0  2  0  0  3  0  0  0  0  0  0
  188.1880  174.0740  140.6090 N   0  0  0  0  0  2  0  0  0  0  0  0
  193.4000  175.5600  146.8870 C   0  0  0  0  0  2  0  0  0  0  0  0
  189.7250  176.3200  143.2380 N   0  0  2  0  0  0  0  0  0  0  0  0
  187.0040  177.3150  143.5970 F   0  0  0  0  0  0  0  0  0  0  0  0
  191.8100  172.7540  140.5450 C   0  0  0  0  0  2  0  0  0  0  0  0
  189.3690  173.2820  140.2160 C   0  0  0  0  0  2  0  0  0  0  0  0
  189.1710  177.5450  142.6430 C   0  0  0  0  0  2  0  0  0  0  0  0
  193.7710  176.0300  144.4980 N   0  0  2  0  0  0  0  0  0  0  0  0
  194.7190  176.0910  143.3870 C   0  0  0  0  0  2  0  0  0  0  0  0
  190.7060  173.7900  140.7850 C   0  0  1  0  0  3  0  0  0  0  0  0
  191.1790  176.4300  143.1870 C   0  0  1  0  0  3  0  0  0  0  0  0
  187.3250  176.1830  141.5310 C   0  0  0  0  0  2  0  0  0  0  0  0
  193.6330  173.8480  141.4930 C   0  0  1  0  0  3  0  0  0  0  0  0
  187.2230  178.5480  141.7320 F   0  0  0  0  0  0  0  0  0  0  0  0
  193.0830  177.2060  144.4920 O   0  0  0  0  0  0  0  0  0  0  0  0
  195.5040  174.8480  145.8220 C   0  0  0  0  0  1  0  0  0  0  0  0
  191.7110  176.8690  144.5630 C   0  0  2  0  0  3  0  0  0  0  0  0
  192.7740  172.7210  141.5760 O   0  0  0  0  0  0  0  0  0  0  0  0
  195.0660  172.4220  139.9910 C   0  0  0  0  0  3  0  0  0  0  0  0
  194.6100  173.8260  140.3050 C   0  0  1  0  0  3  0  0  0  0  0  0
  194.0950  174.5820  139.0750 C   0  0  0  0  0  2  0  0  0  0  0  0
  194.6290  175.1220  136.8160 O   0  0  0  0  0  1  0  0  0  0  0  0
  195.0880  172.8960  137.5400 C   0  0  0  0  0  2  0  0  0  0  0  0
  195.0560  174.3760  137.9120 C   0  0  2  0  0  3  0  0  0  0  0  0
  195.3280  172.0160  138.7400 C   0  0  0  0  0  3  0  0  0  0  0  0
  190.3660  174.9220  147.6380 F   0  0  0  0  0  0  0  0  0  0  0  0
  191.1890  175.9920  147.9360 C   0  0  0  0  0  2  0  0  0  0  0  0
  1  4  1  0  0  0  0
  2 17  1  0  0  0  0
  2 14  1  0  0  0  0
  3  9  1  0  0  0  0
  3  7  1  0  0  0  0
  4 12  1  0  0  0  0
  4 37  1  0  0  0  0
  5 19  1  0  0  0  0
  6 22  1  0  0  0  0
  6  9  1  0  0  0  0
  7 21  1  0  0  0  0
  8 26  1  0  0  0  0
  8 12  1  0  0  0  0
  9 13  1  0  0  0  0
 10  5  1  0  0  0  0
 10  7  1  0  0  0  0
 11  6  1  0  0  0  0
 15 20  1  0  0  0  0
 15 28  1  0  0  0  0
 16 11  1  0  0  0  0
 16 20  1  0  0  0  0
 17 13  1  0  0  0  0
 18  8  1  0  0  0  0
 19 18  1  0  0  0  0
 20  3  1  0  0  0  0
 21 13  1  0  0  0  0
 21 27  1  0  0  0  0
 22  2  1  0  0  0  0
 23 28  1  0  0  0  0
 23 10  1  0  0  0  0
 24  2  1  0  0  0  0
 25 18  1  0  0  0  0
 25 27  1  0  0  0  0
 27  1  1  0  0  0  0
 29 30  1  0  0  0  0
 30 23  1  0  0  0  0
 31 30  1  0  0  0  0
 32 34  1  0  0  0  0
 33 34  1  0  0  0  0
 33 35  1  0  0  0  0
 34 31  1  0  0  0  0
 35 29  2  0  0  0  0
 36 37  1  0  0  0  0
M  END
>  <MODEL>
8

>  <REMARK>
 VINA RESULT:      -7.9      3.638      6.987
  Name = 
  2 active torsions:
  status: ('A' for Active; 'I' for Inactive)
    1  A    between atoms: C_4  and  C_37
    2  A    between atoms: C_23  and  C_30
                            x       y       z     vdW  Elec       q    Type
                         _______ _______ _______ _____ _____    ______ ____

>  <TORSDO>
F 2

$$$$
=
 OpenBabel11112417153D

 37 43  0  0  1  0  0  0  0  0999 V2000
  188.9040  175.1600  143.1130 O   0  0  0  0  0  0  0  0  0  0  0  0
  189.2700  172.8670  138.5140 C   0  0  0  0  0  0  0  0  0  0  0  0
  190.6750  171.8700  142.4740 C   0  0  1  0  0  3  0  0  0  0  0  0
  188.4510  176.3600  143.6900 C   0  0  2  0  0  3  0  0  0  0  0  0
  193.2360  174.8160  143.1670 C   0  0  0  0  0  2  0  0  0  0  0  0
  190.4010  171.1890  140.0450 C   0  0  1  0  0  3  0  0  0  0  0  0
  191.1550  173.2760  142.8370 C   0  0  1  0  0  3  0  0  0  0  0  0
  190.5690  176.6930  145.0990 C   0  0  2  0  0  3  0  0  0  0  0  0
  189.8500  172.0350  141.2020 C   0  0  2  0  0  3  0  0  0  0  0  0
  192.6790  173.3810  143.1270 C   0  0  2  0  0  3  0  0  0  0  0  0
  190.4410  169.7840  140.4430 N   0  0  0  0  0  2  0  0  0  0  0  0
  189.0430  176.5070  145.0950 C   0  0  0  0  0  2  0  0  0  0  0  0
  189.7130  173.4720  140.8830 N   0  0  2  0  0  0  0  0  0  0  0  0
  187.9140  173.1150  138.6120 F   0  0  0  0  0  0  0  0  0  0  0  0
  192.5160  170.4760  143.6180 C   0  0  0  0  0  2  0  0  0  0  0  0
  191.3490  169.5570  141.5840 C   0  0  0  0  0  2  0  0  0  0  0  0
  190.0220  173.7910  139.4820 C   0  0  0  0  0  2  0  0  0  0  0  0
  191.1890  175.7850  144.1250 N   0  0  2  0  0  0  0  0  0  0  0  0
  192.6410  175.6940  144.2750 C   0  0  0  0  0  2  0  0  0  0  0  0
  191.8130  170.8360  142.3040 C   0  0  1  0  0  3  0  0  0  0  0  0
  190.6650  174.1970  141.7160 C   0  0  1  0  0  3  0  0  0  0  0  0
  189.5280  171.3820  138.8130 C   0  0  0  0  0  2  0  0  0  0  0  0
  193.0800  172.5980  144.3940 C   0  0  1  0  0  3  0  0  0  0  0  0
  189.6810  173.1420  137.2250 F   0  0  0  0  0  0  0  0  0  0  0  0
  190.9540  176.3110  142.8910 O   0  0  0  0  0  0  0  0  0  0  0  0
  191.0500  176.4180  146.5200 C   0  0  0  0  0  1  0  0  0  0  0  0
  190.0000  175.4700  142.2710 C   0  0  2  0  0  3  0  0  0  0  0  0
  192.3100  171.4310  144.6380 O   0  0  0  0  0  0  0  0  0  0  0  0
  195.3470  172.6360  143.2960 C   0  0  0  0  0  3  0  0  0  0  0  0
  194.5960  172.4210  144.5890 C   0  0  1  0  0  3  0  0  0  0  0  0
  195.1630  173.2350  145.7570 C   0  0  0  0  0  2  0  0  0  0  0  0
  197.1910  173.7910  146.8780 O   0  0  0  0  0  1  0  0  0  0  0  0
  197.2490  173.7230  144.4950 C   0  0  0  0  0  2  0  0  0  0  0  0
  196.6800  173.1130  145.7730 C   0  0  2  0  0  3  0  0  0  0  0  0
  196.5700  173.1840  143.2610 C   0  0  0  0  0  3  0  0  0  0  0  0
  186.4150  175.5680  142.7630 F   0  0  0  0  0  0  0  0  0  0  0  0
  186.9380  176.3370  143.7850 C   0  0  0  0  0  2  0  0  0  0  0  0
  1  4  1  0  0  0  0
  2 14  1  0  0  0  0
  2 22  1  0  0  0  0
  2 17  1  0  0  0  0
  3  7  1  0  0  0  0
  4 37  1  0  0  0  0
  4 12  1  0  0  0  0
  5 19  1  0  0  0  0
  6 11  1  0  0  0  0
  6  9  1  0  0  0  0
  7 10  1  0  0  0  0
  8 26  1  0  0  0  0
  9  3  1  0  0  0  0
 10  5  1  0  0  0  0
 10 23  1  0  0  0  0
 11 16  1  0  0  0  0
 12  8  1  0  0  0  0
 13  9  1  0  0  0  0
 13 21  1  0  0  0  0
 15 28  1  0  0  0  0
 16 20  1  0  0  0  0
 17 13  1  0  0  0  0
 18 19  1  0  0  0  0
 18  8  1  0  0  0  0
 20  3  1  0  0  0  0
 20 15  1  0  0  0  0
 21 27  1  0  0  0  0
 21  7  1  0  0  0  0
 22  6  1  0  0  0  0
 23 30  1  0  0  0  0
 23 28  1  0  0  0  0
 24  2  1  0  0  0  0
 25 18  1  0  0  0  0
 27 25  1  0  0  0  0
 27  1  1  0  0  0  0
 29 30  1  0  0  0  0
 30 31  1  0  0  0  0
 31 34  1  0  0  0  0
 33 34  1  0  0  0  0
 34 32  1  0  0  0  0
 35 29  2  0  0  0  0
 35 33  1  0  0  0  0
 36 37  1  0  0  0  0
M  END
>  <MODEL>
9

>  <REMARK>
 VINA RESULT:      -7.7      2.938      6.756
  Name = 
  2 active torsions:
  status: ('A' for Active; 'I' for Inactive)
    1  A    between atoms: C_4  and  C_37
    2  A    between atoms: C_23  and  C_30
                            x       y       z     vdW  Elec       q    Type
                         _______ _______ _______ _____ _____    ______ ____

>  <TORSDO>
F 2

$$$$
