=
 OpenBabel11112417343D

 28 32  0  0  1  0  0  0  0  0999 V2000
  192.8420  175.6890  146.1290 C   0  0  0  0  0  0  0  0  0  0  0  0
  192.0060  171.4950  144.1990 O   0  0  0  0  0  0  0  0  0  0  0  0
  186.8880  176.4730  144.1830 O   0  0  0  0  0  0  0  0  0  0  0  0
  194.9380  174.5130  144.6520 C   0  0  0  0  0  3  0  0  0  0  0  0
  188.5320  176.2360  142.4270 C   0  0  2  0  0  3  0  0  0  0  0  0
  191.8190  176.4210  146.9440 C   0  0  0  0  0  2  0  0  0  0  0  0
  189.6340  172.0560  144.6280 O   0  0  0  0  0  0  0  0  0  0  0  0
  190.7760  172.1720  143.6540 S   0  0  0  0  0  0  0  0  0  0  0  0
  190.1820  172.3330  140.9710 C   0  0  0  0  0  0  0  0  0  0  0  0
  191.1220  173.8260  143.2920 N   0  0  1  0  0  0  0  0  0  0  0  0
  188.5480  174.9430  147.5960 O   0  0  0  0  0  0  0  0  0  0  0  0
  190.4070  176.0050  144.0290 C   0  0  1  0  0  3  0  0  0  0  0  0
  190.0760  173.6660  141.1040 C   0  0  0  0  0  3  0  0  0  0  0  0
  190.3420  171.4780  142.1220 N   0  0  0  0  0  2  0  0  0  0  0  0
  189.4410  175.6940  147.1110 C   0  0  0  0  0  0  0  0  0  0  0  0
  192.5360  174.9410  144.9600 C   0  0  0  0  0  0  0  0  0  0  0  0
  188.0910  176.3150  143.8300 C   0  0  0  0  0  0  0  0  0  0  0  0
  190.1610  171.7320  139.6130 C   0  0  0  0  0  1  0  0  0  0  0  0
  189.0630  176.7350  146.1110 C   0  0  0  0  0  2  0  0  0  0  0  0
  193.6160  174.3730  144.2300 C   0  0  0  0  0  3  0  0  0  0  0  0
  194.1740  175.8390  146.5270 C   0  0  0  0  0  3  0  0  0  0  0  0
  195.2190  175.2420  145.8040 C   0  0  0  0  0  3  0  0  0  0  0  0
  190.8150  175.5060  147.4660 N   0  0  0  0  0  2  0  0  0  0  0  0
  189.9880  175.7730  142.5650 C   0  0  1  0  0  3  0  0  0  0  0  0
  189.1500  176.1820  144.7580 N   0  0  0  0  0  0  0  0  0  0  0  0
  190.0190  174.2710  142.4750 C   0  0  2  0  0  3  0  0  0  0  0  0
  188.5060  177.5680  141.8370 N   0  0  0  0  0  1  0  0  0  0  0  0
  191.1110  174.6990  144.4690 C   0  0  2  0  0  3  0  0  0  0  0  0
  1 21  1  0  0  0  0
  1  6  1  0  0  0  0
  4 22  1  0  0  0  0
  5 27  1  1  0  0  0
  5 24  1  0  0  0  0
  5 17  1  0  0  0  0
  6 23  1  0  0  0  0
  8  2  2  0  0  0  0
  8  7  2  0  0  0  0
  9 13  2  0  0  0  0
  9 14  1  0  0  0  0
 10  8  1  1  0  0  0
 10 28  1  0  0  0  0
 12 28  1  0  0  0  0
 12 25  1  1  0  0  0
 13 26  1  0  0  0  0
 14  8  1  0  0  0  0
 15 23  1  0  0  0  0
 15 11  2  0  0  0  0
 16  1  2  0  0  0  0
 17  3  2  0  0  0  0
 17 25  1  0  0  0  0
 18  9  1  0  0  0  0
 19 15  1  0  0  0  0
 20  4  2  0  0  0  0
 20 16  1  0  0  0  0
 22 21  2  0  0  0  0
 24 12  1  0  0  0  0
 25 19  1  0  0  0  0
 26 24  1  0  0  0  0
 26 10  1  0  0  0  0
 28 16  1  0  0  0  0
M  END
>  <MODEL>
1

>  <REMARK>
 VINA RESULT:      -7.7      0.000      0.000
  Name = 
  0 active torsions:
  status: ('A' for Active; 'I' for Inactive)
                            x       y       z     vdW  Elec       q    Type
                         _______ _______ _______ _____ _____    ______ ____

>  <TORSDO>
F 0

$$$$
=
 OpenBabel11112417343D

 28 32  0  0  1  0  0  0  0  0999 V2000
  188.8240  173.9930  141.2780 C   0  0  0  0  0  0  0  0  0  0  0  0
  193.1870  175.6690  141.6870 O   0  0  0  0  0  0  0  0  0  0  0  0
  188.2870  177.3380  146.6050 O   0  0  0  0  0  0  0  0  0  0  0  0
  190.9390  172.2490  140.6100 C   0  0  0  0  0  3  0  0  0  0  0  0
  189.7130  175.3910  146.7410 C   0  0  2  0  0  3  0  0  0  0  0  0
  187.6110  174.8130  141.5940 C   0  0  0  0  0  2  0  0  0  0  0  0
  192.1070  177.4320  143.0490 O   0  0  0  0  0  0  0  0  0  0  0  0
  192.7320  176.0630  143.0680 S   0  0  0  0  0  0  0  0  0  0  0  0
  193.9790  175.2380  145.3790 C   0  0  0  0  0  0  0  0  0  0  0  0
  191.6320  174.8820  143.6870 N   0  0  1  0  0  0  0  0  0  0  0  0
  187.9340  178.2920  142.6420 O   0  0  0  0  0  0  0  0  0  0  0  0
  189.3250  174.7750  144.3730 C   0  0  1  0  0  3  0  0  0  0  0  0
  192.7960  174.7740  145.8170 C   0  0  0  0  0  2  0  0  0  0  0  0
  194.0720  176.0220  144.1720 N   0  0  0  0  0  0  0  0  0  0  0  0
  187.7300  177.0470  142.6940 C   0  0  0  0  0  0  0  0  0  0  0  0
  190.0300  174.0410  142.0290 C   0  0  0  0  0  0  0  0  0  0  0  0
  188.8060  176.3260  146.0540 C   0  0  0  0  0  0  0  0  0  0  0  0
  195.2150  174.9160  146.1370 C   0  0  0  0  0  1  0  0  0  0  0  0
  187.3650  176.4150  143.9950 C   0  0  0  0  0  2  0  0  0  0  0  0
  191.0720  173.1400  141.6760 C   0  0  0  0  0  3  0  0  0  0  0  0
  188.6980  173.0790  140.2280 C   0  0  0  0  0  3  0  0  0  0  0  0
  189.7540  172.2210  139.8810 C   0  0  0  0  0  3  0  0  0  0  0  0
  187.9110  176.2360  141.5270 N   0  0  0  0  0  2  0  0  0  0  0  0
  190.2530  174.5430  145.5810 C   0  0  1  0  0  3  0  0  0  0  0  0
  188.5760  175.9900  144.6990 N   0  0  0  0  0  0  0  0  0  0  0  0
  191.5380  175.1610  145.1000 C   0  0  2  0  0  3  0  0  0  0  0  0
  188.9410  174.5410  147.6380 N   0  0  0  0  0  1  0  0  0  0  0  0
  190.2670  175.0250  143.1710 C   0  0  2  0  0  3  0  0  0  0  0  0
  1  6  1  0  0  0  0
  1 16  1  0  0  0  0
  2  8  2  0  0  0  0
  4 20  1  0  0  0  0
  5 27  1  1  0  0  0
  7  8  2  0  0  0  0
  8 14  1  0  0  0  0
  9 13  1  0  0  0  0
  9 18  1  0  0  0  0
 10  8  1  6  0  0  0
 10 26  1  0  0  0  0
 11 15  2  0  0  0  0
 12 25  1  1  0  0  0
 12 24  1  0  0  0  0
 14  9  2  0  0  0  0
 15 19  1  0  0  0  0
 16 28  1  0  0  0  0
 17  3  2  0  0  0  0
 17  5  1  0  0  0  0
 19 25  1  0  0  0  0
 20 16  2  0  0  0  0
 21  1  2  0  0  0  0
 22 21  1  0  0  0  0
 22  4  2  0  0  0  0
 23  6  1  0  0  0  0
 23 15  1  0  0  0  0
 24  5  1  0  0  0  0
 25 17  1  0  0  0  0
 26 24  1  0  0  0  0
 26 13  1  0  0  0  0
 28 10  1  0  0  0  0
 28 12  1  0  0  0  0
M  END
>  <MODEL>
2

>  <REMARK>
 VINA RESULT:      -7.5      2.213      5.346
  Name = 
  0 active torsions:
  status: ('A' for Active; 'I' for Inactive)
                            x       y       z     vdW  Elec       q    Type
                         _______ _______ _______ _____ _____    ______ ____

>  <TORSDO>
F 0

$$$$
=
 OpenBabel11112417343D

 28 32  0  0  1  0  0  0  0  0999 V2000
  187.9030  176.4890  146.2680 C   0  0  0  0  0  0  0  0  0  0  0  0
  186.9720  179.0750  142.4660 O   0  0  0  0  0  0  0  0  0  0  0  0
  192.1460  174.1620  142.2150 O   0  0  0  0  0  0  0  0  0  0  0  0
  185.1900  177.0300  145.7140 C   0  0  0  0  0  3  0  0  0  0  0  0
  189.8350  173.7030  141.6760 C   0  0  2  0  0  3  0  0  0  0  0  0
  189.2990  176.1330  146.6810 C   0  0  0  0  0  2  0  0  0  0  0  0
  189.3000  178.5210  141.8340 O   0  0  0  0  0  0  0  0  0  0  0  0
  187.8630  178.0800  141.7700 S   0  0  0  0  0  0  0  0  0  0  0  0
  187.0660  176.5620  139.6170 C   0  0  0  0  0  0  0  0  0  0  0  0
  187.6590  176.5130  142.4710 N   0  0  1  0  0  0  0  0  0  0  0  0
  192.1700  177.3460  144.7850 O   0  0  0  0  0  0  0  0  0  0  0  0
  188.9910  174.9050  143.6710 C   0  0  1  0  0  3  0  0  0  0  0  0
  187.4410  175.4610  140.2920 C   0  0  0  0  0  2  0  0  0  0  0  0
  187.3610  177.8810  140.1200 N   0  0  0  0  0  0  0  0  0  0  0  0
  191.2910  176.5640  145.2460 C   0  0  0  0  0  0  0  0  0  0  0  0
  187.4620  176.5290  144.9170 C   0  0  0  0  0  0  0  0  0  0  0  0
  190.9190  174.2680  142.4980 C   0  0  0  0  0  0  0  0  0  0  0  0
  186.3130  176.4160  138.3450 C   0  0  0  0  0  1  0  0  0  0  0  0
  191.2890  175.1320  144.8300 C   0  0  0  0  0  2  0  0  0  0  0  0
  186.0860  176.7910  144.6720 C   0  0  0  0  0  3  0  0  0  0  0  0
  186.9880  176.7090  147.3020 C   0  0  0  0  0  3  0  0  0  0  0  0
  185.6410  176.9960  147.0300 C   0  0  0  0  0  3  0  0  0  0  0  0
  190.2640  177.0620  146.1110 N   0  0  0  0  0  2  0  0  0  0  0  0
  188.5850  174.3410  142.2960 C   0  0  1  0  0  3  0  0  0  0  0  0
  190.4540  174.9600  143.6390 N   0  0  0  0  0  0  0  0  0  0  0  0
  188.2680  175.6000  141.5340 C   0  0  2  0  0  3  0  0  0  0  0  0
  189.7840  172.2600  141.8710 N   0  0  0  0  0  1  0  0  0  0  0  0
  188.3950  176.3310  143.7250 C   0  0  2  0  0  3  0  0  0  0  0  0
  1  6  1  0  0  0  0
  1 21  1  0  0  0  0
  3 17  2  0  0  0  0
  4 22  1  0  0  0  0
  5 27  1  1  0  0  0
  5 24  1  0  0  0  0
  5 17  1  0  0  0  0
  8  7  2  0  0  0  0
  8  2  2  0  0  0  0
  9 14  2  0  0  0  0
  9 13  1  0  0  0  0
 10  8  1  6  0  0  0
 10 28  1  0  0  0  0
 11 15  2  0  0  0  0
 12 25  1  6  0  0  0
 12 28  1  0  0  0  0
 13 26  1  0  0  0  0
 14  8  1  0  0  0  0
 15 23  1  0  0  0  0
 16  1  2  0  0  0  0
 17 25  1  0  0  0  0
 18  9  1  0  0  0  0
 19 15  1  0  0  0  0
 20 16  1  0  0  0  0
 20  4  2  0  0  0  0
 22 21  2  0  0  0  0
 23  6  1  0  0  0  0
 24 12  1  0  0  0  0
 25 19  1  0  0  0  0
 26 24  1  0  0  0  0
 26 10  1  0  0  0  0
 28 16  1  0  0  0  0
M  END
>  <MODEL>
3

>  <REMARK>
 VINA RESULT:      -7.4      2.746      5.590
  Name = 
  0 active torsions:
  status: ('A' for Active; 'I' for Inactive)
                            x       y       z     vdW  Elec       q    Type
                         _______ _______ _______ _____ _____    ______ ____

>  <TORSDO>
F 0

$$$$
=
 OpenBabel11112417343D

 28 32  0  0  1  0  0  0  0  0999 V2000
  187.7130  176.2880  141.8480 C   0  0  0  0  0  0  0  0  0  0  0  0
  187.7640  175.6660  146.4980 O   0  0  0  0  0  0  0  0  0  0  0  0
  193.2310  173.3060  142.5590 O   0  0  0  0  0  0  0  0  0  0  0  0
  186.7460  178.4080  143.4380 C   0  0  0  0  0  3  0  0  0  0  0  0
  193.1220  175.5280  143.5050 C   0  0  2  0  0  3  0  0  0  0  0  0
  188.1920  175.2420  140.8880 C   0  0  0  0  0  2  0  0  0  0  0  0
  189.3160  173.8100  145.9750 O   0  0  0  0  0  0  0  0  0  0  0  0
  189.2020  175.2820  146.2670 S   0  0  0  0  0  0  0  0  0  0  0  0
  191.3290  176.5320  147.4870 C   0  0  0  0  0  0  0  0  0  0  0  0
  189.8680  176.2290  144.9830 N   0  0  1  0  0  0  0  0  0  0  0  0
  189.3790  172.0100  142.0920 O   0  0  0  0  0  0  0  0  0  0  0  0
  190.7770  175.8660  142.7820 C   0  0  1  0  0  3  0  0  0  0  0  0
  191.8610  176.7500  146.2710 C   0  0  0  0  0  3  0  0  0  0  0  0
  190.1610  175.7040  147.6530 N   0  0  0  0  0  2  0  0  0  0  0  0
  189.3870  173.1780  141.6120 C   0  0  0  0  0  0  0  0  0  0  0  0
  188.3390  176.5670  143.0930 C   0  0  0  0  0  0  0  0  0  0  0  0
  192.5790  174.3660  142.7810 C   0  0  0  0  0  0  0  0  0  0  0  0
  191.9410  177.1780  148.6760 C   0  0  0  0  0  1  0  0  0  0  0  0
  190.6840  173.8060  141.2260 C   0  0  0  0  0  2  0  0  0  0  0  0
  187.8370  177.6500  143.8650 C   0  0  0  0  0  3  0  0  0  0  0  0
  186.6350  177.0710  141.4240 C   0  0  0  0  0  3  0  0  0  0  0  0
  186.1390  178.1160  142.2210 C   0  0  0  0  0  3  0  0  0  0  0  0
  188.1680  173.9210  141.5000 N   0  0  0  0  0  2  0  0  0  0  0  0
  191.8720  176.3880  143.7320 C   0  0  1  0  0  3  0  0  0  0  0  0
  191.2400  174.5410  142.3630 N   0  0  0  0  0  0  0  0  0  0  0  0
  191.2950  176.0400  145.0780 C   0  0  2  0  0  3  0  0  0  0  0  0
  194.0480  176.2470  142.6390 N   0  0  0  0  0  1  0  0  0  0  0  0
  189.5000  175.7460  143.6480 C   0  0  2  0  0  3  0  0  0  0  0  0
  1 16  1  0  0  0  0
  3 17  2  0  0  0  0
  4 20  1  0  0  0  0
  5 27  1  6  0  0  0
  5 24  1  0  0  0  0
  6 23  1  0  0  0  0
  6  1  1  0  0  0  0
  7  8  2  0  0  0  0
  8  2  2  0  0  0  0
  8 14  1  0  0  0  0
  9 14  1  0  0  0  0
  9 18  1  0  0  0  0
 10 26  1  0  0  0  0
 10  8  1  1  0  0  0
 12 25  1  1  0  0  0
 12 28  1  0  0  0  0
 12 24  1  0  0  0  0
 13  9  2  0  0  0  0
 15 11  2  0  0  0  0
 16 28  1  0  0  0  0
 16 20  2  0  0  0  0
 17  5  1  0  0  0  0
 19 15  1  0  0  0  0
 19 25  1  0  0  0  0
 21  1  2  0  0  0  0
 21 22  1  0  0  0  0
 22  4  2  0  0  0  0
 23 15  1  0  0  0  0
 24 26  1  0  0  0  0
 25 17  1  0  0  0  0
 26 13  1  0  0  0  0
 28 10  1  0  0  0  0
M  END
>  <MODEL>
4

>  <REMARK>
 VINA RESULT:      -7.3      2.097      6.270
  Name = 
  0 active torsions:
  status: ('A' for Active; 'I' for Inactive)
                            x       y       z     vdW  Elec       q    Type
                         _______ _______ _______ _____ _____    ______ ____

>  <TORSDO>
F 0

$$$$
=
 OpenBabel11112417343D

 28 32  0  0  1  0  0  0  0  0999 V2000
  188.5860  173.8540  142.4910 C   0  0  0  0  0  0  0  0  0  0  0  0
  192.3630  175.7450  144.5340 O   0  0  0  0  0  0  0  0  0  0  0  0
  186.1710  179.3000  144.5800 O   0  0  0  0  0  0  0  0  0  0  0  0
  190.2720  172.1140  143.9370 C   0  0  0  0  0  3  0  0  0  0  0  0
  186.8270  177.7290  146.2960 C   0  0  2  0  0  3  0  0  0  0  0  0
  187.6120  174.6620  141.6890 C   0  0  0  0  0  2  0  0  0  0  0  0
  191.1780  177.8850  144.1570 O   0  0  0  0  0  0  0  0  0  0  0  0
  191.3670  176.7250  145.0960 S   0  0  0  0  0  0  0  0  0  0  0  0
  191.0140  177.1660  147.7910 C   0  0  0  0  0  0  0  0  0  0  0  0
  189.8670  175.9270  145.4140 N   0  0  1  0  0  0  0  0  0  0  0  0
  188.1430  178.2320  141.1580 O   0  0  0  0  0  0  0  0  0  0  0  0
  187.5850  176.0410  144.6490 C   0  0  1  0  0  3  0  0  0  0  0  0
  189.7040  176.9060  147.6320 C   0  0  0  0  0  2  0  0  0  0  0  0
  191.8940  177.2830  146.6540 N   0  0  0  0  0  0  0  0  0  0  0  0
  187.6600  177.1530  141.6030 C   0  0  0  0  0  0  0  0  0  0  0  0
  189.2050  174.3160  143.6840 C   0  0  0  0  0  0  0  0  0  0  0  0
  186.6490  178.1760  144.9040 C   0  0  0  0  0  0  0  0  0  0  0  0
  191.5670  177.3070  149.1610 C   0  0  0  0  0  1  0  0  0  0  0  0
  186.5420  177.1990  142.5890 C   0  0  0  0  0  2  0  0  0  0  0  0
  190.0380  173.4110  144.3970 C   0  0  0  0  0  3  0  0  0  0  0  0
  188.8120  172.5450  142.0550 C   0  0  0  0  0  3  0  0  0  0  0  0
  189.6640  171.6820  142.7620 C   0  0  0  0  0  3  0  0  0  0  0  0
  188.2230  175.8950  141.2140 N   0  0  0  0  0  2  0  0  0  0  0  0
  187.6740  176.4600  146.1290 C   0  0  1  0  0  3  0  0  0  0  0  0
  187.0800  177.2240  143.9510 N   0  0  0  0  0  0  0  0  0  0  0  0
  189.1250  176.8400  146.2500 C   0  0  2  0  0  3  0  0  0  0  0  0
  185.5310  177.3700  146.8570 N   0  0  0  0  0  1  0  0  0  0  0  0
  189.0400  175.7360  144.2180 C   0  0  2  0  0  3  0  0  0  0  0  0
  1 16  1  0  0  0  0
  2  8  2  0  0  0  0
  3 17  2  0  0  0  0
  4 20  1  0  0  0  0
  5 27  1  6  0  0  0
  6  1  1  0  0  0  0
  7  8  2  0  0  0  0
  8 14  1  0  0  0  0
  9 18  1  0  0  0  0
 10  8  1  6  0  0  0
 10 26  1  0  0  0  0
 11 15  2  0  0  0  0
 12 25  1  6  0  0  0
 12 24  1  0  0  0  0
 13  9  1  0  0  0  0
 14  9  2  0  0  0  0
 15 19  1  0  0  0  0
 16 28  1  0  0  0  0
 16 20  2  0  0  0  0
 17  5  1  0  0  0  0
 19 25  1  0  0  0  0
 21  1  2  0  0  0  0
 21 22  1  0  0  0  0
 22  4  2  0  0  0  0
 23 15  1  0  0  0  0
 23  6  1  0  0  0  0
 24 26  1  0  0  0  0
 24  5  1  0  0  0  0
 25 17  1  0  0  0  0
 26 13  1  0  0  0  0
 28 12  1  0  0  0  0
 28 10  1  0  0  0  0
M  END
>  <MODEL>
5

>  <REMARK>
 VINA RESULT:      -7.2      3.095      5.751
  Name = 
  0 active torsions:
  status: ('A' for Active; 'I' for Inactive)
                            x       y       z     vdW  Elec       q    Type
                         _______ _______ _______ _____ _____    ______ ____

>  <TORSDO>
F 0

$$$$
=
 OpenBabel11112417343D

 28 32  0  0  1  0  0  0  0  0999 V2000
  189.7520  172.9390  141.5420 C   0  0  0  0  0  0  0  0  0  0  0  0
  193.5370  175.6530  142.1060 O   0  0  0  0  0  0  0  0  0  0  0  0
  187.3320  177.5900  145.0570 O   0  0  0  0  0  0  0  0  0  0  0  0
  192.2160  171.6340  141.9700 C   0  0  0  0  0  3  0  0  0  0  0  0
  188.9640  176.1930  146.1650 C   0  0  2  0  0  3  0  0  0  0  0  0
  188.3840  173.5010  141.3010 C   0  0  0  0  0  2  0  0  0  0  0  0
  191.8770  177.4460  142.4940 O   0  0  0  0  0  0  0  0  0  0  0  0
  192.6850  176.3490  143.1330 S   0  0  0  0  0  0  0  0  0  0  0  0
  193.4060  176.6380  145.7740 C   0  0  0  0  0  0  0  0  0  0  0  0
  191.6630  175.2030  143.9280 N   0  0  1  0  0  0  0  0  0  0  0  0
  187.8690  177.1020  141.0310 O   0  0  0  0  0  0  0  0  0  0  0  0
  189.3050  174.7730  144.1640 C   0  0  1  0  0  3  0  0  0  0  0  0
  192.2380  176.0700  146.1240 C   0  0  0  0  0  2  0  0  0  0  0  0
  193.6830  176.9880  144.4020 N   0  0  0  0  0  0  0  0  0  0  0  0
  187.8590  175.9290  141.5000 C   0  0  0  0  0  0  0  0  0  0  0  0
  190.7000  173.5140  142.4310 C   0  0  0  0  0  0  0  0  0  0  0  0
  188.1290  176.6100  145.0250 C   0  0  0  0  0  0  0  0  0  0  0  0
  194.4380  176.8830  146.8130 C   0  0  0  0  0  1  0  0  0  0  0  0
  187.2750  175.6820  142.8500 C   0  0  0  0  0  2  0  0  0  0  0  0
  191.9260  172.8250  142.6360 C   0  0  0  0  0  3  0  0  0  0  0  0
  190.0480  171.7330  140.8990 C   0  0  0  0  0  3  0  0  0  0  0  0
  191.2810  171.0890  141.0960 C   0  0  0  0  0  3  0  0  0  0  0  0
  188.4620  174.8540  140.7710 N   0  0  0  0  0  2  0  0  0  0  0  0
  189.9130  175.1720  145.5220 C   0  0  1  0  0  3  0  0  0  0  0  0
  188.3140  175.8110  143.8730 N   0  0  0  0  0  0  0  0  0  0  0  0
  191.1640  175.8910  145.0940 C   0  0  2  0  0  3  0  0  0  0  0  0
  188.1320  175.5180  147.1520 N   0  0  0  0  0  1  0  0  0  0  0  0
  190.4740  174.8400  143.1520 C   0  0  2  0  0  3  0  0  0  0  0  0
  1 16  1  0  0  0  0
  2  8  2  0  0  0  0
  4 20  1  0  0  0  0
  5 27  1  1  0  0  0
  6  1  1  0  0  0  0
  7  8  2  0  0  0  0
  8 14  1  0  0  0  0
  9 13  1  0  0  0  0
  9 18  1  0  0  0  0
 10  8  1  6  0  0  0
 10 26  1  0  0  0  0
 11 15  2  0  0  0  0
 12 25  1  6  0  0  0
 12 24  1  0  0  0  0
 14  9  2  0  0  0  0
 15 19  1  0  0  0  0
 16 20  2  0  0  0  0
 16 28  1  0  0  0  0
 17  3  2  0  0  0  0
 17  5  1  0  0  0  0
 19 25  1  0  0  0  0
 21 22  1  0  0  0  0
 21  1  2  0  0  0  0
 22  4  2  0  0  0  0
 23  6  1  0  0  0  0
 23 15  1  0  0  0  0
 24  5  1  0  0  0  0
 25 17  1  0  0  0  0
 26 24  1  0  0  0  0
 26 13  1  0  0  0  0
 28 10  1  0  0  0  0
 28 12  1  0  0  0  0
M  END
>  <MODEL>
6

>  <REMARK>
 VINA RESULT:      -7.0      2.475      5.331
  Name = 
  0 active torsions:
  status: ('A' for Active; 'I' for Inactive)
                            x       y       z     vdW  Elec       q    Type
                         _______ _______ _______ _____ _____    ______ ____

>  <TORSDO>
F 0

$$$$
=
 OpenBabel11112417343D

 28 32  0  0  1  0  0  0  0  0999 V2000
  191.9910  175.7280  146.4860 C   0  0  0  0  0  0  0  0  0  0  0  0
  190.2760  174.1520  142.4130 O   0  0  0  0  0  0  0  0  0  0  0  0
  197.0190  172.6570  144.2210 O   0  0  0  0  0  0  0  0  0  0  0  0
  189.3280  174.7960  146.4870 C   0  0  0  0  0  3  0  0  0  0  0  0
  195.1330  171.2660  144.8130 C   0  0  2  0  0  3  0  0  0  0  0  0
  193.3860  176.2570  146.6240 C   0  0  0  0  0  2  0  0  0  0  0  0
  192.6550  174.0780  141.7340 O   0  0  0  0  0  0  0  0  0  0  0  0
  191.5320  173.3220  142.3920 S   0  0  0  0  0  0  0  0  0  0  0  0
  191.5440  170.5750  142.2220 C   0  0  0  0  0  0  0  0  0  0  0  0
  191.9550  172.8480  143.9990 N   0  0  1  0  0  0  0  0  0  0  0  0
  195.5970  176.4620  143.7300 O   0  0  0  0  0  0  0  0  0  0  0  0
  193.7670  173.1980  145.5470 C   0  0  1  0  0  3  0  0  0  0  0  0
  192.3030  170.5380  143.3310 C   0  0  0  0  0  2  0  0  0  0  0  0
  191.2420  171.8230  141.5650 N   0  0  0  0  0  0  0  0  0  0  0  0
  195.0960  176.0680  144.8200 C   0  0  0  0  0  0  0  0  0  0  0  0
  191.6430  174.6130  145.6770 C   0  0  0  0  0  0  0  0  0  0  0  0
  195.8450  172.5480  144.6740 C   0  0  0  0  0  0  0  0  0  0  0  0
  190.9840  169.3100  141.6800 C   0  0  0  0  0  1  0  0  0  0  0  0
  195.7050  174.9070  145.5330 C   0  0  0  0  0  2  0  0  0  0  0  0
  190.2960  174.1580  145.7100 C   0  0  0  0  0  3  0  0  0  0  0  0
  191.0150  176.3420  147.2760 C   0  0  0  0  0  3  0  0  0  0  0  0
  189.6840  175.8920  147.2660 C   0  0  0  0  0  3  0  0  0  0  0  0
  193.9120  176.6860  145.3360 N   0  0  0  0  0  2  0  0  0  0  0  0
  193.7010  171.7170  145.1300 C   0  0  1  0  0  3  0  0  0  0  0  0
  195.0770  173.6630  145.0860 N   0  0  0  0  0  0  0  0  0  0  0  0
  192.9340  171.8000  143.8370 C   0  0  2  0  0  3  0  0  0  0  0  0
  195.6700  170.5380  145.9560 N   0  0  0  0  0  1  0  0  0  0  0  0
  192.6350  173.9000  144.7610 C   0  0  2  0  0  3  0  0  0  0  0  0
  1  6  1  0  0  0  0
  1 21  1  0  0  0  0
  3 17  2  0  0  0  0
  4 22  1  0  0  0  0
  5 24  1  0  0  0  0
  5 27  1  1  0  0  0
  7  8  2  0  0  0  0
  8  2  2  0  0  0  0
  9 13  1  0  0  0  0
 10  8  1  6  0  0  0
 10 28  1  0  0  0  0
 11 15  2  0  0  0  0
 12 25  1  6  0  0  0
 13 26  1  0  0  0  0
 14  9  2  0  0  0  0
 14  8  1  0  0  0  0
 15 23  1  0  0  0  0
 15 19  1  0  0  0  0
 16 20  1  0  0  0  0
 16  1  2  0  0  0  0
 17  5  1  0  0  0  0
 17 25  1  0  0  0  0
 18  9  1  0  0  0  0
 20  4  2  0  0  0  0
 22 21  2  0  0  0  0
 23  6  1  0  0  0  0
 24 12  1  0  0  0  0
 25 19  1  0  0  0  0
 26 10  1  0  0  0  0
 26 24  1  0  0  0  0
 28 12  1  0  0  0  0
 28 16  1  0  0  0  0
M  END
>  <MODEL>
7

>  <REMARK>
 VINA RESULT:      -6.9      3.008      5.499
  Name = 
  0 active torsions:
  status: ('A' for Active; 'I' for Inactive)
                            x       y       z     vdW  Elec       q    Type
                         _______ _______ _______ _____ _____    ______ ____

>  <TORSDO>
F 0

$$$$
=
 OpenBabel11112417343D

 28 32  0  0  1  0  0  0  0  0999 V2000
  188.3800  175.6460  141.5160 C   0  0  0  0  0  0  0  0  0  0  0  0
  189.7910  176.8320  145.8300 O   0  0  0  0  0  0  0  0  0  0  0  0
  193.0060  171.4470  142.4190 O   0  0  0  0  0  0  0  0  0  0  0  0
  188.4850  178.4000  142.1220 C   0  0  0  0  0  3  0  0  0  0  0  0
  193.7140  173.7520  142.2520 C   0  0  2  0  0  3  0  0  0  0  0  0
  188.2720  174.2220  141.0640 C   0  0  0  0  0  2  0  0  0  0  0  0
  190.6280  174.5050  145.9180 O   0  0  0  0  0  0  0  0  0  0  0  0
  190.9510  175.9220  145.5250 S   0  0  0  0  0  0  0  0  0  0  0  0
  193.5830  176.7230  145.6040 C   0  0  0  0  0  0  0  0  0  0  0  0
  191.3610  176.0270  143.8500 N   0  0  1  0  0  0  0  0  0  0  0  0
  189.0220  171.4800  143.3510 O   0  0  0  0  0  0  0  0  0  0  0  0
  191.4020  174.5790  141.9250 C   0  0  1  0  0  3  0  0  0  0  0  0
  193.7270  176.2730  144.3450 C   0  0  0  0  0  3  0  0  0  0  0  0
  192.3750  176.4730  146.3520 N   0  0  0  0  0  2  0  0  0  0  0  0
  189.1380  172.3040  142.4010 C   0  0  0  0  0  0  0  0  0  0  0  0
  189.4210  176.1370  142.3500 C   0  0  0  0  0  0  0  0  0  0  0  0
  192.7180  172.6670  142.2560 C   0  0  0  0  0  0  0  0  0  0  0  0
  194.6760  177.5140  146.2250 C   0  0  0  0  0  1  0  0  0  0  0  0
  190.3470  172.2540  141.5280 C   0  0  0  0  0  2  0  0  0  0  0  0
  189.4540  177.5310  142.6250 C   0  0  0  0  0  3  0  0  0  0  0  0
  187.4290  176.5320  141.0000 C   0  0  0  0  0  3  0  0  0  0  0  0
  187.4680  177.9010  141.3140 C   0  0  0  0  0  3  0  0  0  0  0  0
  188.1500  173.3210  142.2020 N   0  0  0  0  0  2  0  0  0  0  0  0
  192.8330  175.0080  142.3010 C   0  0  1  0  0  3  0  0  0  0  0  0
  191.3920  173.1220  142.0740 N   0  0  0  0  0  0  0  0  0  0  0  0
  192.6610  175.4100  143.7410 C   0  0  2  0  0  3  0  0  0  0  0  0
  194.4470  173.7290  140.9930 N   0  0  0  0  0  1  0  0  0  0  0  0
  190.4820  175.2390  142.9800 C   0  0  2  0  0  3  0  0  0  0  0  0
  1 16  1  0  0  0  0
  4 20  1  0  0  0  0
  5 27  1  6  0  0  0
  5 17  1  0  0  0  0
  5 24  1  0  0  0  0
  6  1  1  0  0  0  0
  6 23  1  0  0  0  0
  8  2  2  0  0  0  0
  8  7  2  0  0  0  0
  8 14  1  0  0  0  0
  9 18  1  0  0  0  0
  9 14  1  0  0  0  0
 10  8  1  1  0  0  0
 12 25  1  1  0  0  0
 12 24  1  0  0  0  0
 12 28  1  0  0  0  0
 13  9  2  0  0  0  0
 15 11  2  0  0  0  0
 16 20  2  0  0  0  0
 16 28  1  0  0  0  0
 17  3  2  0  0  0  0
 19 25  1  0  0  0  0
 19 15  1  0  0  0  0
 21 22  1  0  0  0  0
 21  1  2  0  0  0  0
 22  4  2  0  0  0  0
 23 15  1  0  0  0  0
 24 26  1  0  0  0  0
 25 17  1  0  0  0  0
 26 10  1  0  0  0  0
 26 13  1  0  0  0  0
 28 10  1  0  0  0  0
M  END
>  <MODEL>
8

>  <REMARK>
 VINA RESULT:      -6.8      2.276      6.114
  Name = 
  0 active torsions:
  status: ('A' for Active; 'I' for Inactive)
                            x       y       z     vdW  Elec       q    Type
                         _______ _______ _______ _____ _____    ______ ____

>  <TORSDO>
F 0

$$$$
=
 OpenBabel11112417343D

 28 32  0  0  1  0  0  0  0  0999 V2000
  187.9390  175.6020  142.3110 C   0  0  0  0  0  0  0  0  0  0  0  0
  189.7920  175.6490  146.6210 O   0  0  0  0  0  0  0  0  0  0  0  0
  193.3650  172.5460  141.2740 O   0  0  0  0  0  0  0  0  0  0  0  0
  187.6170  177.9620  143.8220 C   0  0  0  0  0  3  0  0  0  0  0  0
  193.5840  174.8820  141.8540 C   0  0  2  0  0  3  0  0  0  0  0  0
  188.0320  174.4120  141.4050 C   0  0  0  0  0  2  0  0  0  0  0  0
  191.0610  173.6800  145.8190 O   0  0  0  0  0  0  0  0  0  0  0  0
  191.0380  175.1820  145.9140 S   0  0  0  0  0  0  0  0  0  0  0  0
  193.4450  176.5120  146.0250 C   0  0  0  0  0  0  0  0  0  0  0  0
  191.1370  175.9090  144.3490 N   0  0  1  0  0  0  0  0  0  0  0  0
  189.6580  171.3420  142.5190 O   0  0  0  0  0  0  0  0  0  0  0  0
  191.1340  175.2020  142.0460 C   0  0  1  0  0  3  0  0  0  0  0  0
  193.4620  176.5340  144.6810 C   0  0  0  0  0  3  0  0  0  0  0  0
  192.4480  175.7600  146.7470 N   0  0  0  0  0  2  0  0  0  0  0  0
  189.4560  172.4290  141.9080 C   0  0  0  0  0  0  0  0  0  0  0  0
  188.9910  176.0320  143.1650 C   0  0  0  0  0  0  0  0  0  0  0  0
  192.8270  173.6500  141.5720 C   0  0  0  0  0  0  0  0  0  0  0  0
  194.4550  177.2980  146.7800 C   0  0  0  0  0  1  0  0  0  0  0  0
  190.4910  172.9460  140.9650 C   0  0  0  0  0  2  0  0  0  0  0  0
  188.8040  177.2320  143.9020 C   0  0  0  0  0  3  0  0  0  0  0  0
  186.7650  176.3560  142.2240 C   0  0  0  0  0  3  0  0  0  0  0  0
  186.5940  177.5220  142.9880 C   0  0  0  0  0  3  0  0  0  0  0  0
  188.2740  173.1940  142.1650 N   0  0  0  0  0  2  0  0  0  0  0  0
  192.5000  175.8130  142.4160 C   0  0  1  0  0  3  0  0  0  0  0  0
  191.4270  173.8150  141.6810 N   0  0  0  0  0  0  0  0  0  0  0  0
  192.4950  175.6820  143.9150 C   0  0  2  0  0  3  0  0  0  0  0  0
  194.0890  175.4350  140.6040 N   0  0  0  0  0  1  0  0  0  0  0  0
  190.2940  175.2560  143.3440 C   0  0  2  0  0  3  0  0  0  0  0  0
  1 16  1  0  0  0  0
  3 17  2  0  0  0  0
  4 20  1  0  0  0  0
  5 27  1  6  0  0  0
  5 24  1  0  0  0  0
  6 23  1  0  0  0  0
  6  1  1  0  0  0  0
  7  8  2  0  0  0  0
  8  2  2  0  0  0  0
  8 14  1  0  0  0  0
  9 14  1  0  0  0  0
  9 18  1  0  0  0  0
 10  8  1  1  0  0  0
 12 25  1  1  0  0  0
 12 24  1  0  0  0  0
 12 28  1  0  0  0  0
 13  9  2  0  0  0  0
 15 23  1  0  0  0  0
 15 11  2  0  0  0  0
 16 28  1  0  0  0  0
 16 20  2  0  0  0  0
 17 25  1  0  0  0  0
 17  5  1  0  0  0  0
 19 25  1  0  0  0  0
 19 15  1  0  0  0  0
 21  1  2  0  0  0  0
 21 22  1  0  0  0  0
 22  4  2  0  0  0  0
 24 26  1  0  0  0  0
 26 10  1  0  0  0  0
 26 13  1  0  0  0  0
 28 10  1  0  0  0  0
M  END
>  <MODEL>
9

>  <REMARK>
 VINA RESULT:      -6.7      2.164      6.031
  Name = 
  0 active torsions:
  status: ('A' for Active; 'I' for Inactive)
                            x       y       z     vdW  Elec       q    Type
                         _______ _______ _______ _____ _____    ______ ____

>  <TORSDO>
F 0

$$$$
