=
 OpenBabel11112417363D

 28 32  0  0  1  0  0  0  0  0999 V2000
  191.8570  176.3530  145.0990 C   0  0  0  0  0  0  0  0  0  0  0  0
  189.8440  174.4170  141.2350 O   0  0  0  0  0  1  0  0  0  0  0  0
  185.6690  177.3280  146.3040 O   0  0  0  0  0  0  0  0  0  0  0  0
  193.2150  176.0820  142.6630 C   0  0  0  0  0  3  0  0  0  0  0  0
  186.8340  178.3170  144.5160 N   0  0  0  0  0  0  0  0  0  0  0  0
  191.2360  176.5380  146.4410 C   0  0  0  0  0  2  0  0  0  0  0  0
  187.7320  174.1260  142.2780 C   0  0  0  0  0  1  0  0  0  0  0  0
  188.6770  175.0970  141.5790 C   0  0  1  0  0  0  0  0  0  0  0  0
  186.9510  176.7200  140.5990 C   0  0  2  0  0  3  0  0  0  0  0  0
  189.0120  176.3010  142.4690 C   0  0  1  0  0  3  0  0  0  0  0  0
  188.7880  174.1710  147.7380 O   0  0  0  0  0  0  0  0  0  0  0  0
  188.8860  177.1410  144.7360 C   0  0  1  0  0  3  0  0  0  0  0  0
  187.4570  177.7500  141.4260 O   0  0  0  0  0  0  0  0  0  0  0  0
  188.0190  175.6380  140.2950 C   0  0  0  0  0  2  0  0  0  0  0  0
  189.2680  175.2450  147.2920 C   0  0  0  0  0  0  0  0  0  0  0  0
  191.1060  176.1950  143.9000 C   0  0  0  0  0  0  0  0  0  0  0  0
  186.7000  177.4020  145.5840 C   0  0  0  0  0  0  0  0  0  0  0  0
  186.4480  177.3130  139.3000 C   0  0  0  0  0  1  0  0  0  0  0  0
  188.3800  176.4350  147.1240 C   0  0  0  0  0  2  0  0  0  0  0  0
  191.8220  176.0490  142.6960 C   0  0  0  0  0  3  0  0  0  0  0  0
  193.2560  176.3830  145.0530 C   0  0  0  0  0  3  0  0  0  0  0  0
  193.9340  176.2490  143.8420 C   0  0  0  0  0  3  0  0  0  0  0  0
  190.6400  175.2970  146.9050 N   0  0  0  0  0  2  0  0  0  0  0  0
  188.0610  178.0450  143.7930 C   0  0  1  0  0  3  0  0  0  0  0  0
  187.8630  176.4940  145.6950 C   0  0  2  0  0  3  0  0  0  0  0  0
  187.7650  177.1200  142.6390 C   0  0  2  0  0  3  0  0  0  0  0  0
  185.7750  179.1910  144.0360 C   0  0  0  0  0  1  0  0  0  0  0  0
  189.5790  176.0680  143.8750 C   0  0  2  0  0  3  0  0  0  0  0  0
  1  6  1  0  0  0  0
  2  8  1  0  0  0  0
  4 20  2  0  0  0  0
  4 22  1  0  0  0  0
  5 17  1  0  0  0  0
  6 23  1  0  0  0  0
  8  7  1  1  0  0  0
  8 10  1  0  0  0  0
  9 18  1  6  0  0  0
  9 13  1  0  0  0  0
 10 26  1  0  0  0  0
 10 28  1  0  0  0  0
 12 25  1  0  0  0  0
 13 26  1  0  0  0  0
 14  9  1  0  0  0  0
 14  8  1  0  0  0  0
 15 11  2  0  0  0  0
 16  1  2  0  0  0  0
 17 25  1  0  0  0  0
 17  3  2  0  0  0  0
 19 15  1  0  0  0  0
 20 16  1  0  0  0  0
 21  1  1  0  0  0  0
 22 21  2  0  0  0  0
 23 15  1  0  0  0  0
 24  5  1  0  0  0  0
 24 12  1  0  0  0  0
 25 19  1  0  0  0  0
 26 24  1  0  0  0  0
 27  5  1  0  0  0  0
 28 16  1  0  0  0  0
 28 12  1  0  0  0  0
M  END
>  <MODEL>
1

>  <REMARK>
 VINA RESULT:      -8.3      0.000      0.000
  Name = 
  0 active torsions:
  status: ('A' for Active; 'I' for Inactive)
                            x       y       z     vdW  Elec       q    Type
                         _______ _______ _______ _____ _____    ______ ____

>  <TORSDO>
F 0

$$$$
=
 OpenBabel11112417363D

 28 32  0  0  1  0  0  0  0  0999 V2000
  188.6400  173.6050  142.5140 C   0  0  0  0  0  0  0  0  0  0  0  0
  192.5030  175.5100  144.5580 O   0  0  0  0  0  1  0  0  0  0  0  0
  186.2700  179.0740  144.7870 O   0  0  0  0  0  0  0  0  0  0  0  0
  190.8050  172.0570  143.3910 C   0  0  0  0  0  3  0  0  0  0  0  0
  187.0980  177.3360  146.1370 N   0  0  0  0  0  0  0  0  0  0  0  0
  187.4410  174.3290  142.0030 C   0  0  0  0  0  2  0  0  0  0  0  0
  191.6380  177.7200  144.5170 C   0  0  0  0  0  1  0  0  0  0  0  0
  191.6420  176.3750  145.2330 C   0  0  1  0  0  0  0  0  0  0  0  0
  191.0650  177.1660  147.6030 C   0  0  2  0  0  3  0  0  0  0  0  0
  190.2360  175.7670  145.3060 C   0  0  1  0  0  3  0  0  0  0  0  0
  187.7120  177.6730  140.5790 O   0  0  0  0  0  0  0  0  0  0  0  0
  187.9880  175.9500  144.4260 C   0  0  1  0  0  3  0  0  0  0  0  0
  189.8420  176.4570  147.5360 O   0  0  0  0  0  0  0  0  0  0  0  0
  192.1470  176.5510  146.6790 C   0  0  0  0  0  2  0  0  0  0  0  0
  187.3990  176.7540  141.3790 C   0  0  0  0  0  0  0  0  0  0  0  0
  189.5300  174.1450  143.4860 C   0  0  0  0  0  0  0  0  0  0  0  0
  186.8930  177.9850  144.9000 C   0  0  0  0  0  0  0  0  0  0  0  0
  191.5660  177.1790  149.0310 C   0  0  0  0  0  1  0  0  0  0  0  0
  186.6180  177.0840  142.6100 C   0  0  0  0  0  2  0  0  0  0  0  0
  190.6140  173.3430  143.8940 C   0  0  0  0  0  3  0  0  0  0  0  0
  188.8430  172.3130  142.0160 C   0  0  0  0  0  3  0  0  0  0  0  0
  189.9190  171.5410  142.4510 C   0  0  0  0  0  3  0  0  0  0  0  0
  187.8360  175.4200  141.1280 N   0  0  0  0  0  2  0  0  0  0  0  0
  187.9790  176.1990  145.9510 C   0  0  1  0  0  3  0  0  0  0  0  0
  187.5670  177.2890  143.7810 C   0  0  2  0  0  3  0  0  0  0  0  0
  189.4020  176.6210  146.2170 C   0  0  2  0  0  3  0  0  0  0  0  0
  186.7340  177.8880  147.4330 C   0  0  0  0  0  1  0  0  0  0  0  0
  189.4260  175.5780  144.0180 C   0  0  2  0  0  3  0  0  0  0  0  0
  1 16  1  0  0  0  0
  2  8  1  0  0  0  0
  3 17  2  0  0  0  0
  4 20  1  0  0  0  0
  5 27  1  0  0  0  0
  6  1  1  0  0  0  0
  8  7  1  6  0  0  0
  8 10  1  0  0  0  0
  8 14  1  0  0  0  0
  9 18  1  1  0  0  0
 10 26  1  0  0  0  0
 11 15  2  0  0  0  0
 12 24  1  0  0  0  0
 13  9  1  0  0  0  0
 14  9  1  0  0  0  0
 15 19  1  0  0  0  0
 16 20  2  0  0  0  0
 16 28  1  0  0  0  0
 17  5  1  0  0  0  0
 19 25  1  0  0  0  0
 21 22  1  0  0  0  0
 21  1  2  0  0  0  0
 22  4  2  0  0  0  0
 23 15  1  0  0  0  0
 23  6  1  0  0  0  0
 24  5  1  0  0  0  0
 24 26  1  0  0  0  0
 25 12  1  0  0  0  0
 25 17  1  0  0  0  0
 26 13  1  0  0  0  0
 28 12  1  0  0  0  0
 28 10  1  0  0  0  0
M  END
>  <MODEL>
2

>  <REMARK>
 VINA RESULT:      -7.8      2.137      5.315
  Name = 
  0 active torsions:
  status: ('A' for Active; 'I' for Inactive)
                            x       y       z     vdW  Elec       q    Type
                         _______ _______ _______ _____ _____    ______ ____

>  <TORSDO>
F 0

$$$$
=
 OpenBabel11112417363D

 28 32  0  0  1  0  0  0  0  0999 V2000
  189.7730  176.3740  145.6160 C   0  0  0  0  0  0  0  0  0  0  0  0
  189.4320  172.2860  143.1880 O   0  0  0  0  0  1  0  0  0  0  0  0
  184.7560  177.5750  141.8630 O   0  0  0  0  0  0  0  0  0  0  0  0
  191.9510  174.6510  145.2440 C   0  0  0  0  0  3  0  0  0  0  0  0
  186.9400  177.2180  141.0670 N   0  0  0  0  0  0  0  0  0  0  0  0
  188.6840  177.3570  145.8820 C   0  0  0  0  0  2  0  0  0  0  0  0
  187.1610  172.6350  142.5950 C   0  0  0  0  0  1  0  0  0  0  0  0
  188.6160  172.9630  142.2840 C   0  0  1  0  0  0  0  0  0  0  0  0
  188.4010  173.4610  139.7770 C   0  0  2  0  0  3  0  0  0  0  0  0
  188.8860  174.4710  142.3590 C   0  0  1  0  0  3  0  0  0  0  0  0
  185.2290  176.2850  146.3200 O   0  0  0  0  0  0  0  0  0  0  0  0
  187.9630  176.5790  143.1130 C   0  0  1  0  0  3  0  0  0  0  0  0
  188.7680  174.8060  140.0190 O   0  0  0  0  0  0  0  0  0  0  0  0
  188.9650  172.5000  140.8550 C   0  0  0  0  0  2  0  0  0  0  0  0
  186.2370  176.8310  145.8030 C   0  0  0  0  0  0  0  0  0  0  0  0
  189.7380  175.4340  144.5470 C   0  0  0  0  0  0  0  0  0  0  0  0
  185.9450  177.2150  142.0700 C   0  0  0  0  0  0  0  0  0  0  0  0
  188.8970  173.0370  138.4110 C   0  0  0  0  0  1  0  0  0  0  0  0
  186.0920  177.5750  144.5150 C   0  0  0  0  0  2  0  0  0  0  0  0
  190.8460  174.5750  144.3990 C   0  0  0  0  0  3  0  0  0  0  0  0
  190.8880  176.4400  146.4590 C   0  0  0  0  0  3  0  0  0  0  0  0
  191.9730  175.5840  146.2760 C   0  0  0  0  0  3  0  0  0  0  0  0
  187.5130  176.6900  146.4240 N   0  0  0  0  0  2  0  0  0  0  0  0
  188.1500  176.6040  141.5790 C   0  0  1  0  0  3  0  0  0  0  0  0
  186.4390  176.6610  143.3500 C   0  0  2  0  0  3  0  0  0  0  0  0
  188.1510  175.1370  141.2310 C   0  0  2  0  0  3  0  0  0  0  0  0
  186.6990  177.5100  139.6630 C   0  0  0  0  0  1  0  0  0  0  0  0
  188.5230  175.2420  143.6340 C   0  0  2  0  0  3  0  0  0  0  0  0
  1  6  1  0  0  0  0
  1 21  1  0  0  0  0
  3 17  2  0  0  0  0
  4 22  1  0  0  0  0
  5 24  1  0  0  0  0
  5 17  1  0  0  0  0
  6 23  1  0  0  0  0
  8 10  1  0  0  0  0
  8  7  1  1  0  0  0
  8  2  1  0  0  0  0
  9 18  1  6  0  0  0
  9 13  1  0  0  0  0
  9 14  1  0  0  0  0
 10 28  1  0  0  0  0
 12 25  1  0  0  0  0
 12 28  1  0  0  0  0
 13 26  1  0  0  0  0
 14  8  1  0  0  0  0
 15 11  2  0  0  0  0
 15 23  1  0  0  0  0
 16  1  2  0  0  0  0
 17 25  1  0  0  0  0
 19 15  1  0  0  0  0
 20 16  1  0  0  0  0
 20  4  2  0  0  0  0
 22 21  2  0  0  0  0
 24 12  1  0  0  0  0
 25 19  1  0  0  0  0
 26 24  1  0  0  0  0
 26 10  1  0  0  0  0
 27  5  1  0  0  0  0
 28 16  1  0  0  0  0
M  END
>  <MODEL>
3

>  <REMARK>
 VINA RESULT:      -7.8      1.952      3.189
  Name = 
  0 active torsions:
  status: ('A' for Active; 'I' for Inactive)
                            x       y       z     vdW  Elec       q    Type
                         _______ _______ _______ _____ _____    ______ ____

>  <TORSDO>
F 0

$$$$
=
 OpenBabel11112417363D

 28 32  0  0  1  0  0  0  0  0999 V2000
  191.1580  176.5460  144.8250 C   0  0  0  0  0  0  0  0  0  0  0  0
  190.4630  172.4050  142.5680 O   0  0  0  0  0  1  0  0  0  0  0  0
  185.1230  177.2000  142.8640 O   0  0  0  0  0  0  0  0  0  0  0  0
  193.2630  175.0340  143.7600 C   0  0  0  0  0  3  0  0  0  0  0  0
  186.9680  177.0410  141.4150 N   0  0  0  0  0  0  0  0  0  0  0  0
  190.1200  177.4240  145.4360 C   0  0  0  0  0  2  0  0  0  0  0  0
  188.0980  172.5260  142.7270 C   0  0  0  0  0  1  0  0  0  0  0  0
  189.3430  172.9860  141.9770 C   0  0  1  0  0  0  0  0  0  0  0  0
  188.3020  173.4210  139.6740 C   0  0  2  0  0  3  0  0  0  0  0  0
  189.4760  174.5140  141.9860 C   0  0  1  0  0  3  0  0  0  0  0  0
  187.0980  176.0330  146.9240 O   0  0  0  0  0  0  0  0  0  0  0  0
  188.6400  176.5360  143.0240 C   0  0  1  0  0  3  0  0  0  0  0  0
  188.5950  174.7990  139.8080 O   0  0  0  0  0  0  0  0  0  0  0  0
  189.2670  172.5360  140.5050 C   0  0  0  0  0  2  0  0  0  0  0  0
  187.8350  176.6650  146.1240 C   0  0  0  0  0  0  0  0  0  0  0  0
  190.8790  175.5900  143.8080 C   0  0  0  0  0  0  0  0  0  0  0  0
  186.3460  176.9590  142.6800 C   0  0  0  0  0  0  0  0  0  0  0  0
  188.3800  173.0240  138.2150 C   0  0  0  0  0  1  0  0  0  0  0  0
  187.2200  177.3710  144.9590 C   0  0  0  0  0  2  0  0  0  0  0  0
  191.9600  174.8390  143.3050 C   0  0  0  0  0  3  0  0  0  0  0  0
  192.4700  176.7320  145.2750 C   0  0  0  0  0  3  0  0  0  0  0  0
  193.5190  175.9810  144.7460 C   0  0  0  0  0  3  0  0  0  0  0  0
  189.2490  176.6570  146.3100 N   0  0  0  0  0  2  0  0  0  0  0  0
  188.3310  176.5540  141.5100 C   0  0  1  0  0  3  0  0  0  0  0  0
  187.2690  176.4760  143.7310 C   0  0  2  0  0  3  0  0  0  0  0  0
  188.3630  175.0880  141.1580 C   0  0  2  0  0  3  0  0  0  0  0  0
  186.2700  177.2860  140.1630 C   0  0  0  0  0  1  0  0  0  0  0  0
  189.4620  175.2670  143.3220 C   0  0  2  0  0  3  0  0  0  0  0  0
  1 21  1  0  0  0  0
  1  6  1  0  0  0  0
  4 22  1  0  0  0  0
  5 24  1  0  0  0  0
  5 17  1  0  0  0  0
  6 23  1  0  0  0  0
  8 10  1  0  0  0  0
  8  2  1  0  0  0  0
  8  7  1  1  0  0  0
  9 18  1  6  0  0  0
  9 13  1  0  0  0  0
  9 14  1  0  0  0  0
 10 28  1  0  0  0  0
 12 28  1  0  0  0  0
 12 25  1  0  0  0  0
 13 26  1  0  0  0  0
 14  8  1  0  0  0  0
 15 23  1  0  0  0  0
 15 11  2  0  0  0  0
 16  1  2  0  0  0  0
 17  3  2  0  0  0  0
 17 25  1  0  0  0  0
 19 15  1  0  0  0  0
 20  4  2  0  0  0  0
 20 16  1  0  0  0  0
 22 21  2  0  0  0  0
 24 12  1  0  0  0  0
 25 19  1  0  0  0  0
 26 24  1  0  0  0  0
 26 10  1  0  0  0  0
 27  5  1  0  0  0  0
 28 16  1  0  0  0  0
M  END
>  <MODEL>
4

>  <REMARK>
 VINA RESULT:      -7.8      1.758      2.576
  Name = 
  0 active torsions:
  status: ('A' for Active; 'I' for Inactive)
                            x       y       z     vdW  Elec       q    Type
                         _______ _______ _______ _____ _____    ______ ____

>  <TORSDO>
F 0

$$$$
=
 OpenBabel11112417363D

 28 32  0  0  1  0  0  0  0  0999 V2000
  187.1900  176.9470  143.0470 C   0  0  0  0  0  0  0  0  0  0  0  0
  189.4290  176.1840  147.1850 O   0  0  0  0  0  1  0  0  0  0  0  0
  192.2550  173.5850  141.1140 O   0  0  0  0  0  0  0  0  0  0  0  0
  186.8540  178.6110  145.2760 C   0  0  0  0  0  3  0  0  0  0  0  0
  192.3860  175.7260  142.0780 N   0  0  0  0  0  0  0  0  0  0  0  0
  187.2860  176.1270  141.8060 C   0  0  0  0  0  2  0  0  0  0  0  0
  190.6540  174.3210  146.3690 C   0  0  0  0  0  1  0  0  0  0  0  0
  190.5560  175.8410  146.4410 C   0  0  1  0  0  0  0  0  0  0  0  0
  193.0410  176.4270  146.2010 C   0  0  2  0  0  3  0  0  0  0  0  0
  190.4760  176.4700  145.0440 C   0  0  1  0  0  3  0  0  0  0  0  0
  187.7930  172.5210  141.9530 O   0  0  0  0  0  0  0  0  0  0  0  0
  190.1080  175.9740  142.7030 C   0  0  1  0  0  3  0  0  0  0  0  0
  192.7670  177.0600  144.9650 O   0  0  0  0  0  0  0  0  0  0  0  0
  191.8060  176.4150  147.1370 C   0  0  0  0  0  2  0  0  0  0  0  0
  188.0280  173.7360  141.7310 C   0  0  0  0  0  0  0  0  0  0  0  0
  188.1810  176.9450  144.0680 C   0  0  0  0  0  0  0  0  0  0  0  0
  191.7050  174.5410  141.7240 C   0  0  0  0  0  0  0  0  0  0  0  0
  194.1910  177.1310  146.8880 C   0  0  0  0  0  1  0  0  0  0  0  0
  189.3370  174.1340  141.1280 C   0  0  0  0  0  2  0  0  0  0  0  0
  187.9730  177.7850  145.1800 C   0  0  0  0  0  3  0  0  0  0  0  0
  186.0700  177.7800  143.1540 C   0  0  0  0  0  3  0  0  0  0  0  0
  185.9010  178.6090  144.2620 C   0  0  0  0  0  3  0  0  0  0  0  0
  187.0670  174.7210  142.1020 N   0  0  0  0  0  2  0  0  0  0  0  0
  191.5260  176.5540  142.9020 C   0  0  1  0  0  3  0  0  0  0  0  0
  190.3140  174.5190  142.2280 C   0  0  2  0  0  3  0  0  0  0  0  0
  191.7940  176.2580  144.3560 C   0  0  2  0  0  3  0  0  0  0  0  0
  193.8130  175.9470  141.9020 C   0  0  0  0  0  1  0  0  0  0  0  0
  189.3910  176.0040  144.0660 C   0  0  2  0  0  3  0  0  0  0  0  0
  1 21  2  0  0  0  0
  1 16  1  0  0  0  0
  3 17  2  0  0  0  0
  5 24  1  0  0  0  0
  6 23  1  0  0  0  0
  6  1  1  0  0  0  0
  8  7  1  6  0  0  0
  8 14  1  0  0  0  0
  8  2  1  0  0  0  0
  9 18  1  1  0  0  0
  9 14  1  0  0  0  0
 10  8  1  0  0  0  0
 12 24  1  0  0  0  0
 12 28  1  0  0  0  0
 13  9  1  0  0  0  0
 15 11  2  0  0  0  0
 15 23  1  0  0  0  0
 16 20  2  0  0  0  0
 17  5  1  0  0  0  0
 17 25  1  0  0  0  0
 19 15  1  0  0  0  0
 19 25  1  0  0  0  0
 20  4  1  0  0  0  0
 21 22  1  0  0  0  0
 22  4  2  0  0  0  0
 24 26  1  0  0  0  0
 25 12  1  0  0  0  0
 26 13  1  0  0  0  0
 26 10  1  0  0  0  0
 27  5  1  0  0  0  0
 28 16  1  0  0  0  0
 28 10  1  0  0  0  0
M  END
>  <MODEL>
5

>  <REMARK>
 VINA RESULT:      -7.7      2.245      6.373
  Name = 
  0 active torsions:
  status: ('A' for Active; 'I' for Inactive)
                            x       y       z     vdW  Elec       q    Type
                         _______ _______ _______ _____ _____    ______ ____

>  <TORSDO>
F 0

$$$$
=
 OpenBabel11112417363D

 28 32  0  0  1  0  0  0  0  0999 V2000
  187.2810  176.3920  146.4400 C   0  0  0  0  0  0  0  0  0  0  0  0
  186.7660  179.0030  142.4840 O   0  0  0  0  0  1  0  0  0  0  0  0
  191.7360  173.8200  142.6680 O   0  0  0  0  0  0  0  0  0  0  0  0
  184.8910  177.7060  145.7970 C   0  0  0  0  0  3  0  0  0  0  0  0
  189.4270  173.7220  142.2330 N   0  0  0  0  0  0  0  0  0  0  0  0
  188.5020  175.6620  146.8840 C   0  0  0  0  0  2  0  0  0  0  0  0
  188.9380  178.5000  141.6710 C   0  0  0  0  0  1  0  0  0  0  0  0
  187.4980  178.0230  141.8170 C   0  0  1  0  0  0  0  0  0  0  0  0
  187.3640  176.4790  139.7730 C   0  0  2  0  0  3  0  0  0  0  0  0
  187.4150  176.6940  142.5790 C   0  0  1  0  0  3  0  0  0  0  0  0
  191.8400  176.9250  146.1460 O   0  0  0  0  0  0  0  0  0  0  0  0
  188.6790  175.1640  143.9660 C   0  0  1  0  0  3  0  0  0  0  0  0
  187.1950  175.3670  140.6310 O   0  0  0  0  0  0  0  0  0  0  0  0
  186.8750  177.7980  140.4250 C   0  0  0  0  0  2  0  0  0  0  0  0
  190.8290  176.1760  146.1170 C   0  0  0  0  0  0  0  0  0  0  0  0
  187.0380  176.7670  145.0880 C   0  0  0  0  0  0  0  0  0  0  0  0
  190.5620  174.1970  142.9260 C   0  0  0  0  0  0  0  0  0  0  0  0
  186.6120  176.2430  138.4810 C   0  0  0  0  0  1  0  0  0  0  0  0
  190.8500  174.9450  145.2690 C   0  0  0  0  0  2  0  0  0  0  0  0
  185.8310  177.4370  144.8040 C   0  0  0  0  0  3  0  0  0  0  0  0
  186.3300  176.6690  147.4280 C   0  0  0  0  0  3  0  0  0  0  0  0
  185.1400  177.3230  147.1110 C   0  0  0  0  0  3  0  0  0  0  0  0
  189.6620  176.5360  146.8520 N   0  0  0  0  0  2  0  0  0  0  0  0
  188.2530  174.4600  142.6580 C   0  0  1  0  0  3  0  0  0  0  0  0
  190.2200  175.2420  143.9170 C   0  0  2  0  0  3  0  0  0  0  0  0
  188.0310  175.6230  141.7240 C   0  0  2  0  0  3  0  0  0  0  0  0
  189.4710  172.8490  141.0710 C   0  0  0  0  0  1  0  0  0  0  0  0
  188.0620  176.5760  143.9640 C   0  0  2  0  0  3  0  0  0  0  0  0
  1  6  1  0  0  0  0
  1 21  1  0  0  0  0
  3 17  2  0  0  0  0
  4 22  1  0  0  0  0
  5 24  1  0  0  0  0
  5 17  1  0  0  0  0
  8  7  1  6  0  0  0
  8  2  1  0  0  0  0
  8 10  1  0  0  0  0
  9 18  1  6  0  0  0
  9 14  1  0  0  0  0
  9 13  1  0  0  0  0
 10 28  1  0  0  0  0
 13 26  1  0  0  0  0
 14  8  1  0  0  0  0
 15 11  2  0  0  0  0
 15 23  1  0  0  0  0
 16  1  2  0  0  0  0
 17 25  1  0  0  0  0
 19 15  1  0  0  0  0
 20 16  1  0  0  0  0
 20  4  2  0  0  0  0
 22 21  2  0  0  0  0
 23  6  1  0  0  0  0
 24 12  1  0  0  0  0
 25 12  1  0  0  0  0
 25 19  1  0  0  0  0
 26 10  1  0  0  0  0
 26 24  1  0  0  0  0
 27  5  1  0  0  0  0
 28 12  1  0  0  0  0
 28 16  1  0  0  0  0
M  END
>  <MODEL>
6

>  <REMARK>
 VINA RESULT:      -7.6      2.118      4.857
  Name = 
  0 active torsions:
  status: ('A' for Active; 'I' for Inactive)
                            x       y       z     vdW  Elec       q    Type
                         _______ _______ _______ _____ _____    ______ ____

>  <TORSDO>
F 0

$$$$
=
 OpenBabel11112417363D

 28 32  0  0  1  0  0  0  0  0999 V2000
  192.2750  175.8740  144.8850 C   0  0  0  0  0  0  0  0  0  0  0  0
  191.2010  172.0760  142.2120 O   0  0  0  0  0  1  0  0  0  0  0  0
  185.9700  176.5720  144.2140 O   0  0  0  0  0  0  0  0  0  0  0  0
  194.1510  174.6120  143.2310 C   0  0  0  0  0  3  0  0  0  0  0  0
  187.5040  176.6930  142.4360 N   0  0  0  0  0  0  0  0  0  0  0  0
  191.3650  176.6160  145.8040 C   0  0  0  0  0  2  0  0  0  0  0  0
  188.9090  172.0820  142.8290 C   0  0  0  0  0  1  0  0  0  0  0  0
  189.9820  172.6930  141.9350 C   0  0  1  0  0  0  0  0  0  0  0  0
  188.5150  173.4130  139.9600 C   0  0  2  0  0  3  0  0  0  0  0  0
  190.1000  174.2080  142.1450 C   0  0  1  0  0  3  0  0  0  0  0  0
  188.6990  174.9120  147.6120 O   0  0  0  0  0  0  0  0  0  0  0  0
  189.4590  176.0270  143.6090 C   0  0  1  0  0  3  0  0  0  0  0  0
  188.8140  174.7680  140.2380 O   0  0  0  0  0  0  0  0  0  0  0  0
  189.6300  172.4560  140.4540 C   0  0  0  0  0  2  0  0  0  0  0  0
  189.2620  175.6800  146.7900 C   0  0  0  0  0  0  0  0  0  0  0  0
  191.8150  175.0640  143.8090 C   0  0  0  0  0  0  0  0  0  0  0  0
  187.1370  176.4070  143.7700 C   0  0  0  0  0  0  0  0  0  0  0  0
  188.3160  173.2320  138.4700 C   0  0  0  0  0  1  0  0  0  0  0  0
  188.4280  176.5210  145.8790 C   0  0  0  0  0  2  0  0  0  0  0  0
  192.7870  174.4340  143.0060 C   0  0  0  0  0  3  0  0  0  0  0  0
  193.6470  176.0440  145.1020 C   0  0  0  0  0  3  0  0  0  0  0  0
  194.5830  175.4170  144.2800 C   0  0  0  0  0  3  0  0  0  0  0  0
  190.6850  175.6990  146.7020 N   0  0  0  0  0  2  0  0  0  0  0  0
  188.8640  176.2490  142.2000 C   0  0  1  0  0  3  0  0  0  0  0  0
  188.2490  175.8140  144.5450 C   0  0  2  0  0  3  0  0  0  0  0  0
  188.8430  174.8520  141.6350 C   0  0  2  0  0  3  0  0  0  0  0  0
  186.5760  177.0880  141.3880 C   0  0  0  0  0  1  0  0  0  0  0  0
  190.3350  174.7600  143.5560 C   0  0  2  0  0  3  0  0  0  0  0  0
  1 21  1  0  0  0  0
  1  6  1  0  0  0  0
  4 22  1  0  0  0  0
  5 17  1  0  0  0  0
  6 23  1  0  0  0  0
  8 10  1  0  0  0  0
  8  2  1  0  0  0  0
  8  7  1  1  0  0  0
  9 18  1  6  0  0  0
  9 13  1  0  0  0  0
  9 14  1  0  0  0  0
 10 28  1  0  0  0  0
 12 25  1  0  0  0  0
 13 26  1  0  0  0  0
 14  8  1  0  0  0  0
 15 11  2  0  0  0  0
 16  1  2  0  0  0  0
 17  3  2  0  0  0  0
 17 25  1  0  0  0  0
 19 15  1  0  0  0  0
 20  4  2  0  0  0  0
 20 16  1  0  0  0  0
 22 21  2  0  0  0  0
 23 15  1  0  0  0  0
 24  5  1  0  0  0  0
 24 12  1  0  0  0  0
 25 19  1  0  0  0  0
 26 10  1  0  0  0  0
 26 24  1  0  0  0  0
 27  5  1  0  0  0  0
 28 12  1  0  0  0  0
 28 16  1  0  0  0  0
M  END
>  <MODEL>
7

>  <REMARK>
 VINA RESULT:      -7.5      1.716      2.321
  Name = 
  0 active torsions:
  status: ('A' for Active; 'I' for Inactive)
                            x       y       z     vdW  Elec       q    Type
                         _______ _______ _______ _____ _____    ______ ____

>  <TORSDO>
F 0

$$$$
=
 OpenBabel11112417363D

 28 32  0  0  1  0  0  0  0  0999 V2000
  187.2600  177.0710  142.1800 C   0  0  0  0  0  0  0  0  0  0  0  0
  187.8820  176.2420  146.8340 O   0  0  0  0  0  1  0  0  0  0  0  0
  192.6770  173.7040  142.1260 O   0  0  0  0  0  0  0  0  0  0  0  0
  186.1560  178.7100  144.1680 C   0  0  0  0  0  3  0  0  0  0  0  0
  192.4600  175.8310  143.1040 N   0  0  0  0  0  0  0  0  0  0  0  0
  187.7890  176.2660  141.0430 C   0  0  0  0  0  2  0  0  0  0  0  0
  189.3140  174.3830  146.4790 C   0  0  0  0  0  1  0  0  0  0  0  0
  189.2000  175.9020  146.5330 C   0  0  1  0  0  0  0  0  0  0  0  0
  191.6080  176.4750  147.1990 C   0  0  2  0  0  3  0  0  0  0  0  0
  189.6210  176.5490  145.2080 C   0  0  1  0  0  3  0  0  0  0  0  0
  188.2060  172.6560  141.3110 O   0  0  0  0  0  0  0  0  0  0  0  0
  190.1080  176.0850  142.8820 C   0  0  1  0  0  3  0  0  0  0  0  0
  191.7920  177.1260  145.9560 O   0  0  0  0  0  0  0  0  0  0  0  0
  190.1210  176.4600  147.6360 C   0  0  0  0  0  2  0  0  0  0  0  0
  188.5070  173.8730  141.2030 C   0  0  0  0  0  0  0  0  0  0  0  0
  187.8240  177.0510  143.4880 C   0  0  0  0  0  0  0  0  0  0  0  0
  191.9480  174.6540  142.5150 C   0  0  0  0  0  0  0  0  0  0  0  0
  192.4400  177.1640  148.2600 C   0  0  0  0  0  1  0  0  0  0  0  0
  189.9450  174.2700  141.1110 C   0  0  0  0  0  2  0  0  0  0  0  0
  187.2350  177.8780  144.4650 C   0  0  0  0  0  3  0  0  0  0  0  0
  186.1760  177.9100  141.8950 C   0  0  0  0  0  3  0  0  0  0  0  0
  185.6250  178.7260  142.8820 C   0  0  0  0  0  3  0  0  0  0  0  0
  187.4770  174.8590  141.2230 N   0  0  0  0  0  2  0  0  0  0  0  0
  191.3640  176.6530  143.5800 C   0  0  1  0  0  3  0  0  0  0  0  0
  190.4680  174.6350  142.4910 C   0  0  2  0  0  3  0  0  0  0  0  0
  191.0970  176.3370  145.0300 C   0  0  2  0  0  3  0  0  0  0  0  0
  193.8560  176.0450  143.4490 C   0  0  0  0  0  1  0  0  0  0  0  0
  188.9540  176.1020  143.9020 C   0  0  2  0  0  3  0  0  0  0  0  0
  1 16  1  0  0  0  0
  3 17  2  0  0  0  0
  4 20  1  0  0  0  0
  5 27  1  0  0  0  0
  5 24  1  0  0  0  0
  6 23  1  0  0  0  0
  6  1  1  0  0  0  0
  8  7  1  6  0  0  0
  8  2  1  0  0  0  0
  8 14  1  0  0  0  0
  9 14  1  0  0  0  0
  9 18  1  1  0  0  0
 10  8  1  0  0  0  0
 12 24  1  0  0  0  0
 12 28  1  0  0  0  0
 13  9  1  0  0  0  0
 15 23  1  0  0  0  0
 15 11  2  0  0  0  0
 16 28  1  0  0  0  0
 16 20  2  0  0  0  0
 17  5  1  0  0  0  0
 19 15  1  0  0  0  0
 19 25  1  0  0  0  0
 21  1  2  0  0  0  0
 21 22  1  0  0  0  0
 22  4  2  0  0  0  0
 24 26  1  0  0  0  0
 25 17  1  0  0  0  0
 25 12  1  0  0  0  0
 26 10  1  0  0  0  0
 26 13  1  0  0  0  0
 28 10  1  0  0  0  0
M  END
>  <MODEL>
8

>  <REMARK>
 VINA RESULT:      -7.3      2.043      6.399
  Name = 
  0 active torsions:
  status: ('A' for Active; 'I' for Inactive)
                            x       y       z     vdW  Elec       q    Type
                         _______ _______ _______ _____ _____    ______ ____

>  <TORSDO>
F 0

$$$$
=
 OpenBabel11112417363D

 28 32  0  0  1  0  0  0  0  0999 V2000
  187.8800  175.5320  142.7070 C   0  0  0  0  0  0  0  0  0  0  0  0
  190.2170  175.1680  146.8460 O   0  0  0  0  0  1  0  0  0  0  0  0
  193.6790  173.7800  140.7070 O   0  0  0  0  0  0  0  0  0  0  0  0
  187.0920  176.9140  145.0140 C   0  0  0  0  0  3  0  0  0  0  0  0
  193.2190  175.8180  141.7860 N   0  0  0  0  0  0  0  0  0  0  0  0
  188.2020  174.8400  141.4270 C   0  0  0  0  0  2  0  0  0  0  0  0
  191.9060  173.7560  145.9580 C   0  0  0  0  0  1  0  0  0  0  0  0
  191.4000  175.1860  146.1080 C   0  0  1  0  0  0  0  0  0  0  0  0
  193.6340  176.4340  145.9520 C   0  0  2  0  0  3  0  0  0  0  0  0
  191.1600  175.8480  144.7460 C   0  0  1  0  0  3  0  0  0  0  0  0
  189.6670  171.5020  141.3940 O   0  0  0  0  0  0  0  0  0  0  0  0
  190.9550  175.4040  142.3740 C   0  0  1  0  0  3  0  0  0  0  0  0
  193.2060  177.0390  144.7470 O   0  0  0  0  0  0  0  0  0  0  0  0
  192.4420  176.0360  146.8600 C   0  0  0  0  0  2  0  0  0  0  0  0
  189.5660  172.7470  141.2410 C   0  0  0  0  0  0  0  0  0  0  0  0
  188.8290  175.7400  143.7480 C   0  0  0  0  0  0  0  0  0  0  0  0
  192.8870  174.5140  141.3550 C   0  0  0  0  0  0  0  0  0  0  0  0
  194.5460  177.3840  146.7000 C   0  0  0  0  0  1  0  0  0  0  0  0
  190.7210  173.5180  140.6880 C   0  0  0  0  0  2  0  0  0  0  0  0
  188.3940  176.4280  144.8980 C   0  0  0  0  0  3  0  0  0  0  0  0
  186.5760  176.0230  142.8350 C   0  0  0  0  0  3  0  0  0  0  0  0
  186.1820  176.7110  143.9810 C   0  0  0  0  0  3  0  0  0  0  0  0
  188.3710  173.4130  141.6440 N   0  0  0  0  0  2  0  0  0  0  0  0
  192.1620  176.3340  142.6340 C   0  0  1  0  0  3  0  0  0  0  0  0
  191.5510  174.0890  141.8280 C   0  0  2  0  0  3  0  0  0  0  0  0
  192.4910  176.0390  144.0760 C   0  0  2  0  0  3  0  0  0  0  0  0
  194.5330  176.4260  141.6510 C   0  0  0  0  0  1  0  0  0  0  0  0
  190.2480  175.1630  143.7220 C   0  0  2  0  0  3  0  0  0  0  0  0
  1 21  2  0  0  0  0
  1 16  1  0  0  0  0
  3 17  2  0  0  0  0
  5 24  1  0  0  0  0
  6 23  1  0  0  0  0
  6  1  1  0  0  0  0
  8  7  1  6  0  0  0
  8  2  1  0  0  0  0
  8 14  1  0  0  0  0
  9 18  1  1  0  0  0
  9 14  1  0  0  0  0
 10  8  1  0  0  0  0
 12 24  1  0  0  0  0
 12 28  1  0  0  0  0
 13  9  1  0  0  0  0
 15 11  2  0  0  0  0
 15 23  1  0  0  0  0
 16 20  2  0  0  0  0
 17  5  1  0  0  0  0
 17 25  1  0  0  0  0
 19 15  1  0  0  0  0
 19 25  1  0  0  0  0
 20  4  1  0  0  0  0
 21 22  1  0  0  0  0
 22  4  2  0  0  0  0
 24 26  1  0  0  0  0
 25 12  1  0  0  0  0
 26 10  1  0  0  0  0
 26 13  1  0  0  0  0
 27  5  1  0  0  0  0
 28 16  1  0  0  0  0
 28 10  1  0  0  0  0
M  END
>  <MODEL>
9

>  <REMARK>
 VINA RESULT:      -7.2      2.733      6.635
  Name = 
  0 active torsions:
  status: ('A' for Active; 'I' for Inactive)
                            x       y       z     vdW  Elec       q    Type
                         _______ _______ _______ _____ _____    ______ ____

>  <TORSDO>
F 0

$$$$
