=
 OpenBabel11112417353D

 28 32  0  0  1  0  0  0  0  0999 V2000
  189.0810  175.9290  144.8080 C   0  0  0  0  0  0  0  0  0  0  0  0
  192.6520  176.8920  145.4980 O   0  0  0  0  0  0  0  0  0  0  0  0
  187.7130  172.6290  141.3110 O   0  0  0  0  0  1  0  0  0  0  0  0
  188.3540  175.3470  147.4550 C   0  0  0  0  0  3  0  0  0  0  0  0
  189.3700  176.2750  143.3820 C   0  0  0  0  0  2  0  0  0  0  0  0
  193.0430  174.7690  146.6860 O   0  0  0  0  0  0  0  0  0  0  0  0
  193.0410  175.4480  145.3450 S   0  0  0  0  0  0  0  0  0  0  0  0
  194.2550  175.1320  142.7690 C   0  0  1  0  0  3  0  0  0  0  0  0
  191.9280  174.6250  144.2330 C   0  0  1  0  0  3  0  0  0  0  0  0
  188.0940  175.0710  140.3800 O   0  0  0  0  0  1  0  0  0  0  0  0
  190.3490  172.8100  143.9610 C   0  0  2  0  0  3  0  0  0  0  0  0
  193.5600  173.8550  142.5270 N   0  0  0  0  0  2  0  0  0  0  0  0
  194.9430  175.2890  144.4660 S   0  0  0  0  0  0  0  0  0  0  0  0
  188.9890  175.2070  141.4410 C   0  0  2  0  0  3  0  0  0  0  0  0
  189.6930  174.8420  145.4880 C   0  0  0  0  0  0  0  0  0  0  0  0
  189.0420  172.5280  141.7220 C   0  0  1  0  0  3  0  0  0  0  0  0
  195.3660  175.3000  141.7550 C   0  0  0  0  0  1  0  0  0  0  0  0
  189.7510  173.8950  141.7460 C   0  0  2  0  0  3  0  0  0  0  0  0
  189.3160  174.5680  146.8090 C   0  0  0  0  0  3  0  0  0  0  0  0
  188.1160  176.6990  145.4690 C   0  0  0  0  0  3  0  0  0  0  0  0
  187.7560  176.4130  146.7860 C   0  0  0  0  0  3  0  0  0  0  0  0
  188.3500  175.7670  142.5600 O   0  0  0  0  0  0  0  0  0  0  0  0
  191.6500  172.4230  143.2320 C   0  0  1  0  0  3  0  0  0  0  0  0
  189.2080  173.2670  143.0290 C   0  0  2  0  0  3  0  0  0  0  0  0
  192.6900  173.4620  143.6400 C   0  0  2  0  0  3  0  0  0  0  0  0
  190.7660  173.9440  144.9090 C   0  0  2  0  0  3  0  0  0  0  0  0
  192.0910  171.0380  143.6700 C   0  0  0  0  0  2  0  0  0  0  0  0
  193.1220  171.1390  144.6040 O   0  0  0  0  0  1  0  0  0  0  0  0
  1 20  2  0  0  0  0
  1 15  1  0  0  0  0
  3 16  1  0  0  0  0
  5  1  1  0  0  0  0
  7  2  2  0  0  0  0
  7  6  2  0  0  0  0
  8 17  1  6  0  0  0
  8 13  1  0  0  0  0
  9 26  1  0  0  0  0
  9  7  1  1  0  0  0
 10 14  1  0  0  0  0
 11 26  1  0  0  0  0
 12  8  1  0  0  0  0
 12 25  1  0  0  0  0
 13  7  1  0  0  0  0
 14 18  1  0  0  0  0
 14 22  1  0  0  0  0
 15 19  2  0  0  0  0
 16 18  1  0  0  0  0
 16 24  1  0  0  0  0
 18 24  1  0  0  0  0
 19  4  1  0  0  0  0
 20 21  1  0  0  0  0
 21  4  2  0  0  0  0
 22  5  1  0  0  0  0
 23 25  1  0  0  0  0
 23 27  1  0  0  0  0
 23 11  1  0  0  0  0
 24 11  1  0  0  0  0
 25  9  1  0  0  0  0
 26 15  1  0  0  0  0
 27 28  1  0  0  0  0
M  END
>  <MODEL>
1

>  <REMARK>
 VINA RESULT:      -7.0      0.000      0.000
  Name = 
  1 active torsions:
  status: ('A' for Active; 'I' for Inactive)
    1  A    between atoms: C_5  and  C_24
                            x       y       z     vdW  Elec       q    Type
                         _______ _______ _______ _____ _____    ______ ____

>  <TORSDO>
F 1

$$$$
=
 OpenBabel11112417353D

 28 32  0  0  1  0  0  0  0  0999 V2000
  188.2350  176.2690  144.9960 C   0  0  0  0  0  0  0  0  0  0  0  0
  187.6550  173.6020  142.4060 O   0  0  0  0  0  0  0  0  0  0  0  0
  192.6450  177.1020  147.1970 O   0  0  0  0  0  1  0  0  0  0  0  0
  187.1090  178.4040  143.5640 C   0  0  0  0  0  3  0  0  0  0  0  0
  188.7990  175.1770  145.8480 C   0  0  0  0  0  2  0  0  0  0  0  0
  188.7810  174.9610  140.6880 O   0  0  0  0  0  0  0  0  0  0  0  0
  188.9780  173.9560  141.7880 S   0  0  0  0  0  0  0  0  0  0  0  0
  190.8750  171.9510  142.5580 C   0  0  1  0  0  3  0  0  0  0  0  0
  190.0850  174.5920  143.0210 C   0  0  1  0  0  3  0  0  0  0  0  0
  191.2440  175.1660  148.3200 O   0  0  0  0  0  1  0  0  0  0  0  0
  191.4520  176.4690  143.7070 C   0  0  2  0  0  3  0  0  0  0  0  0
  191.9330  172.9500  142.7900 N   0  0  0  0  0  2  0  0  0  0  0  0
  189.9120  172.2370  141.0180 S   0  0  0  0  0  0  0  0  0  0  0  0
  190.6880  174.9960  147.0520 C   0  0  2  0  0  3  0  0  0  0  0  0
  188.8390  176.7080  143.7870 C   0  0  0  0  0  0  0  0  0  0  0  0
  192.7170  176.4120  145.9870 C   0  0  1  0  0  3  0  0  0  0  0  0
  191.4880  170.5680  142.5210 C   0  0  0  0  0  1  0  0  0  0  0  0
  191.7090  175.2490  145.9170 C   0  0  2  0  0  3  0  0  0  0  0  0
  188.2610  177.7760  143.0880 C   0  0  0  0  0  3  0  0  0  0  0  0
  187.0800  176.9110  145.4610 C   0  0  0  0  0  3  0  0  0  0  0  0
  186.5180  177.9710  144.7490 C   0  0  0  0  0  3  0  0  0  0  0  0
  189.5020  175.7390  146.9260 O   0  0  0  0  0  0  0  0  0  0  0  0
  192.3890  175.3660  143.1780 C   0  0  1  0  0  3  0  0  0  0  0  0
  191.4130  176.5890  145.2440 C   0  0  2  0  0  3  0  0  0  0  0  0
  191.4870  174.3220  142.5260 C   0  0  2  0  0  3  0  0  0  0  0  0
  190.0690  176.0930  143.1550 C   0  0  2  0  0  3  0  0  0  0  0  0
  193.3420  175.9510  142.1510 C   0  0  0  0  0  2  0  0  0  0  0  0
  194.6090  176.1100  142.7120 O   0  0  0  0  0  1  0  0  0  0  0  0
  1 20  1  0  0  0  0
  1  5  1  0  0  0  0
  4 21  1  0  0  0  0
  5 22  1  0  0  0  0
  6  7  2  0  0  0  0
  7  2  2  0  0  0  0
  8 17  1  6  0  0  0
  8 12  1  0  0  0  0
  9  7  1  6  0  0  0
  9 26  1  0  0  0  0
 11 24  1  0  0  0  0
 13  7  1  0  0  0  0
 13  8  1  0  0  0  0
 14 10  1  0  0  0  0
 15  1  2  0  0  0  0
 16  3  1  0  0  0  0
 18 16  1  0  0  0  0
 18 14  1  0  0  0  0
 19  4  2  0  0  0  0
 19 15  1  0  0  0  0
 21 20  2  0  0  0  0
 22 14  1  0  0  0  0
 23 11  1  0  0  0  0
 24 18  1  0  0  0  0
 24 16  1  0  0  0  0
 25 12  1  0  0  0  0
 25  9  1  0  0  0  0
 25 23  1  0  0  0  0
 26 11  1  0  0  0  0
 26 15  1  0  0  0  0
 27 28  1  0  0  0  0
 27 23  1  0  0  0  0
M  END
>  <MODEL>
2

>  <REMARK>
 VINA RESULT:      -6.8      2.467      5.046
  Name = 
  1 active torsions:
  status: ('A' for Active; 'I' for Inactive)
    1  A    between atoms: C_5  and  C_24
                            x       y       z     vdW  Elec       q    Type
                         _______ _______ _______ _____ _____    ______ ____

>  <TORSDO>
F 1

$$$$
=
 OpenBabel11112417353D

 28 32  0  0  1  0  0  0  0  0999 V2000
  192.8790  173.3100  143.2980 C   0  0  0  0  0  0  0  0  0  0  0  0
  190.0200  173.8490  140.9120 O   0  0  0  0  0  0  0  0  0  0  0  0
  193.7860  176.2200  147.2600 O   0  0  0  0  0  1  0  0  0  0  0  0
  192.4100  170.5900  143.8030 C   0  0  0  0  0  3  0  0  0  0  0  0
  193.2320  174.7400  143.0370 C   0  0  0  0  0  2  0  0  0  0  0  0
  188.4230  172.9220  142.5420 O   0  0  0  0  0  0  0  0  0  0  0  0
  189.1370  174.1640  142.0860 S   0  0  0  0  0  0  0  0  0  0  0  0
  188.7950  177.0070  142.1940 C   0  0  1  0  0  3  0  0  0  0  0  0
  190.0960  174.8530  143.4110 C   0  0  1  0  0  3  0  0  0  0  0  0
  194.7760  177.1600  144.9990 O   0  0  0  0  0  1  0  0  0  0  0  0
  190.7710  174.6200  145.7240 C   0  0  2  0  0  3  0  0  0  0  0  0
  188.9320  177.0320  143.6610 N   0  0  0  0  0  2  0  0  0  0  0  0
  187.7320  175.6410  141.5740 S   0  0  0  0  0  0  0  0  0  0  0  0
  193.7320  176.4630  144.3910 C   0  0  2  0  0  3  0  0  0  0  0  0
  191.6880  172.9080  143.9590 C   0  0  0  0  0  0  0  0  0  0  0  0
  192.4810  176.2880  146.7710 C   0  0  1  0  0  3  0  0  0  0  0  0
  188.2430  178.3330  141.7170 C   0  0  0  0  0  1  0  0  0  0  0  0
  192.4390  176.4700  145.2420 C   0  0  2  0  0  3  0  0  0  0  0  0
  191.4730  171.5450  144.2020 C   0  0  0  0  0  3  0  0  0  0  0  0
  193.8100  172.3400  142.9050 C   0  0  0  0  0  3  0  0  0  0  0  0
  193.5760  170.9870  143.1530 C   0  0  0  0  0  3  0  0  0  0  0  0
  194.1510  175.1790  144.0050 O   0  0  0  0  0  0  0  0  0  0  0  0
  189.7350  175.7580  145.6430 C   0  0  1  0  0  3  0  0  0  0  0  0
  192.2300  175.0960  145.8780 C   0  0  2  0  0  3  0  0  0  0  0  0
  189.1530  175.7000  144.2340 C   0  0  2  0  0  3  0  0  0  0  0  0
  190.5860  173.8410  144.4150 C   0  0  2  0  0  3  0  0  0  0  0  0
  188.6420  175.5330  146.6720 C   0  0  0  0  0  2  0  0  0  0  0  0
  189.0270  174.5330  147.5650 O   0  0  0  0  0  1  0  0  0  0  0  0
  1 15  1  0  0  0  0
  2  7  2  0  0  0  0
  4 19  1  0  0  0  0
  5  1  1  0  0  0  0
  5 22  1  0  0  0  0
  7  6  2  0  0  0  0
  8 17  1  1  0  0  0
  8 12  1  0  0  0  0
  9  7  1  6  0  0  0
  9 25  1  0  0  0  0
  9 26  1  0  0  0  0
 11 24  1  0  0  0  0
 12 25  1  0  0  0  0
 13  7  1  0  0  0  0
 13  8  1  0  0  0  0
 14 10  1  0  0  0  0
 14 18  1  0  0  0  0
 15 19  2  0  0  0  0
 15 26  1  0  0  0  0
 16  3  1  0  0  0  0
 18 24  1  0  0  0  0
 18 16  1  0  0  0  0
 20 21  1  0  0  0  0
 20  1  2  0  0  0  0
 21  4  2  0  0  0  0
 22 14  1  0  0  0  0
 23 11  1  0  0  0  0
 23 27  1  0  0  0  0
 24 16  1  0  0  0  0
 25 23  1  0  0  0  0
 26 11  1  0  0  0  0
 27 28  1  0  0  0  0
M  END
>  <MODEL>
3

>  <REMARK>
 VINA RESULT:      -6.7      2.604      5.983
  Name = 
  1 active torsions:
  status: ('A' for Active; 'I' for Inactive)
    1  A    between atoms: C_5  and  C_24
                            x       y       z     vdW  Elec       q    Type
                         _______ _______ _______ _____ _____    ______ ____

>  <TORSDO>
F 1

$$$$
=
 OpenBabel11112417353D

 28 32  0  0  1  0  0  0  0  0999 V2000
  191.0350  176.2330  145.2090 C   0  0  0  0  0  0  0  0  0  0  0  0
  194.6780  177.1470  144.9870 O   0  0  0  0  0  0  0  0  0  0  0  0
  188.9830  172.3660  142.7960 O   0  0  0  0  0  1  0  0  0  0  0  0
  190.8400  176.2290  148.0080 C   0  0  0  0  0  3  0  0  0  0  0  0
  191.0390  176.2710  143.7130 C   0  0  0  0  0  2  0  0  0  0  0  0
  195.2830  175.2910  146.4900 O   0  0  0  0  0  0  0  0  0  0  0  0
  195.0200  175.6860  145.0630 S   0  0  0  0  0  0  0  0  0  0  0  0
  195.7000  174.8020  142.4240 C   0  0  1  0  0  3  0  0  0  0  0  0
  193.7050  174.7090  144.3800 C   0  0  1  0  0  3  0  0  0  0  0  0
  189.1880  174.5500  141.3260 O   0  0  0  0  0  1  0  0  0  0  0  0
  192.0920  172.9530  144.7960 C   0  0  2  0  0  3  0  0  0  0  0  0
  194.9630  173.5370  142.5880 N   0  0  0  0  0  2  0  0  0  0  0  0
  196.7100  175.2650  143.8880 S   0  0  0  0  0  0  0  0  0  0  0  0
  190.2760  174.8540  142.1450 C   0  0  2  0  0  3  0  0  0  0  0  0
  191.7630  175.2780  145.9680 C   0  0  0  0  0  0  0  0  0  0  0  0
  190.3660  172.2880  142.9570 C   0  0  1  0  0  3  0  0  0  0  0  0
  196.5900  174.7110  141.2030 C   0  0  0  0  0  1  0  0  0  0  0  0
  191.0750  173.5970  142.5620 C   0  0  2  0  0  3  0  0  0  0  0  0
  191.6510  175.2930  147.3640 C   0  0  0  0  0  3  0  0  0  0  0  0
  190.2240  177.1650  145.8690 C   0  0  0  0  0  3  0  0  0  0  0  0
  190.1290  177.1660  147.2610 C   0  0  0  0  0  3  0  0  0  0  0  0
  189.8740  175.6570  143.2260 O   0  0  0  0  0  0  0  0  0  0  0  0
  193.2200  172.3660  143.9260 C   0  0  1  0  0  3  0  0  0  0  0  0
  190.7920  173.2650  144.0270 C   0  0  2  0  0  3  0  0  0  0  0  0
  194.3270  173.4160  143.9050 C   0  0  2  0  0  3  0  0  0  0  0  0
  192.6940  174.2330  145.3910 C   0  0  2  0  0  3  0  0  0  0  0  0
  193.7310  171.0790  144.5480 C   0  0  0  0  0  2  0  0  0  0  0  0
  194.6160  171.3680  145.5870 O   0  0  0  0  0  1  0  0  0  0  0  0
  1 20  2  0  0  0  0
  1 15  1  0  0  0  0
  2  7  2  0  0  0  0
  3 16  1  0  0  0  0
  5  1  1  0  0  0  0
  7  6  2  0  0  0  0
  8 17  1  6  0  0  0
  8 12  1  0  0  0  0
  8 13  1  0  0  0  0
  9  7  1  1  0  0  0
  9 26  1  0  0  0  0
 10 14  1  0  0  0  0
 11 26  1  0  0  0  0
 12 25  1  0  0  0  0
 13  7  1  0  0  0  0
 14 18  1  0  0  0  0
 14 22  1  0  0  0  0
 15 19  2  0  0  0  0
 16 24  1  0  0  0  0
 18 16  1  0  0  0  0
 18 24  1  0  0  0  0
 19  4  1  0  0  0  0
 20 21  1  0  0  0  0
 21  4  2  0  0  0  0
 22  5  1  0  0  0  0
 23 27  1  0  0  0  0
 23 11  1  0  0  0  0
 24 11  1  0  0  0  0
 25 23  1  0  0  0  0
 25  9  1  0  0  0  0
 26 15  1  0  0  0  0
 27 28  1  0  0  0  0
M  END
>  <MODEL>
4

>  <REMARK>
 VINA RESULT:      -6.6      1.752      1.930
  Name = 
  1 active torsions:
  status: ('A' for Active; 'I' for Inactive)
    1  A    between atoms: C_5  and  C_24
                            x       y       z     vdW  Elec       q    Type
                         _______ _______ _______ _____ _____    ______ ____

>  <TORSDO>
F 1

$$$$
=
 OpenBabel11112417353D

 28 32  0  0  1  0  0  0  0  0999 V2000
  190.6920  176.6360  145.2150 C   0  0  0  0  0  0  0  0  0  0  0  0
  194.0320  175.4500  143.9520 O   0  0  0  0  0  0  0  0  0  0  0  0
  186.4230  176.1700  142.6560 O   0  0  0  0  0  1  0  0  0  0  0  0
  190.8050  175.3970  147.7300 C   0  0  0  0  0  3  0  0  0  0  0  0
  190.5790  177.3750  143.9190 C   0  0  0  0  0  2  0  0  0  0  0  0
  193.4440  173.1120  144.4550 O   0  0  0  0  0  0  0  0  0  0  0  0
  193.3630  174.2100  143.4310 S   0  0  0  0  0  0  0  0  0  0  0  0
  193.0660  174.4930  140.5960 C   0  0  1  0  0  3  0  0  0  0  0  0
  191.6710  174.5500  143.0170 C   0  0  1  0  0  3  0  0  0  0  0  0
  187.8410  178.2930  141.9840 O   0  0  0  0  0  1  0  0  0  0  0  0
  189.3550  173.9760  143.4290 C   0  0  2  0  0  3  0  0  0  0  0  0
  191.7090  173.9190  140.6160 N   0  0  0  0  0  2  0  0  0  0  0  0
  194.2700  173.5810  141.6430 S   0  0  0  0  0  0  0  0  0  0  0  0
  188.9410  177.5380  142.3890 C   0  0  2  0  0  3  0  0  0  0  0  0
  190.7050  175.2180  145.3060 C   0  0  0  0  0  0  0  0  0  0  0  0
  187.4410  175.3050  142.2570 C   0  0  1  0  0  3  0  0  0  0  0  0
  193.5710  174.5410  139.1690 C   0  0  0  0  0  1  0  0  0  0  0  0
  188.7840  176.0340  142.0600 C   0  0  2  0  0  3  0  0  0  0  0  0
  190.7620  174.6200  146.5720 C   0  0  0  0  0  3  0  0  0  0  0  0
  190.7340  177.4020  146.3870 C   0  0  0  0  0  3  0  0  0  0  0  0
  190.7930  176.7870  147.6380 C   0  0  0  0  0  3  0  0  0  0  0  0
  189.2510  177.7960  143.7340 O   0  0  0  0  0  0  0  0  0  0  0  0
  189.7570  173.3830  142.0650 C   0  0  1  0  0  3  0  0  0  0  0  0
  188.4930  175.2520  143.3400 C   0  0  2  0  0  3  0  0  0  0  0  0
  191.2710  173.5420  141.9640 C   0  0  2  0  0  3  0  0  0  0  0  0
  190.6910  174.2680  144.1270 C   0  0  2  0  0  3  0  0  0  0  0  0
  189.3790  171.9130  142.0130 C   0  0  0  0  0  2  0  0  0  0  0  0
  190.4690  171.1270  142.3880 O   0  0  0  0  0  1  0  0  0  0  0  0
  1 15  2  0  0  0  0
  1 20  1  0  0  0  0
  5  1  1  0  0  0  0
  7  2  2  0  0  0  0
  7  6  2  0  0  0  0
  8 17  1  6  0  0  0
  8 12  1  0  0  0  0
  8 13  1  0  0  0  0
  9  7  1  1  0  0  0
  9 26  1  0  0  0  0
 10 14  1  0  0  0  0
 11 26  1  0  0  0  0
 12 25  1  0  0  0  0
 13  7  1  0  0  0  0
 14 22  1  0  0  0  0
 15 19  1  0  0  0  0
 16  3  1  0  0  0  0
 16 24  1  0  0  0  0
 18 16  1  0  0  0  0
 18 14  1  0  0  0  0
 18 24  1  0  0  0  0
 19  4  2  0  0  0  0
 20 21  2  0  0  0  0
 21  4  1  0  0  0  0
 22  5  1  0  0  0  0
 23 11  1  0  0  0  0
 24 11  1  0  0  0  0
 25 23  1  0  0  0  0
 25  9  1  0  0  0  0
 26 15  1  0  0  0  0
 27 23  1  0  0  0  0
 27 28  1  0  0  0  0
M  END
>  <MODEL>
5

>  <REMARK>
 VINA RESULT:      -6.5      2.129      2.603
  Name = 
  1 active torsions:
  status: ('A' for Active; 'I' for Inactive)
    1  A    between atoms: C_5  and  C_24
                            x       y       z     vdW  Elec       q    Type
                         _______ _______ _______ _____ _____    ______ ____

>  <TORSDO>
F 1

$$$$
=
 OpenBabel11112417353D

 28 32  0  0  1  0  0  0  0  0999 V2000
  188.2800  176.7930  143.8220 C   0  0  0  0  0  0  0  0  0  0  0  0
  191.7230  178.0940  144.6030 O   0  0  0  0  0  0  0  0  0  0  0  0
  187.4050  172.6590  141.1520 O   0  0  0  0  0  1  0  0  0  0  0  0
  187.2790  176.8460  146.4430 C   0  0  0  0  0  3  0  0  0  0  0  0
  188.7170  176.7900  142.3910 C   0  0  0  0  0  2  0  0  0  0  0  0
  192.0400  176.3570  146.3210 O   0  0  0  0  0  0  0  0  0  0  0  0
  192.1680  176.6810  144.8590 S   0  0  0  0  0  0  0  0  0  0  0  0
  193.6700  175.8040  142.5820 C   0  0  1  0  0  3  0  0  0  0  0  0
  191.2100  175.5470  143.8850 C   0  0  1  0  0  3  0  0  0  0  0  0
  187.8170  174.8110  139.6780 O   0  0  0  0  0  1  0  0  0  0  0  0
  189.7230  173.6370  143.9220 C   0  0  2  0  0  3  0  0  0  0  0  0
  193.0430  174.4710  142.6010 N   0  0  0  0  0  2  0  0  0  0  0  0
  194.1600  176.4150  144.2450 S   0  0  0  0  0  0  0  0  0  0  0  0
  188.5840  175.2550  140.7550 C   0  0  2  0  0  3  0  0  0  0  0  0
  188.8430  175.9440  144.8130 C   0  0  0  0  0  0  0  0  0  0  0  0
  188.6820  172.7370  141.7070 C   0  0  1  0  0  3  0  0  0  0  0  0
  194.8820  175.7770  141.6760 C   0  0  0  0  0  1  0  0  0  0  0  0
  189.3450  174.1040  141.4570 C   0  0  2  0  0  3  0  0  0  0  0  0
  188.3290  175.9860  146.1150 C   0  0  0  0  0  3  0  0  0  0  0  0
  187.2260  177.6480  144.1670 C   0  0  0  0  0  3  0  0  0  0  0  0
  186.7290  177.6780  145.4700 C   0  0  0  0  0  3  0  0  0  0  0  0
  187.8090  176.0380  141.6260 O   0  0  0  0  0  0  0  0  0  0  0  0
  191.1070  173.1540  143.4490 C   0  0  1  0  0  3  0  0  0  0  0  0
  188.6800  173.7840  142.7950 C   0  0  2  0  0  3  0  0  0  0  0  0
  192.0650  174.3180  143.6850 C   0  0  2  0  0  3  0  0  0  0  0  0
  189.9990  174.9920  144.5900 C   0  0  2  0  0  3  0  0  0  0  0  0
  191.5370  171.9480  144.2650 C   0  0  0  0  0  2  0  0  0  0  0  0
  191.8360  170.8810  143.4180 O   0  0  0  0  0  1  0  0  0  0  0  0
  1 20  2  0  0  0  0
  1 15  1  0  0  0  0
  2  7  2  0  0  0  0
  3 16  1  0  0  0  0
  5  1  1  0  0  0  0
  7  6  2  0  0  0  0
  8 17  1  6  0  0  0
  8 12  1  0  0  0  0
  8 13  1  0  0  0  0
  9 26  1  0  0  0  0
  9  7  1  1  0  0  0
 10 14  1  0  0  0  0
 11 26  1  0  0  0  0
 12 25  1  0  0  0  0
 13  7  1  0  0  0  0
 14 18  1  0  0  0  0
 14 22  1  0  0  0  0
 15 19  2  0  0  0  0
 16 24  1  0  0  0  0
 18 16  1  0  0  0  0
 18 24  1  0  0  0  0
 19  4  1  0  0  0  0
 20 21  1  0  0  0  0
 21  4  2  0  0  0  0
 22  5  1  0  0  0  0
 23 25  1  0  0  0  0
 23 11  1  0  0  0  0
 23 27  1  0  0  0  0
 24 11  1  0  0  0  0
 25  9  1  0  0  0  0
 26 15  1  0  0  0  0
 28 27  1  0  0  0  0
M  END
>  <MODEL>
6

>  <REMARK>
 VINA RESULT:      -6.5      1.117      1.336
  Name = 
  1 active torsions:
  status: ('A' for Active; 'I' for Inactive)
    1  A    between atoms: C_5  and  C_24
                            x       y       z     vdW  Elec       q    Type
                         _______ _______ _______ _____ _____    ______ ____

>  <TORSDO>
F 1

$$$$
=
 OpenBabel11112417353D

 28 32  0  0  1  0  0  0  0  0999 V2000
  191.7710  174.1330  145.0590 C   0  0  0  0  0  0  0  0  0  0  0  0
  189.9100  176.0560  147.7040 O   0  0  0  0  0  0  0  0  0  0  0  0
  190.0050  173.3060  140.4560 O   0  0  0  0  0  1  0  0  0  0  0  0
  194.2010  175.5230  145.2550 C   0  0  0  0  0  3  0  0  0  0  0  0
  190.5320  173.3050  144.9340 C   0  0  0  0  0  2  0  0  0  0  0  0
  190.4620  178.1910  146.6060 O   0  0  0  0  0  0  0  0  0  0  0  0
  189.4920  177.0430  146.6520 S   0  0  0  0  0  0  0  0  0  0  0  0
  186.7610  176.5050  145.9730 C   0  0  1  0  0  3  0  0  0  0  0  0
  189.3930  176.2500  145.0670 C   0  0  1  0  0  3  0  0  0  0  0  0
  189.1330  171.5820  142.2570 O   0  0  0  0  0  1  0  0  0  0  0  0
  190.1990  176.2310  142.7840 C   0  0  2  0  0  3  0  0  0  0  0  0
  187.0110  176.7070  144.5350 N   0  0  0  0  0  2  0  0  0  0  0  0
  187.5580  177.7650  147.0480 S   0  0  0  0  0  0  0  0  0  0  0  0
  189.3210  172.6220  143.1680 C   0  0  2  0  0  3  0  0  0  0  0  0
  191.8300  175.5090  144.7090 C   0  0  0  0  0  0  0  0  0  0  0  0
  189.4130  174.3760  141.1270 C   0  0  1  0  0  3  0  0  0  0  0  0
  185.2690  176.4940  146.2280 C   0  0  0  0  0  1  0  0  0  0  0  0
  188.9950  174.0080  142.5630 C   0  0  2  0  0  3  0  0  0  0  0  0
  193.0530  176.1840  144.8140 C   0  0  0  0  0  3  0  0  0  0  0  0
  192.9320  173.4840  145.4980 C   0  0  0  0  0  3  0  0  0  0  0  0
  194.1400  174.1750  145.5990 C   0  0  0  0  0  3  0  0  0  0  0  0
  190.5950  172.5430  143.7550 O   0  0  0  0  0  0  0  0  0  0  0  0
  188.7730  176.8150  142.7810 C   0  0  1  0  0  3  0  0  0  0  0  0
  190.2900  174.7720  142.2910 C   0  0  2  0  0  3  0  0  0  0  0  0
  188.4080  177.0470  144.2430 C   0  0  2  0  0  3  0  0  0  0  0  0
  190.6530  176.3410  144.2460 C   0  0  2  0  0  3  0  0  0  0  0  0
  188.7590  178.1300  142.0210 C   0  0  0  0  0  2  0  0  0  0  0  0
  187.8500  178.0620  140.9660 O   0  0  0  0  0  1  0  0  0  0  0  0
  1 20  1  0  0  0  0
  3 16  1  0  0  0  0
  4 21  1  0  0  0  0
  5  1  1  0  0  0  0
  6  7  2  0  0  0  0
  7 13  1  0  0  0  0
  7  2  2  0  0  0  0
  8 17  1  6  0  0  0
  8 13  1  0  0  0  0
  9  7  1  1  0  0  0
 10 14  1  0  0  0  0
 11 26  1  0  0  0  0
 12  8  1  0  0  0  0
 14 22  1  0  0  0  0
 15 19  1  0  0  0  0
 15  1  2  0  0  0  0
 16 24  1  0  0  0  0
 16 18  1  0  0  0  0
 18 14  1  0  0  0  0
 19  4  2  0  0  0  0
 20 21  2  0  0  0  0
 22  5  1  0  0  0  0
 23 11  1  0  0  0  0
 23 25  1  0  0  0  0
 24 18  1  0  0  0  0
 24 11  1  0  0  0  0
 25 12  1  0  0  0  0
 25  9  1  0  0  0  0
 26 15  1  0  0  0  0
 26  9  1  0  0  0  0
 27 23  1  0  0  0  0
 28 27  1  0  0  0  0
M  END
>  <MODEL>
7

>  <REMARK>
 VINA RESULT:      -6.5      2.808      5.451
  Name = 
  1 active torsions:
  status: ('A' for Active; 'I' for Inactive)
    1  A    between atoms: C_5  and  C_24
                            x       y       z     vdW  Elec       q    Type
                         _______ _______ _______ _____ _____    ______ ____

>  <TORSDO>
F 1

$$$$
=
 OpenBabel11112417353D

 28 32  0  0  1  0  0  0  0  0999 V2000
  188.3360  177.2590  145.8220 C   0  0  0  0  0  0  0  0  0  0  0  0
  191.6970  177.3260  147.5110 O   0  0  0  0  0  0  0  0  0  0  0  0
  187.5590  175.4180  141.2390 O   0  0  0  0  0  1  0  0  0  0  0  0
  186.9070  176.0710  147.9250 C   0  0  0  0  0  3  0  0  0  0  0  0
  189.0110  177.9470  144.6780 C   0  0  0  0  0  2  0  0  0  0  0  0
  191.5520  174.9160  147.9990 O   0  0  0  0  0  0  0  0  0  0  0  0
  191.9590  175.9450  146.9810 S   0  0  0  0  0  0  0  0  0  0  0  0
  193.7450  176.1800  144.7530 C   0  0  1  0  0  3  0  0  0  0  0  0
  191.0840  175.6920  145.4580 C   0  0  1  0  0  3  0  0  0  0  0  0
  188.4150  177.9160  141.2520 O   0  0  0  0  0  1  0  0  0  0  0  0
  189.4450  174.3470  144.2900 C   0  0  2  0  0  3  0  0  0  0  0  0
  193.0050  175.1740  143.9710 N   0  0  0  0  0  2  0  0  0  0  0  0
  193.9950  175.7110  146.5130 S   0  0  0  0  0  0  0  0  0  0  0  0
  189.0220  177.5750  142.4610 C   0  0  2  0  0  3  0  0  0  0  0  0
  188.6400  175.9300  146.2230 C   0  0  0  0  0  0  0  0  0  0  0  0
  188.7230  174.9670  141.8610 C   0  0  1  0  0  3  0  0  0  0  0  0
  195.0880  176.4350  144.1020 C   0  0  0  0  0  1  0  0  0  0  0  0
  189.5420  176.1180  142.4750 C   0  0  2  0  0  3  0  0  0  0  0  0
  187.9140  175.3550  147.2750 C   0  0  0  0  0  3  0  0  0  0  0  0
  187.3210  177.9620  146.4820 C   0  0  0  0  0  3  0  0  0  0  0  0
  186.6120  177.3740  147.5300 C   0  0  0  0  0  3  0  0  0  0  0  0
  188.1840  177.8900  143.5430 O   0  0  0  0  0  0  0  0  0  0  0  0
  190.8400  173.9630  143.7600 C   0  0  1  0  0  3  0  0  0  0  0  0
  188.6300  175.2510  143.3420 C   0  0  2  0  0  3  0  0  0  0  0  0
  191.8450  174.6360  144.6900 C   0  0  2  0  0  3  0  0  0  0  0  0
  189.7240  175.0630  145.6190 C   0  0  2  0  0  3  0  0  0  0  0  0
  191.0090  172.4550  143.8070 C   0  0  0  0  0  2  0  0  0  0  0  0
  189.7940  171.8300  143.5280 O   0  0  0  0  0  1  0  0  0  0  0  0
  1 15  2  0  0  0  0
  1 20  1  0  0  0  0
  3 16  1  0  0  0  0
  5  1  1  0  0  0  0
  7  2  2  0  0  0  0
  7  6  2  0  0  0  0
  8 17  1  6  0  0  0
  8 13  1  0  0  0  0
  9 26  1  0  0  0  0
  9  7  1  1  0  0  0
 10 14  1  0  0  0  0
 11 26  1  0  0  0  0
 12 25  1  0  0  0  0
 12  8  1  0  0  0  0
 13  7  1  0  0  0  0
 14 18  1  0  0  0  0
 14 22  1  0  0  0  0
 15 19  1  0  0  0  0
 16 18  1  0  0  0  0
 16 24  1  0  0  0  0
 18 24  1  0  0  0  0
 19  4  2  0  0  0  0
 20 21  2  0  0  0  0
 21  4  1  0  0  0  0
 22  5  1  0  0  0  0
 23 27  1  0  0  0  0
 23 11  1  0  0  0  0
 23 25  1  0  0  0  0
 24 11  1  0  0  0  0
 25  9  1  0  0  0  0
 26 15  1  0  0  0  0
 28 27  1  0  0  0  0
M  END
>  <MODEL>
8

>  <REMARK>
 VINA RESULT:      -6.4      1.725      2.188
  Name = 
  1 active torsions:
  status: ('A' for Active; 'I' for Inactive)
    1  A    between atoms: C_5  and  C_24
                            x       y       z     vdW  Elec       q    Type
                         _______ _______ _______ _____ _____    ______ ____

>  <TORSDO>
F 1

$$$$
=
 OpenBabel11112417353D

 28 32  0  0  1  0  0  0  0  0999 V2000
  195.3310  174.3220  144.4020 C   0  0  0  0  0  0  0  0  0  0  0  0
  193.2090  176.8030  146.2720 O   0  0  0  0  0  0  0  0  0  0  0  0
  193.5870  170.0370  142.5080 O   0  0  0  0  0  1  0  0  0  0  0  0
  196.4820  176.1330  142.5930 C   0  0  0  0  0  3  0  0  0  0  0  0
  194.8090  173.3030  145.3650 C   0  0  0  0  0  2  0  0  0  0  0  0
  192.2060  177.6010  144.1680 O   0  0  0  0  0  0  0  0  0  0  0  0
  192.1140  176.5800  145.2680 S   0  0  0  0  0  0  0  0  0  0  0  0
  190.1410  174.8900  146.4770 C   0  0  1  0  0  3  0  0  0  0  0  0
  192.2140  174.9380  144.6010 C   0  0  1  0  0  3  0  0  0  0  0  0
  194.2240  169.8890  145.0660 O   0  0  0  0  0  1  0  0  0  0  0  0
  192.4540  173.6030  142.5970 C   0  0  2  0  0  3  0  0  0  0  0  0
  189.9630  174.1060  145.2420 N   0  0  0  0  0  2  0  0  0  0  0  0
  190.2320  176.7040  146.1940 S   0  0  0  0  0  0  0  0  0  0  0  0
  193.9300  171.2520  145.0950 C   0  0  2  0  0  3  0  0  0  0  0  0
  194.5130  174.9890  143.4500 C   0  0  0  0  0  0  0  0  0  0  0  0
  192.6150  171.0040  142.7570 C   0  0  1  0  0  3  0  0  0  0  0  0
  189.0100  174.5840  147.4350 C   0  0  0  0  0  1  0  0  0  0  0  0
  192.7550  171.6260  144.1600 C   0  0  2  0  0  3  0  0  0  0  0  0
  195.1080  175.8890  142.5560 C   0  0  0  0  0  3  0  0  0  0  0  0
  196.7080  174.5760  144.4250 C   0  0  0  0  0  3  0  0  0  0  0  0
  197.2810  175.4780  143.5280 C   0  0  0  0  0  3  0  0  0  0  0  0
  195.0910  172.0140  144.8820 O   0  0  0  0  0  0  0  0  0  0  0  0
  190.9830  173.5240  143.0470 C   0  0  1  0  0  3  0  0  0  0  0  0
  193.2880  172.3470  142.9210 C   0  0  2  0  0  3  0  0  0  0  0  0
  190.8200  174.5700  144.1460 C   0  0  2  0  0  3  0  0  0  0  0  0
  193.0130  174.8320  143.3280 C   0  0  2  0  0  3  0  0  0  0  0  0
  190.0700  173.8450  141.8780 C   0  0  0  0  0  2  0  0  0  0  0  0
  189.6480  175.1730  141.9520 O   0  0  0  0  0  1  0  0  0  0  0  0
  1 20  1  0  0  0  0
  1  5  1  0  0  0  0
  3 16  1  0  0  0  0
  4 21  1  0  0  0  0
  6  7  2  0  0  0  0
  7 13  1  0  0  0  0
  7  2  2  0  0  0  0
  8 17  1  1  0  0  0
  9  7  1  6  0  0  0
 10 14  1  0  0  0  0
 11 24  1  0  0  0  0
 11 23  1  0  0  0  0
 11 26  1  0  0  0  0
 12  8  1  0  0  0  0
 13  8  1  0  0  0  0
 15  1  2  0  0  0  0
 16 24  1  0  0  0  0
 16 18  1  0  0  0  0
 18 14  1  0  0  0  0
 19  4  2  0  0  0  0
 19 15  1  0  0  0  0
 21 20  2  0  0  0  0
 22 14  1  0  0  0  0
 22  5  1  0  0  0  0
 23 25  1  0  0  0  0
 24 18  1  0  0  0  0
 25  9  1  0  0  0  0
 25 12  1  0  0  0  0
 26 15  1  0  0  0  0
 26  9  1  0  0  0  0
 27 28  1  0  0  0  0
 27 23  1  0  0  0  0
M  END
>  <MODEL>
9

>  <REMARK>
 VINA RESULT:      -6.1      1.919      5.917
  Name = 
  1 active torsions:
  status: ('A' for Active; 'I' for Inactive)
    1  A    between atoms: C_5  and  C_24
                            x       y       z     vdW  Elec       q    Type
                         _______ _______ _______ _____ _____    ______ ____

>  <TORSDO>
F 1

$$$$
