=
 OpenBabel11112417163D

 37 44  0  0  1  0  0  0  0  0999 V2000
  190.9850  173.2830  141.4980 C   0  0  0  0  0  2  0  0  0  0  0  0
  195.1710  173.9250  143.2830 C   0  0  0  0  0  0  0  0  0  0  0  0
  192.0260  175.7830  145.2970 C   0  0  0  0  0  0  0  0  0  0  0  0
  190.6940  173.1220  140.0740 N   0  0  0  0  0  0  0  0  0  0  0  0
  188.4970  175.5220  143.7950 O   0  0  0  0  0  0  0  0  0  0  0  0
  194.3910  175.2670  145.2150 C   0  0  0  0  0  0  0  0  0  0  0  0
  190.9520  175.6330  144.4200 C   0  0  0  0  0  0  0  0  0  0  0  0
  188.3600  173.6000  140.6060 C   0  0  0  0  0  0  0  0  0  0  0  0
  193.1260  175.2650  144.6750 C   0  0  0  0  0  0  0  0  0  0  0  0
  189.4970  175.9950  144.6700 C   0  0  0  0  0  0  0  0  0  0  0  0
  194.5660  175.8400  146.4810 C   0  0  0  0  0  3  0  0  0  0  0  0
  189.3920  173.4930  139.5260 C   0  0  0  0  0  2  0  0  0  0  0  0
  192.8610  174.8160  143.4580 N   0  0  0  0  0  0  0  0  0  0  0  0
  194.9780  172.4750  143.6860 C   0  0  0  0  0  1  0  0  0  0  0  0
  191.0910  177.0650  147.2530 C   0  0  0  0  0  3  0  0  0  0  0  0
  193.4490  176.3960  147.1430 C   0  0  0  0  0  3  0  0  0  0  0  0
  193.9090  174.4050  142.5200 C   0  0  0  0  0  2  0  0  0  0  0  0
  188.2650  174.8350  141.4540 C   0  0  1  0  0  3  0  0  0  0  0  0
  188.8170  174.6170  142.7730 C   0  0  1  0  0  3  0  0  0  0  0  0
  192.1630  176.3770  146.5530 C   0  0  0  0  0  0  0  0  0  0  0  0
  191.5460  175.0420  143.2480 C   0  0  0  0  0  0  0  0  0  0  0  0
  195.4340  174.7140  144.4620 O   0  0  0  0  0  0  0  0  0  0  0  0
  189.0520  176.7420  145.7150 C   0  0  0  0  0  0  0  0  0  0  0  0
  196.3650  174.0100  142.3550 C   0  0  0  0  0  1  0  0  0  0  0  0
  189.5910  175.4160  141.8080 N   0  0  1  0  0  0  0  0  0  0  0  0
  187.5920  172.6720  140.7970 O   0  0  0  0  0  0  0  0  0  0  0  0
  190.9050  174.7640  141.8970 C   0  0  2  0  0  3  0  0  0  0  0  0
  189.8240  177.2140  146.8870 C   0  0  0  0  0  3  0  0  0  0  0  0
  186.7370  176.4760  146.6480 C   0  0  0  0  0  3  0  0  0  0  0  0
  187.6190  177.1320  145.7760 C   0  0  0  0  0  0  0  0  0  0  0  0
  187.1240  178.1900  144.9990 C   0  0  0  0  0  3  0  0  0  0  0  0
  185.1600  179.8690  144.1100 Cl  0  0  0  0  0  0  0  0  0  0  0  0
  184.9410  177.8670  145.9610 C   0  0  0  0  0  3  0  0  0  0  0  0
  185.7810  178.5570  145.0860 C   0  0  0  0  0  0  0  0  0  0  0  0
  185.4320  176.8510  146.7190 N   0  0  0  0  0  0  0  0  0  0  0  0
  192.9100  172.3090  139.5510 C   0  0  0  0  0  2  0  0  0  0  0  0
  191.7110  172.7190  139.1510 C   0  0  0  0  0  3  0  0  0  0  0  0
  1 27  1  0  0  0  0
  2 14  1  0  0  0  0
  2 22  1  0  0  0  0
  3 20  1  0  0  0  0
  4  1  1  0  0  0  0
  5 10  1  0  0  0  0
  6 11  2  0  0  0  0
  7 10  1  0  0  0  0
  7  3  1  0  0  0  0
  8 26  2  0  0  0  0
  9  6  1  0  0  0  0
  9  3  2  0  0  0  0
 10 23  2  0  0  0  0
 11 16  1  0  0  0  0
 12  4  1  0  0  0  0
 12  8  1  0  0  0  0
 13  9  1  0  0  0  0
 17  2  1  0  0  0  0
 17 13  1  0  0  0  0
 18  8  1  6  0  0  0
 18 25  1  0  0  0  0
 18 19  1  0  0  0  0
 19  5  1  1  0  0  0
 20 16  2  0  0  0  0
 20 15  1  0  0  0  0
 21 13  1  0  0  0  0
 21  7  2  0  0  0  0
 22  6  1  0  0  0  0
 23 30  1  0  0  0  0
 23 28  1  0  0  0  0
 24  2  1  0  0  0  0
 25 27  1  0  0  0  0
 25 19  1  0  0  0  0
 27 21  1  0  0  0  0
 28 15  2  0  0  0  0
 29 35  1  0  0  0  0
 30 29  2  0  0  0  0
 31 34  2  0  0  0  0
 31 30  1  0  0  0  0
 32 34  1  0  0  0  0
 33 35  2  0  0  0  0
 34 33  1  0  0  0  0
 37 36  2  0  0  0  0
 37  4  1  0  0  0  0
M  END
>  <MODEL>
1

>  <REMARK>
 VINA RESULT:      -9.0      0.000      0.000
  Name = 
  2 active torsions:
  status: ('A' for Active; 'I' for Inactive)
    1  A    between atoms: N_4  and  C_37
    2  A    between atoms: C_23  and  C_30
                            x       y       z     vdW  Elec       q    Type
                         _______ _______ _______ _____ _____    ______ ____

>  <TORSDO>
F 2

$$$$
=
 OpenBabel11112417163D

 37 44  0  0  1  0  0  0  0  0999 V2000
  190.8090  172.9400  141.5900 C   0  0  0  0  0  2  0  0  0  0  0  0
  194.0950  173.5140  144.7510 C   0  0  0  0  0  0  0  0  0  0  0  0
  190.6280  175.7680  145.2960 C   0  0  0  0  0  0  0  0  0  0  0  0
  191.0440  172.6440  140.1770 N   0  0  0  0  0  0  0  0  0  0  0  0
  187.8840  175.5640  142.6110 O   0  0  0  0  0  0  0  0  0  0  0  0
  192.7970  175.1020  146.1430 C   0  0  0  0  0  0  0  0  0  0  0  0
  189.9400  175.5910  144.0970 C   0  0  0  0  0  0  0  0  0  0  0  0
  188.7360  173.3200  139.7610 C   0  0  0  0  0  0  0  0  0  0  0  0
  191.8240  175.1190  145.1720 C   0  0  0  0  0  0  0  0  0  0  0  0
  188.5360  176.0670  143.7570 C   0  0  0  0  0  0  0  0  0  0  0  0
  192.5530  175.7970  147.3340 C   0  0  0  0  0  3  0  0  0  0  0  0
  190.0750  173.0330  139.1560 C   0  0  0  0  0  2  0  0  0  0  0  0
  191.9790  174.5580  143.9830 N   0  0  0  0  0  0  0  0  0  0  0  0
  193.6280  172.1300  145.1660 C   0  0  0  0  0  1  0  0  0  0  0  0
  189.1730  177.3100  146.6560 C   0  0  0  0  0  3  0  0  0  0  0  0
  191.3310  176.4890  147.4860 C   0  0  0  0  0  3  0  0  0  0  0  0
  193.2520  173.9850  143.5390 C   0  0  0  0  0  2  0  0  0  0  0  0
  188.4590  174.6430  140.4140 C   0  0  1  0  0  3  0  0  0  0  0  0
  188.4660  174.5350  141.8570 C   0  0  1  0  0  3  0  0  0  0  0  0
  190.3540  176.4860  146.4620 C   0  0  0  0  0  0  0  0  0  0  0  0
  190.8600  174.8400  143.2810 C   0  0  0  0  0  0  0  0  0  0  0  0
  193.9840  174.4080  145.8780 O   0  0  0  0  0  0  0  0  0  0  0  0
  187.8150  176.9480  144.4990 C   0  0  0  0  0  0  0  0  0  0  0  0
  195.5470  173.4240  144.3330 C   0  0  0  0  0  1  0  0  0  0  0  0
  189.6120  175.1760  141.1910 N   0  0  1  0  0  0  0  0  0  0  0  0
  187.8640  172.4670  139.7240 O   0  0  0  0  0  0  0  0  0  0  0  0
  190.7330  174.4580  141.8140 C   0  0  2  0  0  3  0  0  0  0  0  0
  188.1480  177.4960  145.8330 C   0  0  0  0  0  3  0  0  0  0  0  0
  185.4590  177.7250  144.8770 C   0  0  0  0  0  3  0  0  0  0  0  0
  186.5050  177.4300  143.9900 C   0  0  0  0  0  0  0  0  0  0  0  0
  186.2950  177.6420  142.6190 C   0  0  0  0  0  3  0  0  0  0  0  0
  184.7990  178.3720  140.4520 Cl  0  0  0  0  0  0  0  0  0  0  0  0
  184.0530  178.3870  143.0830 C   0  0  0  0  0  3  0  0  0  0  0  0
  185.0660  178.1170  142.1620 C   0  0  0  0  0  0  0  0  0  0  0  0
  184.2690  178.1890  144.4100 N   0  0  0  0  0  0  0  0  0  0  0  0
  193.2080  171.6460  140.5830 C   0  0  0  0  0  2  0  0  0  0  0  0
  192.2840  172.0820  139.7350 C   0  0  0  0  0  3  0  0  0  0  0  0
  1 27  1  0  0  0  0
  2 14  1  0  0  0  0
  2 22  1  0  0  0  0
  3 20  1  0  0  0  0
  4  1  1  0  0  0  0
  5 10  1  0  0  0  0
  6 11  2  0  0  0  0
  7  3  1  0  0  0  0
  9  3  2  0  0  0  0
  9  6  1  0  0  0  0
 10  7  1  0  0  0  0
 10 23  2  0  0  0  0
 11 16  1  0  0  0  0
 12  8  1  0  0  0  0
 12  4  1  0  0  0  0
 13  9  1  0  0  0  0
 17 13  1  0  0  0  0
 17  2  1  0  0  0  0
 18  8  1  6  0  0  0
 18 25  1  0  0  0  0
 18 19  1  0  0  0  0
 19  5  1  1  0  0  0
 20 15  1  0  0  0  0
 20 16  2  0  0  0  0
 21 13  1  0  0  0  0
 21  7  2  0  0  0  0
 22  6  1  0  0  0  0
 23 28  1  0  0  0  0
 24  2  1  0  0  0  0
 25 27  1  0  0  0  0
 25 19  1  0  0  0  0
 26  8  2  0  0  0  0
 27 21  1  0  0  0  0
 28 15  2  0  0  0  0
 30 23  1  0  0  0  0
 30 29  2  0  0  0  0
 31 30  1  0  0  0  0
 32 34  1  0  0  0  0
 33 35  2  0  0  0  0
 34 31  2  0  0  0  0
 34 33  1  0  0  0  0
 35 29  1  0  0  0  0
 37  4  1  0  0  0  0
 37 36  2  0  0  0  0
M  END
>  <MODEL>
2

>  <REMARK>
 VINA RESULT:      -8.5      1.523      1.839
  Name = 
  2 active torsions:
  status: ('A' for Active; 'I' for Inactive)
    1  A    between atoms: N_4  and  C_37
    2  A    between atoms: C_23  and  C_30
                            x       y       z     vdW  Elec       q    Type
                         _______ _______ _______ _____ _____    ______ ____

>  <TORSDO>
F 2

$$$$
=
 OpenBabel11112417163D

 37 44  0  0  1  0  0  0  0  0999 V2000
  190.1400  173.8220  140.5120 C   0  0  0  0  0  2  0  0  0  0  0  0
  187.4340  176.8200  142.7040 C   0  0  0  0  0  0  0  0  0  0  0  0
  190.7630  175.4770  144.8290 C   0  0  0  0  0  0  0  0  0  0  0  0
  189.6810  172.8270  139.5430 N   0  0  0  0  0  0  0  0  0  0  0  0
  192.9940  172.7970  143.2110 O   0  0  0  0  0  0  0  0  0  0  0  0
  188.8350  176.9410  144.7460 C   0  0  0  0  0  0  0  0  0  0  0  0
  191.2380  174.4260  144.0470 C   0  0  0  0  0  0  0  0  0  0  0  0
  191.8210  171.6940  139.8510 C   0  0  0  0  0  0  0  0  0  0  0  0
  189.6170  175.9290  144.2390 C   0  0  0  0  0  0  0  0  0  0  0  0
  192.5200  173.6310  144.2460 C   0  0  0  0  0  0  0  0  0  0  0  0
  189.2340  177.5450  145.9440 C   0  0  0  0  0  3  0  0  0  0  0  0
  190.4210  171.5860  139.3310 C   0  0  0  0  0  2  0  0  0  0  0  0
  189.2950  175.2420  143.1550 N   0  0  0  0  0  0  0  0  0  0  0  0
  188.0700  177.7790  141.7140 C   0  0  0  0  0  1  0  0  0  0  0  0
  192.3160  175.5640  146.8100 C   0  0  0  0  0  3  0  0  0  0  0  0
  190.4080  177.0910  146.5840 C   0  0  0  0  0  3  0  0  0  0  0  0
  188.0110  175.4010  142.4680 C   0  0  0  0  0  2  0  0  0  0  0  0
  192.1090  171.5220  141.3140 C   0  0  1  0  0  3  0  0  0  0  0  0
  192.3660  172.7920  141.9580 C   0  0  1  0  0  3  0  0  0  0  0  0
  191.1840  176.0440  146.0340 C   0  0  0  0  0  0  0  0  0  0  0  0
  190.2470  174.2940  143.0100 C   0  0  0  0  0  0  0  0  0  0  0  0
  187.6760  177.2960  144.0450 O   0  0  0  0  0  0  0  0  0  0  0  0
  193.2920  173.6730  145.3630 C   0  0  0  0  0  0  0  0  0  0  0  0
  185.9410  176.7910  142.4520 C   0  0  0  0  0  1  0  0  0  0  0  0
  191.0750  172.1270  142.1990 N   0  0  1  0  0  0  0  0  0  0  0  0
  192.7340  171.9280  139.0760 O   0  0  0  0  0  0  0  0  0  0  0  0
  190.1400  173.2290  141.9290 C   0  0  2  0  0  3  0  0  0  0  0  0
  193.1620  174.5820  146.5230 C   0  0  0  0  0  3  0  0  0  0  0  0
  195.7630  173.2340  145.3630 C   0  0  0  0  0  3  0  0  0  0  0  0
  194.4520  172.7510  145.4830 C   0  0  0  0  0  0  0  0  0  0  0  0
  194.2660  171.3880  145.7620 C   0  0  0  0  0  3  0  0  0  0  0  0
  195.1380  168.8410  146.2300 Cl  0  0  0  0  0  0  0  0  0  0  0  0
  196.6530  171.0690  145.7560 C   0  0  0  0  0  3  0  0  0  0  0  0
  195.3680  170.5420  145.8940 C   0  0  0  0  0  0  0  0  0  0  0  0
  196.8230  172.3920  145.4980 N   0  0  0  0  0  0  0  0  0  0  0  0
  188.1910  173.9740  138.0240 C   0  0  0  0  0  2  0  0  0  0  0  0
  188.4280  172.9760  138.8670 C   0  0  0  0  0  3  0  0  0  0  0  0
  1 27  1  0  0  0  0
  2 22  1  0  0  0  0
  3 20  1  0  0  0  0
  4  1  1  0  0  0  0
  5 10  1  0  0  0  0
  6 11  2  0  0  0  0
  7 10  1  0  0  0  0
  7  3  1  0  0  0  0
  9  6  1  0  0  0  0
  9  3  2  0  0  0  0
 10 23  2  0  0  0  0
 11 16  1  0  0  0  0
 12  4  1  0  0  0  0
 12  8  1  0  0  0  0
 13  9  1  0  0  0  0
 14  2  1  0  0  0  0
 17  2  1  0  0  0  0
 17 13  1  0  0  0  0
 18  8  1  6  0  0  0
 18 19  1  0  0  0  0
 18 25  1  0  0  0  0
 19 25  1  0  0  0  0
 19  5  1  1  0  0  0
 20 16  2  0  0  0  0
 20 15  1  0  0  0  0
 21 13  1  0  0  0  0
 21  7  2  0  0  0  0
 22  6  1  0  0  0  0
 23 30  1  0  0  0  0
 23 28  1  0  0  0  0
 24  2  1  0  0  0  0
 26  8  2  0  0  0  0
 27 25  1  0  0  0  0
 27 21  1  0  0  0  0
 28 15  2  0  0  0  0
 29 30  2  0  0  0  0
 29 35  1  0  0  0  0
 30 31  1  0  0  0  0
 31 34  2  0  0  0  0
 33 34  1  0  0  0  0
 34 32  1  0  0  0  0
 35 33  2  0  0  0  0
 36 37  2  0  0  0  0
 37  4  1  0  0  0  0
M  END
>  <MODEL>
3

>  <REMARK>
 VINA RESULT:      -8.2      3.335      6.767
  Name = 
  2 active torsions:
  status: ('A' for Active; 'I' for Inactive)
    1  A    between atoms: N_4  and  C_37
    2  A    between atoms: C_23  and  C_30
                            x       y       z     vdW  Elec       q    Type
                         _______ _______ _______ _____ _____    ______ ____

>  <TORSDO>
F 2

$$$$
=
 OpenBabel11112417163D

 37 44  0  0  1  0  0  0  0  0999 V2000
  189.7660  174.6410  143.3570 C   0  0  0  0  0  2  0  0  0  0  0  0
  191.0160  176.5450  147.3480 C   0  0  0  0  0  0  0  0  0  0  0  0
  187.3770  177.8380  145.7720 C   0  0  0  0  0  0  0  0  0  0  0  0
  190.6870  174.2110  142.3050 N   0  0  0  0  0  0  0  0  0  0  0  0
  186.3080  176.5020  142.3290 O   0  0  0  0  0  0  0  0  0  0  0  0
  188.9660  177.9150  147.5980 C   0  0  0  0  0  0  0  0  0  0  0  0
  187.3790  177.3040  144.4840 C   0  0  0  0  0  0  0  0  0  0  0  0
  188.7730  174.1690  140.7920 C   0  0  0  0  0  0  0  0  0  0  0  0
  188.5800  177.5240  146.3370 C   0  0  0  0  0  0  0  0  0  0  0  0
  186.2440  177.3280  143.4720 C   0  0  0  0  0  0  0  0  0  0  0  0
  188.0730  178.6890  148.3500 C   0  0  0  0  0  3  0  0  0  0  0  0
  190.2660  174.1670  140.9080 C   0  0  0  0  0  2  0  0  0  0  0  0
  189.3720  176.8540  145.5150 N   0  0  0  0  0  0  0  0  0  0  0  0
  190.6520  175.1650  147.8650 C   0  0  0  0  0  1  0  0  0  0  0  0
  185.2140  179.1170  145.9400 C   0  0  0  0  0  3  0  0  0  0  0  0
  186.8270  179.0410  147.7870 C   0  0  0  0  0  3  0  0  0  0  0  0
  190.7800  176.5840  145.8160 C   0  0  0  0  0  2  0  0  0  0  0  0
  187.9990  175.4510  140.9010 C   0  0  1  0  0  3  0  0  0  0  0  0
  187.3430  175.5670  142.1850 C   0  0  1  0  0  3  0  0  0  0  0  0
  186.4670  178.6220  146.4850 C   0  0  0  0  0  0  0  0  0  0  0  0
  188.6880  176.7160  144.3580 C   0  0  0  0  0  0  0  0  0  0  0  0
  190.2350  177.5350  148.0500 O   0  0  0  0  0  0  0  0  0  0  0  0
  185.1200  178.0840  143.5840 C   0  0  0  0  0  0  0  0  0  0  0  0
  192.4850  176.7880  147.6230 C   0  0  0  0  0  1  0  0  0  0  0  0
  188.5390  176.3850  141.9280 N   0  0  1  0  0  0  0  0  0  0  0  0
  188.1820  173.1180  140.6090 O   0  0  0  0  0  0  0  0  0  0  0  0
  189.3360  176.0980  143.1290 C   0  0  2  0  0  3  0  0  0  0  0  0
  184.6840  178.8940  144.7430 C   0  0  0  0  0  3  0  0  0  0  0  0
  184.5720  177.9150  141.1410 C   0  0  0  0  0  3  0  0  0  0  0  0
  184.1450  178.1120  142.4630 C   0  0  0  0  0  0  0  0  0  0  0  0
  182.7740  178.2910  142.7010 C   0  0  0  0  0  3  0  0  0  0  0  0
  180.1630  178.5260  141.9320 Cl  0  0  0  0  0  0  0  0  0  0  0  0
  182.3460  178.1020  140.3390 C   0  0  0  0  0  3  0  0  0  0  0  0
  181.8710  178.2920  141.6380 C   0  0  0  0  0  0  0  0  0  0  0  0
  183.6740  177.9180  140.1200 N   0  0  0  0  0  0  0  0  0  0  0  0
  192.5290  173.8690  143.8330 C   0  0  0  0  0  2  0  0  0  0  0  0
  192.0650  173.9430  142.5910 C   0  0  0  0  0  3  0  0  0  0  0  0
  2 24  1  0  0  0  0
  2 14  1  0  0  0  0
  2 22  1  0  0  0  0
  3  9  2  0  0  0  0
  3 20  1  0  0  0  0
  4 37  1  0  0  0  0
  4  1  1  0  0  0  0
  5 10  1  0  0  0  0
  6 22  1  0  0  0  0
  6 11  2  0  0  0  0
  7  3  1  0  0  0  0
  8 12  1  0  0  0  0
  9  6  1  0  0  0  0
 10 23  2  0  0  0  0
 10  7  1  0  0  0  0
 12  4  1  0  0  0  0
 13 17  1  0  0  0  0
 13  9  1  0  0  0  0
 15 20  1  0  0  0  0
 16 11  1  0  0  0  0
 17  2  1  0  0  0  0
 18  8  1  1  0  0  0
 18 25  1  0  0  0  0
 18 19  1  0  0  0  0
 19  5  1  6  0  0  0
 20 16  2  0  0  0  0
 21  7  2  0  0  0  0
 21 13  1  0  0  0  0
 23 28  1  0  0  0  0
 25 19  1  0  0  0  0
 25 27  1  0  0  0  0
 26  8  2  0  0  0  0
 27  1  1  0  0  0  0
 27 21  1  0  0  0  0
 28 15  2  0  0  0  0
 29 30  1  0  0  0  0
 30 31  2  0  0  0  0
 30 23  1  0  0  0  0
 33 34  2  0  0  0  0
 34 32  1  0  0  0  0
 34 31  1  0  0  0  0
 35 33  1  0  0  0  0
 35 29  2  0  0  0  0
 37 36  2  0  0  0  0
M  END
>  <MODEL>
4

>  <REMARK>
 VINA RESULT:      -8.2      2.792      4.951
  Name = 
  2 active torsions:
  status: ('A' for Active; 'I' for Inactive)
    1  A    between atoms: N_4  and  C_37
    2  A    between atoms: C_23  and  C_30
                            x       y       z     vdW  Elec       q    Type
                         _______ _______ _______ _____ _____    ______ ____

>  <TORSDO>
F 2

$$$$
=
 OpenBabel11112417163D

 37 44  0  0  1  0  0  0  0  0999 V2000
  190.7610  172.5640  141.5570 C   0  0  0  0  0  2  0  0  0  0  0  0
  194.4040  172.9750  144.3280 C   0  0  0  0  0  0  0  0  0  0  0  0
  191.2530  175.6090  145.0570 C   0  0  0  0  0  0  0  0  0  0  0  0
  190.8150  172.1620  140.1520 N   0  0  0  0  0  0  0  0  0  0  0  0
  188.2330  175.5350  142.6790 O   0  0  0  0  0  0  0  0  0  0  0  0
  193.4240  174.7710  145.7280 C   0  0  0  0  0  0  0  0  0  0  0  0
  190.4280  175.4350  143.9470 C   0  0  0  0  0  0  0  0  0  0  0  0
  188.5530  173.0500  139.9210 C   0  0  0  0  0  0  0  0  0  0  0  0
  192.3590  174.8320  144.8590 C   0  0  0  0  0  0  0  0  0  0  0  0
  189.0490  176.0340  143.7160 C   0  0  0  0  0  0  0  0  0  0  0  0
  193.3760  175.5560  146.8860 C   0  0  0  0  0  3  0  0  0  0  0  0
  189.7860  172.5890  139.2070 C   0  0  0  0  0  2  0  0  0  0  0  0
  192.3320  174.1890  143.7030 N   0  0  0  0  0  0  0  0  0  0  0  0
  193.8500  171.6750  144.8820 C   0  0  0  0  0  1  0  0  0  0  0  0
  190.1090  177.3730  146.4440 C   0  0  0  0  0  3  0  0  0  0  0  0
  192.2510  176.3800  147.1110 C   0  0  0  0  0  3  0  0  0  0  0  0
  193.4870  173.4600  143.1760 C   0  0  0  0  0  2  0  0  0  0  0  0
  188.4780  174.4310  140.5050 C   0  0  1  0  0  3  0  0  0  0  0  0
  188.6280  174.4090  141.9430 C   0  0  1  0  0  3  0  0  0  0  0  0
  191.1760  176.4190  146.1920 C   0  0  0  0  0  0  0  0  0  0  0  0
  191.1780  174.5450  143.0980 C   0  0  0  0  0  0  0  0  0  0  0  0
  194.5020  173.9410  145.3960 O   0  0  0  0  0  0  0  0  0  0  0  0
  188.5010  177.0290  144.4630 C   0  0  0  0  0  0  0  0  0  0  0  0
  195.7880  172.7090  143.7740 C   0  0  0  0  0  1  0  0  0  0  0  0
  189.7540  174.8850  141.1240 N   0  0  1  0  0  0  0  0  0  0  0  0
  187.6030  172.2920  140.0310 O   0  0  0  0  0  0  0  0  0  0  0  0
  190.8590  174.0920  141.6810 C   0  0  2  0  0  3  0  0  0  0  0  0
  189.0260  177.6160  145.7160 C   0  0  0  0  0  3  0  0  0  0  0  0
  186.9380  177.9090  142.7080 C   0  0  0  0  0  3  0  0  0  0  0  0
  187.1980  177.6140  144.0550 C   0  0  0  0  0  0  0  0  0  0  0  0
  186.1820  177.8430  144.9950 C   0  0  0  0  0  3  0  0  0  0  0  0
  183.6920  178.6670  145.7620 Cl  0  0  0  0  0  0  0  0  0  0  0  0
  184.7490  178.6580  143.2390 C   0  0  0  0  0  3  0  0  0  0  0  0
  184.9560  178.3710  144.5890 C   0  0  0  0  0  0  0  0  0  0  0  0
  185.7360  178.4220  142.3340 N   0  0  0  0  0  0  0  0  0  0  0  0
  192.8880  170.9450  140.4110 C   0  0  0  0  0  2  0  0  0  0  0  0
  191.9400  171.4470  139.6280 C   0  0  0  0  0  3  0  0  0  0  0  0
  1 27  1  0  0  0  0
  2 14  1  0  0  0  0
  2 22  1  0  0  0  0
  3 20  1  0  0  0  0
  4  1  1  0  0  0  0
  5 10  1  0  0  0  0
  6 11  2  0  0  0  0
  7  3  1  0  0  0  0
  8 26  2  0  0  0  0
  9  3  2  0  0  0  0
  9  6  1  0  0  0  0
 10  7  1  0  0  0  0
 10 23  2  0  0  0  0
 11 16  1  0  0  0  0
 12  8  1  0  0  0  0
 12  4  1  0  0  0  0
 13  9  1  0  0  0  0
 17 13  1  0  0  0  0
 17  2  1  0  0  0  0
 18  8  1  6  0  0  0
 18 25  1  0  0  0  0
 18 19  1  0  0  0  0
 19  5  1  1  0  0  0
 20 15  1  0  0  0  0
 20 16  2  0  0  0  0
 21 13  1  0  0  0  0
 21  7  2  0  0  0  0
 22  6  1  0  0  0  0
 23 28  1  0  0  0  0
 24  2  1  0  0  0  0
 25 27  1  0  0  0  0
 25 19  1  0  0  0  0
 27 21  1  0  0  0  0
 28 15  2  0  0  0  0
 29 30  1  0  0  0  0
 30 23  1  0  0  0  0
 30 31  2  0  0  0  0
 33 34  2  0  0  0  0
 34 31  1  0  0  0  0
 34 32  1  0  0  0  0
 35 29  2  0  0  0  0
 35 33  1  0  0  0  0
 37  4  1  0  0  0  0
 37 36  2  0  0  0  0
M  END
>  <MODEL>
5

>  <REMARK>
 VINA RESULT:      -8.1      1.402      1.659
  Name = 
  2 active torsions:
  status: ('A' for Active; 'I' for Inactive)
    1  A    between atoms: N_4  and  C_37
    2  A    between atoms: C_23  and  C_30
                            x       y       z     vdW  Elec       q    Type
                         _______ _______ _______ _____ _____    ______ ____

>  <TORSDO>
F 2

$$$$
=
 OpenBabel11112417163D

 37 44  0  0  1  0  0  0  0  0999 V2000
  194.4390  175.0780  143.9890 C   0  0  0  0  0  2  0  0  0  0  0  0
  194.0970  172.5930  140.1390 C   0  0  0  0  0  0  0  0  0  0  0  0
  190.5360  174.2140  141.5840 C   0  0  0  0  0  0  0  0  0  0  0  0
  195.3970  174.8310  145.0670 N   0  0  0  0  0  0  0  0  0  0  0  0
  190.6290  176.1270  144.9180 O   0  0  0  0  0  0  0  0  0  0  0  0
  191.6640  172.9680  139.8410 C   0  0  0  0  0  0  0  0  0  0  0  0
  190.8880  174.6820  142.8500 C   0  0  0  0  0  0  0  0  0  0  0  0
  194.0080  176.2530  146.4830 C   0  0  0  0  0  0  0  0  0  0  0  0
  191.6360  173.5930  141.0670 C   0  0  0  0  0  0  0  0  0  0  0  0
  190.0310  175.4960  143.8070 C   0  0  0  0  0  0  0  0  0  0  0  0
  190.4910  172.9620  139.0770 C   0  0  0  0  0  3  0  0  0  0  0  0
  195.1050  175.2340  146.4400 C   0  0  0  0  0  2  0  0  0  0  0  0
  192.6640  173.5950  141.9000 N   0  0  0  0  0  0  0  0  0  0  0  0
  194.7740  173.8190  139.5520 C   0  0  0  0  0  1  0  0  0  0  0  0
  188.0820  174.7370  141.3610 C   0  0  0  0  0  3  0  0  0  0  0  0
  189.3330  173.5850  139.5930 C   0  0  0  0  0  3  0  0  0  0  0  0
  193.8820  172.8180  141.6570 C   0  0  0  0  0  2  0  0  0  0  0  0
  192.5700  175.8340  146.3860 C   0  0  1  0  0  3  0  0  0  0  0  0
  192.0220  176.1170  145.0770 C   0  0  1  0  0  3  0  0  0  0  0  0
  189.3430  174.2150  140.8590 C   0  0  0  0  0  0  0  0  0  0  0  0
  192.2470  174.2310  143.0160 C   0  0  0  0  0  0  0  0  0  0  0  0
  192.8580  172.3570  139.4380 O   0  0  0  0  0  0  0  0  0  0  0  0
  188.6950  175.7000  143.6690 C   0  0  0  0  0  0  0  0  0  0  0  0
  195.0100  171.4010  139.9440 C   0  0  0  0  0  1  0  0  0  0  0  0
  192.3400  174.7210  145.4220 N   0  0  1  0  0  0  0  0  0  0  0  0
  194.2900  177.4350  146.5970 O   0  0  0  0  0  0  0  0  0  0  0  0
  193.1300  174.3180  144.2510 C   0  0  2  0  0  3  0  0  0  0  0  0
  187.8350  175.3320  142.5210 C   0  0  0  0  0  3  0  0  0  0  0  0
  188.0180  175.9640  146.0710 C   0  0  0  0  0  3  0  0  0  0  0  0
  187.9500  176.4090  144.7420 C   0  0  0  0  0  0  0  0  0  0  0  0
  187.2020  177.5620  144.4620 C   0  0  0  0  0  3  0  0  0  0  0  0
  185.5850  179.6590  145.1370 Cl  0  0  0  0  0  0  0  0  0  0  0  0
  186.6180  177.7410  146.7910 C   0  0  0  0  0  3  0  0  0  0  0  0
  186.5290  178.2280  145.4860 C   0  0  0  0  0  0  0  0  0  0  0  0
  187.3550  176.6300  147.0540 N   0  0  0  0  0  0  0  0  0  0  0  0
  197.1880  173.3840  145.8020 C   0  0  0  0  0  2  0  0  0  0  0  0
  196.5910  174.0740  144.8380 C   0  0  0  0  0  3  0  0  0  0  0  0
  1 27  1  0  0  0  0
  1  4  1  0  0  0  0
  2 17  1  0  0  0  0
  3  7  1  0  0  0  0
  4 12  1  0  0  0  0
  6  9  2  0  0  0  0
  7 21  2  0  0  0  0
  7 10  1  0  0  0  0
  8 26  2  0  0  0  0
  9  3  1  0  0  0  0
  9 13  1  0  0  0  0
 10  5  1  0  0  0  0
 11 16  2  0  0  0  0
 11  6  1  0  0  0  0
 12  8  1  0  0  0  0
 13 21  1  0  0  0  0
 14  2  1  0  0  0  0
 15 28  2  0  0  0  0
 16 20  1  0  0  0  0
 17 13  1  0  0  0  0
 18  8  1  6  0  0  0
 19  5  1  1  0  0  0
 19 25  1  0  0  0  0
 19 18  1  0  0  0  0
 20 15  1  0  0  0  0
 20  3  2  0  0  0  0
 21 27  1  0  0  0  0
 22  6  1  0  0  0  0
 22  2  1  0  0  0  0
 23 10  2  0  0  0  0
 23 30  1  0  0  0  0
 24  2  1  0  0  0  0
 25 18  1  0  0  0  0
 27 25  1  0  0  0  0
 28 23  1  0  0  0  0
 29 35  1  0  0  0  0
 30 29  2  0  0  0  0
 31 30  1  0  0  0  0
 31 34  2  0  0  0  0
 32 34  1  0  0  0  0
 33 35  2  0  0  0  0
 34 33  1  0  0  0  0
 37  4  1  0  0  0  0
 37 36  2  0  0  0  0
M  END
>  <MODEL>
6

>  <REMARK>
 VINA RESULT:      -8.1      1.867      5.256
  Name = 
  2 active torsions:
  status: ('A' for Active; 'I' for Inactive)
    1  A    between atoms: N_4  and  C_37
    2  A    between atoms: C_23  and  C_30
                            x       y       z     vdW  Elec       q    Type
                         _______ _______ _______ _____ _____    ______ ____

>  <TORSDO>
F 2

$$$$
=
 OpenBabel11112417163D

 37 44  0  0  1  0  0  0  0  0999 V2000
  189.5160  175.1730  145.0030 C   0  0  0  0  0  2  0  0  0  0  0  0
  186.7940  178.1150  147.2510 C   0  0  0  0  0  0  0  0  0  0  0  0
  186.0860  177.7410  143.1580 C   0  0  0  0  0  0  0  0  0  0  0  0
  190.9130  174.8980  145.3360 N   0  0  0  0  0  0  0  0  0  0  0  0
  188.4290  175.4880  141.1040 O   0  0  0  0  0  0  0  0  0  0  0  0
  185.4210  178.7110  145.2750 C   0  0  0  0  0  0  0  0  0  0  0  0
  187.1830  177.0060  142.7100 C   0  0  0  0  0  0  0  0  0  0  0  0
  191.1380  173.9080  143.1170 C   0  0  0  0  0  0  0  0  0  0  0  0
  186.2790  177.9770  144.4890 C   0  0  0  0  0  0  0  0  0  0  0  0
  187.4110  176.4420  141.3160 C   0  0  0  0  0  0  0  0  0  0  0  0
  184.2790  179.2550  144.6750 C   0  0  0  0  0  3  0  0  0  0  0  0
  191.8550  174.4450  144.3160 C   0  0  0  0  0  2  0  0  0  0  0  0
  187.4210  177.4800  144.9360 N   0  0  0  0  0  0  0  0  0  0  0  0
  186.2070  176.8200  147.7820 C   0  0  0  0  0  1  0  0  0  0  0  0
  184.7240  178.1980  141.0890 C   0  0  0  0  0  3  0  0  0  0  0  0
  184.0590  179.0390  143.2960 C   0  0  0  0  0  3  0  0  0  0  0  0
  187.9460  177.7780  146.2710 C   0  0  0  0  0  2  0  0  0  0  0  0
  190.5820  174.8380  142.0770 C   0  0  1  0  0  3  0  0  0  0  0  0
  189.1450  174.9610  142.1890 C   0  0  1  0  0  3  0  0  0  0  0  0
  184.9680  178.2810  142.5190 C   0  0  0  0  0  0  0  0  0  0  0  0
  188.0220  176.8960  143.8760 C   0  0  0  0  0  0  0  0  0  0  0  0
  185.7480  178.8870  146.6250 O   0  0  0  0  0  0  0  0  0  0  0  0
  186.6790  176.7680  140.2180 C   0  0  0  0  0  0  0  0  0  0  0  0
  187.3570  178.9000  148.4170 C   0  0  0  0  0  1  0  0  0  0  0  0
  189.9870  176.0780  142.6470 N   0  0  1  0  0  0  0  0  0  0  0  0
  191.0020  172.7020  142.9870 O   0  0  0  0  0  0  0  0  0  0  0  0
  189.4250  176.3190  143.9840 C   0  0  2  0  0  3  0  0  0  0  0  0
  185.4440  177.5820  140.1600 C   0  0  0  0  0  3  0  0  0  0  0  0
  186.8650  176.9960  137.7260 C   0  0  0  0  0  3  0  0  0  0  0  0
  187.0850  176.2430  138.8880 C   0  0  0  0  0  0  0  0  0  0  0  0
  187.7370  175.0060  138.7680 C   0  0  0  0  0  3  0  0  0  0  0  0
  188.9360  172.9940  137.3600 Cl  0  0  0  0  0  0  0  0  0  0  0  0
  187.8810  175.3220  136.3850 C   0  0  0  0  0  3  0  0  0  0  0  0
  188.1320  174.5410  137.5140 C   0  0  0  0  0  0  0  0  0  0  0  0
  187.2600  176.5240  136.5130 N   0  0  0  0  0  0  0  0  0  0  0  0
  190.6510  175.5250  147.6560 C   0  0  0  0  0  2  0  0  0  0  0  0
  191.4340  175.1840  146.6400 C   0  0  0  0  0  3  0  0  0  0  0  0
  1  4  1  0  0  0  0
  2 14  1  0  0  0  0
  2 24  1  0  0  0  0
  3  9  1  0  0  0  0
  4 37  1  0  0  0  0
  5 10  1  0  0  0  0
  6 22  1  0  0  0  0
  7  3  1  0  0  0  0
  7 21  2  0  0  0  0
  8 12  1  0  0  0  0
  9 13  1  0  0  0  0
  9  6  2  0  0  0  0
 10  7  1  0  0  0  0
 11  6  1  0  0  0  0
 12  4  1  0  0  0  0
 13 17  1  0  0  0  0
 15 20  1  0  0  0  0
 16 11  2  0  0  0  0
 17  2  1  0  0  0  0
 18 19  1  0  0  0  0
 18 25  1  0  0  0  0
 18  8  1  1  0  0  0
 19  5  1  6  0  0  0
 19 25  1  0  0  0  0
 20  3  2  0  0  0  0
 20 16  1  0  0  0  0
 21 27  1  0  0  0  0
 21 13  1  0  0  0  0
 22  2  1  0  0  0  0
 23 10  2  0  0  0  0
 25 27  1  0  0  0  0
 26  8  2  0  0  0  0
 27  1  1  0  0  0  0
 28 23  1  0  0  0  0
 28 15  2  0  0  0  0
 29 30  1  0  0  0  0
 30 23  1  0  0  0  0
 31 30  2  0  0  0  0
 32 34  1  0  0  0  0
 33 35  1  0  0  0  0
 33 34  2  0  0  0  0
 34 31  1  0  0  0  0
 35 29  2  0  0  0  0
 37 36  2  0  0  0  0
M  END
>  <MODEL>
7

>  <REMARK>
 VINA RESULT:      -7.7      3.154      7.627
  Name = 
  2 active torsions:
  status: ('A' for Active; 'I' for Inactive)
    1  A    between atoms: N_4  and  C_37
    2  A    between atoms: C_23  and  C_30
                            x       y       z     vdW  Elec       q    Type
                         _______ _______ _______ _____ _____    ______ ____

>  <TORSDO>
F 2

$$$$
=
 OpenBabel11112417163D

 37 44  0  0  1  0  0  0  0  0999 V2000
  191.0760  173.3370  142.0790 C   0  0  0  0  0  2  0  0  0  0  0  0
  189.8740  172.7480  137.6830 C   0  0  0  0  0  0  0  0  0  0  0  0
  187.6790  175.5880  139.8070 C   0  0  0  0  0  0  0  0  0  0  0  0
  191.5950  172.2880  142.9570 N   0  0  0  0  0  0  0  0  0  0  0  0
  188.4210  176.0300  143.5540 O   0  0  0  0  0  0  0  0  0  0  0  0
  188.1210  174.5010  137.6890 C   0  0  0  0  0  0  0  0  0  0  0  0
  188.0770  175.3770  141.1270 C   0  0  0  0  0  0  0  0  0  0  0  0
  191.0770  173.7540  144.8380 C   0  0  0  0  0  0  0  0  0  0  0  0
  188.2990  174.6390  139.0460 C   0  0  0  0  0  0  0  0  0  0  0  0
  187.7120  176.2090  142.3470 C   0  0  0  0  0  0  0  0  0  0  0  0
  187.2470  175.3850  137.0460 C   0  0  0  0  0  3  0  0  0  0  0  0
  191.4140  172.3610  144.4040 C   0  0  0  0  0  2  0  0  0  0  0  0
  189.0440  173.8140  139.7640 N   0  0  0  0  0  0  0  0  0  0  0  0
  191.1850  173.4810  137.4580 C   0  0  0  0  0  1  0  0  0  0  0  0
  185.9830  177.4460  139.9310 C   0  0  0  0  0  3  0  0  0  0  0  0
  186.5810  176.3700  137.8090 C   0  0  0  0  0  3  0  0  0  0  0  0
  189.6400  172.5970  139.2080 C   0  0  0  0  0  2  0  0  0  0  0  0
  189.6740  174.2740  144.7170 C   0  0  1  0  0  3  0  0  0  0  0  0
  189.5400  175.1870  143.6030 C   0  0  1  0  0  3  0  0  0  0  0  0
  186.7880  176.4780  139.2050 C   0  0  0  0  0  0  0  0  0  0  0  0
  188.9210  174.2120  141.0490 C   0  0  0  0  0  0  0  0  0  0  0  0
  188.8090  173.4730  137.0320 O   0  0  0  0  0  0  0  0  0  0  0  0
  186.7450  177.1630  142.3740 C   0  0  0  0  0  0  0  0  0  0  0  0
  189.9830  171.3700  137.0650 C   0  0  0  0  0  1  0  0  0  0  0  0
  188.9800  173.8310  143.4760 N   0  0  1  0  0  0  0  0  0  0  0  0
  191.9530  174.4720  145.2910 O   0  0  0  0  0  0  0  0  0  0  0  0
  189.5460  173.4160  142.1850 C   0  0  2  0  0  3  0  0  0  0  0  0
  185.9720  177.7040  141.2330 C   0  0  0  0  0  3  0  0  0  0  0  0
  185.9900  179.1570  143.6980 C   0  0  0  0  0  3  0  0  0  0  0  0
  186.3990  177.8150  143.6640 C   0  0  0  0  0  0  0  0  0  0  0  0
  186.4300  177.0970  144.8680 C   0  0  0  0  0  3  0  0  0  0  0  0
  186.1290  176.8290  147.5710 Cl  0  0  0  0  0  0  0  0  0  0  0  0
  185.6900  179.0600  146.0510 C   0  0  0  0  0  3  0  0  0  0  0  0
  186.0800  177.7200  146.0660 C   0  0  0  0  0  0  0  0  0  0  0  0
  185.6510  179.7440  144.8770 N   0  0  0  0  0  0  0  0  0  0  0  0
  193.1290  170.4230  143.0610 C   0  0  0  0  0  2  0  0  0  0  0  0
  192.1810  171.0970  142.4200 C   0  0  0  0  0  3  0  0  0  0  0  0
  1 27  1  0  0  0  0
  1  4  1  0  0  0  0
  2 17  1  0  0  0  0
  3  7  1  0  0  0  0
  4 12  1  0  0  0  0
  6  9  1  0  0  0  0
  7 10  1  0  0  0  0
  8 26  2  0  0  0  0
  9 13  1  0  0  0  0
  9  3  2  0  0  0  0
 10 23  2  0  0  0  0
 10  5  1  0  0  0  0
 11  6  2  0  0  0  0
 11 16  1  0  0  0  0
 12  8  1  0  0  0  0
 13 21  1  0  0  0  0
 14  2  1  0  0  0  0
 15 28  2  0  0  0  0
 16 20  2  0  0  0  0
 17 13  1  0  0  0  0
 18  8  1  6  0  0  0
 19  5  1  1  0  0  0
 19 18  1  0  0  0  0
 20  3  1  0  0  0  0
 20 15  1  0  0  0  0
 21  7  2  0  0  0  0
 21 27  1  0  0  0  0
 22  2  1  0  0  0  0
 22  6  1  0  0  0  0
 23 30  1  0  0  0  0
 24  2  1  0  0  0  0
 25 19  1  0  0  0  0
 25 18  1  0  0  0  0
 27 25  1  0  0  0  0
 28 23  1  0  0  0  0
 29 35  1  0  0  0  0
 30 29  2  0  0  0  0
 30 31  1  0  0  0  0
 31 34  2  0  0  0  0
 33 34  1  0  0  0  0
 34 32  1  0  0  0  0
 35 33  2  0  0  0  0
 37  4  1  0  0  0  0
 37 36  2  0  0  0  0
M  END
>  <MODEL>
8

>  <REMARK>
 VINA RESULT:      -7.6      2.774      5.975
  Name = 
  2 active torsions:
  status: ('A' for Active; 'I' for Inactive)
    1  A    between atoms: N_4  and  C_37
    2  A    between atoms: C_23  and  C_30
                            x       y       z     vdW  Elec       q    Type
                         _______ _______ _______ _____ _____    ______ ____

>  <TORSDO>
F 2

$$$$
=
 OpenBabel11112417163D

 37 44  0  0  1  0  0  0  0  0999 V2000
  192.7910  172.1580  141.6750 C   0  0  0  0  0  2  0  0  0  0  0  0
  195.9640  173.5380  144.6990 C   0  0  0  0  0  0  0  0  0  0  0  0
  192.3110  175.5470  144.8450 C   0  0  0  0  0  0  0  0  0  0  0  0
  193.0740  171.6480  140.3330 N   0  0  0  0  0  0  0  0  0  0  0  0
  189.6390  174.6550  142.2280 O   0  0  0  0  0  0  0  0  0  0  0  0
  194.5140  175.2220  145.7970 C   0  0  0  0  0  0  0  0  0  0  0  0
  191.6600  175.1100  143.6910 C   0  0  0  0  0  0  0  0  0  0  0  0
  190.7240  172.0430  139.8030 C   0  0  0  0  0  0  0  0  0  0  0  0
  193.5580  174.9910  144.8350 C   0  0  0  0  0  0  0  0  0  0  0  0
  190.2270  175.3990  143.2730 C   0  0  0  0  0  0  0  0  0  0  0  0
  194.1910  176.0850  146.8520 C   0  0  0  0  0  3  0  0  0  0  0  0
  192.0930  171.7740  139.2580 C   0  0  0  0  0  2  0  0  0  0  0  0
  193.7800  174.2520  143.7600 N   0  0  0  0  0  0  0  0  0  0  0  0
  195.6080  172.2100  145.3420 C   0  0  0  0  0  1  0  0  0  0  0  0
  190.7090  177.1660  145.9190 C   0  0  0  0  0  3  0  0  0  0  0  0
  192.9130  176.6850  146.8820 C   0  0  0  0  0  3  0  0  0  0  0  0
  195.1040  173.7230  143.4220 C   0  0  0  0  0  2  0  0  0  0  0  0
  190.3260  173.4290  140.2200 C   0  0  1  0  0  3  0  0  0  0  0  0
  190.3180  173.5680  141.6600 C   0  0  1  0  0  3  0  0  0  0  0  0
  191.9580  176.4250  145.8710 C   0  0  0  0  0  0  0  0  0  0  0  0
  192.6540  174.3140  143.0170 C   0  0  0  0  0  0  0  0  0  0  0  0
  195.7590  174.5980  145.6570 O   0  0  0  0  0  0  0  0  0  0  0  0
  189.4220  176.3290  143.8520 C   0  0  0  0  0  0  0  0  0  0  0  0
  197.4250  173.5040  144.3050 C   0  0  0  0  0  1  0  0  0  0  0  0
  191.4170  174.1820  140.8980 N   0  0  1  0  0  0  0  0  0  0  0  0
  189.9290  171.1240  139.9100 O   0  0  0  0  0  0  0  0  0  0  0  0
  192.5840  173.6790  141.6370 C   0  0  2  0  0  3  0  0  0  0  0  0
  189.6850  177.1210  145.0750 C   0  0  0  0  0  3  0  0  0  0  0  0
  186.9390  176.6120  144.0750 C   0  0  0  0  0  3  0  0  0  0  0  0
  188.0840  176.6020  143.2660 C   0  0  0  0  0  0  0  0  0  0  0  0
  187.9400  176.9010  141.9030 C   0  0  0  0  0  3  0  0  0  0  0  0
  186.4950  177.5410  139.6730 Cl  0  0  0  0  0  0  0  0  0  0  0  0
  185.5670  177.1660  142.2190 C   0  0  0  0  0  3  0  0  0  0  0  0
  186.6790  177.1790  141.3750 C   0  0  0  0  0  0  0  0  0  0  0  0
  185.7190  176.8870  143.5400 N   0  0  0  0  0  0  0  0  0  0  0  0
  195.3960  171.1930  140.8290 C   0  0  0  0  0  2  0  0  0  0  0  0
  194.3650  171.1280  139.9950 C   0  0  0  0  0  3  0  0  0  0  0  0
  2 14  1  0  0  0  0
  2 22  1  0  0  0  0
  3 20  1  0  0  0  0
  4  1  1  0  0  0  0
  5 10  1  0  0  0  0
  6 11  2  0  0  0  0
  7  3  1  0  0  0  0
  8 26  2  0  0  0  0
  9  3  2  0  0  0  0
  9  6  1  0  0  0  0
 10  7  1  0  0  0  0
 10 23  2  0  0  0  0
 11 16  1  0  0  0  0
 12  8  1  0  0  0  0
 12  4  1  0  0  0  0
 13  9  1  0  0  0  0
 17 13  1  0  0  0  0
 17  2  1  0  0  0  0
 18  8  1  1  0  0  0
 18 25  1  0  0  0  0
 18 19  1  0  0  0  0
 19  5  1  6  0  0  0
 20 15  1  0  0  0  0
 20 16  2  0  0  0  0
 21  7  2  0  0  0  0
 21 13  1  0  0  0  0
 22  6  1  0  0  0  0
 23 28  1  0  0  0  0
 24  2  1  0  0  0  0
 25 27  1  0  0  0  0
 25 19  1  0  0  0  0
 27  1  1  0  0  0  0
 27 21  1  0  0  0  0
 28 15  2  0  0  0  0
 30 23  1  0  0  0  0
 30 29  2  0  0  0  0
 31 30  1  0  0  0  0
 32 34  1  0  0  0  0
 33 35  2  0  0  0  0
 34 31  2  0  0  0  0
 34 33  1  0  0  0  0
 35 29  1  0  0  0  0
 37  4  1  0  0  0  0
 37 36  2  0  0  0  0
M  END
>  <MODEL>
9

>  <REMARK>
 VINA RESULT:      -7.4      1.942      2.404
  Name = 
  2 active torsions:
  status: ('A' for Active; 'I' for Inactive)
    1  A    between atoms: N_4  and  C_37
    2  A    between atoms: C_23  and  C_30
                            x       y       z     vdW  Elec       q    Type
                         _______ _______ _______ _____ _____    ______ ____

>  <TORSDO>
F 2

$$$$
