=
 OpenBabel11112416523D

 31 35  0  0  1  0  0  0  0  0999 V2000
  185.1340  177.9500  146.8880 C   0  0  0  0  0  0  0  0  0  0  0  0
  187.7780  175.6660  145.3890 C   0  0  2  0  0  3  0  0  0  0  0  0
  187.6300  175.8200  143.8530 C   0  0  1  0  0  3  0  0  0  0  0  0
  187.2910  177.2030  141.8510 N   0  0  0  0  0  0  0  0  0  0  0  0
  187.1310  176.7710  146.1800 C   0  0  0  0  0  0  0  0  0  0  0  0
  185.9240  178.8840  147.5640 C   0  0  0  0  0  3  0  0  0  0  0  0
  187.3680  177.2330  143.3170 C   0  0  0  0  0  2  0  0  0  0  0  0
  189.9400  176.7410  145.8300 N   0  0  0  0  0  0  0  0  0  0  0  0
  183.7510  178.0710  146.9000 O   0  0  0  0  0  1  0  0  0  0  0  0
  189.2560  174.0780  143.7130 O   0  0  0  0  0  0  0  0  0  0  0  0
  186.6260  178.2910  141.1600 C   0  0  0  0  0  1  0  0  0  0  0  0
  189.4140  177.5400  146.9420 C   0  0  0  0  0  2  0  0  0  0  0  0
  189.2460  175.4400  145.8250 C   0  0  2  0  0  3  0  0  0  0  0  0
  185.7360  176.8950  146.1970 C   0  0  0  0  0  3  0  0  0  0  0  0
  187.8990  176.1510  141.0760 C   0  0  0  0  0  3  0  0  0  0  0  0
  187.9250  177.7190  146.8540 C   0  0  0  0  0  0  0  0  0  0  0  0
  187.3160  178.7640  147.5540 C   0  0  0  0  0  3  0  0  0  0  0  0
  189.9510  174.3940  144.9040 C   0  0  0  0  0  2  0  0  0  0  0  0
  188.8710  175.2940  143.1410 C   0  0  1  0  0  3  0  0  0  0  0  0
  188.6250  175.1990  141.6700 C   0  0  0  0  0  3  0  0  0  0  0  0
  191.3630  176.5610  146.1000 C   0  0  0  0  0  2  0  0  0  0  0  0
  191.5770  177.4810  143.9210 O   0  0  0  0  0  0  0  0  0  0  0  0
  192.1440  176.8610  144.8600 C   0  0  0  0  0  0  0  0  0  0  0  0
  196.0880  175.3400  144.2870 N   0  0  0  0  0  0  0  0  0  0  0  0
  193.9650  176.0820  143.3350 C   0  0  0  0  0  2  0  0  0  0  0  0
  194.1880  176.7950  146.8880 O   0  0  0  0  0  0  0  0  0  0  0  0
  197.0950  174.3010  144.1890 C   0  0  0  0  0  1  0  0  0  0  0  0
  195.0190  174.9760  143.3590 C   0  0  0  0  0  2  0  0  0  0  0  0
  194.3850  176.1990  145.7960 C   0  0  0  0  0  0  0  0  0  0  0  0
  193.4790  176.3590  144.6880 N   0  0  0  0  0  0  0  0  0  0  0  0
  195.5640  175.2870  145.6510 C   0  0  0  0  0  2  0  0  0  0  0  0
  1  9  1  0  0  0  0
  1  6  1  0  0  0  0
  2 13  1  0  0  0  0
  2  5  1  1  0  0  0
  3  7  1  1  0  0  0
  3  2  1  0  0  0  0
  4  7  1  0  0  0  0
  5 14  1  0  0  0  0
  5 16  2  0  0  0  0
  8 21  1  0  0  0  0
  8 12  1  0  0  0  0
 10 18  1  0  0  0  0
 11  4  1  0  0  0  0
 13 18  1  6  0  0  0
 13  8  1  0  0  0  0
 14  1  2  0  0  0  0
 15 20  2  0  0  0  0
 15  4  1  0  0  0  0
 16 12  1  0  0  0  0
 16 17  1  0  0  0  0
 17  6  2  0  0  0  0
 19 20  1  6  0  0  0
 19 10  1  0  0  0  0
 19  3  1  0  0  0  0
 22 23  2  0  0  0  0
 23 21  1  0  0  0  0
 24 31  1  0  0  0  0
 25 28  1  0  0  0  0
 25 30  1  0  0  0  0
 27 24  1  0  0  0  0
 28 24  1  0  0  0  0
 29 26  2  0  0  0  0
 30 23  1  0  0  0  0
 30 29  1  0  0  0  0
 31 29  1  0  0  0  0
M  END
>  <MODEL>
1

>  <REMARK>
 VINA RESULT:      -8.1      0.000      0.000
  Name = 
  2 active torsions:
  status: ('A' for Active; 'I' for Inactive)
    1  A    between atoms: C_5  and  C_16
    2  A    between atoms: N_10  and  C_16
                            x       y       z     vdW  Elec       q    Type
                         _______ _______ _______ _____ _____    ______ ____

>  <TORSDO>
F 2

$$$$
=
 OpenBabel11112416523D

 31 35  0  0  1  0  0  0  0  0999 V2000
  195.3850  175.5060  144.2180 C   0  0  0  0  0  0  0  0  0  0  0  0
  191.8860  176.9180  143.7520 C   0  0  2  0  0  3  0  0  0  0  0  0
  191.1560  175.9070  142.8290 C   0  0  1  0  0  3  0  0  0  0  0  0
  190.6200  173.6070  142.1530 N   0  0  0  0  0  0  0  0  0  0  0  0
  193.1250  176.3660  144.4030 C   0  0  0  0  0  0  0  0  0  0  0  0
  195.3990  175.2440  145.5910 C   0  0  0  0  0  3  0  0  0  0  0  0
  191.4110  174.4170  143.0870 C   0  0  0  0  0  2  0  0  0  0  0  0
  190.7340  176.6120  145.8980 N   0  0  0  0  0  0  0  0  0  0  0  0
  196.4980  175.2090  143.4430 O   0  0  0  0  0  1  0  0  0  0  0  0
  189.3680  177.4890  142.8300 O   0  0  0  0  0  0  0  0  0  0  0  0
  191.0160  172.2350  141.9040 C   0  0  0  0  0  1  0  0  0  0  0  0
  191.9860  176.5080  146.6540 C   0  0  0  0  0  2  0  0  0  0  0  0
  190.9390  177.5650  144.7910 C   0  0  2  0  0  3  0  0  0  0  0  0
  194.2510  176.0670  143.6240 C   0  0  0  0  0  3  0  0  0  0  0  0
  189.4330  174.1180  141.5150 C   0  0  0  0  0  3  0  0  0  0  0  0
  193.1390  176.0920  145.7840 C   0  0  0  0  0  0  0  0  0  0  0  0
  194.2800  175.5430  146.3730 C   0  0  0  0  0  3  0  0  0  0  0  0
  189.5940  178.0040  144.1290 C   0  0  0  0  0  2  0  0  0  0  0  0
  189.6480  176.1210  142.8900 C   0  0  1  0  0  3  0  0  0  0  0  0
  188.9680  175.3350  141.8160 C   0  0  0  0  0  3  0  0  0  0  0  0
  189.7380  177.1220  146.8350 C   0  0  0  0  0  2  0  0  0  0  0  0
  188.5750  175.0590  146.6580 O   0  0  0  0  0  0  0  0  0  0  0  0
  188.4850  176.3150  146.7130 C   0  0  0  0  0  0  0  0  0  0  0  0
  184.6830  178.1700  146.1650 N   0  0  0  0  0  0  0  0  0  0  0  0
  186.1540  176.2550  145.8110 C   0  0  0  0  0  2  0  0  0  0  0  0
  187.5860  178.6610  148.1210 O   0  0  0  0  0  0  0  0  0  0  0  0
  183.7210  179.0270  145.4970 C   0  0  0  0  0  1  0  0  0  0  0  0
  185.2060  177.2560  145.1530 C   0  0  0  0  0  2  0  0  0  0  0  0
  186.9020  178.2210  147.1600 C   0  0  0  0  0  0  0  0  0  0  0  0
  187.2070  176.9530  146.5490 N   0  0  0  0  0  0  0  0  0  0  0  0
  185.7690  179.0370  146.6200 C   0  0  0  0  0  2  0  0  0  0  0  0
  1  6  1  0  0  0  0
  2  5  1  1  0  0  0
  2 13  1  0  0  0  0
  3 19  1  0  0  0  0
  3  7  1  1  0  0  0
  3  2  1  0  0  0  0
  4  7  1  0  0  0  0
  5 16  2  0  0  0  0
  6 17  2  0  0  0  0
  8 12  1  0  0  0  0
  8 21  1  0  0  0  0
  9  1  1  0  0  0  0
 10 19  1  0  0  0  0
 10 18  1  0  0  0  0
 11  4  1  0  0  0  0
 13 18  1  6  0  0  0
 13  8  1  0  0  0  0
 14  1  2  0  0  0  0
 14  5  1  0  0  0  0
 15 20  2  0  0  0  0
 15  4  1  0  0  0  0
 16 17  1  0  0  0  0
 16 12  1  0  0  0  0
 19 20  1  6  0  0  0
 22 23  2  0  0  0  0
 23 21  1  0  0  0  0
 24 31  1  0  0  0  0
 25 30  1  0  0  0  0
 27 24  1  0  0  0  0
 28 25  1  0  0  0  0
 28 24  1  0  0  0  0
 29 26  2  0  0  0  0
 30 23  1  0  0  0  0
 30 29  1  0  0  0  0
 31 29  1  0  0  0  0
M  END
>  <MODEL>
2

>  <REMARK>
 VINA RESULT:      -7.8      2.360      7.257
  Name = 
  2 active torsions:
  status: ('A' for Active; 'I' for Inactive)
    1  A    between atoms: C_5  and  C_16
    2  A    between atoms: N_10  and  C_16
                            x       y       z     vdW  Elec       q    Type
                         _______ _______ _______ _____ _____    ______ ____

>  <TORSDO>
F 2

$$$$
=
 OpenBabel11112416523D

 31 35  0  0  1  0  0  0  0  0999 V2000
  186.1010  178.0950  147.0080 C   0  0  0  0  0  0  0  0  0  0  0  0
  188.9460  177.9160  144.4910 C   0  0  2  0  0  3  0  0  0  0  0  0
  190.1800  177.4410  145.3020 C   0  0  1  0  0  3  0  0  0  0  0  0
  191.2170  175.9960  146.9960 N   0  0  0  0  0  0  0  0  0  0  0  0
  187.6300  177.6610  145.1760 C   0  0  0  0  0  0  0  0  0  0  0  0
  185.2300  177.1200  146.5140 C   0  0  0  0  0  3  0  0  0  0  0  0
  189.9460  176.3490  146.3530 C   0  0  0  0  0  2  0  0  0  0  0  0
  188.4690  175.9820  143.0580 N   0  0  0  0  0  0  0  0  0  0  0  0
  185.7780  178.7950  148.1630 O   0  0  0  0  0  1  0  0  0  0  0  0
  191.4070  177.8150  143.2880 O   0  0  0  0  0  0  0  0  0  0  0  0
  191.1910  175.3400  148.2890 C   0  0  0  0  0  1  0  0  0  0  0  0
  187.0380  175.9860  143.3800 C   0  0  0  0  0  2  0  0  0  0  0  0
  188.9440  177.3780  143.0410 C   0  0  2  0  0  3  0  0  0  0  0  0
  187.2990  178.3670  146.3410 C   0  0  0  0  0  3  0  0  0  0  0  0
  192.4870  176.2370  146.3600 C   0  0  0  0  0  3  0  0  0  0  0  0
  186.7550  176.6730  144.6860 C   0  0  0  0  0  0  0  0  0  0  0  0
  185.5540  176.4160  145.3510 C   0  0  0  0  0  3  0  0  0  0  0  0
  190.3560  177.5170  142.3880 C   0  0  0  0  0  2  0  0  0  0  0  0
  191.2700  176.9350  144.3650 C   0  0  1  0  0  3  0  0  0  0  0  0
  192.5450  176.7260  145.1170 C   0  0  0  0  0  3  0  0  0  0  0  0
  188.5810  175.3860  141.7300 C   0  0  0  0  0  2  0  0  0  0  0  0
  187.6820  173.1950  141.5560 O   0  0  0  0  0  0  0  0  0  0  0  0
  188.6820  173.9000  141.8610 C   0  0  0  0  0  0  0  0  0  0  0  0
  192.1080  172.0410  143.5930 N   0  0  0  0  0  0  0  0  0  0  0  0
  189.7100  172.0100  143.1330 C   0  0  0  0  0  2  0  0  0  0  0  0
  191.4070  174.6680  141.3360 O   0  0  0  0  0  0  0  0  0  0  0  0
  193.0860  171.7980  144.6370 C   0  0  0  0  0  1  0  0  0  0  0  0
  190.7910  171.8680  144.2040 C   0  0  0  0  0  2  0  0  0  0  0  0
  191.1670  173.8390  142.2520 C   0  0  0  0  0  0  0  0  0  0  0  0
  189.8500  173.2850  142.4280 N   0  0  0  0  0  0  0  0  0  0  0  0
  192.2600  173.4390  143.1950 C   0  0  0  0  0  2  0  0  0  0  0  0
  1  9  1  0  0  0  0
  2  5  1  1  0  0  0
  2  3  1  0  0  0  0
  3  7  1  1  0  0  0
  4 11  1  0  0  0  0
  5 14  1  0  0  0  0
  6  1  1  0  0  0  0
  7  4  1  0  0  0  0
  8 12  1  0  0  0  0
 10 19  1  0  0  0  0
 12 16  1  0  0  0  0
 13 18  1  1  0  0  0
 13  8  1  0  0  0  0
 13  2  1  0  0  0  0
 14  1  2  0  0  0  0
 15  4  1  0  0  0  0
 16  5  2  0  0  0  0
 16 17  1  0  0  0  0
 17  6  2  0  0  0  0
 18 10  1  0  0  0  0
 19 20  1  1  0  0  0
 19  3  1  0  0  0  0
 20 15  2  0  0  0  0
 21 23  1  0  0  0  0
 21  8  1  0  0  0  0
 22 23  2  0  0  0  0
 23 30  1  0  0  0  0
 24 28  1  0  0  0  0
 24 27  1  0  0  0  0
 25 28  1  0  0  0  0
 26 29  2  0  0  0  0
 29 30  1  0  0  0  0
 29 31  1  0  0  0  0
 30 25  1  0  0  0  0
 31 24  1  0  0  0  0
M  END
>  <MODEL>
3

>  <REMARK>
 VINA RESULT:      -7.7      2.351      4.731
  Name = 
  2 active torsions:
  status: ('A' for Active; 'I' for Inactive)
    1  A    between atoms: C_5  and  C_16
    2  A    between atoms: N_10  and  C_16
                            x       y       z     vdW  Elec       q    Type
                         _______ _______ _______ _____ _____    ______ ____

>  <TORSDO>
F 2

$$$$
=
 OpenBabel11112416523D

 31 35  0  0  1  0  0  0  0  0999 V2000
  192.9420  170.9160  144.2460 C   0  0  0  0  0  0  0  0  0  0  0  0
  193.5470  174.3370  145.7920 C   0  0  2  0  0  3  0  0  0  0  0  0
  194.6210  175.0070  144.8950 C   0  0  1  0  0  3  0  0  0  0  0  0
  195.5600  175.5300  142.6860 N   0  0  0  0  0  0  0  0  0  0  0  0
  192.8560  173.1670  145.1460 C   0  0  0  0  0  0  0  0  0  0  0  0
  191.6050  171.0210  143.8530 C   0  0  0  0  0  3  0  0  0  0  0  0
  194.4900  174.8040  143.3810 C   0  0  0  0  0  2  0  0  0  0  0  0
  191.5420  175.6680  145.3130 N   0  0  0  0  0  0  0  0  0  0  0  0
  193.6510  169.7490  143.9950 O   0  0  0  0  0  1  0  0  0  0  0  0
  194.6090  176.7580  146.5170 O   0  0  0  0  0  0  0  0  0  0  0  0
  195.9100  175.1420  141.3340 C   0  0  0  0  0  1  0  0  0  0  0  0
  190.7010  174.4850  145.1020 C   0  0  0  0  0  2  0  0  0  0  0  0
  192.5300  175.3540  146.3620 C   0  0  2  0  0  3  0  0  0  0  0  0
  193.5670  171.9860  144.8930 C   0  0  0  0  0  3  0  0  0  0  0  0
  196.2380  176.6500  143.2890 C   0  0  0  0  0  3  0  0  0  0  0  0
  191.5120  173.2730  144.7400 C   0  0  0  0  0  0  0  0  0  0  0  0
  190.8900  172.1950  144.1060 C   0  0  0  0  0  3  0  0  0  0  0  0
  193.2510  176.6300  146.8990 C   0  0  0  0  0  2  0  0  0  0  0  0
  194.6600  176.5110  145.1430 C   0  0  1  0  0  3  0  0  0  0  0  0
  195.8580  177.1150  144.4830 C   0  0  0  0  0  3  0  0  0  0  0  0
  190.6420  176.7280  145.7570 C   0  0  0  0  0  2  0  0  0  0  0  0
  189.8600  176.9780  143.5290 O   0  0  0  0  0  0  0  0  0  0  0  0
  189.5520  176.9080  144.7490 C   0  0  0  0  0  0  0  0  0  0  0  0
  185.5070  177.5660  145.9320 N   0  0  0  0  0  0  0  0  0  0  0  0
  187.2990  177.8950  144.3060 C   0  0  0  0  0  2  0  0  0  0  0  0
  188.2150  175.4990  146.8750 O   0  0  0  0  0  0  0  0  0  0  0  0
  184.4350  178.2570  146.6230 C   0  0  0  0  0  1  0  0  0  0  0  0
  186.2140  178.5720  145.1420 C   0  0  0  0  0  2  0  0  0  0  0  0
  187.6500  176.4910  146.3440 C   0  0  0  0  0  0  0  0  0  0  0  0
  188.1900  177.1080  145.1600 N   0  0  0  0  0  0  0  0  0  0  0  0
  186.4110  177.0600  146.9630 C   0  0  0  0  0  2  0  0  0  0  0  0
  1 14  1  0  0  0  0
  2  5  1  6  0  0  0
  2 13  1  0  0  0  0
  3  7  1  6  0  0  0
  3 19  1  0  0  0  0
  3  2  1  0  0  0  0
  4 15  1  0  0  0  0
  4  7  1  0  0  0  0
  6 17  1  0  0  0  0
  6  1  2  0  0  0  0
  8 21  1  0  0  0  0
  8 13  1  0  0  0  0
  9  1  1  0  0  0  0
 10 18  1  0  0  0  0
 11  4  1  0  0  0  0
 12  8  1  0  0  0  0
 13 18  1  6  0  0  0
 14  5  2  0  0  0  0
 15 20  2  0  0  0  0
 16 12  1  0  0  0  0
 16  5  1  0  0  0  0
 17 16  2  0  0  0  0
 19 20  1  1  0  0  0
 19 10  1  0  0  0  0
 22 23  2  0  0  0  0
 23 30  1  0  0  0  0
 23 21  1  0  0  0  0
 24 27  1  0  0  0  0
 24 31  1  0  0  0  0
 25 28  1  0  0  0  0
 25 30  1  0  0  0  0
 28 24  1  0  0  0  0
 29 26  2  0  0  0  0
 29 31  1  0  0  0  0
 30 29  1  0  0  0  0
M  END
>  <MODEL>
4

>  <REMARK>
 VINA RESULT:      -7.6      2.502      7.779
  Name = 
  2 active torsions:
  status: ('A' for Active; 'I' for Inactive)
    1  A    between atoms: C_5  and  C_16
    2  A    between atoms: N_10  and  C_16
                            x       y       z     vdW  Elec       q    Type
                         _______ _______ _______ _____ _____    ______ ____

>  <TORSDO>
F 2

$$$$
=
 OpenBabel11112416523D

 31 35  0  0  1  0  0  0  0  0999 V2000
  196.8520  170.9170  145.4280 C   0  0  0  0  0  0  0  0  0  0  0  0
  196.1320  174.6340  145.0770 C   0  0  2  0  0  3  0  0  0  0  0  0
  196.5020  174.9860  143.6120 C   0  0  1  0  0  3  0  0  0  0  0  0
  196.5040  174.4750  141.2090 N   0  0  0  0  0  0  0  0  0  0  0  0
  195.9400  173.1610  145.3210 C   0  0  0  0  0  0  0  0  0  0  0  0
  195.5740  170.4070  145.6730 C   0  0  0  0  0  3  0  0  0  0  0  0
  196.1130  173.9700  142.5310 C   0  0  0  0  0  2  0  0  0  0  0  0
  193.6880  174.8590  145.0810 N   0  0  0  0  0  0  0  0  0  0  0  0
  197.9410  170.0580  145.3570 O   0  0  0  0  0  1  0  0  0  0  0  0
  196.0660  177.2460  144.2470 O   0  0  0  0  0  0  0  0  0  0  0  0
  196.6490  173.5360  140.1140 C   0  0  0  0  0  1  0  0  0  0  0  0
  193.4830  173.5690  145.7480 C   0  0  0  0  0  2  0  0  0  0  0  0
  194.9320  175.4570  145.6010 C   0  0  2  0  0  3  0  0  0  0  0  0
  197.0360  172.2910  145.2530 C   0  0  0  0  0  3  0  0  0  0  0  0
  196.6980  175.8800  140.9560 C   0  0  0  0  0  3  0  0  0  0  0  0
  194.6520  172.6440  145.5590 C   0  0  0  0  0  0  0  0  0  0  0  0
  194.4770  171.2710  145.7460 C   0  0  0  0  0  3  0  0  0  0  0  0
  195.0730  176.9640  145.2150 C   0  0  0  0  0  2  0  0  0  0  0  0
  195.8870  176.3220  143.2130 C   0  0  1  0  0  3  0  0  0  0  0  0
  196.4520  176.7850  141.9090 C   0  0  0  0  0  3  0  0  0  0  0  0
  192.5360  175.6840  145.4350 C   0  0  0  0  0  2  0  0  0  0  0  0
  192.0720  175.6690  143.1050 O   0  0  0  0  0  0  0  0  0  0  0  0
  191.5990  175.7490  144.2710 C   0  0  0  0  0  0  0  0  0  0  0  0
  187.4480  176.5780  144.7960 N   0  0  0  0  0  0  0  0  0  0  0  0
  189.4520  176.6940  143.4070 C   0  0  0  0  0  2  0  0  0  0  0  0
  189.9500  174.6170  146.3420 O   0  0  0  0  0  0  0  0  0  0  0  0
  186.3080  177.3550  145.2460 C   0  0  0  0  0  1  0  0  0  0  0  0
  188.2800  177.4760  143.9990 C   0  0  0  0  0  2  0  0  0  0  0  0
  189.4870  175.5430  145.6250 C   0  0  0  0  0  0  0  0  0  0  0  0
  190.1990  176.0090  144.4630 N   0  0  0  0  0  0  0  0  0  0  0  0
  188.1890  176.1910  145.9960 C   0  0  0  0  0  2  0  0  0  0  0  0
  1  6  1  0  0  0  0
  2  5  1  6  0  0  0
  2 13  1  0  0  0  0
  3  7  1  6  0  0  0
  3  2  1  0  0  0  0
  4  7  1  0  0  0  0
  5 16  2  0  0  0  0
  6 17  2  0  0  0  0
  8 21  1  0  0  0  0
  8 13  1  0  0  0  0
  8 12  1  0  0  0  0
  9  1  1  0  0  0  0
 10 18  1  0  0  0  0
 11  4  1  0  0  0  0
 13 18  1  6  0  0  0
 14  5  1  0  0  0  0
 14  1  2  0  0  0  0
 15  4  1  0  0  0  0
 15 20  2  0  0  0  0
 16 17  1  0  0  0  0
 16 12  1  0  0  0  0
 19 20  1  6  0  0  0
 19  3  1  0  0  0  0
 19 10  1  0  0  0  0
 22 23  2  0  0  0  0
 23 30  1  0  0  0  0
 23 21  1  0  0  0  0
 24 27  1  0  0  0  0
 24 31  1  0  0  0  0
 25 28  1  0  0  0  0
 25 30  1  0  0  0  0
 28 24  1  0  0  0  0
 29 31  1  0  0  0  0
 29 26  2  0  0  0  0
 30 29  1  0  0  0  0
M  END
>  <MODEL>
5

>  <REMARK>
 VINA RESULT:      -7.5      2.740      8.555
  Name = 
  2 active torsions:
  status: ('A' for Active; 'I' for Inactive)
    1  A    between atoms: C_5  and  C_16
    2  A    between atoms: N_10  and  C_16
                            x       y       z     vdW  Elec       q    Type
                         _______ _______ _______ _____ _____    ______ ____

>  <TORSDO>
F 2

$$$$
=
 OpenBabel11112416523D

 31 35  0  0  1  0  0  0  0  0999 V2000
  185.9440  178.0090  146.9480 C   0  0  0  0  0  0  0  0  0  0  0  0
  188.7670  177.9590  144.4010 C   0  0  2  0  0  3  0  0  0  0  0  0
  190.0160  177.4800  145.1850 C   0  0  1  0  0  3  0  0  0  0  0  0
  191.0940  176.0000  146.8230 N   0  0  0  0  0  0  0  0  0  0  0  0
  187.4620  177.6600  145.0900 C   0  0  0  0  0  0  0  0  0  0  0  0
  185.0850  177.0360  146.4310 C   0  0  0  0  0  3  0  0  0  0  0  0
  189.8110  176.3520  146.2020 C   0  0  0  0  0  2  0  0  0  0  0  0
  188.3090  176.0640  142.9110 N   0  0  0  0  0  0  0  0  0  0  0  0
  185.6200  178.6670  148.1270 O   0  0  0  0  0  1  0  0  0  0  0  0
  191.2170  177.9390  143.1730 O   0  0  0  0  0  0  0  0  0  0  0  0
  191.0920  175.3030  148.0940 C   0  0  0  0  0  1  0  0  0  0  0  0
  186.8810  176.0330  143.2460 C   0  0  0  0  0  2  0  0  0  0  0  0
  188.7600  177.4670  142.9340 C   0  0  2  0  0  3  0  0  0  0  0  0
  187.1300  178.3230  146.2790 C   0  0  0  0  0  3  0  0  0  0  0  0
  192.3540  176.2830  146.1830 C   0  0  0  0  0  3  0  0  0  0  0  0
  186.6000  176.6730  144.5760 C   0  0  0  0  0  0  0  0  0  0  0  0
  185.4090  176.3740  145.2430 C   0  0  0  0  0  3  0  0  0  0  0  0
  190.1630  177.6510  142.2730 C   0  0  0  0  0  2  0  0  0  0  0  0
  191.1060  177.0220  144.2230 C   0  0  1  0  0  3  0  0  0  0  0  0
  192.3920  176.8120  144.9560 C   0  0  0  0  0  3  0  0  0  0  0  0
  188.4190  175.5120  141.5640 C   0  0  0  0  0  2  0  0  0  0  0  0
  189.3070  173.6450  142.7320 O   0  0  0  0  0  0  0  0  0  0  0  0
  189.1660  174.2180  141.6190 C   0  0  0  0  0  0  0  0  0  0  0  0
  191.1420  172.6370  138.1840 N   0  0  0  0  0  0  0  0  0  0  0  0
  191.0070  172.8590  140.6120 C   0  0  0  0  0  2  0  0  0  0  0  0
  188.0640  174.1940  138.9580 O   0  0  0  0  0  0  0  0  0  0  0  0
  192.0740  172.6680  137.0720 C   0  0  0  0  0  1  0  0  0  0  0  0
  191.9080  172.9710  139.3830 C   0  0  0  0  0  2  0  0  0  0  0  0
  189.2690  173.8700  139.1280 C   0  0  0  0  0  0  0  0  0  0  0  0
  189.8100  173.6860  140.4490 N   0  0  0  0  0  0  0  0  0  0  0  0
  190.1660  173.6980  137.9410 C   0  0  0  0  0  2  0  0  0  0  0  0
  1  9  1  0  0  0  0
  2  5  1  1  0  0  0
  2  3  1  0  0  0  0
  3  7  1  1  0  0  0
  4 11  1  0  0  0  0
  5 14  1  0  0  0  0
  6  1  1  0  0  0  0
  7  4  1  0  0  0  0
  8 13  1  0  0  0  0
  8 12  1  0  0  0  0
 10 19  1  0  0  0  0
 12 16  1  0  0  0  0
 13 18  1  1  0  0  0
 13  2  1  0  0  0  0
 14  1  2  0  0  0  0
 15  4  1  0  0  0  0
 16  5  2  0  0  0  0
 16 17  1  0  0  0  0
 17  6  2  0  0  0  0
 18 10  1  0  0  0  0
 19 20  1  1  0  0  0
 19  3  1  0  0  0  0
 20 15  2  0  0  0  0
 21 23  1  0  0  0  0
 21  8  1  0  0  0  0
 23 22  2  0  0  0  0
 24 28  1  0  0  0  0
 26 29  2  0  0  0  0
 27 24  1  0  0  0  0
 28 25  1  0  0  0  0
 29 30  1  0  0  0  0
 30 25  1  0  0  0  0
 30 23  1  0  0  0  0
 31 24  1  0  0  0  0
 31 29  1  0  0  0  0
M  END
>  <MODEL>
6

>  <REMARK>
 VINA RESULT:      -7.4      2.810      5.538
  Name = 
  2 active torsions:
  status: ('A' for Active; 'I' for Inactive)
    1  A    between atoms: C_5  and  C_16
    2  A    between atoms: N_10  and  C_16
                            x       y       z     vdW  Elec       q    Type
                         _______ _______ _______ _____ _____    ______ ____

>  <TORSDO>
F 2

$$$$
=
 OpenBabel11112416523D

 31 35  0  0  1  0  0  0  0  0999 V2000
  185.4130  177.6120  142.6910 C   0  0  0  0  0  0  0  0  0  0  0  0
  188.0750  175.1820  143.9030 C   0  0  2  0  0  3  0  0  0  0  0  0
  188.3810  174.2700  142.6870 C   0  0  1  0  0  3  0  0  0  0  0  0
  188.7840  173.9470  140.2860 N   0  0  0  0  0  0  0  0  0  0  0  0
  187.3710  176.4630  143.5450 C   0  0  0  0  0  0  0  0  0  0  0  0
  186.0880  178.8320  142.7780 C   0  0  0  0  0  3  0  0  0  0  0  0
  188.4520  174.9430  141.3110 C   0  0  0  0  0  2  0  0  0  0  0  0
  190.1400  176.4890  144.1280 N   0  0  0  0  0  0  0  0  0  0  0  0
  184.1060  177.5720  142.2230 O   0  0  0  0  0  1  0  0  0  0  0  0
  189.7590  173.0400  144.1990 O   0  0  0  0  0  0  0  0  0  0  0  0
  188.4740  174.2360  138.8990 C   0  0  0  0  0  1  0  0  0  0  0  0
  189.4250  177.7650  144.2290 C   0  0  0  0  0  2  0  0  0  0  0  0
  189.3240  175.4470  144.7780 C   0  0  2  0  0  3  0  0  0  0  0  0
  186.0510  176.4290  143.0740 C   0  0  0  0  0  3  0  0  0  0  0  0
  189.4530  172.7120  140.6090 C   0  0  0  0  0  3  0  0  0  0  0  0
  188.0520  177.6930  143.6220 C   0  0  0  0  0  0  0  0  0  0  0  0
  187.4030  178.8730  143.2500 C   0  0  0  0  0  3  0  0  0  0  0  0
  190.1270  174.1300  145.0240 C   0  0  0  0  0  2  0  0  0  0  0  0
  189.6980  173.5320  142.8920 C   0  0  1  0  0  3  0  0  0  0  0  0
  189.8640  172.4660  141.8570 C   0  0  0  0  0  3  0  0  0  0  0  0
  191.3990  176.6740  144.8430 C   0  0  0  0  0  2  0  0  0  0  0  0
  192.3370  177.0820  142.7000 O   0  0  0  0  0  0  0  0  0  0  0  0
  192.5320  176.6480  143.8670 C   0  0  0  0  0  0  0  0  0  0  0  0
  196.2560  174.8010  144.8230 N   0  0  0  0  0  0  0  0  0  0  0  0
  194.6020  175.4460  143.1470 C   0  0  0  0  0  2  0  0  0  0  0  0
  193.8880  176.9010  146.3950 O   0  0  0  0  0  0  0  0  0  0  0  0
  197.1140  173.7060  145.2370 C   0  0  0  0  0  1  0  0  0  0  0  0
  195.4600  174.3090  143.7010 C   0  0  0  0  0  2  0  0  0  0  0  0
  194.3130  176.0710  145.5500 C   0  0  0  0  0  0  0  0  0  0  0  0
  193.7890  176.0400  144.2090 N   0  0  0  0  0  0  0  0  0  0  0  0
  195.3630  175.0800  145.9460 C   0  0  0  0  0  2  0  0  0  0  0  0
  1  6  2  0  0  0  0
  1 14  1  0  0  0  0
  2  5  1  6  0  0  0
  2 13  1  0  0  0  0
  3  7  1  6  0  0  0
  3 19  1  0  0  0  0
  3  2  1  0  0  0  0
  4 15  1  0  0  0  0
  4  7  1  0  0  0  0
  5 16  1  0  0  0  0
  6 17  1  0  0  0  0
  8 12  1  0  0  0  0
  8 13  1  0  0  0  0
  8 21  1  0  0  0  0
  9  1  1  0  0  0  0
 10 18  1  0  0  0  0
 11  4  1  0  0  0  0
 13 18  1  6  0  0  0
 14  5  2  0  0  0  0
 15 20  2  0  0  0  0
 16 12  1  0  0  0  0
 17 16  2  0  0  0  0
 19 20  1  6  0  0  0
 19 10  1  0  0  0  0
 22 23  2  0  0  0  0
 23 30  1  0  0  0  0
 23 21  1  0  0  0  0
 24 27  1  0  0  0  0
 24 31  1  0  0  0  0
 25 28  1  0  0  0  0
 25 30  1  0  0  0  0
 28 24  1  0  0  0  0
 29 31  1  0  0  0  0
 29 26  2  0  0  0  0
 30 29  1  0  0  0  0
M  END
>  <MODEL>
7

>  <REMARK>
 VINA RESULT:      -7.4      2.195      2.645
  Name = 
  2 active torsions:
  status: ('A' for Active; 'I' for Inactive)
    1  A    between atoms: C_5  and  C_16
    2  A    between atoms: N_10  and  C_16
                            x       y       z     vdW  Elec       q    Type
                         _______ _______ _______ _____ _____    ______ ____

>  <TORSDO>
F 2

$$$$
=
 OpenBabel11112416523D

 31 35  0  0  1  0  0  0  0  0999 V2000
  194.3040  170.3850  144.8770 C   0  0  0  0  0  0  0  0  0  0  0  0
  193.9410  174.0690  145.7450 C   0  0  2  0  0  3  0  0  0  0  0  0
  195.0260  174.7950  144.9080 C   0  0  1  0  0  3  0  0  0  0  0  0
  196.2670  175.1250  142.8140 N   0  0  0  0  0  0  0  0  0  0  0  0
  193.6220  172.6810  145.2590 C   0  0  0  0  0  0  0  0  0  0  0  0
  193.0760  170.1210  144.2650 C   0  0  0  0  0  3  0  0  0  0  0  0
  195.2370  174.3100  143.4690 C   0  0  0  0  0  2  0  0  0  0  0  0
  191.8570  174.8170  144.6890 N   0  0  0  0  0  0  0  0  0  0  0  0
  195.2540  169.3800  144.9910 O   0  0  0  0  0  1  0  0  0  0  0  0
  194.3650  176.7530  146.1040 O   0  0  0  0  0  0  0  0  0  0  0  0
  196.9440  174.5960  141.6460 C   0  0  0  0  0  1  0  0  0  0  0  0
  191.3100  173.4590  144.6020 C   0  0  0  0  0  2  0  0  0  0  0  0
  192.6590  174.9170  145.9220 C   0  0  2  0  0  3  0  0  0  0  0  0
  194.5780  171.6620  145.3740 C   0  0  0  0  0  3  0  0  0  0  0  0
  196.5910  176.4540  143.2670 C   0  0  0  0  0  3  0  0  0  0  0  0
  192.3890  172.4140  144.6340 C   0  0  0  0  0  0  0  0  0  0  0  0
  192.1170  171.1320  144.1510 C   0  0  0  0  0  3  0  0  0  0  0  0
  193.0080  176.3950  146.2860 C   0  0  0  0  0  2  0  0  0  0  0  0
  194.7330  176.2900  144.8380 C   0  0  1  0  0  3  0  0  0  0  0  0
  195.9030  177.0220  144.2630 C   0  0  0  0  0  3  0  0  0  0  0  0
  190.7040  175.7120  144.7540 C   0  0  0  0  0  2  0  0  0  0  0  0
  191.6500  177.0640  143.0450 O   0  0  0  0  0  0  0  0  0  0  0  0
  190.6130  176.4950  143.4830 C   0  0  0  0  0  0  0  0  0  0  0  0
  186.8770  177.1580  141.5350 N   0  0  0  0  0  0  0  0  0  0  0  0
  189.1450  177.9090  142.0360 C   0  0  0  0  0  2  0  0  0  0  0  0
  188.5660  174.4990  143.1380 O   0  0  0  0  0  0  0  0  0  0  0  0
  185.5030  177.6150  141.4460 C   0  0  0  0  0  1  0  0  0  0  0  0
  187.6660  178.2910  142.0140 C   0  0  0  0  0  2  0  0  0  0  0  0
  188.3120  175.6980  142.8490 C   0  0  0  0  0  0  0  0  0  0  0  0
  189.3510  176.6940  142.8260 N   0  0  0  0  0  0  0  0  0  0  0  0
  186.9020  176.1060  142.5500 C   0  0  0  0  0  2  0  0  0  0  0  0
  1  9  1  0  0  0  0
  1 14  1  0  0  0  0
  2  5  1  6  0  0  0
  2 13  1  0  0  0  0
  3  7  1  6  0  0  0
  3  2  1  0  0  0  0
  4 15  1  0  0  0  0
  4  7  1  0  0  0  0
  5 14  2  0  0  0  0
  6  1  2  0  0  0  0
  8 21  1  0  0  0  0
  8 13  1  0  0  0  0
 10 18  1  0  0  0  0
 11  4  1  0  0  0  0
 12 16  1  0  0  0  0
 12  8  1  0  0  0  0
 13 18  1  6  0  0  0
 15 20  2  0  0  0  0
 16  5  1  0  0  0  0
 17  6  1  0  0  0  0
 17 16  2  0  0  0  0
 19 20  1  1  0  0  0
 19  3  1  0  0  0  0
 19 10  1  0  0  0  0
 22 23  2  0  0  0  0
 23 21  1  0  0  0  0
 24 28  1  0  0  0  0
 24 31  1  0  0  0  0
 25 30  1  0  0  0  0
 27 24  1  0  0  0  0
 28 25  1  0  0  0  0
 29 26  2  0  0  0  0
 30 29  1  0  0  0  0
 30 23  1  0  0  0  0
 31 29  1  0  0  0  0
M  END
>  <MODEL>
8

>  <REMARK>
 VINA RESULT:      -7.3      2.840      8.070
  Name = 
  2 active torsions:
  status: ('A' for Active; 'I' for Inactive)
    1  A    between atoms: C_5  and  C_16
    2  A    between atoms: N_10  and  C_16
                            x       y       z     vdW  Elec       q    Type
                         _______ _______ _______ _____ _____    ______ ____

>  <TORSDO>
F 2

$$$$
=
 OpenBabel11112416523D

 31 35  0  0  1  0  0  0  0  0999 V2000
  185.9930  178.3120  144.2580 C   0  0  0  0  0  0  0  0  0  0  0  0
  189.5740  177.1650  143.6940 C   0  0  2  0  0  3  0  0  0  0  0  0
  190.0150  176.5240  145.0360 C   0  0  1  0  0  3  0  0  0  0  0  0
  189.5730  175.1040  146.9910 N   0  0  0  0  0  0  0  0  0  0  0  0
  188.0830  177.3100  143.5470 C   0  0  0  0  0  0  0  0  0  0  0  0
  185.2970  177.5100  143.3500 C   0  0  0  0  0  3  0  0  0  0  0  0
  188.9830  175.6570  145.7670 C   0  0  0  0  0  2  0  0  0  0  0  0
  189.4430  175.2290  142.1920 N   0  0  0  0  0  0  0  0  0  0  0  0
  185.3040  179.2080  145.0650 O   0  0  0  0  0  1  0  0  0  0  0  0
  192.1700  176.3480  144.0240 O   0  0  0  0  0  0  0  0  0  0  0  0
  188.6950  174.6400  148.0470 C   0  0  0  0  0  1  0  0  0  0  0  0
  188.1190  175.6040  141.6830 C   0  0  0  0  0  2  0  0  0  0  0  0
  190.2010  176.4640  142.4660 C   0  0  2  0  0  3  0  0  0  0  0  0
  187.3840  178.2140  144.3570 C   0  0  0  0  0  3  0  0  0  0  0  0
  190.9980  174.9630  147.1550 C   0  0  0  0  0  3  0  0  0  0  0  0
  187.3790  176.4960  142.6390 C   0  0  0  0  0  0  0  0  0  0  0  0
  185.9900  176.6100  142.5360 C   0  0  0  0  0  3  0  0  0  0  0  0
  191.7220  176.1890  142.6910 C   0  0  0  0  0  2  0  0  0  0  0  0
  191.2580  175.6660  144.8340 C   0  0  1  0  0  3  0  0  0  0  0  0
  191.8320  175.2650  146.1550 C   0  0  0  0  0  3  0  0  0  0  0  0
  190.0820  174.4610  141.1280 C   0  0  0  0  0  2  0  0  0  0  0  0
  190.3720  172.7410  142.7400 O   0  0  0  0  0  0  0  0  0  0  0  0
  190.1540  173.0230  141.5310 C   0  0  0  0  0  0  0  0  0  0  0  0
  190.0190  169.8880  138.6400 N   0  0  0  0  0  0  0  0  0  0  0  0
  190.7760  170.7110  140.8110 C   0  0  0  0  0  2  0  0  0  0  0  0
  188.3730  172.9520  139.2680 O   0  0  0  0  0  0  0  0  0  0  0  0
  190.4610  169.1660  137.4620 C   0  0  0  0  0  1  0  0  0  0  0  0
  191.1910  170.0440  139.5000 C   0  0  0  0  0  2  0  0  0  0  0  0
  189.2940  172.0980  139.3530 C   0  0  0  0  0  0  0  0  0  0  0  0
  190.0870  171.9750  140.5490 N   0  0  0  0  0  0  0  0  0  0  0  0
  189.5920  171.2100  138.1840 C   0  0  0  0  0  2  0  0  0  0  0  0
  1 14  1  0  0  0  0
  1  9  1  0  0  0  0
  2  5  1  6  0  0  0
  2  3  1  0  0  0  0
  3  7  1  6  0  0  0
  4 15  1  0  0  0  0
  4 11  1  0  0  0  0
  5 14  2  0  0  0  0
  6  1  2  0  0  0  0
  7  4  1  0  0  0  0
  8 13  1  0  0  0  0
 10 19  1  0  0  0  0
 12  8  1  0  0  0  0
 12 16  1  0  0  0  0
 13 18  1  1  0  0  0
 13  2  1  0  0  0  0
 16  5  1  0  0  0  0
 17 16  2  0  0  0  0
 17  6  1  0  0  0  0
 18 10  1  0  0  0  0
 19  3  1  0  0  0  0
 19 20  1  1  0  0  0
 20 15  2  0  0  0  0
 21 23  1  0  0  0  0
 21  8  1  0  0  0  0
 23 22  2  0  0  0  0
 24 28  1  0  0  0  0
 26 29  2  0  0  0  0
 27 24  1  0  0  0  0
 28 25  1  0  0  0  0
 29 30  1  0  0  0  0
 30 25  1  0  0  0  0
 30 23  1  0  0  0  0
 31 24  1  0  0  0  0
 31 29  1  0  0  0  0
M  END
>  <MODEL>
9

>  <REMARK>
 VINA RESULT:      -7.1      3.480      6.091
  Name = 
  2 active torsions:
  status: ('A' for Active; 'I' for Inactive)
    1  A    between atoms: C_5  and  C_16
    2  A    between atoms: N_10  and  C_16
                            x       y       z     vdW  Elec       q    Type
                         _______ _______ _______ _____ _____    ______ ____

>  <TORSDO>
F 2

$$$$
